GDY.pdb
     RDKit          3D

 25 25  0  0  1  0  0  0  0  0999 V2000
   11.1652  -20.7187   20.5757 N   0  0  0  0  0  0  0  0  0  0  0  0
   11.6489  -19.5870   19.8471 C   0  0  0  0  0  0  0  0  0  0  0  0
   13.1386  -19.4858   19.9510 C   0  0  0  0  0  0  0  0  0  0  0  0
   13.8795  -20.4958   20.0276 O   0  0  0  0  0  0  0  0  0  0  0  0
   13.8082  -18.2329   19.9694 N   0  0  0  0  0  0  0  0  0  0  0  0
   15.1982  -18.0283   20.0430 C   0  0  1  0  0  0  0  0  0  0  0  0
   15.9290  -17.7201   18.7948 C   0  0  0  0  0  0  0  0  0  0  0  0
   17.4179  -17.7921   18.9650 C   0  0  0  0  0  0  0  0  0  0  0  0
   17.9799  -18.7353   19.5857 O   0  0  0  0  0  0  0  0  0  0  0  0
   15.5380  -16.9662   21.0357 C   0  0  0  0  0  0  0  0  0  0  0  0
   15.4686  -15.7383   20.6957 O   0  0  0  0  0  0  0  0  0  0  0  0
   18.2585  -16.8177   18.4445 O   0  0  0  0  0  0  0  0  0  0  0  0
    9.6932  -16.5606   23.4712 O   0  0  0  0  0  0  0  0  0  0  0  0
   11.0628  -16.5853   23.7368 C   0  0  0  0  0  0  0  0  0  0  0  0
   11.7754  -15.4084   23.6841 C   0  0  0  0  0  0  0  0  0  0  0  0
   13.1270  -15.4371   23.9469 C   0  0  0  0  0  0  0  0  0  0  0  0
   13.8044  -16.5929   24.2618 C   0  0  0  0  0  0  0  0  0  0  0  0
   15.2443  -16.5352   24.5252 C   0  0  0  0  0  0  0  0  0  0  0  0
   16.0903  -16.1456   23.3495 C   0  0  2  0  0  0  0  0  0  0  0  0
   15.9419  -17.2244   22.3596 N   0  0  0  0  0  0  0  0  0  0  0  0
   17.5230  -16.0879   23.7017 C   0  0  0  0  0  0  0  0  0  0  0  0
   18.4209  -17.0179   23.1713 O   0  0  0  0  0  0  0  0  0  0  0  0
   13.0881  -17.7668   24.3133 C   0  0  0  0  0  0  0  0  0  0  0  0
   11.7352  -17.7537   24.0527 C   0  0  0  0  0  0  0  0  0  0  0  0
   18.0058  -15.2187   24.4815 O   0  0  0  0  0  0  0  0  0  0  0  0
  1  2  1  0
  3  5  1  0
  3  2  1  0
  4  3  2  0
  6  5  1  0
  6 10  1  0
  6  7  1  6
  8  7  1  0
  8  9  2  0
 10 20  1  0
 11 10  2  0
 12  8  1  0
 13 14  1  0
 14 24  2  0
 14 15  1  0
 15 16  2  0
 16 17  1  0
 17 18  1  0
 19 18  1  1
 19 21  1  0
 20 19  1  0
 21 22  1  0
 23 17  2  0
 24 23  1  0
 25 21  2  0
M  END
$$$$
