GDY.pdb
     RDKit          3D

 25 25  0  0  1  0  0  0  0  0999 V2000
    6.4735  -20.8883   21.3827 N   0  0  0  0  0  0  0  0  0  0  0  0
    6.7064  -19.5486   20.9395 C   0  0  0  0  0  0  0  0  0  0  0  0
    8.0884  -19.1023   21.3016 C   0  0  0  0  0  0  0  0  0  0  0  0
    8.7537  -19.6436   22.2176 O   0  0  0  0  0  0  0  0  0  0  0  0
    8.7347  -18.0323   20.6263 N   0  0  0  0  0  0  0  0  0  0  0  0
    9.9804  -17.4667   20.9546 C   0  0  1  0  0  0  0  0  0  0  0  0
   10.7191  -16.7373   19.9014 C   0  0  0  0  0  0  0  0  0  0  0  0
   11.1664  -17.6335   18.7842 C   0  0  0  0  0  0  0  0  0  0  0  0
   11.3976  -18.8612   18.9573 O   0  0  0  0  0  0  0  0  0  0  0  0
    9.8696  -16.5596   22.1351 C   0  0  0  0  0  0  0  0  0  0  0  0
   10.9219  -16.0302   22.6259 O   0  0  0  0  0  0  0  0  0  0  0  0
   11.3497  -17.1538   17.4946 O   0  0  0  0  0  0  0  0  0  0  0  0
    6.3243  -10.9107   28.0072 O   0  0  0  0  0  0  0  0  0  0  0  0
    6.5574  -11.8345   26.9878 C   0  0  0  0  0  0  0  0  0  0  0  0
    7.2478  -11.4327   25.8664 C   0  0  0  0  0  0  0  0  0  0  0  0
    7.4758  -12.3475   24.8626 C   0  0  0  0  0  0  0  0  0  0  0  0
    7.0441  -13.6527   24.9264 C   0  0  0  0  0  0  0  0  0  0  0  0
    7.3273  -14.5607   23.8122 C   0  0  0  0  0  0  0  0  0  0  0  0
    8.6040  -15.3383   23.9348 C   0  0  2  0  0  0  0  0  0  0  0  0
    8.6548  -16.2335   22.7679 N   0  0  0  0  0  0  0  0  0  0  0  0
    8.6054  -16.2024   25.1320 C   0  0  0  0  0  0  0  0  0  0  0  0
    9.1157  -15.7320   26.3447 O   0  0  0  0  0  0  0  0  0  0  0  0
    6.3545  -14.0498   26.0491 C   0  0  0  0  0  0  0  0  0  0  0  0
    6.1188  -13.1457   27.0617 C   0  0  0  0  0  0  0  0  0  0  0  0
    8.1579  -17.3841   25.1286 O   0  0  0  0  0  0  0  0  0  0  0  0
  1  2  1  0
  3  5  1  0
  3  2  1  0
  4  3  2  0
  6  5  1  0
  6 10  1  0
  6  7  1  6
  8  7  1  0
  8  9  2  0
 10 20  1  0
 11 10  2  0
 12  8  1  0
 13 14  1  0
 14 24  2  0
 14 15  1  0
 15 16  2  0
 16 17  1  0
 17 18  1  0
 19 18  1  6
 19 21  1  0
 20 19  1  0
 21 22  1  0
 23 17  2  0
 24 23  1  0
 25 21  2  0
M  END
$$$$
