GDY.pdb
     RDKit          3D

 25 25  0  0  1  0  0  0  0  0999 V2000
    8.0756  -12.2180   18.4926 N   0  0  0  0  0  0  0  0  0  0  0  0
    8.6416  -13.5308   18.4522 C   0  0  0  0  0  0  0  0  0  0  0  0
    8.2815  -14.3024   19.6831 C   0  0  0  0  0  0  0  0  0  0  0  0
    7.8967  -13.7454   20.7398 O   0  0  0  0  0  0  0  0  0  0  0  0
    8.3540  -15.7205   19.7303 N   0  0  0  0  0  0  0  0  0  0  0  0
    8.0347  -16.5383   20.8297 C   0  0  1  0  0  0  0  0  0  0  0  0
    7.8706  -17.9899   20.5999 C   0  0  0  0  0  0  0  0  0  0  0  0
    7.5112  -18.7353   21.8515 C   0  0  0  0  0  0  0  0  0  0  0  0
    6.3276  -18.7953   22.2831 O   0  0  0  0  0  0  0  0  0  0  0  0
    9.0217  -16.3680   21.9368 C   0  0  0  0  0  0  0  0  0  0  0  0
   10.2596  -16.5881   21.7188 O   0  0  0  0  0  0  0  0  0  0  0  0
    8.4694  -19.4013   22.6033 O   0  0  0  0  0  0  0  0  0  0  0  0
    5.2269  -11.9259   26.8702 O   0  0  0  0  0  0  0  0  0  0  0  0
    6.3637  -12.5077   26.3082 C   0  0  0  0  0  0  0  0  0  0  0  0
    6.4593  -12.6009   24.9379 C   0  0  0  0  0  0  0  0  0  0  0  0
    7.5831  -13.1759   24.3873 C   0  0  0  0  0  0  0  0  0  0  0  0
    8.6222  -13.6650   25.1454 C   0  0  0  0  0  0  0  0  0  0  0  0
    9.7811  -14.2638   24.4787 C   0  0  0  0  0  0  0  0  0  0  0  0
    9.7024  -15.7483   24.2787 C   0  0  2  0  0  0  0  0  0  0  0  0
    8.6802  -15.9708   23.2436 N   0  0  0  0  0  0  0  0  0  0  0  0
    9.2311  -16.4398   25.4951 C   0  0  0  0  0  0  0  0  0  0  0  0
   10.0563  -16.5393   26.6182 O   0  0  0  0  0  0  0  0  0  0  0  0
    8.5224  -13.5697   26.5146 C   0  0  0  0  0  0  0  0  0  0  0  0
    7.4040  -12.9970   27.0799 C   0  0  0  0  0  0  0  0  0  0  0  0
    8.0864  -16.9670   25.5875 O   0  0  0  0  0  0  0  0  0  0  0  0
  1  2  1  0
  3  5  1  0
  3  2  1  0
  4  3  2  0
  6  5  1  0
  6 10  1  0
  6  7  1  6
  8  7  1  0
  8  9  2  0
 10 20  1  0
 11 10  2  0
 12  8  1  0
 13 14  1  0
 14 24  2  0
 14 15  1  0
 15 16  2  0
 16 17  1  0
 17 18  1  0
 19 18  1  1
 19 21  1  0
 20 19  1  0
 21 22  1  0
 23 17  2  0
 24 23  1  0
 25 21  2  0
M  END
$$$$
