GDY.pdb
     RDKit          3D

 25 25  0  0  1  0  0  0  0  0999 V2000
    7.1647  -12.5976   19.0894 N   0  0  0  0  0  0  0  0  0  0  0  0
    8.4500  -13.2099   18.9528 C   0  0  0  0  0  0  0  0  0  0  0  0
    8.5814  -14.3804   19.8763 C   0  0  0  0  0  0  0  0  0  0  0  0
    7.7707  -14.5978   20.8092 O   0  0  0  0  0  0  0  0  0  0  0  0
    9.6381  -15.3219   19.7521 N   0  0  0  0  0  0  0  0  0  0  0  0
    9.8432  -16.4598   20.5536 C   0  0  1  0  0  0  0  0  0  0  0  0
   10.6113  -17.5888   19.9857 C   0  0  0  0  0  0  0  0  0  0  0  0
    9.9559  -18.1803   18.7725 C   0  0  0  0  0  0  0  0  0  0  0  0
   10.4579  -18.0803   17.6198 O   0  0  0  0  0  0  0  0  0  0  0  0
   10.4747  -16.0982   21.8571 C   0  0  0  0  0  0  0  0  0  0  0  0
   11.6036  -15.5033   21.8686 O   0  0  0  0  0  0  0  0  0  0  0  0
    8.7556  -18.8723   18.8575 O   0  0  0  0  0  0  0  0  0  0  0  0
   10.6721  -14.4188   30.6505 O   0  0  0  0  0  0  0  0  0  0  0  0
   10.4071  -14.6537   29.3009 C   0  0  0  0  0  0  0  0  0  0  0  0
    9.4042  -13.9415   28.6825 C   0  0  0  0  0  0  0  0  0  0  0  0
    9.1458  -14.1764   27.3504 C   0  0  0  0  0  0  0  0  0  0  0  0
    9.8462  -15.0948   26.6021 C   0  0  0  0  0  0  0  0  0  0  0  0
    9.5051  -15.2845   25.1902 C   0  0  0  0  0  0  0  0  0  0  0  0
   10.5567  -15.9697   24.3689 C   0  0  2  0  0  0  0  0  0  0  0  0
    9.9019  -16.3720   23.1138 N   0  0  0  0  0  0  0  0  0  0  0  0
   11.0334  -17.2091   25.0142 C   0  0  0  0  0  0  0  0  0  0  0  0
   12.2004  -17.2042   25.7825 O   0  0  0  0  0  0  0  0  0  0  0  0
   10.8478  -15.8044   27.2244 C   0  0  0  0  0  0  0  0  0  0  0  0
   11.1178  -15.5802   28.5567 C   0  0  0  0  0  0  0  0  0  0  0  0
   10.4302  -18.3147   24.9113 O   0  0  0  0  0  0  0  0  0  0  0  0
  1  2  1  0
  3  5  1  0
  3  2  1  0
  4  3  2  0
  6  5  1  0
  6 10  1  0
  6  7  1  6
  8  7  1  0
  8  9  2  0
 10 20  1  0
 11 10  2  0
 12  8  1  0
 13 14  1  0
 14 24  2  0
 14 15  1  0
 15 16  2  0
 16 17  1  0
 17 18  1  0
 19 18  1  1
 19 21  1  0
 20 19  1  0
 21 22  1  0
 23 17  2  0
 24 23  1  0
 25 21  2  0
M  END
$$$$
