GDY.pdb
     RDKit          3D

 25 25  0  0  1  0  0  0  0  0999 V2000
    7.5970  -13.2974   16.7773 N   0  0  0  0  0  0  0  0  0  0  0  0
    8.7660  -13.3967   17.5953 C   0  0  0  0  0  0  0  0  0  0  0  0
    8.6585  -14.5554   18.5366 C   0  0  0  0  0  0  0  0  0  0  0  0
    7.5611  -14.9448   19.0045 O   0  0  0  0  0  0  0  0  0  0  0  0
    9.7991  -15.2891   18.9601 N   0  0  0  0  0  0  0  0  0  0  0  0
    9.8235  -16.3164   19.9211 C   0  0  1  0  0  0  0  0  0  0  0  0
   10.8960  -17.3310   19.8362 C   0  0  0  0  0  0  0  0  0  0  0  0
   10.7245  -18.4370   20.8355 C   0  0  0  0  0  0  0  0  0  0  0  0
    9.6033  -18.9652   21.0694 O   0  0  0  0  0  0  0  0  0  0  0  0
    9.8390  -15.7619   21.3071 C   0  0  0  0  0  0  0  0  0  0  0  0
   10.8356  -15.0678   21.6986 O   0  0  0  0  0  0  0  0  0  0  0  0
   11.7981  -18.9387   21.5583 O   0  0  0  0  0  0  0  0  0  0  0  0
    6.2936  -11.2282   27.9444 O   0  0  0  0  0  0  0  0  0  0  0  0
    6.5369  -12.0826   26.8684 C   0  0  0  0  0  0  0  0  0  0  0  0
    7.2221  -11.6025   25.7750 C   0  0  0  0  0  0  0  0  0  0  0  0
    7.4601  -12.4490   24.7152 C   0  0  0  0  0  0  0  0  0  0  0  0
    7.0435  -13.7605   24.6958 C   0  0  0  0  0  0  0  0  0  0  0  0
    7.3365  -14.5925   23.5263 C   0  0  0  0  0  0  0  0  0  0  0  0
    8.7246  -15.1593   23.4813 C   0  0  2  0  0  0  0  0  0  0  0  0
    8.8057  -15.9525   22.2443 N   0  0  0  0  0  0  0  0  0  0  0  0
    8.9713  -16.0915   24.5993 C   0  0  0  0  0  0  0  0  0  0  0  0
    9.5622  -15.6390   25.7818 O   0  0  0  0  0  0  0  0  0  0  0  0
    6.3589  -14.2360   25.7908 C   0  0  0  0  0  0  0  0  0  0  0  0
    6.1133  -13.4008   26.8587 C   0  0  0  0  0  0  0  0  0  0  0  0
    8.6708  -17.3180   24.5520 O   0  0  0  0  0  0  0  0  0  0  0  0
  1  2  1  0
  3  5  1  0
  3  2  1  0
  4  3  2  0
  6  5  1  0
  6 10  1  0
  6  7  1  6
  8  7  1  0
  8  9  2  0
 10 20  1  0
 11 10  2  0
 12  8  1  0
 13 14  1  0
 14 24  2  0
 14 15  1  0
 15 16  2  0
 16 17  1  0
 17 18  1  0
 19 18  1  1
 19 21  1  0
 20 19  1  0
 21 22  1  0
 23 17  2  0
 24 23  1  0
 25 21  2  0
M  END
$$$$
