GDY.pdb
     RDKit          3D

 25 25  0  0  1  0  0  0  0  0999 V2000
   11.8059  -19.9083   23.6806 N   0  0  0  0  0  0  0  0  0  0  0  0
   10.5059  -19.4686   24.0831 C   0  0  0  0  0  0  0  0  0  0  0  0
   10.4140  -17.9753   24.0418 C   0  0  0  0  0  0  0  0  0  0  0  0
   10.9925  -17.2405   24.8786 O   0  0  0  0  0  0  0  0  0  0  0  0
    9.6618  -17.2949   23.0469 N   0  0  0  0  0  0  0  0  0  0  0  0
    9.4099  -15.9120   22.9885 C   0  0  1  0  0  0  0  0  0  0  0  0
    8.9635  -15.3339   21.7025 C   0  0  0  0  0  0  0  0  0  0  0  0
    9.9122  -15.6274   20.5777 C   0  0  0  0  0  0  0  0  0  0  0  0
   11.1346  -15.3215   20.6307 O   0  0  0  0  0  0  0  0  0  0  0  0
    8.4276  -15.4953   24.0327 C   0  0  0  0  0  0  0  0  0  0  0  0
    7.4242  -16.2407   24.2894 O   0  0  0  0  0  0  0  0  0  0  0  0
    9.4900  -16.2547   19.4136 O   0  0  0  0  0  0  0  0  0  0  0  0
   11.7053  -16.7264   29.7752 O   0  0  0  0  0  0  0  0  0  0  0  0
   10.8255  -15.8981   29.0775 C   0  0  0  0  0  0  0  0  0  0  0  0
   11.3296  -14.8221   28.3821 C   0  0  0  0  0  0  0  0  0  0  0  0
   10.4579  -14.0071   27.6947 C   0  0  0  0  0  0  0  0  0  0  0  0
    9.0982  -14.2175   27.6689 C   0  0  0  0  0  0  0  0  0  0  0  0
    8.2411  -13.3001   26.9140 C   0  0  0  0  0  0  0  0  0  0  0  0
    7.5041  -13.9201   25.7641 C   0  0  2  0  0  0  0  0  0  0  0  0
    8.5271  -14.3055   24.7789 N   0  0  0  0  0  0  0  0  0  0  0  0
    6.6167  -12.9480   25.0952 C   0  0  0  0  0  0  0  0  0  0  0  0
    5.4737  -12.4705   25.7416 O   0  0  0  0  0  0  0  0  0  0  0  0
    8.5988  -15.2942   28.3654 C   0  0  0  0  0  0  0  0  0  0  0  0
    9.4587  -16.1185   29.0578 C   0  0  0  0  0  0  0  0  0  0  0  0
    6.8339  -12.5046   23.9320 O   0  0  0  0  0  0  0  0  0  0  0  0
  1  2  1  0
  3  5  1  0
  3  2  1  0
  4  3  2  0
  6  5  1  0
  6 10  1  0
  6  7  1  6
  8  7  1  0
  8  9  2  0
 10 20  1  0
 11 10  2  0
 12  8  1  0
 13 14  1  0
 14 24  2  0
 14 15  1  0
 15 16  2  0
 16 17  1  0
 17 18  1  0
 19 18  1  1
 19 21  1  0
 20 19  1  0
 21 22  1  0
 23 17  2  0
 24 23  1  0
 25 21  2  0
M  END
$$$$
