GDY.pdb
     RDKit          3D

 25 25  0  0  1  0  0  0  0  0999 V2000
    5.8308  -15.7198   19.2484 N   0  0  0  0  0  0  0  0  0  0  0  0
    6.6605  -15.0068   20.1695 C   0  0  0  0  0  0  0  0  0  0  0  0
    7.8319  -15.8410   20.5844 C   0  0  0  0  0  0  0  0  0  0  0  0
    8.3923  -16.6510   19.8068 O   0  0  0  0  0  0  0  0  0  0  0  0
    8.3839  -15.7660   21.8914 N   0  0  0  0  0  0  0  0  0  0  0  0
    9.5695  -16.3796   22.3353 C   0  0  1  0  0  0  0  0  0  0  0  0
   10.8185  -16.1143   21.5893 C   0  0  0  0  0  0  0  0  0  0  0  0
   11.9526  -16.9911   22.0323 C   0  0  0  0  0  0  0  0  0  0  0  0
   11.7660  -18.0592   22.6765 O   0  0  0  0  0  0  0  0  0  0  0  0
    9.8323  -16.0750   23.7730 C   0  0  0  0  0  0  0  0  0  0  0  0
   10.5431  -15.0620   24.0843 O   0  0  0  0  0  0  0  0  0  0  0  0
   13.2739  -16.6693   21.7538 O   0  0  0  0  0  0  0  0  0  0  0  0
    6.0994  -10.9053   25.7325 O   0  0  0  0  0  0  0  0  0  0  0  0
    6.5913  -12.1839   25.9969 C   0  0  0  0  0  0  0  0  0  0  0  0
    6.3173  -13.2021   25.1115 C   0  0  0  0  0  0  0  0  0  0  0  0
    6.8047  -14.4626   25.3761 C   0  0  0  0  0  0  0  0  0  0  0  0
    7.5574  -14.7560   26.4902 C   0  0  0  0  0  0  0  0  0  0  0  0
    8.0351  -16.1253   26.6971 C   0  0  0  0  0  0  0  0  0  0  0  0
    9.4398  -16.3843   26.2392 C   0  0  2  0  0  0  0  0  0  0  0  0
    9.3402  -16.8441   24.8447 N   0  0  0  0  0  0  0  0  0  0  0  0
   10.0707  -17.4795   27.0023 C   0  0  0  0  0  0  0  0  0  0  0  0
   10.5015  -17.2717   28.3151 O   0  0  0  0  0  0  0  0  0  0  0  0
    7.8288  -13.7352   27.3724 C   0  0  0  0  0  0  0  0  0  0  0  0
    7.3479  -12.4688   27.1209 C   0  0  0  0  0  0  0  0  0  0  0  0
   10.2523  -18.6354   26.5252 O   0  0  0  0  0  0  0  0  0  0  0  0
  1  2  1  0
  3  5  1  0
  3  2  1  0
  4  3  2  0
  6  5  1  0
  6 10  1  0
  6  7  1  6
  8  7  1  0
  8  9  2  0
 10 20  1  0
 11 10  2  0
 12  8  1  0
 13 14  1  0
 14 24  2  0
 14 15  1  0
 15 16  2  0
 16 17  1  0
 17 18  1  0
 19 18  1  1
 19 21  1  0
 20 19  1  0
 21 22  1  0
 23 17  2  0
 24 23  1  0
 25 21  2  0
M  END
$$$$
