GDY.pdb
     RDKit          3D

 25 25  0  0  1  0  0  0  0  0999 V2000
    4.4410  -18.9050   21.0319 N   0  0  0  0  0  0  0  0  0  0  0  0
    5.0682  -17.6197   21.0437 C   0  0  0  0  0  0  0  0  0  0  0  0
    6.5086  -17.7353   21.4336 C   0  0  0  0  0  0  0  0  0  0  0  0
    6.9148  -18.5745   22.2736 O   0  0  0  0  0  0  0  0  0  0  0  0
    7.5095  -16.8971   20.8730 N   0  0  0  0  0  0  0  0  0  0  0  0
    8.8483  -16.7965   21.2936 C   0  0  1  0  0  0  0  0  0  0  0  0
    9.8325  -16.2005   20.3646 C   0  0  0  0  0  0  0  0  0  0  0  0
    9.9634  -16.9762   19.0870 C   0  0  0  0  0  0  0  0  0  0  0  0
    9.9081  -18.2358   19.0553 O   0  0  0  0  0  0  0  0  0  0  0  0
    8.9556  -16.0651   22.5907 C   0  0  0  0  0  0  0  0  0  0  0  0
    8.6488  -14.8277   22.6454 O   0  0  0  0  0  0  0  0  0  0  0  0
   10.1532  -16.3428   17.8664 O   0  0  0  0  0  0  0  0  0  0  0  0
    6.1895  -10.7212   27.1601 O   0  0  0  0  0  0  0  0  0  0  0  0
    6.5559  -11.9778   26.6768 C   0  0  0  0  0  0  0  0  0  0  0  0
    7.3921  -12.7675   27.4336 C   0  0  0  0  0  0  0  0  0  0  0  0
    7.7514  -14.0070   26.9529 C   0  0  0  0  0  0  0  0  0  0  0  0
    7.3122  -14.4980   25.7447 C   0  0  0  0  0  0  0  0  0  0  0  0
    7.7448  -15.8274   25.3068 C   0  0  0  0  0  0  0  0  0  0  0  0
    9.2217  -15.9761   25.0914 C   0  0  2  0  0  0  0  0  0  0  0  0
    9.3827  -16.6550   23.7956 N   0  0  0  0  0  0  0  0  0  0  0  0
    9.8373  -16.8521   26.1080 C   0  0  0  0  0  0  0  0  0  0  0  0
   10.3375  -16.3149   27.2969 O   0  0  0  0  0  0  0  0  0  0  0  0
    6.4766  -13.7052   24.9916 C   0  0  0  0  0  0  0  0  0  0  0  0
    6.1085  -12.4627   25.4595 C   0  0  0  0  0  0  0  0  0  0  0  0
    9.9445  -18.1030   25.9650 O   0  0  0  0  0  0  0  0  0  0  0  0
  1  2  1  0
  3  5  1  0
  3  2  1  0
  4  3  2  0
  6  5  1  0
  6 10  1  0
  6  7  1  6
  8  7  1  0
  8  9  2  0
 10 20  1  0
 11 10  2  0
 12  8  1  0
 13 14  1  0
 14 24  2  0
 14 15  1  0
 15 16  2  0
 16 17  1  0
 17 18  1  0
 19 18  1  1
 19 21  1  0
 20 19  1  0
 21 22  1  0
 23 17  2  0
 24 23  1  0
 25 21  2  0
M  END
$$$$
