NEC.pdb
     RDKit          3D

 24 23  0  0  1  0  0  0  0  0999 V2000
   14.7762  -12.3699  -16.5389 N   0  0  0  0  0  0  0  0  0  0  0  0
   15.5478  -11.9212  -15.4153 C   0  0  0  0  0  0  0  0  0  0  0  0
   15.0094  -12.1302  -14.2962 O   0  0  0  0  0  0  0  0  0  0  0  0
   16.8505  -11.2774  -15.5945 C   0  0  0  0  0  0  0  0  0  0  0  0
   17.2259  -10.9790  -17.0055 C   0  0  2  0  0  0  0  0  0  0  0  0
   17.6601  -12.2338  -17.6523 N   0  0  0  0  0  0  0  0  0  0  0  0
   18.3710  -10.0295  -17.0950 C   0  0  0  0  0  0  0  0  0  0  0  0
   19.5423  -10.4080  -17.2635 O   0  0  0  0  0  0  0  0  0  0  0  0
   18.1434   -8.6223  -16.9862 N   0  0  0  0  0  0  0  0  0  0  0  0
   19.2162   -7.6361  -17.1416 C   0  0  1  0  0  0  0  0  0  0  0  0
   18.7242   -6.4369  -17.8813 C   0  0  0  0  0  0  0  0  0  0  0  0
   19.7804   -5.4280  -18.1765 C   0  0  0  0  0  0  0  0  0  0  0  0
   19.3530   -4.2787  -18.9882 C   0  0  0  0  0  0  0  0  0  0  0  0
   20.0908   -3.7742  -19.8389 O   0  0  0  0  0  0  0  0  0  0  0  0
   19.7240   -7.2223  -15.8108 C   0  0  0  0  0  0  0  0  0  0  0  0
   18.9508   -6.9225  -14.9069 O   0  0  0  0  0  0  0  0  0  0  0  0
   18.0873   -3.7116  -18.8249 O   0  0  0  0  0  0  0  0  0  0  0  0
   21.1362   -7.1581  -15.5331 N   0  0  0  0  0  0  0  0  0  0  0  0
   21.6876   -6.8161  -14.2656 C   0  0  1  0  0  0  0  0  0  0  0  0
   22.8351   -7.6806  -13.8263 C   0  0  0  0  0  0  0  0  0  0  0  0
   22.3600   -9.4217  -13.6440 S   0  0  0  0  0  0  0  0  0  0  0  0
   22.1416   -5.4048  -14.1899 C   0  0  0  0  0  0  0  0  0  0  0  0
   22.1852   -4.7385  -15.2512 O   0  0  0  0  0  0  0  0  0  0  0  0
   22.5161   -4.7986  -13.0046 O   0  0  0  0  0  0  0  0  0  0  0  0
  1  2  1  0
  2  3  2  0
  4  5  1  0
  4  2  1  0
  5  6  1  1
  7  5  1  0
  8  7  2  0
  9  7  1  0
 10 11  1  1
 10  9  1  0
 11 12  1  0
 13 12  1  0
 13 17  1  0
 14 13  2  0
 15 18  1  0
 15 10  1  0
 16 15  2  0
 19 20  1  6
 19 18  1  0
 20 21  1  0
 22 19  1  0
 22 24  1  0
 23 22  2  0
M  END
$$$$
