NEC.pdb
     RDKit          3D

 24 23  0  0  1  0  0  0  0  0999 V2000
   19.3097  -21.7014  -11.2356 N   0  0  0  0  0  0  0  0  0  0  0  0
   20.1514  -21.9113  -12.3787 C   0  0  0  0  0  0  0  0  0  0  0  0
   20.0040  -23.0309  -12.9361 O   0  0  0  0  0  0  0  0  0  0  0  0
   21.0924  -20.8846  -12.8303 C   0  0  0  0  0  0  0  0  0  0  0  0
   20.8019  -20.2973  -14.1687 C   0  0  2  0  0  0  0  0  0  0  0  0
   20.8363  -21.3783  -15.1744 N   0  0  0  0  0  0  0  0  0  0  0  0
   21.8256  -19.2949  -14.5783 C   0  0  0  0  0  0  0  0  0  0  0  0
   22.0910  -18.2920  -13.8946 O   0  0  0  0  0  0  0  0  0  0  0  0
   22.5466  -19.4675  -15.8007 N   0  0  0  0  0  0  0  0  0  0  0  0
   23.5595  -18.5132  -16.2598 C   0  0  1  0  0  0  0  0  0  0  0  0
   24.6420  -19.2161  -17.0093 C   0  0  0  0  0  0  0  0  0  0  0  0
   25.7040  -18.3126  -17.5351 C   0  0  0  0  0  0  0  0  0  0  0  0
   26.8690  -18.9813  -18.1335 C   0  0  0  0  0  0  0  0  0  0  0  0
   27.9526  -18.4054  -18.2633 O   0  0  0  0  0  0  0  0  0  0  0  0
   22.9361  -17.4905  -17.1346 C   0  0  0  0  0  0  0  0  0  0  0  0
   21.9016  -17.7321  -17.7480 O   0  0  0  0  0  0  0  0  0  0  0  0
   26.7914  -20.3021  -18.5802 O   0  0  0  0  0  0  0  0  0  0  0  0
   23.5198  -16.1830  -17.2947 N   0  0  0  0  0  0  0  0  0  0  0  0
   22.8221  -15.0528  -17.8081 C   0  0  1  0  0  0  0  0  0  0  0  0
   21.6235  -14.6364  -17.0037 C   0  0  0  0  0  0  0  0  0  0  0  0
   20.8374  -13.1382  -17.6576 S   0  0  0  0  0  0  0  0  0  0  0  0
   23.6873  -13.8569  -17.9656 C   0  0  0  0  0  0  0  0  0  0  0  0
   24.7254  -13.7800  -17.2664 O   0  0  0  0  0  0  0  0  0  0  0  0
   23.3975  -12.8306  -18.8462 O   0  0  0  0  0  0  0  0  0  0  0  0
  1  2  1  0
  2  3  2  0
  4  5  1  0
  4  2  1  0
  5  6  1  6
  7  5  1  0
  8  7  2  0
  9  7  1  0
 10 11  1  6
 10  9  1  0
 11 12  1  0
 13 12  1  0
 13 17  1  0
 14 13  2  0
 15 18  1  0
 15 10  1  0
 16 15  2  0
 19 20  1  1
 19 18  1  0
 20 21  1  0
 22 19  1  0
 22 24  1  0
 23 22  2  0
M  END
$$$$
