NEC.pdb
     RDKit          3D

 24 23  0  0  1  0  0  0  0  0999 V2000
   14.0814  -13.1092  -12.6539 N   0  0  0  0  0  0  0  0  0  0  0  0
   14.6973  -13.2492  -11.3654 C   0  0  0  0  0  0  0  0  0  0  0  0
   14.5264  -14.3740  -10.8253 O   0  0  0  0  0  0  0  0  0  0  0  0
   15.4547  -12.1521  -10.7602 C   0  0  0  0  0  0  0  0  0  0  0  0
   15.5135  -10.8983  -11.5634 C   0  0  2  0  0  0  0  0  0  0  0  0
   16.3392  -11.1461  -12.7626 N   0  0  0  0  0  0  0  0  0  0  0  0
   16.1603   -9.7817  -10.8181 C   0  0  0  0  0  0  0  0  0  0  0  0
   15.7428   -9.3808   -9.7187 O   0  0  0  0  0  0  0  0  0  0  0  0
   17.3077   -9.1270  -11.3647 N   0  0  0  0  0  0  0  0  0  0  0  0
   17.8857   -7.9201  -10.7673 C   0  0  1  0  0  0  0  0  0  0  0  0
   18.9625   -7.3661  -11.6397 C   0  0  0  0  0  0  0  0  0  0  0  0
   19.6962   -6.2140  -11.0439 C   0  0  0  0  0  0  0  0  0  0  0  0
   20.8043   -5.6803  -11.8500 C   0  0  0  0  0  0  0  0  0  0  0  0
   21.9810   -5.9528  -11.5975 O   0  0  0  0  0  0  0  0  0  0  0  0
   16.8322   -6.8948  -10.5705 C   0  0  0  0  0  0  0  0  0  0  0  0
   16.0421   -6.6230  -11.4686 O   0  0  0  0  0  0  0  0  0  0  0  0
   20.5642   -4.8394  -12.9387 O   0  0  0  0  0  0  0  0  0  0  0  0
   16.6993   -6.1849   -9.3238 N   0  0  0  0  0  0  0  0  0  0  0  0
   15.7273   -5.1735   -9.0788 C   0  0  1  0  0  0  0  0  0  0  0  0
   14.7462   -5.4969   -7.9879 C   0  0  0  0  0  0  0  0  0  0  0  0
   13.7032   -4.0784   -7.5519 S   0  0  0  0  0  0  0  0  0  0  0  0
   16.3278   -3.8545   -8.7580 C   0  0  0  0  0  0  0  0  0  0  0  0
   17.5209   -3.8241   -8.3734 O   0  0  0  0  0  0  0  0  0  0  0  0
   15.6300   -2.6652   -8.8651 O   0  0  0  0  0  0  0  0  0  0  0  0
  1  2  1  0
  2  3  2  0
  4  5  1  0
  4  2  1  0
  5  6  1  6
  7  5  1  0
  8  7  2  0
  9  7  1  0
 10 11  1  6
 10  9  1  0
 11 12  1  0
 13 12  1  0
 13 17  1  0
 14 13  2  0
 15 18  1  0
 15 10  1  0
 16 15  2  0
 19 20  1  1
 19 18  1  0
 20 21  1  0
 22 19  1  0
 22 24  1  0
 23 22  2  0
M  END
$$$$
