NEC.pdb
     RDKit          3D

 24 23  0  0  1  0  0  0  0  0999 V2000
   17.0766  -11.5640  -15.3405 N   0  0  0  0  0  0  0  0  0  0  0  0
   18.3798  -11.7521  -14.7701 C   0  0  0  0  0  0  0  0  0  0  0  0
   18.5165  -12.8247  -14.1246 O   0  0  0  0  0  0  0  0  0  0  0  0
   19.4389  -10.7565  -14.9457 C   0  0  0  0  0  0  0  0  0  0  0  0
   19.0521   -9.5434  -15.7199 C   0  0  2  0  0  0  0  0  0  0  0  0
   19.1814   -9.8435  -17.1602 N   0  0  0  0  0  0  0  0  0  0  0  0
   19.9480   -8.3863  -15.4386 C   0  0  0  0  0  0  0  0  0  0  0  0
   20.0780   -7.9016  -14.3020 O   0  0  0  0  0  0  0  0  0  0  0  0
   20.6997   -7.7897  -16.4982 N   0  0  0  0  0  0  0  0  0  0  0  0
   21.5748   -6.6329  -16.2895 C   0  0  1  0  0  0  0  0  0  0  0  0
   22.8810   -6.8302  -16.9841 C   0  0  0  0  0  0  0  0  0  0  0  0
   23.7585   -7.8547  -16.3510 C   0  0  0  0  0  0  0  0  0  0  0  0
   25.0926   -8.0074  -16.9505 C   0  0  0  0  0  0  0  0  0  0  0  0
   25.5517   -9.1156  -17.2397 O   0  0  0  0  0  0  0  0  0  0  0  0
   20.9233   -5.4027  -16.8013 C   0  0  0  0  0  0  0  0  0  0  0  0
   20.2432   -5.4280  -17.8219 O   0  0  0  0  0  0  0  0  0  0  0  0
   25.8950   -6.8958  -17.2165 O   0  0  0  0  0  0  0  0  0  0  0  0
   21.0648   -4.1401  -16.1219 N   0  0  0  0  0  0  0  0  0  0  0  0
   20.3674   -2.9532  -16.4858 C   0  0  1  0  0  0  0  0  0  0  0  0
   18.8744   -3.0322  -16.3385 C   0  0  0  0  0  0  0  0  0  0  0  0
   18.1684   -4.4630  -17.2014 S   0  0  0  0  0  0  0  0  0  0  0  0
   20.8241   -1.7565  -15.7354 C   0  0  0  0  0  0  0  0  0  0  0  0
   21.6474   -1.9195  -14.8038 O   0  0  0  0  0  0  0  0  0  0  0  0
   20.3816   -0.4774  -16.0198 O   0  0  0  0  0  0  0  0  0  0  0  0
  1  2  1  0
  2  3  2  0
  4  5  1  0
  4  2  1  0
  5  6  1  6
  7  5  1  0
  8  7  2  0
  9  7  1  0
 10 11  1  6
 10  9  1  0
 11 12  1  0
 13 12  1  0
 13 17  1  0
 14 13  2  0
 15 18  1  0
 15 10  1  0
 16 15  2  0
 19 20  1  1
 19 18  1  0
 20 21  1  0
 22 19  1  0
 22 24  1  0
 23 22  2  0
M  END
$$$$
