NEC.pdb
     RDKit          3D

 24 23  0  0  1  0  0  0  0  0999 V2000
   16.1848  -14.7316  -16.8933 N   0  0  0  0  0  0  0  0  0  0  0  0
   17.5187  -14.2173  -16.7689 C   0  0  0  0  0  0  0  0  0  0  0  0
   18.3836  -15.0800  -16.4633 O   0  0  0  0  0  0  0  0  0  0  0  0
   17.8116  -12.7995  -16.9870 C   0  0  0  0  0  0  0  0  0  0  0  0
   18.3590  -12.0722  -15.8071 C   0  0  2  0  0  0  0  0  0  0  0  0
   17.3591  -12.1176  -14.7210 N   0  0  0  0  0  0  0  0  0  0  0  0
   18.6120  -10.6332  -16.1000 C   0  0  0  0  0  0  0  0  0  0  0  0
   19.3119  -10.2579  -17.0555 O   0  0  0  0  0  0  0  0  0  0  0  0
   18.0403   -9.6223  -15.2662 N   0  0  0  0  0  0  0  0  0  0  0  0
   18.2809   -8.1931  -15.4826 C   0  0  1  0  0  0  0  0  0  0  0  0
   17.0537   -7.4013  -15.1751 C   0  0  0  0  0  0  0  0  0  0  0  0
   15.9323   -7.6203  -16.1317 C   0  0  0  0  0  0  0  0  0  0  0  0
   14.5997   -7.7648  -15.5270 C   0  0  0  0  0  0  0  0  0  0  0  0
   13.9272   -8.7888  -15.6744 O   0  0  0  0  0  0  0  0  0  0  0  0
   19.3972   -7.7289  -14.6232 C   0  0  0  0  0  0  0  0  0  0  0  0
   19.3466   -7.8520  -13.4038 O   0  0  0  0  0  0  0  0  0  0  0  0
   14.0420   -6.7410  -14.7582 O   0  0  0  0  0  0  0  0  0  0  0  0
   20.5751   -7.1201  -15.1867 N   0  0  0  0  0  0  0  0  0  0  0  0
   21.6874   -6.6695  -14.4202 C   0  0  1  0  0  0  0  0  0  0  0  0
   23.0211   -6.8364  -15.0914 C   0  0  0  0  0  0  0  0  0  0  0  0
   23.3245   -8.5471  -15.6126 S   0  0  0  0  0  0  0  0  0  0  0  0
   21.5731   -5.2478  -14.0087 C   0  0  0  0  0  0  0  0  0  0  0  0
   20.7455   -4.5217  -14.6088 O   0  0  0  0  0  0  0  0  0  0  0  0
   22.3371   -4.6948  -12.9971 O   0  0  0  0  0  0  0  0  0  0  0  0
  1  2  1  0
  2  3  2  0
  4  5  1  0
  4  2  1  0
  5  6  1  1
  7  5  1  0
  8  7  2  0
  9  7  1  0
 10 11  1  1
 10  9  1  0
 11 12  1  0
 13 12  1  0
 13 17  1  0
 14 13  2  0
 15 18  1  0
 15 10  1  0
 16 15  2  0
 19 20  1  6
 19 18  1  0
 20 21  1  0
 22 19  1  0
 22 24  1  0
 23 22  2  0
M  END
$$$$
