NEC.pdb
     RDKit          3D

 24 23  0  0  1  0  0  0  0  0999 V2000
   14.5104  -12.2161  -14.7875 N   0  0  0  0  0  0  0  0  0  0  0  0
   15.7768  -12.8598  -14.9905 C   0  0  0  0  0  0  0  0  0  0  0  0
   15.7454  -14.1148  -14.8917 O   0  0  0  0  0  0  0  0  0  0  0  0
   16.9848  -12.0874  -15.2866 C   0  0  0  0  0  0  0  0  0  0  0  0
   16.8023  -10.6090  -15.3296 C   0  0  2  0  0  0  0  0  0  0  0  0
   16.0915  -10.2588  -16.5760 N   0  0  0  0  0  0  0  0  0  0  0  0
   18.1024   -9.8814  -15.3559 C   0  0  0  0  0  0  0  0  0  0  0  0
   18.9559  -10.0038  -14.4613 O   0  0  0  0  0  0  0  0  0  0  0  0
   18.4075   -9.0010  -16.4402 N   0  0  0  0  0  0  0  0  0  0  0  0
   19.6552   -8.2352  -16.5066 C   0  0  1  0  0  0  0  0  0  0  0  0
   19.7804   -7.5483  -17.8257 C   0  0  0  0  0  0  0  0  0  0  0  0
   21.0564   -6.7995  -18.0034 C   0  0  0  0  0  0  0  0  0  0  0  0
   21.2413   -6.1602  -19.3148 C   0  0  0  0  0  0  0  0  0  0  0  0
   20.3803   -6.2257  -20.1963 O   0  0  0  0  0  0  0  0  0  0  0  0
   19.6927   -7.2276  -15.4189 C   0  0  0  0  0  0  0  0  0  0  0  0
   18.7066   -6.5465  -15.1569 O   0  0  0  0  0  0  0  0  0  0  0  0
   22.4063   -5.4503  -19.6130 O   0  0  0  0  0  0  0  0  0  0  0  0
   20.8822   -7.0136  -14.6346 N   0  0  0  0  0  0  0  0  0  0  0  0
   20.9780   -6.0781  -13.5654 C   0  0  1  0  0  0  0  0  0  0  0  0
   21.5322   -6.6403  -12.2872 C   0  0  0  0  0  0  0  0  0  0  0  0
   20.5402   -8.0187  -11.6497 S   0  0  0  0  0  0  0  0  0  0  0  0
   21.7853   -4.8810  -13.9099 C   0  0  0  0  0  0  0  0  0  0  0  0
   22.3829   -4.8662  -15.0121 O   0  0  0  0  0  0  0  0  0  0  0  0
   21.9047   -3.7884  -13.0704 O   0  0  0  0  0  0  0  0  0  0  0  0
  1  2  1  0
  2  3  2  0
  4  5  1  0
  4  2  1  0
  5  6  1  6
  7  5  1  0
  8  7  2  0
  9  7  1  0
 10 11  1  6
 10  9  1  0
 11 12  1  0
 13 12  1  0
 13 17  1  0
 14 13  2  0
 15 18  1  0
 15 10  1  0
 16 15  2  0
 19 20  1  1
 19 18  1  0
 20 21  1  0
 22 19  1  0
 22 24  1  0
 23 22  2  0
M  END
$$$$
