NEC.pdb
     RDKit          3D

 24 23  0  0  1  0  0  0  0  0999 V2000
   11.5915  -12.3778  -15.2997 N   0  0  0  0  0  0  0  0  0  0  0  0
   12.9039  -11.8122  -15.4300 C   0  0  0  0  0  0  0  0  0  0  0  0
   13.3185  -11.7250  -16.6158 O   0  0  0  0  0  0  0  0  0  0  0  0
   13.6680  -11.3829  -14.2572 C   0  0  0  0  0  0  0  0  0  0  0  0
   15.1175  -11.7280  -14.2788 C   0  0  2  0  0  0  0  0  0  0  0  0
   15.2606  -13.1748  -14.0188 N   0  0  0  0  0  0  0  0  0  0  0  0
   15.8809  -11.0209  -13.2122 C   0  0  0  0  0  0  0  0  0  0  0  0
   15.9025  -11.4127  -12.0333 O   0  0  0  0  0  0  0  0  0  0  0  0
   16.6269   -9.8429  -13.5278 N   0  0  0  0  0  0  0  0  0  0  0  0
   17.4528   -9.1444  -12.5391 C   0  0  1  0  0  0  0  0  0  0  0  0
   18.6339   -8.5103  -13.1950 C   0  0  0  0  0  0  0  0  0  0  0  0
   19.5210   -7.7625  -12.2599 C   0  0  0  0  0  0  0  0  0  0  0  0
   20.7272   -7.1743  -12.8611 C   0  0  0  0  0  0  0  0  0  0  0  0
   21.7780   -7.8127  -12.9659 O   0  0  0  0  0  0  0  0  0  0  0  0
   16.6514   -8.1035  -11.8505 C   0  0  0  0  0  0  0  0  0  0  0  0
   15.9631   -7.3137  -12.4887 O   0  0  0  0  0  0  0  0  0  0  0  0
   20.7282   -5.8622  -13.3391 O   0  0  0  0  0  0  0  0  0  0  0  0
   16.6524   -7.9829  -10.4148 N   0  0  0  0  0  0  0  0  0  0  0  0
   15.9254   -6.9928   -9.6946 C   0  0  1  0  0  0  0  0  0  0  0  0
   15.1378   -7.5171   -8.5276 C   0  0  0  0  0  0  0  0  0  0  0  0
   14.3810   -6.1894   -7.5506 S   0  0  0  0  0  0  0  0  0  0  0  0
   16.7840   -5.8916   -9.1910 C   0  0  0  0  0  0  0  0  0  0  0  0
   17.8920   -6.1881   -8.6844 O   0  0  0  0  0  0  0  0  0  0  0  0
   16.4144   -4.5605   -9.2571 O   0  0  0  0  0  0  0  0  0  0  0  0
  1  2  1  0
  2  3  2  0
  4  5  1  0
  4  2  1  0
  5  6  1  1
  7  5  1  0
  8  7  2  0
  9  7  1  0
 10 11  1  6
 10  9  1  0
 11 12  1  0
 13 12  1  0
 13 17  1  0
 14 13  2  0
 15 18  1  0
 15 10  1  0
 16 15  2  0
 19 20  1  1
 19 18  1  0
 20 21  1  0
 22 19  1  0
 22 24  1  0
 23 22  2  0
M  END
$$$$
