NEC.pdb
     RDKit          3D

 24 23  0  0  1  0  0  0  0  0999 V2000
   17.0957  -13.0375  -16.3624 N   0  0  0  0  0  0  0  0  0  0  0  0
   18.3380  -12.5462  -15.8382 C   0  0  0  0  0  0  0  0  0  0  0  0
   19.0028  -13.3966  -15.1896 O   0  0  0  0  0  0  0  0  0  0  0  0
   18.7643  -11.1633  -16.0602 C   0  0  0  0  0  0  0  0  0  0  0  0
   17.7731  -10.2937  -16.7544 C   0  0  2  0  0  0  0  0  0  0  0  0
   17.6406  -10.7539  -18.1516 N   0  0  0  0  0  0  0  0  0  0  0  0
   18.2127   -8.8709  -16.8093 C   0  0  0  0  0  0  0  0  0  0  0  0
   19.0269   -8.4542  -17.6502 O   0  0  0  0  0  0  0  0  0  0  0  0
   17.6945   -7.9255  -15.8704 N   0  0  0  0  0  0  0  0  0  0  0  0
   17.9772   -6.4904  -15.9594 C   0  0  1  0  0  0  0  0  0  0  0  0
   16.7299   -5.6958  -15.7587 C   0  0  0  0  0  0  0  0  0  0  0  0
   15.8203   -5.6821  -16.9390 C   0  0  0  0  0  0  0  0  0  0  0  0
   14.5517   -4.9612  -16.7559 C   0  0  0  0  0  0  0  0  0  0  0  0
   13.6735   -5.3752  -15.9944 O   0  0  0  0  0  0  0  0  0  0  0  0
   18.9794   -6.1045  -14.9363 C   0  0  0  0  0  0  0  0  0  0  0  0
   18.7354   -6.2218  -13.7398 O   0  0  0  0  0  0  0  0  0  0  0  0
   14.2922   -3.7728  -17.4420 O   0  0  0  0  0  0  0  0  0  0  0  0
   20.2688   -5.5807  -15.3087 N   0  0  0  0  0  0  0  0  0  0  0  0
   21.3012   -5.2619  -14.3812 C   0  0  1  0  0  0  0  0  0  0  0  0
   22.6291   -5.8994  -14.6763 C   0  0  0  0  0  0  0  0  0  0  0  0
   22.5146   -7.7042  -14.8171 S   0  0  0  0  0  0  0  0  0  0  0  0
   21.5309   -3.8017  -14.2452 C   0  0  0  0  0  0  0  0  0  0  0  0
   21.0217   -3.0393  -15.1006 O   0  0  0  0  0  0  0  0  0  0  0  0
   22.2789   -3.2511  -13.2204 O   0  0  0  0  0  0  0  0  0  0  0  0
  1  2  1  0
  2  3  2  0
  4  5  1  0
  4  2  1  0
  5  6  1  6
  7  5  1  0
  8  7  2  0
  9  7  1  0
 10 11  1  1
 10  9  1  0
 11 12  1  0
 13 12  1  0
 13 17  1  0
 14 13  2  0
 15 18  1  0
 15 10  1  0
 16 15  2  0
 19 20  1  6
 19 18  1  0
 20 21  1  0
 22 19  1  0
 22 24  1  0
 23 22  2  0
M  END
$$$$
