NEC.pdb
     RDKit          3D

 24 23  0  0  1  0  0  0  0  0999 V2000
   17.1763  -14.1098  -15.6874 N   0  0  0  0  0  0  0  0  0  0  0  0
   18.5624  -13.7388  -15.6686 C   0  0  0  0  0  0  0  0  0  0  0  0
   19.3463  -14.6675  -15.3386 O   0  0  0  0  0  0  0  0  0  0  0  0
   18.9922  -12.3818  -16.0112 C   0  0  0  0  0  0  0  0  0  0  0  0
   17.8924  -11.4142  -16.2847 C   0  0  2  0  0  0  0  0  0  0  0  0
   17.2467  -11.7841  -17.5604 N   0  0  0  0  0  0  0  0  0  0  0  0
   18.3950  -10.0204  -16.4443 C   0  0  0  0  0  0  0  0  0  0  0  0
   19.2134   -9.7009  -17.3229 O   0  0  0  0  0  0  0  0  0  0  0  0
   17.9355   -8.9895  -15.5670 N   0  0  0  0  0  0  0  0  0  0  0  0
   18.3398   -7.5889  -15.7166 C   0  0  1  0  0  0  0  0  0  0  0  0
   17.1624   -6.6836  -15.5696 C   0  0  0  0  0  0  0  0  0  0  0  0
   16.2175   -6.7219  -16.7212 C   0  0  0  0  0  0  0  0  0  0  0  0
   14.8914   -6.1358  -16.4755 C   0  0  0  0  0  0  0  0  0  0  0  0
   14.7588   -5.0220  -15.9612 O   0  0  0  0  0  0  0  0  0  0  0  0
   19.3606   -7.2420  -14.6980 C   0  0  0  0  0  0  0  0  0  0  0  0
   19.1401   -7.4094  -13.5029 O   0  0  0  0  0  0  0  0  0  0  0  0
   13.7247   -6.8229  -16.8176 O   0  0  0  0  0  0  0  0  0  0  0  0
   20.6412   -6.6990  -15.0732 N   0  0  0  0  0  0  0  0  0  0  0  0
   21.6899   -6.4138  -14.1532 C   0  0  1  0  0  0  0  0  0  0  0  0
   23.0403   -6.9309  -14.5606 C   0  0  0  0  0  0  0  0  0  0  0  0
   23.0566   -8.7322  -14.7733 S   0  0  0  0  0  0  0  0  0  0  0  0
   21.8374   -4.9641  -13.8698 C   0  0  0  0  0  0  0  0  0  0  0  0
   21.3356   -4.1479  -14.6787 O   0  0  0  0  0  0  0  0  0  0  0  0
   22.5014   -4.4798  -12.7575 O   0  0  0  0  0  0  0  0  0  0  0  0
  1  2  1  0
  2  3  2  0
  4  5  1  0
  4  2  1  0
  5  6  1  6
  7  5  1  0
  8  7  2  0
  9  7  1  0
 10 11  1  1
 10  9  1  0
 11 12  1  0
 13 12  1  0
 13 17  1  0
 14 13  2  0
 15 18  1  0
 15 10  1  0
 16 15  2  0
 19 20  1  6
 19 18  1  0
 20 21  1  0
 22 19  1  0
 22 24  1  0
 23 22  2  0
M  END
$$$$
