NEC.pdb
     RDKit          3D

 24 23  0  0  1  0  0  0  0  0999 V2000
   21.4761  -14.2433  -18.3005 N   0  0  0  0  0  0  0  0  0  0  0  0
   20.4830  -13.5099  -19.0321 C   0  0  0  0  0  0  0  0  0  0  0  0
   20.0484  -14.1001  -20.0561 O   0  0  0  0  0  0  0  0  0  0  0  0
   20.0364  -12.1865  -18.5930 C   0  0  0  0  0  0  0  0  0  0  0  0
   20.7026  -11.6626  -17.3673 C   0  0  2  0  0  0  0  0  0  0  0  0
   20.2548  -12.4632  -16.2098 N   0  0  0  0  0  0  0  0  0  0  0  0
   20.3285  -10.2483  -17.0836 C   0  0  0  0  0  0  0  0  0  0  0  0
   20.5834   -9.3187  -17.8676 O   0  0  0  0  0  0  0  0  0  0  0  0
   19.6491   -9.9178  -15.8699 N   0  0  0  0  0  0  0  0  0  0  0  0
   19.2143   -8.5540  -15.5563 C   0  0  1  0  0  0  0  0  0  0  0  0
   17.9199   -8.5731  -14.8135 C   0  0  0  0  0  0  0  0  0  0  0  0
   16.7411   -8.9270  -15.6535 C   0  0  0  0  0  0  0  0  0  0  0  0
   15.4756   -9.1121  -14.9278 C   0  0  0  0  0  0  0  0  0  0  0  0
   14.3894   -8.8082  -15.4283 O   0  0  0  0  0  0  0  0  0  0  0  0
   20.2435   -7.8667  -14.7388 C   0  0  0  0  0  0  0  0  0  0  0  0
   20.6745   -8.3768  -13.7098 O   0  0  0  0  0  0  0  0  0  0  0  0
   15.4561   -9.6424  -13.6360 O   0  0  0  0  0  0  0  0  0  0  0  0
   20.7717   -6.5822  -15.1218 N   0  0  0  0  0  0  0  0  0  0  0  0
   21.8435   -5.9260  -14.4525 C   0  0  1  0  0  0  0  0  0  0  0  0
   23.0903   -5.7620  -15.2745 C   0  0  0  0  0  0  0  0  0  0  0  0
   23.6329   -7.3204  -16.0277 S   0  0  0  0  0  0  0  0  0  0  0  0
   21.4732   -4.5843  -13.9365 C   0  0  0  0  0  0  0  0  0  0  0  0
   20.5064   -3.9901  -14.4699 O   0  0  0  0  0  0  0  0  0  0  0  0
   22.1464   -3.9666  -12.8982 O   0  0  0  0  0  0  0  0  0  0  0  0
  1  2  1  0
  2  3  2  0
  4  5  1  0
  4  2  1  0
  5  6  1  1
  7  5  1  0
  8  7  2  0
  9  7  1  0
 10 11  1  1
 10  9  1  0
 11 12  1  0
 13 12  1  0
 13 17  1  0
 14 13  2  0
 15 18  1  0
 15 10  1  0
 16 15  2  0
 19 20  1  6
 19 18  1  0
 20 21  1  0
 22 19  1  0
 22 24  1  0
 23 22  2  0
M  END
$$$$
