NEC.pdb
     RDKit          3D

 24 23  0  0  1  0  0  0  0  0999 V2000
   19.8313  -15.2929  -16.1132 N   0  0  0  0  0  0  0  0  0  0  0  0
   19.9934  -14.8004  -17.4512 C   0  0  0  0  0  0  0  0  0  0  0  0
   20.0216  -15.6956  -18.3364 O   0  0  0  0  0  0  0  0  0  0  0  0
   20.1128  -13.3673  -17.7259 C   0  0  0  0  0  0  0  0  0  0  0  0
   20.0089  -12.4785  -16.5343 C   0  0  2  0  0  0  0  0  0  0  0  0
   18.6120  -12.4955  -16.0550 N   0  0  0  0  0  0  0  0  0  0  0  0
   20.3359  -11.0612  -16.8584 C   0  0  0  0  0  0  0  0  0  0  0  0
   21.4377  -10.7172  -17.3183 O   0  0  0  0  0  0  0  0  0  0  0  0
   19.3639  -10.0354  -16.6421 N   0  0  0  0  0  0  0  0  0  0  0  0
   19.6037   -8.6345  -16.9992 C   0  0  1  0  0  0  0  0  0  0  0  0
   18.4190   -8.0618  -17.7036 C   0  0  0  0  0  0  0  0  0  0  0  0
   18.5630   -6.6237  -18.0663 C   0  0  0  0  0  0  0  0  0  0  0  0
   17.4214   -6.0300  -18.7782 C   0  0  0  0  0  0  0  0  0  0  0  0
   16.3903   -6.6705  -19.0002 O   0  0  0  0  0  0  0  0  0  0  0  0
   19.8858   -7.8392  -15.7794 C   0  0  0  0  0  0  0  0  0  0  0  0
   19.2463   -8.0192  -14.7482 O   0  0  0  0  0  0  0  0  0  0  0  0
   17.4623   -4.7102  -19.2327 O   0  0  0  0  0  0  0  0  0  0  0  0
   20.9158   -6.8320  -15.7616 N   0  0  0  0  0  0  0  0  0  0  0  0
   21.2277   -6.0265  -14.6296 C   0  0  1  0  0  0  0  0  0  0  0  0
   22.0192   -6.7252  -13.5608 C   0  0  0  0  0  0  0  0  0  0  0  0
   22.4744   -5.6160  -12.1997 S   0  0  0  0  0  0  0  0  0  0  0  0
   21.9598   -4.7844  -14.9829 C   0  0  0  0  0  0  0  0  0  0  0  0
   22.5369   -4.7325  -16.0949 O   0  0  0  0  0  0  0  0  0  0  0  0
   22.0311   -3.6892  -14.1414 O   0  0  0  0  0  0  0  0  0  0  0  0
  1  2  1  0
  2  3  2  0
  4  5  1  0
  4  2  1  0
  5  6  1  6
  7  5  1  0
  8  7  2  0
  9  7  1  0
 10 11  1  1
 10  9  1  0
 11 12  1  0
 13 12  1  0
 13 17  1  0
 14 13  2  0
 15 18  1  0
 15 10  1  0
 16 15  2  0
 19 20  1  1
 19 18  1  0
 20 21  1  0
 22 19  1  0
 22 24  1  0
 23 22  2  0
M  END
$$$$
