NEC.pdb
     RDKit          3D

 24 23  0  0  1  0  0  0  0  0999 V2000
   11.9911  -12.9929  -10.0282 N   0  0  0  0  0  0  0  0  0  0  0  0
   13.3676  -13.3497  -10.2211 C   0  0  0  0  0  0  0  0  0  0  0  0
   13.5883  -14.5895  -10.2319 O   0  0  0  0  0  0  0  0  0  0  0  0
   14.4029  -12.3280  -10.3884 C   0  0  0  0  0  0  0  0  0  0  0  0
   13.9179  -10.9190  -10.3680 C   0  0  2  0  0  0  0  0  0  0  0  0
   13.1979  -10.6510  -11.6293 N   0  0  0  0  0  0  0  0  0  0  0  0
   15.0379   -9.9388  -10.2945 C   0  0  0  0  0  0  0  0  0  0  0  0
   15.7744   -9.8379   -9.2989 O   0  0  0  0  0  0  0  0  0  0  0  0
   15.2990   -9.0672  -11.3972 N   0  0  0  0  0  0  0  0  0  0  0  0
   16.4066   -8.1076  -11.3983 C   0  0  1  0  0  0  0  0  0  0  0  0
   17.0366   -8.0341  -12.7493 C   0  0  0  0  0  0  0  0  0  0  0  0
   17.9801   -9.1496  -13.0425 C   0  0  0  0  0  0  0  0  0  0  0  0
   18.6409   -9.0951  -14.3551 C   0  0  0  0  0  0  0  0  0  0  0  0
   18.5643  -10.0272  -15.1600 O   0  0  0  0  0  0  0  0  0  0  0  0
   15.9161   -6.7635  -11.0075 C   0  0  0  0  0  0  0  0  0  0  0  0
   14.9010   -6.2927  -11.5102 O   0  0  0  0  0  0  0  0  0  0  0  0
   19.3850   -7.9784  -14.7418 O   0  0  0  0  0  0  0  0  0  0  0  0
   16.6104   -5.9665  -10.0285 N   0  0  0  0  0  0  0  0  0  0  0  0
   16.1731   -4.6867   -9.5828 C   0  0  1  0  0  0  0  0  0  0  0  0
   16.0893   -4.5366   -8.0903 C   0  0  0  0  0  0  0  0  0  0  0  0
   14.8588   -5.6455   -7.3510 S   0  0  0  0  0  0  0  0  0  0  0  0
   17.0126   -3.5742  -10.0937 C   0  0  0  0  0  0  0  0  0  0  0  0
   18.0667   -3.8614  -10.7092 O   0  0  0  0  0  0  0  0  0  0  0  0
   16.6821   -2.2425   -9.9199 O   0  0  0  0  0  0  0  0  0  0  0  0
  1  2  1  0
  2  3  2  0
  4  5  1  0
  4  2  1  0
  5  6  1  6
  7  5  1  0
  8  7  2  0
  9  7  1  0
 10 11  1  6
 10  9  1  0
 11 12  1  0
 13 12  1  0
 13 17  1  0
 14 13  2  0
 15 18  1  0
 15 10  1  0
 16 15  2  0
 19 20  1  1
 19 18  1  0
 20 21  1  0
 22 19  1  0
 22 24  1  0
 23 22  2  0
M  END
$$$$
