NEC.pdb
     RDKit          3D

 24 23  0  0  1  0  0  0  0  0999 V2000
   28.6240  -11.2727  -15.6954 N   0  0  0  0  0  0  0  0  0  0  0  0
   27.2382  -11.6435  -15.7330 C   0  0  0  0  0  0  0  0  0  0  0  0
   27.0148  -12.8534  -15.4646 O   0  0  0  0  0  0  0  0  0  0  0  0
   26.1973  -10.6672  -16.0604 C   0  0  0  0  0  0  0  0  0  0  0  0
   24.9999  -11.2199  -16.7543 C   0  0  2  0  0  0  0  0  0  0  0  0
   25.4039  -11.6738  -18.1004 N   0  0  0  0  0  0  0  0  0  0  0  0
   23.9367  -10.1936  -16.9467 C   0  0  0  0  0  0  0  0  0  0  0  0
   23.9670   -9.3641  -17.8713 O   0  0  0  0  0  0  0  0  0  0  0  0
   22.8263  -10.1370  -16.0481 N   0  0  0  0  0  0  0  0  0  0  0  0
   21.7508   -9.1511  -16.1853 C   0  0  1  0  0  0  0  0  0  0  0  0
   20.4236   -9.7816  -15.9229 C   0  0  0  0  0  0  0  0  0  0  0  0
   19.2714   -8.8430  -16.0329 C   0  0  0  0  0  0  0  0  0  0  0  0
   17.9415   -9.4456  -15.8577 C   0  0  0  0  0  0  0  0  0  0  0  0
   17.0725   -8.9107  -15.1639 O   0  0  0  0  0  0  0  0  0  0  0  0
   21.9625   -8.0312  -15.2362 C   0  0  0  0  0  0  0  0  0  0  0  0
   22.2885   -8.2444  -14.0730 O   0  0  0  0  0  0  0  0  0  0  0  0
   17.6105  -10.6540  -16.4745 O   0  0  0  0  0  0  0  0  0  0  0  0
   21.7940   -6.6597  -15.6440 N   0  0  0  0  0  0  0  0  0  0  0  0
   21.9849   -5.5403  -14.7848 C   0  0  1  0  0  0  0  0  0  0  0  0
   22.6102   -4.3433  -15.4430 C   0  0  0  0  0  0  0  0  0  0  0  0
   22.7527   -2.9292  -14.3160 S   0  0  0  0  0  0  0  0  0  0  0  0
   20.7304   -5.0842  -14.1355 C   0  0  0  0  0  0  0  0  0  0  0  0
   19.7007   -4.9794  -14.8433 O   0  0  0  0  0  0  0  0  0  0  0  0
   20.6511   -4.7721  -12.7904 O   0  0  0  0  0  0  0  0  0  0  0  0
  1  2  1  0
  2  3  2  0
  4  5  1  0
  4  2  1  0
  5  6  1  6
  7  5  1  0
  8  7  2  0
  9  7  1  0
 10 11  1  1
 10  9  1  0
 11 12  1  0
 13 12  1  0
 13 17  1  0
 14 13  2  0
 15 18  1  0
 15 10  1  0
 16 15  2  0
 19 20  1  6
 19 18  1  0
 20 21  1  0
 22 19  1  0
 22 24  1  0
 23 22  2  0
M  END
$$$$
