YWP.pdb
     RDKit          3D

 34 37  0  0  1  0  0  0  0  0999 V2000
   30.0488  -26.6491  -16.6321 O   0  0  0  0  0  0  0  0  0  0  0  0
   29.2416  -25.5936  -16.2760 C   0  0  0  0  0  0  0  0  0  0  0  0
   27.9339  -25.7696  -15.8595 C   0  0  0  0  0  0  0  0  0  0  0  0
   27.1874  -24.6740  -15.5199 C   0  0  0  0  0  0  0  0  0  0  0  0
   27.6679  -23.3728  -15.5678 C   0  0  0  0  0  0  0  0  0  0  0  0
   26.8259  -22.2070  -15.1930 C   0  0  0  0  0  0  0  0  0  0  0  0
   25.7933  -22.0007  -16.2978 C   0  0  2  0  0  0  0  0  0  0  0  0
   26.5246  -21.3289  -17.3714 N   0  0  0  0  0  0  0  0  0  0  0  0
   24.6643  -21.1658  -15.8208 C   0  0  0  0  0  0  0  0  0  0  0  0
   24.8956  -20.0007  -15.4201 O   0  0  0  0  0  0  0  0  0  0  0  0
   28.9770  -23.2252  -15.9873 C   0  0  0  0  0  0  0  0  0  0  0  0
   29.7600  -24.3056  -16.3376 C   0  0  0  0  0  0  0  0  0  0  0  0
   23.3394  -21.6371  -15.8021 N   0  0  0  0  0  0  0  0  0  0  0  0
   22.2810  -20.7406  -15.2570 C   0  0  1  0  0  0  0  0  0  0  0  0
   21.4384  -20.4623  -16.4779 C   0  0  0  0  0  0  0  0  0  0  0  0
   21.9031  -19.4748  -17.4170 C   0  0  0  0  0  0  0  0  0  0  0  0
   22.6723  -19.5726  -18.5627 C   0  0  0  0  0  0  0  0  0  0  0  0
   22.8586  -18.3504  -19.0915 N   0  0  0  0  0  0  0  0  0  0  0  0
   22.2315  -17.4401  -18.3252 C   0  0  0  0  0  0  0  0  0  0  0  0
   22.1204  -16.0686  -18.4336 C   0  0  0  0  0  0  0  0  0  0  0  0
   21.3996  -15.3501  -17.4866 C   0  0  0  0  0  0  0  0  0  0  0  0
   20.7980  -16.0014  -16.4436 C   0  0  0  0  0  0  0  0  0  0  0  0
   20.9281  -17.3710  -16.3642 C   0  0  0  0  0  0  0  0  0  0  0  0
   21.6413  -18.1045  -17.2969 C   0  0  0  0  0  0  0  0  0  0  0  0
   21.5963  -21.4561  -14.1817 C   0  0  0  0  0  0  0  0  0  0  0  0
   21.6544  -22.7428  -14.2249 O   0  0  0  0  0  0  0  0  0  0  0  0
   20.8962  -20.8711  -13.1202 N   0  0  0  0  0  0  0  0  0  0  0  0
   20.6535  -19.4872  -12.8300 C   0  0  0  0  0  0  0  0  0  0  0  0
   20.6617  -19.4000  -11.3019 C   0  0  0  0  0  0  0  0  0  0  0  0
   20.8062  -20.8349  -10.8429 C   0  0  0  0  0  0  0  0  0  0  0  0
   20.2528  -21.5974  -12.0429 C   0  0  1  0  0  0  0  0  0  0  0  0
   18.7930  -21.4257  -12.0287 C   0  0  0  0  0  0  0  0  0  0  0  0
   17.9250  -22.0815  -11.1766 O   0  0  0  0  0  0  0  0  0  0  0  0
   18.2910  -20.6200  -12.8551 O   0  0  0  0  0  0  0  0  0  0  0  0
  2  1  1  0
  3  2  2  0
  4  3  1  0
  5  4  2  0
  5 11  1  0
  6  7  1  0
  6  5  1  0
  7  9  1  0
  7  8  1  6
  9 10  2  0
 11 12  2  0
 12  2  1  0
 13  9  1  0
 13 14  1  0
 14 25  1  0
 14 15  1  6
 16 15  1  0
 17 16  2  0
 18 17  1  0
 19 18  1  0
 19 24  2  0
 20 21  2  0
 20 19  1  0
 21 22  1  0
 22 23  2  0
 24 23  1  0
 24 16  1  0
 25 27  1  0
 26 25  2  0
 27 28  1  0
 27 31  1  0
 28 29  1  0
 29 30  1  0
 31 30  1  0
 31 32  1  6
 32 34  2  0
 32 33  1  0
M  END
$$$$
