YWP.pdb
     RDKit          3D

 34 37  0  0  1  0  0  0  0  0999 V2000
   21.5642  -13.7204  -21.8860 O   0  0  0  0  0  0  0  0  0  0  0  0
   22.3604  -14.5067  -21.0859 C   0  0  0  0  0  0  0  0  0  0  0  0
   23.7393  -14.3920  -21.0728 C   0  0  0  0  0  0  0  0  0  0  0  0
   24.4699  -15.2071  -20.2515 C   0  0  0  0  0  0  0  0  0  0  0  0
   23.9050  -16.1597  -19.4151 C   0  0  0  0  0  0  0  0  0  0  0  0
   24.7320  -17.0290  -18.5380 C   0  0  0  0  0  0  0  0  0  0  0  0
   24.5312  -16.5670  -17.0974 C   0  0  2  0  0  0  0  0  0  0  0  0
   25.0772  -15.2108  -17.0607 N   0  0  0  0  0  0  0  0  0  0  0  0
   25.2484  -17.4542  -16.1499 C   0  0  0  0  0  0  0  0  0  0  0  0
   26.4960  -17.5471  -16.2285 O   0  0  0  0  0  0  0  0  0  0  0  0
   22.5260  -16.2537  -19.4478 C   0  0  0  0  0  0  0  0  0  0  0  0
   21.7563  -15.4493  -20.2624 C   0  0  0  0  0  0  0  0  0  0  0  0
   24.5755  -18.1972  -15.1635 N   0  0  0  0  0  0  0  0  0  0  0  0
   25.3668  -19.1579  -14.3437 C   0  0  1  0  0  0  0  0  0  0  0  0
   24.4165  -19.4721  -13.2140 C   0  0  0  0  0  0  0  0  0  0  0  0
   24.8290  -20.4307  -12.2221 C   0  0  0  0  0  0  0  0  0  0  0  0
   24.7310  -21.8095  -12.1664 C   0  0  0  0  0  0  0  0  0  0  0  0
   25.2481  -22.2560  -11.0081 N   0  0  0  0  0  0  0  0  0  0  0  0
   25.6886  -21.2071  -10.2906 C   0  0  0  0  0  0  0  0  0  0  0  0
   26.2920  -21.1306   -9.0516 C   0  0  0  0  0  0  0  0  0  0  0  0
   26.6560  -19.8953   -8.5280 C   0  0  0  0  0  0  0  0  0  0  0  0
   26.4167  -18.7511   -9.2403 C   0  0  0  0  0  0  0  0  0  0  0  0
   25.8126  -18.8619  -10.4739 C   0  0  0  0  0  0  0  0  0  0  0  0
   25.4428  -20.0823  -11.0128 C   0  0  0  0  0  0  0  0  0  0  0  0
   25.7147  -20.2944  -15.1949 C   0  0  0  0  0  0  0  0  0  0  0  0
   25.0010  -20.4521  -16.2563 O   0  0  0  0  0  0  0  0  0  0  0  0
   26.7462  -21.2112  -14.9616 N   0  0  0  0  0  0  0  0  0  0  0  0
   27.6562  -21.3106  -13.8569 C   0  0  0  0  0  0  0  0  0  0  0  0
   28.9649  -21.8131  -14.4714 C   0  0  0  0  0  0  0  0  0  0  0  0
   28.6256  -22.0700  -15.9237 C   0  0  0  0  0  0  0  0  0  0  0  0
   27.1183  -22.2940  -15.8510 C   0  0  1  0  0  0  0  0  0  0  0  0
   26.9065  -23.6216  -15.2564 C   0  0  0  0  0  0  0  0  0  0  0  0
   27.1289  -24.8240  -15.9000 O   0  0  0  0  0  0  0  0  0  0  0  0
   26.4905  -23.6711  -14.0696 O   0  0  0  0  0  0  0  0  0  0  0  0
  2  1  1  0
  3  2  2  0
  4  3  1  0
  5  4  2  0
  5 11  1  0
  6  7  1  0
  6  5  1  0
  7  9  1  0
  7  8  1  6
  9 10  2  0
 11 12  2  0
 12  2  1  0
 13  9  1  0
 13 14  1  0
 14 25  1  0
 14 15  1  1
 16 15  1  0
 17 16  2  0
 18 17  1  0
 19 18  1  0
 19 24  2  0
 20 21  2  0
 20 19  1  0
 21 22  1  0
 22 23  2  0
 24 23  1  0
 24 16  1  0
 25 27  1  0
 26 25  2  0
 27 28  1  0
 27 31  1  0
 28 29  1  0
 29 30  1  0
 31 30  1  0
 31 32  1  1
 32 34  2  0
 32 33  1  0
M  END
$$$$
