YWP.pdb
     RDKit          3D

 34 37  0  0  1  0  0  0  0  0999 V2000
   25.2841  -14.0276  -20.9741 O   0  0  0  0  0  0  0  0  0  0  0  0
   24.1543  -13.4095  -20.4908 C   0  0  0  0  0  0  0  0  0  0  0  0
   23.9602  -13.1721  -19.1414 C   0  0  0  0  0  0  0  0  0  0  0  0
   22.8116  -12.5520  -18.7304 C   0  0  0  0  0  0  0  0  0  0  0  0
   21.8099  -12.1383  -19.5974 C   0  0  0  0  0  0  0  0  0  0  0  0
   20.5743  -11.4693  -19.1131 C   0  0  0  0  0  0  0  0  0  0  0  0
   19.8164  -12.4631  -18.2372 C   0  0  2  0  0  0  0  0  0  0  0  0
   19.4777  -13.5680  -19.1335 N   0  0  0  0  0  0  0  0  0  0  0  0
   18.5934  -11.8459  -17.6692 C   0  0  0  0  0  0  0  0  0  0  0  0
   17.6610  -11.5203  -18.4412 O   0  0  0  0  0  0  0  0  0  0  0  0
   22.0289  -12.3877  -20.9395 C   0  0  0  0  0  0  0  0  0  0  0  0
   23.1740  -13.0102  -21.3914 C   0  0  0  0  0  0  0  0  0  0  0  0
   18.4431  -11.6122  -16.2905 N   0  0  0  0  0  0  0  0  0  0  0  0
   17.1931  -10.9501  -15.8211 C   0  0  1  0  0  0  0  0  0  0  0  0
   16.6469  -11.9584  -14.8397 C   0  0  0  0  0  0  0  0  0  0  0  0
   15.4222  -11.6454  -14.1504 C   0  0  0  0  0  0  0  0  0  0  0  0
   14.3134  -10.9042  -14.5178 C   0  0  0  0  0  0  0  0  0  0  0  0
   13.4248  -10.8839  -13.5087 N   0  0  0  0  0  0  0  0  0  0  0  0
   13.9153  -11.5943  -12.4773 C   0  0  0  0  0  0  0  0  0  0  0  0
   13.3999  -11.8750  -11.2280 C   0  0  0  0  0  0  0  0  0  0  0  0
   14.1269  -12.6497  -10.3313 C   0  0  0  0  0  0  0  0  0  0  0  0
   15.3564  -13.1364  -10.6854 C   0  0  0  0  0  0  0  0  0  0  0  0
   15.8424  -12.8380  -11.9399 C   0  0  0  0  0  0  0  0  0  0  0  0
   15.1342  -12.0686  -12.8471 C   0  0  0  0  0  0  0  0  0  0  0  0
   17.5590   -9.6583  -15.2430 C   0  0  0  0  0  0  0  0  0  0  0  0
   18.7082   -9.5975  -14.6628 O   0  0  0  0  0  0  0  0  0  0  0  0
   16.7807   -8.4953  -15.2695 N   0  0  0  0  0  0  0  0  0  0  0  0
   15.4856   -8.2681  -15.8433 C   0  0  0  0  0  0  0  0  0  0  0  0
   15.5243   -6.8197  -16.3369 C   0  0  0  0  0  0  0  0  0  0  0  0
   16.8683   -6.2995  -15.8749 C   0  0  0  0  0  0  0  0  0  0  0  0
   17.1639   -7.2205  -14.6950 C   0  0  1  0  0  0  0  0  0  0  0  0
   16.2875   -6.8037  -13.5909 C   0  0  0  0  0  0  0  0  0  0  0  0
   15.2288   -7.5413  -13.0962 O   0  0  0  0  0  0  0  0  0  0  0  0
   16.5159   -5.6896  -13.0518 O   0  0  0  0  0  0  0  0  0  0  0  0
  2  1  1  0
  3  2  2  0
  4  3  1  0
  5  4  2  0
  5 11  1  0
  6  7  1  0
  6  5  1  0
  7  9  1  0
  7  8  1  6
  9 10  2  0
 11 12  2  0
 12  2  1  0
 13  9  1  0
 13 14  1  0
 14 25  1  0
 14 15  1  1
 16 15  1  0
 17 16  2  0
 18 17  1  0
 19 18  1  0
 19 24  2  0
 20 21  2  0
 20 19  1  0
 21 22  1  0
 22 23  2  0
 24 23  1  0
 24 16  1  0
 25 27  1  0
 26 25  2  0
 27 28  1  0
 27 31  1  0
 28 29  1  0
 29 30  1  0
 31 30  1  0
 31 32  1  1
 32 34  2  0
 32 33  1  0
M  END
$$$$
