YWP.pdb
     RDKit          3D

 34 37  0  0  1  0  0  0  0  0999 V2000
   22.1472  -11.3310  -15.6642 O   0  0  0  0  0  0  0  0  0  0  0  0
   22.6746  -12.6007  -15.7068 C   0  0  0  0  0  0  0  0  0  0  0  0
   23.4293  -13.1239  -14.6717 C   0  0  0  0  0  0  0  0  0  0  0  0
   23.9233  -14.3954  -14.7811 C   0  0  0  0  0  0  0  0  0  0  0  0
   23.7113  -15.2091  -15.8853 C   0  0  0  0  0  0  0  0  0  0  0  0
   24.2662  -16.5853  -15.9689 C   0  0  0  0  0  0  0  0  0  0  0  0
   25.7849  -16.4854  -15.8556 C   0  0  2  0  0  0  0  0  0  0  0  0
   26.2049  -15.7896  -17.0714 N   0  0  0  0  0  0  0  0  0  0  0  0
   26.4013  -17.8318  -15.7742 C   0  0  0  0  0  0  0  0  0  0  0  0
   26.5838  -18.4826  -16.8299 O   0  0  0  0  0  0  0  0  0  0  0  0
   22.9545  -14.6621  -16.9048 C   0  0  0  0  0  0  0  0  0  0  0  0
   22.4399  -13.3843  -16.8304 C   0  0  0  0  0  0  0  0  0  0  0  0
   26.7892  -18.4055  -14.5501 N   0  0  0  0  0  0  0  0  0  0  0  0
   27.2026  -19.8373  -14.5435 C   0  0  1  0  0  0  0  0  0  0  0  0
   27.9135  -19.9583  -13.2176 C   0  0  0  0  0  0  0  0  0  0  0  0
   27.1190  -20.1550  -12.0330 C   0  0  0  0  0  0  0  0  0  0  0  0
   25.7729  -19.9662  -11.7760 C   0  0  0  0  0  0  0  0  0  0  0  0
   25.5072  -20.2717  -10.4937 N   0  0  0  0  0  0  0  0  0  0  0  0
   26.6447  -20.6598   -9.8899 C   0  0  0  0  0  0  0  0  0  0  0  0
   26.9048  -21.0697   -8.5979 C   0  0  0  0  0  0  0  0  0  0  0  0
   28.1965  -21.4234   -8.2249 C   0  0  0  0  0  0  0  0  0  0  0  0
   29.2142  -21.3658   -9.1386 C   0  0  0  0  0  0  0  0  0  0  0  0
   28.9212  -20.9524  -10.4201 C   0  0  0  0  0  0  0  0  0  0  0  0
   27.6419  -20.5962  -10.8113 C   0  0  0  0  0  0  0  0  0  0  0  0
   25.9972  -20.6534  -14.6770 C   0  0  0  0  0  0  0  0  0  0  0  0
   24.8729  -20.0345  -14.5594 O   0  0  0  0  0  0  0  0  0  0  0  0
   25.9596  -22.0307  -14.9232 N   0  0  0  0  0  0  0  0  0  0  0  0
   27.0245  -22.9920  -14.9374 C   0  0  0  0  0  0  0  0  0  0  0  0
   26.6298  -23.9981  -16.0214 C   0  0  0  0  0  0  0  0  0  0  0  0
   25.2543  -23.5516  -16.4676 C   0  0  0  0  0  0  0  0  0  0  0  0
   24.7659  -22.7906  -15.2388 C   0  0  1  0  0  0  0  0  0  0  0  0
   24.4363  -23.7908  -14.2133 C   0  0  0  0  0  0  0  0  0  0  0  0
   23.2709  -24.5324  -14.1736 O   0  0  0  0  0  0  0  0  0  0  0  0
   25.2779  -23.9900  -13.2990 O   0  0  0  0  0  0  0  0  0  0  0  0
  2  1  1  0
  3  2  2  0
  4  3  1  0
  5  4  2  0
  5 11  1  0
  6  7  1  0
  6  5  1  0
  7  9  1  0
  7  8  1  6
  9 10  2  0
 11 12  2  0
 12  2  1  0
 13  9  1  0
 13 14  1  0
 14 25  1  0
 14 15  1  1
 16 15  1  0
 17 16  2  0
 18 17  1  0
 19 18  1  0
 19 24  2  0
 20 21  2  0
 20 19  1  0
 21 22  1  0
 22 23  2  0
 24 23  1  0
 24 16  1  0
 25 27  1  0
 26 25  2  0
 27 28  1  0
 27 31  1  0
 28 29  1  0
 29 30  1  0
 31 30  1  0
 31 32  1  1
 32 34  2  0
 32 33  1  0
M  END
$$$$
