YWP.pdb
     RDKit          3D

 34 37  0  0  1  0  0  0  0  0999 V2000
   19.6666  -17.5752  -20.9895 O   0  0  0  0  0  0  0  0  0  0  0  0
   20.7579  -17.7593  -20.1726 C   0  0  0  0  0  0  0  0  0  0  0  0
   20.7294  -18.6067  -19.0790 C   0  0  0  0  0  0  0  0  0  0  0  0
   21.8526  -18.7422  -18.3090 C   0  0  0  0  0  0  0  0  0  0  0  0
   23.0411  -18.0709  -18.5601 C   0  0  0  0  0  0  0  0  0  0  0  0
   24.2406  -18.2422  -17.6994 C   0  0  0  0  0  0  0  0  0  0  0  0
   24.0905  -17.3142  -16.4972 C   0  0  2  0  0  0  0  0  0  0  0  0
   24.5340  -16.0061  -16.9777 N   0  0  0  0  0  0  0  0  0  0  0  0
   24.9270  -17.7749  -15.3626 C   0  0  0  0  0  0  0  0  0  0  0  0
   26.1679  -17.6040  -15.4124 O   0  0  0  0  0  0  0  0  0  0  0  0
   23.0425  -17.2309  -19.6582 C   0  0  0  0  0  0  0  0  0  0  0  0
   21.9299  -17.0687  -20.4575 C   0  0  0  0  0  0  0  0  0  0  0  0
   24.3750  -18.3989  -14.2295 N   0  0  0  0  0  0  0  0  0  0  0  0
   25.2988  -19.0915  -13.2872 C   0  0  1  0  0  0  0  0  0  0  0  0
   24.3656  -19.5167  -12.1798 C   0  0  0  0  0  0  0  0  0  0  0  0
   24.8936  -20.3343  -11.1188 C   0  0  0  0  0  0  0  0  0  0  0  0
   24.8554  -21.6982  -10.8910 C   0  0  0  0  0  0  0  0  0  0  0  0
   25.4806  -21.9843   -9.7353 N   0  0  0  0  0  0  0  0  0  0  0  0
   25.9347  -20.8429   -9.1874 C   0  0  0  0  0  0  0  0  0  0  0  0
   26.6313  -20.5976   -8.0215 C   0  0  0  0  0  0  0  0  0  0  0  0
   26.9864  -19.2973   -7.6813 C   0  0  0  0  0  0  0  0  0  0  0  0
   26.6457  -18.2563   -8.5023 C   0  0  0  0  0  0  0  0  0  0  0  0
   25.9501  -18.5349   -9.6589 C   0  0  0  0  0  0  0  0  0  0  0  0
   25.5875  -19.8225  -10.0154 C   0  0  0  0  0  0  0  0  0  0  0  0
   25.9406  -20.1872  -14.0114 C   0  0  0  0  0  0  0  0  0  0  0  0
   25.3656  -20.5654  -15.1010 O   0  0  0  0  0  0  0  0  0  0  0  0
   27.1136  -20.8490  -13.6306 N   0  0  0  0  0  0  0  0  0  0  0  0
   27.9018  -20.7122  -12.4397 C   0  0  0  0  0  0  0  0  0  0  0  0
   29.3452  -20.9366  -12.8971 C   0  0  0  0  0  0  0  0  0  0  0  0
   29.2241  -21.3075  -14.3594 C   0  0  0  0  0  0  0  0  0  0  0  0
   27.8004  -21.8525  -14.4201 C   0  0  1  0  0  0  0  0  0  0  0  0
   27.8156  -23.1746  -13.7777 C   0  0  0  0  0  0  0  0  0  0  0  0
   28.3315  -24.3254  -14.3424 O   0  0  0  0  0  0  0  0  0  0  0  0
   27.3215  -23.2698  -12.6241 O   0  0  0  0  0  0  0  0  0  0  0  0
  2  1  1  0
  3  2  2  0
  4  3  1  0
  5  4  2  0
  5 11  1  0
  6  7  1  0
  6  5  1  0
  7  9  1  0
  7  8  1  6
  9 10  2  0
 11 12  2  0
 12  2  1  0
 13  9  1  0
 13 14  1  0
 14 25  1  0
 14 15  1  1
 16 15  1  0
 17 16  2  0
 18 17  1  0
 19 18  1  0
 19 24  2  0
 20 21  2  0
 20 19  1  0
 21 22  1  0
 22 23  2  0
 24 23  1  0
 24 16  1  0
 25 27  1  0
 26 25  2  0
 27 28  1  0
 27 31  1  0
 28 29  1  0
 29 30  1  0
 31 30  1  0
 31 32  1  1
 32 34  2  0
 32 33  1  0
M  END
$$$$
