YWP.pdb
     RDKit          3D

 34 37  0  0  1  0  0  0  0  0999 V2000
   24.5773  -22.7187  -23.1785 O   0  0  0  0  0  0  0  0  0  0  0  0
   25.0888  -22.9299  -21.9192 C   0  0  0  0  0  0  0  0  0  0  0  0
   25.7275  -24.1059  -21.5673 C   0  0  0  0  0  0  0  0  0  0  0  0
   26.2126  -24.2484  -20.2956 C   0  0  0  0  0  0  0  0  0  0  0  0
   26.1026  -23.2696  -19.3178 C   0  0  0  0  0  0  0  0  0  0  0  0
   26.6406  -23.4616  -17.9458 C   0  0  0  0  0  0  0  0  0  0  0  0
   27.7543  -22.4402  -17.7324 C   0  0  2  0  0  0  0  0  0  0  0  0
   28.9855  -23.1551  -18.0672 N   0  0  0  0  0  0  0  0  0  0  0  0
   27.7798  -21.9676  -16.3270 C   0  0  0  0  0  0  0  0  0  0  0  0
   28.3062  -22.6928  -15.4504 O   0  0  0  0  0  0  0  0  0  0  0  0
   25.4602  -22.1051  -19.6955 C   0  0  0  0  0  0  0  0  0  0  0  0
   24.9583  -21.9251  -20.9678 C   0  0  0  0  0  0  0  0  0  0  0  0
   27.2323  -20.7306  -15.9424 N   0  0  0  0  0  0  0  0  0  0  0  0
   27.3622  -20.3162  -14.5168 C   0  0  1  0  0  0  0  0  0  0  0  0
   27.2182  -18.8163  -14.6059 C   0  0  0  0  0  0  0  0  0  0  0  0
   25.9420  -18.2754  -14.9956 C   0  0  0  0  0  0  0  0  0  0  0  0
   24.7669  -18.8758  -15.4108 C   0  0  0  0  0  0  0  0  0  0  0  0
   23.8478  -17.9341  -15.6876 N   0  0  0  0  0  0  0  0  0  0  0  0
   24.3828  -16.7200  -15.4666 C   0  0  0  0  0  0  0  0  0  0  0  0
   23.8613  -15.4489  -15.5986 C   0  0  0  0  0  0  0  0  0  0  0  0
   24.6432  -14.3393  -15.2982 C   0  0  0  0  0  0  0  0  0  0  0  0
   25.9330  -14.5048  -14.8705 C   0  0  0  0  0  0  0  0  0  0  0  0
   26.4235  -15.7869  -14.7494 C   0  0  0  0  0  0  0  0  0  0  0  0
   25.6611  -16.9045  -15.0434 C   0  0  0  0  0  0  0  0  0  0  0  0
   26.3156  -20.9948  -13.7546 C   0  0  0  0  0  0  0  0  0  0  0  0
   25.6779  -21.9311  -14.3692 O   0  0  0  0  0  0  0  0  0  0  0  0
   25.9545  -20.7220  -12.4301 N   0  0  0  0  0  0  0  0  0  0  0  0
   26.4333  -19.7069  -11.5366 C   0  0  0  0  0  0  0  0  0  0  0  0
   26.4036  -20.3580  -10.1517 C   0  0  0  0  0  0  0  0  0  0  0  0
   25.7747  -21.7145  -10.3861 C   0  0  0  0  0  0  0  0  0  0  0  0
   24.9753  -21.4651  -11.6613 C   0  0  1  0  0  0  0  0  0  0  0  0
   23.8067  -20.6555  -11.2878 C   0  0  0  0  0  0  0  0  0  0  0  0
   23.6834  -19.2954  -11.4987 O   0  0  0  0  0  0  0  0  0  0  0  0
   22.8417  -21.2428  -10.7329 O   0  0  0  0  0  0  0  0  0  0  0  0
  2  1  1  0
  3  2  2  0
  4  3  1  0
  5  4  2  0
  5 11  1  0
  6  7  1  0
  6  5  1  0
  7  9  1  0
  7  8  1  1
  9 10  2  0
 11 12  2  0
 12  2  1  0
 13  9  1  0
 13 14  1  0
 14 25  1  0
 14 15  1  6
 16 15  1  0
 17 16  2  0
 18 17  1  0
 19 18  1  0
 19 24  2  0
 20 21  2  0
 20 19  1  0
 21 22  1  0
 22 23  2  0
 24 23  1  0
 24 16  1  0
 25 27  1  0
 26 25  2  0
 27 28  1  0
 27 31  1  0
 28 29  1  0
 29 30  1  0
 31 30  1  0
 31 32  1  1
 32 34  2  0
 32 33  1  0
M  END
$$$$
