YWP.pdb
     RDKit          3D

 34 37  0  0  1  0  0  0  0  0999 V2000
   30.1281  -14.1891  -19.0530 O   0  0  0  0  0  0  0  0  0  0  0  0
   29.3991  -15.1975  -18.4665 C   0  0  0  0  0  0  0  0  0  0  0  0
   29.2639  -15.3111  -17.0941 C   0  0  0  0  0  0  0  0  0  0  0  0
   28.5233  -16.3399  -16.5784 C   0  0  0  0  0  0  0  0  0  0  0  0
   27.8873  -17.2948  -17.3594 C   0  0  0  0  0  0  0  0  0  0  0  0
   27.0927  -18.3999  -16.7625 C   0  0  0  0  0  0  0  0  0  0  0  0
   28.0698  -19.4223  -16.1889 C   0  0  2  0  0  0  0  0  0  0  0  0
   28.7494  -19.9845  -17.3554 N   0  0  0  0  0  0  0  0  0  0  0  0
   27.3522  -20.4770  -15.4326 C   0  0  0  0  0  0  0  0  0  0  0  0
   26.8328  -21.4296  -16.0603 O   0  0  0  0  0  0  0  0  0  0  0  0
   28.0387  -17.1581  -18.7268 C   0  0  0  0  0  0  0  0  0  0  0  0
   28.7772  -16.1344  -19.2832 C   0  0  0  0  0  0  0  0  0  0  0  0
   27.2337  -20.4453  -14.0315 N   0  0  0  0  0  0  0  0  0  0  0  0
   26.4610  -21.5320  -13.3658 C   0  0  1  0  0  0  0  0  0  0  0  0
   27.1380  -21.6269  -12.0202 C   0  0  0  0  0  0  0  0  0  0  0  0
   26.5455  -20.9308  -10.9077 C   0  0  0  0  0  0  0  0  0  0  0  0
   25.3020  -20.3508  -10.7313 C   0  0  0  0  0  0  0  0  0  0  0  0
   25.2283  -19.7952   -9.5090 N   0  0  0  0  0  0  0  0  0  0  0  0
   26.3935  -19.9913   -8.8664 C   0  0  0  0  0  0  0  0  0  0  0  0
   26.8209  -19.6230   -7.6068 C   0  0  0  0  0  0  0  0  0  0  0  0
   28.1004  -19.9577   -7.1785 C   0  0  0  0  0  0  0  0  0  0  0  0
   28.9401  -20.6540   -8.0056 C   0  0  0  0  0  0  0  0  0  0  0  0
   28.4830  -21.0066   -9.2569 C   0  0  0  0  0  0  0  0  0  0  0  0
   27.2127  -20.6829   -9.7019 C   0  0  0  0  0  0  0  0  0  0  0  0
   25.0574  -21.1254  -13.3259 C   0  0  0  0  0  0  0  0  0  0  0  0
   24.8315  -19.8574  -13.2815 O   0  0  0  0  0  0  0  0  0  0  0  0
   23.9519  -21.9838  -13.3366 N   0  0  0  0  0  0  0  0  0  0  0  0
   23.8857  -23.4011  -13.1245 C   0  0  0  0  0  0  0  0  0  0  0  0
   22.7603  -23.8827  -14.0434 C   0  0  0  0  0  0  0  0  0  0  0  0
   22.1907  -22.6135  -14.6393 C   0  0  0  0  0  0  0  0  0  0  0  0
   22.5827  -21.5792  -13.5886 C   0  0  1  0  0  0  0  0  0  0  0  0
   21.7024  -21.7851  -12.4295 C   0  0  0  0  0  0  0  0  0  0  0  0
   20.3867  -21.3705  -12.3486 O   0  0  0  0  0  0  0  0  0  0  0  0
   22.1803  -22.3850  -11.4316 O   0  0  0  0  0  0  0  0  0  0  0  0
  2  1  1  0
  3  2  2  0
  4  3  1  0
  5  4  2  0
  5 11  1  0
  6  7  1  0
  6  5  1  0
  7  9  1  0
  7  8  1  6
  9 10  2  0
 11 12  2  0
 12  2  1  0
 13  9  1  0
 13 14  1  0
 14 25  1  0
 14 15  1  1
 16 15  1  0
 17 16  2  0
 18 17  1  0
 19 18  1  0
 19 24  2  0
 20 21  2  0
 20 19  1  0
 21 22  1  0
 22 23  2  0
 24 23  1  0
 24 16  1  0
 25 27  1  0
 26 25  2  0
 27 28  1  0
 27 31  1  0
 28 29  1  0
 29 30  1  0
 31 30  1  0
 31 32  1  1
 32 34  2  0
 32 33  1  0
M  END
$$$$
