YWP.pdb
     RDKit          3D

 34 37  0  0  1  0  0  0  0  0999 V2000
   17.3125  -22.8453  -11.6689 O   0  0  0  0  0  0  0  0  0  0  0  0
   18.6662  -22.6148  -11.7496 C   0  0  0  0  0  0  0  0  0  0  0  0
   19.3977  -22.1207  -10.6840 C   0  0  0  0  0  0  0  0  0  0  0  0
   20.7423  -21.9152  -10.8344 C   0  0  0  0  0  0  0  0  0  0  0  0
   21.4320  -22.1759  -12.0103 C   0  0  0  0  0  0  0  0  0  0  0  0
   22.8935  -21.9379  -12.1365 C   0  0  0  0  0  0  0  0  0  0  0  0
   23.1351  -20.4356  -12.0188 C   0  0  2  0  0  0  0  0  0  0  0  0
   22.7054  -19.8866  -13.3044 N   0  0  0  0  0  0  0  0  0  0  0  0
   24.5680  -20.1457  -11.7697 C   0  0  0  0  0  0  0  0  0  0  0  0
   25.3514  -20.0654  -12.7451 O   0  0  0  0  0  0  0  0  0  0  0  0
   20.6776  -22.6685  -13.0589 C   0  0  0  0  0  0  0  0  0  0  0  0
   19.3205  -22.8885  -12.9448 C   0  0  0  0  0  0  0  0  0  0  0  0
   25.0801  -19.9573  -10.4735 N   0  0  0  0  0  0  0  0  0  0  0  0
   26.5276  -19.6338  -10.3286 C   0  0  1  0  0  0  0  0  0  0  0  0
   26.5728  -18.9725   -8.9726 C   0  0  0  0  0  0  0  0  0  0  0  0
   26.5634  -19.8124   -7.8032 C   0  0  0  0  0  0  0  0  0  0  0  0
   25.8215  -20.9314   -7.4699 C   0  0  0  0  0  0  0  0  0  0  0  0
   26.1644  -21.3551   -6.2406 N   0  0  0  0  0  0  0  0  0  0  0  0
   27.1175  -20.5448   -5.7467 C   0  0  0  0  0  0  0  0  0  0  0  0
   27.7940  -20.5495   -4.5437 C   0  0  0  0  0  0  0  0  0  0  0  0
   28.7522  -19.5778   -4.2782 C   0  0  0  0  0  0  0  0  0  0  0  0
   29.0272  -18.6134   -5.2099 C   0  0  0  0  0  0  0  0  0  0  0  0
   28.3342  -18.6366   -6.4008 C   0  0  0  0  0  0  0  0  0  0  0  0
   27.3767  -19.5955   -6.6842 C   0  0  0  0  0  0  0  0  0  0  0  0
   27.2798  -20.8829  -10.4341 C   0  0  0  0  0  0  0  0  0  0  0  0
   26.5838  -21.9575  -10.5816 O   0  0  0  0  0  0  0  0  0  0  0  0
   28.6731  -21.0097  -10.3943 N   0  0  0  0  0  0  0  0  0  0  0  0
   29.6777  -20.0306  -10.0938 C   0  0  0  0  0  0  0  0  0  0  0  0
   30.8660  -20.4024  -10.9841 C   0  0  0  0  0  0  0  0  0  0  0  0
   30.4428  -21.6885  -11.6603 C   0  0  0  0  0  0  0  0  0  0  0  0
   29.4094  -22.2266  -10.6754 C   0  0  1  0  0  0  0  0  0  0  0  0
   30.1464  -22.7322   -9.5083 C   0  0  0  0  0  0  0  0  0  0  0  0
   30.7507  -23.9723   -9.4276 O   0  0  0  0  0  0  0  0  0  0  0  0
   30.2360  -21.9805   -8.5029 O   0  0  0  0  0  0  0  0  0  0  0  0
  2  1  1  0
  3  2  2  0
  4  3  1  0
  5  4  2  0
  5 11  1  0
  6  7  1  0
  6  5  1  0
  7  9  1  0
  7  8  1  6
  9 10  2  0
 11 12  2  0
 12  2  1  0
 13  9  1  0
 13 14  1  0
 14 25  1  0
 14 15  1  1
 16 15  1  0
 17 16  2  0
 18 17  1  0
 19 18  1  0
 19 24  2  0
 20 21  2  0
 20 19  1  0
 21 22  1  0
 22 23  2  0
 24 23  1  0
 24 16  1  0
 25 27  1  0
 26 25  2  0
 27 28  1  0
 27 31  1  0
 28 29  1  0
 29 30  1  0
 31 30  1  0
 31 32  1  1
 32 34  2  0
 32 33  1  0
M  END
$$$$
