YWP.pdb
     RDKit          3D

 34 37  0  0  1  0  0  0  0  0999 V2000
   18.6101  -23.4858  -14.7476 O   0  0  0  0  0  0  0  0  0  0  0  0
   19.8711  -23.0562  -14.4046 C   0  0  0  0  0  0  0  0  0  0  0  0
   20.5486  -22.0938  -15.1321 C   0  0  0  0  0  0  0  0  0  0  0  0
   21.8013  -21.7133  -14.7334 C   0  0  0  0  0  0  0  0  0  0  0  0
   22.4475  -22.2416  -13.6245 C   0  0  0  0  0  0  0  0  0  0  0  0
   23.8102  -21.8044  -13.2235 C   0  0  0  0  0  0  0  0  0  0  0  0
   23.6604  -20.6345  -12.2549 C   0  0  2  0  0  0  0  0  0  0  0  0
   23.2620  -19.5045  -13.0934 N   0  0  0  0  0  0  0  0  0  0  0  0
   24.9393  -20.3543  -11.5584 C   0  0  0  0  0  0  0  0  0  0  0  0
   25.9149  -19.9327  -12.2232 O   0  0  0  0  0  0  0  0  0  0  0  0
   21.7487  -23.2011  -12.9158 C   0  0  0  0  0  0  0  0  0  0  0  0
   20.4845  -23.6099  -13.2871 C   0  0  0  0  0  0  0  0  0  0  0  0
   25.0962  -20.5457  -10.1740 N   0  0  0  0  0  0  0  0  0  0  0  0
   26.4223  -20.2394   -9.5669 C   0  0  1  0  0  0  0  0  0  0  0  0
   26.0848  -20.1327   -8.0996 C   0  0  0  0  0  0  0  0  0  0  0  0
   26.9408  -19.3369   -7.2587 C   0  0  0  0  0  0  0  0  0  0  0  0
   27.2940  -17.9998   -7.2939 C   0  0  0  0  0  0  0  0  0  0  0  0
   28.1504  -17.7289   -6.2933 N   0  0  0  0  0  0  0  0  0  0  0  0
   28.3762  -18.8540   -5.5917 C   0  0  0  0  0  0  0  0  0  0  0  0
   29.1649  -19.1048   -4.4871 C   0  0  0  0  0  0  0  0  0  0  0  0
   29.2217  -20.3842   -3.9463 C   0  0  0  0  0  0  0  0  0  0  0  0
   28.4951  -21.3991   -4.5083 C   0  0  0  0  0  0  0  0  0  0  0  0
   27.7178  -21.1158   -5.6104 C   0  0  0  0  0  0  0  0  0  0  0  0
   27.6476  -19.8487   -6.1637 C   0  0  0  0  0  0  0  0  0  0  0  0
   27.3371  -21.3253   -9.9147 C   0  0  0  0  0  0  0  0  0  0  0  0
   26.7931  -22.4432  -10.2542 O   0  0  0  0  0  0  0  0  0  0  0  0
   28.7350  -21.2546   -9.9154 N   0  0  0  0  0  0  0  0  0  0  0  0
   29.6016  -20.1747   -9.5400 C   0  0  0  0  0  0  0  0  0  0  0  0
   30.7996  -20.2866  -10.4862 C   0  0  0  0  0  0  0  0  0  0  0  0
   30.5387  -21.5501  -11.2773 C   0  0  0  0  0  0  0  0  0  0  0  0
   29.6251  -22.3214  -10.3297 C   0  0  1  0  0  0  0  0  0  0  0  0
   30.4648  -22.8246   -9.2331 C   0  0  0  0  0  0  0  0  0  0  0  0
   30.4255  -22.3677   -7.9296 O   0  0  0  0  0  0  0  0  0  0  0  0
   31.2843  -23.7423   -9.4980 O   0  0  0  0  0  0  0  0  0  0  0  0
  2  1  1  0
  3  2  2  0
  4  3  1  0
  5  4  2  0
  5 11  1  0
  6  7  1  0
  6  5  1  0
  7  9  1  0
  7  8  1  6
  9 10  2  0
 11 12  2  0
 12  2  1  0
 13  9  1  0
 13 14  1  0
 14 25  1  0
 14 15  1  1
 16 15  1  0
 17 16  2  0
 18 17  1  0
 19 18  1  0
 19 24  2  0
 20 21  2  0
 20 19  1  0
 21 22  1  0
 22 23  2  0
 24 23  1  0
 24 16  1  0
 25 27  1  0
 26 25  2  0
 27 28  1  0
 27 31  1  0
 28 29  1  0
 29 30  1  0
 31 30  1  0
 31 32  1  1
 32 34  2  0
 32 33  1  0
M  END
$$$$
