YLI.pdb
     RDKit          3D

 29 29  0  0  1  0  0  0  0  0999 V2000
    7.3034  -14.4792   15.0071 O   0  0  0  0  0  0  0  0  0  0  0  0
    7.4666  -14.7249   16.3791 C   0  0  0  0  0  0  0  0  0  0  0  0
    7.6896  -15.9888   16.8800 C   0  0  0  0  0  0  0  0  0  0  0  0
    7.8454  -16.1835   18.2476 C   0  0  0  0  0  0  0  0  0  0  0  0
    7.7850  -15.1411   19.1460 C   0  0  0  0  0  0  0  0  0  0  0  0
    7.9513  -15.3396   20.6078 C   0  0  0  0  0  0  0  0  0  0  0  0
    9.0586  -14.4111   21.0983 C   0  0  2  0  0  0  0  0  0  0  0  0
   10.2908  -14.8552   20.4763 N   0  0  0  0  0  0  0  0  0  0  0  0
    9.2115  -14.5591   22.5679 C   0  0  0  0  0  0  0  0  0  0  0  0
   10.3484  -14.7848   23.0941 O   0  0  0  0  0  0  0  0  0  0  0  0
    7.5608  -13.8711   18.6421 C   0  0  0  0  0  0  0  0  0  0  0  0
    7.4048  -13.6768   17.2711 C   0  0  0  0  0  0  0  0  0  0  0  0
    5.2445  -11.9293   25.9769 C   0  0  0  0  0  0  0  0  0  0  0  0
    6.5080  -12.3719   25.3067 C   0  0  1  0  0  0  0  0  0  0  0  0
    7.6771  -11.5783   25.9192 C   0  0  0  0  0  0  0  0  0  0  0  0
    6.8558  -13.8051   25.4316 C   0  0  0  0  0  0  0  0  0  0  0  0
    8.1382  -14.2610   24.8373 C   0  0  2  0  0  0  0  0  0  0  0  0
    8.0626  -14.4452   23.3964 N   0  0  0  0  0  0  0  0  0  0  0  0
    8.8187  -15.3683   25.5294 C   0  0  0  0  0  0  0  0  0  0  0  0
    8.6760  -16.5565   25.1521 O   0  0  0  0  0  0  0  0  0  0  0  0
   11.9759  -16.2998   30.7939 C   0  0  0  0  0  0  0  0  0  0  0  0
   11.6140  -16.6732   29.3946 C   0  0  0  0  0  0  0  0  0  0  0  0
   10.8608  -15.5867   28.6539 C   0  0  2  0  0  0  0  0  0  0  0  0
    9.7137  -15.0484   29.4475 C   0  0  0  0  0  0  0  0  0  0  0  0
   10.4248  -16.1395   27.3069 C   0  0  2  0  0  0  0  0  0  0  0  0
    9.6514  -15.1072   26.6394 N   0  0  0  0  0  0  0  0  0  0  0  0
    9.5544  -17.3292   27.4744 C   0  0  0  0  0  0  0  0  0  0  0  0
   10.0585  -18.4847   27.4444 O   0  0  0  0  0  0  0  0  0  0  0  0
    8.1834  -17.2642   27.6680 O   0  0  0  0  0  0  0  0  0  0  0  0
  2 12  2  0
  2  1  1  0
  3  2  1  0
  4  3  2  0
  4  5  1  0
  5 11  2  0
  6  5  1  0
  7  6  1  0
  7  8  1  6
  9  7  1  0
  9 18  1  0
 10  9  2  0
 11 12  1  0
 14 13  1  1
 14 16  1  0
 14 15  1  0
 17 18  1  0
 17 16  1  1
 19 17  1  0
 19 26  1  0
 20 19  2  0
 21 22  1  0
 23 22  1  0
 23 24  1  1
 25 26  1  1
 25 23  1  0
 27 25  1  0
 28 27  2  0
 29 27  1  0
M  END
$$$$
