YLI.pdb
     RDKit          3D

 29 29  0  0  1  0  0  0  0  0999 V2000
    5.1558  -22.3762   25.8898 O   0  0  0  0  0  0  0  0  0  0  0  0
    5.8922  -21.6745   24.9229 C   0  0  0  0  0  0  0  0  0  0  0  0
    5.3197  -21.1953   23.7651 C   0  0  0  0  0  0  0  0  0  0  0  0
    6.0897  -20.5052   22.8359 C   0  0  0  0  0  0  0  0  0  0  0  0
    7.4340  -20.2741   23.0276 C   0  0  0  0  0  0  0  0  0  0  0  0
    8.2637  -19.5375   22.0412 C   0  0  0  0  0  0  0  0  0  0  0  0
    7.5655  -18.2214   21.7104 C   0  0  2  0  0  0  0  0  0  0  0  0
    7.9117  -17.8902   20.3418 N   0  0  0  0  0  0  0  0  0  0  0  0
    8.0969  -17.1472   22.5870 C   0  0  0  0  0  0  0  0  0  0  0  0
    9.2653  -16.6719   22.4150 O   0  0  0  0  0  0  0  0  0  0  0  0
    8.0089  -20.7561   24.1914 C   0  0  0  0  0  0  0  0  0  0  0  0
    7.2364  -21.4476   25.1223 C   0  0  0  0  0  0  0  0  0  0  0  0
    7.8936  -12.4811   25.2017 C   0  0  0  0  0  0  0  0  0  0  0  0
    7.0874  -13.5577   25.8593 C   0  0  1  0  0  0  0  0  0  0  0  0
    5.7856  -12.9256   26.3862 C   0  0  0  0  0  0  0  0  0  0  0  0
    6.6900  -14.7005   25.0067 C   0  0  0  0  0  0  0  0  0  0  0  0
    7.7457  -15.6643   24.6042 C   0  0  2  0  0  0  0  0  0  0  0  0
    7.2803  -16.6448   23.6358 N   0  0  0  0  0  0  0  0  0  0  0  0
    8.5366  -16.2565   25.6960 C   0  0  0  0  0  0  0  0  0  0  0  0
    8.2232  -17.3619   26.2003 O   0  0  0  0  0  0  0  0  0  0  0  0
   10.6353  -13.7234   29.9328 C   0  0  0  0  0  0  0  0  0  0  0  0
   10.1651  -14.7240   28.9297 C   0  0  0  0  0  0  0  0  0  0  0  0
   11.2434  -15.1594   27.9581 C   0  0  2  0  0  0  0  0  0  0  0  0
   11.8212  -14.0090   27.1976 C   0  0  0  0  0  0  0  0  0  0  0  0
   10.6619  -16.2251   27.0436 C   0  0  2  0  0  0  0  0  0  0  0  0
    9.6718  -15.5828   26.1969 N   0  0  0  0  0  0  0  0  0  0  0  0
    9.9790  -17.2849   27.8256 C   0  0  0  0  0  0  0  0  0  0  0  0
   10.6613  -18.1326   28.4629 O   0  0  0  0  0  0  0  0  0  0  0  0
    8.6019  -17.4180   27.9115 O   0  0  0  0  0  0  0  0  0  0  0  0
  2 12  2  0
  2  1  1  0
  3  2  1  0
  4  3  2  0
  4  5  1  0
  5 11  2  0
  6  5  1  0
  7  6  1  0
  7  8  1  6
  9  7  1  0
  9 18  1  0
 10  9  2  0
 11 12  1  0
 14 13  1  6
 14 16  1  0
 14 15  1  0
 17 18  1  0
 17 16  1  1
 19 17  1  0
 19 26  1  0
 20 19  2  0
 21 22  1  0
 23 22  1  0
 23 24  1  6
 25 26  1  6
 25 23  1  0
 27 25  1  0
 28 27  2  0
 29 27  1  0
M  END
$$$$
