YLI.pdb
     RDKit          3D

 29 29  0  0  1  0  0  0  0  0999 V2000
   14.2385  -22.9938   17.6429 O   0  0  0  0  0  0  0  0  0  0  0  0
   13.7946  -21.9973   18.5256 C   0  0  0  0  0  0  0  0  0  0  0  0
   12.5010  -21.5233   18.5117 C   0  0  0  0  0  0  0  0  0  0  0  0
   12.1069  -20.5348   19.4060 C   0  0  0  0  0  0  0  0  0  0  0  0
   12.9757  -19.9950   20.3287 C   0  0  0  0  0  0  0  0  0  0  0  0
   12.5632  -18.9398   21.2880 C   0  0  0  0  0  0  0  0  0  0  0  0
   12.4243  -17.6239   20.5279 C   0  0  2  0  0  0  0  0  0  0  0  0
   13.7665  -17.1552   20.2427 N   0  0  0  0  0  0  0  0  0  0  0  0
   11.7665  -16.6178   21.3997 C   0  0  0  0  0  0  0  0  0  0  0  0
   12.4342  -15.9382   22.2439 O   0  0  0  0  0  0  0  0  0  0  0  0
   14.2756  -20.4716   20.3421 C   0  0  0  0  0  0  0  0  0  0  0  0
   14.6699  -21.4625   19.4454 C   0  0  0  0  0  0  0  0  0  0  0  0
    6.8967  -12.8703   20.8084 C   0  0  0  0  0  0  0  0  0  0  0  0
    7.8930  -13.5418   21.7016 C   0  0  1  0  0  0  0  0  0  0  0  0
    7.1351  -14.1274   22.9077 C   0  0  0  0  0  0  0  0  0  0  0  0
    8.6701  -14.6528   21.1080 C   0  0  0  0  0  0  0  0  0  0  0  0
    9.6577  -15.3469   21.9732 C   0  0  2  0  0  0  0  0  0  0  0  0
   10.3648  -16.4150   21.2840 N   0  0  0  0  0  0  0  0  0  0  0  0
    9.1897  -15.7320   23.3153 C   0  0  0  0  0  0  0  0  0  0  0  0
    8.6575  -16.8492   23.5226 O   0  0  0  0  0  0  0  0  0  0  0  0
   10.1528  -13.3418   28.9968 C   0  0  0  0  0  0  0  0  0  0  0  0
    9.9414  -14.4837   28.0588 C   0  0  0  0  0  0  0  0  0  0  0  0
    9.5782  -14.0521   26.6523 C   0  0  2  0  0  0  0  0  0  0  0  0
    8.2995  -13.2786   26.6077 C   0  0  0  0  0  0  0  0  0  0  0  0
    9.5394  -15.2873   25.7675 C   0  0  2  0  0  0  0  0  0  0  0  0
    9.3348  -14.8407   24.4007 N   0  0  0  0  0  0  0  0  0  0  0  0
    8.4070  -16.1724   26.1356 C   0  0  0  0  0  0  0  0  0  0  0  0
    8.4909  -16.9063   27.1577 O   0  0  0  0  0  0  0  0  0  0  0  0
    7.2246  -16.2562   25.4171 O   0  0  0  0  0  0  0  0  0  0  0  0
  2 12  2  0
  2  1  1  0
  3  2  1  0
  4  3  2  0
  4  5  1  0
  5 11  2  0
  6  5  1  0
  7  6  1  0
  7  8  1  1
  9  7  1  0
  9 18  1  0
 10  9  2  0
 11 12  1  0
 14 13  1  6
 14 16  1  0
 14 15  1  0
 17 18  1  0
 17 16  1  6
 19 17  1  0
 19 26  1  0
 20 19  2  0
 21 22  1  0
 23 22  1  0
 23 24  1  1
 25 26  1  6
 25 23  1  0
 27 25  1  0
 28 27  2  0
 29 27  1  0
M  END
$$$$
