YLI.pdb
     RDKit          3D

 29 29  0  0  1  0  0  0  0  0999 V2000
    9.9913  -25.2048   24.3750 O   0  0  0  0  0  0  0  0  0  0  0  0
    9.8934  -23.8131   24.2232 C   0  0  0  0  0  0  0  0  0  0  0  0
    8.6943  -23.1429   24.3280 C   0  0  0  0  0  0  0  0  0  0  0  0
    8.6465  -21.7626   24.1700 C   0  0  0  0  0  0  0  0  0  0  0  0
    9.7746  -21.0173   23.9065 C   0  0  0  0  0  0  0  0  0  0  0  0
    9.7330  -19.5431   23.7372 C   0  0  0  0  0  0  0  0  0  0  0  0
    9.2405  -19.2328   22.3265 C   0  0  2  0  0  0  0  0  0  0  0  0
   10.0800  -19.9801   21.4104 N   0  0  0  0  0  0  0  0  0  0  0  0
    9.4323  -17.7877   22.0438 C   0  0  0  0  0  0  0  0  0  0  0  0
   10.5886  -17.3077   21.8135 O   0  0  0  0  0  0  0  0  0  0  0  0
   10.9794  -21.6914   23.8011 C   0  0  0  0  0  0  0  0  0  0  0  0
   11.0265  -23.0750   23.9597 C   0  0  0  0  0  0  0  0  0  0  0  0
    6.7435  -12.5440   22.0514 C   0  0  0  0  0  0  0  0  0  0  0  0
    7.1676  -13.4562   20.9426 C   0  0  1  0  0  0  0  0  0  0  0  0
    8.6098  -13.0884   20.5465 C   0  0  0  0  0  0  0  0  0  0  0  0
    7.1657  -14.9058   21.2414 C   0  0  0  0  0  0  0  0  0  0  0  0
    8.3940  -15.4922   21.8354 C   0  0  2  0  0  0  0  0  0  0  0  0
    8.2992  -16.9303   22.0317 N   0  0  0  0  0  0  0  0  0  0  0  0
    8.9573  -14.7835   22.9968 C   0  0  0  0  0  0  0  0  0  0  0  0
    9.6414  -13.7414   22.8535 O   0  0  0  0  0  0  0  0  0  0  0  0
    6.0109  -12.5521   25.9499 C   0  0  0  0  0  0  0  0  0  0  0  0
    7.2477  -13.1162   25.3329 C   0  0  0  0  0  0  0  0  0  0  0  0
    7.9980  -14.0676   26.2429 C   0  0  2  0  0  0  0  0  0  0  0  0
    8.3620  -13.4367   27.5487 C   0  0  0  0  0  0  0  0  0  0  0  0
    9.2127  -14.5894   25.4929 C   0  0  2  0  0  0  0  0  0  0  0  0
    8.7333  -15.2705   24.3030 N   0  0  0  0  0  0  0  0  0  0  0  0
    9.9648  -15.5713   26.3122 C   0  0  0  0  0  0  0  0  0  0  0  0
   10.6315  -15.1778   27.3077 O   0  0  0  0  0  0  0  0  0  0  0  0
    9.9908  -16.9336   26.0577 O   0  0  0  0  0  0  0  0  0  0  0  0
  2 12  2  0
  2  1  1  0
  3  2  1  0
  4  3  2  0
  4  5  1  0
  5 11  2  0
  6  5  1  0
  7  6  1  0
  7  8  1  6
  9  7  1  0
  9 18  1  0
 10  9  2  0
 11 12  1  0
 14 13  1  1
 14 16  1  0
 14 15  1  0
 17 18  1  0
 17 16  1  1
 19 17  1  0
 19 26  1  0
 20 19  2  0
 21 22  1  0
 23 22  1  0
 23 24  1  1
 25 26  1  6
 25 23  1  0
 27 25  1  0
 28 27  2  0
 29 27  1  0
M  END
$$$$
