YLI.pdb
     RDKit          3D

 29 29  0  0  1  0  0  0  0  0999 V2000
    6.6545  -23.9500   28.8806 O   0  0  0  0  0  0  0  0  0  0  0  0
    6.9970  -22.7810   28.1838 C   0  0  0  0  0  0  0  0  0  0  0  0
    8.1419  -22.6849   27.4235 C   0  0  0  0  0  0  0  0  0  0  0  0
    8.4394  -21.5055   26.7504 C   0  0  0  0  0  0  0  0  0  0  0  0
    7.6185  -20.4012   26.8123 C   0  0  0  0  0  0  0  0  0  0  0  0
    7.9279  -19.1382   26.0961 C   0  0  0  0  0  0  0  0  0  0  0  0
    6.8334  -18.8888   25.0623 C   0  0  2  0  0  0  0  0  0  0  0  0
    6.9537  -19.9281   24.0584 N   0  0  0  0  0  0  0  0  0  0  0  0
    7.0719  -17.5831   24.3966 C   0  0  0  0  0  0  0  0  0  0  0  0
    7.8322  -17.4894   23.3799 O   0  0  0  0  0  0  0  0  0  0  0  0
    6.4680  -20.4983   27.5766 C   0  0  0  0  0  0  0  0  0  0  0  0
    6.1704  -21.6808   28.2510 C   0  0  0  0  0  0  0  0  0  0  0  0
    7.1295  -12.0284   24.5832 C   0  0  0  0  0  0  0  0  0  0  0  0
    6.9171  -12.7620   25.8709 C   0  0  1  0  0  0  0  0  0  0  0  0
    5.9388  -11.9419   26.7324 C   0  0  0  0  0  0  0  0  0  0  0  0
    6.3527  -14.1265   25.7694 C   0  0  0  0  0  0  0  0  0  0  0  0
    7.0635  -15.1079   24.9109 C   0  0  2  0  0  0  0  0  0  0  0  0
    6.4362  -16.4203   24.9095 N   0  0  0  0  0  0  0  0  0  0  0  0
    8.5272  -15.1640   25.0614 C   0  0  0  0  0  0  0  0  0  0  0  0
    9.2906  -14.8143   24.1290 O   0  0  0  0  0  0  0  0  0  0  0  0
   10.1298  -14.3430   30.1272 C   0  0  0  0  0  0  0  0  0  0  0  0
    9.9643  -15.1632   28.8909 C   0  0  0  0  0  0  0  0  0  0  0  0
   10.7527  -14.6399   27.7074 C   0  0  2  0  0  0  0  0  0  0  0  0
   10.4121  -13.2213   27.3803 C   0  0  0  0  0  0  0  0  0  0  0  0
   10.5283  -15.5758   26.5311 C   0  0  2  0  0  0  0  0  0  0  0  0
    9.1000  -15.6163   26.2700 N   0  0  0  0  0  0  0  0  0  0  0  0
   10.9755  -16.9535   26.8521 C   0  0  0  0  0  0  0  0  0  0  0  0
   10.1276  -17.8820   26.9482 O   0  0  0  0  0  0  0  0  0  0  0  0
   12.2989  -17.3089   27.0611 O   0  0  0  0  0  0  0  0  0  0  0  0
  2 12  2  0
  2  1  1  0
  3  2  1  0
  4  3  2  0
  4  5  1  0
  5 11  2  0
  6  5  1  0
  7  6  1  0
  7  8  1  6
  9  7  1  0
  9 18  1  0
 10  9  2  0
 11 12  1  0
 14 13  1  6
 14 16  1  0
 14 15  1  0
 17 18  1  0
 17 16  1  1
 19 17  1  0
 19 26  1  0
 20 19  2  0
 21 22  1  0
 23 22  1  0
 23 24  1  6
 25 26  1  1
 25 23  1  0
 27 25  1  0
 28 27  2  0
 29 27  1  0
M  END
$$$$
