YLI.pdb
     RDKit          3D

 29 29  0  0  1  0  0  0  0  0999 V2000
    8.0540  -22.6201   29.7415 O   0  0  0  0  0  0  0  0  0  0  0  0
    7.7047  -21.5546   28.8977 C   0  0  0  0  0  0  0  0  0  0  0  0
    6.4630  -21.4574   28.3088 C   0  0  0  0  0  0  0  0  0  0  0  0
    6.1625  -20.3826   27.4798 C   0  0  0  0  0  0  0  0  0  0  0  0
    7.0755  -19.3858   27.2151 C   0  0  0  0  0  0  0  0  0  0  0  0
    6.7629  -18.2342   26.3320 C   0  0  0  0  0  0  0  0  0  0  0  0
    6.4705  -18.7652   24.9315 C   0  0  2  0  0  0  0  0  0  0  0  0
    6.9134  -20.1455   24.9004 N   0  0  0  0  0  0  0  0  0  0  0  0
    7.2735  -18.0071   23.9389 C   0  0  0  0  0  0  0  0  0  0  0  0
    8.3710  -18.4676   23.4872 O   0  0  0  0  0  0  0  0  0  0  0  0
    8.3233  -19.4841   27.8071 C   0  0  0  0  0  0  0  0  0  0  0  0
    8.6238  -20.5615   28.6380 C   0  0  0  0  0  0  0  0  0  0  0  0
    8.2327  -14.1152   20.1664 C   0  0  0  0  0  0  0  0  0  0  0  0
    7.6611  -13.6338   21.4637 C   0  0  1  0  0  0  0  0  0  0  0  0
    6.6893  -12.4787   21.1584 C   0  0  0  0  0  0  0  0  0  0  0  0
    6.9054  -14.6251   22.2617 C   0  0  0  0  0  0  0  0  0  0  0  0
    7.6622  -15.7533   22.8616 C   0  0  2  0  0  0  0  0  0  0  0  0
    6.8020  -16.7442   23.4892 N   0  0  0  0  0  0  0  0  0  0  0  0
    8.8270  -15.3899   23.6860 C   0  0  0  0  0  0  0  0  0  0  0  0
    9.8533  -14.8817   23.1733 O   0  0  0  0  0  0  0  0  0  0  0  0
    7.2156  -12.8090   27.7141 C   0  0  0  0  0  0  0  0  0  0  0  0
    8.0502  -13.4321   26.6447 C   0  0  0  0  0  0  0  0  0  0  0  0
    9.0412  -14.4522   27.1678 C   0  0  2  0  0  0  0  0  0  0  0  0
    9.9611  -13.8755   28.1958 C   0  0  0  0  0  0  0  0  0  0  0  0
    9.7912  -15.0415   25.9844 C   0  0  2  0  0  0  0  0  0  0  0  0
    8.8063  -15.6096   25.0806 N   0  0  0  0  0  0  0  0  0  0  0  0
   10.6997  -16.1317   26.4173 C   0  0  0  0  0  0  0  0  0  0  0  0
   10.3098  -17.3299   26.3680 O   0  0  0  0  0  0  0  0  0  0  0  0
   11.9873  -15.9256   26.8874 O   0  0  0  0  0  0  0  0  0  0  0  0
  2 12  2  0
  2  1  1  0
  3  2  1  0
  4  3  2  0
  4  5  1  0
  5 11  2  0
  6  5  1  0
  7  6  1  0
  7  8  1  1
  9  7  1  0
  9 18  1  0
 10  9  2  0
 11 12  1  0
 14 13  1  6
 14 16  1  0
 14 15  1  0
 17 18  1  0
 17 16  1  1
 19 17  1  0
 19 26  1  0
 20 19  2  0
 21 22  1  0
 23 22  1  0
 23 24  1  1
 25 26  1  6
 25 23  1  0
 27 25  1  0
 28 27  2  0
 29 27  1  0
M  END
$$$$
