YLI.pdb
     RDKit          3D

 29 29  0  0  1  0  0  0  0  0999 V2000
    6.7272  -23.6394   20.2591 O   0  0  0  0  0  0  0  0  0  0  0  0
    7.1573  -22.4898   20.9394 C   0  0  0  0  0  0  0  0  0  0  0  0
    6.3446  -21.8047   21.8159 C   0  0  0  0  0  0  0  0  0  0  0  0
    6.8150  -20.6703   22.4672 C   0  0  0  0  0  0  0  0  0  0  0  0
    8.0905  -20.1894   22.2691 C   0  0  0  0  0  0  0  0  0  0  0  0
    8.6014  -18.9794   22.9610 C   0  0  0  0  0  0  0  0  0  0  0  0
    8.0729  -17.7472   22.2322 C   0  0  2  0  0  0  0  0  0  0  0  0
    8.6751  -17.7441   20.9132 N   0  0  0  0  0  0  0  0  0  0  0  0
    8.5242  -16.5233   22.9415 C   0  0  0  0  0  0  0  0  0  0  0  0
    9.5698  -15.8958   22.5760 O   0  0  0  0  0  0  0  0  0  0  0  0
    8.9068  -20.8782   21.3880 C   0  0  0  0  0  0  0  0  0  0  0  0
    8.4347  -22.0153   20.7356 C   0  0  0  0  0  0  0  0  0  0  0  0
    7.5714  -11.7276   25.4139 C   0  0  0  0  0  0  0  0  0  0  0  0
    7.0755  -12.9390   26.1405 C   0  0  1  0  0  0  0  0  0  0  0  0
    5.7113  -12.5952   26.7672 C   0  0  0  0  0  0  0  0  0  0  0  0
    6.8746  -14.1606   25.3294 C   0  0  0  0  0  0  0  0  0  0  0  0
    8.0760  -14.8094   24.7451 C   0  0  2  0  0  0  0  0  0  0  0  0
    7.7698  -16.0490   24.0484 N   0  0  0  0  0  0  0  0  0  0  0  0
    9.2522  -14.9130   25.6250 C   0  0  0  0  0  0  0  0  0  0  0  0
    9.6965  -13.9118   26.2371 O   0  0  0  0  0  0  0  0  0  0  0  0
   10.3474  -14.4647   30.0121 C   0  0  0  0  0  0  0  0  0  0  0  0
    9.9274  -15.1445   28.7511 C   0  0  0  0  0  0  0  0  0  0  0  0
   10.9893  -15.1241   27.6702 C   0  0  2  0  0  0  0  0  0  0  0  0
   10.9122  -13.8959   26.8210 C   0  0  0  0  0  0  0  0  0  0  0  0
   10.8669  -16.4009   26.8548 C   0  0  2  0  0  0  0  0  0  0  0  0
    9.9044  -16.1535   25.7955 N   0  0  0  0  0  0  0  0  0  0  0  0
   10.3571  -17.5187   27.6865 C   0  0  0  0  0  0  0  0  0  0  0  0
   11.0707  -17.9858   28.6153 O   0  0  0  0  0  0  0  0  0  0  0  0
    9.1142  -18.1078   27.5139 O   0  0  0  0  0  0  0  0  0  0  0  0
  2 12  2  0
  2  1  1  0
  3  2  1  0
  4  3  2  0
  4  5  1  0
  5 11  2  0
  6  5  1  0
  7  6  1  0
  7  8  1  6
  9  7  1  0
  9 18  1  0
 10  9  2  0
 11 12  1  0
 14 13  1  6
 14 16  1  0
 14 15  1  0
 17 18  1  0
 17 16  1  1
 19 17  1  0
 19 26  1  0
 20 19  2  0
 21 22  1  0
 23 22  1  0
 23 24  1  6
 25 26  1  6
 25 23  1  0
 27 25  1  0
 28 27  2  0
 29 27  1  0
M  END
$$$$
