YLI.pdb
     RDKit          3D

 29 29  0  0  1  0  0  0  0  0999 V2000
    7.4808  -23.0339   19.6885 O   0  0  0  0  0  0  0  0  0  0  0  0
    8.1770  -21.8801   20.0802 C   0  0  0  0  0  0  0  0  0  0  0  0
    7.8781  -20.6327   19.5775 C   0  0  0  0  0  0  0  0  0  0  0  0
    8.5957  -19.5179   19.9957 C   0  0  0  0  0  0  0  0  0  0  0  0
    9.6184  -19.6090   20.9138 C   0  0  0  0  0  0  0  0  0  0  0  0
   10.3893  -18.4239   21.3667 C   0  0  0  0  0  0  0  0  0  0  0  0
    9.4845  -17.1980   21.2815 C   0  0  2  0  0  0  0  0  0  0  0  0
    9.9737  -16.3854   20.1848 N   0  0  0  0  0  0  0  0  0  0  0  0
    9.6122  -16.4030   22.5292 C   0  0  0  0  0  0  0  0  0  0  0  0
   10.6547  -15.7129   22.7687 O   0  0  0  0  0  0  0  0  0  0  0  0
    9.9185  -20.8629   21.4186 C   0  0  0  0  0  0  0  0  0  0  0  0
    9.1987  -21.9798   20.9991 C   0  0  0  0  0  0  0  0  0  0  0  0
    5.3644  -13.5886   25.2201 C   0  0  0  0  0  0  0  0  0  0  0  0
    6.6800  -14.0294   24.6578 C   0  0  1  0  0  0  0  0  0  0  0  0
    7.7109  -12.9169   24.9256 C   0  0  0  0  0  0  0  0  0  0  0  0
    7.2501  -15.2787   25.2099 C   0  0  0  0  0  0  0  0  0  0  0  0
    8.5923  -15.6979   24.7323 C   0  0  2  0  0  0  0  0  0  0  0  0
    8.5465  -16.4176   23.4691 N   0  0  0  0  0  0  0  0  0  0  0  0
    9.4692  -16.3324   25.7308 C   0  0  0  0  0  0  0  0  0  0  0  0
    9.8508  -17.5205   25.5995 O   0  0  0  0  0  0  0  0  0  0  0  0
   10.1962  -12.8004   29.4362 C   0  0  0  0  0  0  0  0  0  0  0  0
   10.8524  -13.7861   28.5271 C   0  0  0  0  0  0  0  0  0  0  0  0
   10.8092  -15.2094   29.0455 C   0  0  2  0  0  0  0  0  0  0  0  0
   11.9212  -15.4997   30.0019 C   0  0  0  0  0  0  0  0  0  0  0  0
   10.8085  -16.1530   27.8539 C   0  0  2  0  0  0  0  0  0  0  0  0
    9.8990  -15.6058   26.8625 N   0  0  0  0  0  0  0  0  0  0  0  0
   10.3137  -17.4978   28.2381 C   0  0  0  0  0  0  0  0  0  0  0  0
    9.0749  -17.7333   28.2407 O   0  0  0  0  0  0  0  0  0  0  0  0
   11.1377  -18.5498   28.6066 O   0  0  0  0  0  0  0  0  0  0  0  0
  2 12  2  0
  2  1  1  0
  3  2  1  0
  4  3  2  0
  4  5  1  0
  5 11  2  0
  6  5  1  0
  7  6  1  0
  7  8  1  6
  9  7  1  0
  9 18  1  0
 10  9  2  0
 11 12  1  0
 14 13  1  1
 14 16  1  0
 14 15  1  0
 17 18  1  0
 17 16  1  1
 19 17  1  0
 19 26  1  0
 20 19  2  0
 21 22  1  0
 23 22  1  0
 23 24  1  1
 25 26  1  6
 25 23  1  0
 27 25  1  0
 28 27  2  0
 29 27  1  0
M  END
$$$$
