YLI.pdb
     RDKit          3D

 29 29  0  0  1  0  0  0  0  0999 V2000
    9.2872  -22.5018   17.6958 O   0  0  0  0  0  0  0  0  0  0  0  0
    9.4455  -21.5390   18.7044 C   0  0  0  0  0  0  0  0  0  0  0  0
    8.3815  -20.8364   19.2262 C   0  0  0  0  0  0  0  0  0  0  0  0
    8.5874  -19.8918   20.2252 C   0  0  0  0  0  0  0  0  0  0  0  0
    9.8407  -19.6212   20.7284 C   0  0  0  0  0  0  0  0  0  0  0  0
   10.0696  -18.6150   21.7957 C   0  0  0  0  0  0  0  0  0  0  0  0
    9.7413  -17.2340   21.2356 C   0  0  2  0  0  0  0  0  0  0  0  0
   10.7644  -16.9189   20.2576 N   0  0  0  0  0  0  0  0  0  0  0  0
    9.8266  -16.2273   22.3239 C   0  0  0  0  0  0  0  0  0  0  0  0
   10.9249  -15.6470   22.6021 O   0  0  0  0  0  0  0  0  0  0  0  0
   10.9097  -20.3276   20.2036 C   0  0  0  0  0  0  0  0  0  0  0  0
   10.7026  -21.2743   19.2024 C   0  0  0  0  0  0  0  0  0  0  0  0
    8.0718  -12.2886   25.4807 C   0  0  0  0  0  0  0  0  0  0  0  0
    7.3699  -13.5788   25.7709 C   0  0  1  0  0  0  0  0  0  0  0  0
    5.8910  -13.2632   26.0623 C   0  0  0  0  0  0  0  0  0  0  0  0
    7.3835  -14.5955   24.6953 C   0  0  0  0  0  0  0  0  0  0  0  0
    8.6881  -15.2085   24.3380 C   0  0  2  0  0  0  0  0  0  0  0  0
    8.6560  -15.9107   23.0646 N   0  0  0  0  0  0  0  0  0  0  0  0
    9.3634  -15.9685   25.4034 C   0  0  0  0  0  0  0  0  0  0  0  0
    9.2481  -17.2152   25.4857 O   0  0  0  0  0  0  0  0  0  0  0  0
   10.4906  -12.8763   29.5477 C   0  0  0  0  0  0  0  0  0  0  0  0
   10.7165  -13.7439   28.3540 C   0  0  0  0  0  0  0  0  0  0  0  0
   10.7545  -15.2234   28.6799 C   0  0  2  0  0  0  0  0  0  0  0  0
   11.8140  -15.5578   29.6804 C   0  0  0  0  0  0  0  0  0  0  0  0
   10.9195  -15.9955   27.3811 C   0  0  2  0  0  0  0  0  0  0  0  0
   10.1596  -15.2989   26.3580 N   0  0  0  0  0  0  0  0  0  0  0  0
   10.3728  -17.3692   27.5035 C   0  0  0  0  0  0  0  0  0  0  0  0
    9.1268  -17.5557   27.4495 O   0  0  0  0  0  0  0  0  0  0  0  0
   11.1542  -18.5007   27.6785 O   0  0  0  0  0  0  0  0  0  0  0  0
  2 12  2  0
  2  1  1  0
  3  2  1  0
  4  3  2  0
  4  5  1  0
  5 11  2  0
  6  5  1  0
  7  6  1  0
  7  8  1  6
  9  7  1  0
  9 18  1  0
 10  9  2  0
 11 12  1  0
 14 13  1  6
 14 16  1  0
 14 15  1  0
 17 18  1  0
 17 16  1  1
 19 17  1  0
 19 26  1  0
 20 19  2  0
 21 22  1  0
 23 22  1  0
 23 24  1  1
 25 26  1  6
 25 23  1  0
 27 25  1  0
 28 27  2  0
 29 27  1  0
M  END
$$$$
