YLI.pdb
     RDKit          3D

 29 29  0  0  1  0  0  0  0  0999 V2000
    6.5911  -22.3189   29.3299 O   0  0  0  0  0  0  0  0  0  0  0  0
    6.9291  -21.7096   28.1117 C   0  0  0  0  0  0  0  0  0  0  0  0
    7.6608  -20.5439   28.0488 C   0  0  0  0  0  0  0  0  0  0  0  0
    7.9718  -19.9770   26.8182 C   0  0  0  0  0  0  0  0  0  0  0  0
    7.5699  -20.5446   25.6292 C   0  0  0  0  0  0  0  0  0  0  0  0
    7.8982  -19.9467   24.3107 C   0  0  0  0  0  0  0  0  0  0  0  0
    7.1369  -18.6312   24.1741 C   0  0  2  0  0  0  0  0  0  0  0  0
    5.7429  -18.9682   23.9606 N   0  0  0  0  0  0  0  0  0  0  0  0
    7.6189  -17.9049   22.9719 C   0  0  0  0  0  0  0  0  0  0  0  0
    8.7153  -18.2187   22.4062 O   0  0  0  0  0  0  0  0  0  0  0  0
    6.8345  -21.7160   25.6931 C   0  0  0  0  0  0  0  0  0  0  0  0
    6.5232  -22.2837   26.9269 C   0  0  0  0  0  0  0  0  0  0  0  0
    7.2183  -12.2587   21.5486 C   0  0  0  0  0  0  0  0  0  0  0  0
    6.8767  -13.4542   20.7147 C   0  0  1  0  0  0  0  0  0  0  0  0
    8.1438  -13.8817   19.9507 C   0  0  0  0  0  0  0  0  0  0  0  0
    6.3942  -14.6506   21.4402 C   0  0  0  0  0  0  0  0  0  0  0  0
    7.4101  -15.5869   21.9850 C   0  0  2  0  0  0  0  0  0  0  0  0
    6.8363  -16.8406   22.4484 N   0  0  0  0  0  0  0  0  0  0  0  0
    8.3864  -15.0121   22.9257 C   0  0  0  0  0  0  0  0  0  0  0  0
    9.4895  -14.5669   22.5266 O   0  0  0  0  0  0  0  0  0  0  0  0
    6.1002  -12.9419   27.4350 C   0  0  0  0  0  0  0  0  0  0  0  0
    6.9629  -13.8868   26.6659 C   0  0  0  0  0  0  0  0  0  0  0  0
    8.1161  -13.2098   25.9532 C   0  0  2  0  0  0  0  0  0  0  0  0
    7.6544  -12.1508   25.0041 C   0  0  0  0  0  0  0  0  0  0  0  0
    8.9491  -14.2799   25.2669 C   0  0  2  0  0  0  0  0  0  0  0  0
    8.0926  -14.9520   24.3054 N   0  0  0  0  0  0  0  0  0  0  0  0
    9.4271  -15.2912   26.2415 C   0  0  0  0  0  0  0  0  0  0  0  0
   10.2654  -14.9640   27.1249 O   0  0  0  0  0  0  0  0  0  0  0  0
    9.0078  -16.6124   26.2548 O   0  0  0  0  0  0  0  0  0  0  0  0
  2 12  2  0
  2  1  1  0
  3  2  1  0
  4  3  2  0
  4  5  1  0
  5 11  2  0
  6  5  1  0
  7  6  1  0
  7  8  1  6
  9  7  1  0
  9 18  1  0
 10  9  2  0
 11 12  1  0
 14 13  1  1
 14 16  1  0
 14 15  1  0
 17 18  1  0
 17 16  1  1
 19 17  1  0
 19 26  1  0
 20 19  2  0
 21 22  1  0
 23 22  1  0
 23 24  1  6
 25 26  1  6
 25 23  1  0
 27 25  1  0
 28 27  2  0
 29 27  1  0
M  END
$$$$
