YLI.pdb
     RDKit          3D

 29 29  0  0  1  0  0  0  0  0999 V2000
   11.3083  -25.1428   21.4721 O   0  0  0  0  0  0  0  0  0  0  0  0
   11.2821  -23.7696   21.7606 C   0  0  0  0  0  0  0  0  0  0  0  0
   10.1083  -23.0890   21.9993 C   0  0  0  0  0  0  0  0  0  0  0  0
   10.1320  -21.7280   22.2813 C   0  0  0  0  0  0  0  0  0  0  0  0
   11.3079  -21.0126   22.3337 C   0  0  0  0  0  0  0  0  0  0  0  0
   11.3427  -19.5593   22.6350 C   0  0  0  0  0  0  0  0  0  0  0  0
   11.0165  -18.7932   21.3561 C   0  0  2  0  0  0  0  0  0  0  0  0
   12.2268  -18.7658   20.5580 N   0  0  0  0  0  0  0  0  0  0  0  0
   10.6644  -17.3915   21.6971 C   0  0  0  0  0  0  0  0  0  0  0  0
   11.5582  -16.4898   21.7893 O   0  0  0  0  0  0  0  0  0  0  0  0
   12.4873  -21.6971   22.0936 C   0  0  0  0  0  0  0  0  0  0  0  0
   12.4627  -23.0613   21.8110 C   0  0  0  0  0  0  0  0  0  0  0  0
    8.4232  -12.7835   21.1959 C   0  0  0  0  0  0  0  0  0  0  0  0
    7.3724  -13.8001   21.5180 C   0  0  1  0  0  0  0  0  0  0  0  0
    6.1884  -13.5845   20.5569 C   0  0  0  0  0  0  0  0  0  0  0  0
    7.7669  -15.2212   21.3940 C   0  0  0  0  0  0  0  0  0  0  0  0
    8.8604  -15.7154   22.2690 C   0  0  2  0  0  0  0  0  0  0  0  0
    9.3018  -17.0575   21.9233 N   0  0  0  0  0  0  0  0  0  0  0  0
    8.6738  -15.5202   23.7166 C   0  0  0  0  0  0  0  0  0  0  0  0
    7.9258  -16.2755   24.3834 O   0  0  0  0  0  0  0  0  0  0  0  0
    5.8588  -12.5366   26.2550 C   0  0  0  0  0  0  0  0  0  0  0  0
    6.8799  -13.5877   25.9704 C   0  0  0  0  0  0  0  0  0  0  0  0
    8.3063  -13.0810   26.0422 C   0  0  2  0  0  0  0  0  0  0  0  0
    8.5592  -11.9586   25.0873 C   0  0  0  0  0  0  0  0  0  0  0  0
    9.2436  -14.2560   25.8167 C   0  0  2  0  0  0  0  0  0  0  0  0
    9.3411  -14.4697   24.3834 N   0  0  0  0  0  0  0  0  0  0  0  0
    8.7042  -15.4945   26.4300 C   0  0  0  0  0  0  0  0  0  0  0  0
    8.5952  -15.5779   27.6835 O   0  0  0  0  0  0  0  0  0  0  0  0
    8.2976  -16.6037   25.7049 O   0  0  0  0  0  0  0  0  0  0  0  0
  2 12  2  0
  2  1  1  0
  3  2  1  0
  4  3  2  0
  4  5  1  0
  5 11  2  0
  6  5  1  0
  7  6  1  0
  7  8  1  6
  9  7  1  0
  9 18  1  0
 10  9  2  0
 11 12  1  0
 14 13  1  6
 14 16  1  0
 14 15  1  0
 17 18  1  0
 17 16  1  6
 19 17  1  0
 19 26  1  0
 20 19  2  0
 21 22  1  0
 23 22  1  0
 23 24  1  6
 25 26  1  6
 25 23  1  0
 27 25  1  0
 28 27  2  0
 29 27  1  0
M  END
$$$$
