YLI.pdb
     RDKit          3D

 29 29  0  0  1  0  0  0  0  0999 V2000
    8.5813  -22.1232   17.2994 O   0  0  0  0  0  0  0  0  0  0  0  0
    8.8500  -21.2068   18.3277 C   0  0  0  0  0  0  0  0  0  0  0  0
    7.9037  -20.8508   19.2635 C   0  0  0  0  0  0  0  0  0  0  0  0
    8.2163  -19.9383   20.2646 C   0  0  0  0  0  0  0  0  0  0  0  0
    9.4627  -19.3602   20.3637 C   0  0  0  0  0  0  0  0  0  0  0  0
    9.8055  -18.3857   21.4299 C   0  0  0  0  0  0  0  0  0  0  0  0
    9.2245  -17.0274   21.0474 C   0  0  2  0  0  0  0  0  0  0  0  0
   10.0311  -16.5128   19.9579 N   0  0  0  0  0  0  0  0  0  0  0  0
    9.3587  -16.0931   22.1938 C   0  0  0  0  0  0  0  0  0  0  0  0
   10.4638  -15.5151   22.4487 O   0  0  0  0  0  0  0  0  0  0  0  0
   10.4133  -19.7183   19.4229 C   0  0  0  0  0  0  0  0  0  0  0  0
   10.0992  -20.6330   18.4198 C   0  0  0  0  0  0  0  0  0  0  0  0
    7.6273  -11.9768   25.2209 C   0  0  0  0  0  0  0  0  0  0  0  0
    6.9362  -13.2722   25.5139 C   0  0  1  0  0  0  0  0  0  0  0  0
    5.4504  -12.9705   25.7847 C   0  0  0  0  0  0  0  0  0  0  0  0
    6.9741  -14.2979   24.4475 C   0  0  0  0  0  0  0  0  0  0  0  0
    8.2699  -14.9727   24.1813 C   0  0  2  0  0  0  0  0  0  0  0  0
    8.2278  -15.8442   23.0175 N   0  0  0  0  0  0  0  0  0  0  0  0
    8.9343  -15.5870   25.3431 C   0  0  0  0  0  0  0  0  0  0  0  0
    8.9851  -16.8334   25.4792 O   0  0  0  0  0  0  0  0  0  0  0  0
   12.1195  -13.9019   30.3160 C   0  0  0  0  0  0  0  0  0  0  0  0
   11.2613  -14.9120   29.6292 C   0  0  0  0  0  0  0  0  0  0  0  0
   10.4133  -14.3294   28.5166 C   0  0  2  0  0  0  0  0  0  0  0  0
    9.0243  -14.0101   28.9686 C   0  0  0  0  0  0  0  0  0  0  0  0
   10.4333  -15.2955   27.3435 C   0  0  2  0  0  0  0  0  0  0  0  0
    9.5310  -14.7745   26.3316 N   0  0  0  0  0  0  0  0  0  0  0  0
    9.9443  -16.6366   27.7479 C   0  0  0  0  0  0  0  0  0  0  0  0
   10.7446  -17.4702   28.2527 O   0  0  0  0  0  0  0  0  0  0  0  0
    8.6306  -17.0562   27.6081 O   0  0  0  0  0  0  0  0  0  0  0  0
  2 12  2  0
  2  1  1  0
  3  2  1  0
  4  3  2  0
  4  5  1  0
  5 11  2  0
  6  5  1  0
  7  6  1  0
  7  8  1  6
  9  7  1  0
  9 18  1  0
 10  9  2  0
 11 12  1  0
 14 13  1  6
 14 16  1  0
 14 15  1  0
 17 18  1  0
 17 16  1  1
 19 17  1  0
 19 26  1  0
 20 19  2  0
 21 22  1  0
 23 22  1  0
 23 24  1  1
 25 26  1  6
 25 23  1  0
 27 25  1  0
 28 27  2  0
 29 27  1  0
M  END
$$$$
