YLI.pdb
     RDKit          3D

 29 29  0  0  1  0  0  0  0  0999 V2000
    6.9066  -22.3032   18.0143 O   0  0  0  0  0  0  0  0  0  0  0  0
    7.4792  -21.3712   18.8936 C   0  0  0  0  0  0  0  0  0  0  0  0
    7.4087  -20.0127   18.6758 C   0  0  0  0  0  0  0  0  0  0  0  0
    7.9913  -19.1274   19.5754 C   0  0  0  0  0  0  0  0  0  0  0  0
    8.6526  -19.5607   20.7034 C   0  0  0  0  0  0  0  0  0  0  0  0
    9.2768  -18.6224   21.6698 C   0  0  0  0  0  0  0  0  0  0  0  0
    8.9323  -17.1964   21.2494 C   0  0  2  0  0  0  0  0  0  0  0  0
    9.8104  -16.8555   20.1471 N   0  0  0  0  0  0  0  0  0  0  0  0
    9.2264  -16.2673   22.3698 C   0  0  0  0  0  0  0  0  0  0  0  0
   10.3799  -15.7478   22.5115 O   0  0  0  0  0  0  0  0  0  0  0  0
    8.7232  -20.9261   20.9216 C   0  0  0  0  0  0  0  0  0  0  0  0
    8.1389  -21.8129   20.0196 C   0  0  0  0  0  0  0  0  0  0  0  0
    8.2192  -12.2254   25.7221 C   0  0  0  0  0  0  0  0  0  0  0  0
    7.3864  -13.4309   26.0292 C   0  0  1  0  0  0  0  0  0  0  0  0
    5.9728  -12.9513   26.4079 C   0  0  0  0  0  0  0  0  0  0  0  0
    7.2223  -14.4170   24.9377 C   0  0  0  0  0  0  0  0  0  0  0  0
    8.4227  -15.1763   24.5040 C   0  0  2  0  0  0  0  0  0  0  0  0
    8.1959  -15.9566   23.2976 N   0  0  0  0  0  0  0  0  0  0  0  0
    9.1339  -15.9242   25.5543 C   0  0  0  0  0  0  0  0  0  0  0  0
    8.7534  -17.0655   25.9108 O   0  0  0  0  0  0  0  0  0  0  0  0
   10.8042  -13.5021   30.0675 C   0  0  0  0  0  0  0  0  0  0  0  0
   10.4261  -14.5924   29.1204 C   0  0  0  0  0  0  0  0  0  0  0  0
   11.5440  -14.9894   28.1775 C   0  0  2  0  0  0  0  0  0  0  0  0
   12.1253  -13.8142   27.4587 C   0  0  0  0  0  0  0  0  0  0  0  0
   11.0129  -16.0472   27.2240 C   0  0  2  0  0  0  0  0  0  0  0  0
   10.2672  -15.3630   26.1822 N   0  0  0  0  0  0  0  0  0  0  0  0
   10.0862  -16.9748   27.9182 C   0  0  0  0  0  0  0  0  0  0  0  0
   10.5401  -17.8164   28.7403 O   0  0  0  0  0  0  0  0  0  0  0  0
    8.7137  -16.9864   27.7249 O   0  0  0  0  0  0  0  0  0  0  0  0
  2 12  2  0
  2  1  1  0
  3  2  1  0
  4  3  2  0
  4  5  1  0
  5 11  2  0
  6  5  1  0
  7  6  1  0
  7  8  1  6
  9  7  1  0
  9 18  1  0
 10  9  2  0
 11 12  1  0
 14 13  1  6
 14 16  1  0
 14 15  1  0
 17 18  1  0
 17 16  1  1
 19 17  1  0
 19 26  1  0
 20 19  2  0
 21 22  1  0
 23 22  1  0
 23 24  1  6
 25 26  1  6
 25 23  1  0
 27 25  1  0
 28 27  2  0
 29 27  1  0
M  END
$$$$
