YLI.pdb
     RDKit          3D

 29 29  0  0  1  0  0  0  0  0999 V2000
    8.5546  -21.1743   16.5811 O   0  0  0  0  0  0  0  0  0  0  0  0
    8.9022  -20.4605   17.7382 C   0  0  0  0  0  0  0  0  0  0  0  0
   10.2117  -20.2735   18.1233 C   0  0  0  0  0  0  0  0  0  0  0  0
   10.5076  -19.5586   19.2782 C   0  0  0  0  0  0  0  0  0  0  0  0
    9.5233  -19.0155   20.0742 C   0  0  0  0  0  0  0  0  0  0  0  0
    9.8301  -18.2500   21.3086 C   0  0  0  0  0  0  0  0  0  0  0  0
    9.4930  -16.7821   21.0626 C   0  0  2  0  0  0  0  0  0  0  0  0
   10.4860  -16.2680   20.1395 N   0  0  0  0  0  0  0  0  0  0  0  0
    9.6201  -16.0269   22.3348 C   0  0  0  0  0  0  0  0  0  0  0  0
   10.7572  -15.6608   22.7747 O   0  0  0  0  0  0  0  0  0  0  0  0
    8.2074  -19.2038   19.6868 C   0  0  0  0  0  0  0  0  0  0  0  0
    7.9116  -19.9204   18.5290 C   0  0  0  0  0  0  0  0  0  0  0  0
    7.9116  -12.2862   25.8770 C   0  0  0  0  0  0  0  0  0  0  0  0
    7.1636  -13.5808   25.9531 C   0  0  1  0  0  0  0  0  0  0  0  0
    5.6838  -13.2617   26.2365 C   0  0  0  0  0  0  0  0  0  0  0  0
    7.1904  -14.4322   24.7428 C   0  0  0  0  0  0  0  0  0  0  0  0
    8.4758  -15.0825   24.3817 C   0  0  2  0  0  0  0  0  0  0  0  0
    8.4460  -15.7104   23.0700 N   0  0  0  0  0  0  0  0  0  0  0  0
    9.0894  -15.9305   25.4176 C   0  0  0  0  0  0  0  0  0  0  0  0
    8.8404  -17.1585   25.4841 O   0  0  0  0  0  0  0  0  0  0  0  0
   10.5159  -13.9399   30.4210 C   0  0  0  0  0  0  0  0  0  0  0  0
   10.0957  -14.7606   29.2469 C   0  0  0  0  0  0  0  0  0  0  0  0
   11.2539  -15.2222   28.3857 C   0  0  2  0  0  0  0  0  0  0  0  0
   12.0151  -14.0782   27.7963 C   0  0  0  0  0  0  0  0  0  0  0  0
   10.7145  -16.1673   27.3245 C   0  0  2  0  0  0  0  0  0  0  0  0
    9.9770  -15.3689   26.3611 N   0  0  0  0  0  0  0  0  0  0  0  0
    9.7779  -17.1547   27.9153 C   0  0  0  0  0  0  0  0  0  0  0  0
    8.5339  -16.9973   27.7817 O   0  0  0  0  0  0  0  0  0  0  0  0
   10.1805  -18.2743   28.6265 O   0  0  0  0  0  0  0  0  0  0  0  0
  2 12  2  0
  2  1  1  0
  3  2  1  0
  4  3  2  0
  4  5  1  0
  5 11  2  0
  6  5  1  0
  7  6  1  0
  7  8  1  6
  9  7  1  0
  9 18  1  0
 10  9  2  0
 11 12  1  0
 14 13  1  6
 14 16  1  0
 14 15  1  0
 17 18  1  0
 17 16  1  1
 19 17  1  0
 19 26  1  0
 20 19  2  0
 21 22  1  0
 23 22  1  0
 23 24  1  6
 25 26  1  6
 25 23  1  0
 27 25  1  0
 28 27  2  0
 29 27  1  0
M  END
$$$$
