AEH.pdb
     RDKit          3D

 25 25  0  0  1  0  0  0  0  0999 V2000
    8.3480  -12.3259   19.1150 C   0  0  0  0  0  0  0  0  0  0  0  0
    8.4414  -13.7473   18.5523 C   0  0  2  0  0  0  0  0  0  0  0  0
    7.2503  -13.9988   17.7937 N   0  0  0  0  0  0  0  0  0  0  0  0
    8.5677  -14.6966   19.6746 C   0  0  0  0  0  0  0  0  0  0  0  0
    7.5294  -15.0883   20.2752 O   0  0  0  0  0  0  0  0  0  0  0  0
    9.8352  -15.1705   20.0832 N   0  0  0  0  0  0  0  0  0  0  0  0
   10.0063  -16.1369   21.1759 C   0  0  1  0  0  0  0  0  0  0  0  0
   11.2801  -16.8889   21.0349 C   0  0  0  0  0  0  0  0  0  0  0  0
   11.4184  -17.9417   22.0712 C   0  0  0  0  0  0  0  0  0  0  0  0
   12.7343  -18.6837   21.9191 C   0  0  0  0  0  0  0  0  0  0  0  0
   12.9623  -19.1278   20.7654 O   0  0  0  0  0  0  0  0  0  0  0  0
    9.9240  -15.4287   22.4817 C   0  0  0  0  0  0  0  0  0  0  0  0
   10.6176  -14.4558   22.8297 O   0  0  0  0  0  0  0  0  0  0  0  0
   13.5937  -18.8460   22.9713 O   0  0  0  0  0  0  0  0  0  0  0  0
    8.9729  -15.8621   23.4781 N   0  0  0  0  0  0  0  0  0  0  0  0
    8.6140  -14.9990   24.6038 C   0  0  1  0  0  0  0  0  0  0  0  0
    7.1994  -14.5308   24.5022 C   0  0  0  0  0  0  0  0  0  0  0  0
    6.9012  -13.5927   25.5976 C   0  0  0  0  0  0  0  0  0  0  0  0
    7.4958  -12.3559   25.7697 C   0  0  0  0  0  0  0  0  0  0  0  0
    6.9786  -11.7921   26.8632 N   0  0  0  0  0  0  0  0  0  0  0  0
    6.0844  -12.6464   27.3672 C   0  0  0  0  0  0  0  0  0  0  0  0
    6.0312  -13.7322   26.6124 N   0  0  0  0  0  0  0  0  0  0  0  0
    8.9133  -15.7444   25.8378 C   0  0  0  0  0  0  0  0  0  0  0  0
    8.9813  -15.1070   27.0567 O   0  0  0  0  0  0  0  0  0  0  0  0
    9.1123  -16.9779   25.7930 O   0  0  0  0  0  0  0  0  0  0  0  0
  2  1  1  1
  2  4  1  0
  2  3  1  0
  4  5  2  0
  6  4  1  0
  7  6  1  0
  7  8  1  6
  9  8  1  0
 10  9  1  0
 10 14  1  0
 11 10  2  0
 12  7  1  0
 13 12  2  0
 15 12  1  0
 16 17  1  6
 16 15  1  0
 17 18  1  0
 18 22  1  0
 19 18  2  0
 19 20  1  0
 20 21  1  0
 22 21  2  0
 23 16  1  0
 24 23  1  0
 25 23  2  0
M  END
$$$$
