AEH.pdb
     RDKit          3D

 25 25  0  0  1  0  0  0  0  0999 V2000
    7.6915  -12.7845   18.6023 C   0  0  0  0  0  0  0  0  0  0  0  0
    8.5603  -13.4991   17.5629 C   0  0  2  0  0  0  0  0  0  0  0  0
    7.6928  -14.2706   16.7205 N   0  0  0  0  0  0  0  0  0  0  0  0
    9.5278  -14.3642   18.2646 C   0  0  0  0  0  0  0  0  0  0  0  0
    9.2192  -15.5613   18.5178 O   0  0  0  0  0  0  0  0  0  0  0  0
   10.7926  -13.8683   18.6549 N   0  0  0  0  0  0  0  0  0  0  0  0
   11.7841  -14.6910   19.3600 C   0  0  1  0  0  0  0  0  0  0  0  0
   13.1688  -14.2560   19.0417 C   0  0  0  0  0  0  0  0  0  0  0  0
   14.1831  -15.1660   19.6289 C   0  0  0  0  0  0  0  0  0  0  0  0
   15.5775  -14.8089   19.1456 C   0  0  0  0  0  0  0  0  0  0  0  0
   16.1620  -13.9237   19.8201 O   0  0  0  0  0  0  0  0  0  0  0  0
   11.5137  -14.6488   20.8224 C   0  0  0  0  0  0  0  0  0  0  0  0
   10.7934  -13.8201   21.4082 O   0  0  0  0  0  0  0  0  0  0  0  0
   16.1377  -15.4167   18.0553 O   0  0  0  0  0  0  0  0  0  0  0  0
   12.1126  -15.6314   21.6948 N   0  0  0  0  0  0  0  0  0  0  0  0
   11.3194  -16.3164   22.7159 C   0  0  1  0  0  0  0  0  0  0  0  0
   10.0699  -16.8954   22.1378 C   0  0  0  0  0  0  0  0  0  0  0  0
    8.9555  -15.9461   22.2988 C   0  0  0  0  0  0  0  0  0  0  0  0
    9.0487  -14.7050   22.9022 C   0  0  0  0  0  0  0  0  0  0  0  0
    7.8444  -14.1310   22.8651 N   0  0  0  0  0  0  0  0  0  0  0  0
    7.0152  -14.9830   22.2569 C   0  0  0  0  0  0  0  0  0  0  0  0
    7.6750  -16.0775   21.9128 N   0  0  0  0  0  0  0  0  0  0  0  0
   12.1986  -17.3065   23.3599 C   0  0  0  0  0  0  0  0  0  0  0  0
   12.0608  -17.6214   24.6935 O   0  0  0  0  0  0  0  0  0  0  0  0
   13.0910  -17.8784   22.6967 O   0  0  0  0  0  0  0  0  0  0  0  0
  2  1  1  1
  2  4  1  0
  2  3  1  0
  4  5  2  0
  6  4  1  0
  7  6  1  0
  7  8  1  1
  9  8  1  0
 10  9  1  0
 10 14  1  0
 11 10  2  0
 12  7  1  0
 13 12  2  0
 15 12  1  0
 16 17  1  6
 16 15  1  0
 17 18  1  0
 18 22  1  0
 19 18  2  0
 19 20  1  0
 20 21  1  0
 22 21  2  0
 23 16  1  0
 24 23  1  0
 25 23  2  0
M  END
$$$$
