AEH.pdb
     RDKit          3D

 25 25  0  0  1  0  0  0  0  0999 V2000
    8.3491  -12.3957   18.7060 C   0  0  0  0  0  0  0  0  0  0  0  0
    8.7891  -13.4221   17.6580 C   0  0  2  0  0  0  0  0  0  0  0  0
    7.6301  -13.8067   16.9055 N   0  0  0  0  0  0  0  0  0  0  0  0
    9.3843  -14.5824   18.3482 C   0  0  0  0  0  0  0  0  0  0  0  0
    8.6439  -15.5422   18.6985 O   0  0  0  0  0  0  0  0  0  0  0  0
   10.7705  -14.6303   18.6205 N   0  0  0  0  0  0  0  0  0  0  0  0
   11.4266  -15.8144   19.1902 C   0  0  1  0  0  0  0  0  0  0  0  0
   12.7329  -16.0751   18.5316 C   0  0  0  0  0  0  0  0  0  0  0  0
   12.6195  -17.0998   17.4644 C   0  0  0  0  0  0  0  0  0  0  0  0
   13.9809  -17.4223   16.8745 C   0  0  0  0  0  0  0  0  0  0  0  0
   14.8741  -17.6901   17.7175 O   0  0  0  0  0  0  0  0  0  0  0  0
   11.5736  -15.6408   20.6604 C   0  0  0  0  0  0  0  0  0  0  0  0
   12.0819  -14.6595   21.2326 O   0  0  0  0  0  0  0  0  0  0  0  0
   14.1984  -17.4163   15.5237 O   0  0  0  0  0  0  0  0  0  0  0  0
   11.1035  -16.6694   21.5583 N   0  0  0  0  0  0  0  0  0  0  0  0
   11.1042  -16.4638   23.0070 C   0  0  1  0  0  0  0  0  0  0  0  0
    9.7480  -16.6901   23.5903 C   0  0  0  0  0  0  0  0  0  0  0  0
    8.8098  -15.6713   23.0896 C   0  0  0  0  0  0  0  0  0  0  0  0
    8.3900  -14.5600   23.7978 C   0  0  0  0  0  0  0  0  0  0  0  0
    7.5466  -13.8684   23.0287 N   0  0  0  0  0  0  0  0  0  0  0  0
    7.4365  -14.5225   21.8696 C   0  0  0  0  0  0  0  0  0  0  0  0
    8.1929  -15.6082   21.8973 N   0  0  0  0  0  0  0  0  0  0  0  0
   12.1529  -17.3303   23.5701 C   0  0  0  0  0  0  0  0  0  0  0  0
   13.2427  -16.7983   24.2229 O   0  0  0  0  0  0  0  0  0  0  0  0
   12.0661  -18.5728   23.4603 O   0  0  0  0  0  0  0  0  0  0  0  0
  2  1  1  1
  2  4  1  0
  2  3  1  0
  4  5  2  0
  6  4  1  0
  7  6  1  0
  7  8  1  6
  9  8  1  0
 10  9  1  0
 10 14  1  0
 11 10  2  0
 12  7  1  0
 13 12  2  0
 15 12  1  0
 16 17  1  1
 16 15  1  0
 17 18  1  0
 18 22  1  0
 19 18  2  0
 19 20  1  0
 20 21  1  0
 22 21  2  0
 23 16  1  0
 24 23  1  0
 25 23  2  0
M  END
$$$$
