AEH.pdb
     RDKit          3D

 25 25  0  0  1  0  0  0  0  0999 V2000
    8.1110  -12.6173   18.4578 C   0  0  0  0  0  0  0  0  0  0  0  0
    8.9062  -13.5585   17.5481 C   0  0  2  0  0  0  0  0  0  0  0  0
    7.9700  -14.2753   16.7313 N   0  0  0  0  0  0  0  0  0  0  0  0
    9.6938  -14.4804   18.3887 C   0  0  0  0  0  0  0  0  0  0  0  0
    9.1877  -15.5799   18.7452 O   0  0  0  0  0  0  0  0  0  0  0  0
   11.0050  -14.1464   18.7975 N   0  0  0  0  0  0  0  0  0  0  0  0
   11.8154  -15.0208   19.6553 C   0  0  1  0  0  0  0  0  0  0  0  0
   13.2622  -14.7049   19.5322 C   0  0  0  0  0  0  0  0  0  0  0  0
   13.8210  -15.1675   18.2378 C   0  0  0  0  0  0  0  0  0  0  0  0
   15.2945  -14.8185   18.1269 C   0  0  0  0  0  0  0  0  0  0  0  0
   16.0248  -15.7377   17.6775 O   0  0  0  0  0  0  0  0  0  0  0  0
   11.3434  -14.9114   21.0620 C   0  0  0  0  0  0  0  0  0  0  0  0
   10.5926  -14.0276   21.5136 O   0  0  0  0  0  0  0  0  0  0  0  0
   15.7716  -13.5897   18.4940 O   0  0  0  0  0  0  0  0  0  0  0  0
   11.7595  -15.8889   22.0400 N   0  0  0  0  0  0  0  0  0  0  0  0
   10.8197  -16.4081   23.0342 C   0  0  1  0  0  0  0  0  0  0  0  0
    9.5774  -16.9296   22.3897 C   0  0  0  0  0  0  0  0  0  0  0  0
    8.5535  -15.8720   22.3444 C   0  0  0  0  0  0  0  0  0  0  0  0
    8.7167  -14.5857   22.8256 C   0  0  0  0  0  0  0  0  0  0  0  0
    7.5837  -13.9132   22.6133 N   0  0  0  0  0  0  0  0  0  0  0  0
    6.7301  -14.7489   22.0160 C   0  0  0  0  0  0  0  0  0  0  0  0
    7.3050  -15.9294   21.8503 N   0  0  0  0  0  0  0  0  0  0  0  0
   11.5435  -17.4061   23.8392 C   0  0  0  0  0  0  0  0  0  0  0  0
   11.2266  -17.6202   25.1623 O   0  0  0  0  0  0  0  0  0  0  0  0
   12.4650  -18.0774   23.3260 O   0  0  0  0  0  0  0  0  0  0  0  0
  2  1  1  1
  2  4  1  0
  2  3  1  0
  4  5  2  0
  6  4  1  0
  7  6  1  0
  7  8  1  1
  9  8  1  0
 10  9  1  0
 10 14  1  0
 11 10  2  0
 12  7  1  0
 13 12  2  0
 15 12  1  0
 16 17  1  6
 16 15  1  0
 17 18  1  0
 18 22  1  0
 19 18  2  0
 19 20  1  0
 20 21  1  0
 22 21  2  0
 23 16  1  0
 24 23  1  0
 25 23  2  0
M  END
$$$$
