AEH.pdb
     RDKit          3D

 25 25  0  0  1  0  0  0  0  0999 V2000
    8.2553  -12.1808   19.9506 C   0  0  0  0  0  0  0  0  0  0  0  0
    8.4167  -13.5707   19.3279 C   0  0  2  0  0  0  0  0  0  0  0  0
    7.3080  -13.7879   18.4441 N   0  0  0  0  0  0  0  0  0  0  0  0
    8.4414  -14.5763   20.4072 C   0  0  0  0  0  0  0  0  0  0  0  0
    7.3608  -15.1072   20.7848 O   0  0  0  0  0  0  0  0  0  0  0  0
    9.6585  -14.9502   21.0210 N   0  0  0  0  0  0  0  0  0  0  0  0
    9.7421  -16.0050   22.0395 C   0  0  1  0  0  0  0  0  0  0  0  0
   10.8042  -16.9902   21.7083 C   0  0  0  0  0  0  0  0  0  0  0  0
   10.5258  -17.6957   20.4330 C   0  0  0  0  0  0  0  0  0  0  0  0
   11.6164  -18.7052   20.1218 C   0  0  0  0  0  0  0  0  0  0  0  0
   12.5717  -18.7224   20.9386 O   0  0  0  0  0  0  0  0  0  0  0  0
    9.9577  -15.3881   23.3761 C   0  0  0  0  0  0  0  0  0  0  0  0
   10.1987  -14.1870   23.5956 O   0  0  0  0  0  0  0  0  0  0  0  0
   11.5457  -19.5254   19.0289 O   0  0  0  0  0  0  0  0  0  0  0  0
    9.8945  -16.2045   24.5655 N   0  0  0  0  0  0  0  0  0  0  0  0
    9.0460  -15.8257   25.6959 C   0  0  1  0  0  0  0  0  0  0  0  0
    7.6419  -15.5636   25.2596 C   0  0  0  0  0  0  0  0  0  0  0  0
    7.1894  -14.2620   25.7791 C   0  0  0  0  0  0  0  0  0  0  0  0
    7.9645  -13.3883   26.5198 C   0  0  0  0  0  0  0  0  0  0  0  0
    7.2233  -12.3179   26.8131 N   0  0  0  0  0  0  0  0  0  0  0  0
    6.0164  -12.5091   26.2742 C   0  0  0  0  0  0  0  0  0  0  0  0
    5.9869  -13.6759   25.6503 N   0  0  0  0  0  0  0  0  0  0  0  0
    9.1724  -16.8852   26.7104 C   0  0  0  0  0  0  0  0  0  0  0  0
    9.6122  -16.6031   27.9846 O   0  0  0  0  0  0  0  0  0  0  0  0
    8.8796  -18.0665   26.4238 O   0  0  0  0  0  0  0  0  0  0  0  0
  2  1  1  1
  2  4  1  0
  2  3  1  0
  4  5  2  0
  6  4  1  0
  7  6  1  0
  7  8  1  6
  9  8  1  0
 10  9  1  0
 10 14  1  0
 11 10  2  0
 12  7  1  0
 13 12  2  0
 15 12  1  0
 16 17  1  6
 16 15  1  0
 17 18  1  0
 18 22  1  0
 19 18  2  0
 19 20  1  0
 20 21  1  0
 22 21  2  0
 23 16  1  0
 24 23  1  0
 25 23  2  0
M  END
$$$$
