AEH.pdb
     RDKit          3D

 25 25  0  0  1  0  0  0  0  0999 V2000
    7.9924  -12.3082   19.2774 C   0  0  0  0  0  0  0  0  0  0  0  0
    8.6738  -13.0289   18.1104 C   0  0  2  0  0  0  0  0  0  0  0  0
    7.6481  -13.6115   17.2943 N   0  0  0  0  0  0  0  0  0  0  0  0
    9.5755  -14.0640   18.6510 C   0  0  0  0  0  0  0  0  0  0  0  0
    9.1266  -15.2219   18.8748 O   0  0  0  0  0  0  0  0  0  0  0  0
   10.9324  -13.7736   18.9202 N   0  0  0  0  0  0  0  0  0  0  0  0
   11.8880  -14.7944   19.3698 C   0  0  1  0  0  0  0  0  0  0  0  0
   13.2789  -14.4334   18.9915 C   0  0  0  0  0  0  0  0  0  0  0  0
   14.2358  -15.5261   19.2948 C   0  0  0  0  0  0  0  0  0  0  0  0
   15.5235  -15.3538   18.5090 C   0  0  0  0  0  0  0  0  0  0  0  0
   15.8571  -16.3463   17.8134 O   0  0  0  0  0  0  0  0  0  0  0  0
   11.7481  -14.9925   20.8377 C   0  0  0  0  0  0  0  0  0  0  0  0
   11.9166  -14.1224   21.7113 O   0  0  0  0  0  0  0  0  0  0  0  0
   16.2516  -14.1968   18.5673 O   0  0  0  0  0  0  0  0  0  0  0  0
   11.3858  -16.2897   21.3586 N   0  0  0  0  0  0  0  0  0  0  0  0
   11.2389  -16.5102   22.7977 C   0  0  1  0  0  0  0  0  0  0  0  0
    9.9457  -17.1860   23.1163 C   0  0  0  0  0  0  0  0  0  0  0  0
    8.8195  -16.2982   22.7812 C   0  0  0  0  0  0  0  0  0  0  0  0
    8.7602  -14.9462   23.0666 C   0  0  0  0  0  0  0  0  0  0  0  0
    7.5957  -14.4748   22.6164 N   0  0  0  0  0  0  0  0  0  0  0  0
    6.9387  -15.4975   22.0632 C   0  0  0  0  0  0  0  0  0  0  0  0
    7.6673  -16.5983   22.1578 N   0  0  0  0  0  0  0  0  0  0  0  0
   12.4301  -17.2482   23.2497 C   0  0  0  0  0  0  0  0  0  0  0  0
   13.4315  -17.5930   22.3693 O   0  0  0  0  0  0  0  0  0  0  0  0
   12.5475  -17.5749   24.4509 O   0  0  0  0  0  0  0  0  0  0  0  0
  2  1  1  1
  2  4  1  0
  2  3  1  0
  4  5  2  0
  6  4  1  0
  7  6  1  0
  7  8  1  1
  9  8  1  0
 10  9  1  0
 10 14  1  0
 11 10  2  0
 12  7  1  0
 13 12  2  0
 15 12  1  0
 16 17  1  6
 16 15  1  0
 17 18  1  0
 18 22  1  0
 19 18  2  0
 19 20  1  0
 20 21  1  0
 22 21  2  0
 23 16  1  0
 24 23  1  0
 25 23  2  0
M  END
$$$$
