AEH.pdb
     RDKit          3D

 25 25  0  0  1  0  0  0  0  0999 V2000
    7.6996  -17.7558   15.6184 C   0  0  0  0  0  0  0  0  0  0  0  0
    8.9104  -16.9048   16.0126 C   0  0  2  0  0  0  0  0  0  0  0  0
    9.9841  -17.2267   15.1175 N   0  0  0  0  0  0  0  0  0  0  0  0
    9.2729  -17.2105   17.4097 C   0  0  0  0  0  0  0  0  0  0  0  0
    8.4351  -16.9963   18.3287 O   0  0  0  0  0  0  0  0  0  0  0  0
   10.5444  -17.7390   17.7290 N   0  0  0  0  0  0  0  0  0  0  0  0
   10.8872  -18.2244   19.0721 C   0  0  1  0  0  0  0  0  0  0  0  0
   12.1355  -19.0304   19.0509 C   0  0  0  0  0  0  0  0  0  0  0  0
   13.2684  -18.2796   18.4555 C   0  0  0  0  0  0  0  0  0  0  0  0
   14.4987  -19.1608   18.3325 C   0  0  0  0  0  0  0  0  0  0  0  0
   14.5228  -19.8988   17.3151 O   0  0  0  0  0  0  0  0  0  0  0  0
   10.9901  -17.0703   20.0053 C   0  0  0  0  0  0  0  0  0  0  0  0
   11.8305  -16.1544   19.9440 O   0  0  0  0  0  0  0  0  0  0  0  0
   15.4953  -19.1383   19.2697 O   0  0  0  0  0  0  0  0  0  0  0  0
   10.0594  -16.9450   21.1023 N   0  0  0  0  0  0  0  0  0  0  0  0
   10.0549  -15.7562   21.9554 C   0  0  1  0  0  0  0  0  0  0  0  0
    8.6994  -15.1319   22.0130 C   0  0  0  0  0  0  0  0  0  0  0  0
    8.4098  -14.4428   20.7440 C   0  0  0  0  0  0  0  0  0  0  0  0
    9.2805  -14.3480   19.6736 C   0  0  0  0  0  0  0  0  0  0  0  0
    8.6779  -13.6555   18.7049 N   0  0  0  0  0  0  0  0  0  0  0  0
    7.4633  -13.3225   19.1493 C   0  0  0  0  0  0  0  0  0  0  0  0
    7.2934  -13.7919   20.3750 N   0  0  0  0  0  0  0  0  0  0  0  0
   10.5874  -16.1590   23.2677 C   0  0  0  0  0  0  0  0  0  0  0  0
   10.8906  -15.2232   24.2316 O   0  0  0  0  0  0  0  0  0  0  0  0
   10.7734  -17.3683   23.5250 O   0  0  0  0  0  0  0  0  0  0  0  0
  2  1  1  6
  2  4  1  0
  2  3  1  0
  4  5  2  0
  6  4  1  0
  7  6  1  0
  7  8  1  6
  9  8  1  0
 10  9  1  0
 10 14  1  0
 11 10  2  0
 12  7  1  0
 13 12  2  0
 15 12  1  0
 16 17  1  1
 16 15  1  0
 17 18  1  0
 18 22  1  0
 19 18  2  0
 19 20  1  0
 20 21  1  0
 22 21  2  0
 23 16  1  0
 24 23  1  0
 25 23  2  0
M  END
$$$$
