AEH.pdb
     RDKit          3D

 25 25  0  0  1  0  0  0  0  0999 V2000
    8.2578  -12.2807   19.5990 C   0  0  0  0  0  0  0  0  0  0  0  0
    8.7125  -12.9964   18.3236 C   0  0  2  0  0  0  0  0  0  0  0  0
    7.5481  -13.5376   17.6843 N   0  0  0  0  0  0  0  0  0  0  0  0
    9.6631  -14.0638   18.6895 C   0  0  0  0  0  0  0  0  0  0  0  0
    9.2272  -15.2177   18.9555 O   0  0  0  0  0  0  0  0  0  0  0  0
   11.0522  -13.8087   18.7450 N   0  0  0  0  0  0  0  0  0  0  0  0
   12.0419  -14.8607   19.0116 C   0  0  1  0  0  0  0  0  0  0  0  0
   13.3229  -14.5846   18.3108 C   0  0  0  0  0  0  0  0  0  0  0  0
   14.3050  -15.6803   18.5018 C   0  0  0  0  0  0  0  0  0  0  0  0
   15.5993  -15.3837   17.7656 C   0  0  0  0  0  0  0  0  0  0  0  0
   16.6268  -15.9054   18.2681 O   0  0  0  0  0  0  0  0  0  0  0  0
   12.2341  -15.0003   20.4802 C   0  0  0  0  0  0  0  0  0  0  0  0
   12.6343  -14.1100   21.2522 O   0  0  0  0  0  0  0  0  0  0  0  0
   15.6241  -14.6045   16.6412 O   0  0  0  0  0  0  0  0  0  0  0  0
   11.9473  -16.2585   21.1284 N   0  0  0  0  0  0  0  0  0  0  0  0
   12.0919  -16.4109   22.5765 C   0  0  1  0  0  0  0  0  0  0  0  0
   10.9953  -17.2480   23.1485 C   0  0  0  0  0  0  0  0  0  0  0  0
    9.7083  -16.5430   23.0235 C   0  0  0  0  0  0  0  0  0  0  0  0
    9.5506  -15.1690   23.0248 C   0  0  0  0  0  0  0  0  0  0  0  0
    8.2506  -14.8975   22.8928 N   0  0  0  0  0  0  0  0  0  0  0  0
    7.6060  -16.0643   22.8106 C   0  0  0  0  0  0  0  0  0  0  0  0
    8.4750  -17.0595   22.8883 N   0  0  0  0  0  0  0  0  0  0  0  0
   13.4436  -16.9383   22.8267 C   0  0  0  0  0  0  0  0  0  0  0  0
   13.9106  -17.1225   24.1092 O   0  0  0  0  0  0  0  0  0  0  0  0
   14.1918  -17.2274   21.8677 O   0  0  0  0  0  0  0  0  0  0  0  0
  2  1  1  1
  2  4  1  0
  2  3  1  0
  4  5  2  0
  6  4  1  0
  7  6  1  0
  7  8  1  6
  9  8  1  0
 10  9  1  0
 10 14  1  0
 11 10  2  0
 12  7  1  0
 13 12  2  0
 15 12  1  0
 16 17  1  6
 16 15  1  0
 17 18  1  0
 18 22  1  0
 19 18  2  0
 19 20  1  0
 20 21  1  0
 22 21  2  0
 23 16  1  0
 24 23  1  0
 25 23  2  0
M  END
$$$$
