AEH.pdb
     RDKit          3D

 25 25  0  0  1  0  0  0  0  0999 V2000
    8.6880  -13.7361   16.1371 C   0  0  0  0  0  0  0  0  0  0  0  0
    9.6256  -14.7734   15.5121 C   0  0  2  0  0  0  0  0  0  0  0  0
    8.8151  -15.7886   14.9040 N   0  0  0  0  0  0  0  0  0  0  0  0
   10.4824  -15.3402   16.5711 C   0  0  0  0  0  0  0  0  0  0  0  0
   10.1076  -16.3785   17.1824 O   0  0  0  0  0  0  0  0  0  0  0  0
   11.7147  -14.7348   16.9072 N   0  0  0  0  0  0  0  0  0  0  0  0
   12.6283  -15.2986   17.9095 C   0  0  1  0  0  0  0  0  0  0  0  0
   14.0420  -14.9631   17.5984 C   0  0  0  0  0  0  0  0  0  0  0  0
   14.6564  -15.9538   16.6803 C   0  0  0  0  0  0  0  0  0  0  0  0
   16.1526  -15.7262   16.5585 C   0  0  0  0  0  0  0  0  0  0  0  0
   16.6319  -15.9499   15.4181 O   0  0  0  0  0  0  0  0  0  0  0  0
   12.2327  -14.8249   19.2632 C   0  0  0  0  0  0  0  0  0  0  0  0
   12.4708  -13.7012   19.7421 O   0  0  0  0  0  0  0  0  0  0  0  0
   16.9049  -15.3087   17.6224 O   0  0  0  0  0  0  0  0  0  0  0  0
   11.5045  -15.7021   20.1496 N   0  0  0  0  0  0  0  0  0  0  0  0
   11.0556  -15.2424   21.4642 C   0  0  1  0  0  0  0  0  0  0  0  0
    9.5724  -15.3499   21.6020 C   0  0  0  0  0  0  0  0  0  0  0  0
    8.9138  -14.3834   20.7069 C   0  0  0  0  0  0  0  0  0  0  0  0
    9.5670  -13.4308   19.9462 C   0  0  0  0  0  0  0  0  0  0  0  0
    8.6507  -12.7400   19.2648 N   0  0  0  0  0  0  0  0  0  0  0  0
    7.4546  -13.2406   19.5849 C   0  0  0  0  0  0  0  0  0  0  0  0
    7.6033  -14.2296   20.4518 N   0  0  0  0  0  0  0  0  0  0  0  0
   11.8098  -16.0043   22.4736 C   0  0  0  0  0  0  0  0  0  0  0  0
   11.6946  -15.7176   23.8157 O   0  0  0  0  0  0  0  0  0  0  0  0
   12.5726  -16.9298   22.1204 O   0  0  0  0  0  0  0  0  0  0  0  0
  2  1  1  1
  2  4  1  0
  2  3  1  0
  4  5  2  0
  6  4  1  0
  7  6  1  0
  7  8  1  6
  9  8  1  0
 10  9  1  0
 10 14  1  0
 11 10  2  0
 12  7  1  0
 13 12  2  0
 15 12  1  0
 16 17  1  1
 16 15  1  0
 17 18  1  0
 18 22  1  0
 19 18  2  0
 19 20  1  0
 20 21  1  0
 22 21  2  0
 23 16  1  0
 24 23  1  0
 25 23  2  0
M  END
$$$$
