AEH.pdb
     RDKit          3D

 25 25  0  0  1  0  0  0  0  0999 V2000
    7.8002  -12.5310   19.5772 C   0  0  0  0  0  0  0  0  0  0  0  0
    8.3792  -13.7028   18.7789 C   0  0  2  0  0  0  0  0  0  0  0  0
    7.3873  -14.1218   17.8312 N   0  0  0  0  0  0  0  0  0  0  0  0
    8.7176  -14.7941   19.7124 C   0  0  0  0  0  0  0  0  0  0  0  0
    7.9914  -15.8253   19.7501 O   0  0  0  0  0  0  0  0  0  0  0  0
    9.8430  -14.6973   20.5622 N   0  0  0  0  0  0  0  0  0  0  0  0
   10.3761  -15.8458   21.3064 C   0  0  1  0  0  0  0  0  0  0  0  0
   11.5959  -16.3899   20.6551 C   0  0  0  0  0  0  0  0  0  0  0  0
   12.0837  -17.6169   21.3320 C   0  0  0  0  0  0  0  0  0  0  0  0
   13.3587  -18.1248   20.6825 C   0  0  0  0  0  0  0  0  0  0  0  0
   14.4229  -17.7122   21.2092 O   0  0  0  0  0  0  0  0  0  0  0  0
   10.6335  -15.4469   22.7164 C   0  0  0  0  0  0  0  0  0  0  0  0
   10.9599  -14.3109   23.1059 O   0  0  0  0  0  0  0  0  0  0  0  0
   13.3297  -18.9680   19.6054 O   0  0  0  0  0  0  0  0  0  0  0  0
   10.5098  -16.4211   23.7752 N   0  0  0  0  0  0  0  0  0  0  0  0
    9.5419  -16.2398   24.8574 C   0  0  1  0  0  0  0  0  0  0  0  0
    8.1778  -15.9459   24.3250 C   0  0  0  0  0  0  0  0  0  0  0  0
    7.6797  -14.6810   24.8912 C   0  0  0  0  0  0  0  0  0  0  0  0
    8.3778  -13.8737   25.7709 C   0  0  0  0  0  0  0  0  0  0  0  0
    7.6149  -12.8191   26.0656 N   0  0  0  0  0  0  0  0  0  0  0  0
    6.4693  -12.9554   25.3928 C   0  0  0  0  0  0  0  0  0  0  0  0
    6.4995  -14.0725   24.6838 N   0  0  0  0  0  0  0  0  0  0  0  0
    9.6094  -17.4394   25.7085 C   0  0  0  0  0  0  0  0  0  0  0  0
    9.5338  -17.3451   27.0804 O   0  0  0  0  0  0  0  0  0  0  0  0
    9.7385  -18.5699   25.1903 O   0  0  0  0  0  0  0  0  0  0  0  0
  2  1  1  1
  2  4  1  0
  2  3  1  0
  4  5  2  0
  6  4  1  0
  7  6  1  0
  7  8  1  6
  9  8  1  0
 10  9  1  0
 10 14  1  0
 11 10  2  0
 12  7  1  0
 13 12  2  0
 15 12  1  0
 16 17  1  6
 16 15  1  0
 17 18  1  0
 18 22  1  0
 19 18  2  0
 19 20  1  0
 20 21  1  0
 22 21  2  0
 23 16  1  0
 24 23  1  0
 25 23  2  0
M  END
$$$$
