AEH.pdb
     RDKit          3D

 25 25  0  0  1  0  0  0  0  0999 V2000
    8.2365  -12.4044   19.3229 C   0  0  0  0  0  0  0  0  0  0  0  0
    8.3967  -13.8304   18.7878 C   0  0  2  0  0  0  0  0  0  0  0  0
    7.2128  -14.1575   18.0469 N   0  0  0  0  0  0  0  0  0  0  0  0
    8.5816  -14.7488   19.9276 C   0  0  0  0  0  0  0  0  0  0  0  0
    7.5909  -15.0486   20.6493 O   0  0  0  0  0  0  0  0  0  0  0  0
    9.8524  -15.2948   20.2190 N   0  0  0  0  0  0  0  0  0  0  0  0
   10.0661  -16.2821   21.2852 C   0  0  1  0  0  0  0  0  0  0  0  0
   11.3135  -17.0572   21.0589 C   0  0  0  0  0  0  0  0  0  0  0  0
   11.4823  -18.1384   22.0611 C   0  0  0  0  0  0  0  0  0  0  0  0
   12.7566  -18.9228   21.8040 C   0  0  0  0  0  0  0  0  0  0  0  0
   12.8222  -19.4728   20.6755 O   0  0  0  0  0  0  0  0  0  0  0  0
   10.0745  -15.5937   22.6041 C   0  0  0  0  0  0  0  0  0  0  0  0
   10.7847  -14.6202   22.9151 O   0  0  0  0  0  0  0  0  0  0  0  0
   13.7473  -19.0121   22.7434 O   0  0  0  0  0  0  0  0  0  0  0  0
    9.2021  -16.0495   23.6607 N   0  0  0  0  0  0  0  0  0  0  0  0
    8.8150  -15.1594   24.7557 C   0  0  1  0  0  0  0  0  0  0  0  0
    7.3796  -14.7601   24.6519 C   0  0  0  0  0  0  0  0  0  0  0  0
    7.0451  -13.8067   25.7234 C   0  0  0  0  0  0  0  0  0  0  0  0
    7.9423  -13.2996   26.6456 C   0  0  0  0  0  0  0  0  0  0  0  0
    7.2834  -12.4701   27.4573 N   0  0  0  0  0  0  0  0  0  0  0  0
    6.0083  -12.4533   27.0603 C   0  0  0  0  0  0  0  0  0  0  0  0
    5.8558  -13.2545   26.0180 N   0  0  0  0  0  0  0  0  0  0  0  0
    9.1599  -15.8408   26.0145 C   0  0  0  0  0  0  0  0  0  0  0  0
    9.2842  -15.1399   27.1935 O   0  0  0  0  0  0  0  0  0  0  0  0
    9.3469  -17.0770   26.0279 O   0  0  0  0  0  0  0  0  0  0  0  0
  2  1  1  1
  2  4  1  0
  2  3  1  0
  4  5  2  0
  6  4  1  0
  7  6  1  0
  7  8  1  6
  9  8  1  0
 10  9  1  0
 10 14  1  0
 11 10  2  0
 12  7  1  0
 13 12  2  0
 15 12  1  0
 16 17  1  1
 16 15  1  0
 17 18  1  0
 18 22  1  0
 19 18  2  0
 19 20  1  0
 20 21  1  0
 22 21  2  0
 23 16  1  0
 24 23  1  0
 25 23  2  0
M  END
$$$$
