NKW.pdb
     RDKit          3D

 32 33  0  0  1  0  0  0  0  0999 V2000
   29.4077  -23.5254  -17.4596 N   0  0  0  0  0  0  0  0  0  0  0  0
   30.0262  -22.8852  -16.3529 C   0  0  0  0  0  0  0  0  0  0  0  0
   31.1727  -23.2661  -16.0255 O   0  0  0  0  0  0  0  0  0  0  0  0
   29.3802  -21.8031  -15.5829 C   0  0  0  0  0  0  0  0  0  0  0  0
   27.9668  -21.6518  -16.0417 C   0  0  2  0  0  0  0  0  0  0  0  0
   27.9678  -21.0013  -17.3410 N   0  0  0  0  0  0  0  0  0  0  0  0
   27.1334  -20.8854  -15.0649 C   0  0  0  0  0  0  0  0  0  0  0  0
   26.9118  -19.6567  -15.2246 O   0  0  0  0  0  0  0  0  0  0  0  0
   26.5608  -21.5037  -13.9251 N   0  0  0  0  0  0  0  0  0  0  0  0
   25.4285  -20.9315  -13.1870 C   0  0  1  0  0  0  0  0  0  0  0  0
   24.1275  -21.3504  -13.7983 C   0  0  0  0  0  0  0  0  0  0  0  0
   22.8954  -20.8531  -13.1366 C   0  0  0  0  0  0  0  0  0  0  0  0
   22.2832  -19.7548  -13.9886 C   0  0  0  0  0  0  0  0  0  0  0  0
   21.2232  -19.0827  -13.1380 C   0  0  0  0  0  0  0  0  0  0  0  0
   20.1184  -20.0222  -13.0343 N   0  0  0  0  0  0  0  0  0  0  0  0
   25.4743  -21.3646  -11.7673 C   0  0  0  0  0  0  0  0  0  0  0  0
   25.3940  -22.5876  -11.5130 O   0  0  0  0  0  0  0  0  0  0  0  0
   25.6027  -20.4792  -10.6892 N   0  0  0  0  0  0  0  0  0  0  0  0
   25.5910  -20.9462   -9.3098 C   0  0  1  0  0  0  0  0  0  0  0  0
   26.0710  -19.8694   -8.3854 C   0  0  0  0  0  0  0  0  0  0  0  0
   27.4309  -20.1212   -7.9026 C   0  0  0  0  0  0  0  0  0  0  0  0
   28.4449  -20.7550   -8.6351 C   0  0  0  0  0  0  0  0  0  0  0  0
   29.5510  -20.8632   -7.8808 N   0  0  0  0  0  0  0  0  0  0  0  0
   29.3214  -20.3310   -6.6820 C   0  0  0  0  0  0  0  0  0  0  0  0
   30.1476  -20.1860   -5.5780 C   0  0  0  0  0  0  0  0  0  0  0  0
   29.6809  -19.5673   -4.4385 C   0  0  0  0  0  0  0  0  0  0  0  0
   28.3645  -19.0974   -4.4339 C   0  0  0  0  0  0  0  0  0  0  0  0
   27.5469  -19.2438   -5.5317 C   0  0  0  0  0  0  0  0  0  0  0  0
   28.0239  -19.8658   -6.6672 C   0  0  0  0  0  0  0  0  0  0  0  0
   24.3107  -21.5060   -8.8959 C   0  0  0  0  0  0  0  0  0  0  0  0
   24.2065  -22.2693   -7.8692 O   0  0  0  0  0  0  0  0  0  0  0  0
   23.1089  -21.2680   -9.5501 O   0  0  0  0  0  0  0  0  0  0  0  0
  1  2  1  0
  2  3  2  0
  4  5  1  0
  4  2  1  0
  5  6  1  6
  7  5  1  0
  7  8  2  0
  9  7  1  0
 10  9  1  0
 10 11  1  6
 12 11  1  0
 12 13  1  0
 13 14  1  0
 15 14  1  0
 16 10  1  0
 17 16  2  0
 18 16  1  0
 19 30  1  0
 19 18  1  0
 20 21  1  0
 19 20  1  1
 21 22  2  0
 21 29  1  0
 22 23  1  0
 23 24  1  0
 24 25  2  0
 26 25  1  0
 27 26  2  0
 28 29  2  0
 28 27  1  0
 29 24  1  0
 30 32  1  0
 31 30  2  0
M  END
$$$$
