NKW.pdb
     RDKit          3D

 32 33  0  0  1  0  0  0  0  0999 V2000
   38.5398  -27.5449  -19.3495 N   0  0  0  0  0  0  0  0  0  0  0  0
   37.1967  -27.9921  -19.4644 C   0  0  0  0  0  0  0  0  0  0  0  0
   36.7006  -28.0582  -20.6117 O   0  0  0  0  0  0  0  0  0  0  0  0
   36.3725  -28.3772  -18.3009 C   0  0  0  0  0  0  0  0  0  0  0  0
   34.9889  -28.6959  -18.7647 C   0  0  2  0  0  0  0  0  0  0  0  0
   34.0429  -27.9621  -17.9413 N   0  0  0  0  0  0  0  0  0  0  0  0
   34.7019  -30.1629  -18.7240 C   0  0  0  0  0  0  0  0  0  0  0  0
   34.5330  -30.8207  -19.7838 O   0  0  0  0  0  0  0  0  0  0  0  0
   34.6082  -30.8717  -17.5001 N   0  0  0  0  0  0  0  0  0  0  0  0
   34.2478  -32.2924  -17.4225 C   0  0  1  0  0  0  0  0  0  0  0  0
   35.2981  -33.0695  -16.6913 C   0  0  0  0  0  0  0  0  0  0  0  0
   36.5714  -33.3055  -17.4168 C   0  0  0  0  0  0  0  0  0  0  0  0
   37.4648  -34.1987  -16.5736 C   0  0  0  0  0  0  0  0  0  0  0  0
   38.6750  -34.5326  -17.4238 C   0  0  0  0  0  0  0  0  0  0  0  0
   39.5299  -35.3828  -16.6113 N   0  0  0  0  0  0  0  0  0  0  0  0
   32.9415  -32.4501  -16.7340 C   0  0  0  0  0  0  0  0  0  0  0  0
   32.7705  -31.8710  -15.6376 O   0  0  0  0  0  0  0  0  0  0  0  0
   31.8830  -33.2139  -17.2426 N   0  0  0  0  0  0  0  0  0  0  0  0
   30.5849  -33.2574  -16.5837 C   0  0  1  0  0  0  0  0  0  0  0  0
   30.0630  -31.8716  -16.3570 C   0  0  0  0  0  0  0  0  0  0  0  0
   28.7699  -31.8736  -15.6688 C   0  0  0  0  0  0  0  0  0  0  0  0
   28.5854  -32.0834  -14.2946 C   0  0  0  0  0  0  0  0  0  0  0  0
   27.2742  -32.0647  -14.0038 N   0  0  0  0  0  0  0  0  0  0  0  0
   26.5779  -31.8518  -15.1187 C   0  0  0  0  0  0  0  0  0  0  0  0
   25.2129  -31.7299  -15.3291 C   0  0  0  0  0  0  0  0  0  0  0  0
   24.7252  -31.4811  -16.5938 C   0  0  0  0  0  0  0  0  0  0  0  0
   25.6410  -31.3574  -17.6424 C   0  0  0  0  0  0  0  0  0  0  0  0
   26.9956  -31.4798  -17.4298 C   0  0  0  0  0  0  0  0  0  0  0  0
   27.4732  -31.7299  -16.1598 C   0  0  0  0  0  0  0  0  0  0  0  0
   29.6180  -34.1135  -17.2591 C   0  0  0  0  0  0  0  0  0  0  0  0
   28.5717  -34.5551  -16.6609 O   0  0  0  0  0  0  0  0  0  0  0  0
   29.7274  -34.5177  -18.5833 O   0  0  0  0  0  0  0  0  0  0  0  0
  1  2  1  0
  2  3  2  0
  4  5  1  0
  4  2  1  0
  5  6  1  1
  7  5  1  0
  7  8  2  0
  9  7  1  0
 10  9  1  0
 10 11  1  1
 12 11  1  0
 12 13  1  0
 13 14  1  0
 15 14  1  0
 16 10  1  0
 17 16  2  0
 18 16  1  0
 19 30  1  0
 19 18  1  0
 20 21  1  0
 19 20  1  6
 21 22  2  0
 21 29  1  0
 22 23  1  0
 23 24  1  0
 24 25  2  0
 26 25  1  0
 27 26  2  0
 28 29  2  0
 28 27  1  0
 29 24  1  0
 30 32  1  0
 31 30  2  0
M  END
$$$$
