NKW.pdb
     RDKit          3D

 32 33  0  0  1  0  0  0  0  0999 V2000
   23.6810  -23.9959  -18.5345 N   0  0  0  0  0  0  0  0  0  0  0  0
   23.7798  -24.6772  -17.2923 C   0  0  0  0  0  0  0  0  0  0  0  0
   23.0129  -25.6470  -17.0969 O   0  0  0  0  0  0  0  0  0  0  0  0
   24.7375  -24.2930  -16.2357 C   0  0  0  0  0  0  0  0  0  0  0  0
   25.5001  -23.0880  -16.6803 C   0  0  2  0  0  0  0  0  0  0  0  0
   26.3740  -23.4704  -17.7763 N   0  0  0  0  0  0  0  0  0  0  0  0
   26.2841  -22.4713  -15.5664 C   0  0  0  0  0  0  0  0  0  0  0  0
   27.0989  -23.1531  -14.8914 O   0  0  0  0  0  0  0  0  0  0  0  0
   26.1455  -21.1027  -15.2242 N   0  0  0  0  0  0  0  0  0  0  0  0
   26.8969  -20.4693  -14.1340 C   0  0  1  0  0  0  0  0  0  0  0  0
   26.9696  -18.9865  -14.3280 C   0  0  0  0  0  0  0  0  0  0  0  0
   28.2720  -18.4426  -14.7875 C   0  0  0  0  0  0  0  0  0  0  0  0
   28.3009  -18.4401  -16.3061 C   0  0  0  0  0  0  0  0  0  0  0  0
   29.6509  -17.8848  -16.7158 C   0  0  0  0  0  0  0  0  0  0  0  0
   29.6677  -17.8679  -18.1695 N   0  0  0  0  0  0  0  0  0  0  0  0
   26.2539  -20.7703  -12.8296 C   0  0  0  0  0  0  0  0  0  0  0  0
   25.0084  -20.6807  -12.7430 O   0  0  0  0  0  0  0  0  0  0  0  0
   26.9639  -21.1505  -11.6834 N   0  0  0  0  0  0  0  0  0  0  0  0
   26.3172  -21.2567  -10.3827 C   0  0  1  0  0  0  0  0  0  0  0  0
   27.3268  -21.5497   -9.3154 C   0  0  0  0  0  0  0  0  0  0  0  0
   27.3568  -20.5111   -8.2828 C   0  0  0  0  0  0  0  0  0  0  0  0
   26.3930  -19.5058   -8.1187 C   0  0  0  0  0  0  0  0  0  0  0  0
   26.7485  -18.6958   -7.1079 N   0  0  0  0  0  0  0  0  0  0  0  0
   27.9020  -19.1149   -6.5913 C   0  0  0  0  0  0  0  0  0  0  0  0
   28.6548  -18.6283   -5.5335 C   0  0  0  0  0  0  0  0  0  0  0  0
   29.8227  -19.2602   -5.1645 C   0  0  0  0  0  0  0  0  0  0  0  0
   30.2166  -20.3926   -5.8831 C   0  0  0  0  0  0  0  0  0  0  0  0
   29.4669  -20.8723   -6.9332 C   0  0  0  0  0  0  0  0  0  0  0  0
   28.2997  -20.2315   -7.2951 C   0  0  0  0  0  0  0  0  0  0  0  0
   25.4767  -20.1121  -10.0557 C   0  0  0  0  0  0  0  0  0  0  0  0
   24.4449  -20.2245   -9.3005 O   0  0  0  0  0  0  0  0  0  0  0  0
   25.7087  -18.8205  -10.5107 O   0  0  0  0  0  0  0  0  0  0  0  0
  1  2  1  0
  2  3  2  0
  4  5  1  0
  4  2  1  0
  5  6  1  6
  7  5  1  0
  7  8  2  0
  9  7  1  0
 10  9  1  0
 10 11  1  6
 12 11  1  0
 12 13  1  0
 13 14  1  0
 15 14  1  0
 16 10  1  0
 17 16  2  0
 18 16  1  0
 19 30  1  0
 19 18  1  0
 20 21  1  0
 19 20  1  1
 21 22  2  0
 21 29  1  0
 22 23  1  0
 23 24  1  0
 24 25  2  0
 26 25  1  0
 27 26  2  0
 28 29  2  0
 28 27  1  0
 29 24  1  0
 30 32  1  0
 31 30  2  0
M  END
$$$$
