NKW.pdb
     RDKit          3D

 32 33  0  0  1  0  0  0  0  0999 V2000
   19.4439  -14.1352  -14.8491 N   0  0  0  0  0  0  0  0  0  0  0  0
   19.5785  -13.8915  -16.2418 C   0  0  0  0  0  0  0  0  0  0  0  0
   19.5388  -14.8770  -17.0124 O   0  0  0  0  0  0  0  0  0  0  0  0
   19.7612  -12.5406  -16.8102 C   0  0  0  0  0  0  0  0  0  0  0  0
   19.2994  -11.5248  -15.8172 C   0  0  2  0  0  0  0  0  0  0  0  0
   17.8569  -11.6325  -15.6798 N   0  0  0  0  0  0  0  0  0  0  0  0
   19.6936  -10.1351  -16.2038 C   0  0  0  0  0  0  0  0  0  0  0  0
   20.9010   -9.8305  -16.3875 O   0  0  0  0  0  0  0  0  0  0  0  0
   18.7328   -9.1078  -16.3792 N   0  0  0  0  0  0  0  0  0  0  0  0
   19.0923   -7.7189  -16.6888 C   0  0  1  0  0  0  0  0  0  0  0  0
   17.8933   -6.9472  -17.1457 C   0  0  0  0  0  0  0  0  0  0  0  0
   18.1226   -5.5292  -17.5198 C   0  0  0  0  0  0  0  0  0  0  0  0
   16.8156   -4.9264  -18.0050 C   0  0  0  0  0  0  0  0  0  0  0  0
   17.0951   -3.4681  -18.3115 C   0  0  0  0  0  0  0  0  0  0  0  0
   15.8134   -2.8583  -18.6269 N   0  0  0  0  0  0  0  0  0  0  0  0
   19.6790   -7.0652  -15.4914 C   0  0  0  0  0  0  0  0  0  0  0  0
   19.0615   -7.1433  -14.4054 O   0  0  0  0  0  0  0  0  0  0  0  0
   20.8903   -6.3616  -15.5062 N   0  0  0  0  0  0  0  0  0  0  0  0
   21.3901   -5.6734  -14.3239 C   0  0  1  0  0  0  0  0  0  0  0  0
   22.4167   -6.5095  -13.6228 C   0  0  0  0  0  0  0  0  0  0  0  0
   23.5321   -6.8677  -14.5021 C   0  0  0  0  0  0  0  0  0  0  0  0
   24.2148   -5.9793  -15.3454 C   0  0  0  0  0  0  0  0  0  0  0  0
   25.1501   -6.6435  -16.0441 N   0  0  0  0  0  0  0  0  0  0  0  0
   25.1227   -7.9309  -15.7053 C   0  0  0  0  0  0  0  0  0  0  0  0
   25.8972   -8.9997  -16.1298 C   0  0  0  0  0  0  0  0  0  0  0  0
   25.6921  -10.2572  -15.6045 C   0  0  0  0  0  0  0  0  0  0  0  0
   24.6906  -10.4159  -14.6425 C   0  0  0  0  0  0  0  0  0  0  0  0
   23.9231   -9.3525  -14.2239 C   0  0  0  0  0  0  0  0  0  0  0  0
   24.1361   -8.0978  -14.7571 C   0  0  0  0  0  0  0  0  0  0  0  0
   21.8623   -4.3214  -14.5938 C   0  0  0  0  0  0  0  0  0  0  0  0
   21.9388   -3.8575  -15.7881 O   0  0  0  0  0  0  0  0  0  0  0  0
   22.2574   -3.4239  -13.6102 O   0  0  0  0  0  0  0  0  0  0  0  0
  1  2  1  0
  2  3  2  0
  4  5  1  0
  4  2  1  0
  5  6  1  6
  7  5  1  0
  7  8  2  0
  9  7  1  0
 10  9  1  0
 10 11  1  1
 12 11  1  0
 12 13  1  0
 13 14  1  0
 15 14  1  0
 16 10  1  0
 17 16  2  0
 18 16  1  0
 19 30  1  0
 19 18  1  0
 20 21  1  0
 19 20  1  6
 21 22  2  0
 21 29  1  0
 22 23  1  0
 23 24  1  0
 24 25  2  0
 26 25  1  0
 27 26  2  0
 28 29  2  0
 28 27  1  0
 29 24  1  0
 30 32  1  0
 31 30  2  0
M  END
$$$$
