NKW.pdb
     RDKit          3D

 32 33  0  0  1  0  0  0  0  0999 V2000
   30.2865  -24.3811  -17.6603 N   0  0  0  0  0  0  0  0  0  0  0  0
   30.8206  -23.0770  -17.4837 C   0  0  0  0  0  0  0  0  0  0  0  0
   31.9656  -22.8501  -17.9356 O   0  0  0  0  0  0  0  0  0  0  0  0
   30.0899  -21.9922  -16.7978 C   0  0  0  0  0  0  0  0  0  0  0  0
   28.8487  -22.5507  -16.1822 C   0  0  2  0  0  0  0  0  0  0  0  0
   27.8791  -22.7980  -17.2357 N   0  0  0  0  0  0  0  0  0  0  0  0
   28.2783  -21.6457  -15.1374 C   0  0  0  0  0  0  0  0  0  0  0  0
   29.0114  -21.1355  -14.2504 O   0  0  0  0  0  0  0  0  0  0  0  0
   26.8981  -21.3249  -15.1001 N   0  0  0  0  0  0  0  0  0  0  0  0
   26.3168  -20.3994  -14.1204 C   0  0  1  0  0  0  0  0  0  0  0  0
   25.0664  -19.7733  -14.6553 C   0  0  0  0  0  0  0  0  0  0  0  0
   24.3198  -18.8888  -13.7261 C   0  0  0  0  0  0  0  0  0  0  0  0
   23.0633  -18.3895  -14.4181 C   0  0  0  0  0  0  0  0  0  0  0  0
   22.4567  -17.3348  -13.5133 C   0  0  0  0  0  0  0  0  0  0  0  0
   21.2360  -16.8848  -14.1624 N   0  0  0  0  0  0  0  0  0  0  0  0
   26.0128  -21.1188  -12.8573 C   0  0  0  0  0  0  0  0  0  0  0  0
   25.3878  -22.2015  -12.9222 O   0  0  0  0  0  0  0  0  0  0  0  0
   26.3865  -20.6540  -11.5897 N   0  0  0  0  0  0  0  0  0  0  0  0
   26.0763  -21.4010  -10.3785 C   0  0  1  0  0  0  0  0  0  0  0  0
   27.3104  -21.6016   -9.5532 C   0  0  0  0  0  0  0  0  0  0  0  0
   27.4590  -20.5720   -8.5219 C   0  0  0  0  0  0  0  0  0  0  0  0
   26.6975  -19.3977   -8.4357 C   0  0  0  0  0  0  0  0  0  0  0  0
   27.1220  -18.6555   -7.3998 N   0  0  0  0  0  0  0  0  0  0  0  0
   28.1288  -19.2804   -6.7924 C   0  0  0  0  0  0  0  0  0  0  0  0
   28.8759  -18.9311   -5.6779 C   0  0  0  0  0  0  0  0  0  0  0  0
   29.8673  -19.7699   -5.2164 C   0  0  0  0  0  0  0  0  0  0  0  0
   30.0905  -20.9680   -5.9008 C   0  0  0  0  0  0  0  0  0  0  0  0
   29.3471  -21.3110   -7.0075 C   0  0  0  0  0  0  0  0  0  0  0  0
   28.3576  -20.4635   -7.4618 C   0  0  0  0  0  0  0  0  0  0  0  0
   24.9778  -20.8312   -9.6089 C   0  0  0  0  0  0  0  0  0  0  0  0
   24.5090  -19.6633   -9.8619 O   0  0  0  0  0  0  0  0  0  0  0  0
   24.3423  -21.4824   -8.5596 O   0  0  0  0  0  0  0  0  0  0  0  0
  1  2  1  0
  2  3  2  0
  4  5  1  0
  4  2  1  0
  5  6  1  6
  7  5  1  0
  7  8  2  0
  9  7  1  0
 10  9  1  0
 10 11  1  6
 12 11  1  0
 12 13  1  0
 13 14  1  0
 15 14  1  0
 16 10  1  0
 17 16  2  0
 18 16  1  0
 19 30  1  0
 19 18  1  0
 20 21  1  0
 19 20  1  1
 21 22  2  0
 21 29  1  0
 22 23  1  0
 23 24  1  0
 24 25  2  0
 26 25  1  0
 27 26  2  0
 28 29  2  0
 28 27  1  0
 29 24  1  0
 30 32  1  0
 31 30  2  0
M  END
$$$$
