NKW.pdb
     RDKit          3D

 32 33  0  0  1  0  0  0  0  0999 V2000
   15.7669  -21.1933  -13.7594 N   0  0  0  0  0  0  0  0  0  0  0  0
   17.0741  -21.6167  -14.1186 C   0  0  0  0  0  0  0  0  0  0  0  0
   17.3897  -21.5699  -15.3289 O   0  0  0  0  0  0  0  0  0  0  0  0
   18.0628  -22.1036  -13.1355 C   0  0  0  0  0  0  0  0  0  0  0  0
   18.6928  -23.3552  -13.6530 C   0  0  2  0  0  0  0  0  0  0  0  0
   18.0263  -24.4951  -13.0468 N   0  0  0  0  0  0  0  0  0  0  0  0
   20.1642  -23.3989  -13.3902 C   0  0  0  0  0  0  0  0  0  0  0  0
   20.6106  -23.5611  -12.2245 O   0  0  0  0  0  0  0  0  0  0  0  0
   21.1136  -23.2610  -14.4337 N   0  0  0  0  0  0  0  0  0  0  0  0
   22.5617  -23.2149  -14.1986 C   0  0  1  0  0  0  0  0  0  0  0  0
   23.3094  -23.7795  -15.3665 C   0  0  0  0  0  0  0  0  0  0  0  0
   24.7907  -23.7632  -15.2738 C   0  0  0  0  0  0  0  0  0  0  0  0
   25.3730  -24.4085  -16.5194 C   0  0  0  0  0  0  0  0  0  0  0  0
   26.2111  -25.5821  -16.0515 C   0  0  0  0  0  0  0  0  0  0  0  0
   26.7185  -26.2320  -17.2491 N   0  0  0  0  0  0  0  0  0  0  0  0
   22.9949  -21.8148  -13.9592 C   0  0  0  0  0  0  0  0  0  0  0  0
   22.5873  -20.9222  -14.7364 O   0  0  0  0  0  0  0  0  0  0  0  0
   23.8385  -21.4321  -12.9083 N   0  0  0  0  0  0  0  0  0  0  0  0
   24.2492  -20.0472  -12.7220 C   0  0  1  0  0  0  0  0  0  0  0  0
   25.1626  -19.9233  -11.5411 C   0  0  0  0  0  0  0  0  0  0  0  0
   26.5697  -19.8318  -11.9378 C   0  0  0  0  0  0  0  0  0  0  0  0
   27.0692  -19.0179  -12.9646 C   0  0  0  0  0  0  0  0  0  0  0  0
   28.3926  -19.2086  -13.0930 N   0  0  0  0  0  0  0  0  0  0  0  0
   28.7972  -20.1099  -12.2003 C   0  0  0  0  0  0  0  0  0  0  0  0
   30.0580  -20.6195  -11.9298 C   0  0  0  0  0  0  0  0  0  0  0  0
   30.2317  -21.5421  -10.9208 C   0  0  0  0  0  0  0  0  0  0  0  0
   29.1091  -21.9408  -10.1898 C   0  0  0  0  0  0  0  0  0  0  0  0
   27.8587  -21.4332  -10.4618 C   0  0  0  0  0  0  0  0  0  0  0  0
   27.6957  -20.5107  -11.4748 C   0  0  0  0  0  0  0  0  0  0  0  0
   24.8060  -19.4389  -13.9235 C   0  0  0  0  0  0  0  0  0  0  0  0
   25.5419  -20.1029  -14.7390 O   0  0  0  0  0  0  0  0  0  0  0  0
   24.5939  -18.1182  -14.2975 O   0  0  0  0  0  0  0  0  0  0  0  0
  1  2  1  0
  2  3  2  0
  4  5  1  0
  4  2  1  0
  5  6  1  1
  7  5  1  0
  7  8  2  0
  9  7  1  0
 10  9  1  0
 10 11  1  6
 12 11  1  0
 12 13  1  0
 13 14  1  0
 15 14  1  0
 16 10  1  0
 17 16  2  0
 18 16  1  0
 19 30  1  0
 19 18  1  0
 20 21  1  0
 19 20  1  1
 21 22  2  0
 21 29  1  0
 22 23  1  0
 23 24  1  0
 24 25  2  0
 26 25  1  0
 27 26  2  0
 28 29  2  0
 28 27  1  0
 29 24  1  0
 30 32  1  0
 31 30  2  0
M  END
$$$$
