NKW.pdb
     RDKit          3D

 32 33  0  0  1  0  0  0  0  0999 V2000
   20.5451  -26.1538  -15.1497 N   0  0  0  0  0  0  0  0  0  0  0  0
   21.3778  -25.0108  -15.0185 C   0  0  0  0  0  0  0  0  0  0  0  0
   20.9825  -23.9398  -15.5317 O   0  0  0  0  0  0  0  0  0  0  0  0
   22.6739  -25.0342  -14.3108 C   0  0  0  0  0  0  0  0  0  0  0  0
   23.6787  -24.2635  -15.1030 C   0  0  2  0  0  0  0  0  0  0  0  0
   24.1761  -25.1121  -16.1725 N   0  0  0  0  0  0  0  0  0  0  0  0
   24.8042  -23.7623  -14.2557 C   0  0  0  0  0  0  0  0  0  0  0  0
   25.4363  -24.5377  -13.4917 O   0  0  0  0  0  0  0  0  0  0  0  0
   25.2059  -22.4031  -14.2753 N   0  0  0  0  0  0  0  0  0  0  0  0
   26.2724  -21.8703  -13.4191 C   0  0  1  0  0  0  0  0  0  0  0  0
   26.8673  -20.6330  -14.0165 C   0  0  0  0  0  0  0  0  0  0  0  0
   28.0864  -20.1009  -13.3579 C   0  0  0  0  0  0  0  0  0  0  0  0
   29.2456  -21.0464  -13.6213 C   0  0  0  0  0  0  0  0  0  0  0  0
   30.4831  -20.3923  -13.0386 C   0  0  0  0  0  0  0  0  0  0  0  0
   31.5610  -21.3599  -13.1644 N   0  0  0  0  0  0  0  0  0  0  0  0
   25.7364  -21.5636  -12.0685 C   0  0  0  0  0  0  0  0  0  0  0  0
   24.6404  -20.9651  -11.9826 O   0  0  0  0  0  0  0  0  0  0  0  0
   26.3897  -21.9066  -10.8777 N   0  0  0  0  0  0  0  0  0  0  0  0
   25.8797  -21.4917   -9.5781 C   0  0  1  0  0  0  0  0  0  0  0  0
   26.9028  -21.7313   -8.5103 C   0  0  0  0  0  0  0  0  0  0  0  0
   27.1834  -20.5223   -7.7323 C   0  0  0  0  0  0  0  0  0  0  0  0
   26.6383  -19.2548   -7.9828 C   0  0  0  0  0  0  0  0  0  0  0  0
   27.1391  -18.3641   -7.1110 N   0  0  0  0  0  0  0  0  0  0  0  0
   27.9907  -18.9787   -6.2923 C   0  0  0  0  0  0  0  0  0  0  0  0
   28.7357  -18.4973   -5.2267 C   0  0  0  0  0  0  0  0  0  0  0  0
   29.5409  -19.3492   -4.5020 C   0  0  0  0  0  0  0  0  0  0  0  0
   29.5801  -20.6962   -4.8729 C   0  0  0  0  0  0  0  0  0  0  0  0
   28.8396  -21.1704   -5.9320 C   0  0  0  0  0  0  0  0  0  0  0  0
   28.0373  -20.3088   -6.6515 C   0  0  0  0  0  0  0  0  0  0  0  0
   25.3671  -20.1277   -9.5627 C   0  0  0  0  0  0  0  0  0  0  0  0
   25.9920  -19.1638  -10.1355 O   0  0  0  0  0  0  0  0  0  0  0  0
   24.1796  -19.7490   -8.9499 O   0  0  0  0  0  0  0  0  0  0  0  0
  1  2  1  0
  2  3  2  0
  4  5  1  0
  4  2  1  0
  5  6  1  6
  7  5  1  0
  7  8  2  0
  9  7  1  0
 10  9  1  0
 10 11  1  6
 12 11  1  0
 12 13  1  0
 13 14  1  0
 15 14  1  0
 16 10  1  0
 17 16  2  0
 18 16  1  0
 19 30  1  0
 19 18  1  0
 20 21  1  0
 19 20  1  1
 21 22  2  0
 21 29  1  0
 22 23  1  0
 23 24  1  0
 24 25  2  0
 26 25  1  0
 27 26  2  0
 28 29  2  0
 28 27  1  0
 29 24  1  0
 30 32  1  0
 31 30  2  0
M  END
$$$$
