NKW.pdb
     RDKit          3D

 32 33  0  0  1  0  0  0  0  0999 V2000
   23.8837  -15.8883  -17.1259 N   0  0  0  0  0  0  0  0  0  0  0  0
   24.4641  -15.5683  -15.8698 C   0  0  0  0  0  0  0  0  0  0  0  0
   25.0126  -14.4496  -15.7493 O   0  0  0  0  0  0  0  0  0  0  0  0
   24.4472  -16.4895  -14.7155 C   0  0  0  0  0  0  0  0  0  0  0  0
   23.7759  -17.7628  -15.1147 C   0  0  2  0  0  0  0  0  0  0  0  0
   22.3698  -17.4894  -15.3583 N   0  0  0  0  0  0  0  0  0  0  0  0
   23.9378  -18.8351  -14.0852 C   0  0  0  0  0  0  0  0  0  0  0  0
   23.2710  -18.8158  -13.0178 O   0  0  0  0  0  0  0  0  0  0  0  0
   24.8420  -19.9119  -14.2643 N   0  0  0  0  0  0  0  0  0  0  0  0
   25.0341  -20.9713  -13.2668 C   0  0  1  0  0  0  0  0  0  0  0  0
   25.6062  -22.2018  -13.8995 C   0  0  0  0  0  0  0  0  0  0  0  0
   25.3009  -23.4918  -13.2318 C   0  0  0  0  0  0  0  0  0  0  0  0
   23.8597  -23.8726  -13.5234 C   0  0  0  0  0  0  0  0  0  0  0  0
   23.6463  -25.2541  -12.9363 C   0  0  0  0  0  0  0  0  0  0  0  0
   22.2441  -25.5792  -13.1416 N   0  0  0  0  0  0  0  0  0  0  0  0
   25.9395  -20.4983  -12.1889 C   0  0  0  0  0  0  0  0  0  0  0  0
   26.9712  -19.8662  -12.5099 O   0  0  0  0  0  0  0  0  0  0  0  0
   25.7055  -20.7196  -10.8255 N   0  0  0  0  0  0  0  0  0  0  0  0
   26.6752  -20.3329   -9.8099 C   0  0  1  0  0  0  0  0  0  0  0  0
   25.9878  -20.0335   -8.5129 C   0  0  0  0  0  0  0  0  0  0  0  0
   26.9084  -19.4881   -7.5125 C   0  0  0  0  0  0  0  0  0  0  0  0
   27.3869  -18.1702   -7.4871 C   0  0  0  0  0  0  0  0  0  0  0  0
   28.2447  -18.0176   -6.4648 N   0  0  0  0  0  0  0  0  0  0  0  0
   28.3589  -19.1706   -5.8086 C   0  0  0  0  0  0  0  0  0  0  0  0
   29.0984  -19.5084   -4.6855 C   0  0  0  0  0  0  0  0  0  0  0  0
   29.0313  -20.7841   -4.1684 C   0  0  0  0  0  0  0  0  0  0  0  0
   28.2037  -21.7126   -4.8060 C   0  0  0  0  0  0  0  0  0  0  0  0
   27.4714  -21.3738   -5.9214 C   0  0  0  0  0  0  0  0  0  0  0  0
   27.5467  -20.0940   -6.4315 C   0  0  0  0  0  0  0  0  0  0  0  0
   27.7669  -21.2857   -9.6551 C   0  0  0  0  0  0  0  0  0  0  0  0
   27.5771  -22.5521   -9.7439 O   0  0  0  0  0  0  0  0  0  0  0  0
   29.0858  -20.9255   -9.4107 O   0  0  0  0  0  0  0  0  0  0  0  0
  1  2  1  0
  2  3  2  0
  4  5  1  0
  4  2  1  0
  5  6  1  1
  7  5  1  0
  7  8  2  0
  9  7  1  0
 10  9  1  0
 10 11  1  6
 12 11  1  0
 12 13  1  0
 13 14  1  0
 15 14  1  0
 16 10  1  0
 17 16  2  0
 18 16  1  0
 19 30  1  0
 19 18  1  0
 20 21  1  0
 19 20  1  1
 21 22  2  0
 21 29  1  0
 22 23  1  0
 23 24  1  0
 24 25  2  0
 26 25  1  0
 27 26  2  0
 28 29  2  0
 28 27  1  0
 29 24  1  0
 30 32  1  0
 31 30  2  0
M  END
$$$$
