NKW.pdb
     RDKit          3D

 32 33  0  0  1  0  0  0  0  0999 V2000
   21.1292  -20.0951  -14.4700 N   0  0  0  0  0  0  0  0  0  0  0  0
   21.3429  -18.9983  -13.5933 C   0  0  0  0  0  0  0  0  0  0  0  0
   20.9290  -19.1034  -12.4167 O   0  0  0  0  0  0  0  0  0  0  0  0
   22.0243  -17.7553  -14.0080 C   0  0  0  0  0  0  0  0  0  0  0  0
   22.5177  -17.9112  -15.4092 C   0  0  2  0  0  0  0  0  0  0  0  0
   21.5398  -18.6771  -16.1630 N   0  0  0  0  0  0  0  0  0  0  0  0
   23.8620  -18.5634  -15.4669 C   0  0  0  0  0  0  0  0  0  0  0  0
   23.9784  -19.7870  -15.7387 O   0  0  0  0  0  0  0  0  0  0  0  0
   25.0549  -17.8386  -15.2202 N   0  0  0  0  0  0  0  0  0  0  0  0
   26.3930  -18.4232  -15.3691 C   0  0  1  0  0  0  0  0  0  0  0  0
   27.4366  -17.3525  -15.4472 C   0  0  0  0  0  0  0  0  0  0  0  0
   28.8009  -17.7860  -15.8395 C   0  0  0  0  0  0  0  0  0  0  0  0
   28.7714  -18.2783  -17.2761 C   0  0  0  0  0  0  0  0  0  0  0  0
   30.1763  -18.7425  -17.6071 C   0  0  0  0  0  0  0  0  0  0  0  0
   30.1006  -19.4008  -18.9013 N   0  0  0  0  0  0  0  0  0  0  0  0
   26.6866  -19.3227  -14.2246 C   0  0  0  0  0  0  0  0  0  0  0  0
   27.7711  -19.1803  -13.6159 O   0  0  0  0  0  0  0  0  0  0  0  0
   25.8158  -20.3276  -13.7836 N   0  0  0  0  0  0  0  0  0  0  0  0
   26.0456  -21.0472  -12.5384 C   0  0  1  0  0  0  0  0  0  0  0  0
   26.2555  -20.0878  -11.4071 C   0  0  0  0  0  0  0  0  0  0  0  0
   27.4805  -20.3765  -10.6577 C   0  0  0  0  0  0  0  0  0  0  0  0
   28.7034  -20.7633  -11.2247 C   0  0  0  0  0  0  0  0  0  0  0  0
   29.6031  -20.9909  -10.2536 N   0  0  0  0  0  0  0  0  0  0  0  0
   29.0373  -20.7733   -9.0680 C   0  0  0  0  0  0  0  0  0  0  0  0
   29.5557  -20.8535   -7.7846 C   0  0  0  0  0  0  0  0  0  0  0  0
   28.7656  -20.5502   -6.6969 C   0  0  0  0  0  0  0  0  0  0  0  0
   27.4424  -20.1642   -6.9287 C   0  0  0  0  0  0  0  0  0  0  0  0
   26.9310  -20.0864   -8.2044 C   0  0  0  0  0  0  0  0  0  0  0  0
   27.7303  -20.3933   -9.2864 C   0  0  0  0  0  0  0  0  0  0  0  0
   25.0216  -22.0412  -12.2434 C   0  0  0  0  0  0  0  0  0  0  0  0
   23.8965  -22.0570  -12.8610 O   0  0  0  0  0  0  0  0  0  0  0  0
   25.1627  -23.0468  -11.2958 O   0  0  0  0  0  0  0  0  0  0  0  0
  1  2  1  0
  2  3  2  0
  4  5  1  0
  4  2  1  0
  5  6  1  6
  7  5  1  0
  7  8  2  0
  9  7  1  0
 10  9  1  0
 10 11  1  1
 12 11  1  0
 12 13  1  0
 13 14  1  0
 15 14  1  0
 16 10  1  0
 17 16  2  0
 18 16  1  0
 19 30  1  0
 19 18  1  0
 20 21  1  0
 19 20  1  1
 21 22  2  0
 21 29  1  0
 22 23  1  0
 23 24  1  0
 24 25  2  0
 26 25  1  0
 27 26  2  0
 28 29  2  0
 28 27  1  0
 29 24  1  0
 30 32  1  0
 31 30  2  0
M  END
$$$$
