NKW.pdb
     RDKit          3D

 32 33  0  0  1  0  0  0  0  0999 V2000
   17.4567  -20.9464  -10.9215 N   0  0  0  0  0  0  0  0  0  0  0  0
   18.2988  -20.7870  -12.0540 C   0  0  0  0  0  0  0  0  0  0  0  0
   17.9019  -20.0372  -12.9744 O   0  0  0  0  0  0  0  0  0  0  0  0
   19.6060  -21.4610  -12.1883 C   0  0  0  0  0  0  0  0  0  0  0  0
   20.6942  -20.4417  -12.0979 C   0  0  2  0  0  0  0  0  0  0  0  0
   20.6219  -19.5810  -13.2664 N   0  0  0  0  0  0  0  0  0  0  0  0
   22.0475  -21.0671  -11.9821 C   0  0  0  0  0  0  0  0  0  0  0  0
   22.2880  -21.9354  -11.1031 O   0  0  0  0  0  0  0  0  0  0  0  0
   23.1107  -20.7127  -12.8500 N   0  0  0  0  0  0  0  0  0  0  0  0
   24.4664  -21.2605  -12.7217 C   0  0  1  0  0  0  0  0  0  0  0  0
   25.2242  -21.1136  -14.0045 C   0  0  0  0  0  0  0  0  0  0  0  0
   26.6289  -21.5933  -14.0016 C   0  0  0  0  0  0  0  0  0  0  0  0
   27.2004  -21.4640  -15.4029 C   0  0  0  0  0  0  0  0  0  0  0  0
   28.6373  -21.9429  -15.3338 C   0  0  0  0  0  0  0  0  0  0  0  0
   29.1602  -21.8801  -16.6891 N   0  0  0  0  0  0  0  0  0  0  0  0
   25.1955  -20.5664  -11.6299 C   0  0  0  0  0  0  0  0  0  0  0  0
   25.0782  -19.3243  -11.5289 O   0  0  0  0  0  0  0  0  0  0  0  0
   26.0120  -21.2242  -10.7009 N   0  0  0  0  0  0  0  0  0  0  0  0
   26.7907  -20.4912   -9.7122 C   0  0  1  0  0  0  0  0  0  0  0  0
   26.1172  -20.5341   -8.3747 C   0  0  0  0  0  0  0  0  0  0  0  0
   26.8069  -19.7069   -7.3818 C   0  0  0  0  0  0  0  0  0  0  0  0
   26.9256  -18.3106   -7.4344 C   0  0  0  0  0  0  0  0  0  0  0  0
   27.6551  -17.8768   -6.3933 N   0  0  0  0  0  0  0  0  0  0  0  0
   28.0265  -18.9176   -5.6504 C   0  0  0  0  0  0  0  0  0  0  0  0
   28.7633  -18.9811   -4.4777 C   0  0  0  0  0  0  0  0  0  0  0  0
   28.9996  -20.1961   -3.8715 C   0  0  0  0  0  0  0  0  0  0  0  0
   28.4782  -21.3459   -4.4712 C   0  0  0  0  0  0  0  0  0  0  0  0
   27.7477  -21.2790   -5.6361 C   0  0  0  0  0  0  0  0  0  0  0  0
   27.5178  -20.0576   -6.2353 C   0  0  0  0  0  0  0  0  0  0  0  0
   28.1862  -20.9057   -9.6470 C   0  0  0  0  0  0  0  0  0  0  0  0
   28.5374  -22.1284   -9.8181 O   0  0  0  0  0  0  0  0  0  0  0  0
   29.2453  -20.0396   -9.4075 O   0  0  0  0  0  0  0  0  0  0  0  0
  1  2  1  0
  2  3  2  0
  4  5  1  0
  4  2  1  0
  5  6  1  6
  7  5  1  0
  7  8  2  0
  9  7  1  0
 10  9  1  0
 10 11  1  6
 12 11  1  0
 12 13  1  0
 13 14  1  0
 15 14  1  0
 16 10  1  0
 17 16  2  0
 18 16  1  0
 19 30  1  0
 19 18  1  0
 20 21  1  0
 19 20  1  1
 21 22  2  0
 21 29  1  0
 22 23  1  0
 23 24  1  0
 24 25  2  0
 26 25  1  0
 27 26  2  0
 28 29  2  0
 28 27  1  0
 29 24  1  0
 30 32  1  0
 31 30  2  0
M  END
$$$$
