NKW.pdb
     RDKit          3D

 32 33  0  0  1  0  0  0  0  0999 V2000
   32.1475  -24.1347  -14.7798 N   0  0  0  0  0  0  0  0  0  0  0  0
   30.9390  -23.5861  -15.2854 C   0  0  0  0  0  0  0  0  0  0  0  0
   30.4074  -24.1528  -16.2667 O   0  0  0  0  0  0  0  0  0  0  0  0
   30.2926  -22.3902  -14.7081 C   0  0  0  0  0  0  0  0  0  0  0  0
   29.0349  -22.1017  -15.4607 C   0  0  2  0  0  0  0  0  0  0  0  0
   29.3866  -21.5425  -16.7549 N   0  0  0  0  0  0  0  0  0  0  0  0
   28.1265  -21.1791  -14.7127 C   0  0  0  0  0  0  0  0  0  0  0  0
   28.5662  -20.1274  -14.1788 O   0  0  0  0  0  0  0  0  0  0  0  0
   26.7414  -21.4458  -14.5731 N   0  0  0  0  0  0  0  0  0  0  0  0
   25.8192  -20.5468  -13.8691 C   0  0  1  0  0  0  0  0  0  0  0  0
   24.5613  -20.3502  -14.6569 C   0  0  0  0  0  0  0  0  0  0  0  0
   23.4876  -19.5613  -14.0025 C   0  0  0  0  0  0  0  0  0  0  0  0
   22.2900  -19.4853  -14.9335 C   0  0  0  0  0  0  0  0  0  0  0  0
   21.2868  -18.5559  -14.2787 C   0  0  0  0  0  0  0  0  0  0  0  0
   20.1020  -18.5656  -15.1214 N   0  0  0  0  0  0  0  0  0  0  0  0
   25.4882  -21.1013  -12.5318 C   0  0  0  0  0  0  0  0  0  0  0  0
   24.9904  -22.2480  -12.4673 O   0  0  0  0  0  0  0  0  0  0  0  0
   25.7013  -20.4120  -11.3310 N   0  0  0  0  0  0  0  0  0  0  0  0
   25.1626  -20.8931  -10.0663 C   0  0  1  0  0  0  0  0  0  0  0  0
   25.6681  -20.0605   -8.9281 C   0  0  0  0  0  0  0  0  0  0  0  0
   27.0505  -20.3905   -8.5732 C   0  0  0  0  0  0  0  0  0  0  0  0
   27.9195  -21.1728   -9.3474 C   0  0  0  0  0  0  0  0  0  0  0  0
   29.0934  -21.3145   -8.7101 N   0  0  0  0  0  0  0  0  0  0  0  0
   29.0469  -20.6632   -7.5496 C   0  0  0  0  0  0  0  0  0  0  0  0
   30.0042  -20.4986   -6.5602 C   0  0  0  0  0  0  0  0  0  0  0  0
   29.7229  -19.7453   -5.4409 C   0  0  0  0  0  0  0  0  0  0  0  0
   28.4572  -19.1610   -5.3390 C   0  0  0  0  0  0  0  0  0  0  0  0
   27.5091  -19.3272   -6.3230 C   0  0  0  0  0  0  0  0  0  0  0  0
   27.8007  -20.0843   -7.4391 C   0  0  0  0  0  0  0  0  0  0  0  0
   23.7108  -21.0192  -10.0628 C   0  0  0  0  0  0  0  0  0  0  0  0
   23.0751  -21.4890   -9.0514 O   0  0  0  0  0  0  0  0  0  0  0  0
   22.8943  -20.6456  -11.1224 O   0  0  0  0  0  0  0  0  0  0  0  0
  1  2  1  0
  2  3  2  0
  4  5  1  0
  4  2  1  0
  5  6  1  6
  7  5  1  0
  7  8  2  0
  9  7  1  0
 10  9  1  0
 10 11  1  6
 12 11  1  0
 12 13  1  0
 13 14  1  0
 15 14  1  0
 16 10  1  0
 17 16  2  0
 18 16  1  0
 19 30  1  0
 19 18  1  0
 20 21  1  0
 19 20  1  1
 21 22  2  0
 21 29  1  0
 22 23  1  0
 23 24  1  0
 24 25  2  0
 26 25  1  0
 27 26  2  0
 28 29  2  0
 28 27  1  0
 29 24  1  0
 30 32  1  0
 31 30  2  0
M  END
$$$$
