NKW.pdb
     RDKit          3D

 32 33  0  0  1  0  0  0  0  0999 V2000
   30.7626  -16.0532  -17.7156 N   0  0  0  0  0  0  0  0  0  0  0  0
   29.4068  -16.4627  -17.8210 C   0  0  0  0  0  0  0  0  0  0  0  0
   28.9521  -16.6836  -18.9661 O   0  0  0  0  0  0  0  0  0  0  0  0
   28.5234  -16.6363  -16.6503 C   0  0  0  0  0  0  0  0  0  0  0  0
   28.5586  -18.0655  -16.2175 C   0  0  2  0  0  0  0  0  0  0  0  0
   28.2299  -18.9038  -17.3580 N   0  0  0  0  0  0  0  0  0  0  0  0
   27.6309  -18.3345  -15.0760 C   0  0  0  0  0  0  0  0  0  0  0  0
   27.7568  -17.7272  -13.9807 O   0  0  0  0  0  0  0  0  0  0  0  0
   26.5774  -19.2775  -15.1761 N   0  0  0  0  0  0  0  0  0  0  0  0
   25.6835  -19.6020  -14.0581 C   0  0  1  0  0  0  0  0  0  0  0  0
   24.4714  -20.3365  -14.5408 C   0  0  0  0  0  0  0  0  0  0  0  0
   23.5274  -20.8117  -13.4985 C   0  0  0  0  0  0  0  0  0  0  0  0
   22.2364  -20.0178  -13.5992 C   0  0  0  0  0  0  0  0  0  0  0  0
   21.3331  -20.5112  -12.4858 C   0  0  0  0  0  0  0  0  0  0  0  0
   20.1082  -19.7326  -12.5709 N   0  0  0  0  0  0  0  0  0  0  0  0
   26.4012  -20.4296  -13.0553 C   0  0  0  0  0  0  0  0  0  0  0  0
   26.9471  -21.4896  -13.4363 O   0  0  0  0  0  0  0  0  0  0  0  0
   26.5034  -20.0915  -11.6997 N   0  0  0  0  0  0  0  0  0  0  0  0
   26.6035  -21.1091  -10.6626 C   0  0  1  0  0  0  0  0  0  0  0  0
   27.7151  -20.7844   -9.7121 C   0  0  0  0  0  0  0  0  0  0  0  0
   27.2247  -20.5220   -8.3570 C   0  0  0  0  0  0  0  0  0  0  0  0
   25.9348  -20.8168   -7.8925 C   0  0  0  0  0  0  0  0  0  0  0  0
   25.8052  -20.4070   -6.6199 N   0  0  0  0  0  0  0  0  0  0  0  0
   26.9473  -19.8545   -6.2156 C   0  0  0  0  0  0  0  0  0  0  0  0
   27.3114  -19.3093   -4.9939 C   0  0  0  0  0  0  0  0  0  0  0  0
   28.5835  -18.8130   -4.8070 C   0  0  0  0  0  0  0  0  0  0  0  0
   29.4814  -18.8775   -5.8762 C   0  0  0  0  0  0  0  0  0  0  0  0
   29.1161  -19.4190   -7.0880 C   0  0  0  0  0  0  0  0  0  0  0  0
   27.8396  -19.9121   -7.2648 C   0  0  0  0  0  0  0  0  0  0  0  0
   25.3433  -21.3685   -9.9784 C   0  0  0  0  0  0  0  0  0  0  0  0
   25.1662  -22.4188   -9.2621 O   0  0  0  0  0  0  0  0  0  0  0  0
   24.2426  -20.5228  -10.0269 O   0  0  0  0  0  0  0  0  0  0  0  0
  1  2  1  0
  2  3  2  0
  4  5  1  0
  4  2  1  0
  5  6  1  6
  7  5  1  0
  7  8  2  0
  9  7  1  0
 10  9  1  0
 10 11  1  6
 12 11  1  0
 12 13  1  0
 13 14  1  0
 15 14  1  0
 16 10  1  0
 17 16  2  0
 18 16  1  0
 19 30  1  0
 19 18  1  0
 20 21  1  0
 19 20  1  1
 21 22  2  0
 21 29  1  0
 22 23  1  0
 23 24  1  0
 24 25  2  0
 26 25  1  0
 27 26  2  0
 28 29  2  0
 28 27  1  0
 29 24  1  0
 30 32  1  0
 31 30  2  0
M  END
$$$$
