NKW.pdb
     RDKit          3D

 32 33  0  0  1  0  0  0  0  0999 V2000
   18.0116  -33.5363   -5.2986 N   0  0  0  0  0  0  0  0  0  0  0  0
   18.3637  -33.7230   -3.9355 C   0  0  0  0  0  0  0  0  0  0  0  0
   17.8789  -34.7105   -3.3383 O   0  0  0  0  0  0  0  0  0  0  0  0
   19.2664  -32.8117   -3.2036 C   0  0  0  0  0  0  0  0  0  0  0  0
   19.6759  -31.6963   -4.1089 C   0  0  2  0  0  0  0  0  0  0  0  0
   21.0251  -31.2860   -3.7588 N   0  0  0  0  0  0  0  0  0  0  0  0
   18.7339  -30.5370   -4.0409 C   0  0  0  0  0  0  0  0  0  0  0  0
   17.9187  -30.3078   -4.9723 O   0  0  0  0  0  0  0  0  0  0  0  0
   18.7172  -29.6523   -2.9336 N   0  0  0  0  0  0  0  0  0  0  0  0
   17.7332  -28.5735   -2.7846 C   0  0  1  0  0  0  0  0  0  0  0  0
   17.6723  -28.1000   -1.3656 C   0  0  0  0  0  0  0  0  0  0  0  0
   16.9391  -28.9673   -0.4099 C   0  0  0  0  0  0  0  0  0  0  0  0
   17.0041  -28.3460    0.9746 C   0  0  0  0  0  0  0  0  0  0  0  0
   16.2065  -29.2484    1.8956 C   0  0  0  0  0  0  0  0  0  0  0  0
   16.4303  -28.7621    3.2474 N   0  0  0  0  0  0  0  0  0  0  0  0
   18.0837  -27.4374   -3.6745 C   0  0  0  0  0  0  0  0  0  0  0  0
   19.1506  -26.8185   -3.4610 O   0  0  0  0  0  0  0  0  0  0  0  0
   17.2852  -27.0148   -4.7452 N   0  0  0  0  0  0  0  0  0  0  0  0
   17.6254  -25.8406   -5.5369 C   0  0  1  0  0  0  0  0  0  0  0  0
   18.0142  -26.2383   -6.9279 C   0  0  0  0  0  0  0  0  0  0  0  0
   16.8827  -26.7793   -7.6847 C   0  0  0  0  0  0  0  0  0  0  0  0
   15.8711  -26.0151   -8.2841 C   0  0  0  0  0  0  0  0  0  0  0  0
   14.9677  -26.8266   -8.8580 N   0  0  0  0  0  0  0  0  0  0  0  0
   15.3304  -28.0940   -8.6698 C   0  0  0  0  0  0  0  0  0  0  0  0
   14.7425  -29.2793   -9.0841 C   0  0  0  0  0  0  0  0  0  0  0  0
   15.3310  -30.4884   -8.7821 C   0  0  0  0  0  0  0  0  0  0  0  0
   16.5240  -30.4788   -8.0541 C   0  0  0  0  0  0  0  0  0  0  0  0
   17.1044  -29.2999   -7.6437 C   0  0  0  0  0  0  0  0  0  0  0  0
   16.5065  -28.0949   -7.9505 C   0  0  0  0  0  0  0  0  0  0  0  0
   16.5964  -24.8089   -5.5192 C   0  0  0  0  0  0  0  0  0  0  0  0
   16.7677  -23.6729   -6.0917 O   0  0  0  0  0  0  0  0  0  0  0  0
   15.3594  -24.9535   -4.9043 O   0  0  0  0  0  0  0  0  0  0  0  0
  1  2  1  0
  2  3  2  0
  4  5  1  0
  4  2  1  0
  5  6  1  1
  7  5  1  0
  7  8  2  0
  9  7  1  0
 10  9  1  0
 10 11  1  1
 12 11  1  0
 12 13  1  0
 13 14  1  0
 15 14  1  0
 16 10  1  0
 17 16  2  0
 18 16  1  0
 19 30  1  0
 19 18  1  0
 20 21  1  0
 19 20  1  6
 21 22  2  0
 21 29  1  0
 22 23  1  0
 23 24  1  0
 24 25  2  0
 26 25  1  0
 27 26  2  0
 28 29  2  0
 28 27  1  0
 29 24  1  0
 30 32  1  0
 31 30  2  0
M  END
$$$$
