NKW.pdb
     RDKit          3D

 32 33  0  0  1  0  0  0  0  0999 V2000
   28.4692  -17.1406  -17.5596 N   0  0  0  0  0  0  0  0  0  0  0  0
   27.5376  -17.4840  -18.5750 C   0  0  0  0  0  0  0  0  0  0  0  0
   27.4933  -16.7592  -19.5946 O   0  0  0  0  0  0  0  0  0  0  0  0
   26.6309  -18.6458  -18.4782 C   0  0  0  0  0  0  0  0  0  0  0  0
   26.7890  -19.2801  -17.1351 C   0  0  2  0  0  0  0  0  0  0  0  0
   28.0200  -20.0520  -17.1286 N   0  0  0  0  0  0  0  0  0  0  0  0
   25.6207  -20.1407  -16.7743 C   0  0  0  0  0  0  0  0  0  0  0  0
   24.4780  -19.9174  -17.2527 O   0  0  0  0  0  0  0  0  0  0  0  0
   25.7473  -21.2372  -15.8849 N   0  0  0  0  0  0  0  0  0  0  0  0
   24.6190  -22.0961  -15.5061 C   0  0  1  0  0  0  0  0  0  0  0  0
   25.0852  -23.2559  -14.6821 C   0  0  0  0  0  0  0  0  0  0  0  0
   25.1943  -24.5615  -15.3799 C   0  0  0  0  0  0  0  0  0  0  0  0
   26.3564  -24.5067  -16.3563 C   0  0  0  0  0  0  0  0  0  0  0  0
   26.3578  -25.8240  -17.1071 C   0  0  0  0  0  0  0  0  0  0  0  0
   27.4391  -25.7471  -18.0761 N   0  0  0  0  0  0  0  0  0  0  0  0
   23.6162  -21.3123  -14.7409 C   0  0  0  0  0  0  0  0  0  0  0  0
   23.9894  -20.7111  -13.7084 O   0  0  0  0  0  0  0  0  0  0  0  0
   22.2687  -21.2059  -15.1089 N   0  0  0  0  0  0  0  0  0  0  0  0
   21.3213  -20.4232  -14.3272 C   0  0  1  0  0  0  0  0  0  0  0  0
   21.6697  -18.9672  -14.3822 C   0  0  0  0  0  0  0  0  0  0  0  0
   20.7074  -18.1405  -13.6499 C   0  0  0  0  0  0  0  0  0  0  0  0
   20.5222  -18.1543  -12.2600 C   0  0  0  0  0  0  0  0  0  0  0  0
   19.5329  -17.3099  -11.9247 N   0  0  0  0  0  0  0  0  0  0  0  0
   19.0519  -16.7345  -13.0250 C   0  0  0  0  0  0  0  0  0  0  0  0
   18.0526  -15.7883  -13.1940 C   0  0  0  0  0  0  0  0  0  0  0  0
   17.7466  -15.3196  -14.4534 C   0  0  0  0  0  0  0  0  0  0  0  0
   18.4681  -15.8237  -15.5392 C   0  0  0  0  0  0  0  0  0  0  0  0
   19.4591  -16.7637  -15.3676 C   0  0  0  0  0  0  0  0  0  0  0  0
   19.7568  -17.2270  -14.1025 C   0  0  0  0  0  0  0  0  0  0  0  0
   19.9294  -20.6767  -14.6763 C   0  0  0  0  0  0  0  0  0  0  0  0
   19.5377  -20.7324  -15.8974 O   0  0  0  0  0  0  0  0  0  0  0  0
   18.9190  -20.8852  -13.7464 O   0  0  0  0  0  0  0  0  0  0  0  0
  1  2  1  0
  2  3  2  0
  4  5  1  0
  4  2  1  0
  5  6  1  6
  7  5  1  0
  7  8  2  0
  9  7  1  0
 10  9  1  0
 10 11  1  1
 12 11  1  0
 12 13  1  0
 13 14  1  0
 15 14  1  0
 16 10  1  0
 17 16  2  0
 18 16  1  0
 19 30  1  0
 19 18  1  0
 20 21  1  0
 19 20  1  6
 21 22  2  0
 21 29  1  0
 22 23  1  0
 23 24  1  0
 24 25  2  0
 26 25  1  0
 27 26  2  0
 28 29  2  0
 28 27  1  0
 29 24  1  0
 30 32  1  0
 31 30  2  0
M  END
$$$$
