WNP.pdb
     RDKit          3D

 30 32  0  0  1  0  0  0  0  0999 V2000
   21.7380  -13.9137  -16.4931 N   0  0  0  0  0  0  0  0  0  0  0  0
   22.5562  -12.7719  -16.1974 C   0  0  1  0  0  0  0  0  0  0  0  0
   23.4788  -12.4263  -17.3368 C   0  0  0  0  0  0  0  0  0  0  0  0
   24.5451  -13.4258  -17.5585 C   0  0  0  0  0  0  0  0  0  0  0  0
   24.5469  -14.4559  -18.5061 C   0  0  0  0  0  0  0  0  0  0  0  0
   25.6768  -15.1687  -18.3819 N   0  0  0  0  0  0  0  0  0  0  0  0
   26.4330  -14.6592  -17.3911 C   0  0  0  0  0  0  0  0  0  0  0  0
   27.6649  -15.0602  -16.9190 C   0  0  0  0  0  0  0  0  0  0  0  0
   28.2214  -14.3413  -15.8845 C   0  0  0  0  0  0  0  0  0  0  0  0
   27.5670  -13.2657  -15.3487 C   0  0  0  0  0  0  0  0  0  0  0  0
   26.3300  -12.8882  -15.8454 C   0  0  0  0  0  0  0  0  0  0  0  0
   25.7311  -13.5700  -16.8735 C   0  0  0  0  0  0  0  0  0  0  0  0
   21.6802  -11.5877  -15.9827 C   0  0  0  0  0  0  0  0  0  0  0  0
   20.6360  -11.5015  -16.6828 O   0  0  0  0  0  0  0  0  0  0  0  0
   19.0557   -7.7316  -14.3108 N   0  0  0  0  0  0  0  0  0  0  0  0
   19.3321   -8.6954  -13.3016 C   0  0  0  0  0  0  0  0  0  0  0  0
   18.6895   -8.6469  -12.2453 O   0  0  0  0  0  0  0  0  0  0  0  0
   20.3706   -9.6882  -13.5896 C   0  0  0  0  0  0  0  0  0  0  0  0
   21.0720   -9.4570  -14.9244 C   0  0  2  0  0  0  0  0  0  0  0  0
   21.9922  -10.5855  -15.0308 N   0  0  0  0  0  0  0  0  0  0  0  0
   21.7653   -8.1810  -14.9806 C   0  0  0  0  0  0  0  0  0  0  0  0
   22.7045   -8.0004  -14.1462 O   0  0  0  0  0  0  0  0  0  0  0  0
   21.4539   -7.1745  -15.8887 N   0  0  0  0  0  0  0  0  0  0  0  0
   20.3483   -7.2842  -16.8521 C   0  0  0  0  0  0  0  0  0  0  0  0
   20.8171   -6.4713  -18.0230 C   0  0  0  0  0  0  0  0  0  0  0  0
   21.8152   -5.4932  -17.5085 C   0  0  0  0  0  0  0  0  0  0  0  0
   22.0617   -5.8821  -16.0539 C   0  0  1  0  0  0  0  0  0  0  0  0
   21.3255   -4.8770  -15.2002 C   0  0  0  0  0  0  0  0  0  0  0  0
   21.8300   -3.7439  -15.0870 O   0  0  0  0  0  0  0  0  0  0  0  0
   20.1392   -5.2088  -14.5723 O   0  0  0  0  0  0  0  0  0  0  0  0
  2  1  1  6
  2  3  1  0
  4  3  1  0
  4  5  2  0
  6  5  1  0
  7 12  2  0
  7  6  1  0
  8  7  1  0
  9 10  1  0
  9  8  2  0
 10 11  2  0
 11 12  1  0
 12  4  1  0
 13  2  1  0
 13 20  1  0
 14 13  2  0
 16 15  1  0
 17 16  2  0
 18 16  1  0
 19 20  1  0
 19 18  1  1
 21 19  1  0
 22 21  2  0
 23 21  1  0
 24 23  1  0
 25 26  1  0
 25 24  1  0
 26 27  1  0
 27 23  1  0
 27 28  1  1
 28 29  2  0
 28 30  1  0
M  END
$$$$
