WNP.pdb
     RDKit          3D

 30 32  0  0  1  0  0  0  0  0999 V2000
   25.9194  -18.7078   -9.3616 N   0  0  0  0  0  0  0  0  0  0  0  0
   26.6524  -19.8687   -9.7809 C   0  0  1  0  0  0  0  0  0  0  0  0
   26.4172  -21.0457   -8.8709 C   0  0  0  0  0  0  0  0  0  0  0  0
   26.6593  -20.7475   -7.4434 C   0  0  0  0  0  0  0  0  0  0  0  0
   25.6930  -20.5802   -6.4449 C   0  0  0  0  0  0  0  0  0  0  0  0
   26.3021  -20.2955   -5.2838 N   0  0  0  0  0  0  0  0  0  0  0  0
   27.6364  -20.2655   -5.4620 C   0  0  0  0  0  0  0  0  0  0  0  0
   28.6475  -20.0219   -4.5566 C   0  0  0  0  0  0  0  0  0  0  0  0
   29.9450  -20.0628   -5.0164 C   0  0  0  0  0  0  0  0  0  0  0  0
   30.2134  -20.3369   -6.3298 C   0  0  0  0  0  0  0  0  0  0  0  0
   29.1749  -20.5769   -7.2147 C   0  0  0  0  0  0  0  0  0  0  0  0
   27.8652  -20.5476   -6.8092 C   0  0  0  0  0  0  0  0  0  0  0  0
   26.1867  -20.2756  -11.1349 C   0  0  0  0  0  0  0  0  0  0  0  0
   24.9471  -20.2419  -11.3586 O   0  0  0  0  0  0  0  0  0  0  0  0
   27.6961  -18.0105  -13.9568 N   0  0  0  0  0  0  0  0  0  0  0  0
   28.4964  -19.0708  -14.4660 C   0  0  0  0  0  0  0  0  0  0  0  0
   29.5696  -18.7911  -15.0146 O   0  0  0  0  0  0  0  0  0  0  0  0
   27.9855  -20.4343  -14.3019 C   0  0  0  0  0  0  0  0  0  0  0  0
   26.6698  -20.4965  -13.5323 C   0  0  2  0  0  0  0  0  0  0  0  0
   27.0889  -20.6876  -12.1469 N   0  0  0  0  0  0  0  0  0  0  0  0
   25.8009  -21.5671  -13.9918 C   0  0  0  0  0  0  0  0  0  0  0  0
   26.1056  -22.7467  -13.6361 O   0  0  0  0  0  0  0  0  0  0  0  0
   24.6757  -21.3599  -14.7827 N   0  0  0  0  0  0  0  0  0  0  0  0
   24.3239  -20.0453  -15.3399 C   0  0  0  0  0  0  0  0  0  0  0  0
   22.8255  -20.0806  -15.4115 C   0  0  0  0  0  0  0  0  0  0  0  0
   22.4212  -21.5126  -15.4724 C   0  0  0  0  0  0  0  0  0  0  0  0
   23.6995  -22.3121  -15.2382 C   0  0  1  0  0  0  0  0  0  0  0  0
   24.1287  -22.8563  -16.5801 C   0  0  0  0  0  0  0  0  0  0  0  0
   25.0924  -22.3013  -17.1408 O   0  0  0  0  0  0  0  0  0  0  0  0
   23.4730  -23.9283  -17.1569 O   0  0  0  0  0  0  0  0  0  0  0  0
  2  1  1  1
  2  3  1  0
  4  3  1  0
  4  5  2  0
  6  5  1  0
  7 12  2  0
  7  6  1  0
  8  7  1  0
  9 10  1  0
  9  8  2  0
 10 11  2  0
 11 12  1  0
 12  4  1  0
 13  2  1  0
 13 20  1  0
 14 13  2  0
 16 15  1  0
 17 16  2  0
 18 16  1  0
 19 20  1  0
 19 18  1  6
 21 19  1  0
 22 21  2  0
 23 21  1  0
 24 23  1  0
 25 26  1  0
 25 24  1  0
 26 27  1  0
 27 23  1  0
 27 28  1  6
 28 29  2  0
 28 30  1  0
M  END
$$$$
