WNP.pdb
     RDKit          3D

 30 32  0  0  1  0  0  0  0  0999 V2000
   27.8326  -18.9008  -12.4096 N   0  0  0  0  0  0  0  0  0  0  0  0
   27.4617  -20.2702  -12.6283 C   0  0  1  0  0  0  0  0  0  0  0  0
   26.0561  -20.5563  -12.1684 C   0  0  0  0  0  0  0  0  0  0  0  0
   25.9132  -20.6046  -10.6979 C   0  0  0  0  0  0  0  0  0  0  0  0
   24.7204  -20.5484   -9.9678 C   0  0  0  0  0  0  0  0  0  0  0  0
   25.0022  -20.5939   -8.6568 N   0  0  0  0  0  0  0  0  0  0  0  0
   26.3340  -20.6789   -8.4774 C   0  0  0  0  0  0  0  0  0  0  0  0
   27.0696  -20.7550   -7.3136 C   0  0  0  0  0  0  0  0  0  0  0  0
   28.4395  -20.8434   -7.4244 C   0  0  0  0  0  0  0  0  0  0  0  0
   29.0427  -20.8550   -8.6525 C   0  0  0  0  0  0  0  0  0  0  0  0
   28.2752  -20.7768   -9.8032 C   0  0  0  0  0  0  0  0  0  0  0  0
   26.9079  -20.6864   -9.7491 C   0  0  0  0  0  0  0  0  0  0  0  0
   27.5005  -20.5579  -14.0883 C   0  0  0  0  0  0  0  0  0  0  0  0
   27.2401  -19.6091  -14.8756 O   0  0  0  0  0  0  0  0  0  0  0  0
   30.0020  -23.6706  -18.1207 N   0  0  0  0  0  0  0  0  0  0  0  0
   28.6718  -23.7695  -17.6262 C   0  0  0  0  0  0  0  0  0  0  0  0
   27.7811  -24.1499  -18.3962 O   0  0  0  0  0  0  0  0  0  0  0  0
   28.4500  -23.4093  -16.2233 C   0  0  0  0  0  0  0  0  0  0  0  0
   27.9567  -21.9775  -16.0392 C   0  0  2  0  0  0  0  0  0  0  0  0
   27.8170  -21.8439  -14.5921 N   0  0  0  0  0  0  0  0  0  0  0  0
   26.7062  -21.7209  -16.7338 C   0  0  0  0  0  0  0  0  0  0  0  0
   25.6413  -22.1055  -16.1603 O   0  0  0  0  0  0  0  0  0  0  0  0
   26.6273  -21.0853  -17.9685 N   0  0  0  0  0  0  0  0  0  0  0  0
   27.8130  -20.6164  -18.7009 C   0  0  0  0  0  0  0  0  0  0  0  0
   27.3112  -19.4234  -19.4602 C   0  0  0  0  0  0  0  0  0  0  0  0
   25.8399  -19.5894  -19.6188 C   0  0  0  0  0  0  0  0  0  0  0  0
   25.4679  -20.8014  -18.7699 C   0  0  1  0  0  0  0  0  0  0  0  0
   25.2329  -21.9492  -19.7230 C   0  0  0  0  0  0  0  0  0  0  0  0
   24.2520  -21.8675  -20.4861 O   0  0  0  0  0  0  0  0  0  0  0  0
   26.0773  -23.0439  -19.7418 O   0  0  0  0  0  0  0  0  0  0  0  0
  2  1  1  6
  2  3  1  0
  4  3  1  0
  4  5  2  0
  6  5  1  0
  7 12  2  0
  7  6  1  0
  8  7  1  0
  9 10  1  0
  9  8  2  0
 10 11  2  0
 11 12  1  0
 12  4  1  0
 13  2  1  0
 13 20  1  0
 14 13  2  0
 16 15  1  0
 17 16  2  0
 18 16  1  0
 19 20  1  0
 19 18  1  1
 21 19  1  0
 22 21  2  0
 23 21  1  0
 24 23  1  0
 25 26  1  0
 25 24  1  0
 26 27  1  0
 27 23  1  0
 27 28  1  6
 28 29  2  0
 28 30  1  0
M  END
$$$$
