WNP.pdb
     RDKit          3D

 30 32  0  0  1  0  0  0  0  0999 V2000
   28.7985  -21.4094  -11.0325 N   0  0  0  0  0  0  0  0  0  0  0  0
   27.5241  -21.4275  -10.3722 C   0  0  1  0  0  0  0  0  0  0  0  0
   27.4319  -20.3829   -9.2909 C   0  0  0  0  0  0  0  0  0  0  0  0
   28.4492  -20.5388   -8.2297 C   0  0  0  0  0  0  0  0  0  0  0  0
   29.6796  -21.1974   -8.3361 C   0  0  0  0  0  0  0  0  0  0  0  0
   30.3110  -21.1479   -7.1532 N   0  0  0  0  0  0  0  0  0  0  0  0
   29.5556  -20.4831   -6.2585 C   0  0  0  0  0  0  0  0  0  0  0  0
   29.8026  -20.1867   -4.9347 C   0  0  0  0  0  0  0  0  0  0  0  0
   28.8452  -19.4752   -4.2463 C   0  0  0  0  0  0  0  0  0  0  0  0
   27.6898  -19.0791   -4.8632 C   0  0  0  0  0  0  0  0  0  0  0  0
   27.4716  -19.3930   -6.1948 C   0  0  0  0  0  0  0  0  0  0  0  0
   28.3917  -20.0999   -6.9257 C   0  0  0  0  0  0  0  0  0  0  0  0
   26.4583  -21.1125  -11.3625 C   0  0  0  0  0  0  0  0  0  0  0  0
   26.6323  -20.1100  -12.1059 O   0  0  0  0  0  0  0  0  0  0  0  0
   24.4341  -22.9630  -15.7836 N   0  0  0  0  0  0  0  0  0  0  0  0
   23.6831  -23.0999  -14.5831 C   0  0  0  0  0  0  0  0  0  0  0  0
   22.4555  -23.2308  -14.6650 O   0  0  0  0  0  0  0  0  0  0  0  0
   24.4271  -23.0758  -13.3210 C   0  0  0  0  0  0  0  0  0  0  0  0
   24.4627  -21.6974  -12.6685 C   0  0  2  0  0  0  0  0  0  0  0  0
   25.2857  -21.8994  -11.4796 N   0  0  0  0  0  0  0  0  0  0  0  0
   23.1385  -21.1989  -12.3367 C   0  0  0  0  0  0  0  0  0  0  0  0
   22.6439  -21.5750  -11.2300 O   0  0  0  0  0  0  0  0  0  0  0  0
   22.4085  -20.3461  -13.1580 N   0  0  0  0  0  0  0  0  0  0  0  0
   22.8766  -19.9247  -14.4867 C   0  0  0  0  0  0  0  0  0  0  0  0
   22.2855  -18.5556  -14.6526 C   0  0  0  0  0  0  0  0  0  0  0  0
   21.0918  -18.4810  -13.7655 C   0  0  0  0  0  0  0  0  0  0  0  0
   21.1138  -19.7616  -12.9362 C   0  0  1  0  0  0  0  0  0  0  0  0
   20.0551  -20.6736  -13.5091 C   0  0  0  0  0  0  0  0  0  0  0  0
   20.4332  -21.5750  -14.2811 O   0  0  0  0  0  0  0  0  0  0  0  0
   18.7212  -20.5085  -13.1849 O   0  0  0  0  0  0  0  0  0  0  0  0
  2  1  1  6
  2  3  1  0
  4  3  1  0
  4  5  2  0
  6  5  1  0
  7 12  2  0
  7  6  1  0
  8  7  1  0
  9 10  1  0
  9  8  2  0
 10 11  2  0
 11 12  1  0
 12  4  1  0
 13  2  1  0
 13 20  1  0
 14 13  2  0
 16 15  1  0
 17 16  2  0
 18 16  1  0
 19 20  1  0
 19 18  1  1
 21 19  1  0
 22 21  2  0
 23 21  1  0
 24 23  1  0
 25 26  1  0
 25 24  1  0
 26 27  1  0
 27 23  1  0
 27 28  1  6
 28 29  2  0
 28 30  1  0
M  END
$$$$
