WNP.pdb
     RDKit          3D

 30 32  0  0  1  0  0  0  0  0999 V2000
   24.7548  -20.1063  -10.1300 N   0  0  0  0  0  0  0  0  0  0  0  0
   26.1879  -20.0856  -10.2094 C   0  0  1  0  0  0  0  0  0  0  0  0
   26.8197  -21.1156   -9.3102 C   0  0  0  0  0  0  0  0  0  0  0  0
   26.5192  -20.9137   -7.8770 C   0  0  0  0  0  0  0  0  0  0  0  0
   25.2878  -21.1101   -7.2413 C   0  0  0  0  0  0  0  0  0  0  0  0
   25.4064  -20.7972   -5.9420 N   0  0  0  0  0  0  0  0  0  0  0  0
   26.6659  -20.3999   -5.6798 C   0  0  0  0  0  0  0  0  0  0  0  0
   27.2398  -19.9946   -4.4933 C   0  0  0  0  0  0  0  0  0  0  0  0
   28.5720  -19.6458   -4.5104 C   0  0  0  0  0  0  0  0  0  0  0  0
   29.2951  -19.7024   -5.6707 C   0  0  0  0  0  0  0  0  0  0  0  0
   28.6889  -20.1137   -6.8466 C   0  0  0  0  0  0  0  0  0  0  0  0
   27.3655  -20.4711   -6.8849 C   0  0  0  0  0  0  0  0  0  0  0  0
   26.6033  -20.4194  -11.5994 C   0  0  0  0  0  0  0  0  0  0  0  0
   27.8321  -20.5996  -11.8122 O   0  0  0  0  0  0  0  0  0  0  0  0
   25.0260  -23.7614  -13.3658 N   0  0  0  0  0  0  0  0  0  0  0  0
   25.9385  -23.0214  -14.1681 C   0  0  0  0  0  0  0  0  0  0  0  0
   27.0538  -23.5063  -14.3958 O   0  0  0  0  0  0  0  0  0  0  0  0
   25.4857  -21.7226  -14.6731 C   0  0  0  0  0  0  0  0  0  0  0  0
   26.1933  -20.5408  -14.0174 C   0  0  2  0  0  0  0  0  0  0  0  0
   25.6662  -20.5351  -12.6559 N   0  0  0  0  0  0  0  0  0  0  0  0
   25.9427  -19.2849  -14.7045 C   0  0  0  0  0  0  0  0  0  0  0  0
   24.8630  -18.6808  -14.4212 O   0  0  0  0  0  0  0  0  0  0  0  0
   26.8146  -18.7283  -15.6343 N   0  0  0  0  0  0  0  0  0  0  0  0
   28.0543  -19.3933  -16.0623 C   0  0  0  0  0  0  0  0  0  0  0  0
   28.9756  -18.2529  -16.3820 C   0  0  0  0  0  0  0  0  0  0  0  0
   28.1230  -17.0733  -16.6975 C   0  0  0  0  0  0  0  0  0  0  0  0
   26.6951  -17.4962  -16.3654 C   0  0  1  0  0  0  0  0  0  0  0  0
   26.0008  -17.7664  -17.6791 C   0  0  0  0  0  0  0  0  0  0  0  0
   25.8615  -18.9568  -18.0183 O   0  0  0  0  0  0  0  0  0  0  0  0
   25.5408  -16.7287  -18.4685 O   0  0  0  0  0  0  0  0  0  0  0  0
  2  1  1  6
  2  3  1  0
  4  3  1  0
  4  5  2  0
  6  5  1  0
  7 12  2  0
  7  6  1  0
  8  7  1  0
  9 10  1  0
  9  8  2  0
 10 11  2  0
 11 12  1  0
 12  4  1  0
 13  2  1  0
 13 20  1  0
 14 13  2  0
 16 15  1  0
 17 16  2  0
 18 16  1  0
 19 20  1  0
 19 18  1  6
 21 19  1  0
 22 21  2  0
 23 21  1  0
 24 23  1  0
 25 26  1  0
 25 24  1  0
 26 27  1  0
 27 23  1  0
 27 28  1  6
 28 29  2  0
 28 30  1  0
M  END
$$$$
