WNP.pdb
     RDKit          3D

 30 32  0  0  1  0  0  0  0  0999 V2000
   27.2119  -19.6507  -11.3707 N   0  0  0  0  0  0  0  0  0  0  0  0
   26.6080  -20.9529  -11.3656 C   0  0  1  0  0  0  0  0  0  0  0  0
   25.9343  -21.2594  -10.0538 C   0  0  0  0  0  0  0  0  0  0  0  0
   26.6846  -20.7746   -8.8760 C   0  0  0  0  0  0  0  0  0  0  0  0
   26.1844  -20.0023   -7.8213 C   0  0  0  0  0  0  0  0  0  0  0  0
   27.1760  -19.7412   -6.9559 N   0  0  0  0  0  0  0  0  0  0  0  0
   28.3198  -20.3066   -7.3860 C   0  0  0  0  0  0  0  0  0  0  0  0
   29.5776  -20.3056   -6.8208 C   0  0  0  0  0  0  0  0  0  0  0  0
   30.5791  -20.9818   -7.4814 C   0  0  0  0  0  0  0  0  0  0  0  0
   30.3261  -21.6307   -8.6592 C   0  0  0  0  0  0  0  0  0  0  0  0
   29.0513  -21.6126   -9.2013 C   0  0  0  0  0  0  0  0  0  0  0  0
   28.0185  -20.9538   -8.5849 C   0  0  0  0  0  0  0  0  0  0  0  0
   25.5499  -21.0030  -12.4114 C   0  0  0  0  0  0  0  0  0  0  0  0
   25.1087  -19.9055  -12.8461 O   0  0  0  0  0  0  0  0  0  0  0  0
   25.9308  -25.1279  -14.9867 N   0  0  0  0  0  0  0  0  0  0  0  0
   25.3038  -23.8889  -15.2963 C   0  0  0  0  0  0  0  0  0  0  0  0
   25.8267  -23.1575  -16.1464 O   0  0  0  0  0  0  0  0  0  0  0  0
   24.0690  -23.5647  -14.5773 C   0  0  0  0  0  0  0  0  0  0  0  0
   24.0649  -22.1565  -13.9907 C   0  0  2  0  0  0  0  0  0  0  0  0
   25.0459  -22.2291  -12.9118 N   0  0  0  0  0  0  0  0  0  0  0  0
   22.7543  -21.7526  -13.5097 C   0  0  0  0  0  0  0  0  0  0  0  0
   22.4281  -22.1329  -12.3436 O   0  0  0  0  0  0  0  0  0  0  0  0
   21.8646  -20.9837  -14.2526 N   0  0  0  0  0  0  0  0  0  0  0  0
   22.1500  -20.5362  -15.6239 C   0  0  0  0  0  0  0  0  0  0  0  0
   21.4160  -19.2318  -15.7307 C   0  0  0  0  0  0  0  0  0  0  0  0
   20.3189  -19.2603  -14.7241 C   0  0  0  0  0  0  0  0  0  0  0  0
   20.5497  -20.5225  -13.8985 C   0  0  1  0  0  0  0  0  0  0  0  0
   19.5300  -21.5384  -14.3556 C   0  0  0  0  0  0  0  0  0  0  0  0
   18.3899  -21.4680  -13.8590 O   0  0  0  0  0  0  0  0  0  0  0  0
   19.8563  -22.5053  -15.2885 O   0  0  0  0  0  0  0  0  0  0  0  0
  2  1  1  1
  2  3  1  0
  4  3  1  0
  4  5  2  0
  6  5  1  0
  7 12  2  0
  7  6  1  0
  8  7  1  0
  9 10  1  0
  9  8  2  0
 10 11  2  0
 11 12  1  0
 12  4  1  0
 13  2  1  0
 13 20  1  0
 14 13  2  0
 16 15  1  0
 17 16  2  0
 18 16  1  0
 19 20  1  0
 19 18  1  1
 21 19  1  0
 22 21  2  0
 23 21  1  0
 24 23  1  0
 25 26  1  0
 25 24  1  0
 26 27  1  0
 27 23  1  0
 27 28  1  6
 28 29  2  0
 28 30  1  0
M  END
$$$$
