WNP.pdb
     RDKit          3D

 30 32  0  0  1  0  0  0  0  0999 V2000
   18.8227  -23.5385  -12.9631 N   0  0  0  0  0  0  0  0  0  0  0  0
   19.7975  -22.5251  -12.6745 C   0  0  1  0  0  0  0  0  0  0  0  0
   20.7733  -22.9638  -11.6142 C   0  0  0  0  0  0  0  0  0  0  0  0
   21.6831  -21.8883  -11.1662 C   0  0  0  0  0  0  0  0  0  0  0  0
   21.3249  -20.7019  -10.5158 C   0  0  0  0  0  0  0  0  0  0  0  0
   22.4267  -19.9686  -10.2956 N   0  0  0  0  0  0  0  0  0  0  0  0
   23.5088  -20.6140  -10.7707 C   0  0  0  0  0  0  0  0  0  0  0  0
   24.8375  -20.2460  -10.7596 C   0  0  0  0  0  0  0  0  0  0  0  0
   25.7494  -21.1151  -11.3162 C   0  0  0  0  0  0  0  0  0  0  0  0
   25.3420  -22.3027  -11.8600 C   0  0  0  0  0  0  0  0  0  0  0  0
   23.9991  -22.6434  -11.8556 C   0  0  0  0  0  0  0  0  0  0  0  0
   23.0501  -21.8140  -11.3152 C   0  0  0  0  0  0  0  0  0  0  0  0
   20.5943  -22.2524  -13.9019 C   0  0  0  0  0  0  0  0  0  0  0  0
   20.9882  -23.2439  -14.5724 O   0  0  0  0  0  0  0  0  0  0  0  0
   22.8218  -20.3196  -17.9574 N   0  0  0  0  0  0  0  0  0  0  0  0
   21.5523  -19.7155  -17.7400 C   0  0  0  0  0  0  0  0  0  0  0  0
   21.0288  -19.0881  -18.6691 O   0  0  0  0  0  0  0  0  0  0  0  0
   20.9490  -19.8821  -16.4151 C   0  0  0  0  0  0  0  0  0  0  0  0
   21.7585  -20.7895  -15.4939 C   0  0  2  0  0  0  0  0  0  0  0  0
   20.9072  -20.9341  -14.3166 N   0  0  0  0  0  0  0  0  0  0  0  0
   23.0597  -20.2345  -15.1611 C   0  0  0  0  0  0  0  0  0  0  0  0
   23.0708  -19.1814  -14.4528 O   0  0  0  0  0  0  0  0  0  0  0  0
   24.2643  -20.7952  -15.5726 N   0  0  0  0  0  0  0  0  0  0  0  0
   24.3374  -22.0071  -16.4021 C   0  0  0  0  0  0  0  0  0  0  0  0
   25.6240  -22.6509  -15.9758 C   0  0  0  0  0  0  0  0  0  0  0  0
   26.4879  -21.5770  -15.4117 C   0  0  0  0  0  0  0  0  0  0  0  0
   25.6059  -20.3341  -15.3390 C   0  0  1  0  0  0  0  0  0  0  0  0
   26.0236  -19.4325  -16.4763 C   0  0  0  0  0  0  0  0  0  0  0  0
   25.3062  -19.4261  -17.4945 O   0  0  0  0  0  0  0  0  0  0  0  0
   27.1586  -18.6482  -16.3838 O   0  0  0  0  0  0  0  0  0  0  0  0
  2  1  1  6
  2  3  1  0
  4  3  1  0
  4  5  2  0
  6  5  1  0
  7 12  2  0
  7  6  1  0
  8  7  1  0
  9 10  1  0
  9  8  2  0
 10 11  2  0
 11 12  1  0
 12  4  1  0
 13  2  1  0
 13 20  1  0
 14 13  2  0
 16 15  1  0
 17 16  2  0
 18 16  1  0
 19 20  1  0
 19 18  1  6
 21 19  1  0
 22 21  2  0
 23 21  1  0
 24 23  1  0
 25 26  1  0
 25 24  1  0
 26 27  1  0
 27 23  1  0
 27 28  1  6
 28 29  2  0
 28 30  1  0
M  END
$$$$
