WNP.pdb
     RDKit          3D

 30 32  0  0  1  0  0  0  0  0999 V2000
   20.7226  -16.5614  -15.9906 N   0  0  0  0  0  0  0  0  0  0  0  0
   22.0760  -16.9783  -16.2247 C   0  0  1  0  0  0  0  0  0  0  0  0
   23.0621  -15.8681  -15.9717 C   0  0  0  0  0  0  0  0  0  0  0  0
   24.4528  -16.2194  -16.3292 C   0  0  0  0  0  0  0  0  0  0  0  0
   25.0301  -16.1714  -17.6033 C   0  0  0  0  0  0  0  0  0  0  0  0
   26.3026  -16.5903  -17.5279 N   0  0  0  0  0  0  0  0  0  0  0  0
   26.6027  -16.9164  -16.2564 C   0  0  0  0  0  0  0  0  0  0  0  0
   27.7815  -17.3835  -15.7147 C   0  0  0  0  0  0  0  0  0  0  0  0
   27.8122  -17.6312  -14.3603 C   0  0  0  0  0  0  0  0  0  0  0  0
   26.7052  -17.4179  -13.5849 C   0  0  0  0  0  0  0  0  0  0  0  0
   25.5355  -16.9481  -14.1598 C   0  0  0  0  0  0  0  0  0  0  0  0
   25.4509  -16.6863  -15.5033 C   0  0  0  0  0  0  0  0  0  0  0  0
   22.4175  -18.0767  -15.2798 C   0  0  0  0  0  0  0  0  0  0  0  0
   21.9915  -17.9810  -14.0977 O   0  0  0  0  0  0  0  0  0  0  0  0
   22.2706  -23.0716  -13.5824 N   0  0  0  0  0  0  0  0  0  0  0  0
   23.3621  -22.6553  -14.3944 C   0  0  0  0  0  0  0  0  0  0  0  0
   24.4301  -23.2747  -14.3128 O   0  0  0  0  0  0  0  0  0  0  0  0
   23.1397  -21.5090  -15.2796 C   0  0  0  0  0  0  0  0  0  0  0  0
   23.5244  -20.1752  -14.6470 C   0  0  2  0  0  0  0  0  0  0  0  0
   23.1907  -19.1957  -15.6769 N   0  0  0  0  0  0  0  0  0  0  0  0
   24.9272  -20.1157  -14.2718 C   0  0  0  0  0  0  0  0  0  0  0  0
   25.7361  -19.6698  -15.1423 O   0  0  0  0  0  0  0  0  0  0  0  0
   25.4098  -20.5138  -13.0296 N   0  0  0  0  0  0  0  0  0  0  0  0
   24.5468  -21.0838  -11.9843 C   0  0  0  0  0  0  0  0  0  0  0  0
   25.2078  -20.6559  -10.7071 C   0  0  0  0  0  0  0  0  0  0  0  0
   26.6422  -20.4026  -11.0170 C   0  0  0  0  0  0  0  0  0  0  0  0
   26.7598  -20.5025  -12.5349 C   0  0  1  0  0  0  0  0  0  0  0  0
   27.4083  -21.8323  -12.8383 C   0  0  0  0  0  0  0  0  0  0  0  0
   26.6564  -22.8125  -12.9976 O   0  0  0  0  0  0  0  0  0  0  0  0
   28.7827  -21.9494  -12.9337 O   0  0  0  0  0  0  0  0  0  0  0  0
  2  1  1  1
  2  3  1  0
  4  3  1  0
  4  5  2  0
  6  5  1  0
  7 12  2  0
  7  6  1  0
  8  7  1  0
  9 10  1  0
  9  8  2  0
 10 11  2  0
 11 12  1  0
 12  4  1  0
 13  2  1  0
 13 20  1  0
 14 13  2  0
 16 15  1  0
 17 16  2  0
 18 16  1  0
 19 20  1  0
 19 18  1  6
 21 19  1  0
 22 21  2  0
 23 21  1  0
 24 23  1  0
 25 26  1  0
 25 24  1  0
 26 27  1  0
 27 23  1  0
 27 28  1  1
 28 29  2  0
 28 30  1  0
M  END
$$$$
