WNP.pdb
     RDKit          3D

 30 32  0  0  1  0  0  0  0  0999 V2000
   16.5479  -10.4771  -10.0477 N   0  0  0  0  0  0  0  0  0  0  0  0
   16.1669   -9.5313  -11.0581 C   0  0  1  0  0  0  0  0  0  0  0  0
   14.7617   -9.0264  -10.8599 C   0  0  0  0  0  0  0  0  0  0  0  0
   13.7599  -10.1046  -10.7207 C   0  0  0  0  0  0  0  0  0  0  0  0
   13.6709  -11.2722  -11.4872 C   0  0  0  0  0  0  0  0  0  0  0  0
   12.6144  -11.9905  -11.0772 N   0  0  0  0  0  0  0  0  0  0  0  0
   11.9918  -11.3535  -10.0674 C   0  0  0  0  0  0  0  0  0  0  0  0
   10.8778  -11.7179   -9.3411 C   0  0  0  0  0  0  0  0  0  0  0  0
   10.4558  -10.8682   -8.3428 C   0  0  0  0  0  0  0  0  0  0  0  0
   11.1256   -9.7029   -8.0864 C   0  0  0  0  0  0  0  0  0  0  0  0
   12.2417   -9.3652   -8.8345 C   0  0  0  0  0  0  0  0  0  0  0  0
   12.7034  -10.1750   -9.8403 C   0  0  0  0  0  0  0  0  0  0  0  0
   17.0625   -8.3450  -10.9770 C   0  0  0  0  0  0  0  0  0  0  0  0
   17.2921   -7.8661   -9.8343 O   0  0  0  0  0  0  0  0  0  0  0  0
   21.5328   -6.8963  -12.3340 N   0  0  0  0  0  0  0  0  0  0  0  0
   20.3728   -7.3377  -13.0293 C   0  0  0  0  0  0  0  0  0  0  0  0
   20.3634   -8.4834  -13.4966 O   0  0  0  0  0  0  0  0  0  0  0  0
   19.2593   -6.3922  -13.1429 C   0  0  0  0  0  0  0  0  0  0  0  0
   18.2869   -6.4621  -11.9695 C   0  0  2  0  0  0  0  0  0  0  0  0
   17.6445   -7.7632  -12.1305 N   0  0  0  0  0  0  0  0  0  0  0  0
   17.3234   -5.3741  -11.9734 C   0  0  0  0  0  0  0  0  0  0  0  0
   16.3194   -5.4987  -12.7397 O   0  0  0  0  0  0  0  0  0  0  0  0
   17.4491   -4.2311  -11.1908 N   0  0  0  0  0  0  0  0  0  0  0  0
   18.5899   -4.0021  -10.2916 C   0  0  0  0  0  0  0  0  0  0  0  0
   18.0056   -3.1804   -9.1804 C   0  0  0  0  0  0  0  0  0  0  0  0
   16.8025   -2.4934   -9.7266 C   0  0  0  0  0  0  0  0  0  0  0  0
   16.5871   -3.0828  -11.1173 C   0  0  1  0  0  0  0  0  0  0  0  0
   17.0579   -2.0471  -12.1106 C   0  0  0  0  0  0  0  0  0  0  0  0
   18.1574   -2.2418  -12.6624 O   0  0  0  0  0  0  0  0  0  0  0  0
   16.2934   -0.9297  -12.3911 O   0  0  0  0  0  0  0  0  0  0  0  0
  2  1  1  1
  2  3  1  0
  4  3  1  0
  4  5  2  0
  6  5  1  0
  7 12  2  0
  7  6  1  0
  8  7  1  0
  9 10  1  0
  9  8  2  0
 10 11  2  0
 11 12  1  0
 12  4  1  0
 13  2  1  0
 13 20  1  0
 14 13  2  0
 16 15  1  0
 17 16  2  0
 18 16  1  0
 19 20  1  0
 19 18  1  6
 21 19  1  0
 22 21  2  0
 23 21  1  0
 24 23  1  0
 25 26  1  0
 25 24  1  0
 26 27  1  0
 27 23  1  0
 27 28  1  6
 28 29  2  0
 28 30  1  0
M  END
$$$$
