WNP.pdb
     RDKit          3D

 30 32  0  0  1  0  0  0  0  0999 V2000
   27.5528  -20.3455  -11.5208 N   0  0  0  0  0  0  0  0  0  0  0  0
   26.6588  -21.4683  -11.4963 C   0  0  1  0  0  0  0  0  0  0  0  0
   25.8971  -21.5572  -10.1998 C   0  0  0  0  0  0  0  0  0  0  0  0
   26.4589  -20.7124   -9.1246 C   0  0  0  0  0  0  0  0  0  0  0  0
   25.8037  -19.6867   -8.4336 C   0  0  0  0  0  0  0  0  0  0  0  0
   26.6515  -19.1367   -7.5510 N   0  0  0  0  0  0  0  0  0  0  0  0
   27.8476  -19.7512   -7.6211 C   0  0  0  0  0  0  0  0  0  0  0  0
   29.0042  -19.5260   -6.9050 C   0  0  0  0  0  0  0  0  0  0  0  0
   30.0948  -20.3208   -7.1800 C   0  0  0  0  0  0  0  0  0  0  0  0
   30.0245  -21.2995   -8.1337 C   0  0  0  0  0  0  0  0  0  0  0  0
   28.8474  -21.5004   -8.8361 C   0  0  0  0  0  0  0  0  0  0  0  0
   27.7327  -20.7366   -8.6021 C   0  0  0  0  0  0  0  0  0  0  0  0
   25.6469  -21.3085  -12.5763 C   0  0  0  0  0  0  0  0  0  0  0  0
   25.4158  -20.1407  -12.9892 O   0  0  0  0  0  0  0  0  0  0  0  0
   25.6550  -25.1667  -15.1776 N   0  0  0  0  0  0  0  0  0  0  0  0
   25.0597  -23.9486  -15.6084 C   0  0  0  0  0  0  0  0  0  0  0  0
   25.5800  -23.3361  -16.5492 O   0  0  0  0  0  0  0  0  0  0  0  0
   23.8585  -23.5019  -14.8981 C   0  0  0  0  0  0  0  0  0  0  0  0
   24.0275  -22.1450  -14.2218 C   0  0  2  0  0  0  0  0  0  0  0  0
   24.9599  -22.4165  -13.1315 N   0  0  0  0  0  0  0  0  0  0  0  0
   22.7704  -21.5972  -13.7405 C   0  0  0  0  0  0  0  0  0  0  0  0
   22.3934  -21.9558  -12.5828 O   0  0  0  0  0  0  0  0  0  0  0  0
   21.9830  -20.7162  -14.4743 N   0  0  0  0  0  0  0  0  0  0  0  0
   22.3555  -20.2415  -15.8152 C   0  0  0  0  0  0  0  0  0  0  0  0
   21.7521  -18.8695  -15.8854 C   0  0  0  0  0  0  0  0  0  0  0  0
   20.6239  -18.8345  -14.9140 C   0  0  0  0  0  0  0  0  0  0  0  0
   20.7063  -20.1462  -14.1391 C   0  0  1  0  0  0  0  0  0  0  0  0
   19.6111  -21.0397  -14.6710 C   0  0  0  0  0  0  0  0  0  0  0  0
   19.9219  -21.8628  -15.5527 O   0  0  0  0  0  0  0  0  0  0  0  0
   18.3172  -20.9422  -14.1936 O   0  0  0  0  0  0  0  0  0  0  0  0
  2  1  1  1
  2  3  1  0
  4  3  1  0
  4  5  2  0
  6  5  1  0
  7 12  2  0
  7  6  1  0
  8  7  1  0
  9 10  1  0
  9  8  2  0
 10 11  2  0
 11 12  1  0
 12  4  1  0
 13  2  1  0
 13 20  1  0
 14 13  2  0
 16 15  1  0
 17 16  2  0
 18 16  1  0
 19 20  1  0
 19 18  1  1
 21 19  1  0
 22 21  2  0
 23 21  1  0
 24 23  1  0
 25 26  1  0
 25 24  1  0
 26 27  1  0
 27 23  1  0
 27 28  1  6
 28 29  2  0
 28 30  1  0
M  END
$$$$
