WNP.pdb
     RDKit          3D

 30 32  0  0  1  0  0  0  0  0999 V2000
   16.6869  -13.4634    4.9925 N   0  0  0  0  0  0  0  0  0  0  0  0
   17.2869  -14.7509    5.1996 C   0  0  1  0  0  0  0  0  0  0  0  0
   18.4185  -15.0091    4.2395 C   0  0  0  0  0  0  0  0  0  0  0  0
   17.9686  -15.3743    2.8795 C   0  0  0  0  0  0  0  0  0  0  0  0
   17.7634  -14.5058    1.8013 C   0  0  0  0  0  0  0  0  0  0  0  0
   17.3307  -15.2089    0.7437 N   0  0  0  0  0  0  0  0  0  0  0  0
   17.2379  -16.5126    1.0675 C   0  0  0  0  0  0  0  0  0  0  0  0
   16.8470  -17.5913    0.3027 C   0  0  0  0  0  0  0  0  0  0  0  0
   16.8542  -18.8347    0.8949 C   0  0  0  0  0  0  0  0  0  0  0  0
   17.2382  -18.9860    2.1994 C   0  0  0  0  0  0  0  0  0  0  0  0
   17.6254  -17.8819    2.9412 C   0  0  0  0  0  0  0  0  0  0  0  0
   17.6356  -16.6217    2.4004 C   0  0  0  0  0  0  0  0  0  0  0  0
   17.8683  -14.8024    6.5690 C   0  0  0  0  0  0  0  0  0  0  0  0
   18.5629  -13.8201    6.9438 O   0  0  0  0  0  0  0  0  0  0  0  0
   15.1204  -16.8433    9.9064 N   0  0  0  0  0  0  0  0  0  0  0  0
   16.3098  -16.0641    9.9509 C   0  0  0  0  0  0  0  0  0  0  0  0
   16.2227  -14.8689   10.2588 O   0  0  0  0  0  0  0  0  0  0  0  0
   17.5673  -16.7417    9.6248 C   0  0  0  0  0  0  0  0  0  0  0  0
   18.4463  -15.9505    8.6612 C   0  0  2  0  0  0  0  0  0  0  0  0
   17.6586  -15.9059    7.4328 N   0  0  0  0  0  0  0  0  0  0  0  0
   19.7464  -16.5657    8.4533 C   0  0  0  0  0  0  0  0  0  0  0  0
   19.8382  -17.4097    7.5099 O   0  0  0  0  0  0  0  0  0  0  0  0
   20.8680  -16.2748    9.2228 N   0  0  0  0  0  0  0  0  0  0  0  0
   20.8439  -15.3144   10.3360 C   0  0  0  0  0  0  0  0  0  0  0  0
   22.2359  -14.7543   10.3506 C   0  0  0  0  0  0  0  0  0  0  0  0
   23.1229  -15.7625    9.7069 C   0  0  0  0  0  0  0  0  0  0  0  0
   22.1913  -16.8315    9.1438 C   0  0  1  0  0  0  0  0  0  0  0  0
   22.2820  -18.0232   10.0672 C   0  0  0  0  0  0  0  0  0  0  0  0
   21.3647  -18.1761   10.8958 O   0  0  0  0  0  0  0  0  0  0  0  0
   23.3441  -18.9051    9.9900 O   0  0  0  0  0  0  0  0  0  0  0  0
  2  1  1  6
  2  3  1  0
  4  3  1  0
  4  5  2  0
  6  5  1  0
  7 12  2  0
  7  6  1  0
  8  7  1  0
  9 10  1  0
  9  8  2  0
 10 11  2  0
 11 12  1  0
 12  4  1  0
 13  2  1  0
 13 20  1  0
 14 13  2  0
 16 15  1  0
 17 16  2  0
 18 16  1  0
 19 20  1  0
 19 18  1  1
 21 19  1  0
 22 21  2  0
 23 21  1  0
 24 23  1  0
 25 26  1  0
 25 24  1  0
 26 27  1  0
 27 23  1  0
 27 28  1  1
 28 29  2  0
 28 30  1  0
M  END
$$$$
