WNP.pdb
     RDKit          3D

 30 32  0  0  1  0  0  0  0  0999 V2000
   26.5472  -22.7738  -11.7058 N   0  0  0  0  0  0  0  0  0  0  0  0
   25.8156  -21.7647  -10.9936 C   0  0  1  0  0  0  0  0  0  0  0  0
   26.6062  -20.4912  -10.8449 C   0  0  0  0  0  0  0  0  0  0  0  0
   27.7461  -20.6083   -9.9110 C   0  0  0  0  0  0  0  0  0  0  0  0
   29.0356  -21.0612  -10.2124 C   0  0  0  0  0  0  0  0  0  0  0  0
   29.7810  -21.0471   -9.0969 N   0  0  0  0  0  0  0  0  0  0  0  0
   29.0453  -20.6030   -8.0603 C   0  0  0  0  0  0  0  0  0  0  0  0
   29.3940  -20.4186   -6.7390 C   0  0  0  0  0  0  0  0  0  0  0  0
   28.4301  -19.9363   -5.8816 C   0  0  0  0  0  0  0  0  0  0  0  0
   27.1706  -19.6518   -6.3341 C   0  0  0  0  0  0  0  0  0  0  0  0
   26.8516  -19.8482   -7.6679 C   0  0  0  0  0  0  0  0  0  0  0  0
   27.7734  -20.3270   -8.5632 C   0  0  0  0  0  0  0  0  0  0  0  0
   24.5889  -21.4188  -11.7627 C   0  0  0  0  0  0  0  0  0  0  0  0
   24.5981  -21.6394  -13.0033 O   0  0  0  0  0  0  0  0  0  0  0  0
   21.0111  -22.8883  -10.9283 N   0  0  0  0  0  0  0  0  0  0  0  0
   20.5182  -21.6480  -10.4357 C   0  0  0  0  0  0  0  0  0  0  0  0
   19.5968  -21.6635   -9.6101 O   0  0  0  0  0  0  0  0  0  0  0  0
   21.1452  -20.4268  -10.9481 C   0  0  0  0  0  0  0  0  0  0  0  0
   22.2505  -20.6971  -11.9642 C   0  0  2  0  0  0  0  0  0  0  0  0
   23.4442  -20.8623  -11.1400 N   0  0  0  0  0  0  0  0  0  0  0  0
   22.3996  -19.6222  -12.9308 C   0  0  0  0  0  0  0  0  0  0  0  0
   23.0531  -18.6004  -12.5571 O   0  0  0  0  0  0  0  0  0  0  0  0
   21.8725  -19.6646  -14.2173 N   0  0  0  0  0  0  0  0  0  0  0  0
   21.0411  -20.7764  -14.7019 C   0  0  0  0  0  0  0  0  0  0  0  0
   21.3397  -20.8274  -16.1715 C   0  0  0  0  0  0  0  0  0  0  0  0
   21.8152  -19.4740  -16.5713 C   0  0  0  0  0  0  0  0  0  0  0  0
   21.9728  -18.6916  -15.2710 C   0  0  1  0  0  0  0  0  0  0  0  0
   20.7991  -17.7453  -15.1832 C   0  0  0  0  0  0  0  0  0  0  0  0
   19.8553  -18.0718  -14.4388 O   0  0  0  0  0  0  0  0  0  0  0  0
   20.7799  -16.5652  -15.9034 O   0  0  0  0  0  0  0  0  0  0  0  0
  2  1  1  6
  2  3  1  0
  4  3  1  0
  4  5  2  0
  6  5  1  0
  7 12  2  0
  7  6  1  0
  8  7  1  0
  9 10  1  0
  9  8  2  0
 10 11  2  0
 11 12  1  0
 12  4  1  0
 13  2  1  0
 13 20  1  0
 14 13  2  0
 16 15  1  0
 17 16  2  0
 18 16  1  0
 19 20  1  0
 19 18  1  1
 21 19  1  0
 22 21  2  0
 23 21  1  0
 24 23  1  0
 25 26  1  0
 25 24  1  0
 26 27  1  0
 27 23  1  0
 27 28  1  1
 28 29  2  0
 28 30  1  0
M  END
$$$$
