WNP.pdb
     RDKit          3D

 30 32  0  0  1  0  0  0  0  0999 V2000
   22.3933  -18.2765  -16.6944 N   0  0  0  0  0  0  0  0  0  0  0  0
   23.7086  -18.1319  -16.1379 C   0  0  1  0  0  0  0  0  0  0  0  0
   23.8817  -16.8142  -15.4291 C   0  0  0  0  0  0  0  0  0  0  0  0
   24.8959  -15.9368  -16.0509 C   0  0  0  0  0  0  0  0  0  0  0  0
   24.6897  -14.6561  -16.5765 C   0  0  0  0  0  0  0  0  0  0  0  0
   25.8455  -14.1919  -17.0755 N   0  0  0  0  0  0  0  0  0  0  0  0
   26.8180  -15.1075  -16.9059 C   0  0  0  0  0  0  0  0  0  0  0  0
   28.1514  -15.0609  -17.2541 C   0  0  0  0  0  0  0  0  0  0  0  0
   28.9335  -16.1526  -16.9490 C   0  0  0  0  0  0  0  0  0  0  0  0
   28.3973  -17.2436  -16.3208 C   0  0  0  0  0  0  0  0  0  0  0  0
   27.0535  -17.2595  -15.9843 C   0  0  0  0  0  0  0  0  0  0  0  0
   26.2305  -16.1994  -16.2659 C   0  0  0  0  0  0  0  0  0  0  0  0
   23.9264  -19.1964  -15.1204 C   0  0  0  0  0  0  0  0  0  0  0  0
   22.9425  -19.5300  -14.4073 O   0  0  0  0  0  0  0  0  0  0  0  0
   25.4481  -23.9963  -14.9267 N   0  0  0  0  0  0  0  0  0  0  0  0
   25.8270  -22.6974  -15.3665 C   0  0  0  0  0  0  0  0  0  0  0  0
   25.6971  -22.4174  -16.5647 O   0  0  0  0  0  0  0  0  0  0  0  0
   26.3499  -21.7740  -14.3563 C   0  0  0  0  0  0  0  0  0  0  0  0
   25.3085  -20.7802  -13.8512 C   0  0  2  0  0  0  0  0  0  0  0  0
   25.1855  -19.8226  -14.9464 N   0  0  0  0  0  0  0  0  0  0  0  0
   25.7013  -20.1389  -12.6076 C   0  0  0  0  0  0  0  0  0  0  0  0
   26.4248  -19.1003  -12.7006 O   0  0  0  0  0  0  0  0  0  0  0  0
   25.3258  -20.6010  -11.3506 N   0  0  0  0  0  0  0  0  0  0  0  0
   24.4650  -21.7775  -11.1582 C   0  0  0  0  0  0  0  0  0  0  0  0
   23.7299  -21.4741   -9.8857 C   0  0  0  0  0  0  0  0  0  0  0  0
   24.5608  -20.5061   -9.1174 C   0  0  0  0  0  0  0  0  0  0  0  0
   25.6965  -20.1037  -10.0535 C   0  0  1  0  0  0  0  0  0  0  0  0
   26.9332  -20.8303   -9.5807 C   0  0  0  0  0  0  0  0  0  0  0  0
   27.2604  -21.8628  -10.1956 O   0  0  0  0  0  0  0  0  0  0  0  0
   27.6679  -20.3620   -8.5071 O   0  0  0  0  0  0  0  0  0  0  0  0
  2  1  1  1
  2  3  1  0
  4  3  1  0
  4  5  2  0
  6  5  1  0
  7 12  2  0
  7  6  1  0
  8  7  1  0
  9 10  1  0
  9  8  2  0
 10 11  2  0
 11 12  1  0
 12  4  1  0
 13  2  1  0
 13 20  1  0
 14 13  2  0
 16 15  1  0
 17 16  2  0
 18 16  1  0
 19 20  1  0
 19 18  1  6
 21 19  1  0
 22 21  2  0
 23 21  1  0
 24 23  1  0
 25 26  1  0
 25 24  1  0
 26 27  1  0
 27 23  1  0
 27 28  1  1
 28 29  2  0
 28 30  1  0
M  END
$$$$
