WNP.pdb
     RDKit          3D

 30 32  0  0  1  0  0  0  0  0999 V2000
   21.9293  -13.9472  -17.5851 N   0  0  0  0  0  0  0  0  0  0  0  0
   22.6472  -12.9277  -16.8739 C   0  0  1  0  0  0  0  0  0  0  0  0
   23.9051  -12.5151  -17.5924 C   0  0  0  0  0  0  0  0  0  0  0  0
   25.0000  -13.5022  -17.4823 C   0  0  0  0  0  0  0  0  0  0  0  0
   24.9840  -14.8278  -17.9312 C   0  0  0  0  0  0  0  0  0  0  0  0
   26.1530  -15.4116  -17.6267 N   0  0  0  0  0  0  0  0  0  0  0  0
   26.9524  -14.5327  -16.9930 C   0  0  0  0  0  0  0  0  0  0  0  0
   28.2327  -14.6891  -16.5056 C   0  0  0  0  0  0  0  0  0  0  0  0
   28.8262  -13.6041  -15.8995 C   0  0  0  0  0  0  0  0  0  0  0  0
   28.1604  -12.4138  -15.7888 C   0  0  0  0  0  0  0  0  0  0  0  0
   26.8744  -12.2891  -16.2887 C   0  0  0  0  0  0  0  0  0  0  0  0
   26.2373  -13.3382  -16.9004 C   0  0  0  0  0  0  0  0  0  0  0  0
   21.7942  -11.7119  -16.7733 C   0  0  0  0  0  0  0  0  0  0  0  0
   21.1645  -11.3556  -17.8050 O   0  0  0  0  0  0  0  0  0  0  0  0
   19.0007   -7.7903  -15.4039 N   0  0  0  0  0  0  0  0  0  0  0  0
   18.5674   -9.0765  -14.9772 C   0  0  0  0  0  0  0  0  0  0  0  0
   17.3900   -9.2169  -14.6238 O   0  0  0  0  0  0  0  0  0  0  0  0
   19.5591  -10.1550  -14.9873 C   0  0  0  0  0  0  0  0  0  0  0  0
   20.8885   -9.7459  -15.6138 C   0  0  2  0  0  0  0  0  0  0  0  0
   21.6819  -10.9708  -15.5708 N   0  0  0  0  0  0  0  0  0  0  0  0
   21.5320   -8.6541  -14.9025 C   0  0  0  0  0  0  0  0  0  0  0  0
   21.8921   -8.8810  -13.7068 O   0  0  0  0  0  0  0  0  0  0  0  0
   21.7672   -7.4027  -15.4622 N   0  0  0  0  0  0  0  0  0  0  0  0
   21.3605   -7.0526  -16.8313 C   0  0  0  0  0  0  0  0  0  0  0  0
   22.3929   -6.0529  -17.2625 C   0  0  0  0  0  0  0  0  0  0  0  0
   22.9565   -5.4412  -16.0273 C   0  0  0  0  0  0  0  0  0  0  0  0
   22.3729   -6.2424  -14.8674 C   0  0  1  0  0  0  0  0  0  0  0  0
   21.2956   -5.3882  -14.2422 C   0  0  0  0  0  0  0  0  0  0  0  0
   20.1173   -5.6221  -14.5711 O   0  0  0  0  0  0  0  0  0  0  0  0
   21.6125   -4.3883  -13.3415 O   0  0  0  0  0  0  0  0  0  0  0  0
  2  1  1  6
  2  3  1  0
  4  3  1  0
  4  5  2  0
  6  5  1  0
  7 12  2  0
  7  6  1  0
  8  7  1  0
  9 10  1  0
  9  8  2  0
 10 11  2  0
 11 12  1  0
 12  4  1  0
 13  2  1  0
 13 20  1  0
 14 13  2  0
 16 15  1  0
 17 16  2  0
 18 16  1  0
 19 20  1  0
 19 18  1  1
 21 19  1  0
 22 21  2  0
 23 21  1  0
 24 23  1  0
 25 26  1  0
 25 24  1  0
 26 27  1  0
 27 23  1  0
 27 28  1  6
 28 29  2  0
 28 30  1  0
M  END
$$$$
