WNP.pdb
     RDKit          3D

 30 32  0  0  1  0  0  0  0  0999 V2000
   14.9684  -14.2233    4.4922 N   0  0  0  0  0  0  0  0  0  0  0  0
   16.2991  -14.6665    4.7973 C   0  0  1  0  0  0  0  0  0  0  0  0
   16.8403  -14.0172    6.0440 C   0  0  0  0  0  0  0  0  0  0  0  0
   18.0774  -13.2405    5.8172 C   0  0  0  0  0  0  0  0  0  0  0  0
   18.2725  -12.2300    4.8686 C   0  0  0  0  0  0  0  0  0  0  0  0
   19.5349  -11.7831    4.9523 N   0  0  0  0  0  0  0  0  0  0  0  0
   20.1941  -12.4513    5.9178 C   0  0  0  0  0  0  0  0  0  0  0  0
   21.4958  -12.3244    6.3545 C   0  0  0  0  0  0  0  0  0  0  0  0
   21.9116  -13.1433    7.3808 C   0  0  0  0  0  0  0  0  0  0  0  0
   21.0549  -14.0501    7.9430 C   0  0  0  0  0  0  0  0  0  0  0  0
   19.7528  -14.1533    7.4812 C   0  0  0  0  0  0  0  0  0  0  0  0
   19.2883  -13.3626    6.4616 C   0  0  0  0  0  0  0  0  0  0  0  0
   16.2770  -16.1326    5.0542 C   0  0  0  0  0  0  0  0  0  0  0  0
   15.3707  -16.5778    5.8079 O   0  0  0  0  0  0  0  0  0  0  0  0
   15.9329  -19.7723    2.3019 N   0  0  0  0  0  0  0  0  0  0  0  0
   17.1311  -19.0194    2.4482 C   0  0  0  0  0  0  0  0  0  0  0  0
   17.5011  -18.3074    1.5064 O   0  0  0  0  0  0  0  0  0  0  0  0
   17.8491  -19.1430    3.7195 C   0  0  0  0  0  0  0  0  0  0  0  0
   17.1642  -18.4150    4.8720 C   0  0  2  0  0  0  0  0  0  0  0  0
   17.2307  -17.0099    4.4809 N   0  0  0  0  0  0  0  0  0  0  0  0
   17.8102  -18.6562    6.1513 C   0  0  0  0  0  0  0  0  0  0  0  0
   18.8209  -17.9402    6.4283 O   0  0  0  0  0  0  0  0  0  0  0  0
   17.3780  -19.6123    7.0643 N   0  0  0  0  0  0  0  0  0  0  0  0
   16.1484  -20.3964    6.8756 C   0  0  0  0  0  0  0  0  0  0  0  0
   15.6795  -20.6622    8.2759 C   0  0  0  0  0  0  0  0  0  0  0  0
   16.8709  -20.5683    9.1644 C   0  0  0  0  0  0  0  0  0  0  0  0
   18.0033  -20.0515    8.2821 C   0  0  1  0  0  0  0  0  0  0  0  0
   18.8979  -21.2305    7.9809 C   0  0  0  0  0  0  0  0  0  0  0  0
   19.5977  -21.6705    8.9127 O   0  0  0  0  0  0  0  0  0  0  0  0
   18.9335  -21.7937    6.7187 O   0  0  0  0  0  0  0  0  0  0  0  0
  2  1  1  1
  2  3  1  0
  4  3  1  0
  4  5  2  0
  6  5  1  0
  7 12  2  0
  7  6  1  0
  8  7  1  0
  9 10  1  0
  9  8  2  0
 10 11  2  0
 11 12  1  0
 12  4  1  0
 13  2  1  0
 13 20  1  0
 14 13  2  0
 16 15  1  0
 17 16  2  0
 18 16  1  0
 19 20  1  0
 19 18  1  6
 21 19  1  0
 22 21  2  0
 23 21  1  0
 24 23  1  0
 25 26  1  0
 25 24  1  0
 26 27  1  0
 27 23  1  0
 27 28  1  6
 28 29  2  0
 28 30  1  0
M  END
$$$$
