WGS.pdb
     RDKit          3D

 25 26  0  0  1  0  0  0  0  0999 V2000
   26.4256  -21.1574  -11.8767 N   0  0  0  0  0  0  0  0  0  0  0  0
   25.3058  -21.2537  -10.9803 C   0  0  1  0  0  0  0  0  0  0  0  0
   25.6075  -20.5696   -9.6624 C   0  0  0  0  0  0  0  0  0  0  0  0
   27.0403  -20.7632   -9.3349 C   0  0  0  0  0  0  0  0  0  0  0  0
   27.9585  -21.4484  -10.0844 C   0  0  0  0  0  0  0  0  0  0  0  0
   29.1381  -21.3914   -9.4480 N   0  0  0  0  0  0  0  0  0  0  0  0
   29.0193  -20.6922   -8.3091 C   0  0  0  0  0  0  0  0  0  0  0  0
   29.9021  -20.3384   -7.3014 C   0  0  0  0  0  0  0  0  0  0  0  0
   29.4987  -19.5951   -6.2172 C   0  0  0  0  0  0  0  0  0  0  0  0
   28.1708  -19.2118   -6.1698 C   0  0  0  0  0  0  0  0  0  0  0  0
   27.2659  -19.5512   -7.1632 C   0  0  0  0  0  0  0  0  0  0  0  0
   27.7040  -20.2944   -8.2317 C   0  0  0  0  0  0  0  0  0  0  0  0
   24.0722  -20.6716  -11.6061 C   0  0  0  0  0  0  0  0  0  0  0  0
   22.9870  -20.6042  -10.9839 O   0  0  0  0  0  0  0  0  0  0  0  0
   24.0740  -20.1628  -12.9490 N   0  0  0  0  0  0  0  0  0  0  0  0
   22.8670  -19.6742  -13.5352 C   0  0  0  0  0  0  0  0  0  0  0  0
   21.9741  -20.8023  -13.8878 C   0  0  0  0  0  0  0  0  0  0  0  0
   22.4530  -21.8618  -14.4140 O   0  0  0  0  0  0  0  0  0  0  0  0
   19.5271  -24.0217  -12.4080 O   0  0  0  0  0  0  0  0  0  0  0  0
   20.3264  -22.8774  -12.4183 C   0  0  0  0  0  0  0  0  0  0  0  0
   19.8345  -22.0009  -13.5446 C   0  0  2  0  0  0  0  0  0  0  0  0
   20.5739  -20.7865  -13.6741 N   0  0  0  0  0  0  0  0  0  0  0  0
   18.4068  -21.6962  -13.3465 C   0  0  0  0  0  0  0  0  0  0  0  0
   18.0360  -20.7093  -12.6583 O   0  0  0  0  0  0  0  0  0  0  0  0
   17.4507  -22.5101  -13.9280 O   0  0  0  0  0  0  0  0  0  0  0  0
  2  1  1  6
  2 13  1  0
  3  2  1  0
  4  3  1  0
  5  4  2  0
  6  5  1  0
  7  6  1  0
  7 12  2  0
  8  9  2  0
  8  7  1  0
  9 10  1  0
 10 11  2  0
 12 11  1  0
 12  4  1  0
 13 14  2  0
 13 15  1  0
 15 16  1  0
 17 18  2  0
 17 16  1  0
 21 20  1  1
 20 19  1  0
 21 22  1  0
 22 17  1  0
 23 21  1  0
 24 23  2  0
 25 23  1  0
M  END
$$$$
