WGS.pdb
     RDKit          3D

 25 26  0  0  1  0  0  0  0  0999 V2000
   25.5804  -19.7460   -9.4929 N   0  0  0  0  0  0  0  0  0  0  0  0
   26.8531  -20.3328   -9.8132 C   0  0  1  0  0  0  0  0  0  0  0  0
   27.4016  -21.1115   -8.6348 C   0  0  0  0  0  0  0  0  0  0  0  0
   27.7057  -20.1683   -7.5323 C   0  0  0  0  0  0  0  0  0  0  0  0
   27.3664  -18.8429   -7.4817 C   0  0  0  0  0  0  0  0  0  0  0  0
   27.8201  -18.3432   -6.3223 N   0  0  0  0  0  0  0  0  0  0  0  0
   28.4435  -19.2983   -5.6159 C   0  0  0  0  0  0  0  0  0  0  0  0
   29.0788  -19.3238   -4.3848 C   0  0  0  0  0  0  0  0  0  0  0  0
   29.6480  -20.4739   -3.8905 C   0  0  0  0  0  0  0  0  0  0  0  0
   29.5622  -21.6109   -4.6731 C   0  0  0  0  0  0  0  0  0  0  0  0
   28.9329  -21.6144   -5.9080 C   0  0  0  0  0  0  0  0  0  0  0  0
   28.3754  -20.4476   -6.3702 C   0  0  0  0  0  0  0  0  0  0  0  0
   26.7427  -21.2148  -11.0224 C   0  0  0  0  0  0  0  0  0  0  0  0
   27.6880  -21.9502  -11.3898 O   0  0  0  0  0  0  0  0  0  0  0  0
   25.5484  -21.2599  -11.8185 N   0  0  0  0  0  0  0  0  0  0  0  0
   25.5951  -21.7498  -13.1591 C   0  0  0  0  0  0  0  0  0  0  0  0
   24.2345  -21.7745  -13.7444 C   0  0  0  0  0  0  0  0  0  0  0  0
   23.4368  -20.7956  -13.5599 O   0  0  0  0  0  0  0  0  0  0  0  0
   22.6043  -25.1012  -15.4667 O   0  0  0  0  0  0  0  0  0  0  0  0
   22.1770  -23.9218  -16.0789 C   0  0  0  0  0  0  0  0  0  0  0  0
   22.4368  -22.7963  -15.1069 C   0  0  2  0  0  0  0  0  0  0  0  0
   23.7386  -22.8488  -14.5231 N   0  0  0  0  0  0  0  0  0  0  0  0
   21.4142  -22.8129  -14.0466 C   0  0  0  0  0  0  0  0  0  0  0  0
   21.7143  -23.0632  -12.8498 O   0  0  0  0  0  0  0  0  0  0  0  0
   20.0951  -22.5480  -14.3697 O   0  0  0  0  0  0  0  0  0  0  0  0
  2  1  1  1
  2 13  1  0
  3  2  1  0
  4  3  1  0
  5  4  2  0
  6  5  1  0
  7  6  1  0
  7 12  2  0
  8  9  2  0
  8  7  1  0
  9 10  1  0
 10 11  2  0
 12 11  1  0
 12  4  1  0
 13 14  2  0
 13 15  1  0
 15 16  1  0
 17 18  2  0
 17 16  1  0
 21 20  1  6
 20 19  1  0
 21 22  1  0
 22 17  1  0
 23 21  1  0
 24 23  2  0
 25 23  1  0
M  END
$$$$
