WGS.pdb
     RDKit          3D

 25 26  0  0  1  0  0  0  0  0999 V2000
   24.6129  -20.0349   -9.7815 N   0  0  0  0  0  0  0  0  0  0  0  0
   26.0213  -20.1627  -10.0399 C   0  0  1  0  0  0  0  0  0  0  0  0
   26.6508  -21.1835   -9.1138 C   0  0  0  0  0  0  0  0  0  0  0  0
   26.5200  -20.7113   -7.7146 C   0  0  0  0  0  0  0  0  0  0  0  0
   25.3546  -20.5782   -7.0088 C   0  0  0  0  0  0  0  0  0  0  0  0
   25.6616  -20.1260   -5.7836 N   0  0  0  0  0  0  0  0  0  0  0  0
   26.9879  -19.9601   -5.6676 C   0  0  0  0  0  0  0  0  0  0  0  0
   27.8170  -19.5280   -4.6449 C   0  0  0  0  0  0  0  0  0  0  0  0
   29.1807  -19.4536   -4.8048 C   0  0  0  0  0  0  0  0  0  0  0  0
   29.6967  -19.8282   -6.0320 C   0  0  0  0  0  0  0  0  0  0  0  0
   28.8914  -20.2642   -7.0722 C   0  0  0  0  0  0  0  0  0  0  0  0
   27.5334  -20.3259   -6.8770 C   0  0  0  0  0  0  0  0  0  0  0  0
   26.2676  -20.5294  -11.4741 C   0  0  0  0  0  0  0  0  0  0  0  0
   25.3389  -20.9036  -12.2271 O   0  0  0  0  0  0  0  0  0  0  0  0
   27.5795  -20.4698  -12.0549 N   0  0  0  0  0  0  0  0  0  0  0  0
   27.7447  -20.0945  -13.4228 C   0  0  0  0  0  0  0  0  0  0  0  0
   27.4516  -21.2442  -14.3097 C   0  0  0  0  0  0  0  0  0  0  0  0
   28.2684  -21.5674  -15.2355 O   0  0  0  0  0  0  0  0  0  0  0  0
   23.9593  -23.4833  -14.1017 O   0  0  0  0  0  0  0  0  0  0  0  0
   25.1080  -24.1687  -14.5005 C   0  0  0  0  0  0  0  0  0  0  0  0
   26.0607  -23.1463  -15.0713 C   0  0  2  0  0  0  0  0  0  0  0  0
   26.2846  -22.0393  -14.1980 N   0  0  0  0  0  0  0  0  0  0  0  0
   25.5505  -22.6638  -16.3664 C   0  0  0  0  0  0  0  0  0  0  0  0
   25.1146  -21.4907  -16.5039 O   0  0  0  0  0  0  0  0  0  0  0  0
   25.5490  -23.5158  -17.4567 O   0  0  0  0  0  0  0  0  0  0  0  0
  2  1  1  6
  2 13  1  0
  3  2  1  0
  4  3  1  0
  5  4  2  0
  6  5  1  0
  7  6  1  0
  7 12  2  0
  8  9  2  0
  8  7  1  0
  9 10  1  0
 10 11  2  0
 12 11  1  0
 12  4  1  0
 13 14  2  0
 13 15  1  0
 15 16  1  0
 17 18  2  0
 17 16  1  0
 21 20  1  1
 20 19  1  0
 21 22  1  0
 22 17  1  0
 23 21  1  0
 24 23  2  0
 25 23  1  0
M  END
$$$$
