WGS.pdb
     RDKit          3D

 25 26  0  0  1  0  0  0  0  0999 V2000
   25.3995  -22.0221  -10.3910 N   0  0  0  0  0  0  0  0  0  0  0  0
   26.0077  -20.7237  -10.4957 C   0  0  1  0  0  0  0  0  0  0  0  0
   27.2780  -20.6535   -9.6726 C   0  0  0  0  0  0  0  0  0  0  0  0
   26.9233  -20.3779   -8.2598 C   0  0  0  0  0  0  0  0  0  0  0  0
   25.6588  -20.3068   -7.7398 C   0  0  0  0  0  0  0  0  0  0  0  0
   25.7643  -20.0409   -6.4291 N   0  0  0  0  0  0  0  0  0  0  0  0
   27.0549  -19.9364   -6.0778 C   0  0  0  0  0  0  0  0  0  0  0  0
   27.7084  -19.6792   -4.8834 C   0  0  0  0  0  0  0  0  0  0  0  0
   29.0805  -19.6279   -4.8085 C   0  0  0  0  0  0  0  0  0  0  0  0
   29.7879  -19.8437   -5.9771 C   0  0  0  0  0  0  0  0  0  0  0  0
   29.1607  -20.1030   -7.1855 C   0  0  0  0  0  0  0  0  0  0  0  0
   27.7886  -20.1470   -7.2230 C   0  0  0  0  0  0  0  0  0  0  0  0
   26.2892  -20.3824  -11.9297 C   0  0  0  0  0  0  0  0  0  0  0  0
   27.1768  -20.9750  -12.5858 O   0  0  0  0  0  0  0  0  0  0  0  0
   25.5553  -19.3601  -12.6214 N   0  0  0  0  0  0  0  0  0  0  0  0
   25.8246  -19.0864  -13.9968 C   0  0  0  0  0  0  0  0  0  0  0  0
   25.2309  -20.1375  -14.8553 C   0  0  0  0  0  0  0  0  0  0  0  0
   24.9839  -19.9007  -16.0848 O   0  0  0  0  0  0  0  0  0  0  0  0
   26.0037  -23.9242  -14.7241 O   0  0  0  0  0  0  0  0  0  0  0  0
   24.6178  -23.8244  -14.8571 C   0  0  0  0  0  0  0  0  0  0  0  0
   24.3102  -22.4012  -15.2557 C   0  0  2  0  0  0  0  0  0  0  0  0
   24.9057  -21.4351  -14.3895 N   0  0  0  0  0  0  0  0  0  0  0  0
   22.8509  -22.2032  -15.2946 C   0  0  0  0  0  0  0  0  0  0  0  0
   22.2591  -21.5135  -14.4233 O   0  0  0  0  0  0  0  0  0  0  0  0
   22.1123  -22.7862  -16.3091 O   0  0  0  0  0  0  0  0  0  0  0  0
  2  1  1  6
  2 13  1  0
  3  2  1  0
  4  3  1  0
  5  4  2  0
  6  5  1  0
  7  6  1  0
  7 12  2  0
  8  9  2  0
  8  7  1  0
  9 10  1  0
 10 11  2  0
 12 11  1  0
 12  4  1  0
 13 14  2  0
 13 15  1  0
 15 16  1  0
 17 18  2  0
 17 16  1  0
 21 20  1  1
 20 19  1  0
 21 22  1  0
 22 17  1  0
 23 21  1  0
 24 23  2  0
 25 23  1  0
M  END
$$$$
