WGS.pdb
     RDKit          3D

 25 26  0  0  1  0  0  0  0  0999 V2000
   24.5737  -31.7782   -7.8175 N   0  0  0  0  0  0  0  0  0  0  0  0
   25.3186  -32.7917   -8.5137 C   0  0  1  0  0  0  0  0  0  0  0  0
   25.5650  -32.3889   -9.9535 C   0  0  0  0  0  0  0  0  0  0  0  0
   24.3365  -32.6441  -10.7431 C   0  0  0  0  0  0  0  0  0  0  0  0
   23.1465  -31.9767  -10.6308 C   0  0  0  0  0  0  0  0  0  0  0  0
   22.2903  -32.5042  -11.5187 N   0  0  0  0  0  0  0  0  0  0  0  0
   22.8825  -33.4928  -12.2056 C   0  0  0  0  0  0  0  0  0  0  0  0
   22.4650  -34.3479  -13.2129 C   0  0  0  0  0  0  0  0  0  0  0  0
   23.3053  -35.2950  -13.7493 C   0  0  0  0  0  0  0  0  0  0  0  0
   24.5903  -35.3627  -13.2426 C   0  0  0  0  0  0  0  0  0  0  0  0
   25.0347  -34.5204  -12.2357 C   0  0  0  0  0  0  0  0  0  0  0  0
   24.1682  -33.5862  -11.7236 C   0  0  0  0  0  0  0  0  0  0  0  0
   26.6169  -33.0716   -7.8150 C   0  0  0  0  0  0  0  0  0  0  0  0
   27.2624  -32.1667   -7.2372 O   0  0  0  0  0  0  0  0  0  0  0  0
   27.1841  -34.3902   -7.7737 N   0  0  0  0  0  0  0  0  0  0  0  0
   28.4061  -34.6265   -7.0737 C   0  0  0  0  0  0  0  0  0  0  0  0
   28.1517  -35.4230   -5.8509 C   0  0  0  0  0  0  0  0  0  0  0  0
   27.0306  -36.0104   -5.6872 O   0  0  0  0  0  0  0  0  0  0  0  0
   29.8679  -35.9565   -1.6219 O   0  0  0  0  0  0  0  0  0  0  0  0
   30.0241  -36.6648   -2.8145 C   0  0  0  0  0  0  0  0  0  0  0  0
   28.8088  -36.3803   -3.6636 C   0  0  2  0  0  0  0  0  0  0  0  0
   29.1010  -35.5839   -4.8120 N   0  0  0  0  0  0  0  0  0  0  0  0
   27.7788  -35.7165   -2.8459 C   0  0  0  0  0  0  0  0  0  0  0  0
   27.4428  -34.5217   -3.0573 O   0  0  0  0  0  0  0  0  0  0  0  0
   27.1657  -36.4185   -1.8232 O   0  0  0  0  0  0  0  0  0  0  0  0
  2  1  1  1
  2 13  1  0
  3  2  1  0
  4  3  1  0
  5  4  2  0
  6  5  1  0
  7  6  1  0
  7 12  2  0
  8  9  2  0
  8  7  1  0
  9 10  1  0
 10 11  2  0
 12 11  1  0
 12  4  1  0
 13 14  2  0
 13 15  1  0
 15 16  1  0
 17 18  2  0
 17 16  1  0
 21 20  1  1
 20 19  1  0
 21 22  1  0
 22 17  1  0
 23 21  1  0
 24 23  2  0
 25 23  1  0
M  END
$$$$
