WGS.pdb
     RDKit          3D

 25 26  0  0  1  0  0  0  0  0999 V2000
   -2.3305  -43.7147  -64.0395 N   0  0  0  0  0  0  0  0  0  0  0  0
   -2.5982  -42.3469  -64.3917 C   0  0  1  0  0  0  0  0  0  0  0  0
   -2.9359  -41.5278  -63.1625 C   0  0  0  0  0  0  0  0  0  0  0  0
   -1.6786  -41.1491  -62.4743 C   0  0  0  0  0  0  0  0  0  0  0  0
   -0.7593  -42.0075  -61.9337 C   0  0  0  0  0  0  0  0  0  0  0  0
    0.2326  -41.2739  -61.4068 N   0  0  0  0  0  0  0  0  0  0  0  0
   -0.0096  -39.9665  -61.5860 C   0  0  0  0  0  0  0  0  0  0  0  0
    0.6699  -38.8075  -61.2471 C   0  0  0  0  0  0  0  0  0  0  0  0
    0.1767  -37.5635  -61.5636 C   0  0  0  0  0  0  0  0  0  0  0  0
   -1.0303  -37.5124  -62.2367 C   0  0  0  0  0  0  0  0  0  0  0  0
   -1.7314  -38.6551  -62.5882 C   0  0  0  0  0  0  0  0  0  0  0  0
   -1.2087  -39.8808  -62.2561 C   0  0  0  0  0  0  0  0  0  0  0  0
   -1.4313  -41.7473  -65.1204 C   0  0  0  0  0  0  0  0  0  0  0  0
   -0.4151  -42.4224  -65.4050 O   0  0  0  0  0  0  0  0  0  0  0  0
   -1.4212  -40.3703  -65.5279 N   0  0  0  0  0  0  0  0  0  0  0  0
   -2.4791  -39.8505  -66.3340 C   0  0  0  0  0  0  0  0  0  0  0  0
   -3.4853  -40.9040  -66.6024 C   0  0  0  0  0  0  0  0  0  0  0  0
   -4.2135  -41.3545  -65.6561 O   0  0  0  0  0  0  0  0  0  0  0  0
   -3.2207  -42.9103  -65.8228 O   0  0  0  0  0  0  0  0  0  0  0  0
   -3.4654  -43.7159  -66.9361 C   0  0  0  0  0  0  0  0  0  0  0  0
   -3.3752  -42.8300  -68.1551 C   0  0  2  0  0  0  0  0  0  0  0  0
   -3.7036  -41.4674  -67.8836 N   0  0  0  0  0  0  0  0  0  0  0  0
   -4.2566  -43.3537  -69.2131 C   0  0  0  0  0  0  0  0  0  0  0  0
   -4.7709  -42.5931  -70.0744 O   0  0  0  0  0  0  0  0  0  0  0  0
   -4.5267  -44.7098  -69.2637 O   0  0  0  0  0  0  0  0  0  0  0  0
  2  1  1  1
  2 13  1  0
  3  2  1  0
  4  3  1  0
  5  4  2  0
  6  5  1  0
  7  6  1  0
  7 12  2  0
  8  9  2  0
  8  7  1  0
  9 10  1  0
 10 11  2  0
 12 11  1  0
 12  4  1  0
 13 14  2  0
 13 15  1  0
 15 16  1  0
 17 18  2  0
 17 16  1  0
 21 20  1  1
 20 19  1  0
 21 22  1  0
 22 17  1  0
 23 21  1  0
 24 23  2  0
 25 23  1  0
M  END
$$$$
