WGS.pdb
     RDKit          3D

 25 26  0  0  1  0  0  0  0  0999 V2000
   19.4569  -21.0617  -12.2064 N   0  0  0  0  0  0  0  0  0  0  0  0
   20.0469  -22.1478  -12.9405 C   0  0  1  0  0  0  0  0  0  0  0  0
   21.4579  -21.8048  -13.3733 C   0  0  0  0  0  0  0  0  0  0  0  0
   21.4166  -20.6123  -14.2531 C   0  0  0  0  0  0  0  0  0  0  0  0
   21.3730  -19.3056  -13.8470 C   0  0  0  0  0  0  0  0  0  0  0  0
   21.3470  -18.5320  -14.9427 N   0  0  0  0  0  0  0  0  0  0  0  0
   21.3722  -19.2907  -16.0489 C   0  0  0  0  0  0  0  0  0  0  0  0
   21.3625  -19.0124  -17.4062 C   0  0  0  0  0  0  0  0  0  0  0  0
   21.3956  -20.0137  -18.3481 C   0  0  0  0  0  0  0  0  0  0  0  0
   21.4391  -21.3168  -17.8870 C   0  0  0  0  0  0  0  0  0  0  0  0
   21.4498  -21.6244  -16.5357 C   0  0  0  0  0  0  0  0  0  0  0  0
   21.4160  -20.5987  -15.6231 C   0  0  0  0  0  0  0  0  0  0  0  0
   20.0371  -23.4078  -12.1254 C   0  0  0  0  0  0  0  0  0  0  0  0
   20.6389  -24.4403  -12.5015 O   0  0  0  0  0  0  0  0  0  0  0  0
   19.3380  -23.4931  -10.8740 N   0  0  0  0  0  0  0  0  0  0  0  0
   19.2922  -24.7277  -10.1577 C   0  0  0  0  0  0  0  0  0  0  0  0
   18.4901  -24.5749   -8.9218 C   0  0  0  0  0  0  0  0  0  0  0  0
   17.9495  -23.4536   -8.6400 O   0  0  0  0  0  0  0  0  0  0  0  0
   16.8055  -27.6821   -7.1110 O   0  0  0  0  0  0  0  0  0  0  0  0
   17.1196  -26.7321   -6.1379 C   0  0  0  0  0  0  0  0  0  0  0  0
   17.4303  -25.4426   -6.8587 C   0  0  2  0  0  0  0  0  0  0  0  0
   18.2733  -25.6252   -7.9964 N   0  0  0  0  0  0  0  0  0  0  0  0
   18.0552  -24.4914   -5.9231 C   0  0  0  0  0  0  0  0  0  0  0  0
   17.3692  -23.8487   -5.0856 O   0  0  0  0  0  0  0  0  0  0  0  0
   19.4247  -24.2983   -5.9634 O   0  0  0  0  0  0  0  0  0  0  0  0
  2  1  1  1
  2 13  1  0
  3  2  1  0
  4  3  1  0
  5  4  2  0
  6  5  1  0
  7  6  1  0
  7 12  2  0
  8  9  2  0
  8  7  1  0
  9 10  1  0
 10 11  2  0
 12 11  1  0
 12  4  1  0
 13 14  2  0
 13 15  1  0
 15 16  1  0
 17 18  2  0
 17 16  1  0
 21 20  1  1
 20 19  1  0
 21 22  1  0
 22 17  1  0
 23 21  1  0
 24 23  2  0
 25 23  1  0
M  END
$$$$
