WGS.pdb
     RDKit          3D

 25 26  0  0  1  0  0  0  0  0999 V2000
   25.7195  -21.1773  -12.4762 N   0  0  0  0  0  0  0  0  0  0  0  0
   24.9934  -21.1748  -11.2354 C   0  0  1  0  0  0  0  0  0  0  0  0
   25.5425  -20.1263  -10.2894 C   0  0  0  0  0  0  0  0  0  0  0  0
   26.8605  -20.5769   -9.7818 C   0  0  0  0  0  0  0  0  0  0  0  0
   27.8174  -21.2492  -10.4936 C   0  0  0  0  0  0  0  0  0  0  0  0
   28.8596  -21.4719   -9.6788 N   0  0  0  0  0  0  0  0  0  0  0  0
   28.6139  -20.9673   -8.4602 C   0  0  0  0  0  0  0  0  0  0  0  0
   29.3318  -20.9212   -7.2759 C   0  0  0  0  0  0  0  0  0  0  0  0
   28.8230  -20.3234   -6.1469 C   0  0  0  0  0  0  0  0  0  0  0  0
   27.5603  -19.7668   -6.2383 C   0  0  0  0  0  0  0  0  0  0  0  0
   26.8200  -19.7981   -7.4095 C   0  0  0  0  0  0  0  0  0  0  0  0
   27.3597  -20.4035   -8.5177 C   0  0  0  0  0  0  0  0  0  0  0  0
   23.5291  -20.9519  -11.4768 C   0  0  0  0  0  0  0  0  0  0  0  0
   23.1192  -20.2013  -12.3923 O   0  0  0  0  0  0  0  0  0  0  0  0
   22.5248  -21.5877  -10.6710 N   0  0  0  0  0  0  0  0  0  0  0  0
   21.1400  -21.3526  -10.9287 C   0  0  0  0  0  0  0  0  0  0  0  0
   20.3031  -22.1267   -9.9828 C   0  0  0  0  0  0  0  0  0  0  0  0
   20.8459  -22.9254   -9.1484 O   0  0  0  0  0  0  0  0  0  0  0  0
   16.1741  -22.2755  -10.2291 O   0  0  0  0  0  0  0  0  0  0  0  0
   16.6892  -22.4654   -8.9458 C   0  0  0  0  0  0  0  0  0  0  0  0
   18.1240  -22.9076   -9.1031 C   0  0  2  0  0  0  0  0  0  0  0  0
   18.8900  -22.0394   -9.9384 N   0  0  0  0  0  0  0  0  0  0  0  0
   18.1626  -24.2786   -9.6409 C   0  0  0  0  0  0  0  0  0  0  0  0
   17.9784  -25.2794   -8.8997 O   0  0  0  0  0  0  0  0  0  0  0  0
   18.4064  -24.4736  -10.9889 O   0  0  0  0  0  0  0  0  0  0  0  0
  2  1  1  6
  2 13  1  0
  3  2  1  0
  4  3  1  0
  5  4  2  0
  6  5  1  0
  7  6  1  0
  7 12  2  0
  8  9  2  0
  8  7  1  0
  9 10  1  0
 10 11  2  0
 12 11  1  0
 12  4  1  0
 13 14  2  0
 13 15  1  0
 15 16  1  0
 17 18  2  0
 17 16  1  0
 21 20  1  6
 20 19  1  0
 21 22  1  0
 22 17  1  0
 23 21  1  0
 24 23  2  0
 25 23  1  0
M  END
$$$$
