WGS.pdb
     RDKit          3D

 25 26  0  0  1  0  0  0  0  0999 V2000
   27.0159  -21.8653  -10.6557 N   0  0  0  0  0  0  0  0  0  0  0  0
   26.2676  -20.6757  -10.3533 C   0  0  1  0  0  0  0  0  0  0  0  0
   27.1779  -19.5817   -9.8330 C   0  0  0  0  0  0  0  0  0  0  0  0
   28.0720  -20.1502   -8.7962 C   0  0  0  0  0  0  0  0  0  0  0  0
   29.1764  -20.9290   -9.0156 C   0  0  0  0  0  0  0  0  0  0  0  0
   29.7096  -21.2368   -7.8237 N   0  0  0  0  0  0  0  0  0  0  0  0
   28.9897  -20.6849   -6.8352 C   0  0  0  0  0  0  0  0  0  0  0  0
   29.0945  -20.6854   -5.4535 C   0  0  0  0  0  0  0  0  0  0  0  0
   28.1911  -20.0165   -4.6614 C   0  0  0  0  0  0  0  0  0  0  0  0
   27.1679  -19.3393   -5.2994 C   0  0  0  0  0  0  0  0  0  0  0  0
   27.0388  -19.3216   -6.6792 C   0  0  0  0  0  0  0  0  0  0  0  0
   27.9594  -20.0007   -7.4390 C   0  0  0  0  0  0  0  0  0  0  0  0
   25.5109  -20.2024  -11.5597 C   0  0  0  0  0  0  0  0  0  0  0  0
   26.0133  -19.3986  -12.3788 O   0  0  0  0  0  0  0  0  0  0  0  0
   24.1737  -20.6472  -11.8357 N   0  0  0  0  0  0  0  0  0  0  0  0
   23.1618  -19.7058  -12.1952 C   0  0  0  0  0  0  0  0  0  0  0  0
   21.8789  -20.4022  -12.4473 C   0  0  0  0  0  0  0  0  0  0  0  0
   20.7867  -19.7435  -12.4898 O   0  0  0  0  0  0  0  0  0  0  0  0
   21.5451  -24.4822  -12.6127 O   0  0  0  0  0  0  0  0  0  0  0  0
   20.6621  -23.8247  -13.4708 C   0  0  0  0  0  0  0  0  0  0  0  0
   20.5234  -22.4085  -12.9668 C   0  0  2  0  0  0  0  0  0  0  0  0
   21.7760  -21.8001  -12.6519 N   0  0  0  0  0  0  0  0  0  0  0  0
   19.6480  -22.3888  -11.7820 C   0  0  0  0  0  0  0  0  0  0  0  0
   18.4177  -22.6408  -11.8712 O   0  0  0  0  0  0  0  0  0  0  0  0
   20.1865  -22.0874  -10.5436 O   0  0  0  0  0  0  0  0  0  0  0  0
  2  1  1  6
  2 13  1  0
  3  2  1  0
  4  3  1  0
  5  4  2  0
  6  5  1  0
  7  6  1  0
  7 12  2  0
  8  9  2  0
  8  7  1  0
  9 10  1  0
 10 11  2  0
 12 11  1  0
 12  4  1  0
 13 14  2  0
 13 15  1  0
 15 16  1  0
 17 18  2  0
 17 16  1  0
 21 20  1  1
 20 19  1  0
 21 22  1  0
 22 17  1  0
 23 21  1  0
 24 23  2  0
 25 23  1  0
M  END
$$$$
