WGS.pdb
     RDKit          3D

 25 26  0  0  1  0  0  0  0  0999 V2000
   25.2974  -20.3747   -8.9357 N   0  0  0  0  0  0  0  0  0  0  0  0
   26.6305  -20.3336   -9.4723 C   0  0  1  0  0  0  0  0  0  0  0  0
   27.6367  -20.8440   -8.4608 C   0  0  0  0  0  0  0  0  0  0  0  0
   27.6602  -19.9254   -7.2974 C   0  0  0  0  0  0  0  0  0  0  0  0
   27.0096  -18.7249   -7.1983 C   0  0  0  0  0  0  0  0  0  0  0  0
   27.2828  -18.2040   -5.9926 N   0  0  0  0  0  0  0  0  0  0  0  0
   28.0895  -19.0247   -5.3029 C   0  0  0  0  0  0  0  0  0  0  0  0
   28.6626  -18.9740   -4.0424 C   0  0  0  0  0  0  0  0  0  0  0  0
   29.4720  -19.9835   -3.5769 C   0  0  0  0  0  0  0  0  0  0  0  0
   29.6942  -21.0576   -4.4193 C   0  0  0  0  0  0  0  0  0  0  0  0
   29.1341  -21.1347   -5.6847 C   0  0  0  0  0  0  0  0  0  0  0  0
   28.3306  -20.1082   -6.1167 C   0  0  0  0  0  0  0  0  0  0  0  0
   26.7159  -21.1235  -10.7454 C   0  0  0  0  0  0  0  0  0  0  0  0
   26.0642  -22.1807  -10.9095 O   0  0  0  0  0  0  0  0  0  0  0  0
   27.5483  -20.7070  -11.8389 N   0  0  0  0  0  0  0  0  0  0  0  0
   27.6261  -21.4971  -13.0259 C   0  0  0  0  0  0  0  0  0  0  0  0
   26.8938  -20.8367  -14.1312 C   0  0  0  0  0  0  0  0  0  0  0  0
   25.9769  -19.9858  -13.8778 O   0  0  0  0  0  0  0  0  0  0  0  0
   27.4384  -21.8862  -18.0270 O   0  0  0  0  0  0  0  0  0  0  0  0
   27.0712  -20.5467  -17.8893 C   0  0  0  0  0  0  0  0  0  0  0  0
   26.4414  -20.3957  -16.5257 C   0  0  2  0  0  0  0  0  0  0  0  0
   27.1494  -21.0932  -15.5007 N   0  0  0  0  0  0  0  0  0  0  0  0
   25.0446  -20.8617  -16.5719 C   0  0  0  0  0  0  0  0  0  0  0  0
   24.6645  -21.8621  -15.9086 O   0  0  0  0  0  0  0  0  0  0  0  0
   24.1286  -20.1877  -17.3601 O   0  0  0  0  0  0  0  0  0  0  0  0
  2  1  1  1
  2 13  1  0
  3  2  1  0
  4  3  1  0
  5  4  2  0
  6  5  1  0
  7  6  1  0
  7 12  2  0
  8  9  2  0
  8  7  1  0
  9 10  1  0
 10 11  2  0
 12 11  1  0
 12  4  1  0
 13 14  2  0
 13 15  1  0
 15 16  1  0
 17 18  2  0
 17 16  1  0
 21 20  1  6
 20 19  1  0
 21 22  1  0
 22 17  1  0
 23 21  1  0
 24 23  2  0
 25 23  1  0
M  END
$$$$
