WGS.pdb
     RDKit          3D

 25 26  0  0  1  0  0  0  0  0999 V2000
   26.1879  -21.7831  -10.6037 N   0  0  0  0  0  0  0  0  0  0  0  0
   26.0104  -20.9626   -9.4366 C   0  0  1  0  0  0  0  0  0  0  0  0
   27.1077  -19.9226   -9.3346 C   0  0  0  0  0  0  0  0  0  0  0  0
   28.2118  -20.4653   -8.5075 C   0  0  0  0  0  0  0  0  0  0  0  0
   29.1708  -21.3529   -8.9158 C   0  0  0  0  0  0  0  0  0  0  0  0
   29.9841  -21.5915   -7.8759 N   0  0  0  0  0  0  0  0  0  0  0  0
   29.5871  -20.8893   -6.8039 C   0  0  0  0  0  0  0  0  0  0  0  0
   30.0565  -20.7686   -5.5058 C   0  0  0  0  0  0  0  0  0  0  0  0
   29.4374  -19.9532   -4.5878 C   0  0  0  0  0  0  0  0  0  0  0  0
   28.3218  -19.2541   -5.0113 C   0  0  0  0  0  0  0  0  0  0  0  0
   27.8304  -19.3555   -6.3032 C   0  0  0  0  0  0  0  0  0  0  0  0
   28.4742  -20.1795   -7.1935 C   0  0  0  0  0  0  0  0  0  0  0  0
   24.6611  -20.3059   -9.4486 C   0  0  0  0  0  0  0  0  0  0  0  0
   24.3843  -19.3556   -8.6807 O   0  0  0  0  0  0  0  0  0  0  0  0
   23.6202  -20.7336  -10.3407 N   0  0  0  0  0  0  0  0  0  0  0  0
   23.6973  -20.4311  -11.7342 C   0  0  0  0  0  0  0  0  0  0  0  0
   22.4204  -20.7698  -12.4045 C   0  0  0  0  0  0  0  0  0  0  0  0
   21.9592  -21.9585  -12.3475 O   0  0  0  0  0  0  0  0  0  0  0  0
   19.2553  -18.3645  -13.1437 O   0  0  0  0  0  0  0  0  0  0  0  0
   19.6244  -19.0711  -14.2894 C   0  0  0  0  0  0  0  0  0  0  0  0
   20.4749  -20.2346  -13.8401 C   0  0  2  0  0  0  0  0  0  0  0  0
   21.6470  -19.8318  -13.1314 N   0  0  0  0  0  0  0  0  0  0  0  0
   20.8539  -21.0497  -15.0073 C   0  0  0  0  0  0  0  0  0  0  0  0
   21.9859  -20.9366  -15.5466 O   0  0  0  0  0  0  0  0  0  0  0  0
   19.9487  -21.9598  -15.5240 O   0  0  0  0  0  0  0  0  0  0  0  0
  2  1  1  6
  2 13  1  0
  3  2  1  0
  4  3  1  0
  5  4  2  0
  6  5  1  0
  7  6  1  0
  7 12  2  0
  8  9  2  0
  8  7  1  0
  9 10  1  0
 10 11  2  0
 12 11  1  0
 12  4  1  0
 13 14  2  0
 13 15  1  0
 15 16  1  0
 17 18  2  0
 17 16  1  0
 21 20  1  6
 20 19  1  0
 21 22  1  0
 22 17  1  0
 23 21  1  0
 24 23  2  0
 25 23  1  0
M  END
$$$$
