WGS.pdb
     RDKit          3D

 25 26  0  0  1  0  0  0  0  0999 V2000
   40.8585  -10.6017   -8.0873 N   0  0  0  0  0  0  0  0  0  0  0  0
   41.5063   -9.4445   -8.6421 C   0  0  1  0  0  0  0  0  0  0  0  0
   41.2195   -8.2123   -7.8081 C   0  0  0  0  0  0  0  0  0  0  0  0
   39.7521   -8.0236   -7.7143 C   0  0  0  0  0  0  0  0  0  0  0  0
   39.0392   -6.9566   -8.1915 C   0  0  0  0  0  0  0  0  0  0  0  0
   37.7441   -7.1645   -7.9096 N   0  0  0  0  0  0  0  0  0  0  0  0
   37.5895   -8.3309   -7.2650 C   0  0  0  0  0  0  0  0  0  0  0  0
   36.4943   -9.0107   -6.7567 C   0  0  0  0  0  0  0  0  0  0  0  0
   36.6286  -10.2245   -6.1246 C   0  0  0  0  0  0  0  0  0  0  0  0
   37.9054  -10.7443   -6.0144 C   0  0  0  0  0  0  0  0  0  0  0  0
   39.0185  -10.0864   -6.5134 C   0  0  0  0  0  0  0  0  0  0  0  0
   38.8469   -8.8760   -7.1389 C   0  0  0  0  0  0  0  0  0  0  0  0
   42.9854   -9.6686   -8.7602 C   0  0  0  0  0  0  0  0  0  0  0  0
   43.7301   -8.8529   -9.3515 O   0  0  0  0  0  0  0  0  0  0  0  0
   43.6212  -10.8287   -8.2014 N   0  0  0  0  0  0  0  0  0  0  0  0
   45.0245  -11.0320   -8.3703 C   0  0  0  0  0  0  0  0  0  0  0  0
   45.7858  -10.1117   -7.4941 C   0  0  0  0  0  0  0  0  0  0  0  0
   46.6862   -9.3526   -7.9859 O   0  0  0  0  0  0  0  0  0  0  0  0
   45.2284   -9.7550   -3.3478 O   0  0  0  0  0  0  0  0  0  0  0  0
   45.6385   -8.6334   -4.0703 C   0  0  0  0  0  0  0  0  0  0  0  0
   46.3666   -9.1340   -5.2943 C   0  0  2  0  0  0  0  0  0  0  0  0
   45.5767  -10.0118   -6.0967 N   0  0  0  0  0  0  0  0  0  0  0  0
   47.6087   -9.8136   -4.8872 C   0  0  0  0  0  0  0  0  0  0  0  0
   47.7801  -11.0441   -5.0907 O   0  0  0  0  0  0  0  0  0  0  0  0
   48.6099   -9.0866   -4.2679 O   0  0  0  0  0  0  0  0  0  0  0  0
  2  1  1  1
  2 13  1  0
  3  2  1  0
  4  3  1  0
  5  4  2  0
  6  5  1  0
  7  6  1  0
  7 12  2  0
  8  9  2  0
  8  7  1  0
  9 10  1  0
 10 11  2  0
 12 11  1  0
 12  4  1  0
 13 14  2  0
 13 15  1  0
 15 16  1  0
 17 18  2  0
 17 16  1  0
 21 20  1  1
 20 19  1  0
 21 22  1  0
 22 17  1  0
 23 21  1  0
 24 23  2  0
 25 23  1  0
M  END
$$$$
