WGS.pdb
     RDKit          3D

 25 26  0  0  1  0  0  0  0  0999 V2000
   25.6035  -20.8227  -10.8464 N   0  0  0  0  0  0  0  0  0  0  0  0
   26.9489  -20.4202  -10.5385 C   0  0  1  0  0  0  0  0  0  0  0  0
   27.5251  -21.2678   -9.4226 C   0  0  0  0  0  0  0  0  0  0  0  0
   27.0147  -20.7678   -8.1237 C   0  0  0  0  0  0  0  0  0  0  0  0
   25.7102  -20.7730   -7.7082 C   0  0  0  0  0  0  0  0  0  0  0  0
   25.6649  -20.2380   -6.4789 N   0  0  0  0  0  0  0  0  0  0  0  0
   26.8959  -19.8843   -6.0794 C   0  0  0  0  0  0  0  0  0  0  0  0
   27.4035  -19.3037   -4.9283 C   0  0  0  0  0  0  0  0  0  0  0  0
   28.7462  -19.0455   -4.7825 C   0  0  0  0  0  0  0  0  0  0  0  0
   29.5759  -19.3889   -5.8343 C   0  0  0  0  0  0  0  0  0  0  0  0
   29.0958  -19.9707   -6.9969 C   0  0  0  0  0  0  0  0  0  0  0  0
   27.7489  -20.2143   -7.1079 C   0  0  0  0  0  0  0  0  0  0  0  0
   27.8185  -20.4939  -11.7594 C   0  0  0  0  0  0  0  0  0  0  0  0
   29.0520  -20.2822  -11.7032 O   0  0  0  0  0  0  0  0  0  0  0  0
   27.2805  -20.8110  -13.0525 N   0  0  0  0  0  0  0  0  0  0  0  0
   26.9148  -19.7670  -13.9556 C   0  0  0  0  0  0  0  0  0  0  0  0
   25.4731  -19.8544  -14.2846 C   0  0  0  0  0  0  0  0  0  0  0  0
   24.8451  -18.8253  -14.7035 O   0  0  0  0  0  0  0  0  0  0  0  0
   23.1989  -23.1042  -13.2691 O   0  0  0  0  0  0  0  0  0  0  0  0
   22.7031  -22.4281  -14.3850 C   0  0  0  0  0  0  0  0  0  0  0  0
   23.3019  -21.0424  -14.3682 C   0  0  2  0  0  0  0  0  0  0  0  0
   24.7146  -21.0444  -14.1620 N   0  0  0  0  0  0  0  0  0  0  0  0
   22.6473  -20.2337  -13.3252 C   0  0  0  0  0  0  0  0  0  0  0  0
   23.3010  -19.7481  -12.3650 O   0  0  0  0  0  0  0  0  0  0  0  0
   21.2854  -20.0011  -13.3998 O   0  0  0  0  0  0  0  0  0  0  0  0
  2  1  1  6
  2 13  1  0
  3  2  1  0
  4  3  1  0
  5  4  2  0
  6  5  1  0
  7  6  1  0
  7 12  2  0
  8  9  2  0
  8  7  1  0
  9 10  1  0
 10 11  2  0
 12 11  1  0
 12  4  1  0
 13 14  2  0
 13 15  1  0
 15 16  1  0
 17 18  2  0
 17 16  1  0
 21 20  1  1
 20 19  1  0
 21 22  1  0
 22 17  1  0
 23 21  1  0
 24 23  2  0
 25 23  1  0
M  END
$$$$
