WGS.pdb
     RDKit          3D

 25 26  0  0  1  0  0  0  0  0999 V2000
   27.5502  -21.4140  -11.0275 N   0  0  0  0  0  0  0  0  0  0  0  0
   26.4426  -20.8209  -10.3290 C   0  0  1  0  0  0  0  0  0  0  0  0
   26.8970  -19.6355   -9.5017 C   0  0  0  0  0  0  0  0  0  0  0  0
   28.0259  -20.0546   -8.6370 C   0  0  0  0  0  0  0  0  0  0  0  0
   29.1851  -20.6546   -9.0501 C   0  0  0  0  0  0  0  0  0  0  0  0
   29.9478  -20.8713   -7.9680 N   0  0  0  0  0  0  0  0  0  0  0  0
   29.3246  -20.4327   -6.8638 C   0  0  0  0  0  0  0  0  0  0  0  0
   29.6540  -20.4110   -5.5181 C   0  0  0  0  0  0  0  0  0  0  0  0
   28.8018  -19.8860   -4.5753 C   0  0  0  0  0  0  0  0  0  0  0  0
   27.5962  -19.3776   -5.0232 C   0  0  0  0  0  0  0  0  0  0  0  0
   27.2406  -19.3861   -6.3627 C   0  0  0  0  0  0  0  0  0  0  0  0
   28.1166  -19.9184   -7.2768 C   0  0  0  0  0  0  0  0  0  0  0  0
   25.3657  -20.4109  -11.2904 C   0  0  0  0  0  0  0  0  0  0  0  0
   25.5177  -19.4490  -12.0785 O   0  0  0  0  0  0  0  0  0  0  0  0
   24.1078  -21.1004  -11.3553 N   0  0  0  0  0  0  0  0  0  0  0  0
   23.0756  -20.6346  -12.2253 C   0  0  0  0  0  0  0  0  0  0  0  0
   21.8325  -21.4104  -12.0086 C   0  0  0  0  0  0  0  0  0  0  0  0
   21.8734  -22.6838  -11.9340 O   0  0  0  0  0  0  0  0  0  0  0  0
   18.2504  -19.5707  -11.6229 O   0  0  0  0  0  0  0  0  0  0  0  0
   18.2390  -20.8512  -11.0675 C   0  0  0  0  0  0  0  0  0  0  0  0
   19.3858  -21.6144  -11.6850 C   0  0  2  0  0  0  0  0  0  0  0  0
   20.5540  -20.8156  -11.8738 N   0  0  0  0  0  0  0  0  0  0  0  0
   18.9609  -22.1880  -12.9737 C   0  0  0  0  0  0  0  0  0  0  0  0
   19.4849  -21.8232  -14.0588 O   0  0  0  0  0  0  0  0  0  0  0  0
   17.9650  -23.1484  -12.9953 O   0  0  0  0  0  0  0  0  0  0  0  0
  2  1  1  6
  2 13  1  0
  3  2  1  0
  4  3  1  0
  5  4  2  0
  6  5  1  0
  7  6  1  0
  7 12  2  0
  8  9  2  0
  8  7  1  0
  9 10  1  0
 10 11  2  0
 12 11  1  0
 12  4  1  0
 13 14  2  0
 13 15  1  0
 15 16  1  0
 17 18  2  0
 17 16  1  0
 21 20  1  6
 20 19  1  0
 21 22  1  0
 22 17  1  0
 23 21  1  0
 24 23  2  0
 25 23  1  0
M  END
$$$$
