PMK.pdb
     RDKit          3D

 25 25  0  0  1  0  0  0  0  0999 V2000
    7.0938  -14.8058   19.8946 N   0  0  0  0  0  0  0  0  0  0  0  0
    6.8597  -14.4972   18.4955 C   0  0  0  0  0  0  0  0  0  0  0  0
    7.3336  -13.0657   18.4019 C   0  0  0  0  0  0  0  0  0  0  0  0
    8.4279  -12.9933   19.4449 C   0  0  0  0  0  0  0  0  0  0  0  0
    8.4571  -14.3517   20.0776 C   0  0  1  0  0  0  0  0  0  0  0  0
    8.8003  -14.3362   21.5084 C   0  0  0  0  0  0  0  0  0  0  0  0
    9.9905  -14.1652   21.8593 O   0  0  0  0  0  0  0  0  0  0  0  0
    6.9628  -11.9543   28.5385 C   0  0  0  0  0  0  0  0  0  0  0  0
    6.3131  -12.1960   26.8430 S   0  0  0  0  0  0  0  0  0  0  0  0
    7.3855  -13.4197   26.0451 C   0  0  0  0  0  0  0  0  0  0  0  0
    6.9788  -13.6407   24.5977 C   0  0  0  0  0  0  0  0  0  0  0  0
    8.1223  -14.3476   23.9001 C   0  0  2  0  0  0  0  0  0  0  0  0
    7.8218  -14.5092   22.4958 N   0  0  0  0  0  0  0  0  0  0  0  0
    8.4340  -15.6523   24.5302 C   0  0  0  0  0  0  0  0  0  0  0  0
    7.4998  -16.5127   24.6262 O   0  0  0  0  0  0  0  0  0  0  0  0
    9.6875  -16.0116   25.0311 N   0  0  0  0  0  0  0  0  0  0  0  0
   10.0269  -17.3381   25.5653 C   0  0  1  0  0  0  0  0  0  0  0  0
   11.2657  -17.8613   24.9436 C   0  0  0  0  0  0  0  0  0  0  0  0
   11.0849  -18.1616   23.4918 C   0  0  0  0  0  0  0  0  0  0  0  0
   12.3767  -18.7410   22.9071 C   0  0  0  0  0  0  0  0  0  0  0  0
   12.2868  -18.9678   21.4252 C   0  0  0  0  0  0  0  0  0  0  0  0
   13.5802  -19.3918   20.9074 N   0  0  0  0  0  0  0  0  0  0  0  0
   10.1812  -17.1938   27.0239 C   0  0  0  0  0  0  0  0  0  0  0  0
   10.3908  -16.0232   27.5026 O   0  0  0  0  0  0  0  0  0  0  0  0
   10.1138  -18.2246   27.9171 O   0  0  0  0  0  0  0  0  0  0  0  0
  1  2  1  0
  3  2  1  0
  4  3  1  0
  5  4  1  0
  5  6  1  1
  5  1  1  0
  6  7  2  0
  8  9  1  0
 10  9  1  0
 11 10  1  0
 12 11  1  1
 12 14  1  0
 13  6  1  0
 13 12  1  0
 14 15  2  0
 16 14  1  0
 16 17  1  0
 17 23  1  0
 17 18  1  6
 19 20  1  0
 19 18  1  0
 20 21  1  0
 22 21  1  0
 23 24  2  0
 23 25  1  0
M  END
$$$$
