PMK.pdb
     RDKit          3D

 25 25  0  0  1  0  0  0  0  0999 V2000
    7.0693  -14.6408   20.2656 N   0  0  0  0  0  0  0  0  0  0  0  0
    6.7763  -14.1184   18.9433 C   0  0  0  0  0  0  0  0  0  0  0  0
    7.3412  -12.7193   19.0215 C   0  0  0  0  0  0  0  0  0  0  0  0
    8.4965  -12.8649   19.9883 C   0  0  0  0  0  0  0  0  0  0  0  0
    8.4690  -14.3002   20.4190 C   0  0  1  0  0  0  0  0  0  0  0  0
    8.8947  -14.5136   21.8112 C   0  0  0  0  0  0  0  0  0  0  0  0
   10.1085  -14.4290   22.1090 O   0  0  0  0  0  0  0  0  0  0  0  0
    6.5560  -10.4994   26.6657 C   0  0  0  0  0  0  0  0  0  0  0  0
    6.2132  -12.2914   26.5017 S   0  0  0  0  0  0  0  0  0  0  0  0
    7.3261  -12.9177   25.2158 C   0  0  0  0  0  0  0  0  0  0  0  0
    7.2274  -14.4294   25.0975 C   0  0  0  0  0  0  0  0  0  0  0  0
    8.3609  -14.8975   24.2087 C   0  0  2  0  0  0  0  0  0  0  0  0
    7.9696  -14.8113   22.8201 N   0  0  0  0  0  0  0  0  0  0  0  0
    8.8034  -16.2697   24.5516 C   0  0  0  0  0  0  0  0  0  0  0  0
    7.9873  -17.2296   24.3644 O   0  0  0  0  0  0  0  0  0  0  0  0
   10.0601  -16.5913   25.0696 N   0  0  0  0  0  0  0  0  0  0  0  0
   10.4788  -17.9410   25.4738 C   0  0  1  0  0  0  0  0  0  0  0  0
   11.8784  -18.2081   25.0679 C   0  0  0  0  0  0  0  0  0  0  0  0
   12.3728  -19.5218   25.5782 C   0  0  0  0  0  0  0  0  0  0  0  0
   13.8264  -19.7425   25.1483 C   0  0  0  0  0  0  0  0  0  0  0  0
   14.3806  -21.0483   25.6416 C   0  0  0  0  0  0  0  0  0  0  0  0
   15.8030  -21.1305   25.3405 N   0  0  0  0  0  0  0  0  0  0  0  0
   10.3216  -18.0259   26.9368 C   0  0  0  0  0  0  0  0  0  0  0  0
   10.2610  -16.9357   27.6083 O   0  0  0  0  0  0  0  0  0  0  0  0
   10.2309  -19.1924   27.6411 O   0  0  0  0  0  0  0  0  0  0  0  0
  1  2  1  0
  3  2  1  0
  4  3  1  0
  5  4  1  0
  5  6  1  1
  5  1  1  0
  6  7  2  0
  8  9  1  0
 10  9  1  0
 11 10  1  0
 12 11  1  1
 12 14  1  0
 13  6  1  0
 13 12  1  0
 14 15  2  0
 16 14  1  0
 16 17  1  0
 17 23  1  0
 17 18  1  1
 19 20  1  0
 19 18  1  0
 20 21  1  0
 22 21  1  0
 23 24  2  0
 23 25  1  0
M  END
$$$$
