PMK.pdb
     RDKit          3D

 25 25  0  0  1  0  0  0  0  0999 V2000
    7.1329  -14.7213   20.0765 N   0  0  0  0  0  0  0  0  0  0  0  0
    6.8963  -14.4077   18.6790 C   0  0  0  0  0  0  0  0  0  0  0  0
    7.4378  -13.0012   18.5725 C   0  0  0  0  0  0  0  0  0  0  0  0
    8.5475  -12.9775   19.6014 C   0  0  0  0  0  0  0  0  0  0  0  0
    8.5189  -14.3330   20.2403 C   0  0  1  0  0  0  0  0  0  0  0  0
    8.8805  -14.3280   21.6666 C   0  0  0  0  0  0  0  0  0  0  0  0
   10.0735  -14.1493   22.0038 O   0  0  0  0  0  0  0  0  0  0  0  0
    6.6223  -10.8240   26.6411 C   0  0  0  0  0  0  0  0  0  0  0  0
    6.4047  -12.5530   27.2060 S   0  0  0  0  0  0  0  0  0  0  0  0
    7.5802  -13.5595   26.2629 C   0  0  0  0  0  0  0  0  0  0  0  0
    7.1616  -13.6660   24.8060 C   0  0  0  0  0  0  0  0  0  0  0  0
    8.2466  -14.4230   24.0686 C   0  0  2  0  0  0  0  0  0  0  0  0
    7.9166  -14.5197   22.6649 N   0  0  0  0  0  0  0  0  0  0  0  0
    8.4809  -15.7647   24.6527 C   0  0  0  0  0  0  0  0  0  0  0  0
    7.5655  -16.6421   24.5314 O   0  0  0  0  0  0  0  0  0  0  0  0
    9.6414  -16.1419   25.3325 N   0  0  0  0  0  0  0  0  0  0  0  0
    9.9926  -17.5246   25.6864 C   0  0  1  0  0  0  0  0  0  0  0  0
   11.2553  -17.9375   25.0308 C   0  0  0  0  0  0  0  0  0  0  0  0
   11.6225  -19.3490   25.3524 C   0  0  0  0  0  0  0  0  0  0  0  0
   12.9565  -19.7114   24.6925 C   0  0  0  0  0  0  0  0  0  0  0  0
   13.4103  -21.1010   25.0370 C   0  0  0  0  0  0  0  0  0  0  0  0
   14.6049  -21.4375   24.2751 N   0  0  0  0  0  0  0  0  0  0  0  0
   10.1094  -17.5821   27.1545 C   0  0  0  0  0  0  0  0  0  0  0  0
   10.2812  -16.4860   27.7964 O   0  0  0  0  0  0  0  0  0  0  0  0
   10.0444  -18.7285   27.8938 O   0  0  0  0  0  0  0  0  0  0  0  0
  1  2  1  0
  3  2  1  0
  4  3  1  0
  5  4  1  0
  5  6  1  1
  5  1  1  0
  6  7  2  0
  8  9  1  0
 10  9  1  0
 11 10  1  0
 12 11  1  1
 12 14  1  0
 13  6  1  0
 13 12  1  0
 14 15  2  0
 16 14  1  0
 16 17  1  0
 17 23  1  0
 17 18  1  6
 19 20  1  0
 19 18  1  0
 20 21  1  0
 22 21  1  0
 23 24  2  0
 23 25  1  0
M  END
$$$$
