PMK.pdb
     RDKit          3D

 25 25  0  0  1  0  0  0  0  0999 V2000
    7.0291  -14.8810   20.0279 N   0  0  0  0  0  0  0  0  0  0  0  0
    6.7863  -14.5866   18.6273 C   0  0  0  0  0  0  0  0  0  0  0  0
    7.2579  -13.1555   18.5167 C   0  0  0  0  0  0  0  0  0  0  0  0
    8.3584  -13.0715   19.5523 C   0  0  0  0  0  0  0  0  0  0  0  0
    8.3930  -14.4235   20.1982 C   0  0  1  0  0  0  0  0  0  0  0  0
    8.7448  -14.3934   21.6267 C   0  0  0  0  0  0  0  0  0  0  0  0
    9.9381  -14.2263   21.9686 O   0  0  0  0  0  0  0  0  0  0  0  0
    7.1671  -10.9497   26.9127 C   0  0  0  0  0  0  0  0  0  0  0  0
    6.3253  -12.5625   27.1264 S   0  0  0  0  0  0  0  0  0  0  0  0
    7.3323  -13.7934   26.2575 C   0  0  0  0  0  0  0  0  0  0  0  0
    6.9180  -13.9070   24.8000 C   0  0  0  0  0  0  0  0  0  0  0  0
    8.0985  -14.4565   24.0264 C   0  0  2  0  0  0  0  0  0  0  0  0
    7.7710  -14.5481   22.6218 N   0  0  0  0  0  0  0  0  0  0  0  0
    8.5451  -15.7673   24.5542 C   0  0  0  0  0  0  0  0  0  0  0  0
    7.6760  -16.6883   24.6922 O   0  0  0  0  0  0  0  0  0  0  0  0
    9.8601  -16.0705   24.9150 N   0  0  0  0  0  0  0  0  0  0  0  0
   10.3287  -17.3997   25.3321 C   0  0  1  0  0  0  0  0  0  0  0  0
   11.7999  -17.5116   25.1982 C   0  0  0  0  0  0  0  0  0  0  0  0
   12.3158  -18.8147   25.7144 C   0  0  0  0  0  0  0  0  0  0  0  0
   12.8639  -19.6603   24.5608 C   0  0  0  0  0  0  0  0  0  0  0  0
   13.4311  -20.9706   25.0265 C   0  0  0  0  0  0  0  0  0  0  0  0
   13.7709  -21.8013   23.8797 N   0  0  0  0  0  0  0  0  0  0  0  0
    9.9035  -17.5926   26.7300 C   0  0  0  0  0  0  0  0  0  0  0  0
    9.9608  -18.7723   27.2280 O   0  0  0  0  0  0  0  0  0  0  0  0
    9.4502  -16.5971   27.5476 O   0  0  0  0  0  0  0  0  0  0  0  0
  1  2  1  0
  3  2  1  0
  4  3  1  0
  5  4  1  0
  5  6  1  1
  5  1  1  0
  6  7  2  0
  8  9  1  0
 10  9  1  0
 11 10  1  0
 12 11  1  1
 12 14  1  0
 13  6  1  0
 13 12  1  0
 14 15  2  0
 16 14  1  0
 16 17  1  0
 17 23  1  0
 17 18  1  1
 19 20  1  0
 19 18  1  0
 20 21  1  0
 22 21  1  0
 23 24  2  0
 23 25  1  0
M  END
$$$$
