PMK.pdb
     RDKit          3D

 25 25  0  0  1  0  0  0  0  0999 V2000
    7.1466  -14.8028   20.2361 N   0  0  0  0  0  0  0  0  0  0  0  0
    6.8590  -14.5204   18.8415 C   0  0  0  0  0  0  0  0  0  0  0  0
    7.2227  -13.0581   18.7314 C   0  0  0  0  0  0  0  0  0  0  0  0
    8.3316  -12.8985   19.7490 C   0  0  0  0  0  0  0  0  0  0  0  0
    8.4761  -14.2474   20.3863 C   0  0  1  0  0  0  0  0  0  0  0  0
    8.8490  -14.1982   21.8088 C   0  0  0  0  0  0  0  0  0  0  0  0
   10.0388  -13.9759   22.1312 O   0  0  0  0  0  0  0  0  0  0  0  0
    5.8893  -10.8875   26.2737 C   0  0  0  0  0  0  0  0  0  0  0  0
    6.1552  -12.4155   27.2485 S   0  0  0  0  0  0  0  0  0  0  0  0
    7.4300  -13.3690   26.3825 C   0  0  0  0  0  0  0  0  0  0  0  0
    7.0037  -13.6829   24.9582 C   0  0  0  0  0  0  0  0  0  0  0  0
    8.2206  -14.1921   24.2141 C   0  0  2  0  0  0  0  0  0  0  0  0
    7.8995  -14.3954   22.8197 N   0  0  0  0  0  0  0  0  0  0  0  0
    8.7624  -15.4312   24.8204 C   0  0  0  0  0  0  0  0  0  0  0  0
    8.9177  -15.4647   26.0842 O   0  0  0  0  0  0  0  0  0  0  0  0
    9.1186  -16.5752   24.1024 N   0  0  0  0  0  0  0  0  0  0  0  0
    9.6515  -17.8074   24.7008 C   0  0  1  0  0  0  0  0  0  0  0  0
   10.1315  -18.7420   23.6564 C   0  0  0  0  0  0  0  0  0  0  0  0
   10.7400  -19.9751   24.2394 C   0  0  0  0  0  0  0  0  0  0  0  0
   11.1977  -20.9175   23.1220 C   0  0  0  0  0  0  0  0  0  0  0  0
   11.8296  -22.1732   23.6509 C   0  0  0  0  0  0  0  0  0  0  0  0
   10.7972  -23.1160   24.0584 N   0  0  0  0  0  0  0  0  0  0  0  0
   10.7440  -17.4136   25.6083 C   0  0  0  0  0  0  0  0  0  0  0  0
   10.7442  -17.8809   26.8020 O   0  0  0  0  0  0  0  0  0  0  0  0
   11.7719  -16.5808   25.2696 O   0  0  0  0  0  0  0  0  0  0  0  0
  1  2  1  0
  3  2  1  0
  4  3  1  0
  5  4  1  0
  5  6  1  1
  5  1  1  0
  6  7  2  0
  8  9  1  0
 10  9  1  0
 11 10  1  0
 12 11  1  1
 12 14  1  0
 13  6  1  0
 13 12  1  0
 14 15  2  0
 16 14  1  0
 16 17  1  0
 17 23  1  0
 17 18  1  6
 19 20  1  0
 19 18  1  0
 20 21  1  0
 22 21  1  0
 23 24  2  0
 23 25  1  0
M  END
$$$$
