PMK.pdb
     RDKit          3D

 25 25  0  0  1  0  0  0  0  0999 V2000
    7.0453  -14.9738   19.9147 N   0  0  0  0  0  0  0  0  0  0  0  0
    6.8161  -14.7503   18.4987 C   0  0  0  0  0  0  0  0  0  0  0  0
    7.3308  -13.3423   18.3115 C   0  0  0  0  0  0  0  0  0  0  0  0
    8.4298  -13.2338   19.3465 C   0  0  0  0  0  0  0  0  0  0  0  0
    8.4217  -14.5483   20.0663 C   0  0  1  0  0  0  0  0  0  0  0  0
    8.7693  -14.4496   21.4927 C   0  0  0  0  0  0  0  0  0  0  0  0
    9.9555  -14.2278   21.8286 O   0  0  0  0  0  0  0  0  0  0  0  0
    6.9115  -11.7142   28.3924 C   0  0  0  0  0  0  0  0  0  0  0  0
    6.1923  -12.1946   26.7776 S   0  0  0  0  0  0  0  0  0  0  0  0
    7.4202  -13.2417   25.9529 C   0  0  0  0  0  0  0  0  0  0  0  0
    6.9804  -13.5898   24.5407 C   0  0  0  0  0  0  0  0  0  0  0  0
    8.1033  -14.3677   23.8865 C   0  0  2  0  0  0  0  0  0  0  0  0
    7.7995  -14.5984   22.4925 N   0  0  0  0  0  0  0  0  0  0  0  0
    8.3759  -15.6438   24.5890 C   0  0  0  0  0  0  0  0  0  0  0  0
    7.4139  -16.4649   24.7403 O   0  0  0  0  0  0  0  0  0  0  0  0
    9.6205  -16.0163   25.1021 N   0  0  0  0  0  0  0  0  0  0  0  0
    9.9148  -17.3145   25.7254 C   0  0  1  0  0  0  0  0  0  0  0  0
   11.1999  -17.8625   25.2322 C   0  0  0  0  0  0  0  0  0  0  0  0
   11.1692  -18.1389   23.7648 C   0  0  0  0  0  0  0  0  0  0  0  0
   12.5394  -18.6338   23.2916 C   0  0  0  0  0  0  0  0  0  0  0  0
   12.5528  -18.9808   21.8304 C   0  0  0  0  0  0  0  0  0  0  0  0
   13.9148  -19.2622   21.3984 N   0  0  0  0  0  0  0  0  0  0  0  0
    9.9501  -17.0998   27.1830 C   0  0  0  0  0  0  0  0  0  0  0  0
   10.1929  -18.1038   27.9421 O   0  0  0  0  0  0  0  0  0  0  0  0
    9.7445  -15.8966   27.7954 O   0  0  0  0  0  0  0  0  0  0  0  0
  1  2  1  0
  3  2  1  0
  4  3  1  0
  5  4  1  0
  5  6  1  1
  5  1  1  0
  6  7  2  0
  8  9  1  0
 10  9  1  0
 11 10  1  0
 12 11  1  1
 12 14  1  0
 13  6  1  0
 13 12  1  0
 14 15  2  0
 16 14  1  0
 16 17  1  0
 17 23  1  0
 17 18  1  6
 19 20  1  0
 19 18  1  0
 20 21  1  0
 22 21  1  0
 23 24  2  0
 23 25  1  0
M  END
$$$$
