PMK.pdb
     RDKit          3D

 25 25  0  0  1  0  0  0  0  0999 V2000
    6.9010  -14.5913   20.2807 N   0  0  0  0  0  0  0  0  0  0  0  0
    6.6728  -14.0274   18.9626 C   0  0  0  0  0  0  0  0  0  0  0  0
    7.2845  -12.6523   19.0946 C   0  0  0  0  0  0  0  0  0  0  0  0
    8.3997  -12.8629   20.0959 C   0  0  0  0  0  0  0  0  0  0  0  0
    8.3058  -14.3060   20.4895 C   0  0  1  0  0  0  0  0  0  0  0  0
    8.6752  -14.5678   21.8896 C   0  0  0  0  0  0  0  0  0  0  0  0
    9.8797  -14.5288   22.2314 O   0  0  0  0  0  0  0  0  0  0  0  0
    6.9720  -10.6108   26.5307 C   0  0  0  0  0  0  0  0  0  0  0  0
    6.5520  -12.3852   26.7060 S   0  0  0  0  0  0  0  0  0  0  0  0
    6.6038  -13.0983   25.0407 C   0  0  0  0  0  0  0  0  0  0  0  0
    6.8120  -14.6024   25.0973 C   0  0  0  0  0  0  0  0  0  0  0  0
    8.0332  -14.9307   24.2637 C   0  0  2  0  0  0  0  0  0  0  0  0
    7.7063  -14.8617   22.8576 N   0  0  0  0  0  0  0  0  0  0  0  0
    8.6026  -16.2538   24.6123 C   0  0  0  0  0  0  0  0  0  0  0  0
    7.8843  -17.2879   24.4192 O   0  0  0  0  0  0  0  0  0  0  0  0
    9.8798  -16.4529   25.1416 N   0  0  0  0  0  0  0  0  0  0  0  0
   10.4528  -17.7645   25.4757 C   0  0  1  0  0  0  0  0  0  0  0  0
   11.8408  -17.8831   24.9714 C   0  0  0  0  0  0  0  0  0  0  0  0
   12.4622  -19.1924   25.3325 C   0  0  0  0  0  0  0  0  0  0  0  0
   13.9005  -19.2568   24.8096 C   0  0  0  0  0  0  0  0  0  0  0  0
   14.5510  -20.5839   25.0762 C   0  0  0  0  0  0  0  0  0  0  0  0
   15.9192  -20.5764   24.5774 N   0  0  0  0  0  0  0  0  0  0  0  0
   10.4040  -17.9003   26.9424 C   0  0  0  0  0  0  0  0  0  0  0  0
   10.2215  -16.8452   27.6472 O   0  0  0  0  0  0  0  0  0  0  0  0
   10.5368  -19.0800   27.6174 O   0  0  0  0  0  0  0  0  0  0  0  0
  1  2  1  0
  3  2  1  0
  4  3  1  0
  5  4  1  0
  5  6  1  1
  5  1  1  0
  6  7  2  0
  8  9  1  0
 10  9  1  0
 11 10  1  0
 12 11  1  1
 12 14  1  0
 13  6  1  0
 13 12  1  0
 14 15  2  0
 16 14  1  0
 16 17  1  0
 17 23  1  0
 17 18  1  1
 19 20  1  0
 19 18  1  0
 20 21  1  0
 22 21  1  0
 23 24  2  0
 23 25  1  0
M  END
$$$$
