PMK.pdb
     RDKit          3D

 25 25  0  0  1  0  0  0  0  0999 V2000
    7.2035  -14.6042   20.4053 N   0  0  0  0  0  0  0  0  0  0  0  0
    6.9787  -14.1238   19.0540 C   0  0  0  0  0  0  0  0  0  0  0  0
    7.5133  -12.7125   19.1251 C   0  0  0  0  0  0  0  0  0  0  0  0
    8.6129  -12.8094   20.1606 C   0  0  0  0  0  0  0  0  0  0  0  0
    8.5857  -14.2327   20.6294 C   0  0  1  0  0  0  0  0  0  0  0  0
    8.9335  -14.3999   22.0493 C   0  0  0  0  0  0  0  0  0  0  0  0
   10.1348  -14.3655   22.4022 O   0  0  0  0  0  0  0  0  0  0  0  0
    6.4495  -11.5119   27.6883 C   0  0  0  0  0  0  0  0  0  0  0  0
    7.7363  -11.8041   26.4178 S   0  0  0  0  0  0  0  0  0  0  0  0
    6.9381  -12.7149   25.0696 C   0  0  0  0  0  0  0  0  0  0  0  0
    7.0888  -14.2149   25.2601 C   0  0  0  0  0  0  0  0  0  0  0  0
    8.2721  -14.6685   24.4306 C   0  0  2  0  0  0  0  0  0  0  0  0
    7.9472  -14.5981   23.0241 N   0  0  0  0  0  0  0  0  0  0  0  0
    8.7211  -16.0305   24.8044 C   0  0  0  0  0  0  0  0  0  0  0  0
    7.9063  -16.9969   24.6482 O   0  0  0  0  0  0  0  0  0  0  0  0
    9.9829  -16.3357   25.3201 N   0  0  0  0  0  0  0  0  0  0  0  0
   10.4657  -17.6949   25.6026 C   0  0  1  0  0  0  0  0  0  0  0  0
   11.8416  -17.8886   25.0886 C   0  0  0  0  0  0  0  0  0  0  0  0
   12.4401  -19.1768   25.5501 C   0  0  0  0  0  0  0  0  0  0  0  0
   12.1998  -20.2742   24.5088 C   0  0  0  0  0  0  0  0  0  0  0  0
   12.8814  -21.5643   24.8644 C   0  0  0  0  0  0  0  0  0  0  0  0
   12.6140  -22.5665   23.8422 N   0  0  0  0  0  0  0  0  0  0  0  0
   10.4101  -17.8820   27.0634 C   0  0  0  0  0  0  0  0  0  0  0  0
   10.4254  -16.8421   27.8129 O   0  0  0  0  0  0  0  0  0  0  0  0
   10.3392  -19.0941   27.6884 O   0  0  0  0  0  0  0  0  0  0  0  0
  1  2  1  0
  3  2  1  0
  4  3  1  0
  5  4  1  0
  5  6  1  1
  5  1  1  0
  6  7  2  0
  8  9  1  0
 10  9  1  0
 11 10  1  0
 12 11  1  1
 12 14  1  0
 13  6  1  0
 13 12  1  0
 14 15  2  0
 16 14  1  0
 16 17  1  0
 17 23  1  0
 17 18  1  1
 19 20  1  0
 19 18  1  0
 20 21  1  0
 22 21  1  0
 23 24  2  0
 23 25  1  0
M  END
$$$$
