PMK.pdb
     RDKit          3D

 25 25  0  0  1  0  0  0  0  0999 V2000
    6.9731  -14.6669   20.4765 N   0  0  0  0  0  0  0  0  0  0  0  0
    6.6772  -14.2095   19.1309 C   0  0  0  0  0  0  0  0  0  0  0  0
    7.2730  -12.8211   19.1286 C   0  0  0  0  0  0  0  0  0  0  0  0
    8.4352  -12.9403   20.0908 C   0  0  0  0  0  0  0  0  0  0  0  0
    8.3813  -14.3496   20.5980 C   0  0  1  0  0  0  0  0  0  0  0  0
    8.8173  -14.4978   21.9956 C   0  0  0  0  0  0  0  0  0  0  0  0
   10.0254  -14.3440   22.2885 O   0  0  0  0  0  0  0  0  0  0  0  0
    7.2746  -11.2130   27.3244 C   0  0  0  0  0  0  0  0  0  0  0  0
    6.0330  -12.2550   26.4710 S   0  0  0  0  0  0  0  0  0  0  0  0
    6.8715  -13.0030   25.0492 C   0  0  0  0  0  0  0  0  0  0  0  0
    7.1614  -14.4737   25.2981 C   0  0  0  0  0  0  0  0  0  0  0  0
    8.3134  -14.8752   24.4005 C   0  0  2  0  0  0  0  0  0  0  0  0
    7.9081  -14.8089   23.0149 N   0  0  0  0  0  0  0  0  0  0  0  0
    8.8354  -16.2207   24.7374 C   0  0  0  0  0  0  0  0  0  0  0  0
    8.0126  -17.1922   24.7796 O   0  0  0  0  0  0  0  0  0  0  0  0
   10.1745  -16.5051   25.0147 N   0  0  0  0  0  0  0  0  0  0  0  0
   10.7006  -17.8431   25.3203 C   0  0  1  0  0  0  0  0  0  0  0  0
   12.1329  -17.9478   24.9566 C   0  0  0  0  0  0  0  0  0  0  0  0
   12.3969  -19.0861   24.0264 C   0  0  0  0  0  0  0  0  0  0  0  0
   13.4341  -18.6797   22.9750 C   0  0  0  0  0  0  0  0  0  0  0  0
   13.6221  -19.7285   21.9166 C   0  0  0  0  0  0  0  0  0  0  0  0
   14.4005  -19.1862   20.8116 N   0  0  0  0  0  0  0  0  0  0  0  0
   10.4975  -18.0720   26.7620 C   0  0  0  0  0  0  0  0  0  0  0  0
   10.0664  -17.1011   27.4794 O   0  0  0  0  0  0  0  0  0  0  0  0
   10.7333  -19.2560   27.4005 O   0  0  0  0  0  0  0  0  0  0  0  0
  1  2  1  0
  3  2  1  0
  4  3  1  0
  5  4  1  0
  5  6  1  1
  5  1  1  0
  6  7  2  0
  8  9  1  0
 10  9  1  0
 11 10  1  0
 12 11  1  1
 12 14  1  0
 13  6  1  0
 13 12  1  0
 14 15  2  0
 16 14  1  0
 16 17  1  0
 17 23  1  0
 17 18  1  1
 19 20  1  0
 19 18  1  0
 20 21  1  0
 22 21  1  0
 23 24  2  0
 23 25  1  0
M  END
$$$$
