PMK.pdb
     RDKit          3D

 25 25  0  0  1  0  0  0  0  0999 V2000
    6.9530  -14.7183   20.5324 N   0  0  0  0  0  0  0  0  0  0  0  0
    6.6901  -14.2991   19.1677 C   0  0  0  0  0  0  0  0  0  0  0  0
    7.2294  -12.8879   19.1589 C   0  0  0  0  0  0  0  0  0  0  0  0
    8.3582  -12.9412   20.1656 C   0  0  0  0  0  0  0  0  0  0  0  0
    8.3418  -14.3416   20.6994 C   0  0  1  0  0  0  0  0  0  0  0  0
    8.7302  -14.4451   22.1148 C   0  0  0  0  0  0  0  0  0  0  0  0
    9.9369  -14.3469   22.4361 O   0  0  0  0  0  0  0  0  0  0  0  0
    7.8608  -10.9809   27.2360 C   0  0  0  0  0  0  0  0  0  0  0  0
    6.3785  -11.8668   26.6249 S   0  0  0  0  0  0  0  0  0  0  0  0
    6.8824  -12.7493   25.1244 C   0  0  0  0  0  0  0  0  0  0  0  0
    7.0298  -14.2382   25.3903 C   0  0  0  0  0  0  0  0  0  0  0  0
    8.1508  -14.7547   24.5125 C   0  0  2  0  0  0  0  0  0  0  0  0
    7.7770  -14.6524   23.1203 N   0  0  0  0  0  0  0  0  0  0  0  0
    8.5309  -16.1444   24.8597 C   0  0  0  0  0  0  0  0  0  0  0  0
    7.6550  -17.0593   24.7251 O   0  0  0  0  0  0  0  0  0  0  0  0
    9.7896  -16.5287   25.3279 N   0  0  0  0  0  0  0  0  0  0  0  0
   10.2026  -17.9173   25.5759 C   0  0  1  0  0  0  0  0  0  0  0  0
   11.4903  -18.2171   24.9074 C   0  0  0  0  0  0  0  0  0  0  0  0
   11.3031  -18.6470   23.4894 C   0  0  0  0  0  0  0  0  0  0  0  0
   12.6632  -18.8335   22.8099 C   0  0  0  0  0  0  0  0  0  0  0  0
   12.5362  -19.2577   21.3748 C   0  0  0  0  0  0  0  0  0  0  0  0
   13.8569  -19.3788   20.7731 N   0  0  0  0  0  0  0  0  0  0  0  0
   10.3068  -18.0866   27.0362 C   0  0  0  0  0  0  0  0  0  0  0  0
   10.1637  -17.0538   27.7820 O   0  0  0  0  0  0  0  0  0  0  0  0
   10.5440  -19.2755   27.6647 O   0  0  0  0  0  0  0  0  0  0  0  0
  1  2  1  0
  3  2  1  0
  4  3  1  0
  5  4  1  0
  5  6  1  1
  5  1  1  0
  6  7  2  0
  8  9  1  0
 10  9  1  0
 11 10  1  0
 12 11  1  1
 12 14  1  0
 13  6  1  0
 13 12  1  0
 14 15  2  0
 16 14  1  0
 16 17  1  0
 17 23  1  0
 17 18  1  6
 19 20  1  0
 19 18  1  0
 20 21  1  0
 22 21  1  0
 23 24  2  0
 23 25  1  0
M  END
$$$$
