PMK.pdb
     RDKit          3D

 25 25  0  0  1  0  0  0  0  0999 V2000
    7.1399  -14.9377   20.1239 N   0  0  0  0  0  0  0  0  0  0  0  0
    6.9143  -14.6697   18.7152 C   0  0  0  0  0  0  0  0  0  0  0  0
    7.3529  -13.2292   18.5912 C   0  0  0  0  0  0  0  0  0  0  0  0
    8.4329  -13.1032   19.6440 C   0  0  0  0  0  0  0  0  0  0  0  0
    8.4891  -14.4445   20.3105 C   0  0  1  0  0  0  0  0  0  0  0  0
    8.8152  -14.3850   21.7442 C   0  0  0  0  0  0  0  0  0  0  0  0
    9.9949  -14.1658   22.1038 O   0  0  0  0  0  0  0  0  0  0  0  0
    7.2025  -10.6742   26.9397 C   0  0  0  0  0  0  0  0  0  0  0  0
    6.3356  -12.2798   27.1010 S   0  0  0  0  0  0  0  0  0  0  0  0
    7.3777  -13.5172   26.2843 C   0  0  0  0  0  0  0  0  0  0  0  0
    7.0085  -13.6592   24.8171 C   0  0  0  0  0  0  0  0  0  0  0  0
    8.1248  -14.4199   24.1321 C   0  0  2  0  0  0  0  0  0  0  0  0
    7.8319  -14.5688   22.7248 N   0  0  0  0  0  0  0  0  0  0  0  0
    8.3680  -15.7371   24.7663 C   0  0  0  0  0  0  0  0  0  0  0  0
    7.3901  -16.5474   24.8647 O   0  0  0  0  0  0  0  0  0  0  0  0
    9.6010  -16.1597   25.2686 N   0  0  0  0  0  0  0  0  0  0  0  0
    9.8567  -17.4822   25.8568 C   0  0  1  0  0  0  0  0  0  0  0  0
   11.0544  -18.1109   25.2526 C   0  0  0  0  0  0  0  0  0  0  0  0
   10.7837  -18.6383   23.8817 C   0  0  0  0  0  0  0  0  0  0  0  0
   11.9956  -18.4009   22.9754 C   0  0  0  0  0  0  0  0  0  0  0  0
   11.8243  -19.0111   21.6138 C   0  0  0  0  0  0  0  0  0  0  0  0
   12.9703  -18.6869   20.7756 N   0  0  0  0  0  0  0  0  0  0  0  0
   10.0301  -17.2875   27.3074 C   0  0  0  0  0  0  0  0  0  0  0  0
   10.2854  -18.3119   28.0344 O   0  0  0  0  0  0  0  0  0  0  0  0
    9.9418  -16.0829   27.9447 O   0  0  0  0  0  0  0  0  0  0  0  0
  1  2  1  0
  3  2  1  0
  4  3  1  0
  5  4  1  0
  5  6  1  1
  5  1  1  0
  6  7  2  0
  8  9  1  0
 10  9  1  0
 11 10  1  0
 12 11  1  1
 12 14  1  0
 13  6  1  0
 13 12  1  0
 14 15  2  0
 16 14  1  0
 16 17  1  0
 17 23  1  0
 17 18  1  6
 19 20  1  0
 19 18  1  0
 20 21  1  0
 22 21  1  0
 23 24  2  0
 23 25  1  0
M  END
$$$$
