PMK.pdb
     RDKit          3D

 25 25  0  0  1  0  0  0  0  0999 V2000
    7.1322  -14.8548   19.9248 N   0  0  0  0  0  0  0  0  0  0  0  0
    6.8877  -14.5899   18.5186 C   0  0  0  0  0  0  0  0  0  0  0  0
    7.3899  -13.1728   18.3697 C   0  0  0  0  0  0  0  0  0  0  0  0
    8.4980  -13.0874   19.3971 C   0  0  0  0  0  0  0  0  0  0  0  0
    8.5068  -14.4234   20.0764 C   0  0  1  0  0  0  0  0  0  0  0  0
    8.8674  -14.3656   21.5017 C   0  0  0  0  0  0  0  0  0  0  0  0
   10.0455  -14.0992   21.8336 O   0  0  0  0  0  0  0  0  0  0  0  0
    6.9612  -11.5695   28.2627 C   0  0  0  0  0  0  0  0  0  0  0  0
    6.1577  -12.4334   26.8614 S   0  0  0  0  0  0  0  0  0  0  0  0
    7.4631  -13.3449   25.9957 C   0  0  0  0  0  0  0  0  0  0  0  0
    7.0623  -13.6405   24.5601 C   0  0  0  0  0  0  0  0  0  0  0  0
    8.2142  -14.3698   23.9004 C   0  0  2  0  0  0  0  0  0  0  0  0
    7.9190  -14.6028   22.5050 N   0  0  0  0  0  0  0  0  0  0  0  0
    8.5365  -15.6390   24.5943 C   0  0  0  0  0  0  0  0  0  0  0  0
    7.6096  -16.5018   24.7319 O   0  0  0  0  0  0  0  0  0  0  0  0
    9.7924  -15.9623   25.1132 N   0  0  0  0  0  0  0  0  0  0  0  0
   10.1869  -17.2991   25.5799 C   0  0  1  0  0  0  0  0  0  0  0  0
   11.5684  -17.6248   25.1556 C   0  0  0  0  0  0  0  0  0  0  0  0
   12.0375  -18.9283   25.7138 C   0  0  0  0  0  0  0  0  0  0  0  0
   12.3137  -19.9201   24.5797 C   0  0  0  0  0  0  0  0  0  0  0  0
   12.7059  -21.2786   25.0859 C   0  0  0  0  0  0  0  0  0  0  0  0
   12.8271  -22.2087   23.9719 N   0  0  0  0  0  0  0  0  0  0  0  0
   10.0648  -17.3012   27.0486 C   0  0  0  0  0  0  0  0  0  0  0  0
   10.1620  -18.4196   27.6675 O   0  0  0  0  0  0  0  0  0  0  0  0
    9.8566  -16.1879   27.8116 O   0  0  0  0  0  0  0  0  0  0  0  0
  1  2  1  0
  3  2  1  0
  4  3  1  0
  5  4  1  0
  5  6  1  1
  5  1  1  0
  6  7  2  0
  8  9  1  0
 10  9  1  0
 11 10  1  0
 12 11  1  1
 12 14  1  0
 13  6  1  0
 13 12  1  0
 14 15  2  0
 16 14  1  0
 16 17  1  0
 17 23  1  0
 17 18  1  1
 19 20  1  0
 19 18  1  0
 20 21  1  0
 22 21  1  0
 23 24  2  0
 23 25  1  0
M  END
$$$$
