VIN.pdb
     RDKit          3D

 24 23  0  0  1  0  0  0  0  0999 V2000
    6.8116  -14.3331   18.6573 C   0  0  0  0  0  0  0  0  0  0  0  0
    7.5082  -14.6264   19.9632 C   0  0  2  0  0  0  0  0  0  0  0  0
    6.6562  -15.6588   20.6983 C   0  0  0  0  0  0  0  0  0  0  0  0
    7.5865  -13.4158   20.8566 C   0  0  2  0  0  0  0  0  0  0  0  0
    8.2999  -12.3803   20.1236 N   0  0  0  0  0  0  0  0  0  0  0  0
    8.2220  -13.6903   22.1552 C   0  0  0  0  0  0  0  0  0  0  0  0
    9.4312  -13.9912   22.3093 O   0  0  0  0  0  0  0  0  0  0  0  0
    5.9509  -11.3811   26.6108 C   0  0  0  0  0  0  0  0  0  0  0  0
    6.9595  -11.8897   25.6035 C   0  0  0  0  0  0  0  0  0  0  0  0
    7.0848  -13.3843   25.7295 C   0  0  2  0  0  0  0  0  0  0  0  0
    7.7812  -13.6693   27.0465 C   0  0  0  0  0  0  0  0  0  0  0  0
    7.9780  -13.9365   24.6345 C   0  0  2  0  0  0  0  0  0  0  0  0
    7.4157  -13.6111   23.3232 N   0  0  0  0  0  0  0  0  0  0  0  0
    8.2190  -15.3790   24.7807 C   0  0  0  0  0  0  0  0  0  0  0  0
    7.4448  -16.2073   24.2381 O   0  0  0  0  0  0  0  0  0  0  0  0
   10.4508  -19.5555   22.5947 N   0  0  0  0  0  0  0  0  0  0  0  0
   10.9015  -18.6563   23.5930 C   0  0  0  0  0  0  0  0  0  0  0  0
   11.9148  -19.0149   24.2623 O   0  0  0  0  0  0  0  0  0  0  0  0
   10.2371  -17.3698   23.8498 C   0  0  0  0  0  0  0  0  0  0  0  0
    9.8454  -17.2619   25.2847 C   0  0  2  0  0  0  0  0  0  0  0  0
    9.3096  -15.9101   25.5225 N   0  0  0  0  0  0  0  0  0  0  0  0
   10.8757  -17.6073   26.2578 C   0  0  0  0  0  0  0  0  0  0  0  0
   10.9788  -18.9015   26.7298 O   0  0  0  0  0  0  0  0  0  0  0  0
   11.6895  -16.7232   26.6838 O   0  0  0  0  0  0  0  0  0  0  0  0
  2  1  1  6
  2  3  1  0
  4  6  1  0
  4  2  1  0
  4  5  1  6
  6 13  1  0
  7  6  2  0
  9  8  1  0
 10  9  1  0
 10 11  1  1
 12 10  1  0
 12 13  1  6
 14 21  1  0
 14 12  1  0
 15 14  2  0
 17 16  1  0
 17 18  2  0
 19 17  1  0
 20 19  1  6
 20 21  1  0
 22 20  1  0
 22 23  1  0
 24 22  2  0
M  END
$$$$
