VIN.pdb
     RDKit          3D

 24 23  0  0  1  0  0  0  0  0999 V2000
    8.1577  -20.5022   17.3031 C   0  0  0  0  0  0  0  0  0  0  0  0
    8.8968  -19.4840   18.1361 C   0  0  2  0  0  0  0  0  0  0  0  0
    8.3741  -19.6162   19.5649 C   0  0  0  0  0  0  0  0  0  0  0  0
    8.6119  -18.0702   17.7007 C   0  0  2  0  0  0  0  0  0  0  0  0
    9.0967  -17.9298   16.3355 N   0  0  0  0  0  0  0  0  0  0  0  0
    9.2037  -17.0568   18.5885 C   0  0  0  0  0  0  0  0  0  0  0  0
   10.4318  -16.8085   18.6702 O   0  0  0  0  0  0  0  0  0  0  0  0
    6.7006  -12.3251   19.8731 C   0  0  0  0  0  0  0  0  0  0  0  0
    7.7680  -13.3592   19.5863 C   0  0  0  0  0  0  0  0  0  0  0  0
    7.8709  -14.3098   20.7487 C   0  0  2  0  0  0  0  0  0  0  0  0
    8.4275  -13.5278   21.9232 C   0  0  0  0  0  0  0  0  0  0  0  0
    8.8682  -15.4125   20.4461 C   0  0  2  0  0  0  0  0  0  0  0  0
    8.3292  -16.3010   19.4157 N   0  0  0  0  0  0  0  0  0  0  0  0
    9.2671  -16.1546   21.6504 C   0  0  0  0  0  0  0  0  0  0  0  0
    8.4573  -16.9383   22.2070 O   0  0  0  0  0  0  0  0  0  0  0  0
   11.0369  -20.2710   23.8315 N   0  0  0  0  0  0  0  0  0  0  0  0
   11.8137  -19.4556   22.9714 C   0  0  0  0  0  0  0  0  0  0  0  0
   13.0470  -19.7309   22.8912 O   0  0  0  0  0  0  0  0  0  0  0  0
   11.2316  -18.3436   22.2051 C   0  0  0  0  0  0  0  0  0  0  0  0
   11.1607  -17.1125   23.0437 C   0  0  2  0  0  0  0  0  0  0  0  0
   10.5546  -16.0351   22.2419 N   0  0  0  0  0  0  0  0  0  0  0  0
   12.4121  -16.6825   23.6577 C   0  0  0  0  0  0  0  0  0  0  0  0
   13.0962  -15.5947   23.1505 O   0  0  0  0  0  0  0  0  0  0  0  0
   12.8886  -17.3027   24.6645 O   0  0  0  0  0  0  0  0  0  0  0  0
  2  1  1  6
  2  3  1  0
  4  6  1  0
  4  2  1  0
  4  5  1  6
  6 13  1  0
  7  6  2  0
  9  8  1  0
 10  9  1  0
 10 11  1  1
 12 10  1  0
 12 13  1  6
 14 21  1  0
 14 12  1  0
 15 14  2  0
 17 16  1  0
 17 18  2  0
 19 17  1  0
 20 19  1  6
 20 21  1  0
 22 20  1  0
 22 23  1  0
 24 22  2  0
M  END
$$$$
