VIN.pdb
     RDKit          3D

 24 23  0  0  1  0  0  0  0  0999 V2000
    8.0128  -17.8750   21.9301 C   0  0  0  0  0  0  0  0  0  0  0  0
    6.7605  -17.0334   21.9309 C   0  0  2  0  0  0  0  0  0  0  0  0
    5.9323  -17.4694   20.7241 C   0  0  0  0  0  0  0  0  0  0  0  0
    7.0540  -15.5673   21.7466 C   0  0  2  0  0  0  0  0  0  0  0  0
    7.6407  -15.4043   20.4246 N   0  0  0  0  0  0  0  0  0  0  0  0
    7.9254  -15.0115   22.7940 C   0  0  0  0  0  0  0  0  0  0  0  0
    9.1580  -14.8102   22.6651 O   0  0  0  0  0  0  0  0  0  0  0  0
    5.8324  -11.4787   26.3297 C   0  0  0  0  0  0  0  0  0  0  0  0
    6.8448  -12.1676   25.4401 C   0  0  0  0  0  0  0  0  0  0  0  0
    7.3555  -13.4059   26.1265 C   0  0  2  0  0  0  0  0  0  0  0  0
    8.2993  -12.9560   27.2255 C   0  0  0  0  0  0  0  0  0  0  0  0
    8.1741  -14.2467   25.1648 C   0  0  2  0  0  0  0  0  0  0  0  0
    7.3370  -14.6761   24.0438 N   0  0  0  0  0  0  0  0  0  0  0  0
    8.8225  -15.3869   25.8279 C   0  0  0  0  0  0  0  0  0  0  0  0
    8.1685  -16.4326   26.0701 O   0  0  0  0  0  0  0  0  0  0  0  0
   11.8996  -18.4467   28.7808 N   0  0  0  0  0  0  0  0  0  0  0  0
   10.5274  -18.3381   28.4441 C   0  0  0  0  0  0  0  0  0  0  0  0
    9.8099  -19.3598   28.6552 O   0  0  0  0  0  0  0  0  0  0  0  0
    9.9521  -17.1089   27.8780 C   0  0  0  0  0  0  0  0  0  0  0  0
   10.8469  -16.5513   26.8233 C   0  0  2  0  0  0  0  0  0  0  0  0
   10.1880  -15.3774   26.2242 N   0  0  0  0  0  0  0  0  0  0  0  0
   11.2965  -17.4908   25.8021 C   0  0  0  0  0  0  0  0  0  0  0  0
   11.0757  -17.2211   24.4653 O   0  0  0  0  0  0  0  0  0  0  0  0
   11.8951  -18.5680   26.1287 O   0  0  0  0  0  0  0  0  0  0  0  0
  2  1  1  6
  2  3  1  0
  4  6  1  0
  4  2  1  0
  4  5  1  6
  6 13  1  0
  7  6  2  0
  9  8  1  0
 10  9  1  0
 10 11  1  1
 12 10  1  0
 12 13  1  6
 14 21  1  0
 14 12  1  0
 15 14  2  0
 17 16  1  0
 17 18  2  0
 19 17  1  0
 20 19  1  1
 20 21  1  0
 22 20  1  0
 22 23  1  0
 24 22  2  0
M  END
$$$$
