VIN.pdb
     RDKit          3D

 24 23  0  0  1  0  0  0  0  0999 V2000
    6.2371  -17.3936   20.4710 C   0  0  0  0  0  0  0  0  0  0  0  0
    6.9512  -16.9423   21.7212 C   0  0  2  0  0  0  0  0  0  0  0  0
    6.0687  -17.3374   22.9032 C   0  0  0  0  0  0  0  0  0  0  0  0
    7.1109  -15.4455   21.7825 C   0  0  2  0  0  0  0  0  0  0  0  0
    7.7083  -15.0202   20.5252 N   0  0  0  0  0  0  0  0  0  0  0  0
    7.9041  -14.9910   22.9357 C   0  0  0  0  0  0  0  0  0  0  0  0
    9.1586  -14.9463   22.9667 O   0  0  0  0  0  0  0  0  0  0  0  0
    5.5842  -11.2001   26.2879 C   0  0  0  0  0  0  0  0  0  0  0  0
    6.5583  -11.9584   25.4122 C   0  0  0  0  0  0  0  0  0  0  0  0
    6.9945  -13.2144   26.1177 C   0  0  2  0  0  0  0  0  0  0  0  0
    7.7861  -12.7930   27.3410 C   0  0  0  0  0  0  0  0  0  0  0  0
    7.9387  -14.0153   25.2409 C   0  0  2  0  0  0  0  0  0  0  0  0
    7.2076  -14.5712   24.1015 N   0  0  0  0  0  0  0  0  0  0  0  0
    8.6524  -15.0585   25.9910 C   0  0  0  0  0  0  0  0  0  0  0  0
    8.7663  -14.9731   27.2398 O   0  0  0  0  0  0  0  0  0  0  0  0
    9.9594  -19.7520   27.5309 N   0  0  0  0  0  0  0  0  0  0  0  0
    8.7201  -19.0765   27.6573 C   0  0  0  0  0  0  0  0  0  0  0  0
    7.8758  -19.5862   28.4514 O   0  0  0  0  0  0  0  0  0  0  0  0
    8.4160  -17.8462   26.9114 C   0  0  0  0  0  0  0  0  0  0  0  0
    9.6015  -17.4095   26.1191 C   0  0  2  0  0  0  0  0  0  0  0  0
    9.2402  -16.1940   25.3689 N   0  0  0  0  0  0  0  0  0  0  0  0
   10.1971  -18.4174   25.2489 C   0  0  0  0  0  0  0  0  0  0  0  0
   11.2605  -19.1783   25.6945 O   0  0  0  0  0  0  0  0  0  0  0  0
    9.7466  -18.6073   24.0714 O   0  0  0  0  0  0  0  0  0  0  0  0
  2  1  1  6
  2  3  1  0
  4  6  1  0
  4  2  1  0
  4  5  1  6
  6 13  1  0
  7  6  2  0
  9  8  1  0
 10  9  1  0
 10 11  1  1
 12 10  1  0
 12 13  1  6
 14 21  1  0
 14 12  1  0
 15 14  2  0
 17 16  1  0
 17 18  2  0
 19 17  1  0
 20 19  1  6
 20 21  1  0
 22 20  1  0
 22 23  1  0
 24 22  2  0
M  END
$$$$
