VIN.pdb
     RDKit          3D

 24 23  0  0  1  0  0  0  0  0999 V2000
    6.8975  -14.2934   18.5061 C   0  0  0  0  0  0  0  0  0  0  0  0
    7.5607  -14.5789   19.8310 C   0  0  2  0  0  0  0  0  0  0  0  0
    6.7000  -15.6206   20.5424 C   0  0  0  0  0  0  0  0  0  0  0  0
    7.6009  -13.3676   20.7257 C   0  0  2  0  0  0  0  0  0  0  0  0
    8.3107  -12.3197   20.0070 N   0  0  0  0  0  0  0  0  0  0  0  0
    8.2154  -13.6317   22.0365 C   0  0  0  0  0  0  0  0  0  0  0  0
    9.4519  -13.6889   22.2472 O   0  0  0  0  0  0  0  0  0  0  0  0
    6.1246  -11.3942   26.3502 C   0  0  0  0  0  0  0  0  0  0  0  0
    7.0757  -12.0224   25.3544 C   0  0  0  0  0  0  0  0  0  0  0  0
    7.0964  -13.5142   25.5526 C   0  0  2  0  0  0  0  0  0  0  0  0
    7.8178  -13.7859   26.8590 C   0  0  0  0  0  0  0  0  0  0  0  0
    7.9066  -14.1841   24.4586 C   0  0  2  0  0  0  0  0  0  0  0  0
    7.3542  -13.8379   23.1484 N   0  0  0  0  0  0  0  0  0  0  0  0
    8.0022  -15.6392   24.6418 C   0  0  0  0  0  0  0  0  0  0  0  0
    7.3996  -16.1974   25.5933 O   0  0  0  0  0  0  0  0  0  0  0  0
   12.9754  -17.1770   25.3669 N   0  0  0  0  0  0  0  0  0  0  0  0
   12.3599  -17.3436   24.1014 C   0  0  0  0  0  0  0  0  0  0  0  0
   12.8948  -18.1819   23.3175 O   0  0  0  0  0  0  0  0  0  0  0  0
   11.1615  -16.5892   23.7049 C   0  0  0  0  0  0  0  0  0  0  0  0
    9.9329  -17.2391   24.2454 C   0  0  2  0  0  0  0  0  0  0  0  0
    8.7592  -16.4796   23.7801 N   0  0  0  0  0  0  0  0  0  0  0  0
    9.8988  -17.4439   25.6893 C   0  0  0  0  0  0  0  0  0  0  0  0
    9.7621  -18.7176   26.2066 O   0  0  0  0  0  0  0  0  0  0  0  0
    9.9934  -16.4550   26.4882 O   0  0  0  0  0  0  0  0  0  0  0  0
  2  1  1  6
  2  3  1  0
  4  6  1  0
  4  2  1  0
  4  5  1  6
  6 13  1  0
  7  6  2  0
  9  8  1  0
 10  9  1  0
 10 11  1  1
 12 10  1  0
 12 13  1  6
 14 21  1  0
 14 12  1  0
 15 14  2  0
 17 16  1  0
 17 18  2  0
 19 17  1  0
 20 19  1  1
 20 21  1  0
 22 20  1  0
 22 23  1  0
 24 22  2  0
M  END
$$$$
