VIN.pdb
     RDKit          3D

 24 23  0  0  1  0  0  0  0  0999 V2000
   10.6312  -19.8707   19.3922 C   0  0  0  0  0  0  0  0  0  0  0  0
    9.4340  -19.3524   18.6340 C   0  0  2  0  0  0  0  0  0  0  0  0
    9.2026  -20.3067   17.4645 C   0  0  0  0  0  0  0  0  0  0  0  0
    9.6774  -17.9901   18.0385 C   0  0  2  0  0  0  0  0  0  0  0  0
   10.7274  -18.1331   17.0408 N   0  0  0  0  0  0  0  0  0  0  0  0
   10.0233  -16.9696   19.0408 C   0  0  0  0  0  0  0  0  0  0  0  0
   11.1906  -16.5791   19.2890 O   0  0  0  0  0  0  0  0  0  0  0  0
    6.6969  -12.6938   20.1206 C   0  0  0  0  0  0  0  0  0  0  0  0
    7.9274  -13.5515   19.9174 C   0  0  0  0  0  0  0  0  0  0  0  0
    8.0666  -14.5102   21.0693 C   0  0  2  0  0  0  0  0  0  0  0  0
    8.3644  -13.6869   22.3080 C   0  0  0  0  0  0  0  0  0  0  0  0
    9.2572  -15.4262   20.8568 C   0  0  2  0  0  0  0  0  0  0  0  0
    8.9660  -16.3792   19.7851 N   0  0  0  0  0  0  0  0  0  0  0  0
    9.6698  -16.1063   22.0927 C   0  0  0  0  0  0  0  0  0  0  0  0
    9.0072  -17.0811   22.5291 O   0  0  0  0  0  0  0  0  0  0  0  0
   14.2140  -15.3820   22.3556 N   0  0  0  0  0  0  0  0  0  0  0  0
   13.5050  -16.4057   23.0321 C   0  0  0  0  0  0  0  0  0  0  0  0
   13.5800  -17.5687   22.5369 O   0  0  0  0  0  0  0  0  0  0  0  0
   12.7186  -16.1460   24.2472 C   0  0  0  0  0  0  0  0  0  0  0  0
   11.2818  -16.4740   24.0191 C   0  0  2  0  0  0  0  0  0  0  0  0
   10.8095  -15.7152   22.8478 N   0  0  0  0  0  0  0  0  0  0  0  0
   10.3948  -16.2972   25.1636 C   0  0  0  0  0  0  0  0  0  0  0  0
   10.5464  -17.0859   26.2876 O   0  0  0  0  0  0  0  0  0  0  0  0
    9.4722  -15.4176   25.1408 O   0  0  0  0  0  0  0  0  0  0  0  0
  2  1  1  6
  2  3  1  0
  4  6  1  0
  4  2  1  0
  4  5  1  6
  6 13  1  0
  7  6  2  0
  9  8  1  0
 10  9  1  0
 10 11  1  1
 12 10  1  0
 12 13  1  6
 14 21  1  0
 14 12  1  0
 15 14  2  0
 17 16  1  0
 17 18  2  0
 19 17  1  0
 20 19  1  1
 20 21  1  0
 22 20  1  0
 22 23  1  0
 24 22  2  0
M  END
$$$$
