VIN.pdb
     RDKit          3D

 24 23  0  0  1  0  0  0  0  0999 V2000
    6.8989  -13.3000   20.3089 C   0  0  0  0  0  0  0  0  0  0  0  0
    8.2131  -14.0021   20.0710 C   0  0  2  0  0  0  0  0  0  0  0  0
    8.1798  -14.5324   18.6393 C   0  0  0  0  0  0  0  0  0  0  0  0
    8.3966  -15.1969   20.9702 C   0  0  2  0  0  0  0  0  0  0  0  0
    7.1029  -15.8528   21.0909 N   0  0  0  0  0  0  0  0  0  0  0  0
    8.9506  -14.8533   22.2895 C   0  0  0  0  0  0  0  0  0  0  0  0
   10.1524  -14.5604   22.5052 O   0  0  0  0  0  0  0  0  0  0  0  0
    7.1081  -11.8331   27.0781 C   0  0  0  0  0  0  0  0  0  0  0  0
    8.0098  -12.9771   26.6669 C   0  0  0  0  0  0  0  0  0  0  0  0
    7.4609  -13.6275   25.4256 C   0  0  2  0  0  0  0  0  0  0  0  0
    6.4019  -14.6199   25.8667 C   0  0  0  0  0  0  0  0  0  0  0  0
    8.5422  -14.4263   24.7222 C   0  0  2  0  0  0  0  0  0  0  0  0
    8.0686  -14.8507   23.4041 N   0  0  0  0  0  0  0  0  0  0  0  0
    9.0108  -15.5649   25.5248 C   0  0  0  0  0  0  0  0  0  0  0  0
    9.0417  -16.7187   25.0272 O   0  0  0  0  0  0  0  0  0  0  0  0
   11.9379  -17.8767   24.6245 N   0  0  0  0  0  0  0  0  0  0  0  0
   11.6247  -17.8092   26.0049 C   0  0  0  0  0  0  0  0  0  0  0  0
   11.3821  -18.9082   26.5850 O   0  0  0  0  0  0  0  0  0  0  0  0
   11.5800  -16.5359   26.7392 C   0  0  0  0  0  0  0  0  0  0  0  0
   10.3159  -16.4295   27.5232 C   0  0  2  0  0  0  0  0  0  0  0  0
    9.4448  -15.4351   26.8726 N   0  0  0  0  0  0  0  0  0  0  0  0
   10.4668  -16.1568   28.9482 C   0  0  0  0  0  0  0  0  0  0  0  0
    9.9098  -15.0194   29.5000 O   0  0  0  0  0  0  0  0  0  0  0  0
   11.1123  -16.9602   29.6987 O   0  0  0  0  0  0  0  0  0  0  0  0
  2  1  1  1
  2  3  1  0
  4  6  1  0
  4  2  1  0
  4  5  1  1
  6 13  1  0
  7  6  2  0
  9  8  1  0
 10  9  1  0
 10 11  1  1
 12 10  1  0
 12 13  1  6
 14 21  1  0
 14 12  1  0
 15 14  2  0
 17 16  1  0
 17 18  2  0
 19 17  1  0
 20 19  1  6
 20 21  1  0
 22 20  1  0
 22 23  1  0
 24 22  2  0
M  END
$$$$
