VIN.pdb
     RDKit          3D

 24 23  0  0  1  0  0  0  0  0999 V2000
    7.1611  -13.5541   18.9643 C   0  0  0  0  0  0  0  0  0  0  0  0
    7.5553  -13.2520   20.3891 C   0  0  2  0  0  0  0  0  0  0  0  0
    8.6745  -12.2147   20.3293 C   0  0  0  0  0  0  0  0  0  0  0  0
    8.1199  -14.4565   21.0962 C   0  0  2  0  0  0  0  0  0  0  0  0
    7.0588  -15.4495   21.1779 N   0  0  0  0  0  0  0  0  0  0  0  0
    8.6702  -14.1469   22.4254 C   0  0  0  0  0  0  0  0  0  0  0  0
    9.7229  -13.4932   22.6279 O   0  0  0  0  0  0  0  0  0  0  0  0
    5.5689  -12.3515   26.3101 C   0  0  0  0  0  0  0  0  0  0  0  0
    6.7432  -12.6790   25.4131 C   0  0  0  0  0  0  0  0  0  0  0  0
    7.3525  -13.9869   25.8417 C   0  0  2  0  0  0  0  0  0  0  0  0
    7.9655  -13.7714   27.2123 C   0  0  0  0  0  0  0  0  0  0  0  0
    8.4871  -14.3741   24.9117 C   0  0  2  0  0  0  0  0  0  0  0  0
    7.9655  -14.6181   23.5663 N   0  0  0  0  0  0  0  0  0  0  0  0
    9.2573  -15.5210   25.4131 C   0  0  0  0  0  0  0  0  0  0  0  0
    9.7015  -15.5186   26.5889 O   0  0  0  0  0  0  0  0  0  0  0  0
    9.6784  -18.2805   21.6925 N   0  0  0  0  0  0  0  0  0  0  0  0
    9.5830  -18.7619   23.0220 C   0  0  0  0  0  0  0  0  0  0  0  0
    8.4774  -19.2789   23.3591 O   0  0  0  0  0  0  0  0  0  0  0  0
   10.7016  -18.6724   23.9723 C   0  0  0  0  0  0  0  0  0  0  0  0
   10.3380  -17.8001   25.1259 C   0  0  2  0  0  0  0  0  0  0  0  0
    9.5388  -16.6691   24.6228 N   0  0  0  0  0  0  0  0  0  0  0  0
   11.4458  -17.3434   25.9579 C   0  0  0  0  0  0  0  0  0  0  0  0
   11.5443  -17.7591   27.2717 O   0  0  0  0  0  0  0  0  0  0  0  0
   12.3321  -16.5580   25.4859 O   0  0  0  0  0  0  0  0  0  0  0  0
  2  1  1  6
  2  3  1  0
  4  6  1  0
  4  2  1  0
  4  5  1  1
  6 13  1  0
  7  6  2  0
  9  8  1  0
 10  9  1  0
 10 11  1  1
 12 10  1  0
 12 13  1  6
 14 21  1  0
 14 12  1  0
 15 14  2  0
 17 16  1  0
 17 18  2  0
 19 17  1  0
 20 19  1  6
 20 21  1  0
 22 20  1  0
 22 23  1  0
 24 22  2  0
M  END
$$$$
