VIN.pdb
     RDKit          3D

 24 23  0  0  1  0  0  0  0  0999 V2000
    7.7283  -17.0479   20.9072 C   0  0  0  0  0  0  0  0  0  0  0  0
    6.6753  -15.9700   20.9851 C   0  0  2  0  0  0  0  0  0  0  0  0
    5.9459  -15.9648   19.6435 C   0  0  0  0  0  0  0  0  0  0  0  0
    7.2708  -14.5971   21.1586 C   0  0  2  0  0  0  0  0  0  0  0  0
    8.0992  -14.3321   19.9916 N   0  0  0  0  0  0  0  0  0  0  0  0
    8.0362  -14.4476   22.4065 C   0  0  0  0  0  0  0  0  0  0  0  0
    9.2857  -14.5361   22.4931 O   0  0  0  0  0  0  0  0  0  0  0  0
    5.7590  -11.3527   26.3186 C   0  0  0  0  0  0  0  0  0  0  0  0
    6.7286  -12.0001   25.3534 C   0  0  0  0  0  0  0  0  0  0  0  0
    7.1468  -13.3437   25.8877 C   0  0  2  0  0  0  0  0  0  0  0  0
    8.0054  -13.0947   27.1130 C   0  0  0  0  0  0  0  0  0  0  0  0
    8.0216  -14.0666   24.8808 C   0  0  2  0  0  0  0  0  0  0  0  0
    7.3166  -14.1840   23.6037 N   0  0  0  0  0  0  0  0  0  0  0  0
    8.4798  -15.3740   25.3717 C   0  0  0  0  0  0  0  0  0  0  0  0
    7.6498  -16.2899   25.5996 O   0  0  0  0  0  0  0  0  0  0  0  0
   12.3318  -16.7902   23.1443 N   0  0  0  0  0  0  0  0  0  0  0  0
   11.4810  -17.4603   24.0582 C   0  0  0  0  0  0  0  0  0  0  0  0
   10.5895  -18.2078   23.5583 O   0  0  0  0  0  0  0  0  0  0  0  0
   11.6144  -17.3055   25.5145 C   0  0  0  0  0  0  0  0  0  0  0  0
   10.2946  -16.9800   26.1278 C   0  0  2  0  0  0  0  0  0  0  0  0
    9.8489  -15.6739   25.6118 N   0  0  0  0  0  0  0  0  0  0  0  0
   10.2360  -17.0274   27.5846 C   0  0  0  0  0  0  0  0  0  0  0  0
   10.0704  -15.8639   28.3107 O   0  0  0  0  0  0  0  0  0  0  0  0
   10.3375  -18.1375   28.2032 O   0  0  0  0  0  0  0  0  0  0  0  0
  2  1  1  6
  2  3  1  0
  4  6  1  0
  4  2  1  0
  4  5  1  6
  6 13  1  0
  7  6  2  0
  9  8  1  0
 10  9  1  0
 10 11  1  1
 12 10  1  0
 12 13  1  6
 14 21  1  0
 14 12  1  0
 15 14  2  0
 17 16  1  0
 17 18  2  0
 19 17  1  0
 20 19  1  1
 20 21  1  0
 22 20  1  0
 22 23  1  0
 24 22  2  0
M  END
$$$$
