VIN.pdb
     RDKit          3D

 24 23  0  0  1  0  0  0  0  0999 V2000
    8.1943  -17.7767   21.6645 C   0  0  0  0  0  0  0  0  0  0  0  0
    6.9854  -16.8739   21.6786 C   0  0  2  0  0  0  0  0  0  0  0  0
    6.1192  -17.2740   20.4862 C   0  0  0  0  0  0  0  0  0  0  0  0
    7.3485  -15.4251   21.4821 C   0  0  2  0  0  0  0  0  0  0  0  0
    7.9871  -15.3098   20.1793 N   0  0  0  0  0  0  0  0  0  0  0  0
    8.2065  -14.8895   22.5510 C   0  0  0  0  0  0  0  0  0  0  0  0
    9.4096  -14.5615   22.4042 O   0  0  0  0  0  0  0  0  0  0  0  0
    5.8468  -11.7052   26.2974 C   0  0  0  0  0  0  0  0  0  0  0  0
    6.8718  -12.2651   25.3347 C   0  0  0  0  0  0  0  0  0  0  0  0
    7.5145  -13.4845   25.9392 C   0  0  2  0  0  0  0  0  0  0  0  0
    8.3915  -13.0121   27.0831 C   0  0  0  0  0  0  0  0  0  0  0  0
    8.4316  -14.1550   24.9336 C   0  0  2  0  0  0  0  0  0  0  0  0
    7.6401  -14.7291   23.8447 N   0  0  0  0  0  0  0  0  0  0  0  0
    9.3095  -15.1566   25.5551 C   0  0  0  0  0  0  0  0  0  0  0  0
   10.1838  -14.8023   26.3857 O   0  0  0  0  0  0  0  0  0  0  0  0
   11.9784  -17.2190   22.9320 N   0  0  0  0  0  0  0  0  0  0  0  0
   11.3372  -17.9614   23.9547 C   0  0  0  0  0  0  0  0  0  0  0  0
   10.6983  -18.9922   23.5905 O   0  0  0  0  0  0  0  0  0  0  0  0
   11.4017  -17.5676   25.3701 C   0  0  0  0  0  0  0  0  0  0  0  0
   10.0368  -17.5530   25.9705 C   0  0  2  0  0  0  0  0  0  0  0  0
    9.2261  -16.5459   25.2639 N   0  0  0  0  0  0  0  0  0  0  0  0
    9.9748  -17.3702   27.4165 C   0  0  0  0  0  0  0  0  0  0  0  0
   10.6640  -18.2255   28.2543 O   0  0  0  0  0  0  0  0  0  0  0  0
    9.2865  -16.4241   27.9228 O   0  0  0  0  0  0  0  0  0  0  0  0
  2  1  1  6
  2  3  1  0
  4  6  1  0
  4  2  1  0
  4  5  1  6
  6 13  1  0
  7  6  2  0
  9  8  1  0
 10  9  1  0
 10 11  1  1
 12 10  1  0
 12 13  1  6
 14 21  1  0
 14 12  1  0
 15 14  2  0
 17 16  1  0
 17 18  2  0
 19 17  1  0
 20 19  1  6
 20 21  1  0
 22 20  1  0
 22 23  1  0
 24 22  2  0
M  END
$$$$
