VIN.pdb
     RDKit          3D

 24 23  0  0  1  0  0  0  0  0999 V2000
    6.9464  -13.4952   18.9678 C   0  0  0  0  0  0  0  0  0  0  0  0
    7.3533  -13.2799   20.4048 C   0  0  2  0  0  0  0  0  0  0  0  0
    8.5799  -12.3705   20.3869 C   0  0  0  0  0  0  0  0  0  0  0  0
    7.7736  -14.5593   21.0802 C   0  0  2  0  0  0  0  0  0  0  0  0
    6.5976  -15.4127   21.1650 N   0  0  0  0  0  0  0  0  0  0  0  0
    8.3806  -14.3469   22.4039 C   0  0  0  0  0  0  0  0  0  0  0  0
    9.5319  -13.8841   22.5958 O   0  0  0  0  0  0  0  0  0  0  0  0
    5.8375  -11.9148   26.2557 C   0  0  0  0  0  0  0  0  0  0  0  0
    6.8864  -12.5259   25.3517 C   0  0  0  0  0  0  0  0  0  0  0  0
    7.2144  -13.9145   25.8309 C   0  0  2  0  0  0  0  0  0  0  0  0
    7.9145  -13.7763   27.1694 C   0  0  0  0  0  0  0  0  0  0  0  0
    8.1994  -14.5822   24.8896 C   0  0  2  0  0  0  0  0  0  0  0  0
    7.6150  -14.6877   23.5521 N   0  0  0  0  0  0  0  0  0  0  0  0
    8.6563  -15.8870   25.3885 C   0  0  0  0  0  0  0  0  0  0  0  0
    7.8217  -16.7847   25.6670 O   0  0  0  0  0  0  0  0  0  0  0  0
   12.4592  -17.1275   23.0918 N   0  0  0  0  0  0  0  0  0  0  0  0
   11.6258  -17.8812   23.9552 C   0  0  0  0  0  0  0  0  0  0  0  0
   10.7343  -18.5916   23.4040 O   0  0  0  0  0  0  0  0  0  0  0  0
   11.7765  -17.8501   25.4177 C   0  0  0  0  0  0  0  0  0  0  0  0
   10.4763  -17.5205   26.0695 C   0  0  2  0  0  0  0  0  0  0  0  0
   10.0289  -16.2045   25.5808 N   0  0  0  0  0  0  0  0  0  0  0  0
   10.4557  -17.5847   27.5267 C   0  0  0  0  0  0  0  0  0  0  0  0
   10.3250  -18.8024   28.1660 O   0  0  0  0  0  0  0  0  0  0  0  0
   10.5565  -16.5231   28.2253 O   0  0  0  0  0  0  0  0  0  0  0  0
  2  1  1  6
  2  3  1  0
  4  6  1  0
  4  2  1  0
  4  5  1  1
  6 13  1  0
  7  6  2  0
  9  8  1  0
 10  9  1  0
 10 11  1  1
 12 10  1  0
 12 13  1  6
 14 21  1  0
 14 12  1  0
 15 14  2  0
 17 16  1  0
 17 18  2  0
 19 17  1  0
 20 19  1  1
 20 21  1  0
 22 20  1  0
 22 23  1  0
 24 22  2  0
M  END
$$$$
