VIN.pdb
     RDKit          3D

 24 23  0  0  1  0  0  0  0  0999 V2000
    6.5710  -15.4484   18.9895 C   0  0  0  0  0  0  0  0  0  0  0  0
    7.3407  -15.4758   20.2870 C   0  0  2  0  0  0  0  0  0  0  0  0
    6.5895  -16.4144   21.2287 C   0  0  0  0  0  0  0  0  0  0  0  0
    7.3795  -14.1285   20.9600 C   0  0  2  0  0  0  0  0  0  0  0  0
    7.9675  -13.1884   20.0172 N   0  0  0  0  0  0  0  0  0  0  0  0
    8.1096  -14.1364   22.2377 C   0  0  0  0  0  0  0  0  0  0  0  0
    9.3593  -14.1920   22.3459 O   0  0  0  0  0  0  0  0  0  0  0  0
    5.8680  -11.4115   26.4205 C   0  0  0  0  0  0  0  0  0  0  0  0
    6.8663  -11.9890   25.4404 C   0  0  0  0  0  0  0  0  0  0  0  0
    7.1273  -13.4316   25.7813 C   0  0  2  0  0  0  0  0  0  0  0  0
    7.8924  -13.4545   27.0909 C   0  0  0  0  0  0  0  0  0  0  0  0
    8.0264  -14.0693   24.7388 C   0  0  2  0  0  0  0  0  0  0  0  0
    7.3530  -14.0771   23.4396 N   0  0  0  0  0  0  0  0  0  0  0  0
    8.4720  -15.4145   25.1290 C   0  0  0  0  0  0  0  0  0  0  0  0
    7.6364  -16.3444   25.2580 O   0  0  0  0  0  0  0  0  0  0  0  0
   12.1078  -19.7612   24.4045 N   0  0  0  0  0  0  0  0  0  0  0  0
   12.1539  -18.6327   25.2604 C   0  0  0  0  0  0  0  0  0  0  0  0
   12.7356  -18.7900   26.3740 O   0  0  0  0  0  0  0  0  0  0  0  0
   11.5612  -17.3394   24.8883 C   0  0  0  0  0  0  0  0  0  0  0  0
   10.2885  -17.1150   25.6324 C   0  0  2  0  0  0  0  0  0  0  0  0
    9.8346  -15.7367   25.3769 N   0  0  0  0  0  0  0  0  0  0  0  0
   10.3204  -17.4111   27.0604 C   0  0  0  0  0  0  0  0  0  0  0  0
   10.0445  -18.6876   27.5108 O   0  0  0  0  0  0  0  0  0  0  0  0
   10.6010  -16.5000   27.9067 O   0  0  0  0  0  0  0  0  0  0  0  0
  2  1  1  6
  2  3  1  0
  4  6  1  0
  4  2  1  0
  4  5  1  6
  6 13  1  0
  7  6  2  0
  9  8  1  0
 10  9  1  0
 10 11  1  1
 12 10  1  0
 12 13  1  6
 14 21  1  0
 14 12  1  0
 15 14  2  0
 17 16  1  0
 17 18  2  0
 19 17  1  0
 20 19  1  1
 20 21  1  0
 22 20  1  0
 22 23  1  0
 24 22  2  0
M  END
$$$$
