VIN.pdb
     RDKit          3D

 24 23  0  0  1  0  0  0  0  0999 V2000
    6.8715  -15.1602   18.7980 C   0  0  0  0  0  0  0  0  0  0  0  0
    7.5165  -15.3056   20.1543 C   0  0  2  0  0  0  0  0  0  0  0  0
    6.6163  -16.2244   20.9773 C   0  0  0  0  0  0  0  0  0  0  0  0
    7.5929  -13.9970   20.8969 C   0  0  2  0  0  0  0  0  0  0  0  0
    8.3094  -13.0566   20.0479 N   0  0  0  0  0  0  0  0  0  0  0  0
    8.2239  -14.1146   22.2211 C   0  0  0  0  0  0  0  0  0  0  0  0
    9.4470  -14.3231   22.4135 O   0  0  0  0  0  0  0  0  0  0  0  0
    5.9005  -11.3019   26.2416 C   0  0  0  0  0  0  0  0  0  0  0  0
    6.9423  -11.9461   25.3525 C   0  0  0  0  0  0  0  0  0  0  0  0
    7.0837  -13.3996   25.7170 C   0  0  2  0  0  0  0  0  0  0  0  0
    7.8032  -13.4624   27.0509 C   0  0  0  0  0  0  0  0  0  0  0  0
    7.9650  -14.1160   24.7111 C   0  0  2  0  0  0  0  0  0  0  0  0
    7.3961  -13.9842   23.3692 N   0  0  0  0  0  0  0  0  0  0  0  0
    8.1958  -15.5228   25.0686 C   0  0  0  0  0  0  0  0  0  0  0  0
    7.4220  -16.4179   24.6445 O   0  0  0  0  0  0  0  0  0  0  0  0
   12.2265  -18.8741   23.5232 N   0  0  0  0  0  0  0  0  0  0  0  0
   10.9516  -18.7573   24.1308 C   0  0  0  0  0  0  0  0  0  0  0  0
   10.4041  -19.8343   24.5098 O   0  0  0  0  0  0  0  0  0  0  0  0
   10.2863  -17.4594   24.3182 C   0  0  0  0  0  0  0  0  0  0  0  0
    9.9104  -17.2671   25.7484 C   0  0  2  0  0  0  0  0  0  0  0  0
    9.2761  -15.9450   25.8913 N   0  0  0  0  0  0  0  0  0  0  0  0
   10.9797  -17.4549   26.7227 C   0  0  0  0  0  0  0  0  0  0  0  0
   11.0810  -18.6420   27.4220 O   0  0  0  0  0  0  0  0  0  0  0  0
   11.8297  -16.5300   26.9409 O   0  0  0  0  0  0  0  0  0  0  0  0
  2  1  1  6
  2  3  1  0
  4  6  1  0
  4  2  1  0
  4  5  1  6
  6 13  1  0
  7  6  2  0
  9  8  1  0
 10  9  1  0
 10 11  1  1
 12 10  1  0
 12 13  1  6
 14 21  1  0
 14 12  1  0
 15 14  2  0
 17 16  1  0
 17 18  2  0
 19 17  1  0
 20 19  1  6
 20 21  1  0
 22 20  1  0
 22 23  1  0
 24 22  2  0
M  END
$$$$
