VIN.pdb
     RDKit          3D

 24 23  0  0  1  0  0  0  0  0999 V2000
    7.8648  -17.3043   16.2723 C   0  0  0  0  0  0  0  0  0  0  0  0
    8.2926  -18.6805   16.7193 C   0  0  2  0  0  0  0  0  0  0  0  0
    7.2511  -19.6630   16.1883 C   0  0  0  0  0  0  0  0  0  0  0  0
    8.2951  -18.8219   18.2192 C   0  0  2  0  0  0  0  0  0  0  0  0
    6.9122  -18.9847   18.6427 N   0  0  0  0  0  0  0  0  0  0  0  0
    8.9398  -17.6936   18.9096 C   0  0  0  0  0  0  0  0  0  0  0  0
   10.1256  -17.3253   18.7228 O   0  0  0  0  0  0  0  0  0  0  0  0
    7.5330  -12.3388   21.3480 C   0  0  0  0  0  0  0  0  0  0  0  0
    8.4941  -13.5078   21.3231 C   0  0  0  0  0  0  0  0  0  0  0  0
    7.8262  -14.6929   20.6791 C   0  0  2  0  0  0  0  0  0  0  0  0
    6.6762  -15.1062   21.5778 C   0  0  0  0  0  0  0  0  0  0  0  0
    8.7793  -15.8718   20.6192 C   0  0  2  0  0  0  0  0  0  0  0  0
    8.1719  -16.9637   19.8572 N   0  0  0  0  0  0  0  0  0  0  0  0
    9.2108  -16.3132   21.9530 C   0  0  0  0  0  0  0  0  0  0  0  0
    8.4445  -17.0072   22.6677 O   0  0  0  0  0  0  0  0  0  0  0  0
   13.9072  -17.1761   21.9212 N   0  0  0  0  0  0  0  0  0  0  0  0
   12.9172  -17.4941   22.8839 C   0  0  0  0  0  0  0  0  0  0  0  0
   12.4830  -18.6836   22.8780 O   0  0  0  0  0  0  0  0  0  0  0  0
   12.4103  -16.5046   23.8464 C   0  0  0  0  0  0  0  0  0  0  0  0
   10.9196  -16.4704   23.8238 C   0  0  2  0  0  0  0  0  0  0  0  0
   10.4833  -15.9919   22.5003 N   0  0  0  0  0  0  0  0  0  0  0  0
   10.2795  -15.7224   24.9002 C   0  0  0  0  0  0  0  0  0  0  0  0
    9.5191  -14.6055   24.6125 O   0  0  0  0  0  0  0  0  0  0  0  0
   10.4139  -16.0875   26.1143 O   0  0  0  0  0  0  0  0  0  0  0  0
  2  1  1  1
  2  3  1  0
  4  6  1  0
  4  2  1  0
  4  5  1  1
  6 13  1  0
  7  6  2  0
  9  8  1  0
 10  9  1  0
 10 11  1  1
 12 10  1  0
 12 13  1  1
 14 21  1  0
 14 12  1  0
 15 14  2  0
 17 16  1  0
 17 18  2  0
 19 17  1  0
 20 19  1  6
 20 21  1  0
 22 20  1  0
 22 23  1  0
 24 22  2  0
M  END
$$$$
