GYN.pdb
     RDKit          3D

 25 25  0  0  1  0  0  0  0  0999 V2000
   17.2183   -3.9136  -15.6150 N   0  0  0  0  0  0  0  0  0  0  0  0
   17.7192   -5.1204  -14.9833 C   0  0  0  0  0  0  0  0  0  0  0  0
   19.0942   -5.4489  -15.4538 C   0  0  0  0  0  0  0  0  0  0  0  0
   19.4962   -5.0976  -16.5808 O   0  0  0  0  0  0  0  0  0  0  0  0
   23.1422   -0.3445  -15.0607 O   0  0  0  0  0  0  0  0  0  0  0  0
   22.9539   -1.7034  -14.8474 C   0  0  0  0  0  0  0  0  0  0  0  0
   23.5934   -2.6633  -15.6034 C   0  0  0  0  0  0  0  0  0  0  0  0
   23.3926   -4.0062  -15.3753 C   0  0  0  0  0  0  0  0  0  0  0  0
   22.5493   -4.4682  -14.3883 C   0  0  0  0  0  0  0  0  0  0  0  0
   22.3488   -5.9076  -14.1639 C   0  0  0  0  0  0  0  0  0  0  0  0
   21.3588   -6.5257  -15.0473 C   0  0  2  0  0  0  0  0  0  0  0  0
   19.9830   -6.1621  -14.6502 N   0  0  0  0  0  0  0  0  0  0  0  0
   21.3670   -7.9734  -15.0936 C   0  0  0  0  0  0  0  0  0  0  0  0
   21.4178   -8.5973  -13.9662 O   0  0  0  0  0  0  0  0  0  0  0  0
   21.9089   -3.5005  -13.6311 C   0  0  0  0  0  0  0  0  0  0  0  0
   22.1132   -2.1791  -13.8634 C   0  0  0  0  0  0  0  0  0  0  0  0
   18.6438  -12.9959  -16.1820 N   0  0  0  0  0  0  0  0  0  0  0  0
   19.8622  -12.3082  -15.9728 C   0  0  0  0  0  0  0  0  0  0  0  0
   20.8443  -12.9360  -15.5321 O   0  0  0  0  0  0  0  0  0  0  0  0
   19.9532  -10.8815  -16.2738 C   0  0  0  0  0  0  0  0  0  0  0  0
   21.3393  -10.2915  -16.0799 C   0  0  2  0  0  0  0  0  0  0  0  0
   21.3151   -8.8490  -16.2101 N   0  0  0  0  0  0  0  0  0  0  0  0
   22.2883  -10.9062  -16.9909 C   0  0  0  0  0  0  0  0  0  0  0  0
   22.1380  -10.8807  -18.2621 O   0  0  0  0  0  0  0  0  0  0  0  0
   23.4109  -11.5556  -16.5492 O   0  0  0  0  0  0  0  0  0  0  0  0
  1  2  1  0
  3 12  1  0
  3  2  1  0
  4  3  2  0
  6  5  1  0
  7  6  2  0
  8  7  1  0
  9  8  2  0
  9 15  1  0
 10  9  1  0
 11 10  1  1
 11 12  1  0
 13 11  1  0
 13 14  2  0
 15 16  2  0
 16  6  1  0
 18 19  2  0
 18 17  1  0
 20 18  1  0
 21 22  1  0
 21 20  1  6
 22 13  1  0
 23 21  1  0
 24 23  2  0
 25 23  1  0
M  END
$$$$
