GYN.pdb
     RDKit          3D

 25 25  0  0  1  0  0  0  0  0999 V2000
   24.0402  -25.5754  -15.0001 N   0  0  0  0  0  0  0  0  0  0  0  0
   24.9898  -24.4934  -15.1844 C   0  0  0  0  0  0  0  0  0  0  0  0
   24.3650  -23.1696  -14.9064 C   0  0  0  0  0  0  0  0  0  0  0  0
   23.1325  -23.0517  -14.7571 O   0  0  0  0  0  0  0  0  0  0  0  0
   24.1201  -21.2815   -8.2114 O   0  0  0  0  0  0  0  0  0  0  0  0
   24.4263  -20.9505   -9.5244 C   0  0  0  0  0  0  0  0  0  0  0  0
   25.6965  -21.0914  -10.0426 C   0  0  0  0  0  0  0  0  0  0  0  0
   25.9791  -20.7572  -11.3480 C   0  0  0  0  0  0  0  0  0  0  0  0
   25.0202  -20.2666  -12.2074 C   0  0  0  0  0  0  0  0  0  0  0  0
   25.3453  -19.9145  -13.5977 C   0  0  0  0  0  0  0  0  0  0  0  0
   24.5842  -20.6569  -14.6038 C   0  0  2  0  0  0  0  0  0  0  0  0
   25.1365  -22.0127  -14.8029 N   0  0  0  0  0  0  0  0  0  0  0  0
   24.5420  -20.0697  -15.9272 C   0  0  0  0  0  0  0  0  0  0  0  0
   25.5080  -20.3604  -16.7304 O   0  0  0  0  0  0  0  0  0  0  0  0
   23.7453  -20.1266  -11.6828 C   0  0  0  0  0  0  0  0  0  0  0  0
   23.4765  -20.4588  -10.3948 C   0  0  0  0  0  0  0  0  0  0  0  0
   22.4130  -21.1789  -20.7486 N   0  0  0  0  0  0  0  0  0  0  0  0
   23.3850  -20.4045  -20.0728 C   0  0  0  0  0  0  0  0  0  0  0  0
   24.1594  -19.6896  -20.7378 O   0  0  0  0  0  0  0  0  0  0  0  0
   23.4683  -20.4522  -18.6151 C   0  0  0  0  0  0  0  0  0  0  0  0
   23.3870  -19.0931  -17.9421 C   0  0  2  0  0  0  0  0  0  0  0  0
   23.5761  -19.2078  -16.5105 N   0  0  0  0  0  0  0  0  0  0  0  0
   22.1389  -18.4310  -18.2767 C   0  0  0  0  0  0  0  0  0  0  0  0
   21.1200  -18.4500  -17.5016 O   0  0  0  0  0  0  0  0  0  0  0  0
   21.9684  -17.7397  -19.4472 O   0  0  0  0  0  0  0  0  0  0  0  0
  1  2  1  0
  3 12  1  0
  3  2  1  0
  4  3  2  0
  6  5  1  0
  7  6  2  0
  8  7  1  0
  9  8  2  0
  9 15  1  0
 10  9  1  0
 11 10  1  1
 11 12  1  0
 13 11  1  0
 13 14  2  0
 15 16  2  0
 16  6  1  0
 18 19  2  0
 18 17  1  0
 20 18  1  0
 21 22  1  0
 21 20  1  6
 22 13  1  0
 23 21  1  0
 24 23  2  0
 25 23  1  0
M  END
$$$$
