GYN.pdb
     RDKit          3D

 25 25  0  0  1  0  0  0  0  0999 V2000
   26.0423  -25.4350  -15.9467 N   0  0  0  0  0  0  0  0  0  0  0  0
   26.1831  -23.9927  -16.0246 C   0  0  0  0  0  0  0  0  0  0  0  0
   25.1164  -23.3003  -15.2481 C   0  0  0  0  0  0  0  0  0  0  0  0
   24.1583  -23.9297  -14.7570 O   0  0  0  0  0  0  0  0  0  0  0  0
   25.0082  -21.0830   -7.9415 O   0  0  0  0  0  0  0  0  0  0  0  0
   24.9267  -20.8345   -9.3050 C   0  0  0  0  0  0  0  0  0  0  0  0
   23.7360  -20.5232   -9.9272 C   0  0  0  0  0  0  0  0  0  0  0  0
   23.6769  -20.2802  -11.2812 C   0  0  0  0  0  0  0  0  0  0  0  0
   24.7922  -20.3328  -12.0887 C   0  0  0  0  0  0  0  0  0  0  0  0
   24.7051  -20.0713  -13.5332 C   0  0  0  0  0  0  0  0  0  0  0  0
   24.1151  -21.1619  -14.3112 C   0  0  2  0  0  0  0  0  0  0  0  0
   25.1503  -21.9217  -15.0420 N   0  0  0  0  0  0  0  0  0  0  0  0
   23.1520  -20.7717  -15.3203 C   0  0  0  0  0  0  0  0  0  0  0  0
   23.6158  -20.2540  -16.4064 O   0  0  0  0  0  0  0  0  0  0  0  0
   25.9865  -20.6459  -11.4597 C   0  0  0  0  0  0  0  0  0  0  0  0
   26.0347  -20.8838  -10.1245 C   0  0  0  0  0  0  0  0  0  0  0  0
   19.6857  -21.3377  -19.5437 N   0  0  0  0  0  0  0  0  0  0  0  0
   19.3211  -21.2056  -18.1832 C   0  0  0  0  0  0  0  0  0  0  0  0
   18.1936  -20.7574  -17.8990 O   0  0  0  0  0  0  0  0  0  0  0  0
   20.2636  -21.5932  -17.1365 C   0  0  0  0  0  0  0  0  0  0  0  0
   20.9109  -20.4227  -16.4170 C   0  0  2  0  0  0  0  0  0  0  0  0
   21.7362  -20.8783  -15.3171 N   0  0  0  0  0  0  0  0  0  0  0  0
   19.9052  -19.4683  -15.9861 C   0  0  0  0  0  0  0  0  0  0  0  0
   19.3658  -19.5131  -14.8257 O   0  0  0  0  0  0  0  0  0  0  0  0
   19.4657  -18.4533  -16.7947 O   0  0  0  0  0  0  0  0  0  0  0  0
  1  2  1  0
  3 12  1  0
  3  2  1  0
  4  3  2  0
  6  5  1  0
  7  6  2  0
  8  7  1  0
  9  8  2  0
  9 15  1  0
 10  9  1  0
 11 10  1  6
 11 12  1  0
 13 11  1  0
 13 14  2  0
 15 16  2  0
 16  6  1  0
 18 19  2  0
 18 17  1  0
 20 18  1  0
 21 22  1  0
 21 20  1  1
 22 13  1  0
 23 21  1  0
 24 23  2  0
 25 23  1  0
M  END
$$$$
