GYN.pdb
     RDKit          3D

 25 25  0  0  1  0  0  0  0  0999 V2000
   28.1413  -24.0357  -17.6838 N   0  0  0  0  0  0  0  0  0  0  0  0
   27.7291  -22.7079  -17.2674 C   0  0  0  0  0  0  0  0  0  0  0  0
   26.9315  -22.7566  -16.0097 C   0  0  0  0  0  0  0  0  0  0  0  0
   26.4580  -23.8281  -15.5821 O   0  0  0  0  0  0  0  0  0  0  0  0
   23.9292  -20.3447   -7.9981 O   0  0  0  0  0  0  0  0  0  0  0  0
   24.5533  -20.3983   -9.2371 C   0  0  0  0  0  0  0  0  0  0  0  0
   25.7744  -21.0125   -9.4208 C   0  0  0  0  0  0  0  0  0  0  0  0
   26.3764  -21.0546  -10.6584 C   0  0  0  0  0  0  0  0  0  0  0  0
   25.8018  -20.4915  -11.7771 C   0  0  0  0  0  0  0  0  0  0  0  0
   26.4640  -20.5471  -13.0889 C   0  0  0  0  0  0  0  0  0  0  0  0
   25.9446  -21.5808  -13.9857 C   0  0  2  0  0  0  0  0  0  0  0  0
   26.6849  -21.6044  -15.2641 N   0  0  0  0  0  0  0  0  0  0  0  0
   24.5512  -21.4533  -14.3601 C   0  0  0  0  0  0  0  0  0  0  0  0
   24.2642  -20.5871  -15.2712 O   0  0  0  0  0  0  0  0  0  0  0  0
   24.5750  -19.8755  -11.5881 C   0  0  0  0  0  0  0  0  0  0  0  0
   23.9895  -19.8392  -10.3644 C   0  0  0  0  0  0  0  0  0  0  0  0
   19.2580  -23.2361  -15.5199 N   0  0  0  0  0  0  0  0  0  0  0  0
   19.7109  -22.7046  -14.2896 C   0  0  0  0  0  0  0  0  0  0  0  0
   18.9191  -22.0499  -13.5844 O   0  0  0  0  0  0  0  0  0  0  0  0
   21.0906  -22.9282  -13.8644 C   0  0  0  0  0  0  0  0  0  0  0  0
   22.0646  -21.8564  -14.3222 C   0  0  2  0  0  0  0  0  0  0  0  0
   23.4124  -22.1545  -13.8832 N   0  0  0  0  0  0  0  0  0  0  0  0
   21.6246  -20.5445  -13.8824 C   0  0  0  0  0  0  0  0  0  0  0  0
   21.1017  -19.6904  -14.6801 O   0  0  0  0  0  0  0  0  0  0  0  0
   21.7397  -20.1325  -12.5808 O   0  0  0  0  0  0  0  0  0  0  0  0
  1  2  1  0
  3 12  1  0
  3  2  1  0
  4  3  2  0
  6  5  1  0
  7  6  2  0
  8  7  1  0
  9  8  2  0
  9 15  1  0
 10  9  1  0
 11 10  1  1
 11 12  1  0
 13 11  1  0
 13 14  2  0
 15 16  2  0
 16  6  1  0
 18 19  2  0
 18 17  1  0
 20 18  1  0
 21 22  1  0
 21 20  1  1
 22 13  1  0
 23 21  1  0
 24 23  2  0
 25 23  1  0
M  END
$$$$
