GYN.pdb
     RDKit          3D

 25 25  0  0  1  0  0  0  0  0999 V2000
   28.9533  -21.0412  -14.4629 N   0  0  0  0  0  0  0  0  0  0  0  0
   28.3150  -20.1058  -13.5552 C   0  0  0  0  0  0  0  0  0  0  0  0
   27.2265  -20.7614  -12.7770 C   0  0  0  0  0  0  0  0  0  0  0  0
   26.8551  -21.9241  -13.0327 O   0  0  0  0  0  0  0  0  0  0  0  0
   30.0594  -20.5013   -6.4198 O   0  0  0  0  0  0  0  0  0  0  0  0
   28.9202  -20.3908   -7.2057 C   0  0  0  0  0  0  0  0  0  0  0  0
   28.6955  -21.2052   -8.2958 C   0  0  0  0  0  0  0  0  0  0  0  0
   27.5588  -21.0791   -9.0623 C   0  0  0  0  0  0  0  0  0  0  0  0
   26.5865  -20.1414   -8.7901 C   0  0  0  0  0  0  0  0  0  0  0  0
   25.3809  -20.0235   -9.6239 C   0  0  0  0  0  0  0  0  0  0  0  0
   25.4833  -20.6738  -10.9313 C   0  0  2  0  0  0  0  0  0  0  0  0
   26.5827  -20.0981  -11.7330 N   0  0  0  0  0  0  0  0  0  0  0  0
   24.3119  -20.5821  -11.7782 C   0  0  0  0  0  0  0  0  0  0  0  0
   24.2827  -19.6227  -12.6393 O   0  0  0  0  0  0  0  0  0  0  0  0
   26.8162  -19.3252   -7.6941 C   0  0  0  0  0  0  0  0  0  0  0  0
   27.9397  -19.4571   -6.9445 C   0  0  0  0  0  0  0  0  0  0  0  0
   20.7733  -23.4942  -15.4590 N   0  0  0  0  0  0  0  0  0  0  0  0
   21.3918  -22.2962  -15.0308 C   0  0  0  0  0  0  0  0  0  0  0  0
   21.0798  -21.2229  -15.5818 O   0  0  0  0  0  0  0  0  0  0  0  0
   22.3808  -22.3318  -13.9562 C   0  0  0  0  0  0  0  0  0  0  0  0
   22.1557  -21.2962  -12.8683 C   0  0  2  0  0  0  0  0  0  0  0  0
   23.1571  -21.4068  -11.8275 N   0  0  0  0  0  0  0  0  0  0  0  0
   20.8066  -21.3942  -12.3406 C   0  0  0  0  0  0  0  0  0  0  0  0
   20.4989  -22.1815  -11.3789 O   0  0  0  0  0  0  0  0  0  0  0  0
   19.7705  -20.6483  -12.8379 O   0  0  0  0  0  0  0  0  0  0  0  0
  1  2  1  0
  3 12  1  0
  3  2  1  0
  4  3  2  0
  6  5  1  0
  7  6  2  0
  8  7  1  0
  9  8  2  0
  9 15  1  0
 10  9  1  0
 11 10  1  1
 11 12  1  0
 13 11  1  0
 13 14  2  0
 15 16  2  0
 16  6  1  0
 18 19  2  0
 18 17  1  0
 20 18  1  0
 21 22  1  0
 21 20  1  6
 22 13  1  0
 23 21  1  0
 24 23  2  0
 25 23  1  0
M  END
$$$$
