GYN.pdb
     RDKit          3D

 25 25  0  0  1  0  0  0  0  0999 V2000
   18.1136  -18.6567  -17.2123 N   0  0  0  0  0  0  0  0  0  0  0  0
   17.6085  -17.9154  -18.3533 C   0  0  0  0  0  0  0  0  0  0  0  0
   18.1434  -16.5249  -18.3771 C   0  0  0  0  0  0  0  0  0  0  0  0
   18.8321  -16.0778  -17.4385 O   0  0  0  0  0  0  0  0  0  0  0  0
   24.2233  -16.7397  -20.7902 O   0  0  0  0  0  0  0  0  0  0  0  0
   22.9901  -16.1019  -20.7890 C   0  0  0  0  0  0  0  0  0  0  0  0
   21.8241  -16.7524  -21.1344 C   0  0  0  0  0  0  0  0  0  0  0  0
   20.6110  -16.1012  -21.1267 C   0  0  0  0  0  0  0  0  0  0  0  0
   20.4891  -14.7740  -20.7772 C   0  0  0  0  0  0  0  0  0  0  0  0
   19.1830  -14.0984  -20.7777 C   0  0  0  0  0  0  0  0  0  0  0  0
   18.4027  -14.2886  -19.5539 C   0  0  2  0  0  0  0  0  0  0  0  0
   17.8931  -15.6716  -19.4512 N   0  0  0  0  0  0  0  0  0  0  0  0
   17.2339  -13.4452  -19.4100 C   0  0  0  0  0  0  0  0  0  0  0  0
   16.1618  -13.8168  -20.0226 O   0  0  0  0  0  0  0  0  0  0  0  0
   21.6630  -14.1242  -20.4308 C   0  0  0  0  0  0  0  0  0  0  0  0
   22.8540  -14.7745  -20.4414 C   0  0  0  0  0  0  0  0  0  0  0  0
   13.4029  -10.1722  -18.1534 N   0  0  0  0  0  0  0  0  0  0  0  0
   13.8659  -11.0178  -17.1182 C   0  0  0  0  0  0  0  0  0  0  0  0
   13.2351  -11.0619  -16.0443 O   0  0  0  0  0  0  0  0  0  0  0  0
   15.0683  -11.8228  -17.3193 C   0  0  0  0  0  0  0  0  0  0  0  0
   15.8048  -11.5289  -18.6147 C   0  0  2  0  0  0  0  0  0  0  0  0
   17.0634  -12.2436  -18.6730 N   0  0  0  0  0  0  0  0  0  0  0  0
   15.9807  -10.0982  -18.7892 C   0  0  0  0  0  0  0  0  0  0  0  0
   17.1269   -9.5318  -18.7193 O   0  0  0  0  0  0  0  0  0  0  0  0
   14.9290   -9.2571  -19.0414 O   0  0  0  0  0  0  0  0  0  0  0  0
  1  2  1  0
  3 12  1  0
  3  2  1  0
  4  3  2  0
  6  5  1  0
  7  6  2  0
  8  7  1  0
  9  8  2  0
  9 15  1  0
 10  9  1  0
 11 10  1  6
 11 12  1  0
 13 11  1  0
 13 14  2  0
 15 16  2  0
 16  6  1  0
 18 19  2  0
 18 17  1  0
 20 18  1  0
 21 22  1  0
 21 20  1  1
 22 13  1  0
 23 21  1  0
 24 23  2  0
 25 23  1  0
M  END
$$$$
