GYN.pdb
     RDKit          3D

 25 25  0  0  1  0  0  0  0  0999 V2000
   13.6648   -6.6258   -7.9871 N   0  0  0  0  0  0  0  0  0  0  0  0
   14.9445   -7.2937   -8.1366 C   0  0  0  0  0  0  0  0  0  0  0  0
   15.7576   -6.6729   -9.2199 C   0  0  0  0  0  0  0  0  0  0  0  0
   15.2912   -5.7746   -9.9484 O   0  0  0  0  0  0  0  0  0  0  0  0
   22.7834   -5.5752  -14.6457 O   0  0  0  0  0  0  0  0  0  0  0  0
   21.9410   -5.8622  -13.5800 C   0  0  0  0  0  0  0  0  0  0  0  0
   21.2629   -4.8784  -12.8914 C   0  0  0  0  0  0  0  0  0  0  0  0
   20.4320   -5.1845  -11.8371 C   0  0  0  0  0  0  0  0  0  0  0  0
   20.2294   -6.4788  -11.4100 C   0  0  0  0  0  0  0  0  0  0  0  0
   19.3384   -6.7821  -10.2802 C   0  0  0  0  0  0  0  0  0  0  0  0
   17.9187   -6.5484  -10.5493 C   0  0  2  0  0  0  0  0  0  0  0  0
   17.0715   -7.0740   -9.4590 N   0  0  0  0  0  0  0  0  0  0  0  0
   17.3949   -7.1521  -11.7573 C   0  0  0  0  0  0  0  0  0  0  0  0
   17.2027   -8.4271  -11.7416 O   0  0  0  0  0  0  0  0  0  0  0  0
   20.9126   -7.4642  -12.1046 C   0  0  0  0  0  0  0  0  0  0  0  0
   21.7294   -7.1526  -13.1426 C   0  0  0  0  0  0  0  0  0  0  0  0
   15.4018   -8.6762  -16.2730 N   0  0  0  0  0  0  0  0  0  0  0  0
   14.5513   -7.8421  -15.5100 C   0  0  0  0  0  0  0  0  0  0  0  0
   13.3520   -7.7420  -15.8331 O   0  0  0  0  0  0  0  0  0  0  0  0
   15.0856   -7.1142  -14.3615 C   0  0  0  0  0  0  0  0  0  0  0  0
   16.5734   -7.3168  -14.1333 C   0  0  2  0  0  0  0  0  0  0  0  0
   17.0351   -6.5522  -12.9929 N   0  0  0  0  0  0  0  0  0  0  0  0
   17.3222   -7.0067  -15.3380 C   0  0  0  0  0  0  0  0  0  0  0  0
   17.3231   -5.8408  -15.8671 O   0  0  0  0  0  0  0  0  0  0  0  0
   18.0798   -7.9436  -15.9901 O   0  0  0  0  0  0  0  0  0  0  0  0
  1  2  1  0
  3 12  1  0
  3  2  1  0
  4  3  2  0
  6  5  1  0
  7  6  2  0
  8  7  1  0
  9  8  2  0
  9 15  1  0
 10  9  1  0
 11 10  1  1
 11 12  1  0
 13 11  1  0
 13 14  2  0
 15 16  2  0
 16  6  1  0
 18 19  2  0
 18 17  1  0
 20 18  1  0
 21 22  1  0
 21 20  1  6
 22 13  1  0
 23 21  1  0
 24 23  2  0
 25 23  1  0
M  END
$$$$
