GYN.pdb
     RDKit          3D

 25 25  0  0  1  0  0  0  0  0999 V2000
   26.2282  -24.0785  -17.9251 N   0  0  0  0  0  0  0  0  0  0  0  0
   26.1867  -22.7441  -17.3558 C   0  0  0  0  0  0  0  0  0  0  0  0
   25.7618  -22.7760  -15.9280 C   0  0  0  0  0  0  0  0  0  0  0  0
   25.2743  -23.8044  -15.4183 O   0  0  0  0  0  0  0  0  0  0  0  0
   24.6681  -20.3171   -7.4526 O   0  0  0  0  0  0  0  0  0  0  0  0
   25.0435  -20.4010   -8.7866 C   0  0  0  0  0  0  0  0  0  0  0  0
   24.2502  -19.9195   -9.8067 C   0  0  0  0  0  0  0  0  0  0  0  0
   24.6412  -20.0125  -11.1236 C   0  0  0  0  0  0  0  0  0  0  0  0
   25.8364  -20.5865  -11.4987 C   0  0  0  0  0  0  0  0  0  0  0  0
   26.2329  -20.6766  -12.9119 C   0  0  0  0  0  0  0  0  0  0  0  0
   25.4067  -21.5788  -13.7158 C   0  0  2  0  0  0  0  0  0  0  0  0
   25.8939  -21.6555  -15.1085 N   0  0  0  0  0  0  0  0  0  0  0  0
   24.0061  -21.2265  -13.8259 C   0  0  0  0  0  0  0  0  0  0  0  0
   23.6815  -20.3897  -14.7517 O   0  0  0  0  0  0  0  0  0  0  0  0
   26.6305  -21.0689  -10.4707 C   0  0  0  0  0  0  0  0  0  0  0  0
   26.2365  -20.9726   -9.1757 C   0  0  0  0  0  0  0  0  0  0  0  0
   19.0090  -21.4671  -15.4620 N   0  0  0  0  0  0  0  0  0  0  0  0
   19.3728  -22.1823  -14.2970 C   0  0  0  0  0  0  0  0  0  0  0  0
   18.4790  -22.5680  -13.5191 O   0  0  0  0  0  0  0  0  0  0  0  0
   20.7810  -22.4579  -14.0226 C   0  0  0  0  0  0  0  0  0  0  0  0
   21.5277  -21.3020  -13.3797 C   0  0  2  0  0  0  0  0  0  0  0  0
   22.8926  -21.6726  -13.0663 N   0  0  0  0  0  0  0  0  0  0  0  0
   20.8121  -20.8170  -12.2132 C   0  0  0  0  0  0  0  0  0  0  0  0
   21.1130  -21.1768  -11.0218 O   0  0  0  0  0  0  0  0  0  0  0  0
   19.7645  -19.9393  -12.3102 O   0  0  0  0  0  0  0  0  0  0  0  0
  1  2  1  0
  3 12  1  0
  3  2  1  0
  4  3  2  0
  6  5  1  0
  7  6  2  0
  8  7  1  0
  9  8  2  0
  9 15  1  0
 10  9  1  0
 11 10  1  1
 11 12  1  0
 13 11  1  0
 13 14  2  0
 15 16  2  0
 16  6  1  0
 18 19  2  0
 18 17  1  0
 20 18  1  0
 21 22  1  0
 21 20  1  1
 22 13  1  0
 23 21  1  0
 24 23  2  0
 25 23  1  0
M  END
$$$$
