GYN.pdb
     RDKit          3D

 25 25  0  0  1  0  0  0  0  0999 V2000
   20.7968  -19.0629  -13.2463 N   0  0  0  0  0  0  0  0  0  0  0  0
   21.4658  -20.3004  -13.6031 C   0  0  0  0  0  0  0  0  0  0  0  0
   22.9436  -20.1202  -13.6652 C   0  0  0  0  0  0  0  0  0  0  0  0
   23.4527  -19.0063  -13.9003 O   0  0  0  0  0  0  0  0  0  0  0  0
   25.4869  -19.5187   -7.4280 O   0  0  0  0  0  0  0  0  0  0  0  0
   25.6161  -20.0847   -8.6891 C   0  0  0  0  0  0  0  0  0  0  0  0
   26.8057  -20.0663   -9.3864 C   0  0  0  0  0  0  0  0  0  0  0  0
   26.9125  -20.6336  -10.6364 C   0  0  0  0  0  0  0  0  0  0  0  0
   25.8486  -21.2479  -11.2604 C   0  0  0  0  0  0  0  0  0  0  0  0
   25.9854  -21.8457  -12.5969 C   0  0  0  0  0  0  0  0  0  0  0  0
   25.2756  -21.1275  -13.6567 C   0  0  2  0  0  0  0  0  0  0  0  0
   23.8124  -21.1918  -13.4624 N   0  0  0  0  0  0  0  0  0  0  0  0
   25.4975  -21.6068  -15.0055 C   0  0  0  0  0  0  0  0  0  0  0  0
   24.4643  -22.0090  -15.6639 O   0  0  0  0  0  0  0  0  0  0  0  0
   24.6552  -21.2641  -10.5564 C   0  0  0  0  0  0  0  0  0  0  0  0
   24.5597  -20.7023   -9.3248 C   0  0  0  0  0  0  0  0  0  0  0  0
   26.9268  -20.2703  -19.7322 N   0  0  0  0  0  0  0  0  0  0  0  0
   26.4632  -19.3972  -18.7202 C   0  0  0  0  0  0  0  0  0  0  0  0
   26.1443  -18.2318  -19.0251 O   0  0  0  0  0  0  0  0  0  0  0  0
   26.3649  -19.8691  -17.3411 C   0  0  0  0  0  0  0  0  0  0  0  0
   26.7952  -21.3124  -17.1448 C   0  0  2  0  0  0  0  0  0  0  0  0
   26.7017  -21.6997  -15.7521 N   0  0  0  0  0  0  0  0  0  0  0  0
   28.1267  -21.5264  -17.6828 C   0  0  0  0  0  0  0  0  0  0  0  0
   29.1885  -21.2867  -17.0086 O   0  0  0  0  0  0  0  0  0  0  0  0
   28.3358  -22.0008  -18.9510 O   0  0  0  0  0  0  0  0  0  0  0  0
  1  2  1  0
  3 12  1  0
  3  2  1  0
  4  3  2  0
  6  5  1  0
  7  6  2  0
  8  7  1  0
  9  8  2  0
  9 15  1  0
 10  9  1  0
 11 10  1  1
 11 12  1  0
 13 11  1  0
 13 14  2  0
 15 16  2  0
 16  6  1  0
 18 19  2  0
 18 17  1  0
 20 18  1  0
 21 22  1  0
 21 20  1  1
 22 13  1  0
 23 21  1  0
 24 23  2  0
 25 23  1  0
M  END
$$$$
