GYN.pdb
     RDKit          3D

 25 25  0  0  1  0  0  0  0  0999 V2000
   16.2274  -19.5452    1.8135 N   0  0  0  0  0  0  0  0  0  0  0  0
   15.7611  -18.2946    2.3834 C   0  0  0  0  0  0  0  0  0  0  0  0
   16.8574  -17.5808    3.0967 C   0  0  0  0  0  0  0  0  0  0  0  0
   18.0471  -17.9362    2.9804 O   0  0  0  0  0  0  0  0  0  0  0  0
   20.9571  -10.7497    7.0801 O   0  0  0  0  0  0  0  0  0  0  0  0
   20.0582  -11.5979    6.4475 C   0  0  0  0  0  0  0  0  0  0  0  0
   20.1645  -11.9191    5.1106 C   0  0  0  0  0  0  0  0  0  0  0  0
   19.2621  -12.7626    4.5023 C   0  0  0  0  0  0  0  0  0  0  0  0
   18.2088  -13.3312    5.1849 C   0  0  0  0  0  0  0  0  0  0  0  0
   17.2560  -14.2281    4.5140 C   0  0  0  0  0  0  0  0  0  0  0  0
   17.6319  -15.6425    4.5444 C   0  0  2  0  0  0  0  0  0  0  0  0
   16.5928  -16.4881    3.9215 N   0  0  0  0  0  0  0  0  0  0  0  0
   17.8442  -16.2137    5.8585 C   0  0  0  0  0  0  0  0  0  0  0  0
   16.8030  -16.6371    6.4905 O   0  0  0  0  0  0  0  0  0  0  0  0
   18.1057  -13.0058    6.5279 C   0  0  0  0  0  0  0  0  0  0  0  0
   19.0001  -12.1735    7.1186 C   0  0  0  0  0  0  0  0  0  0  0  0
   19.2736  -19.0660    9.9473 N   0  0  0  0  0  0  0  0  0  0  0  0
   20.4442  -18.6016    9.3029 C   0  0  0  0  0  0  0  0  0  0  0  0
   21.5509  -18.8006    9.8401 O   0  0  0  0  0  0  0  0  0  0  0  0
   20.3420  -17.9002    8.0255 C   0  0  0  0  0  0  0  0  0  0  0  0
   19.0927  -17.0485    7.8812 C   0  0  2  0  0  0  0  0  0  0  0  0
   19.0490  -16.4018    6.5858 N   0  0  0  0  0  0  0  0  0  0  0  0
   18.9959  -16.0944    8.9714 C   0  0  0  0  0  0  0  0  0  0  0  0
   19.5061  -14.9218    8.9074 O   0  0  0  0  0  0  0  0  0  0  0  0
   18.3501  -16.3862   10.1439 O   0  0  0  0  0  0  0  0  0  0  0  0
  1  2  1  0
  3 12  1  0
  3  2  1  0
  4  3  2  0
  6  5  1  0
  7  6  2  0
  8  7  1  0
  9  8  2  0
  9 15  1  0
 10  9  1  0
 11 10  1  1
 11 12  1  0
 13 11  1  0
 13 14  2  0
 15 16  2  0
 16  6  1  0
 18 19  2  0
 18 17  1  0
 20 18  1  0
 21 22  1  0
 21 20  1  1
 22 13  1  0
 23 21  1  0
 24 23  2  0
 25 23  1  0
M  END
$$$$
