GYN.pdb
     RDKit          3D

 25 25  0  0  1  0  0  0  0  0999 V2000
   28.6423  -19.7611  -15.0733 N   0  0  0  0  0  0  0  0  0  0  0  0
   27.9192  -19.1707  -13.9621 C   0  0  0  0  0  0  0  0  0  0  0  0
   27.0645  -20.1785  -13.2737 C   0  0  0  0  0  0  0  0  0  0  0  0
   27.0367  -21.3687  -13.6451 O   0  0  0  0  0  0  0  0  0  0  0  0
   29.8108  -21.2208   -6.8754 O   0  0  0  0  0  0  0  0  0  0  0  0
   28.6849  -21.0208   -7.6627 C   0  0  0  0  0  0  0  0  0  0  0  0
   28.4884  -21.6922   -8.8512 C   0  0  0  0  0  0  0  0  0  0  0  0
   27.3643  -21.4793   -9.6172 C   0  0  0  0  0  0  0  0  0  0  0  0
   26.3775  -20.5916   -9.2472 C   0  0  0  0  0  0  0  0  0  0  0  0
   25.1859  -20.3789  -10.0822 C   0  0  0  0  0  0  0  0  0  0  0  0
   25.3552  -20.7577  -11.4860 C   0  0  2  0  0  0  0  0  0  0  0  0
   26.2634  -19.8273  -12.1877 N   0  0  0  0  0  0  0  0  0  0  0  0
   24.1481  -20.7805  -12.2863 C   0  0  0  0  0  0  0  0  0  0  0  0
   23.8001  -19.6777  -12.8568 O   0  0  0  0  0  0  0  0  0  0  0  0
   26.5788  -19.9192   -8.0524 C   0  0  0  0  0  0  0  0  0  0  0  0
   27.6901  -20.1358   -7.3042 C   0  0  0  0  0  0  0  0  0  0  0  0
   20.6842  -23.2037  -16.3097 N   0  0  0  0  0  0  0  0  0  0  0  0
   20.5687  -23.0438  -14.9089 C   0  0  0  0  0  0  0  0  0  0  0  0
   19.4390  -22.8805  -14.4089 O   0  0  0  0  0  0  0  0  0  0  0  0
   21.7660  -23.0718  -14.0723 C   0  0  0  0  0  0  0  0  0  0  0  0
   22.1351  -21.7280  -13.4683 C   0  0  2  0  0  0  0  0  0  0  0  0
   23.2610  -21.8534  -12.5656 N   0  0  0  0  0  0  0  0  0  0  0  0
   20.9829  -21.1238  -12.8235 C   0  0  0  0  0  0  0  0  0  0  0  0
   20.0953  -20.4685  -13.4731 O   0  0  0  0  0  0  0  0  0  0  0  0
   20.7683  -21.2156  -11.4735 O   0  0  0  0  0  0  0  0  0  0  0  0
  1  2  1  0
  3 12  1  0
  3  2  1  0
  4  3  2  0
  6  5  1  0
  7  6  2  0
  8  7  1  0
  9  8  2  0
  9 15  1  0
 10  9  1  0
 11 10  1  1
 11 12  1  0
 13 11  1  0
 13 14  2  0
 15 16  2  0
 16  6  1  0
 18 19  2  0
 18 17  1  0
 20 18  1  0
 21 22  1  0
 21 20  1  1
 22 13  1  0
 23 21  1  0
 24 23  2  0
 25 23  1  0
M  END
$$$$
