GYN.pdb
     RDKit          3D

 25 25  0  0  1  0  0  0  0  0999 V2000
   29.3223  -22.5590  -17.7484 N   0  0  0  0  0  0  0  0  0  0  0  0
   28.5873  -21.4324  -17.2037 C   0  0  0  0  0  0  0  0  0  0  0  0
   27.8744  -21.8046  -15.9493 C   0  0  0  0  0  0  0  0  0  0  0  0
   27.8209  -22.9879  -15.5595 O   0  0  0  0  0  0  0  0  0  0  0  0
   23.5511  -20.7348   -8.2175 O   0  0  0  0  0  0  0  0  0  0  0  0
   24.3031  -20.5687   -9.3726 C   0  0  0  0  0  0  0  0  0  0  0  0
   23.7615  -20.0702  -10.5389 C   0  0  0  0  0  0  0  0  0  0  0  0
   24.5250  -19.9133  -11.6738 C   0  0  0  0  0  0  0  0  0  0  0  0
   25.8627  -20.2413  -11.7134 C   0  0  0  0  0  0  0  0  0  0  0  0
   26.6584  -20.0668  -12.9377 C   0  0  0  0  0  0  0  0  0  0  0  0
   26.4954  -21.1370  -13.9231 C   0  0  2  0  0  0  0  0  0  0  0  0
   27.2402  -20.8422  -15.1645 N   0  0  0  0  0  0  0  0  0  0  0  0
   25.1376  -21.4016  -14.3526 C   0  0  0  0  0  0  0  0  0  0  0  0
   24.6380  -20.6124  -15.2416 O   0  0  0  0  0  0  0  0  0  0  0  0
   26.4029  -20.7417  -10.5396 C   0  0  0  0  0  0  0  0  0  0  0  0
   25.6423  -20.8928   -9.4259 C   0  0  0  0  0  0  0  0  0  0  0  0
   24.2291  -25.9809  -15.0466 N   0  0  0  0  0  0  0  0  0  0  0  0
   23.5805  -24.8328  -15.5587 C   0  0  0  0  0  0  0  0  0  0  0  0
   23.8326  -24.4626  -16.7217 O   0  0  0  0  0  0  0  0  0  0  0  0
   22.6305  -24.1010  -14.7243 C   0  0  0  0  0  0  0  0  0  0  0  0
   22.9451  -22.6229  -14.5725 C   0  0  2  0  0  0  0  0  0  0  0  0
   24.2395  -22.4260  -13.9528 N   0  0  0  0  0  0  0  0  0  0  0  0
   21.8842  -21.9464  -13.8479 C   0  0  0  0  0  0  0  0  0  0  0  0
   20.7381  -21.7095  -14.3673 O   0  0  0  0  0  0  0  0  0  0  0  0
   22.0394  -21.5158  -12.5565 O   0  0  0  0  0  0  0  0  0  0  0  0
  1  2  1  0
  3 12  1  0
  3  2  1  0
  4  3  2  0
  6  5  1  0
  7  6  2  0
  8  7  1  0
  9  8  2  0
  9 15  1  0
 10  9  1  0
 11 10  1  1
 11 12  1  0
 13 11  1  0
 13 14  2  0
 15 16  2  0
 16  6  1  0
 18 19  2  0
 18 17  1  0
 20 18  1  0
 21 22  1  0
 21 20  1  1
 22 13  1  0
 23 21  1  0
 24 23  2  0
 25 23  1  0
M  END
$$$$
