GYN.pdb
     RDKit          3D

 25 25  0  0  1  0  0  0  0  0999 V2000
   12.5072   -8.0293  -12.6421 N   0  0  0  0  0  0  0  0  0  0  0  0
   12.9153   -6.7087  -13.0845 C   0  0  0  0  0  0  0  0  0  0  0  0
   14.1126   -6.2315  -12.3368 C   0  0  0  0  0  0  0  0  0  0  0  0
   14.1987   -5.0555  -11.9309 O   0  0  0  0  0  0  0  0  0  0  0  0
   12.2291   -6.5393   -6.3031 O   0  0  0  0  0  0  0  0  0  0  0  0
   13.2484   -6.7844   -7.2132 C   0  0  0  0  0  0  0  0  0  0  0  0
   13.2233   -7.8607   -8.0750 C   0  0  0  0  0  0  0  0  0  0  0  0
   14.2449   -8.0859   -8.9703 C   0  0  0  0  0  0  0  0  0  0  0  0
   15.3431   -7.2584   -9.0589 C   0  0  0  0  0  0  0  0  0  0  0  0
   16.4234   -7.5194  -10.0218 C   0  0  0  0  0  0  0  0  0  0  0  0
   16.3536   -6.7145  -11.2425 C   0  0  2  0  0  0  0  0  0  0  0  0
   15.1818   -7.0837  -12.0632 N   0  0  0  0  0  0  0  0  0  0  0  0
   17.4880   -6.8201  -12.1370 C   0  0  0  0  0  0  0  0  0  0  0  0
   17.5098   -7.8271  -12.9421 O   0  0  0  0  0  0  0  0  0  0  0  0
   15.3643   -6.1782   -8.1912 C   0  0  0  0  0  0  0  0  0  0  0  0
   14.3527   -5.9645   -7.3122 C   0  0  0  0  0  0  0  0  0  0  0  0
   22.7553   -4.6760  -14.2803 N   0  0  0  0  0  0  0  0  0  0  0  0
   21.4353   -5.0649  -14.6082 C   0  0  0  0  0  0  0  0  0  0  0  0
   21.2066   -5.5402  -15.7373 O   0  0  0  0  0  0  0  0  0  0  0  0
   20.3649   -4.9059  -13.6267 C   0  0  0  0  0  0  0  0  0  0  0  0
   19.6505   -6.1977  -13.2697 C   0  0  2  0  0  0  0  0  0  0  0  0
   18.6114   -5.9650  -12.2878 N   0  0  0  0  0  0  0  0  0  0  0  0
   20.6015   -7.2031  -12.8306 C   0  0  0  0  0  0  0  0  0  0  0  0
   21.1342   -8.0450  -13.6349 O   0  0  0  0  0  0  0  0  0  0  0  0
   20.9935   -7.3177  -11.5228 O   0  0  0  0  0  0  0  0  0  0  0  0
  1  2  1  0
  3 12  1  0
  3  2  1  0
  4  3  2  0
  6  5  1  0
  7  6  2  0
  8  7  1  0
  9  8  2  0
  9 15  1  0
 10  9  1  0
 11 10  1  1
 11 12  1  0
 13 11  1  0
 13 14  2  0
 15 16  2  0
 16  6  1  0
 18 19  2  0
 18 17  1  0
 20 18  1  0
 21 22  1  0
 21 20  1  1
 22 13  1  0
 23 21  1  0
 24 23  2  0
 25 23  1  0
M  END
$$$$
