NFC.pdb
     RDKit          3D

 26 26  0  0  1  0  0  0  0  0999 V2000
    8.2587  -19.7757   18.6069 N   0  0  0  0  0  0  0  0  0  0  0  0
    9.4637  -19.5692   19.3202 C   0  0  0  0  0  0  0  0  0  0  0  0
   10.5016  -20.1691   18.9412 O   0  0  0  0  0  0  0  0  0  0  0  0
    9.5600  -18.6750   20.4980 C   0  0  0  0  0  0  0  0  0  0  0  0
    9.2484  -17.2429   20.1198 C   0  0  2  0  0  0  0  0  0  0  0  0
   10.1477  -16.7825   19.1002 N   0  0  0  0  0  0  0  0  0  0  0  0
    9.3267  -16.4401   21.3690 C   0  0  0  0  0  0  0  0  0  0  0  0
   10.4564  -16.1994   21.8355 O   0  0  0  0  0  0  0  0  0  0  0  0
    8.2027  -15.9364   22.0555 N   0  0  0  0  0  0  0  0  0  0  0  0
    8.2464  -15.1809   23.2729 C   0  0  1  0  0  0  0  0  0  0  0  0
    7.1191  -14.2524   23.4892 C   0  0  0  0  0  0  0  0  0  0  0  0
    7.0784  -13.5522   24.7640 C   0  0  0  0  0  0  0  0  0  0  0  0
    7.8554  -12.4254   24.9230 C   0  0  0  0  0  0  0  0  0  0  0  0
    7.8802  -11.6892   26.1120 C   0  0  0  0  0  0  0  0  0  0  0  0
    7.1163  -12.0796   27.1686 C   0  0  0  0  0  0  0  0  0  0  0  0
    6.3350  -13.2044   27.0228 C   0  0  0  0  0  0  0  0  0  0  0  0
    6.3163  -13.9231   25.8497 C   0  0  0  0  0  0  0  0  0  0  0  0
    8.5196  -16.0562   24.4249 C   0  0  0  0  0  0  0  0  0  0  0  0
    7.7528  -17.0450   24.6791 O   0  0  0  0  0  0  0  0  0  0  0  0
    9.6275  -15.8612   25.2996 N   0  0  0  0  0  0  0  0  0  0  0  0
    9.9663  -16.8083   26.3430 C   0  0  1  0  0  0  0  0  0  0  0  0
   11.3949  -17.3181   26.1654 C   0  0  0  0  0  0  0  0  0  0  0  0
   11.6167  -17.8431   24.4408 S   0  0  0  0  0  0  0  0  0  0  0  0
    9.9008  -16.1421   27.6541 C   0  0  0  0  0  0  0  0  0  0  0  0
   10.1062  -16.7694   28.8691 O   0  0  0  0  0  0  0  0  0  0  0  0
    9.6370  -14.8934   27.7274 O   0  0  0  0  0  0  0  0  0  0  0  0
  2  1  1  0
  3  2  2  0
  4  2  1  0
  5  4  1  0
  5  6  1  6
  7  9  1  0
  7  5  1  0
  8  7  2  0
 10  9  1  0
 10 11  1  1
 11 12  1  0
 12 17  2  0
 12 13  1  0
 13 14  2  0
 14 15  1  0
 16 15  2  0
 17 16  1  0
 18 20  1  0
 18 10  1  0
 19 18  2  0
 21 20  1  0
 21 24  1  0
 21 22  1  6
 22 23  1  0
 24 25  1  0
 26 24  2  0
M  END
$$$$
