NFC.pdb
     RDKit          3D

 26 26  0  0  1  0  0  0  0  0999 V2000
   12.8656  -18.1111   19.2721 N   0  0  0  0  0  0  0  0  0  0  0  0
   11.6740  -18.5823   19.8734 C   0  0  0  0  0  0  0  0  0  0  0  0
   10.9351  -19.3632   19.2216 O   0  0  0  0  0  0  0  0  0  0  0  0
   11.2546  -18.1966   21.2415 C   0  0  0  0  0  0  0  0  0  0  0  0
    9.8340  -17.6742   21.2472 C   0  0  2  0  0  0  0  0  0  0  0  0
    9.5439  -16.9859   20.0216 N   0  0  0  0  0  0  0  0  0  0  0  0
    9.6985  -16.8062   22.4470 C   0  0  0  0  0  0  0  0  0  0  0  0
   10.6772  -16.7156   23.2124 O   0  0  0  0  0  0  0  0  0  0  0  0
    8.5327  -16.0817   22.7696 N   0  0  0  0  0  0  0  0  0  0  0  0
    8.3431  -15.3061   23.9601 C   0  0  1  0  0  0  0  0  0  0  0  0
    7.3902  -14.1841   23.8465 C   0  0  0  0  0  0  0  0  0  0  0  0
    7.1696  -13.3842   25.0417 C   0  0  0  0  0  0  0  0  0  0  0  0
    8.0485  -12.3608   25.3221 C   0  0  0  0  0  0  0  0  0  0  0  0
    7.9154  -11.5409   26.4475 C   0  0  0  0  0  0  0  0  0  0  0  0
    6.8864  -11.7406   27.3154 C   0  0  0  0  0  0  0  0  0  0  0  0
    6.0006  -12.7604   27.0467 C   0  0  0  0  0  0  0  0  0  0  0  0
    6.1385  -13.5626   25.9374 C   0  0  0  0  0  0  0  0  0  0  0  0
    8.0937  -16.1772   25.1207 C   0  0  0  0  0  0  0  0  0  0  0  0
    6.9414  -16.6971   25.3003 O   0  0  0  0  0  0  0  0  0  0  0  0
    9.0958  -16.4876   26.0851 N   0  0  0  0  0  0  0  0  0  0  0  0
    8.8458  -17.3750   27.2033 C   0  0  1  0  0  0  0  0  0  0  0  0
    8.5282  -18.7856   26.7116 C   0  0  0  0  0  0  0  0  0  0  0  0
    6.7245  -18.9920   26.6570 S   0  0  0  0  0  0  0  0  0  0  0  0
   10.0534  -17.4664   28.0401 C   0  0  0  0  0  0  0  0  0  0  0  0
   11.2158  -16.7480   27.8291 O   0  0  0  0  0  0  0  0  0  0  0  0
   10.0791  -18.2541   29.0466 O   0  0  0  0  0  0  0  0  0  0  0  0
  2  1  1  0
  3  2  2  0
  4  2  1  0
  5  4  1  0
  5  6  1  6
  7  9  1  0
  7  5  1  0
  8  7  2  0
 10  9  1  0
 10 11  1  6
 11 12  1  0
 12 17  2  0
 12 13  1  0
 13 14  2  0
 14 15  1  0
 16 15  2  0
 17 16  1  0
 18 20  1  0
 18 10  1  0
 19 18  2  0
 21 20  1  0
 21 24  1  0
 21 22  1  6
 22 23  1  0
 24 25  1  0
 26 24  2  0
M  END
$$$$
