NFC.pdb
     RDKit          3D

 26 26  0  0  1  0  0  0  0  0999 V2000
    9.2917  -17.9147   17.8149 N   0  0  0  0  0  0  0  0  0  0  0  0
    8.4418  -18.3066   18.8768 C   0  0  0  0  0  0  0  0  0  0  0  0
    7.6666  -19.2811   18.7033 O   0  0  0  0  0  0  0  0  0  0  0  0
    8.4227  -17.6190   20.1895 C   0  0  0  0  0  0  0  0  0  0  0  0
    9.3322  -16.4092   20.1823 C   0  0  2  0  0  0  0  0  0  0  0  0
   10.6433  -16.7654   19.7191 N   0  0  0  0  0  0  0  0  0  0  0  0
    9.3335  -15.8624   21.5651 C   0  0  0  0  0  0  0  0  0  0  0  0
   10.3380  -16.0707   22.2717 O   0  0  0  0  0  0  0  0  0  0  0  0
    8.2694  -15.1244   22.1232 N   0  0  0  0  0  0  0  0  0  0  0  0
    8.2481  -14.5746   23.4468 C   0  0  1  0  0  0  0  0  0  0  0  0
    7.2656  -13.4965   23.6749 C   0  0  0  0  0  0  0  0  0  0  0  0
    7.1552  -12.9826   25.0317 C   0  0  0  0  0  0  0  0  0  0  0  0
    6.0066  -13.2461   25.7457 C   0  0  0  0  0  0  0  0  0  0  0  0
    5.8128  -12.7929   27.0547 C   0  0  0  0  0  0  0  0  0  0  0  0
    6.7810  -12.0610   27.6703 C   0  0  0  0  0  0  0  0  0  0  0  0
    7.9343  -11.7905   26.9677 C   0  0  0  0  0  0  0  0  0  0  0  0
    8.1171  -12.2401   25.6802 C   0  0  0  0  0  0  0  0  0  0  0  0
    8.1978  -15.6429   24.4588 C   0  0  0  0  0  0  0  0  0  0  0  0
    7.1775  -16.4063   24.5398 O   0  0  0  0  0  0  0  0  0  0  0  0
    9.2565  -15.8858   25.3812 N   0  0  0  0  0  0  0  0  0  0  0  0
    9.2421  -17.0079   26.2984 C   0  0  1  0  0  0  0  0  0  0  0  0
   10.0175  -18.1887   25.7180 C   0  0  0  0  0  0  0  0  0  0  0  0
   11.6698  -17.6166   25.2265 S   0  0  0  0  0  0  0  0  0  0  0  0
    9.9058  -16.6258   27.5556 C   0  0  0  0  0  0  0  0  0  0  0  0
   10.4659  -15.3870   27.8074 O   0  0  0  0  0  0  0  0  0  0  0  0
    9.9973  -17.4662   28.5146 O   0  0  0  0  0  0  0  0  0  0  0  0
  2  1  1  0
  3  2  2  0
  4  2  1  0
  5  4  1  0
  5  6  1  1
  7  9  1  0
  7  5  1  0
  8  7  2  0
 10  9  1  0
 10 11  1  6
 11 12  1  0
 12 17  2  0
 12 13  1  0
 13 14  2  0
 14 15  1  0
 16 15  2  0
 17 16  1  0
 18 20  1  0
 18 10  1  0
 19 18  2  0
 21 20  1  0
 21 24  1  0
 21 22  1  6
 22 23  1  0
 24 25  1  0
 26 24  2  0
M  END
$$$$
