NFC.pdb
     RDKit          3D

 26 26  0  0  1  0  0  0  0  0999 V2000
   12.1939  -18.2930   18.4136 N   0  0  0  0  0  0  0  0  0  0  0  0
   10.9717  -17.6283   18.6743 C   0  0  0  0  0  0  0  0  0  0  0  0
    9.9724  -17.8973   17.9603 O   0  0  0  0  0  0  0  0  0  0  0  0
   10.8140  -16.6258   19.7542 C   0  0  0  0  0  0  0  0  0  0  0  0
   10.2570  -17.2624   21.0094 C   0  0  2  0  0  0  0  0  0  0  0  0
    8.9734  -17.8504   20.7509 N   0  0  0  0  0  0  0  0  0  0  0  0
   10.2103  -16.1992   22.0480 C   0  0  0  0  0  0  0  0  0  0  0  0
   11.2375  -15.5181   22.2292 O   0  0  0  0  0  0  0  0  0  0  0  0
    9.0770  -15.9162   22.8377 N   0  0  0  0  0  0  0  0  0  0  0  0
    9.0839  -15.1569   24.0535 C   0  0  1  0  0  0  0  0  0  0  0  0
    7.7991  -15.1004   24.7786 C   0  0  0  0  0  0  0  0  0  0  0  0
    7.5157  -13.8820   25.5217 C   0  0  0  0  0  0  0  0  0  0  0  0
    6.2384  -13.3670   25.4821 C   0  0  0  0  0  0  0  0  0  0  0  0
    5.8746  -12.2015   26.1645 C   0  0  0  0  0  0  0  0  0  0  0  0
    6.7996  -11.5306   26.9037 C   0  0  0  0  0  0  0  0  0  0  0  0
    8.0804  -12.0348   26.9518 C   0  0  0  0  0  0  0  0  0  0  0  0
    8.4301  -13.1821   26.2775 C   0  0  0  0  0  0  0  0  0  0  0  0
   10.2252  -15.5358   24.9031 C   0  0  0  0  0  0  0  0  0  0  0  0
   11.3880  -15.0636   24.6683 O   0  0  0  0  0  0  0  0  0  0  0  0
   10.1043  -16.4245   26.0105 N   0  0  0  0  0  0  0  0  0  0  0  0
   10.7815  -16.1887   27.2700 C   0  0  1  0  0  0  0  0  0  0  0  0
   10.2232  -14.9446   27.9576 C   0  0  0  0  0  0  0  0  0  0  0  0
   11.0569  -14.7390   29.5581 S   0  0  0  0  0  0  0  0  0  0  0  0
   10.5516  -17.3272   28.1743 C   0  0  0  0  0  0  0  0  0  0  0  0
    9.3153  -17.8864   28.4405 O   0  0  0  0  0  0  0  0  0  0  0  0
   11.5347  -17.8730   28.7824 O   0  0  0  0  0  0  0  0  0  0  0  0
  2  1  1  0
  3  2  2  0
  4  2  1  0
  5  4  1  0
  5  6  1  6
  7  9  1  0
  7  5  1  0
  8  7  2  0
 10  9  1  0
 10 11  1  1
 11 12  1  0
 12 17  2  0
 12 13  1  0
 13 14  2  0
 14 15  1  0
 16 15  2  0
 17 16  1  0
 18 20  1  0
 18 10  1  0
 19 18  2  0
 21 20  1  0
 21 24  1  0
 21 22  1  1
 22 23  1  0
 24 25  1  0
 26 24  2  0
M  END
$$$$
