NFC.pdb
     RDKit          3D

 26 26  0  0  1  0  0  0  0  0999 V2000
    7.5757  -12.3869   18.2248 N   0  0  0  0  0  0  0  0  0  0  0  0
    8.1013  -13.6091   18.7081 C   0  0  0  0  0  0  0  0  0  0  0  0
    8.0808  -14.6162   17.9557 O   0  0  0  0  0  0  0  0  0  0  0  0
    8.6772  -13.7581   20.0654 C   0  0  0  0  0  0  0  0  0  0  0  0
    8.0499  -14.9255   20.7965 C   0  0  2  0  0  0  0  0  0  0  0  0
    6.6184  -14.8222   20.7794 N   0  0  0  0  0  0  0  0  0  0  0  0
    8.6157  -14.9275   22.1717 C   0  0  0  0  0  0  0  0  0  0  0  0
    9.6280  -14.2334   22.3847 O   0  0  0  0  0  0  0  0  0  0  0  0
    8.0772  -15.6652   23.2459 N   0  0  0  0  0  0  0  0  0  0  0  0
    8.6302  -15.7275   24.5669 C   0  0  1  0  0  0  0  0  0  0  0  0
    7.6766  -15.4970   25.6702 C   0  0  0  0  0  0  0  0  0  0  0  0
    7.3034  -14.1169   25.9401 C   0  0  0  0  0  0  0  0  0  0  0  0
    8.2494  -13.2702   26.4755 C   0  0  0  0  0  0  0  0  0  0  0  0
    7.9808  -11.9289   26.7677 C   0  0  0  0  0  0  0  0  0  0  0  0
    6.7445  -11.4151   26.5231 C   0  0  0  0  0  0  0  0  0  0  0  0
    5.7895  -12.2509   25.9879 C   0  0  0  0  0  0  0  0  0  0  0  0
    6.0619  -13.5692   25.7034 C   0  0  0  0  0  0  0  0  0  0  0  0
    9.4485  -16.9397   24.7374 C   0  0  0  0  0  0  0  0  0  0  0  0
    8.9637  -18.0883   24.4617 O   0  0  0  0  0  0  0  0  0  0  0  0
   10.7946  -16.9057   25.2036 N   0  0  0  0  0  0  0  0  0  0  0  0
   11.5940  -18.1058   25.3494 C   0  0  1  0  0  0  0  0  0  0  0  0
   12.9775  -17.9103   24.7329 C   0  0  0  0  0  0  0  0  0  0  0  0
   13.1358  -16.1842   24.1904 S   0  0  0  0  0  0  0  0  0  0  0  0
   11.7906  -18.3968   26.7790 C   0  0  0  0  0  0  0  0  0  0  0  0
   12.4626  -19.4987   27.2748 O   0  0  0  0  0  0  0  0  0  0  0  0
   11.3238  -17.6033   27.6659 O   0  0  0  0  0  0  0  0  0  0  0  0
  2  1  1  0
  3  2  2  0
  4  2  1  0
  5  4  1  0
  5  6  1  1
  7  9  1  0
  7  5  1  0
  8  7  2  0
 10  9  1  0
 10 11  1  1
 11 12  1  0
 12 17  2  0
 12 13  1  0
 13 14  2  0
 14 15  1  0
 16 15  2  0
 17 16  1  0
 18 20  1  0
 18 10  1  0
 19 18  2  0
 21 20  1  0
 21 24  1  0
 21 22  1  6
 22 23  1  0
 24 25  1  0
 26 24  2  0
M  END
$$$$
