NFC.pdb
     RDKit          3D

 26 26  0  0  1  0  0  0  0  0999 V2000
    9.5796  -17.3647   17.1281 N   0  0  0  0  0  0  0  0  0  0  0  0
   10.5462  -17.2991   18.1600 C   0  0  0  0  0  0  0  0  0  0  0  0
   11.5261  -18.0859   18.1220 O   0  0  0  0  0  0  0  0  0  0  0  0
   10.4570  -16.3424   19.2882 C   0  0  0  0  0  0  0  0  0  0  0  0
   10.4664  -17.0671   20.6171 C   0  0  2  0  0  0  0  0  0  0  0  0
    9.5250  -18.1505   20.6085 N   0  0  0  0  0  0  0  0  0  0  0  0
   10.1744  -16.0521   21.6639 C   0  0  0  0  0  0  0  0  0  0  0  0
   10.9841  -15.1166   21.8085 O   0  0  0  0  0  0  0  0  0  0  0  0
    9.0396  -16.0846   22.5002 N   0  0  0  0  0  0  0  0  0  0  0  0
    8.7809  -15.1779   23.5799 C   0  0  1  0  0  0  0  0  0  0  0  0
    7.3708  -14.7761   23.7527 C   0  0  0  0  0  0  0  0  0  0  0  0
    7.0911  -13.7777   24.7735 C   0  0  0  0  0  0  0  0  0  0  0  0
    7.4973  -12.4793   24.5553 C   0  0  0  0  0  0  0  0  0  0  0  0
    7.2719  -11.4541   25.4798 C   0  0  0  0  0  0  0  0  0  0  0  0
    6.6285  -11.7230   26.6485 C   0  0  0  0  0  0  0  0  0  0  0  0
    6.2172  -13.0170   26.8791 C   0  0  0  0  0  0  0  0  0  0  0  0
    6.4428  -14.0198   25.9644 C   0  0  0  0  0  0  0  0  0  0  0  0
    9.4181  -15.6449   24.8224 C   0  0  0  0  0  0  0  0  0  0  0  0
    9.6406  -16.8890   25.0042 O   0  0  0  0  0  0  0  0  0  0  0  0
    9.8178  -14.7616   25.8667 N   0  0  0  0  0  0  0  0  0  0  0  0
   10.5822  -15.2129   27.0124 C   0  0  1  0  0  0  0  0  0  0  0  0
   10.7936  -14.0704   28.0035 C   0  0  0  0  0  0  0  0  0  0  0  0
   10.8144  -14.7540   29.6860 S   0  0  0  0  0  0  0  0  0  0  0  0
    9.8375  -16.2693   27.7169 C   0  0  0  0  0  0  0  0  0  0  0  0
   10.4176  -17.3244   28.3967 O   0  0  0  0  0  0  0  0  0  0  0  0
    8.5593  -16.2549   27.7292 O   0  0  0  0  0  0  0  0  0  0  0  0
  2  1  1  0
  3  2  2  0
  4  2  1  0
  5  4  1  0
  5  6  1  6
  7  9  1  0
  7  5  1  0
  8  7  2  0
 10  9  1  0
 10 11  1  1
 11 12  1  0
 12 17  2  0
 12 13  1  0
 13 14  2  0
 14 15  1  0
 16 15  2  0
 17 16  1  0
 18 20  1  0
 18 10  1  0
 19 18  2  0
 21 20  1  0
 21 24  1  0
 21 22  1  1
 22 23  1  0
 24 25  1  0
 26 24  2  0
M  END
$$$$
