NFC.pdb
     RDKit          3D

 26 26  0  0  1  0  0  0  0  0999 V2000
    9.1186  -19.2451   18.6533 N   0  0  0  0  0  0  0  0  0  0  0  0
    9.3649  -19.6183   19.9963 C   0  0  0  0  0  0  0  0  0  0  0  0
    9.3658  -20.8397   20.2946 O   0  0  0  0  0  0  0  0  0  0  0  0
    9.6228  -18.6324   21.0723 C   0  0  0  0  0  0  0  0  0  0  0  0
    9.4893  -17.2163   20.5550 C   0  0  2  0  0  0  0  0  0  0  0  0
   10.5230  -16.9270   19.6020 N   0  0  0  0  0  0  0  0  0  0  0  0
    9.5244  -16.3190   21.7402 C   0  0  0  0  0  0  0  0  0  0  0  0
   10.6391  -15.9559   22.1616 O   0  0  0  0  0  0  0  0  0  0  0  0
    8.3757  -15.8557   22.4140 N   0  0  0  0  0  0  0  0  0  0  0  0
    8.3796  -15.0792   23.6189 C   0  0  1  0  0  0  0  0  0  0  0  0
    7.2067  -14.2051   23.8193 C   0  0  0  0  0  0  0  0  0  0  0  0
    7.1388  -13.4722   25.0744 C   0  0  0  0  0  0  0  0  0  0  0  0
    7.9086  -12.3387   25.2190 C   0  0  0  0  0  0  0  0  0  0  0  0
    7.9078  -11.5717   26.3887 C   0  0  0  0  0  0  0  0  0  0  0  0
    7.1248  -11.9375   27.4401 C   0  0  0  0  0  0  0  0  0  0  0  0
    6.3503  -13.0688   27.3086 C   0  0  0  0  0  0  0  0  0  0  0  0
    6.3569  -13.8178   26.1544 C   0  0  0  0  0  0  0  0  0  0  0  0
    8.6949  -15.9206   24.7853 C   0  0  0  0  0  0  0  0  0  0  0  0
    7.8901  -16.8417   25.1517 O   0  0  0  0  0  0  0  0  0  0  0  0
    9.8857  -15.7655   25.5524 N   0  0  0  0  0  0  0  0  0  0  0  0
   10.2656  -16.7028   26.5905 C   0  0  1  0  0  0  0  0  0  0  0  0
   11.7662  -16.9821   26.5420 C   0  0  0  0  0  0  0  0  0  0  0  0
   12.2077  -17.5073   24.8603 S   0  0  0  0  0  0  0  0  0  0  0  0
    9.9725  -16.1218   27.9110 C   0  0  0  0  0  0  0  0  0  0  0  0
   10.1302  -16.7813   29.1159 O   0  0  0  0  0  0  0  0  0  0  0  0
    9.5371  -14.9233   28.0029 O   0  0  0  0  0  0  0  0  0  0  0  0
  2  1  1  0
  3  2  2  0
  4  2  1  0
  5  4  1  0
  5  6  1  6
  7  9  1  0
  7  5  1  0
  8  7  2  0
 10  9  1  0
 10 11  1  1
 11 12  1  0
 12 17  2  0
 12 13  1  0
 13 14  2  0
 14 15  1  0
 16 15  2  0
 17 16  1  0
 18 20  1  0
 18 10  1  0
 19 18  2  0
 21 20  1  0
 21 24  1  0
 21 22  1  1
 22 23  1  0
 24 25  1  0
 26 24  2  0
M  END
$$$$
