NFC.pdb
     RDKit          3D

 26 26  0  0  1  0  0  0  0  0999 V2000
   12.5683  -19.7821   19.9954 N   0  0  0  0  0  0  0  0  0  0  0  0
   12.4995  -18.3888   19.7553 C   0  0  0  0  0  0  0  0  0  0  0  0
   12.7520  -17.9606   18.6005 O   0  0  0  0  0  0  0  0  0  0  0  0
   12.1423  -17.4067   20.8060 C   0  0  0  0  0  0  0  0  0  0  0  0
   10.6445  -17.3600   21.0193 C   0  0  2  0  0  0  0  0  0  0  0  0
    9.9754  -16.9519   19.8169 N   0  0  0  0  0  0  0  0  0  0  0  0
   10.4000  -16.4394   22.1612 C   0  0  0  0  0  0  0  0  0  0  0  0
   11.3232  -15.6743   22.4990 O   0  0  0  0  0  0  0  0  0  0  0  0
    9.1899  -16.3802   22.8825 N   0  0  0  0  0  0  0  0  0  0  0  0
    8.9160  -15.4845   23.9676 C   0  0  1  0  0  0  0  0  0  0  0  0
    7.5921  -14.8316   23.9383 C   0  0  0  0  0  0  0  0  0  0  0  0
    7.3153  -13.8575   24.9832 C   0  0  0  0  0  0  0  0  0  0  0  0
    6.4833  -14.2204   26.0197 C   0  0  0  0  0  0  0  0  0  0  0  0
    6.1611  -13.3506   27.0667 C   0  0  0  0  0  0  0  0  0  0  0  0
    6.6762  -12.0911   27.0862 C   0  0  0  0  0  0  0  0  0  0  0  0
    7.5095  -11.7157   26.0559 C   0  0  0  0  0  0  0  0  0  0  0  0
    7.8215  -12.5774   25.0296 C   0  0  0  0  0  0  0  0  0  0  0  0
    9.2362  -16.1121   25.2605 C   0  0  0  0  0  0  0  0  0  0  0  0
    9.0229  -17.3578   25.4425 O   0  0  0  0  0  0  0  0  0  0  0  0
    9.7916  -15.3888   26.3555 N   0  0  0  0  0  0  0  0  0  0  0  0
   10.4549  -16.0486   27.4624 C   0  0  1  0  0  0  0  0  0  0  0  0
   10.9253  -15.0270   28.4955 C   0  0  0  0  0  0  0  0  0  0  0  0
   11.1631  -13.4277   27.6680 S   0  0  0  0  0  0  0  0  0  0  0  0
    9.5072  -16.9489   28.1395 C   0  0  0  0  0  0  0  0  0  0  0  0
    9.8240  -17.7717   29.2046 O   0  0  0  0  0  0  0  0  0  0  0  0
    8.2910  -17.0111   27.7505 O   0  0  0  0  0  0  0  0  0  0  0  0
  2  1  1  0
  3  2  2  0
  4  2  1  0
  5  4  1  0
  5  6  1  6
  7  9  1  0
  7  5  1  0
  8  7  2  0
 10  9  1  0
 10 11  1  1
 11 12  1  0
 12 17  2  0
 12 13  1  0
 13 14  2  0
 14 15  1  0
 16 15  2  0
 17 16  1  0
 18 20  1  0
 18 10  1  0
 19 18  2  0
 21 20  1  0
 21 24  1  0
 21 22  1  1
 22 23  1  0
 24 25  1  0
 26 24  2  0
M  END
$$$$
