NFC.pdb
     RDKit          3D

 26 26  0  0  1  0  0  0  0  0999 V2000
   11.7109  -17.1146   17.6461 N   0  0  0  0  0  0  0  0  0  0  0  0
   11.7942  -17.5679   18.9844 C   0  0  0  0  0  0  0  0  0  0  0  0
   12.1168  -18.7640   19.1992 O   0  0  0  0  0  0  0  0  0  0  0  0
   11.5178  -16.6950   20.1496 C   0  0  0  0  0  0  0  0  0  0  0  0
   10.3631  -17.2312   20.9683 C   0  0  2  0  0  0  0  0  0  0  0  0
    9.1887  -17.3705   20.1549 N   0  0  0  0  0  0  0  0  0  0  0  0
   10.1722  -16.2962   22.1087 C   0  0  0  0  0  0  0  0  0  0  0  0
   11.1875  -15.7814   22.6146 O   0  0  0  0  0  0  0  0  0  0  0  0
    8.9151  -15.9582   22.6506 N   0  0  0  0  0  0  0  0  0  0  0  0
    8.7064  -15.1542   23.8188 C   0  0  1  0  0  0  0  0  0  0  0  0
    7.4392  -14.3975   23.8555 C   0  0  0  0  0  0  0  0  0  0  0  0
    7.1887  -13.5900   25.0396 C   0  0  0  0  0  0  0  0  0  0  0  0
    7.8076  -12.3635   25.1448 C   0  0  0  0  0  0  0  0  0  0  0  0
    7.6262  -11.5202   26.2460 C   0  0  0  0  0  0  0  0  0  0  0  0
    6.8116  -11.9024   27.2671 C   0  0  0  0  0  0  0  0  0  0  0  0
    6.1868  -13.1263   27.1744 C   0  0  0  0  0  0  0  0  0  0  0  0
    6.3706  -13.9499   26.0876 C   0  0  0  0  0  0  0  0  0  0  0  0
    8.9668  -15.9291   25.0434 C   0  0  0  0  0  0  0  0  0  0  0  0
    8.2441  -16.9416   25.3311 O   0  0  0  0  0  0  0  0  0  0  0  0
   10.0143  -15.6079   25.9546 N   0  0  0  0  0  0  0  0  0  0  0  0
   10.3732  -16.4755   27.0587 C   0  0  1  0  0  0  0  0  0  0  0  0
   11.8506  -16.8558   26.9874 C   0  0  0  0  0  0  0  0  0  0  0  0
   12.1877  -17.5832   25.3577 S   0  0  0  0  0  0  0  0  0  0  0  0
   10.1665  -15.7652   28.3314 C   0  0  0  0  0  0  0  0  0  0  0  0
   10.3234  -16.3289   29.5841 O   0  0  0  0  0  0  0  0  0  0  0  0
    9.8147  -14.5362   28.3311 O   0  0  0  0  0  0  0  0  0  0  0  0
  2  1  1  0
  3  2  2  0
  4  2  1  0
  5  4  1  0
  5  6  1  6
  7  9  1  0
  7  5  1  0
  8  7  2  0
 10  9  1  0
 10 11  1  1
 11 12  1  0
 12 17  2  0
 12 13  1  0
 13 14  2  0
 14 15  1  0
 16 15  2  0
 17 16  1  0
 18 20  1  0
 18 10  1  0
 19 18  2  0
 21 20  1  0
 21 24  1  0
 21 22  1  6
 22 23  1  0
 24 25  1  0
 26 24  2  0
M  END
$$$$
