NFC.pdb
     RDKit          3D

 26 26  0  0  1  0  0  0  0  0999 V2000
   10.9614  -18.7728   18.0006 N   0  0  0  0  0  0  0  0  0  0  0  0
   10.6170  -17.4055   18.1249 C   0  0  0  0  0  0  0  0  0  0  0  0
   10.1661  -16.8012   17.1188 O   0  0  0  0  0  0  0  0  0  0  0  0
   10.7635  -16.6493   19.3910 C   0  0  0  0  0  0  0  0  0  0  0  0
    9.9590  -17.2891   20.5020 C   0  0  2  0  0  0  0  0  0  0  0  0
    8.6489  -17.6457   20.0364 N   0  0  0  0  0  0  0  0  0  0  0  0
    9.9309  -16.3184   21.6281 C   0  0  0  0  0  0  0  0  0  0  0  0
   11.0153  -16.0137   22.1602 O   0  0  0  0  0  0  0  0  0  0  0  0
    8.7544  -15.7237   22.1287 N   0  0  0  0  0  0  0  0  0  0  0  0
    8.6254  -15.0953   23.4106 C   0  0  1  0  0  0  0  0  0  0  0  0
    7.4089  -14.2813   23.6034 C   0  0  0  0  0  0  0  0  0  0  0  0
    7.2929  -13.5587   24.8609 C   0  0  0  0  0  0  0  0  0  0  0  0
    6.4389  -14.0466   25.8259 C   0  0  0  0  0  0  0  0  0  0  0  0
    6.2633  -13.4189   27.0634 C   0  0  0  0  0  0  0  0  0  0  0  0
    6.9509  -12.2801   27.3509 C   0  0  0  0  0  0  0  0  0  0  0  0
    7.8079  -11.7817   26.3949 C   0  0  0  0  0  0  0  0  0  0  0  0
    7.9750  -12.4054   25.1799 C   0  0  0  0  0  0  0  0  0  0  0  0
    8.8679  -16.0605   24.4957 C   0  0  0  0  0  0  0  0  0  0  0  0
    8.1530  -17.1140   24.5926 O   0  0  0  0  0  0  0  0  0  0  0  0
    9.8889  -15.8849   25.4741 N   0  0  0  0  0  0  0  0  0  0  0  0
   10.3185  -16.9595   26.3465 C   0  0  1  0  0  0  0  0  0  0  0  0
   11.7695  -17.3395   26.0597 C   0  0  0  0  0  0  0  0  0  0  0  0
   12.7062  -15.8280   25.6897 S   0  0  0  0  0  0  0  0  0  0  0  0
   10.2532  -16.5133   27.7478 C   0  0  0  0  0  0  0  0  0  0  0  0
    9.8776  -15.2467   28.1559 O   0  0  0  0  0  0  0  0  0  0  0  0
   10.5573  -17.3185   28.6929 O   0  0  0  0  0  0  0  0  0  0  0  0
  2  1  1  0
  3  2  2  0
  4  2  1  0
  5  4  1  0
  5  6  1  6
  7  9  1  0
  7  5  1  0
  8  7  2  0
 10  9  1  0
 10 11  1  1
 11 12  1  0
 12 17  2  0
 12 13  1  0
 13 14  2  0
 14 15  1  0
 16 15  2  0
 17 16  1  0
 18 20  1  0
 18 10  1  0
 19 18  2  0
 21 20  1  0
 21 24  1  0
 21 22  1  6
 22 23  1  0
 24 25  1  0
 26 24  2  0
M  END
$$$$
