NFC.pdb
     RDKit          3D

 26 26  0  0  1  0  0  0  0  0999 V2000
    9.2621  -16.6629   16.8264 N   0  0  0  0  0  0  0  0  0  0  0  0
   10.0336  -16.9689   17.9730 C   0  0  0  0  0  0  0  0  0  0  0  0
   10.9037  -17.8729   17.8933 O   0  0  0  0  0  0  0  0  0  0  0  0
    9.8631  -16.2705   19.2689 C   0  0  0  0  0  0  0  0  0  0  0  0
    9.6119  -17.2572   20.3888 C   0  0  2  0  0  0  0  0  0  0  0  0
    8.4377  -18.0379   20.1204 N   0  0  0  0  0  0  0  0  0  0  0  0
    9.5097  -16.4675   21.6446 C   0  0  0  0  0  0  0  0  0  0  0  0
   10.4650  -15.7264   21.9446 O   0  0  0  0  0  0  0  0  0  0  0  0
    8.4002  -16.5068   22.5139 N   0  0  0  0  0  0  0  0  0  0  0  0
    8.3279  -15.8643   23.7933 C   0  0  1  0  0  0  0  0  0  0  0  0
    7.0400  -15.2160   24.1106 C   0  0  0  0  0  0  0  0  0  0  0  0
    7.0594  -14.1765   25.1285 C   0  0  0  0  0  0  0  0  0  0  0  0
    7.3308  -12.8816   24.7440 C   0  0  0  0  0  0  0  0  0  0  0  0
    7.3707  -11.8187   25.6524 C   0  0  0  0  0  0  0  0  0  0  0  0
    7.1358  -12.0454   26.9736 C   0  0  0  0  0  0  0  0  0  0  0  0
    6.8633  -13.3356   27.3713 C   0  0  0  0  0  0  0  0  0  0  0  0
    6.8259  -14.3756   26.4713 C   0  0  0  0  0  0  0  0  0  0  0  0
    8.8180  -16.7559   24.8575 C   0  0  0  0  0  0  0  0  0  0  0  0
    8.2632  -17.8888   25.0553 O   0  0  0  0  0  0  0  0  0  0  0  0
    9.9131  -16.4203   25.7054 N   0  0  0  0  0  0  0  0  0  0  0  0
   10.4837  -17.3658   26.6439 C   0  0  1  0  0  0  0  0  0  0  0  0
   12.0011  -17.4341   26.4851 C   0  0  0  0  0  0  0  0  0  0  0  0
   12.3913  -17.7534   24.7402 S   0  0  0  0  0  0  0  0  0  0  0  0
   10.2087  -16.9217   28.0202 C   0  0  0  0  0  0  0  0  0  0  0  0
   10.5813  -17.6091   29.1605 O   0  0  0  0  0  0  0  0  0  0  0  0
    9.5815  -15.8274   28.2285 O   0  0  0  0  0  0  0  0  0  0  0  0
  2  1  1  0
  3  2  2  0
  4  2  1  0
  5  4  1  0
  5  6  1  6
  7  9  1  0
  7  5  1  0
  8  7  2  0
 10  9  1  0
 10 11  1  1
 11 12  1  0
 12 17  2  0
 12 13  1  0
 13 14  2  0
 14 15  1  0
 16 15  2  0
 17 16  1  0
 18 20  1  0
 18 10  1  0
 19 18  2  0
 21 20  1  0
 21 24  1  0
 21 22  1  1
 22 23  1  0
 24 25  1  0
 26 24  2  0
M  END
$$$$
