NFC.pdb
     RDKit          3D

 26 26  0  0  1  0  0  0  0  0999 V2000
    8.6698  -13.2544   16.3248 N   0  0  0  0  0  0  0  0  0  0  0  0
    7.9892  -14.0981   17.2350 C   0  0  0  0  0  0  0  0  0  0  0  0
    7.3063  -15.0514   16.7816 O   0  0  0  0  0  0  0  0  0  0  0  0
    8.0441  -13.9098   18.7039 C   0  0  0  0  0  0  0  0  0  0  0  0
    8.6431  -15.1215   19.3849 C   0  0  2  0  0  0  0  0  0  0  0  0
    7.8046  -16.2716   19.1993 N   0  0  0  0  0  0  0  0  0  0  0  0
    8.8296  -14.7636   20.8161 C   0  0  0  0  0  0  0  0  0  0  0  0
    9.8485  -14.1173   21.1257 O   0  0  0  0  0  0  0  0  0  0  0  0
    7.9254  -15.1106   21.8410 N   0  0  0  0  0  0  0  0  0  0  0  0
    8.0427  -14.7206   23.2153 C   0  0  1  0  0  0  0  0  0  0  0  0
    6.8712  -14.0249   23.7841 C   0  0  0  0  0  0  0  0  0  0  0  0
    7.0210  -13.4677   25.1198 C   0  0  0  0  0  0  0  0  0  0  0  0
    6.4152  -14.1130   26.1757 C   0  0  0  0  0  0  0  0  0  0  0  0
    6.5048  -13.6504   27.4927 C   0  0  0  0  0  0  0  0  0  0  0  0
    7.2119  -12.5209   27.7691 C   0  0  0  0  0  0  0  0  0  0  0  0
    7.8224  -11.8661   26.7225 C   0  0  0  0  0  0  0  0  0  0  0  0
    7.7294  -12.3278   25.4297 C   0  0  0  0  0  0  0  0  0  0  0  0
    8.5215  -15.8419   24.0407 C   0  0  0  0  0  0  0  0  0  0  0  0
    7.8952  -16.9546   24.0418 O   0  0  0  0  0  0  0  0  0  0  0  0
    9.6826  -15.7575   24.8626 N   0  0  0  0  0  0  0  0  0  0  0  0
   10.1390  -16.8680   25.6743 C   0  0  1  0  0  0  0  0  0  0  0  0
   11.6085  -17.1737   25.3927 C   0  0  0  0  0  0  0  0  0  0  0  0
   11.7870  -17.6155   23.6400 S   0  0  0  0  0  0  0  0  0  0  0  0
   10.0323  -16.5140   27.0992 C   0  0  0  0  0  0  0  0  0  0  0  0
   10.3336  -17.3632   28.1479 O   0  0  0  0  0  0  0  0  0  0  0  0
    9.6358  -15.3485   27.4433 O   0  0  0  0  0  0  0  0  0  0  0  0
  2  1  1  0
  3  2  2  0
  4  2  1  0
  5  4  1  0
  5  6  1  1
  7  9  1  0
  7  5  1  0
  8  7  2  0
 10  9  1  0
 10 11  1  1
 11 12  1  0
 12 17  2  0
 12 13  1  0
 13 14  2  0
 14 15  1  0
 16 15  2  0
 17 16  1  0
 18 20  1  0
 18 10  1  0
 19 18  2  0
 21 20  1  0
 21 24  1  0
 21 22  1  6
 22 23  1  0
 24 25  1  0
 26 24  2  0
M  END
$$$$
