NFC.pdb
     RDKit          3D

 26 26  0  0  1  0  0  0  0  0999 V2000
    7.7030  -14.7844   18.5999 N   0  0  0  0  0  0  0  0  0  0  0  0
    8.0070  -13.6747   19.4244 C   0  0  0  0  0  0  0  0  0  0  0  0
    7.9697  -12.5215   18.9250 O   0  0  0  0  0  0  0  0  0  0  0  0
    8.3688  -13.8090   20.8553 C   0  0  0  0  0  0  0  0  0  0  0  0
    8.3906  -15.2628   21.2760 C   0  0  2  0  0  0  0  0  0  0  0  0
    7.1194  -15.8804   21.0256 N   0  0  0  0  0  0  0  0  0  0  0  0
    8.7771  -15.2905   22.7116 C   0  0  0  0  0  0  0  0  0  0  0  0
    9.8830  -14.8104   23.0253 O   0  0  0  0  0  0  0  0  0  0  0  0
    7.9699  -15.8259   23.7364 N   0  0  0  0  0  0  0  0  0  0  0  0
    8.3557  -15.9572   25.1107 C   0  0  1  0  0  0  0  0  0  0  0  0
    7.3518  -15.5191   26.1006 C   0  0  0  0  0  0  0  0  0  0  0  0
    7.1818  -14.0847   26.2751 C   0  0  0  0  0  0  0  0  0  0  0  0
    5.9752  -13.5164   25.9290 C   0  0  0  0  0  0  0  0  0  0  0  0
    5.7217  -12.1472   26.0621 C   0  0  0  0  0  0  0  0  0  0  0  0
    6.6877  -11.3220   26.5501 C   0  0  0  0  0  0  0  0  0  0  0  0
    7.8986  -11.8774   26.8999 C   0  0  0  0  0  0  0  0  0  0  0  0
    8.1399  -13.2254   26.7658 C   0  0  0  0  0  0  0  0  0  0  0  0
    8.9016  -17.2984   25.3773 C   0  0  0  0  0  0  0  0  0  0  0  0
    8.5449  -18.2933   24.6610 O   0  0  0  0  0  0  0  0  0  0  0  0
    9.8379  -17.5599   26.4193 N   0  0  0  0  0  0  0  0  0  0  0  0
   10.7958  -18.6450   26.3450 C   0  0  1  0  0  0  0  0  0  0  0  0
   11.9982  -18.2454   25.4924 C   0  0  0  0  0  0  0  0  0  0  0  0
   12.6181  -19.7194   24.6310 S   0  0  0  0  0  0  0  0  0  0  0  0
   11.2999  -18.9510   27.6938 C   0  0  0  0  0  0  0  0  0  0  0  0
   10.9616  -18.2548   28.8395 O   0  0  0  0  0  0  0  0  0  0  0  0
   12.1131  -19.9214   27.8705 O   0  0  0  0  0  0  0  0  0  0  0  0
  2  1  1  0
  3  2  2  0
  4  2  1  0
  5  4  1  0
  5  6  1  1
  7  9  1  0
  7  5  1  0
  8  7  2  0
 10  9  1  0
 10 11  1  1
 11 12  1  0
 12 17  2  0
 12 13  1  0
 13 14  2  0
 14 15  1  0
 16 15  2  0
 17 16  1  0
 18 20  1  0
 18 10  1  0
 19 18  2  0
 21 20  1  0
 21 24  1  0
 21 22  1  6
 22 23  1  0
 24 25  1  0
 26 24  2  0
M  END
$$$$
