SHF.pdb
     RDKit          3D

 28 29  0  0  1  0  0  0  0  0999 V2000
   29.0442  -22.8546  -14.9294 O   0  0  0  0  0  0  0  0  0  0  0  0
   28.2902  -23.0599  -16.0817 C   0  0  0  0  0  0  0  0  0  0  0  0
   27.9675  -21.7417  -16.7380 C   0  0  2  0  0  0  0  0  0  0  0  0
   29.1617  -21.2077  -17.3361 N   0  0  0  0  0  0  0  0  0  0  0  0
   27.3280  -20.8161  -15.7942 C   0  0  0  0  0  0  0  0  0  0  0  0
   27.9078  -19.7468  -15.4941 O   0  0  0  0  0  0  0  0  0  0  0  0
   26.0794  -21.0836  -15.2081 N   0  0  0  0  0  0  0  0  0  0  0  0
   25.3715  -20.1221  -14.3684 C   0  0  1  0  0  0  0  0  0  0  0  0
   24.1222  -19.6692  -15.0995 C   0  0  0  0  0  0  0  0  0  0  0  0
   24.4436  -18.5690  -16.0278 C   0  0  0  0  0  0  0  0  0  0  0  0
   24.8343  -18.7085  -17.3211 C   0  0  0  0  0  0  0  0  0  0  0  0
   25.0297  -17.4633  -17.8230 N   0  0  0  0  0  0  0  0  0  0  0  0
   24.7691  -16.5584  -16.8708 C   0  0  0  0  0  0  0  0  0  0  0  0
   24.4100  -17.2318  -15.7706 N   0  0  0  0  0  0  0  0  0  0  0  0
   24.9163  -20.8072  -13.1283 C   0  0  0  0  0  0  0  0  0  0  0  0
   24.5537  -22.0140  -13.1824 O   0  0  0  0  0  0  0  0  0  0  0  0
   24.8639  -20.1714  -11.8596 N   0  0  0  0  0  0  0  0  0  0  0  0
   24.3595  -20.8187  -10.6548 C   0  0  1  0  0  0  0  0  0  0  0  0
   24.8898  -20.1911   -9.4174 C   0  0  0  0  0  0  0  0  0  0  0  0
   26.3424  -20.3774   -9.2467 C   0  0  0  0  0  0  0  0  0  0  0  0
   26.9962  -21.3361  -10.0281 C   0  0  0  0  0  0  0  0  0  0  0  0
   28.3505  -21.4669   -9.8550 C   0  0  0  0  0  0  0  0  0  0  0  0
   29.1097  -20.7302   -8.9758 C   0  0  0  0  0  0  0  0  0  0  0  0
   28.4451  -19.7902   -8.2149 C   0  0  0  0  0  0  0  0  0  0  0  0
   27.0847  -19.6093   -8.3409 C   0  0  0  0  0  0  0  0  0  0  0  0
   22.8868  -20.9080  -10.6651 C   0  0  0  0  0  0  0  0  0  0  0  0
   22.2606  -20.0262  -11.3468 O   0  0  0  0  0  0  0  0  0  0  0  0
   22.1958  -21.8701   -9.9942 O   0  0  0  0  0  0  0  0  0  0  0  0
  1  2  1  0
  2  3  1  0
  3  4  1  1
  3  5  1  0
  5  6  2  0
  7  5  1  0
  7  8  1  0
  8  9  1  6
  9 10  1  0
 10 14  1  0
 11 12  1  0
 11 10  2  0
 12 13  1  0
 13 14  2  0
 15  8  1  0
 15 16  2  0
 17 15  1  0
 18 17  1  0
 18 19  1  1
 20 19  1  0
 21 20  2  0
 22 21  1  0
 23 24  1  0
 23 22  2  0
 24 25  2  0
 25 20  1  0
 26 18  1  0
 27 26  2  0
 28 26  1  0
M  END
$$$$
