SHF.pdb
     RDKit          3D

 28 29  0  0  1  0  0  0  0  0999 V2000
   13.5830   -8.8247  -16.7561 O   0  0  0  0  0  0  0  0  0  0  0  0
   13.9720   -8.5485  -15.4481 C   0  0  0  0  0  0  0  0  0  0  0  0
   14.9126   -9.6139  -14.9456 C   0  0  2  0  0  0  0  0  0  0  0  0
   14.1722  -10.8248  -14.7117 N   0  0  0  0  0  0  0  0  0  0  0  0
   15.6610   -9.1554  -13.7682 C   0  0  0  0  0  0  0  0  0  0  0  0
   15.3581   -9.5996  -12.6365 O   0  0  0  0  0  0  0  0  0  0  0  0
   16.7137   -8.2296  -13.8601 N   0  0  0  0  0  0  0  0  0  0  0  0
   17.5152   -7.8184  -12.7117 C   0  0  1  0  0  0  0  0  0  0  0  0
   18.8476   -7.2958  -13.2138 C   0  0  0  0  0  0  0  0  0  0  0  0
   19.7297   -8.4180  -13.5853 C   0  0  0  0  0  0  0  0  0  0  0  0
   19.4512   -9.7369  -13.4194 C   0  0  0  0  0  0  0  0  0  0  0  0
   20.5142  -10.4386  -13.8865 N   0  0  0  0  0  0  0  0  0  0  0  0
   21.4424   -9.5847  -14.3369 C   0  0  0  0  0  0  0  0  0  0  0  0
   20.9654   -8.3469  -14.1541 N   0  0  0  0  0  0  0  0  0  0  0  0
   16.8382   -6.6803  -12.0329 C   0  0  0  0  0  0  0  0  0  0  0  0
   16.5275   -5.6553  -12.6990 O   0  0  0  0  0  0  0  0  0  0  0  0
   16.5132   -6.6775  -10.6505 N   0  0  0  0  0  0  0  0  0  0  0  0
   15.7776   -5.6010   -9.9985 C   0  0  1  0  0  0  0  0  0  0  0  0
   14.3140   -5.8540   -9.9788 C   0  0  0  0  0  0  0  0  0  0  0  0
   13.9121   -6.8688   -8.9875 C   0  0  0  0  0  0  0  0  0  0  0  0
   14.0125   -8.2220   -9.3282 C   0  0  0  0  0  0  0  0  0  0  0  0
   13.6480   -9.1365   -8.3732 C   0  0  0  0  0  0  0  0  0  0  0  0
   13.1938   -8.8247   -7.1128 C   0  0  0  0  0  0  0  0  0  0  0  0
   13.1025   -7.4844   -6.7973 C   0  0  0  0  0  0  0  0  0  0  0  0
   13.4534   -6.5153   -7.7123 C   0  0  0  0  0  0  0  0  0  0  0  0
   16.3250   -5.3049   -8.6607 C   0  0  0  0  0  0  0  0  0  0  0  0
   15.8431   -4.2888   -8.0528 O   0  0  0  0  0  0  0  0  0  0  0  0
   17.2950   -6.0566   -8.0715 O   0  0  0  0  0  0  0  0  0  0  0  0
  1  2  1  0
  2  3  1  0
  3  4  1  1
  3  5  1  0
  5  6  2  0
  7  5  1  0
  7  8  1  0
  8  9  1  6
  9 10  1  0
 10 14  1  0
 11 12  1  0
 11 10  2  0
 12 13  1  0
 13 14  2  0
 15  8  1  0
 15 16  2  0
 17 15  1  0
 18 17  1  0
 18 19  1  1
 20 19  1  0
 21 20  2  0
 22 21  1  0
 23 24  1  0
 23 22  2  0
 24 25  2  0
 25 20  1  0
 26 18  1  0
 27 26  2  0
 28 26  1  0
M  END
$$$$
