SHF.pdb
     RDKit          3D

 28 29  0  0  1  0  0  0  0  0999 V2000
   20.4971   -8.1606  -13.7668 O   0  0  0  0  0  0  0  0  0  0  0  0
   20.2447   -9.4139  -13.2155 C   0  0  0  0  0  0  0  0  0  0  0  0
   18.9015   -9.9251  -13.6703 C   0  0  2  0  0  0  0  0  0  0  0  0
   18.8337   -9.8612  -15.1057 N   0  0  0  0  0  0  0  0  0  0  0  0
   17.8039   -9.2109  -13.0057 C   0  0  0  0  0  0  0  0  0  0  0  0
   17.1880   -8.3149  -13.6283 O   0  0  0  0  0  0  0  0  0  0  0  0
   17.4122   -9.4944  -11.6866 N   0  0  0  0  0  0  0  0  0  0  0  0
   16.3211   -8.7974  -11.0126 C   0  0  1  0  0  0  0  0  0  0  0  0
   15.7215   -9.7267   -9.9747 C   0  0  0  0  0  0  0  0  0  0  0  0
   14.4076   -9.2215   -9.5343 C   0  0  0  0  0  0  0  0  0  0  0  0
   13.8488   -8.0378   -9.8966 C   0  0  0  0  0  0  0  0  0  0  0  0
   12.6438   -7.9516   -9.2793 N   0  0  0  0  0  0  0  0  0  0  0  0
   12.4451   -9.0535   -8.5447 C   0  0  0  0  0  0  0  0  0  0  0  0
   13.5229   -9.8330   -8.6984 N   0  0  0  0  0  0  0  0  0  0  0  0
   16.8767   -7.6320  -10.2726 C   0  0  0  0  0  0  0  0  0  0  0  0
   17.7038   -7.8249   -9.3401 O   0  0  0  0  0  0  0  0  0  0  0  0
   16.5249   -6.2861  -10.5583 N   0  0  0  0  0  0  0  0  0  0  0  0
   16.9530   -5.1526   -9.7478 C   0  0  1  0  0  0  0  0  0  0  0  0
   18.1237   -4.4530  -10.3364 C   0  0  0  0  0  0  0  0  0  0  0  0
   19.3858   -5.1996  -10.1824 C   0  0  0  0  0  0  0  0  0  0  0  0
   20.0842   -5.5885  -11.3305 C   0  0  0  0  0  0  0  0  0  0  0  0
   21.2637   -6.2641  -11.1467 C   0  0  0  0  0  0  0  0  0  0  0  0
   21.8082   -6.5859   -9.9253 C   0  0  0  0  0  0  0  0  0  0  0  0
   21.1032   -6.1930   -8.8059 C   0  0  0  0  0  0  0  0  0  0  0  0
   19.9112   -5.5109   -8.9221 C   0  0  0  0  0  0  0  0  0  0  0  0
   15.8297   -4.2417   -9.4558 C   0  0  0  0  0  0  0  0  0  0  0  0
   16.0369   -3.3331   -8.5808 O   0  0  0  0  0  0  0  0  0  0  0  0
   14.6185   -4.3344  -10.0705 O   0  0  0  0  0  0  0  0  0  0  0  0
  1  2  1  0
  2  3  1  0
  3  4  1  6
  3  5  1  0
  5  6  2  0
  7  5  1  0
  7  8  1  0
  8  9  1  1
  9 10  1  0
 10 14  1  0
 11 12  1  0
 11 10  2  0
 12 13  1  0
 13 14  2  0
 15  8  1  0
 15 16  2  0
 17 15  1  0
 18 17  1  0
 18 19  1  6
 20 19  1  0
 21 20  2  0
 22 21  1  0
 23 24  1  0
 23 22  2  0
 24 25  2  0
 25 20  1  0
 26 18  1  0
 27 26  2  0
 28 26  1  0
M  END
$$$$
