SHF.pdb
     RDKit          3D

 28 29  0  0  1  0  0  0  0  0999 V2000
   18.8362  -14.8020  -18.2355 O   0  0  0  0  0  0  0  0  0  0  0  0
   19.8033  -13.8033  -18.1577 C   0  0  0  0  0  0  0  0  0  0  0  0
   21.0887  -14.2686  -18.7929 C   0  0  2  0  0  0  0  0  0  0  0  0
   21.5013  -15.5004  -18.1753 N   0  0  0  0  0  0  0  0  0  0  0  0
   22.1185  -13.2229  -18.7455 C   0  0  0  0  0  0  0  0  0  0  0  0
   22.8534  -13.1298  -17.7350 O   0  0  0  0  0  0  0  0  0  0  0  0
   22.3154  -12.3132  -19.7979 N   0  0  0  0  0  0  0  0  0  0  0  0
   23.3464  -11.2802  -19.7753 C   0  0  1  0  0  0  0  0  0  0  0  0
   23.5226  -10.7418  -21.1822 C   0  0  0  0  0  0  0  0  0  0  0  0
   24.3064  -11.6885  -21.9975 C   0  0  0  0  0  0  0  0  0  0  0  0
   24.9715  -12.7774  -21.5321 C   0  0  0  0  0  0  0  0  0  0  0  0
   25.5608  -13.3789  -22.5958 N   0  0  0  0  0  0  0  0  0  0  0  0
   25.2756  -12.6877  -23.7068 C   0  0  0  0  0  0  0  0  0  0  0  0
   24.5079  -11.6523  -23.3442 N   0  0  0  0  0  0  0  0  0  0  0  0
   22.8734  -10.1440  -18.9389 C   0  0  0  0  0  0  0  0  0  0  0  0
   21.6352   -9.9485  -18.7992 O   0  0  0  0  0  0  0  0  0  0  0  0
   23.7500   -9.2463  -18.2737 N   0  0  0  0  0  0  0  0  0  0  0  0
   23.2911   -8.1502  -17.4294 C   0  0  1  0  0  0  0  0  0  0  0  0
   23.7927   -8.2680  -16.0362 C   0  0  0  0  0  0  0  0  0  0  0  0
   23.3668   -7.1547  -15.1683 C   0  0  0  0  0  0  0  0  0  0  0  0
   22.4080   -7.3988  -14.1792 C   0  0  0  0  0  0  0  0  0  0  0  0
   22.0517   -6.3434  -13.3790 C   0  0  0  0  0  0  0  0  0  0  0  0
   22.5635   -5.0703  -13.4754 C   0  0  0  0  0  0  0  0  0  0  0  0
   23.5079   -4.8512  -14.4575 C   0  0  0  0  0  0  0  0  0  0  0  0
   23.9093   -5.8697  -15.2948 C   0  0  0  0  0  0  0  0  0  0  0  0
   23.5898   -6.8387  -18.0359 C   0  0  0  0  0  0  0  0  0  0  0  0
   22.6789   -5.9455  -17.9551 O   0  0  0  0  0  0  0  0  0  0  0  0
   24.7680   -6.5584  -18.6577 O   0  0  0  0  0  0  0  0  0  0  0  0
  1  2  1  0
  2  3  1  0
  3  4  1  1
  3  5  1  0
  5  6  2  0
  7  5  1  0
  7  8  1  0
  8  9  1  6
  9 10  1  0
 10 14  1  0
 11 12  1  0
 11 10  2  0
 12 13  1  0
 13 14  2  0
 15  8  1  0
 15 16  2  0
 17 15  1  0
 18 17  1  0
 18 19  1  1
 20 19  1  0
 21 20  2  0
 22 21  1  0
 23 24  1  0
 23 22  2  0
 24 25  2  0
 25 20  1  0
 26 18  1  0
 27 26  2  0
 28 26  1  0
M  END
$$$$
