SHF.pdb
     RDKit          3D

 28 29  0  0  1  0  0  0  0  0999 V2000
   17.1005  -22.6518    0.5790 O   0  0  0  0  0  0  0  0  0  0  0  0
   16.0096  -23.4636    0.8781 C   0  0  0  0  0  0  0  0  0  0  0  0
   14.7331  -22.8245    0.3938 C   0  0  2  0  0  0  0  0  0  0  0  0
   14.8249  -22.6029   -1.0244 N   0  0  0  0  0  0  0  0  0  0  0  0
   14.4234  -21.6057    1.1522 C   0  0  0  0  0  0  0  0  0  0  0  0
   13.9520  -20.6120    0.5523 O   0  0  0  0  0  0  0  0  0  0  0  0
   14.6362  -21.5077    2.5375 N   0  0  0  0  0  0  0  0  0  0  0  0
   14.2355  -20.3456    3.3245 C   0  0  1  0  0  0  0  0  0  0  0  0
   13.9435  -20.7988    4.7422 C   0  0  0  0  0  0  0  0  0  0  0  0
   12.5378  -21.2290    4.8621 C   0  0  0  0  0  0  0  0  0  0  0  0
   11.5194  -20.8554    4.0447 C   0  0  0  0  0  0  0  0  0  0  0  0
   10.3941  -21.4669    4.4922 N   0  0  0  0  0  0  0  0  0  0  0  0
   10.6930  -22.2090    5.5662 C   0  0  0  0  0  0  0  0  0  0  0  0
   12.0044  -22.0657    5.7954 N   0  0  0  0  0  0  0  0  0  0  0  0
   15.3809  -19.3991    3.4058 C   0  0  0  0  0  0  0  0  0  0  0  0
   16.5595  -19.8420    3.3304 O   0  0  0  0  0  0  0  0  0  0  0  0
   15.2250  -17.9968    3.5666 N   0  0  0  0  0  0  0  0  0  0  0  0
   16.3426  -17.0769    3.7383 C   0  0  1  0  0  0  0  0  0  0  0  0
   16.2473  -15.9036    2.8323 C   0  0  0  0  0  0  0  0  0  0  0  0
   17.3473  -14.9385    3.0121 C   0  0  0  0  0  0  0  0  0  0  0  0
   18.5692  -15.1817    2.3758 C   0  0  0  0  0  0  0  0  0  0  0  0
   19.5621  -14.2517    2.5508 C   0  0  0  0  0  0  0  0  0  0  0  0
   19.4470  -13.1044    3.3008 C   0  0  0  0  0  0  0  0  0  0  0  0
   18.2336  -12.8838    3.9199 C   0  0  0  0  0  0  0  0  0  0  0  0
   17.1952  -13.7798    3.7839 C   0  0  0  0  0  0  0  0  0  0  0  0
   16.5160  -16.6946    5.1529 C   0  0  0  0  0  0  0  0  0  0  0  0
   15.4507  -16.4902    5.8293 O   0  0  0  0  0  0  0  0  0  0  0  0
   17.7357  -16.5587    5.7419 O   0  0  0  0  0  0  0  0  0  0  0  0
  1  2  1  0
  2  3  1  0
  3  4  1  6
  3  5  1  0
  5  6  2  0
  7  5  1  0
  7  8  1  0
  8  9  1  1
  9 10  1  0
 10 14  1  0
 11 12  1  0
 11 10  2  0
 12 13  1  0
 13 14  2  0
 15  8  1  0
 15 16  2  0
 17 15  1  0
 18 17  1  0
 18 19  1  6
 20 19  1  0
 21 20  2  0
 22 21  1  0
 23 24  1  0
 23 22  2  0
 24 25  2  0
 25 20  1  0
 26 18  1  0
 27 26  2  0
 28 26  1  0
M  END
$$$$
