SHF.pdb
     RDKit          3D

 28 29  0  0  1  0  0  0  0  0999 V2000
   29.0302  -21.4905  -13.6567 O   0  0  0  0  0  0  0  0  0  0  0  0
   28.1762  -21.6526  -14.7443 C   0  0  0  0  0  0  0  0  0  0  0  0
   27.3054  -20.4337  -14.9123 C   0  0  2  0  0  0  0  0  0  0  0  0
   28.0909  -19.3661  -15.4710 N   0  0  0  0  0  0  0  0  0  0  0  0
   26.6450  -20.0696  -13.6523 C   0  0  0  0  0  0  0  0  0  0  0  0
   26.8634  -18.9440  -13.1472 O   0  0  0  0  0  0  0  0  0  0  0  0
   25.7693  -20.9410  -12.9831 N   0  0  0  0  0  0  0  0  0  0  0  0
   25.0029  -20.5495  -11.8043 C   0  0  1  0  0  0  0  0  0  0  0  0
   23.7328  -21.3772  -11.7562 C   0  0  0  0  0  0  0  0  0  0  0  0
   22.6947  -20.7707  -12.6105 C   0  0  0  0  0  0  0  0  0  0  0  0
   22.8105  -19.6035  -13.2955 C   0  0  0  0  0  0  0  0  0  0  0  0
   21.6419  -19.4012  -13.9542 N   0  0  0  0  0  0  0  0  0  0  0  0
   20.8073  -20.4153  -13.6925 C   0  0  0  0  0  0  0  0  0  0  0  0
   21.4485  -21.2554  -12.8703 N   0  0  0  0  0  0  0  0  0  0  0  0
   25.7833  -20.8931  -10.5848 C   0  0  0  0  0  0  0  0  0  0  0  0
   26.4820  -21.9431  -10.5696 O   0  0  0  0  0  0  0  0  0  0  0  0
   25.7898  -20.0937   -9.4111 N   0  0  0  0  0  0  0  0  0  0  0  0
   26.5580  -20.4231   -8.2168 C   0  0  1  0  0  0  0  0  0  0  0  0
   27.4819  -19.3280   -7.8249 C   0  0  0  0  0  0  0  0  0  0  0  0
   28.1520  -19.5662   -6.5333 C   0  0  0  0  0  0  0  0  0  0  0  0
   29.3020  -20.3624   -6.5063 C   0  0  0  0  0  0  0  0  0  0  0  0
   29.9083  -20.5451   -5.2897 C   0  0  0  0  0  0  0  0  0  0  0  0
   29.4730  -20.0072   -4.1009 C   0  0  0  0  0  0  0  0  0  0  0  0
   28.3371  -19.2251   -4.1499 C   0  0  0  0  0  0  0  0  0  0  0  0
   27.6805  -19.0025   -5.3411 C   0  0  0  0  0  0  0  0  0  0  0  0
   25.6809  -20.8546   -7.1115 C   0  0  0  0  0  0  0  0  0  0  0  0
   24.4577  -20.4875   -7.1695 O   0  0  0  0  0  0  0  0  0  0  0  0
   26.1189  -21.6086   -6.0661 O   0  0  0  0  0  0  0  0  0  0  0  0
  1  2  1  0
  2  3  1  0
  3  4  1  1
  3  5  1  0
  5  6  2  0
  7  5  1  0
  7  8  1  0
  8  9  1  1
  9 10  1  0
 10 14  1  0
 11 12  1  0
 11 10  2  0
 12 13  1  0
 13 14  2  0
 15  8  1  0
 15 16  2  0
 17 15  1  0
 18 17  1  0
 18 19  1  1
 20 19  1  0
 21 20  2  0
 22 21  1  0
 23 24  1  0
 23 22  2  0
 24 25  2  0
 25 20  1  0
 26 18  1  0
 27 26  2  0
 28 26  1  0
M  END
$$$$
