SHF.pdb
     RDKit          3D

 28 29  0  0  1  0  0  0  0  0999 V2000
   20.8000  -18.6808  -11.5426 O   0  0  0  0  0  0  0  0  0  0  0  0
   21.5156  -18.3441  -12.6884 C   0  0  0  0  0  0  0  0  0  0  0  0
   21.8658  -19.5844  -13.4703 C   0  0  2  0  0  0  0  0  0  0  0  0
   20.6544  -20.2170  -13.9190 N   0  0  0  0  0  0  0  0  0  0  0  0
   22.7340  -20.4791  -12.6944 C   0  0  0  0  0  0  0  0  0  0  0  0
   22.2180  -21.3806  -11.9939 O   0  0  0  0  0  0  0  0  0  0  0  0
   24.1342  -20.3643  -12.7057 N   0  0  0  0  0  0  0  0  0  0  0  0
   25.0169  -21.3184  -12.0416 C   0  0  1  0  0  0  0  0  0  0  0  0
   26.0173  -21.8388  -13.0559 C   0  0  0  0  0  0  0  0  0  0  0  0
   25.3576  -22.7635  -13.9966 C   0  0  0  0  0  0  0  0  0  0  0  0
   25.0413  -24.0605  -13.7466 C   0  0  0  0  0  0  0  0  0  0  0  0
   24.4498  -24.5568  -14.8620 N   0  0  0  0  0  0  0  0  0  0  0  0
   24.3931  -23.5976  -15.7948 C   0  0  0  0  0  0  0  0  0  0  0  0
   24.9480  -22.4985  -15.2684 N   0  0  0  0  0  0  0  0  0  0  0  0
   25.7999  -20.6052  -10.9963 C   0  0  0  0  0  0  0  0  0  0  0  0
   26.1261  -19.4005  -11.1780 O   0  0  0  0  0  0  0  0  0  0  0  0
   26.2113  -21.2113   -9.7797 N   0  0  0  0  0  0  0  0  0  0  0  0
   27.0863  -20.5611   -8.8119 C   0  0  1  0  0  0  0  0  0  0  0  0
   26.6213  -20.7580   -7.4150 C   0  0  0  0  0  0  0  0  0  0  0  0
   27.5325  -20.1782   -6.4111 C   0  0  0  0  0  0  0  0  0  0  0  0
   27.4351  -18.8134   -6.1197 C   0  0  0  0  0  0  0  0  0  0  0  0
   28.2860  -18.3147   -5.1666 C   0  0  0  0  0  0  0  0  0  0  0  0
   29.2226  -19.0516   -4.4798 C   0  0  0  0  0  0  0  0  0  0  0  0
   29.3020  -20.3957   -4.7825 C   0  0  0  0  0  0  0  0  0  0  0  0
   28.4753  -20.9588   -5.7306 C   0  0  0  0  0  0  0  0  0  0  0  0
   28.4950  -20.9544   -9.0067 C   0  0  0  0  0  0  0  0  0  0  0  0
   28.7072  -22.1267   -9.4703 O   0  0  0  0  0  0  0  0  0  0  0  0
   29.5424  -20.1338   -8.7189 O   0  0  0  0  0  0  0  0  0  0  0  0
  1  2  1  0
  2  3  1  0
  3  4  1  1
  3  5  1  0
  5  6  2  0
  7  5  1  0
  7  8  1  0
  8  9  1  6
  9 10  1  0
 10 14  1  0
 11 12  1  0
 11 10  2  0
 12 13  1  0
 13 14  2  0
 15  8  1  0
 15 16  2  0
 17 15  1  0
 18 17  1  0
 18 19  1  1
 20 19  1  0
 21 20  2  0
 22 21  1  0
 23 24  1  0
 23 22  2  0
 24 25  2  0
 25 20  1  0
 26 18  1  0
 27 26  2  0
 28 26  1  0
M  END
$$$$
