SHF.pdb
     RDKit          3D

 28 29  0  0  1  0  0  0  0  0999 V2000
   28.8525  -18.1984  -17.7725 O   0  0  0  0  0  0  0  0  0  0  0  0
   27.8740  -17.8890  -18.7133 C   0  0  0  0  0  0  0  0  0  0  0  0
   27.0447  -16.7219  -18.2416 C   0  0  2  0  0  0  0  0  0  0  0  0
   27.8926  -15.5694  -18.0947 N   0  0  0  0  0  0  0  0  0  0  0  0
   26.2999  -17.0533  -17.0202 C   0  0  0  0  0  0  0  0  0  0  0  0
   26.4299  -16.3294  -16.0060 O   0  0  0  0  0  0  0  0  0  0  0  0
   25.4386  -18.1605  -16.9418 N   0  0  0  0  0  0  0  0  0  0  0  0
   24.5902  -18.4292  -15.7848 C   0  0  1  0  0  0  0  0  0  0  0  0
   23.1469  -18.4903  -16.2470 C   0  0  0  0  0  0  0  0  0  0  0  0
   22.2548  -18.7583  -15.1035 C   0  0  0  0  0  0  0  0  0  0  0  0
   21.7224  -17.8236  -14.2743 C   0  0  0  0  0  0  0  0  0  0  0  0
   20.9634  -18.4772  -13.3593 N   0  0  0  0  0  0  0  0  0  0  0  0
   21.0143  -19.7930  -13.6036 C   0  0  0  0  0  0  0  0  0  0  0  0
   21.8040  -19.9686  -14.6706 N   0  0  0  0  0  0  0  0  0  0  0  0
   24.9231  -19.7750  -15.2440 C   0  0  0  0  0  0  0  0  0  0  0  0
   25.1991  -20.7137  -16.0400 O   0  0  0  0  0  0  0  0  0  0  0  0
   24.9496  -20.0738  -13.8560 N   0  0  0  0  0  0  0  0  0  0  0  0
   25.3258  -21.3761  -13.3198 C   0  0  1  0  0  0  0  0  0  0  0  0
   26.5302  -21.2992  -12.4540 C   0  0  0  0  0  0  0  0  0  0  0  0
   26.2466  -20.7678  -11.1082 C   0  0  0  0  0  0  0  0  0  0  0  0
   26.2094  -19.3815  -10.9241 C   0  0  0  0  0  0  0  0  0  0  0  0
   25.9232  -18.9251   -9.6627 C   0  0  0  0  0  0  0  0  0  0  0  0
   25.6715  -19.7237   -8.5714 C   0  0  0  0  0  0  0  0  0  0  0  0
   25.7131  -21.0880   -8.7749 C   0  0  0  0  0  0  0  0  0  0  0  0
   25.9950  -21.6109  -10.0186 C   0  0  0  0  0  0  0  0  0  0  0  0
   24.1858  -22.0376  -12.6565 C   0  0  0  0  0  0  0  0  0  0  0  0
   24.3508  -23.2557  -12.3056 O   0  0  0  0  0  0  0  0  0  0  0  0
   23.0020  -21.4110  -12.4128 O   0  0  0  0  0  0  0  0  0  0  0  0
  1  2  1  0
  2  3  1  0
  3  4  1  1
  3  5  1  0
  5  6  2  0
  7  5  1  0
  7  8  1  0
  8  9  1  6
  9 10  1  0
 10 14  1  0
 11 12  1  0
 11 10  2  0
 12 13  1  0
 13 14  2  0
 15  8  1  0
 15 16  2  0
 17 15  1  0
 18 17  1  0
 18 19  1  1
 20 19  1  0
 21 20  2  0
 22 21  1  0
 23 24  1  0
 23 22  2  0
 24 25  2  0
 25 20  1  0
 26 18  1  0
 27 26  2  0
 28 26  1  0
M  END
$$$$
