SHF.pdb
     RDKit          3D

 28 29  0  0  1  0  0  0  0  0999 V2000
   26.2926  -17.6632  -15.2028 O   0  0  0  0  0  0  0  0  0  0  0  0
   27.5158  -18.3264  -15.2540 C   0  0  0  0  0  0  0  0  0  0  0  0
   27.6194  -19.1365  -16.5211 C   0  0  2  0  0  0  0  0  0  0  0  0
   27.4499  -18.2654  -17.6531 N   0  0  0  0  0  0  0  0  0  0  0  0
   26.6808  -20.2658  -16.5128 C   0  0  0  0  0  0  0  0  0  0  0  0
   25.7055  -20.2597  -17.2993 O   0  0  0  0  0  0  0  0  0  0  0  0
   26.8335  -21.3641  -15.6502 N   0  0  0  0  0  0  0  0  0  0  0  0
   25.8724  -22.4604  -15.5787 C   0  0  1  0  0  0  0  0  0  0  0  0
   26.6345  -23.7623  -15.4216 C   0  0  0  0  0  0  0  0  0  0  0  0
   27.2109  -24.1765  -16.7145 C   0  0  0  0  0  0  0  0  0  0  0  0
   27.0300  -23.5466  -17.9041 C   0  0  0  0  0  0  0  0  0  0  0  0
   27.7247  -24.2398  -18.8407 N   0  0  0  0  0  0  0  0  0  0  0  0
   28.3302  -25.2826  -18.2582 C   0  0  0  0  0  0  0  0  0  0  0  0
   28.0178  -25.2469  -16.9566 N   0  0  0  0  0  0  0  0  0  0  0  0
   25.0456  -22.2985  -14.3522 C   0  0  0  0  0  0  0  0  0  0  0  0
   25.5549  -22.5376  -13.2233 O   0  0  0  0  0  0  0  0  0  0  0  0
   23.6881  -21.8820  -14.3752 N   0  0  0  0  0  0  0  0  0  0  0  0
   23.0025  -21.3077  -13.2241 C   0  0  1  0  0  0  0  0  0  0  0  0
   23.6457  -20.0529  -12.7571 C   0  0  0  0  0  0  0  0  0  0  0  0
   24.3903  -20.2154  -11.4949 C   0  0  0  0  0  0  0  0  0  0  0  0
   23.6857  -20.1836  -10.2868 C   0  0  0  0  0  0  0  0  0  0  0  0
   24.4099  -20.3578   -9.1351 C   0  0  0  0  0  0  0  0  0  0  0  0
   25.7692  -20.5604   -9.0792 C   0  0  0  0  0  0  0  0  0  0  0  0
   26.4449  -20.5884  -10.2821 C   0  0  0  0  0  0  0  0  0  0  0  0
   25.7757  -20.4197  -11.4751 C   0  0  0  0  0  0  0  0  0  0  0  0
   21.5578  -21.1494  -13.4787 C   0  0  0  0  0  0  0  0  0  0  0  0
   21.2037  -20.9606  -14.6925 O   0  0  0  0  0  0  0  0  0  0  0  0
   20.6197  -21.1982  -12.4934 O   0  0  0  0  0  0  0  0  0  0  0  0
  1  2  1  0
  2  3  1  0
  3  4  1  6
  3  5  1  0
  5  6  2  0
  7  5  1  0
  7  8  1  0
  8  9  1  1
  9 10  1  0
 10 14  1  0
 11 12  1  0
 11 10  2  0
 12 13  1  0
 13 14  2  0
 15  8  1  0
 15 16  2  0
 17 15  1  0
 18 17  1  0
 18 19  1  6
 20 19  1  0
 21 20  2  0
 22 21  1  0
 23 24  1  0
 23 22  2  0
 24 25  2  0
 25 20  1  0
 26 18  1  0
 27 26  2  0
 28 26  1  0
M  END
$$$$
