KSV.pdb
     RDKit          3D

 23 22  0  0  1  0  0  0  0  0999 V2000
    6.6968  -15.3433   20.1591 N   0  0  0  0  0  0  0  0  0  0  0  0
    7.7666  -14.7335   20.9203 C   0  0  1  0  0  0  0  0  0  0  0  0
    7.8671  -13.2493   20.6450 C   0  0  0  0  0  0  0  0  0  0  0  0
    8.8270  -12.9403   19.5284 C   0  0  0  0  0  0  0  0  0  0  0  0
   10.2049  -13.4890   19.7491 C   0  0  0  0  0  0  0  0  0  0  0  0
   11.1014  -13.1719   18.5707 C   0  0  0  0  0  0  0  0  0  0  0  0
   12.4553  -13.6371   18.7816 N   0  0  0  0  0  0  0  0  0  0  0  0
    7.5251  -15.0159   22.3518 C   0  0  0  0  0  0  0  0  0  0  0  0
    6.7211  -14.3020   22.9903 O   0  0  0  0  0  0  0  0  0  0  0  0
    8.7329  -18.5351   24.2164 O   0  0  0  0  0  0  0  0  0  0  0  0
    7.6261  -17.7986   24.6145 C   0  0  0  0  0  0  0  0  0  0  0  0
    7.9951  -16.3193   24.4633 C   0  0  2  0  0  0  0  0  0  0  0  0
    8.1705  -16.0745   23.0504 N   0  0  0  0  0  0  0  0  0  0  0  0
    9.2108  -15.9967   25.2461 C   0  0  0  0  0  0  0  0  0  0  0  0
   10.3336  -16.0799   24.6992 O   0  0  0  0  0  0  0  0  0  0  0  0
    9.1273  -13.1182   27.9121 C   0  0  0  0  0  0  0  0  0  0  0  0
    9.7789  -14.3428   28.5066 C   0  0  1  0  0  0  0  0  0  0  0  0
    8.8260  -14.9499   29.5021 C   0  0  0  0  0  0  0  0  0  0  0  0
   10.2208  -15.3246   27.4552 C   0  0  2  0  0  0  0  0  0  0  0  0
    9.0835  -15.6004   26.5964 N   0  0  0  0  0  0  0  0  0  0  0  0
   10.7345  -16.5371   28.1086 C   0  0  0  0  0  0  0  0  0  0  0  0
   11.9705  -16.4716   28.7313 O   0  0  0  0  0  0  0  0  0  0  0  0
   10.1230  -17.6347   28.1395 O   0  0  0  0  0  0  0  0  0  0  0  0
  2  1  1  6
  2  8  1  0
  3  2  1  0
  4  5  1  0
  4  3  1  0
  5  6  1  0
  6  7  1  0
  8 13  1  0
  8  9  2  0
 10 11  1  0
 12 11  1  6
 12 14  1  0
 13 12  1  0
 14 20  1  0
 14 15  2  0
 17 16  1  6
 17 19  1  0
 17 18  1  0
 19 21  1  0
 19 20  1  6
 21 22  1  0
 23 21  2  0
M  END
$$$$
