KSV.pdb
     RDKit          3D

 23 22  0  0  1  0  0  0  0  0999 V2000
   10.2569  -16.9966   19.9222 N   0  0  0  0  0  0  0  0  0  0  0  0
    9.2174  -17.2498   20.8975 C   0  0  1  0  0  0  0  0  0  0  0  0
    9.2371  -18.6873   21.3687 C   0  0  0  0  0  0  0  0  0  0  0  0
    9.2308  -19.6628   20.2232 C   0  0  0  0  0  0  0  0  0  0  0  0
    9.0954  -21.0936   20.6511 C   0  0  0  0  0  0  0  0  0  0  0  0
    9.1053  -22.0140   19.4487 C   0  0  0  0  0  0  0  0  0  0  0  0
   10.2448  -21.7699   18.5911 N   0  0  0  0  0  0  0  0  0  0  0  0
    9.4000  -16.2984   22.0149 C   0  0  0  0  0  0  0  0  0  0  0  0
   10.5252  -15.7880   22.2077 O   0  0  0  0  0  0  0  0  0  0  0  0
    6.3709  -15.5852   24.7625 O   0  0  0  0  0  0  0  0  0  0  0  0
    7.1124  -14.4868   24.3507 C   0  0  0  0  0  0  0  0  0  0  0  0
    8.5101  -15.0004   23.9902 C   0  0  2  0  0  0  0  0  0  0  0  0
    8.3449  -15.9283   22.8954 N   0  0  0  0  0  0  0  0  0  0  0  0
    9.1614  -15.6253   25.1649 C   0  0  0  0  0  0  0  0  0  0  0  0
    9.1746  -16.8727   25.2687 O   0  0  0  0  0  0  0  0  0  0  0  0
    9.2413  -13.6356   28.7091 C   0  0  0  0  0  0  0  0  0  0  0  0
   10.5780  -14.2147   28.3148 C   0  0  1  0  0  0  0  0  0  0  0  0
   11.2962  -14.6431   29.5671 C   0  0  0  0  0  0  0  0  0  0  0  0
   10.4466  -15.3296   27.3127 C   0  0  2  0  0  0  0  0  0  0  0  0
    9.7567  -14.8042   26.1486 N   0  0  0  0  0  0  0  0  0  0  0  0
    9.7268  -16.4536   27.9286 C   0  0  0  0  0  0  0  0  0  0  0  0
   10.4600  -17.3890   28.6410 O   0  0  0  0  0  0  0  0  0  0  0  0
    8.4838  -16.6226   27.8510 O   0  0  0  0  0  0  0  0  0  0  0  0
  2  1  1  6
  2  8  1  0
  3  2  1  0
  4  5  1  0
  4  3  1  0
  5  6  1  0
  6  7  1  0
  8 13  1  0
  8  9  2  0
 10 11  1  0
 12 11  1  1
 12 14  1  0
 13 12  1  0
 14 20  1  0
 14 15  2  0
 17 16  1  1
 17 19  1  0
 17 18  1  0
 19 21  1  0
 19 20  1  6
 21 22  1  0
 23 21  2  0
M  END
$$$$
