KSV.pdb
     RDKit          3D

 23 22  0  0  1  0  0  0  0  0999 V2000
    6.2291  -19.4660   20.6387 N   0  0  0  0  0  0  0  0  0  0  0  0
    7.3384  -18.7769   21.2636 C   0  0  1  0  0  0  0  0  0  0  0  0
    8.1133  -17.9500   20.2613 C   0  0  0  0  0  0  0  0  0  0  0  0
    8.5701  -18.7647   19.0818 C   0  0  0  0  0  0  0  0  0  0  0  0
    9.3635  -17.9811   18.0793 C   0  0  0  0  0  0  0  0  0  0  0  0
    9.6566  -18.8221   16.8547 C   0  0  0  0  0  0  0  0  0  0  0  0
   10.3458  -18.0651   15.8321 N   0  0  0  0  0  0  0  0  0  0  0  0
    6.7987  -17.9498   22.3644 C   0  0  0  0  0  0  0  0  0  0  0  0
    5.7692  -17.2669   22.1701 O   0  0  0  0  0  0  0  0  0  0  0  0
    7.8971  -18.5619   26.2121 O   0  0  0  0  0  0  0  0  0  0  0  0
    6.6900  -17.9356   25.9353 C   0  0  0  0  0  0  0  0  0  0  0  0
    6.9214  -17.0371   24.7161 C   0  0  2  0  0  0  0  0  0  0  0  0
    7.3999  -17.8902   23.6530 N   0  0  0  0  0  0  0  0  0  0  0  0
    7.8736  -15.9485   25.0367 C   0  0  0  0  0  0  0  0  0  0  0  0
    9.0901  -16.1025   24.7848 O   0  0  0  0  0  0  0  0  0  0  0  0
    7.0829  -11.9826   24.7404 C   0  0  0  0  0  0  0  0  0  0  0  0
    7.4847  -12.4204   26.1277 C   0  0  1  0  0  0  0  0  0  0  0  0
    6.2434  -12.5024   26.9763 C   0  0  0  0  0  0  0  0  0  0  0  0
    8.2660  -13.7066   26.1192 C   0  0  2  0  0  0  0  0  0  0  0  0
    7.3941  -14.7548   25.6211 N   0  0  0  0  0  0  0  0  0  0  0  0
    8.7564  -13.9857   27.4765 C   0  0  0  0  0  0  0  0  0  0  0  0
    9.7432  -13.1647   27.9978 O   0  0  0  0  0  0  0  0  0  0  0  0
    8.3371  -14.9250   28.1987 O   0  0  0  0  0  0  0  0  0  0  0  0
  2  1  1  6
  2  8  1  0
  3  2  1  0
  4  5  1  0
  4  3  1  0
  5  6  1  0
  6  7  1  0
  8 13  1  0
  8  9  2  0
 10 11  1  0
 12 11  1  1
 12 14  1  0
 13 12  1  0
 14 20  1  0
 14 15  2  0
 17 16  1  6
 17 19  1  0
 17 18  1  0
 19 21  1  0
 19 20  1  1
 21 22  1  0
 23 21  2  0
M  END
$$$$
