KSV.pdb
     RDKit          3D

 23 22  0  0  1  0  0  0  0  0999 V2000
    8.1999  -15.7461   19.4069 N   0  0  0  0  0  0  0  0  0  0  0  0
    7.9923  -14.4357   19.9863 C   0  0  1  0  0  0  0  0  0  0  0  0
    6.9743  -13.6374   19.2020 C   0  0  0  0  0  0  0  0  0  0  0  0
    7.2003  -13.7275   17.7172 C   0  0  0  0  0  0  0  0  0  0  0  0
    8.6438  -13.8631   17.3346 C   0  0  0  0  0  0  0  0  0  0  0  0
    8.8039  -13.8209   15.8295 C   0  0  0  0  0  0  0  0  0  0  0  0
   10.1875  -13.9595   15.4294 N   0  0  0  0  0  0  0  0  0  0  0  0
    7.5841  -14.6206   21.3957 C   0  0  0  0  0  0  0  0  0  0  0  0
    7.0865  -13.6588   22.0211 O   0  0  0  0  0  0  0  0  0  0  0  0
    8.8017  -17.8531   23.8604 O   0  0  0  0  0  0  0  0  0  0  0  0
    7.4525  -17.5455   23.7553 C   0  0  0  0  0  0  0  0  0  0  0  0
    7.3569  -16.0433   23.4701 C   0  0  2  0  0  0  0  0  0  0  0  0
    7.7308  -15.8558   22.0873 N   0  0  0  0  0  0  0  0  0  0  0  0
    8.2206  -15.2748   24.3964 C   0  0  0  0  0  0  0  0  0  0  0  0
    9.4427  -15.1656   24.1486 O   0  0  0  0  0  0  0  0  0  0  0  0
    6.8794  -11.9056   25.9137 C   0  0  0  0  0  0  0  0  0  0  0  0
    7.4514  -12.7892   26.9953 C   0  0  1  0  0  0  0  0  0  0  0  0
    6.3079  -13.3983   27.7629 C   0  0  0  0  0  0  0  0  0  0  0  0
    8.3982  -13.8237   26.4494 C   0  0  2  0  0  0  0  0  0  0  0  0
    7.6517  -14.6779   25.5438 N   0  0  0  0  0  0  0  0  0  0  0  0
    8.9916  -14.5753   27.5647 C   0  0  0  0  0  0  0  0  0  0  0  0
    9.9127  -13.9288   28.3731 O   0  0  0  0  0  0  0  0  0  0  0  0
    8.7169  -15.7717   27.8343 O   0  0  0  0  0  0  0  0  0  0  0  0
  2  1  1  6
  2  8  1  0
  3  2  1  0
  4  5  1  0
  4  3  1  0
  5  6  1  0
  6  7  1  0
  8 13  1  0
  8  9  2  0
 10 11  1  0
 12 11  1  1
 12 14  1  0
 13 12  1  0
 14 20  1  0
 14 15  2  0
 17 16  1  6
 17 19  1  0
 17 18  1  0
 19 21  1  0
 19 20  1  6
 21 22  1  0
 23 21  2  0
M  END
$$$$
