KSV.pdb
     RDKit          3D

 23 22  0  0  1  0  0  0  0  0999 V2000
    8.9871  -17.6156   19.6353 N   0  0  0  0  0  0  0  0  0  0  0  0
    9.7531  -16.6277   20.3655 C   0  0  1  0  0  0  0  0  0  0  0  0
    9.9213  -15.3543   19.5663 C   0  0  0  0  0  0  0  0  0  0  0  0
    8.6802  -14.9977   18.7942 C   0  0  0  0  0  0  0  0  0  0  0  0
    8.8141  -13.7429   17.9844 C   0  0  0  0  0  0  0  0  0  0  0  0
    7.5385  -13.4628   17.2180 C   0  0  0  0  0  0  0  0  0  0  0  0
    6.8612  -12.2824   17.7098 N   0  0  0  0  0  0  0  0  0  0  0  0
    9.0715  -16.3857   21.6556 C   0  0  0  0  0  0  0  0  0  0  0  0
    7.9620  -15.8090   21.6639 O   0  0  0  0  0  0  0  0  0  0  0  0
    6.8419  -17.6561   24.6634 O   0  0  0  0  0  0  0  0  0  0  0  0
    8.1556  -17.9857   24.3610 C   0  0  0  0  0  0  0  0  0  0  0  0
    8.9124  -16.6688   24.1602 C   0  0  2  0  0  0  0  0  0  0  0  0
    9.6220  -16.7815   22.9069 N   0  0  0  0  0  0  0  0  0  0  0  0
    9.8207  -16.4037   25.3000 C   0  0  0  0  0  0  0  0  0  0  0  0
   10.9099  -17.0163   25.3729 O   0  0  0  0  0  0  0  0  0  0  0  0
    8.2074  -14.2127   28.5253 C   0  0  0  0  0  0  0  0  0  0  0  0
    9.6471  -13.9720   28.1421 C   0  0  1  0  0  0  0  0  0  0  0  0
   10.4057  -13.5710   29.3796 C   0  0  0  0  0  0  0  0  0  0  0  0
   10.2606  -15.1564   27.4454 C   0  0  2  0  0  0  0  0  0  0  0  0
    9.4437  -15.4643   26.2858 N   0  0  0  0  0  0  0  0  0  0  0  0
   10.3434  -16.2834   28.3856 C   0  0  0  0  0  0  0  0  0  0  0  0
   11.4661  -16.3825   29.1916 O   0  0  0  0  0  0  0  0  0  0  0  0
    9.4581  -17.1672   28.5069 O   0  0  0  0  0  0  0  0  0  0  0  0
  2  1  1  6
  2  8  1  0
  3  2  1  0
  4  5  1  0
  4  3  1  0
  5  6  1  0
  6  7  1  0
  8 13  1  0
  8  9  2  0
 10 11  1  0
 12 11  1  1
 12 14  1  0
 13 12  1  0
 14 20  1  0
 14 15  2  0
 17 16  1  1
 17 19  1  0
 17 18  1  0
 19 21  1  0
 19 20  1  6
 21 22  1  0
 23 21  2  0
M  END
$$$$
