KSV.pdb
     RDKit          3D

 23 22  0  0  1  0  0  0  0  0999 V2000
    5.7077  -16.9677   20.7539 N   0  0  0  0  0  0  0  0  0  0  0  0
    6.6651  -16.1314   21.4465 C   0  0  1  0  0  0  0  0  0  0  0  0
    6.3779  -14.6621   21.2288 C   0  0  0  0  0  0  0  0  0  0  0  0
    6.8610  -14.1793   19.8882 C   0  0  0  0  0  0  0  0  0  0  0  0
    8.2046  -13.5153   19.9353 C   0  0  0  0  0  0  0  0  0  0  0  0
    8.5696  -12.9510   18.5783 C   0  0  0  0  0  0  0  0  0  0  0  0
    9.8473  -12.2723   18.6016 N   0  0  0  0  0  0  0  0  0  0  0  0
    6.6343  -16.4950   22.8797 C   0  0  0  0  0  0  0  0  0  0  0  0
    5.5670  -16.3742   23.5200 O   0  0  0  0  0  0  0  0  0  0  0  0
    8.9145  -19.1952   24.7489 O   0  0  0  0  0  0  0  0  0  0  0  0
    7.7734  -18.6350   25.3059 C   0  0  0  0  0  0  0  0  0  0  0  0
    7.8248  -17.1319   25.0142 C   0  0  2  0  0  0  0  0  0  0  0  0
    7.7744  -16.9829   23.5781 N   0  0  0  0  0  0  0  0  0  0  0  0
    9.0405  -16.5221   25.6015 C   0  0  0  0  0  0  0  0  0  0  0  0
   10.0579  -16.3713   24.8881 O   0  0  0  0  0  0  0  0  0  0  0  0
    8.8687  -13.3119   27.4671 C   0  0  0  0  0  0  0  0  0  0  0  0
    9.6183  -14.2740   28.3560 C   0  0  1  0  0  0  0  0  0  0  0  0
    8.7123  -14.6747   29.4901 C   0  0  0  0  0  0  0  0  0  0  0  0
   10.1534  -15.4579   27.5967 C   0  0  2  0  0  0  0  0  0  0  0  0
    9.0321  -16.1209   26.9562 N   0  0  0  0  0  0  0  0  0  0  0  0
   10.8718  -16.3446   28.5233 C   0  0  0  0  0  0  0  0  0  0  0  0
   12.0710  -15.9008   29.0569 O   0  0  0  0  0  0  0  0  0  0  0  0
   10.4674  -17.4845   28.8650 O   0  0  0  0  0  0  0  0  0  0  0  0
  2  1  1  6
  2  8  1  0
  3  2  1  0
  4  5  1  0
  4  3  1  0
  5  6  1  0
  6  7  1  0
  8 13  1  0
  8  9  2  0
 10 11  1  0
 12 11  1  6
 12 14  1  0
 13 12  1  0
 14 20  1  0
 14 15  2  0
 17 16  1  6
 17 19  1  0
 17 18  1  0
 19 21  1  0
 19 20  1  1
 21 22  1  0
 23 21  2  0
M  END
$$$$
