KSV.pdb
     RDKit          3D

 23 22  0  0  1  0  0  0  0  0999 V2000
    8.4970  -16.7454   19.1125 N   0  0  0  0  0  0  0  0  0  0  0  0
    9.2789  -16.4619   20.2974 C   0  0  1  0  0  0  0  0  0  0  0  0
   10.2615  -15.3369   20.0575 C   0  0  0  0  0  0  0  0  0  0  0  0
   11.4852  -15.7977   19.3134 C   0  0  0  0  0  0  0  0  0  0  0  0
   12.5438  -14.7438   19.1834 C   0  0  0  0  0  0  0  0  0  0  0  0
   13.8155  -15.3318   18.6088 C   0  0  0  0  0  0  0  0  0  0  0  0
   14.8670  -14.3435   18.5014 N   0  0  0  0  0  0  0  0  0  0  0  0
    8.3411  -16.1525   21.3984 C   0  0  0  0  0  0  0  0  0  0  0  0
    7.3896  -15.3681   21.1910 O   0  0  0  0  0  0  0  0  0  0  0  0
    8.3829  -18.1959   25.0205 O   0  0  0  0  0  0  0  0  0  0  0  0
    7.2229  -17.6106   24.5329 C   0  0  0  0  0  0  0  0  0  0  0  0
    7.6387  -16.3207   23.8185 C   0  0  2  0  0  0  0  0  0  0  0  0
    8.4680  -16.7102   22.7016 N   0  0  0  0  0  0  0  0  0  0  0  0
    8.3400  -15.4055   24.7487 C   0  0  0  0  0  0  0  0  0  0  0  0
    9.5901  -15.4299   24.8085 O   0  0  0  0  0  0  0  0  0  0  0  0
    6.7631  -11.7526   25.7074 C   0  0  0  0  0  0  0  0  0  0  0  0
    7.1677  -12.5887   26.8969 C   0  0  1  0  0  0  0  0  0  0  0  0
    5.9226  -13.1723   27.5108 C   0  0  0  0  0  0  0  0  0  0  0  0
    8.1842  -13.6394   26.5399 C   0  0  2  0  0  0  0  0  0  0  0  0
    7.5873  -14.5204   25.5528 N   0  0  0  0  0  0  0  0  0  0  0  0
    8.5886  -14.3571   27.7575 C   0  0  0  0  0  0  0  0  0  0  0  0
    9.3550  -13.6801   28.6924 O   0  0  0  0  0  0  0  0  0  0  0  0
    8.2832  -15.5504   28.0071 O   0  0  0  0  0  0  0  0  0  0  0  0
  2  1  1  6
  2  8  1  0
  3  2  1  0
  4  5  1  0
  4  3  1  0
  5  6  1  0
  6  7  1  0
  8 13  1  0
  8  9  2  0
 10 11  1  0
 12 11  1  1
 12 14  1  0
 13 12  1  0
 14 20  1  0
 14 15  2  0
 17 16  1  6
 17 19  1  0
 17 18  1  0
 19 21  1  0
 19 20  1  6
 21 22  1  0
 23 21  2  0
M  END
$$$$
