KSV.pdb
     RDKit          3D

 23 22  0  0  1  0  0  0  0  0999 V2000
    9.4594  -15.7606   19.5148 N   0  0  0  0  0  0  0  0  0  0  0  0
    8.8333  -14.5114   19.8936 C   0  0  1  0  0  0  0  0  0  0  0  0
    7.8268  -14.0592   18.8587 C   0  0  0  0  0  0  0  0  0  0  0  0
    8.2339  -14.4426   17.4619 C   0  0  0  0  0  0  0  0  0  0  0  0
    7.6159  -13.5860   16.3976 C   0  0  0  0  0  0  0  0  0  0  0  0
    7.9114  -14.1462   15.0222 C   0  0  0  0  0  0  0  0  0  0  0  0
    7.2255  -13.4118   13.9811 N   0  0  0  0  0  0  0  0  0  0  0  0
    8.2141  -14.6975   21.2237 C   0  0  0  0  0  0  0  0  0  0  0  0
    7.5475  -13.7659   21.7254 O   0  0  0  0  0  0  0  0  0  0  0  0
    7.4197  -17.7235   24.9247 O   0  0  0  0  0  0  0  0  0  0  0  0
    8.0244  -17.5343   23.6900 C   0  0  0  0  0  0  0  0  0  0  0  0
    7.8118  -16.0660   23.3080 C   0  0  2  0  0  0  0  0  0  0  0  0
    8.3399  -15.9006   21.9735 N   0  0  0  0  0  0  0  0  0  0  0  0
    8.4645  -15.1666   24.2875 C   0  0  0  0  0  0  0  0  0  0  0  0
    9.6956  -14.9564   24.2032 O   0  0  0  0  0  0  0  0  0  0  0  0
    7.0945  -11.6787   25.5776 C   0  0  0  0  0  0  0  0  0  0  0  0
    7.2681  -12.6703   26.7020 C   0  0  1  0  0  0  0  0  0  0  0  0
    5.9126  -13.2166   27.0649 C   0  0  0  0  0  0  0  0  0  0  0  0
    8.2570  -13.7531   26.3638 C   0  0  2  0  0  0  0  0  0  0  0  0
    7.6878  -14.5608   25.3006 N   0  0  0  0  0  0  0  0  0  0  0  0
    8.5456  -14.5411   27.5708 C   0  0  0  0  0  0  0  0  0  0  0  0
    8.2007  -15.8831   27.5744 O   0  0  0  0  0  0  0  0  0  0  0  0
    9.0873  -14.0751   28.6046 O   0  0  0  0  0  0  0  0  0  0  0  0
  2  1  1  6
  2  8  1  0
  3  2  1  0
  4  5  1  0
  4  3  1  0
  5  6  1  0
  6  7  1  0
  8 13  1  0
  8  9  2  0
 10 11  1  0
 12 11  1  1
 12 14  1  0
 13 12  1  0
 14 20  1  0
 14 15  2  0
 17 16  1  6
 17 19  1  0
 17 18  1  0
 19 21  1  0
 19 20  1  6
 21 22  1  0
 23 21  2  0
M  END
$$$$
