KSV.pdb
     RDKit          3D

 23 22  0  0  1  0  0  0  0  0999 V2000
    7.2067  -17.6120   19.0922 N   0  0  0  0  0  0  0  0  0  0  0  0
    8.0465  -16.7384   19.8844 C   0  0  1  0  0  0  0  0  0  0  0  0
    8.1151  -15.3481   19.2921 C   0  0  0  0  0  0  0  0  0  0  0  0
    8.2246  -15.3723   17.7917 C   0  0  0  0  0  0  0  0  0  0  0  0
    8.2716  -14.0092   17.1689 C   0  0  0  0  0  0  0  0  0  0  0  0
    8.3462  -14.1133   15.6600 C   0  0  0  0  0  0  0  0  0  0  0  0
    8.4747  -12.8148   15.0347 N   0  0  0  0  0  0  0  0  0  0  0  0
    7.5164  -16.7265   21.2650 C   0  0  0  0  0  0  0  0  0  0  0  0
    6.2801  -16.6795   21.4467 O   0  0  0  0  0  0  0  0  0  0  0  0
    7.7927  -17.8177   25.8019 O   0  0  0  0  0  0  0  0  0  0  0  0
    8.2883  -17.9169   24.5094 C   0  0  0  0  0  0  0  0  0  0  0  0
    7.8571  -16.6484   23.7663 C   0  0  2  0  0  0  0  0  0  0  0  0
    8.3540  -16.7664   22.4150 N   0  0  0  0  0  0  0  0  0  0  0  0
    8.3673  -15.4375   24.4504 C   0  0  0  0  0  0  0  0  0  0  0  0
    9.5544  -15.0841   24.2697 O   0  0  0  0  0  0  0  0  0  0  0  0
    5.5970  -13.1723   26.8733 C   0  0  0  0  0  0  0  0  0  0  0  0
    6.7564  -12.5823   26.1082 C   0  0  1  0  0  0  0  0  0  0  0  0
    7.1146  -11.2612   26.7358 C   0  0  0  0  0  0  0  0  0  0  0  0
    7.9288  -13.5224   26.0291 C   0  0  2  0  0  0  0  0  0  0  0  0
    7.5065  -14.7015   25.2953 N   0  0  0  0  0  0  0  0  0  0  0  0
    8.3854  -13.8444   27.3888 C   0  0  0  0  0  0  0  0  0  0  0  0
    9.0702  -12.8702   28.0973 O   0  0  0  0  0  0  0  0  0  0  0  0
    8.1944  -14.9508   27.9535 O   0  0  0  0  0  0  0  0  0  0  0  0
  2  1  1  6
  2  8  1  0
  3  2  1  0
  4  5  1  0
  4  3  1  0
  5  6  1  0
  6  7  1  0
  8 13  1  0
  8  9  2  0
 10 11  1  0
 12 11  1  1
 12 14  1  0
 13 12  1  0
 14 20  1  0
 14 15  2  0
 17 16  1  1
 17 19  1  0
 17 18  1  0
 19 21  1  0
 19 20  1  1
 21 22  1  0
 23 21  2  0
M  END
$$$$
