KSV.pdb
     RDKit          3D

 23 22  0  0  1  0  0  0  0  0999 V2000
   12.1116  -16.5658   20.4855 N   0  0  0  0  0  0  0  0  0  0  0  0
   10.7637  -17.0335   20.7309 C   0  0  1  0  0  0  0  0  0  0  0  0
   10.7604  -18.3522   21.4722 C   0  0  0  0  0  0  0  0  0  0  0  0
   11.6385  -18.3219   22.6935 C   0  0  0  0  0  0  0  0  0  0  0  0
   11.8029  -19.6595   23.3508 C   0  0  0  0  0  0  0  0  0  0  0  0
   12.7070  -19.5528   24.5609 C   0  0  0  0  0  0  0  0  0  0  0  0
   11.9678  -19.6704   25.7993 N   0  0  0  0  0  0  0  0  0  0  0  0
   10.0441  -15.9778   21.4758 C   0  0  0  0  0  0  0  0  0  0  0  0
   10.6976  -15.0866   22.0611 O   0  0  0  0  0  0  0  0  0  0  0  0
    6.0134  -16.2797   22.1425 O   0  0  0  0  0  0  0  0  0  0  0  0
    6.4435  -14.9909   21.8594 C   0  0  0  0  0  0  0  0  0  0  0  0
    7.9100  -14.9031   22.2939 C   0  0  2  0  0  0  0  0  0  0  0  0
    8.6246  -15.9233   21.5621 N   0  0  0  0  0  0  0  0  0  0  0  0
    8.0362  -15.0692   23.7606 C   0  0  0  0  0  0  0  0  0  0  0  0
    8.4524  -16.1558   24.2221 O   0  0  0  0  0  0  0  0  0  0  0  0
    7.9198  -11.5911   26.1314 C   0  0  0  0  0  0  0  0  0  0  0  0
    7.1755  -12.8083   26.6232 C   0  0  1  0  0  0  0  0  0  0  0  0
    5.7138  -12.6285   26.3089 C   0  0  0  0  0  0  0  0  0  0  0  0
    7.7350  -14.0878   26.0623 C   0  0  2  0  0  0  0  0  0  0  0  0
    7.6849  -13.9996   24.6143 N   0  0  0  0  0  0  0  0  0  0  0  0
    6.9600  -15.2246   26.5799 C   0  0  0  0  0  0  0  0  0  0  0  0
    7.2191  -15.6607   27.8694 O   0  0  0  0  0  0  0  0  0  0  0  0
    6.0735  -15.8299   25.9263 O   0  0  0  0  0  0  0  0  0  0  0  0
  2  1  1  1
  2  8  1  0
  3  2  1  0
  4  5  1  0
  4  3  1  0
  5  6  1  0
  6  7  1  0
  8 13  1  0
  8  9  2  0
 10 11  1  0
 12 11  1  1
 12 14  1  0
 13 12  1  0
 14 20  1  0
 14 15  2  0
 17 16  1  6
 17 19  1  0
 17 18  1  0
 19 21  1  0
 19 20  1  6
 21 22  1  0
 23 21  2  0
M  END
$$$$
