KSV.pdb
     RDKit          3D

 23 22  0  0  1  0  0  0  0  0999 V2000
    8.7537  -16.6064   20.8094 N   0  0  0  0  0  0  0  0  0  0  0  0
    9.0621  -15.3014   21.3551 C   0  0  1  0  0  0  0  0  0  0  0  0
    8.3377  -14.2028   20.6088 C   0  0  0  0  0  0  0  0  0  0  0  0
    8.3393  -14.4272   19.1211 C   0  0  0  0  0  0  0  0  0  0  0  0
    7.6496  -13.3436   18.3475 C   0  0  0  0  0  0  0  0  0  0  0  0
    7.6647  -13.6528   16.8652 C   0  0  0  0  0  0  0  0  0  0  0  0
    6.9458  -12.6581   16.0987 N   0  0  0  0  0  0  0  0  0  0  0  0
    8.7155  -15.3156   22.7928 C   0  0  0  0  0  0  0  0  0  0  0  0
    8.8645  -14.2747   23.4696 O   0  0  0  0  0  0  0  0  0  0  0  0
    7.9513  -18.8662   25.0105 O   0  0  0  0  0  0  0  0  0  0  0  0
    7.1014  -17.7748   25.1220 C   0  0  0  0  0  0  0  0  0  0  0  0
    7.9474  -16.5217   24.8746 C   0  0  2  0  0  0  0  0  0  0  0  0
    8.2136  -16.4707   23.4556 N   0  0  0  0  0  0  0  0  0  0  0  0
    9.1903  -16.5574   25.6799 C   0  0  0  0  0  0  0  0  0  0  0  0
   10.2449  -16.9906   25.1632 O   0  0  0  0  0  0  0  0  0  0  0  0
   10.2596  -13.6081   27.9265 C   0  0  0  0  0  0  0  0  0  0  0  0
   10.2781  -14.8775   28.7427 C   0  0  1  0  0  0  0  0  0  0  0  0
    9.0876  -14.8648   29.6647 C   0  0  0  0  0  0  0  0  0  0  0  0
   10.3310  -16.1112   27.8826 C   0  0  2  0  0  0  0  0  0  0  0  0
    9.1656  -16.1021   27.0173 N   0  0  0  0  0  0  0  0  0  0  0  0
   10.3781  -17.3017   28.7438 C   0  0  0  0  0  0  0  0  0  0  0  0
   11.5445  -17.5549   29.4474 O   0  0  0  0  0  0  0  0  0  0  0  0
    9.4250  -18.1087   28.8843 O   0  0  0  0  0  0  0  0  0  0  0  0
  2  1  1  6
  2  8  1  0
  3  2  1  0
  4  5  1  0
  4  3  1  0
  5  6  1  0
  6  7  1  0
  8 13  1  0
  8  9  2  0
 10 11  1  0
 12 11  1  6
 12 14  1  0
 13 12  1  0
 14 20  1  0
 14 15  2  0
 17 16  1  6
 17 19  1  0
 17 18  1  0
 19 21  1  0
 19 20  1  6
 21 22  1  0
 23 21  2  0
M  END
$$$$
