KSV.pdb
     RDKit          3D

 23 22  0  0  1  0  0  0  0  0999 V2000
    8.4625  -16.6384   20.5012 N   0  0  0  0  0  0  0  0  0  0  0  0
    8.9105  -15.3352   20.9450 C   0  0  1  0  0  0  0  0  0  0  0  0
    8.2617  -14.2248   20.1484 C   0  0  0  0  0  0  0  0  0  0  0  0
    8.5140  -14.3602   18.6713 C   0  0  0  0  0  0  0  0  0  0  0  0
    7.9195  -13.2522   17.8544 C   0  0  0  0  0  0  0  0  0  0  0  0
    8.2443  -13.4368   16.3870 C   0  0  0  0  0  0  0  0  0  0  0  0
    7.5544  -12.4738   15.5559 N   0  0  0  0  0  0  0  0  0  0  0  0
    8.6201  -15.2220   22.3907 C   0  0  0  0  0  0  0  0  0  0  0  0
    8.9213  -14.1700   22.9960 O   0  0  0  0  0  0  0  0  0  0  0  0
    7.5784  -18.5332   24.7305 O   0  0  0  0  0  0  0  0  0  0  0  0
    6.8613  -17.3617   24.9290 C   0  0  0  0  0  0  0  0  0  0  0  0
    7.7927  -16.2003   24.5672 C   0  0  2  0  0  0  0  0  0  0  0  0
    8.0061  -16.2648   23.1399 N   0  0  0  0  0  0  0  0  0  0  0  0
    9.0597  -16.2832   25.3305 C   0  0  0  0  0  0  0  0  0  0  0  0
   10.0884  -16.7212   24.7676 O   0  0  0  0  0  0  0  0  0  0  0  0
   10.0943  -13.4453   27.7214 C   0  0  0  0  0  0  0  0  0  0  0  0
   10.2519  -14.7581   28.4488 C   0  0  1  0  0  0  0  0  0  0  0  0
    9.1595  -14.8621   29.4800 C   0  0  0  0  0  0  0  0  0  0  0  0
   10.2757  -15.9343   27.5103 C   0  0  2  0  0  0  0  0  0  0  0  0
    9.0867  -15.8669   26.6805 N   0  0  0  0  0  0  0  0  0  0  0  0
   10.3420  -17.1776   28.2917 C   0  0  0  0  0  0  0  0  0  0  0  0
   11.5409  -17.5014   28.9063 O   0  0  0  0  0  0  0  0  0  0  0  0
    9.3778  -17.9700   28.4395 O   0  0  0  0  0  0  0  0  0  0  0  0
  2  1  1  6
  2  8  1  0
  3  2  1  0
  4  5  1  0
  4  3  1  0
  5  6  1  0
  6  7  1  0
  8 13  1  0
  8  9  2  0
 10 11  1  0
 12 11  1  1
 12 14  1  0
 13 12  1  0
 14 20  1  0
 14 15  2  0
 17 16  1  6
 17 19  1  0
 17 18  1  0
 19 21  1  0
 19 20  1  1
 21 22  1  0
 23 21  2  0
M  END
$$$$
