KSV.pdb
     RDKit          3D

 23 22  0  0  1  0  0  0  0  0999 V2000
    9.5312  -17.5668   19.4594 N   0  0  0  0  0  0  0  0  0  0  0  0
    9.8530  -17.7771   20.8552 C   0  0  1  0  0  0  0  0  0  0  0  0
   11.3179  -17.5195   21.1315 C   0  0  0  0  0  0  0  0  0  0  0  0
   12.1720  -18.7256   20.8496 C   0  0  0  0  0  0  0  0  0  0  0  0
   13.6379  -18.4875   21.0562 C   0  0  0  0  0  0  0  0  0  0  0  0
   14.4317  -19.7386   20.7435 C   0  0  0  0  0  0  0  0  0  0  0  0
   15.8539  -19.5321   20.9126 N   0  0  0  0  0  0  0  0  0  0  0  0
    8.9752  -16.9017   21.6616 C   0  0  0  0  0  0  0  0  0  0  0  0
    8.6952  -15.7582   21.2399 O   0  0  0  0  0  0  0  0  0  0  0  0
    7.2137  -18.2239   25.2158 O   0  0  0  0  0  0  0  0  0  0  0  0
    6.5194  -17.3870   24.3535 C   0  0  0  0  0  0  0  0  0  0  0  0
    7.5512  -16.4617   23.7006 C   0  0  2  0  0  0  0  0  0  0  0  0
    8.4245  -17.2999   22.9121 N   0  0  0  0  0  0  0  0  0  0  0  0
    8.2885  -15.6874   24.7260 C   0  0  0  0  0  0  0  0  0  0  0  0
    9.4302  -16.0627   25.0759 O   0  0  0  0  0  0  0  0  0  0  0  0
    7.6972  -11.6542   25.2582 C   0  0  0  0  0  0  0  0  0  0  0  0
    7.5577  -12.4858   26.5098 C   0  0  1  0  0  0  0  0  0  0  0  0
    6.0910  -12.6432   26.8124 C   0  0  0  0  0  0  0  0  0  0  0  0
    8.2717  -13.8063   26.4032 C   0  0  2  0  0  0  0  0  0  0  0  0
    7.6917  -14.5386   25.2922 N   0  0  0  0  0  0  0  0  0  0  0  0
    8.1457  -14.5304   27.6763 C   0  0  0  0  0  0  0  0  0  0  0  0
    8.8349  -14.0456   28.7762 O   0  0  0  0  0  0  0  0  0  0  0  0
    7.4503  -15.5654   27.8332 O   0  0  0  0  0  0  0  0  0  0  0  0
  2  1  1  6
  2  8  1  0
  3  2  1  0
  4  5  1  0
  4  3  1  0
  5  6  1  0
  6  7  1  0
  8 13  1  0
  8  9  2  0
 10 11  1  0
 12 11  1  1
 12 14  1  0
 13 12  1  0
 14 20  1  0
 14 15  2  0
 17 16  1  6
 17 19  1  0
 17 18  1  0
 19 21  1  0
 19 20  1  6
 21 22  1  0
 23 21  2  0
M  END
$$$$
