KSV.pdb
     RDKit          3D

 23 22  0  0  1  0  0  0  0  0999 V2000
    8.9157  -19.0132   18.8516 N   0  0  0  0  0  0  0  0  0  0  0  0
    8.6863  -17.6182   19.1633 C   0  0  1  0  0  0  0  0  0  0  0  0
    7.5902  -17.0304   18.3022 C   0  0  0  0  0  0  0  0  0  0  0  0
    7.5027  -17.6976   16.9565 C   0  0  0  0  0  0  0  0  0  0  0  0
    6.5345  -17.0396   16.0195 C   0  0  0  0  0  0  0  0  0  0  0  0
    6.4497  -17.8041   14.7151 C   0  0  0  0  0  0  0  0  0  0  0  0
    5.5770  -17.1521   13.7627 N   0  0  0  0  0  0  0  0  0  0  0  0
    8.3707  -17.5198   20.6048 C   0  0  0  0  0  0  0  0  0  0  0  0
    7.3029  -18.0094   21.0334 O   0  0  0  0  0  0  0  0  0  0  0  0
   11.2365  -17.2054   23.3078 O   0  0  0  0  0  0  0  0  0  0  0  0
    9.9846  -17.6837   23.6684 C   0  0  0  0  0  0  0  0  0  0  0  0
    8.9488  -16.8066   22.9577 C   0  0  2  0  0  0  0  0  0  0  0  0
    9.2330  -16.8867   21.5435 N   0  0  0  0  0  0  0  0  0  0  0  0
    8.9994  -15.4154   23.4644 C   0  0  0  0  0  0  0  0  0  0  0  0
    9.8125  -14.6076   22.9613 O   0  0  0  0  0  0  0  0  0  0  0  0
    5.8740  -14.0514   26.0007 C   0  0  0  0  0  0  0  0  0  0  0  0
    6.8296  -13.1587   25.2474 C   0  0  1  0  0  0  0  0  0  0  0  0
    6.8038  -11.7940   25.8833 C   0  0  0  0  0  0  0  0  0  0  0  0
    8.2171  -13.7369   25.1740 C   0  0  2  0  0  0  0  0  0  0  0  0
    8.1297  -15.0230   24.5066 N   0  0  0  0  0  0  0  0  0  0  0  0
    8.7690  -13.8485   26.5319 C   0  0  0  0  0  0  0  0  0  0  0  0
    9.1932  -12.6904   27.1633 O   0  0  0  0  0  0  0  0  0  0  0  0
    8.8817  -14.9308   27.1607 O   0  0  0  0  0  0  0  0  0  0  0  0
  2  1  1  6
  2  8  1  0
  3  2  1  0
  4  5  1  0
  4  3  1  0
  5  6  1  0
  6  7  1  0
  8 13  1  0
  8  9  2  0
 10 11  1  0
 12 11  1  1
 12 14  1  0
 13 12  1  0
 14 20  1  0
 14 15  2  0
 17 16  1  1
 17 19  1  0
 17 18  1  0
 19 21  1  0
 19 20  1  1
 21 22  1  0
 23 21  2  0
M  END
$$$$
