PGW.pdb
     RDKit          3D

 26 28  0  0  1  0  0  0  0  0999 V2000
    7.6893  -14.6728   18.5355 N   0  0  0  0  0  0  0  0  0  0  0  0
    7.4396  -13.4569   17.7783 C   0  0  0  0  0  0  0  0  0  0  0  0
    8.2436  -12.3631   18.4020 C   0  0  0  0  0  0  0  0  0  0  0  0
    8.7363  -13.0025   19.7001 C   0  0  0  0  0  0  0  0  0  0  0  0
    8.9215  -14.4318   19.2637 C   0  0  1  0  0  0  0  0  0  0  0  0
    9.0841  -15.3626   20.4077 C   0  0  0  0  0  0  0  0  0  0  0  0
   10.1543  -15.3506   21.1014 O   0  0  0  0  0  0  0  0  0  0  0  0
    8.1144  -16.3135   20.8253 N   0  0  0  0  0  0  0  0  0  0  0  0
    8.3552  -17.2088   21.9200 C   0  0  0  0  0  0  0  0  0  0  0  0
    9.1339  -16.5780   23.0142 C   0  0  0  0  0  0  0  0  0  0  0  0
    9.7842  -15.5371   22.7500 O   0  0  0  0  0  0  0  0  0  0  0  0
    9.1868  -17.0804   24.3380 N   0  0  0  0  0  0  0  0  0  0  0  0
    9.9920  -16.4647   25.4011 C   0  0  1  0  0  0  0  0  0  0  0  0
    9.6566  -15.0301   25.5653 C   0  0  0  0  0  0  0  0  0  0  0  0
    8.2345  -14.6844   25.7270 C   0  0  0  0  0  0  0  0  0  0  0  0
    7.1572  -15.5730   25.5693 C   0  0  0  0  0  0  0  0  0  0  0  0
    6.0027  -14.9186   25.7559 N   0  0  0  0  0  0  0  0  0  0  0  0
    6.3078  -13.6370   26.0293 C   0  0  0  0  0  0  0  0  0  0  0  0
    5.4916  -12.5610   26.3114 C   0  0  0  0  0  0  0  0  0  0  0  0
    6.0343  -11.3307   26.5798 C   0  0  0  0  0  0  0  0  0  0  0  0
    7.4084  -11.1497   26.5717 C   0  0  0  0  0  0  0  0  0  0  0  0
    8.2386  -12.2071   26.2926 C   0  0  0  0  0  0  0  0  0  0  0  0
    7.6770  -13.4410   26.0234 C   0  0  0  0  0  0  0  0  0  0  0  0
   10.0245  -17.2855   26.6083 C   0  0  0  0  0  0  0  0  0  0  0  0
   10.8842  -16.9661   27.6386 O   0  0  0  0  0  0  0  0  0  0  0  0
    9.2829  -18.2791   26.7266 O   0  0  0  0  0  0  0  0  0  0  0  0
  2  1  1  0
  3  4  1  0
  3  2  1  0
  4  5  1  0
  5  6  1  1
  5  1  1  0
  6  8  1  0
  7  6  2  0
  8  9  1  0
  9 10  1  0
 10 11  2  0
 10 12  1  0
 12 13  1  0
 13 24  1  0
 13 14  1  1
 15 14  1  0
 15 23  1  0
 16 17  1  0
 16 15  2  0
 17 18  1  0
 18 19  2  0
 18 23  1  0
 19 20  1  0
 20 21  2  0
 22 21  1  0
 23 22  2  0
 24 26  2  0
 24 25  1  0
M  END
$$$$
