PGW.pdb
     RDKit          3D

 26 28  0  0  1  0  0  0  0  0999 V2000
    7.8529  -13.7688   21.0238 N   0  0  0  0  0  0  0  0  0  0  0  0
    7.1343  -12.8052   20.2057 C   0  0  0  0  0  0  0  0  0  0  0  0
    7.1109  -13.3287   18.8067 C   0  0  0  0  0  0  0  0  0  0  0  0
    8.0873  -14.5032   18.8679 C   0  0  0  0  0  0  0  0  0  0  0  0
    7.8435  -15.0066   20.2659 C   0  0  1  0  0  0  0  0  0  0  0  0
    8.8929  -15.9496   20.7254 C   0  0  0  0  0  0  0  0  0  0  0  0
    8.9204  -17.1469   20.2870 O   0  0  0  0  0  0  0  0  0  0  0  0
    9.9210  -15.6314   21.6533 N   0  0  0  0  0  0  0  0  0  0  0  0
   10.9512  -16.5703   21.9923 C   0  0  0  0  0  0  0  0  0  0  0  0
   11.0639  -16.7925   23.4549 C   0  0  0  0  0  0  0  0  0  0  0  0
   12.1589  -17.2108   23.9045 O   0  0  0  0  0  0  0  0  0  0  0  0
   10.0099  -16.5608   24.3732 N   0  0  0  0  0  0  0  0  0  0  0  0
   10.2218  -16.3975   25.8175 C   0  0  1  0  0  0  0  0  0  0  0  0
    9.8078  -15.0482   26.2710 C   0  0  0  0  0  0  0  0  0  0  0  0
    8.3862  -14.6943   26.1240 C   0  0  0  0  0  0  0  0  0  0  0  0
    7.3545  -15.5883   25.7901 C   0  0  0  0  0  0  0  0  0  0  0  0
    6.1929  -14.9252   25.7080 N   0  0  0  0  0  0  0  0  0  0  0  0
    6.4490  -13.6325   25.9801 C   0  0  0  0  0  0  0  0  0  0  0  0
    5.6034  -12.5441   26.0415 C   0  0  0  0  0  0  0  0  0  0  0  0
    6.0926  -11.3032   26.3594 C   0  0  0  0  0  0  0  0  0  0  0  0
    7.4414  -11.1239   26.6233 C   0  0  0  0  0  0  0  0  0  0  0  0
    8.3002  -12.1936   26.5669 C   0  0  0  0  0  0  0  0  0  0  0  0
    7.7927  -13.4382   26.2445 C   0  0  0  0  0  0  0  0  0  0  0  0
    9.7221  -17.5401   26.5769 C   0  0  0  0  0  0  0  0  0  0  0  0
   10.0778  -17.6999   27.8999 O   0  0  0  0  0  0  0  0  0  0  0  0
    8.9728  -18.3821   26.0469 O   0  0  0  0  0  0  0  0  0  0  0  0
  2  1  1  0
  3  4  1  0
  3  2  1  0
  4  5  1  0
  5  6  1  1
  5  1  1  0
  6  8  1  0
  7  6  2  0
  8  9  1  0
  9 10  1  0
 10 11  2  0
 10 12  1  0
 12 13  1  0
 13 24  1  0
 13 14  1  1
 15 14  1  0
 15 23  1  0
 16 17  1  0
 16 15  2  0
 17 18  1  0
 18 19  2  0
 18 23  1  0
 19 20  1  0
 20 21  2  0
 22 21  1  0
 23 22  2  0
 24 26  2  0
 24 25  1  0
M  END
$$$$
