PGW.pdb
     RDKit          3D

 26 28  0  0  1  0  0  0  0  0999 V2000
    8.6585  -14.8730   18.1054 N   0  0  0  0  0  0  0  0  0  0  0  0
    8.1839  -13.8753   17.1602 C   0  0  0  0  0  0  0  0  0  0  0  0
    7.6113  -12.7427   17.9483 C   0  0  0  0  0  0  0  0  0  0  0  0
    7.5661  -13.3065   19.3684 C   0  0  0  0  0  0  0  0  0  0  0  0
    8.7954  -14.1761   19.3712 C   0  0  1  0  0  0  0  0  0  0  0  0
    8.8313  -15.1120   20.5219 C   0  0  0  0  0  0  0  0  0  0  0  0
    8.9134  -14.6654   21.7138 O   0  0  0  0  0  0  0  0  0  0  0  0
    8.7811  -16.5283   20.4189 N   0  0  0  0  0  0  0  0  0  0  0  0
    8.6670  -17.3675   21.5767 C   0  0  0  0  0  0  0  0  0  0  0  0
    9.5413  -16.9262   22.6913 C   0  0  0  0  0  0  0  0  0  0  0  0
   10.7430  -16.6718   22.4321 O   0  0  0  0  0  0  0  0  0  0  0  0
    9.1005  -16.7752   24.0295 N   0  0  0  0  0  0  0  0  0  0  0  0
    9.9897  -16.3820   25.1305 C   0  0  1  0  0  0  0  0  0  0  0  0
    9.6694  -15.0191   25.6178 C   0  0  0  0  0  0  0  0  0  0  0  0
    8.2471  -14.6855   25.8011 C   0  0  0  0  0  0  0  0  0  0  0  0
    7.1854  -15.6062   25.7812 C   0  0  0  0  0  0  0  0  0  0  0  0
    6.0241  -14.9581   25.9460 N   0  0  0  0  0  0  0  0  0  0  0  0
    6.3096  -13.6492   26.0718 C   0  0  0  0  0  0  0  0  0  0  0  0
    5.4802  -12.5654   26.2737 C   0  0  0  0  0  0  0  0  0  0  0  0
    6.0041  -11.3036   26.3901 C   0  0  0  0  0  0  0  0  0  0  0  0
    7.3723  -11.0982   26.3066 C   0  0  0  0  0  0  0  0  0  0  0  0
    8.2154  -12.1630   26.1052 C   0  0  0  0  0  0  0  0  0  0  0  0
    7.6727  -13.4289   25.9892 C   0  0  0  0  0  0  0  0  0  0  0  0
   10.1200  -17.4363   26.1323 C   0  0  0  0  0  0  0  0  0  0  0  0
   11.1620  -17.4067   27.0356 O   0  0  0  0  0  0  0  0  0  0  0  0
    9.2994  -18.3716   26.1872 O   0  0  0  0  0  0  0  0  0  0  0  0
  2  1  1  0
  3  4  1  0
  3  2  1  0
  4  5  1  0
  5  6  1  1
  5  1  1  0
  6  8  1  0
  7  6  2  0
  8  9  1  0
  9 10  1  0
 10 11  2  0
 10 12  1  0
 12 13  1  0
 13 24  1  0
 13 14  1  1
 15 14  1  0
 15 23  1  0
 16 17  1  0
 16 15  2  0
 17 18  1  0
 18 19  2  0
 18 23  1  0
 19 20  1  0
 20 21  2  0
 22 21  1  0
 23 22  2  0
 24 26  2  0
 24 25  1  0
M  END
$$$$
