PGW.pdb
     RDKit          3D

 26 28  0  0  1  0  0  0  0  0999 V2000
    7.5572  -17.0473   20.8468 N   0  0  0  0  0  0  0  0  0  0  0  0
    6.1529  -16.6827   20.7499 C   0  0  0  0  0  0  0  0  0  0  0  0
    6.0556  -15.2045   20.9424 C   0  0  0  0  0  0  0  0  0  0  0  0
    7.4616  -14.8304   21.4113 C   0  0  0  0  0  0  0  0  0  0  0  0
    8.2947  -15.8154   20.6346 C   0  0  1  0  0  0  0  0  0  0  0  0
    9.6882  -15.9065   21.1360 C   0  0  0  0  0  0  0  0  0  0  0  0
   10.4874  -14.9217   21.0014 O   0  0  0  0  0  0  0  0  0  0  0  0
   10.2459  -17.0418   21.7835 N   0  0  0  0  0  0  0  0  0  0  0  0
   11.5753  -17.0284   22.3223 C   0  0  0  0  0  0  0  0  0  0  0  0
   11.5931  -16.8660   23.7970 C   0  0  0  0  0  0  0  0  0  0  0  0
   12.7079  -16.8487   24.3742 O   0  0  0  0  0  0  0  0  0  0  0  0
   10.4278  -16.7295   24.5914 N   0  0  0  0  0  0  0  0  0  0  0  0
   10.4579  -16.6492   26.0578 C   0  0  1  0  0  0  0  0  0  0  0  0
   10.0104  -15.3176   26.5312 C   0  0  0  0  0  0  0  0  0  0  0  0
    8.6189  -14.9321   26.2431 C   0  0  0  0  0  0  0  0  0  0  0  0
    7.6310  -15.7812   25.7156 C   0  0  0  0  0  0  0  0  0  0  0  0
    6.4913  -15.0966   25.5482 N   0  0  0  0  0  0  0  0  0  0  0  0
    6.7187  -13.8339   25.9535 C   0  0  0  0  0  0  0  0  0  0  0  0
    5.8773  -12.7415   26.0009 C   0  0  0  0  0  0  0  0  0  0  0  0
    6.3303  -11.5375   26.4754 C   0  0  0  0  0  0  0  0  0  0  0  0
    7.6380  -11.3997   26.9137 C   0  0  0  0  0  0  0  0  0  0  0  0
    8.4921  -12.4740   26.8744 C   0  0  0  0  0  0  0  0  0  0  0  0
    8.0214  -13.6811   26.3930 C   0  0  0  0  0  0  0  0  0  0  0  0
    9.8488  -17.8198   26.6828 C   0  0  0  0  0  0  0  0  0  0  0  0
   10.0699  -18.0842   28.0184 O   0  0  0  0  0  0  0  0  0  0  0  0
    9.1256  -18.5923   26.0259 O   0  0  0  0  0  0  0  0  0  0  0  0
  2  1  1  0
  3  4  1  0
  3  2  1  0
  4  5  1  0
  5  6  1  1
  5  1  1  0
  6  8  1  0
  7  6  2  0
  8  9  1  0
  9 10  1  0
 10 11  2  0
 10 12  1  0
 12 13  1  0
 13 24  1  0
 13 14  1  6
 15 14  1  0
 15 23  1  0
 16 17  1  0
 16 15  2  0
 17 18  1  0
 18 19  2  0
 18 23  1  0
 19 20  1  0
 20 21  2  0
 22 21  1  0
 23 22  2  0
 24 26  2  0
 24 25  1  0
M  END
$$$$
