PGW.pdb
     RDKit          3D

 26 28  0  0  1  0  0  0  0  0999 V2000
    7.6663  -16.8954   21.0898 N   0  0  0  0  0  0  0  0  0  0  0  0
    6.2938  -16.4574   20.8933 C   0  0  0  0  0  0  0  0  0  0  0  0
    6.2984  -14.9642   20.8464 C   0  0  0  0  0  0  0  0  0  0  0  0
    7.7180  -14.6154   21.2932 C   0  0  0  0  0  0  0  0  0  0  0  0
    8.4939  -15.7658   20.7082 C   0  0  1  0  0  0  0  0  0  0  0  0
    9.8672  -15.8690   21.2604 C   0  0  0  0  0  0  0  0  0  0  0  0
   10.8792  -15.8092   20.4866 O   0  0  0  0  0  0  0  0  0  0  0  0
   10.1788  -16.0370   22.6365 N   0  0  0  0  0  0  0  0  0  0  0  0
   11.5326  -16.1495   23.0974 C   0  0  0  0  0  0  0  0  0  0  0  0
   11.6273  -16.2524   24.5745 C   0  0  0  0  0  0  0  0  0  0  0  0
   12.7597  -16.4482   25.0799 O   0  0  0  0  0  0  0  0  0  0  0  0
   10.5165  -16.1428   25.4473 N   0  0  0  0  0  0  0  0  0  0  0  0
   10.6135  -16.3293   26.9011 C   0  0  1  0  0  0  0  0  0  0  0  0
    9.7168  -15.3951   27.6227 C   0  0  0  0  0  0  0  0  0  0  0  0
    8.4436  -15.0445   26.9716 C   0  0  0  0  0  0  0  0  0  0  0  0
    7.5483  -15.9576   26.3886 C   0  0  0  0  0  0  0  0  0  0  0  0
    6.5107  -15.2953   25.8590 N   0  0  0  0  0  0  0  0  0  0  0  0
    6.7136  -13.9847   26.0858 C   0  0  0  0  0  0  0  0  0  0  0  0
    5.9426  -12.8879   25.7600 C   0  0  0  0  0  0  0  0  0  0  0  0
    6.3472  -11.6263   26.1133 C   0  0  0  0  0  0  0  0  0  0  0  0
    7.5348  -11.4341   26.8017 C   0  0  0  0  0  0  0  0  0  0  0  0
    8.3174  -12.5119   27.1351 C   0  0  0  0  0  0  0  0  0  0  0  0
    7.8968  -13.7774   26.7717 C   0  0  0  0  0  0  0  0  0  0  0  0
   10.5524  -17.7388   27.2776 C   0  0  0  0  0  0  0  0  0  0  0  0
   10.9502  -18.1359   28.5372 O   0  0  0  0  0  0  0  0  0  0  0  0
   10.1435  -18.5984   26.4743 O   0  0  0  0  0  0  0  0  0  0  0  0
  2  1  1  0
  3  4  1  0
  3  2  1  0
  4  5  1  0
  5  6  1  1
  5  1  1  0
  6  8  1  0
  7  6  2  0
  8  9  1  0
  9 10  1  0
 10 11  2  0
 10 12  1  0
 12 13  1  0
 13 24  1  0
 13 14  1  1
 15 14  1  0
 15 23  1  0
 16 17  1  0
 16 15  2  0
 17 18  1  0
 18 19  2  0
 18 23  1  0
 19 20  1  0
 20 21  2  0
 22 21  1  0
 23 22  2  0
 24 26  2  0
 24 25  1  0
M  END
$$$$
