PGW.pdb
     RDKit          3D

 26 28  0  0  1  0  0  0  0  0999 V2000
    7.4752  -16.5440   21.3006 N   0  0  0  0  0  0  0  0  0  0  0  0
    6.1180  -16.1332   20.9788 C   0  0  0  0  0  0  0  0  0  0  0  0
    6.0708  -14.6413   21.0411 C   0  0  0  0  0  0  0  0  0  0  0  0
    7.4163  -14.2857   21.6733 C   0  0  0  0  0  0  0  0  0  0  0  0
    8.2968  -15.3644   21.1002 C   0  0  1  0  0  0  0  0  0  0  0  0
    9.6017  -15.4687   21.7987 C   0  0  0  0  0  0  0  0  0  0  0  0
   10.4187  -14.4894   21.7879 O   0  0  0  0  0  0  0  0  0  0  0  0
   10.0514  -16.6115   22.5135 N   0  0  0  0  0  0  0  0  0  0  0  0
   11.3078  -16.6249   23.2056 C   0  0  0  0  0  0  0  0  0  0  0  0
   11.1481  -16.6503   24.6805 C   0  0  0  0  0  0  0  0  0  0  0  0
   12.1551  -16.3978   25.3864 O   0  0  0  0  0  0  0  0  0  0  0  0
    9.9277  -16.9425   25.3386 N   0  0  0  0  0  0  0  0  0  0  0  0
    9.8068  -17.0540   26.7982 C   0  0  1  0  0  0  0  0  0  0  0  0
    8.4387  -16.7064   27.2511 C   0  0  0  0  0  0  0  0  0  0  0  0
    7.6413  -15.8303   26.3767 C   0  0  0  0  0  0  0  0  0  0  0  0
    6.8036  -16.2637   25.3347 C   0  0  0  0  0  0  0  0  0  0  0  0
    6.2581  -15.2027   24.7244 N   0  0  0  0  0  0  0  0  0  0  0  0
    6.7206  -14.1018   25.3446 C   0  0  0  0  0  0  0  0  0  0  0  0
    6.4589  -12.7666   25.1159 C   0  0  0  0  0  0  0  0  0  0  0  0
    7.0409  -11.8022   25.8978 C   0  0  0  0  0  0  0  0  0  0  0  0
    7.8995  -12.1534   26.9276 C   0  0  0  0  0  0  0  0  0  0  0  0
    8.1741  -13.4764   27.1717 C   0  0  0  0  0  0  0  0  0  0  0  0
    7.5804  -14.4372   26.3748 C   0  0  0  0  0  0  0  0  0  0  0  0
   10.3811  -18.2985   27.3017 C   0  0  0  0  0  0  0  0  0  0  0  0
   10.5903  -18.4658   28.6548 O   0  0  0  0  0  0  0  0  0  0  0  0
   10.6889  -19.2216   26.5242 O   0  0  0  0  0  0  0  0  0  0  0  0
  2  1  1  0
  3  4  1  0
  3  2  1  0
  4  5  1  0
  5  6  1  1
  5  1  1  0
  6  8  1  0
  7  6  2  0
  8  9  1  0
  9 10  1  0
 10 11  2  0
 10 12  1  0
 12 13  1  0
 13 24  1  0
 13 14  1  6
 15 14  1  0
 15 23  1  0
 16 17  1  0
 16 15  2  0
 17 18  1  0
 18 19  2  0
 18 23  1  0
 19 20  1  0
 20 21  2  0
 22 21  1  0
 23 22  2  0
 24 26  2  0
 24 25  1  0
M  END
$$$$
