PGW.pdb
     RDKit          3D

 26 28  0  0  1  0  0  0  0  0999 V2000
    7.3780  -14.3772   19.0710 N   0  0  0  0  0  0  0  0  0  0  0  0
    6.9334  -13.0941   18.5509 C   0  0  0  0  0  0  0  0  0  0  0  0
    7.7170  -12.0289   19.2459 C   0  0  0  0  0  0  0  0  0  0  0  0
    8.4231  -12.8003   20.3608 C   0  0  0  0  0  0  0  0  0  0  0  0
    8.6689  -14.1226   19.6838 C   0  0  1  0  0  0  0  0  0  0  0  0
    9.0532  -15.1913   20.6386 C   0  0  0  0  0  0  0  0  0  0  0  0
   10.2110  -15.1919   21.1735 O   0  0  0  0  0  0  0  0  0  0  0  0
    8.2141  -16.2678   21.0336 N   0  0  0  0  0  0  0  0  0  0  0  0
    8.7010  -17.3502   21.8393 C   0  0  0  0  0  0  0  0  0  0  0  0
    8.9004  -16.9629   23.2577 C   0  0  0  0  0  0  0  0  0  0  0  0
    8.0807  -17.3920   24.1062 O   0  0  0  0  0  0  0  0  0  0  0  0
    9.9601  -16.1383   23.7104 N   0  0  0  0  0  0  0  0  0  0  0  0
   10.2231  -15.8729   25.1310 C   0  0  1  0  0  0  0  0  0  0  0  0
    9.0695  -16.2697   25.9732 C   0  0  0  0  0  0  0  0  0  0  0  0
    7.8714  -15.4155   25.9214 C   0  0  0  0  0  0  0  0  0  0  0  0
    6.5615  -15.8634   25.6793 C   0  0  0  0  0  0  0  0  0  0  0  0
    5.7230  -14.8181   25.6677 N   0  0  0  0  0  0  0  0  0  0  0  0
    6.4563  -13.7133   25.8958 C   0  0  0  0  0  0  0  0  0  0  0  0
    6.0779  -12.3903   25.9965 C   0  0  0  0  0  0  0  0  0  0  0  0
    7.0115  -11.4199   26.2547 C   0  0  0  0  0  0  0  0  0  0  0  0
    8.3471  -11.7525   26.4179 C   0  0  0  0  0  0  0  0  0  0  0  0
    8.7451  -13.0631   26.3210 C   0  0  0  0  0  0  0  0  0  0  0  0
    7.7927  -14.0301   26.0597 C   0  0  0  0  0  0  0  0  0  0  0  0
   11.5430  -16.3444   25.5408 C   0  0  0  0  0  0  0  0  0  0  0  0
   11.9308  -16.2521   26.8612 O   0  0  0  0  0  0  0  0  0  0  0  0
   12.3335  -16.8333   24.7117 O   0  0  0  0  0  0  0  0  0  0  0  0
  2  1  1  0
  3  4  1  0
  3  2  1  0
  4  5  1  0
  5  6  1  1
  5  1  1  0
  6  8  1  0
  7  6  2  0
  8  9  1  0
  9 10  1  0
 10 11  2  0
 10 12  1  0
 12 13  1  0
 13 24  1  0
 13 14  1  1
 15 14  1  0
 15 23  1  0
 16 17  1  0
 16 15  2  0
 17 18  1  0
 18 19  2  0
 18 23  1  0
 19 20  1  0
 20 21  2  0
 22 21  1  0
 23 22  2  0
 24 26  2  0
 24 25  1  0
M  END
$$$$
