PGW.pdb
     RDKit          3D

 26 28  0  0  1  0  0  0  0  0999 V2000
    7.4499  -14.6446   18.9629 N   0  0  0  0  0  0  0  0  0  0  0  0
    6.9599  -13.3809   18.4364 C   0  0  0  0  0  0  0  0  0  0  0  0
    7.9269  -12.3169   18.8422 C   0  0  0  0  0  0  0  0  0  0  0  0
    8.8278  -13.0413   19.8424 C   0  0  0  0  0  0  0  0  0  0  0  0
    8.8553  -14.4266   19.2530 C   0  0  1  0  0  0  0  0  0  0  0  0
    9.3935  -15.4385   20.1953 C   0  0  0  0  0  0  0  0  0  0  0  0
   10.6395  -15.4690   20.4659 O   0  0  0  0  0  0  0  0  0  0  0  0
    8.6159  -16.4262   20.8578 N   0  0  0  0  0  0  0  0  0  0  0  0
    9.2054  -17.3751   21.7577 C   0  0  0  0  0  0  0  0  0  0  0  0
    9.7693  -16.7371   22.9728 C   0  0  0  0  0  0  0  0  0  0  0  0
   10.5215  -15.7435   22.8213 O   0  0  0  0  0  0  0  0  0  0  0  0
    9.5092  -17.1826   24.2926 N   0  0  0  0  0  0  0  0  0  0  0  0
   10.0676  -16.5335   25.4861 C   0  0  1  0  0  0  0  0  0  0  0  0
    9.6812  -15.1037   25.5491 C   0  0  0  0  0  0  0  0  0  0  0  0
    8.2638  -14.7989   25.8061 C   0  0  0  0  0  0  0  0  0  0  0  0
    7.2178  -15.7375   25.8170 C   0  0  0  0  0  0  0  0  0  0  0  0
    6.0550  -15.1134   26.0497 N   0  0  0  0  0  0  0  0  0  0  0  0
    6.3244  -13.8025   26.1892 C   0  0  0  0  0  0  0  0  0  0  0  0
    5.4876  -12.7377   26.4525 C   0  0  0  0  0  0  0  0  0  0  0  0
    5.9954  -11.4695   26.5704 C   0  0  0  0  0  0  0  0  0  0  0  0
    7.3545  -11.2384   26.4269 C   0  0  0  0  0  0  0  0  0  0  0  0
    8.2047  -12.2839   26.1639 C   0  0  0  0  0  0  0  0  0  0  0  0
    7.6782  -13.5566   26.0471 C   0  0  0  0  0  0  0  0  0  0  0  0
    9.8647  -17.3340   26.6903 C   0  0  0  0  0  0  0  0  0  0  0  0
   10.5191  -17.0035   27.8586 O   0  0  0  0  0  0  0  0  0  0  0  0
    9.1039  -18.3202   26.6822 O   0  0  0  0  0  0  0  0  0  0  0  0
  2  1  1  0
  3  4  1  0
  3  2  1  0
  4  5  1  0
  5  6  1  1
  5  1  1  0
  6  8  1  0
  7  6  2  0
  8  9  1  0
  9 10  1  0
 10 11  2  0
 10 12  1  0
 12 13  1  0
 13 24  1  0
 13 14  1  1
 15 14  1  0
 15 23  1  0
 16 17  1  0
 16 15  2  0
 17 18  1  0
 18 19  2  0
 18 23  1  0
 19 20  1  0
 20 21  2  0
 22 21  1  0
 23 22  2  0
 24 26  2  0
 24 25  1  0
M  END
$$$$
