PGW.pdb
     RDKit          3D

 26 28  0  0  1  0  0  0  0  0999 V2000
    7.6832  -16.6066   20.7656 N   0  0  0  0  0  0  0  0  0  0  0  0
    6.3643  -16.0432   20.5261 C   0  0  0  0  0  0  0  0  0  0  0  0
    6.4003  -14.6117   20.9518 C   0  0  0  0  0  0  0  0  0  0  0  0
    7.7403  -14.5084   21.6801 C   0  0  0  0  0  0  0  0  0  0  0  0
    8.5777  -15.4692   20.8783 C   0  0  1  0  0  0  0  0  0  0  0  0
    9.8484  -15.8244   21.5569 C   0  0  0  0  0  0  0  0  0  0  0  0
   10.7617  -14.9483   21.7148 O   0  0  0  0  0  0  0  0  0  0  0  0
   10.1616  -17.1107   22.0731 N   0  0  0  0  0  0  0  0  0  0  0  0
   11.4479  -17.4081   22.6341 C   0  0  0  0  0  0  0  0  0  0  0  0
   11.5349  -17.0706   24.0763 C   0  0  0  0  0  0  0  0  0  0  0  0
   12.6735  -17.0261   24.6032 O   0  0  0  0  0  0  0  0  0  0  0  0
   10.4100  -16.7959   24.8930 N   0  0  0  0  0  0  0  0  0  0  0  0
   10.4989  -16.5990   26.3460 C   0  0  1  0  0  0  0  0  0  0  0  0
   10.0123  -15.2540   26.7356 C   0  0  0  0  0  0  0  0  0  0  0  0
    8.6369  -14.8968   26.3501 C   0  0  0  0  0  0  0  0  0  0  0  0
    7.6978  -15.7722   25.7783 C   0  0  0  0  0  0  0  0  0  0  0  0
    6.5614  -15.1095   25.5231 N   0  0  0  0  0  0  0  0  0  0  0  0
    6.7437  -13.8352   25.9149 C   0  0  0  0  0  0  0  0  0  0  0  0
    5.8851  -12.7557   25.8843 C   0  0  0  0  0  0  0  0  0  0  0  0
    6.2888  -11.5351   26.3611 C   0  0  0  0  0  0  0  0  0  0  0  0
    7.5631  -11.3675   26.8798 C   0  0  0  0  0  0  0  0  0  0  0  0
    8.4336  -12.4287   26.9189 C   0  0  0  0  0  0  0  0  0  0  0  0
    8.0127  -13.6527   26.4342 C   0  0  0  0  0  0  0  0  0  0  0  0
    9.9705  -17.7411   27.0866 C   0  0  0  0  0  0  0  0  0  0  0  0
    9.3492  -18.7732   26.4148 O   0  0  0  0  0  0  0  0  0  0  0  0
   10.0713  -17.8016   28.3265 O   0  0  0  0  0  0  0  0  0  0  0  0
  2  1  1  0
  3  4  1  0
  3  2  1  0
  4  5  1  0
  5  6  1  1
  5  1  1  0
  6  8  1  0
  7  6  2  0
  8  9  1  0
  9 10  1  0
 10 11  2  0
 10 12  1  0
 12 13  1  0
 13 24  1  0
 13 14  1  6
 15 14  1  0
 15 23  1  0
 16 17  1  0
 16 15  2  0
 17 18  1  0
 18 19  2  0
 18 23  1  0
 19 20  1  0
 20 21  2  0
 22 21  1  0
 23 22  2  0
 24 26  2  0
 24 25  1  0
M  END
$$$$
