TSK.pdb
     RDKit          3D

 23 22  0  0  1  0  0  0  0  0999 V2000
    6.0163  -18.8292   19.5856 C   0  0  0  0  0  0  0  0  0  0  0  0
    7.1967  -18.8670   20.5315 C   0  0  1  0  0  0  0  0  0  0  0  0
    7.5689  -20.1781   20.7693 O   0  0  0  0  0  0  0  0  0  0  0  0
    8.3491  -18.0397   19.9799 C   0  0  2  0  0  0  0  0  0  0  0  0
    8.7830  -18.6330   18.7317 N   0  0  0  0  0  0  0  0  0  0  0  0
    9.4239  -17.9930   20.9871 C   0  0  0  0  0  0  0  0  0  0  0  0
   10.4637  -18.6588   20.7573 O   0  0  0  0  0  0  0  0  0  0  0  0
    9.5414  -15.1973   24.2496 O   0  0  0  0  0  0  0  0  0  0  0  0
   10.6437  -15.7836   23.6812 C   0  0  0  0  0  0  0  0  0  0  0  0
   10.3928  -17.1692   23.1608 C   0  0  2  0  0  0  0  0  0  0  0  0
    9.3491  -17.2458   22.1879 N   0  0  0  0  0  0  0  0  0  0  0  0
   10.1034  -18.0595   24.3089 C   0  0  0  0  0  0  0  0  0  0  0  0
    8.9444  -18.1130   24.7929 O   0  0  0  0  0  0  0  0  0  0  0  0
   11.0991  -18.8667   24.8927 N   0  0  0  0  0  0  0  0  0  0  0  0
   10.7232  -19.7279   26.1015 C   0  0  1  0  0  0  0  0  0  0  0  0
   11.1884  -21.0726   25.7213 C   0  0  0  0  0  0  0  0  0  0  0  0
   10.6329  -21.7701   24.5680 C   0  0  0  0  0  0  0  0  0  0  0  0
   11.3106  -22.9896   24.1052 C   0  0  0  0  0  0  0  0  0  0  0  0
   10.7398  -23.4134   22.7248 C   0  0  0  0  0  0  0  0  0  0  0  0
   11.3956  -24.6188   22.3192 N   0  0  0  0  0  0  0  0  0  0  0  0
   11.5146  -19.0665   27.1662 C   0  0  0  0  0  0  0  0  0  0  0  0
   12.5705  -18.2032   27.0245 O   0  0  0  0  0  0  0  0  0  0  0  0
   11.1979  -19.3185   28.3821 O   0  0  0  0  0  0  0  0  0  0  0  0
  2  1  1  6
  2  4  1  0
  3  2  1  0
  4  5  1  6
  6  4  1  0
  6  7  2  0
  8  9  1  0
 10  9  1  1
 10 11  1  0
 10 12  1  0
 11  6  1  0
 12 14  1  0
 13 12  2  0
 14 15  1  0
 15 21  1  0
 16 17  1  0
 15 16  1  6
 18 19  1  0
 18 17  1  0
 20 19  1  0
 21 23  2  0
 21 22  1  0
M  END
$$$$
