TSK.pdb
     RDKit          3D

 23 22  0  0  1  0  0  0  0  0999 V2000
    3.9228  -17.4521   21.4098 C   0  0  0  0  0  0  0  0  0  0  0  0
    4.7222  -18.3666   20.5074 C   0  0  1  0  0  0  0  0  0  0  0  0
    3.8907  -18.9429   19.5637 O   0  0  0  0  0  0  0  0  0  0  0  0
    5.8733  -17.6073   19.8631 C   0  0  2  0  0  0  0  0  0  0  0  0
    6.4696  -18.4526   18.8492 N   0  0  0  0  0  0  0  0  0  0  0  0
    6.8329  -17.2209   20.9127 C   0  0  0  0  0  0  0  0  0  0  0  0
    7.7341  -18.0448   21.2066 O   0  0  0  0  0  0  0  0  0  0  0  0
    6.4551  -13.6430   23.2933 O   0  0  0  0  0  0  0  0  0  0  0  0
    7.6886  -14.1541   22.9785 C   0  0  0  0  0  0  0  0  0  0  0  0
    7.6749  -15.6226   22.6673 C   0  0  2  0  0  0  0  0  0  0  0  0
    6.7948  -15.9839   21.6013 N   0  0  0  0  0  0  0  0  0  0  0  0
    7.3311  -16.3638   23.9030 C   0  0  0  0  0  0  0  0  0  0  0  0
    6.1362  -16.6687   24.1472 O   0  0  0  0  0  0  0  0  0  0  0  0
    8.3132  -16.7491   24.8362 N   0  0  0  0  0  0  0  0  0  0  0  0
    7.8809  -17.5762   26.0498 C   0  0  1  0  0  0  0  0  0  0  0  0
    7.5611  -18.8921   25.4705 C   0  0  0  0  0  0  0  0  0  0  0  0
    7.2222  -20.0311   26.3148 C   0  0  0  0  0  0  0  0  0  0  0  0
    6.9432  -21.3177   25.6610 C   0  0  0  0  0  0  0  0  0  0  0  0
    6.7362  -22.4175   26.7372 C   0  0  0  0  0  0  0  0  0  0  0  0
    6.6084  -23.6779   26.0718 N   0  0  0  0  0  0  0  0  0  0  0  0
    9.1174  -17.5325   26.8662 C   0  0  0  0  0  0  0  0  0  0  0  0
    9.2382  -17.6461   28.2274 O   0  0  0  0  0  0  0  0  0  0  0  0
   10.2280  -17.3633   26.2496 O   0  0  0  0  0  0  0  0  0  0  0  0
  2  1  1  6
  2  4  1  0
  3  2  1  0
  4  5  1  6
  6  4  1  0
  6  7  2  0
  8  9  1  0
 10  9  1  1
 10 11  1  0
 10 12  1  0
 11  6  1  0
 12 14  1  0
 13 12  2  0
 14 15  1  0
 15 21  1  0
 16 17  1  0
 15 16  1  6
 18 19  1  0
 18 17  1  0
 20 19  1  0
 21 23  2  0
 21 22  1  0
M  END
$$$$
