TSK.pdb
     RDKit          3D

 23 22  0  0  1  0  0  0  0  0999 V2000
   13.5007  -20.1846   18.3144 C   0  0  0  0  0  0  0  0  0  0  0  0
   12.9034  -19.2712   19.3625 C   0  0  1  0  0  0  0  0  0  0  0  0
   13.8377  -19.0109   20.3492 O   0  0  0  0  0  0  0  0  0  0  0  0
   12.3821  -17.9929   18.7216 C   0  0  2  0  0  0  0  0  0  0  0  0
   13.5083  -17.2564   18.1856 N   0  0  0  0  0  0  0  0  0  0  0  0
   11.6352  -17.2254   19.7340 C   0  0  0  0  0  0  0  0  0  0  0  0
   12.2447  -16.3019   20.3281 O   0  0  0  0  0  0  0  0  0  0  0  0
    7.7598  -18.3667   21.1390 O   0  0  0  0  0  0  0  0  0  0  0  0
    8.0809  -17.0344   21.0767 C   0  0  0  0  0  0  0  0  0  0  0  0
    9.5579  -16.7660   21.0817 C   0  0  2  0  0  0  0  0  0  0  0  0
   10.2812  -17.4698   20.0702 N   0  0  0  0  0  0  0  0  0  0  0  0
   10.0916  -17.0878   22.4256 C   0  0  0  0  0  0  0  0  0  0  0  0
   10.8487  -18.0784   22.5861 O   0  0  0  0  0  0  0  0  0  0  0  0
    9.7767  -16.3092   23.5563 N   0  0  0  0  0  0  0  0  0  0  0  0
   10.4358  -16.6638   24.8919 C   0  0  1  0  0  0  0  0  0  0  0  0
   10.0634  -15.5385   25.7664 C   0  0  0  0  0  0  0  0  0  0  0  0
   10.4843  -15.4896   27.1612 C   0  0  0  0  0  0  0  0  0  0  0  0
   10.1330  -14.2989   27.9480 C   0  0  0  0  0  0  0  0  0  0  0  0
   10.7449  -14.4125   29.3705 C   0  0  0  0  0  0  0  0  0  0  0  0
   10.3636  -13.2527   30.1168 N   0  0  0  0  0  0  0  0  0  0  0  0
    9.7616  -17.9479   25.1982 C   0  0  0  0  0  0  0  0  0  0  0  0
   10.2318  -18.9929   25.9513 O   0  0  0  0  0  0  0  0  0  0  0  0
    8.5929  -18.1348   24.7067 O   0  0  0  0  0  0  0  0  0  0  0  0
  2  1  1  6
  2  4  1  0
  3  2  1  0
  4  5  1  1
  6  4  1  0
  6  7  2  0
  8  9  1  0
 10  9  1  1
 10 11  1  0
 10 12  1  0
 11  6  1  0
 12 14  1  0
 13 12  2  0
 14 15  1  0
 15 21  1  0
 16 17  1  0
 15 16  1  1
 18 19  1  0
 18 17  1  0
 20 19  1  0
 21 23  2  0
 21 22  1  0
M  END
$$$$
