TSK.pdb
     RDKit          3D

 23 22  0  0  1  0  0  0  0  0999 V2000
    6.5106  -19.3363   16.5844 C   0  0  0  0  0  0  0  0  0  0  0  0
    7.2848  -18.6586   17.6938 C   0  0  1  0  0  0  0  0  0  0  0  0
    8.1750  -19.5523   18.2620 O   0  0  0  0  0  0  0  0  0  0  0  0
    7.9857  -17.4126   17.1712 C   0  0  2  0  0  0  0  0  0  0  0  0
    8.9113  -17.8098   16.1303 N   0  0  0  0  0  0  0  0  0  0  0  0
    8.6565  -16.7385   18.2970 C   0  0  0  0  0  0  0  0  0  0  0  0
    9.8703  -16.9981   18.4884 O   0  0  0  0  0  0  0  0  0  0  0  0
    6.5636  -14.6203   21.3733 O   0  0  0  0  0  0  0  0  0  0  0  0
    7.7887  -14.1600   20.9622 C   0  0  0  0  0  0  0  0  0  0  0  0
    8.6354  -15.2039   20.2936 C   0  0  2  0  0  0  0  0  0  0  0  0
    8.0139  -15.8233   19.1660 N   0  0  0  0  0  0  0  0  0  0  0  0
    9.0179  -16.2188   21.3027 C   0  0  0  0  0  0  0  0  0  0  0  0
    8.4136  -17.3200   21.3543 O   0  0  0  0  0  0  0  0  0  0  0  0
   10.0559  -15.9929   22.2276 N   0  0  0  0  0  0  0  0  0  0  0  0
   10.3959  -17.1019   23.2268 C   0  0  1  0  0  0  0  0  0  0  0  0
   11.7842  -17.4562   22.8851 C   0  0  0  0  0  0  0  0  0  0  0  0
   12.5159  -18.4689   23.6361 C   0  0  0  0  0  0  0  0  0  0  0  0
   12.4958  -19.8505   23.1346 C   0  0  0  0  0  0  0  0  0  0  0  0
   13.4062  -20.7422   24.0215 C   0  0  0  0  0  0  0  0  0  0  0  0
   13.4164  -22.0623   23.4691 N   0  0  0  0  0  0  0  0  0  0  0  0
   10.2295  -16.3765   24.5088 C   0  0  0  0  0  0  0  0  0  0  0  0
    9.9242  -16.8941   25.7414 O   0  0  0  0  0  0  0  0  0  0  0  0
   10.3792  -15.1039   24.4926 O   0  0  0  0  0  0  0  0  0  0  0  0
  2  1  1  6
  2  4  1  0
  3  2  1  0
  4  5  1  6
  6  4  1  0
  6  7  2  0
  8  9  1  0
 10  9  1  1
 10 11  1  0
 10 12  1  0
 11  6  1  0
 12 14  1  0
 13 12  2  0
 14 15  1  0
 15 21  1  0
 16 17  1  0
 15 16  1  6
 18 19  1  0
 18 17  1  0
 20 19  1  0
 21 23  2  0
 21 22  1  0
M  END
$$$$
