TSK.pdb
     RDKit          3D

 23 22  0  0  1  0  0  0  0  0999 V2000
    8.0821  -12.2607   18.9844 C   0  0  0  0  0  0  0  0  0  0  0  0
    7.8521  -13.5411   18.2116 C   0  0  1  0  0  0  0  0  0  0  0  0
    8.1121  -13.3347   16.8685 O   0  0  0  0  0  0  0  0  0  0  0  0
    8.6951  -14.6703   18.7870 C   0  0  2  0  0  0  0  0  0  0  0  0
    8.5050  -15.8485   17.9661 N   0  0  0  0  0  0  0  0  0  0  0  0
    8.3002  -14.8893   20.1899 C   0  0  0  0  0  0  0  0  0  0  0  0
    8.6997  -14.0572   21.0416 O   0  0  0  0  0  0  0  0  0  0  0  0
    6.3681  -18.4289   21.7172 O   0  0  0  0  0  0  0  0  0  0  0  0
    5.9203  -17.1812   22.0699 C   0  0  0  0  0  0  0  0  0  0  0  0
    6.9592  -16.1053   21.9407 C   0  0  2  0  0  0  0  0  0  0  0  0
    7.5030  -15.9757   20.6257 N   0  0  0  0  0  0  0  0  0  0  0  0
    8.0333  -16.3653   22.9272 C   0  0  0  0  0  0  0  0  0  0  0  0
    9.1948  -16.6496   22.5391 O   0  0  0  0  0  0  0  0  0  0  0  0
    7.7987  -16.3049   24.3147 N   0  0  0  0  0  0  0  0  0  0  0  0
    8.9616  -16.6041   25.2643 C   0  0  1  0  0  0  0  0  0  0  0  0
    8.8640  -15.5346   26.2723 C   0  0  0  0  0  0  0  0  0  0  0  0
    9.7339  -15.5120   27.4418 C   0  0  0  0  0  0  0  0  0  0  0  0
    9.4613  -14.5152   28.4871 C   0  0  0  0  0  0  0  0  0  0  0  0
   10.4284  -14.7325   29.6822 C   0  0  0  0  0  0  0  0  0  0  0  0
   10.1109  -13.7740   30.6962 N   0  0  0  0  0  0  0  0  0  0  0  0
    8.5844  -17.9554   25.7428 C   0  0  0  0  0  0  0  0  0  0  0  0
    9.4021  -18.9353   26.2444 O   0  0  0  0  0  0  0  0  0  0  0  0
    7.3453  -18.2781   25.6883 O   0  0  0  0  0  0  0  0  0  0  0  0
  2  1  1  1
  2  4  1  0
  3  2  1  0
  4  5  1  6
  6  4  1  0
  6  7  2  0
  8  9  1  0
 10  9  1  6
 10 11  1  0
 10 12  1  0
 11  6  1  0
 12 14  1  0
 13 12  2  0
 14 15  1  0
 15 21  1  0
 16 17  1  0
 15 16  1  1
 18 19  1  0
 18 17  1  0
 20 19  1  0
 21 23  2  0
 21 22  1  0
M  END
$$$$
