TSK.pdb
     RDKit          3D

 23 22  0  0  1  0  0  0  0  0999 V2000
    7.4782  -19.6588   18.3625 C   0  0  0  0  0  0  0  0  0  0  0  0
    7.9487  -19.1160   17.0307 C   0  0  1  0  0  0  0  0  0  0  0  0
    7.3940  -19.8519   15.9988 O   0  0  0  0  0  0  0  0  0  0  0  0
    7.6211  -17.6343   16.9126 C   0  0  2  0  0  0  0  0  0  0  0  0
    7.9563  -17.1960   15.5734 N   0  0  0  0  0  0  0  0  0  0  0  0
    8.3660  -16.8999   17.9507 C   0  0  0  0  0  0  0  0  0  0  0  0
    9.6198  -16.9673   17.9223 O   0  0  0  0  0  0  0  0  0  0  0  0
    6.5032  -15.2975   21.4509 O   0  0  0  0  0  0  0  0  0  0  0  0
    7.5877  -14.6455   20.9211 C   0  0  0  0  0  0  0  0  0  0  0  0
    8.4506  -15.5124   20.0507 C   0  0  2  0  0  0  0  0  0  0  0  0
    7.7515  -16.1300   18.9683 N   0  0  0  0  0  0  0  0  0  0  0  0
    9.1039  -16.5340   20.9017 C   0  0  0  0  0  0  0  0  0  0  0  0
    8.6245  -17.6934   20.9808 O   0  0  0  0  0  0  0  0  0  0  0  0
   10.2677  -16.2503   21.6425 N   0  0  0  0  0  0  0  0  0  0  0  0
   10.8475  -17.3484   22.5379 C   0  0  1  0  0  0  0  0  0  0  0  0
   12.1987  -17.5583   21.9903 C   0  0  0  0  0  0  0  0  0  0  0  0
   13.1362  -18.4826   22.6163 C   0  0  0  0  0  0  0  0  0  0  0  0
   14.4416  -18.6854   21.9717 C   0  0  0  0  0  0  0  0  0  0  0  0
   15.2552  -19.7470   22.7604 C   0  0  0  0  0  0  0  0  0  0  0  0
   16.4567  -20.0222   22.0337 N   0  0  0  0  0  0  0  0  0  0  0  0
   10.8017  -16.6779   23.8591 C   0  0  0  0  0  0  0  0  0  0  0  0
   10.8518  -17.2528   25.1030 O   0  0  0  0  0  0  0  0  0  0  0  0
   10.6975  -15.4007   23.8713 O   0  0  0  0  0  0  0  0  0  0  0  0
  2  1  1  1
  2  4  1  0
  3  2  1  0
  4  5  1  6
  6  4  1  0
  6  7  2  0
  8  9  1  0
 10  9  1  1
 10 11  1  0
 10 12  1  0
 11  6  1  0
 12 14  1  0
 13 12  2  0
 14 15  1  0
 15 21  1  0
 16 17  1  0
 15 16  1  6
 18 19  1  0
 18 17  1  0
 20 19  1  0
 21 23  2  0
 21 22  1  0
M  END
$$$$
