TSK.pdb
     RDKit          3D

 23 22  0  0  1  0  0  0  0  0999 V2000
    8.3477  -14.2923   16.0275 C   0  0  0  0  0  0  0  0  0  0  0  0
    8.4976  -14.7623   17.4580 C   0  0  1  0  0  0  0  0  0  0  0  0
    9.8225  -15.0630   17.7194 O   0  0  0  0  0  0  0  0  0  0  0  0
    7.9502  -13.7196   18.4223 C   0  0  2  0  0  0  0  0  0  0  0  0
    8.6855  -12.4866   18.2300 N   0  0  0  0  0  0  0  0  0  0  0  0
    8.0657  -14.2381   19.7969 C   0  0  0  0  0  0  0  0  0  0  0  0
    9.0376  -13.8417   20.4867 O   0  0  0  0  0  0  0  0  0  0  0  0
    6.1777  -16.8040   23.5116 O   0  0  0  0  0  0  0  0  0  0  0  0
    6.0204  -16.2167   22.2819 C   0  0  0  0  0  0  0  0  0  0  0  0
    7.3056  -15.7439   21.6670 C   0  0  2  0  0  0  0  0  0  0  0  0
    7.1501  -15.1498   20.3769 N   0  0  0  0  0  0  0  0  0  0  0  0
    8.2480  -16.8854   21.6066 C   0  0  0  0  0  0  0  0  0  0  0  0
    8.3129  -17.5994   20.5739 O   0  0  0  0  0  0  0  0  0  0  0  0
    9.0933  -17.2092   22.6856 N   0  0  0  0  0  0  0  0  0  0  0  0
   10.1204  -18.3286   22.4965 C   0  0  1  0  0  0  0  0  0  0  0  0
   11.1977  -17.9661   23.4332 C   0  0  0  0  0  0  0  0  0  0  0  0
   12.3430  -18.8420   23.6486 C   0  0  0  0  0  0  0  0  0  0  0  0
   13.3844  -18.4002   24.5871 C   0  0  0  0  0  0  0  0  0  0  0  0
   14.5442  -19.4323   24.6052 C   0  0  0  0  0  0  0  0  0  0  0  0
   15.5475  -18.9638   25.5116 N   0  0  0  0  0  0  0  0  0  0  0  0
    9.3153  -19.5092   22.8906 C   0  0  0  0  0  0  0  0  0  0  0  0
    9.5262  -20.8248   22.5664 O   0  0  0  0  0  0  0  0  0  0  0  0
    8.2834  -19.3043   23.6224 O   0  0  0  0  0  0  0  0  0  0  0  0
  2  1  1  6
  2  4  1  0
  3  2  1  0
  4  5  1  1
  6  4  1  0
  6  7  2  0
  8  9  1  0
 10  9  1  6
 10 11  1  0
 10 12  1  0
 11  6  1  0
 12 14  1  0
 13 12  2  0
 14 15  1  0
 15 21  1  0
 16 17  1  0
 15 16  1  1
 18 19  1  0
 18 17  1  0
 20 19  1  0
 21 23  2  0
 21 22  1  0
M  END
$$$$
