TSK.pdb
     RDKit          3D

 23 22  0  0  1  0  0  0  0  0999 V2000
    7.1002  -19.1700   17.0511 C   0  0  0  0  0  0  0  0  0  0  0  0
    7.7208  -18.4634   18.2365 C   0  0  1  0  0  0  0  0  0  0  0  0
    8.4763  -19.3563   18.9754 O   0  0  0  0  0  0  0  0  0  0  0  0
    8.5430  -17.2686   17.7748 C   0  0  2  0  0  0  0  0  0  0  0  0
    9.5836  -17.7440   16.8864 N   0  0  0  0  0  0  0  0  0  0  0  0
    9.0832  -16.5785   18.9596 C   0  0  0  0  0  0  0  0  0  0  0  0
   10.2812  -16.8004   19.2642 O   0  0  0  0  0  0  0  0  0  0  0  0
    6.6018  -14.5153   21.7662 O   0  0  0  0  0  0  0  0  0  0  0  0
    7.8827  -14.0695   21.5605 C   0  0  0  0  0  0  0  0  0  0  0  0
    8.8010  -15.1080   20.9846 C   0  0  2  0  0  0  0  0  0  0  0  0
    8.3327  -15.6878   19.7654 N   0  0  0  0  0  0  0  0  0  0  0  0
    9.0299  -16.1551   22.0072 C   0  0  0  0  0  0  0  0  0  0  0  0
    8.4049  -17.2444   21.9496 O   0  0  0  0  0  0  0  0  0  0  0  0
    9.9412  -15.9736   23.0657 N   0  0  0  0  0  0  0  0  0  0  0  0
   10.1682  -17.1333   24.0390 C   0  0  1  0  0  0  0  0  0  0  0  0
   11.6078  -17.4147   23.9060 C   0  0  0  0  0  0  0  0  0  0  0  0
   12.2597  -18.4361   24.7165 C   0  0  0  0  0  0  0  0  0  0  0  0
   13.6849  -18.7038   24.4764 C   0  0  0  0  0  0  0  0  0  0  0  0
   14.1729  -19.8306   25.4266 C   0  0  0  0  0  0  0  0  0  0  0  0
   15.5360  -20.1272   25.1079 N   0  0  0  0  0  0  0  0  0  0  0  0
    9.7667  -16.5006   25.3180 C   0  0  0  0  0  0  0  0  0  0  0  0
    9.3527  -17.1132   26.4729 O   0  0  0  0  0  0  0  0  0  0  0  0
    9.7958  -15.2209   25.3801 O   0  0  0  0  0  0  0  0  0  0  0  0
  2  1  1  6
  2  4  1  0
  3  2  1  0
  4  5  1  6
  6  4  1  0
  6  7  2  0
  8  9  1  0
 10  9  1  1
 10 11  1  0
 10 12  1  0
 11  6  1  0
 12 14  1  0
 13 12  2  0
 14 15  1  0
 15 21  1  0
 16 17  1  0
 15 16  1  1
 18 19  1  0
 18 17  1  0
 20 19  1  0
 21 23  2  0
 21 22  1  0
M  END
$$$$
