TSK.pdb
     RDKit          3D

 23 22  0  0  1  0  0  0  0  0999 V2000
    9.3689  -12.7447   17.2896 C   0  0  0  0  0  0  0  0  0  0  0  0
    9.3867  -13.6566   18.4970 C   0  0  1  0  0  0  0  0  0  0  0  0
    9.9568  -13.0019   19.5743 O   0  0  0  0  0  0  0  0  0  0  0  0
    7.9826  -14.1529   18.8115 C   0  0  2  0  0  0  0  0  0  0  0  0
    7.1247  -13.0035   19.0143 N   0  0  0  0  0  0  0  0  0  0  0  0
    8.0433  -15.0286   19.9953 C   0  0  0  0  0  0  0  0  0  0  0  0
    7.6637  -14.5486   21.0920 O   0  0  0  0  0  0  0  0  0  0  0  0
   10.0436  -18.8063   20.0074 O   0  0  0  0  0  0  0  0  0  0  0  0
    8.9273  -18.6450   20.7882 C   0  0  0  0  0  0  0  0  0  0  0  0
    8.6152  -17.2126   21.1112 C   0  0  2  0  0  0  0  0  0  0  0  0
    8.5017  -16.3683   19.9641 N   0  0  0  0  0  0  0  0  0  0  0  0
    9.6525  -16.7005   22.0366 C   0  0  0  0  0  0  0  0  0  0  0  0
   10.5252  -15.8940   21.6263 O   0  0  0  0  0  0  0  0  0  0  0  0
    9.7002  -17.0911   23.3890 N   0  0  0  0  0  0  0  0  0  0  0  0
   10.8091  -16.5169   24.2748 C   0  0  1  0  0  0  0  0  0  0  0  0
   10.2658  -16.6569   25.6367 C   0  0  0  0  0  0  0  0  0  0  0  0
   11.0910  -16.4077   26.8123 C   0  0  0  0  0  0  0  0  0  0  0  0
   10.5264  -16.7223   28.1325 C   0  0  0  0  0  0  0  0  0  0  0  0
   11.5896  -16.4580   29.2326 C   0  0  0  0  0  0  0  0  0  0  0  0
   10.9963  -16.7335   30.5053 N   0  0  0  0  0  0  0  0  0  0  0  0
   11.9258  -17.4346   23.9459 C   0  0  0  0  0  0  0  0  0  0  0  0
   13.2629  -17.1438   23.8567 O   0  0  0  0  0  0  0  0  0  0  0  0
   11.6343  -18.6590   23.7051 O   0  0  0  0  0  0  0  0  0  0  0  0
  2  1  1  6
  2  4  1  0
  3  2  1  0
  4  5  1  1
  6  4  1  0
  6  7  2  0
  8  9  1  0
 10  9  1  6
 10 11  1  0
 10 12  1  0
 11  6  1  0
 12 14  1  0
 13 12  2  0
 14 15  1  0
 15 21  1  0
 16 17  1  0
 15 16  1  1
 18 19  1  0
 18 17  1  0
 20 19  1  0
 21 23  2  0
 21 22  1  0
M  END
$$$$
