TSK.pdb
     RDKit          3D

 23 22  0  0  1  0  0  0  0  0999 V2000
    6.3535  -19.1846   17.3641 C   0  0  0  0  0  0  0  0  0  0  0  0
    7.2233  -18.5204   18.4090 C   0  0  1  0  0  0  0  0  0  0  0  0
    8.1203  -19.4370   18.9281 O   0  0  0  0  0  0  0  0  0  0  0  0
    7.9275  -17.3050   17.8228 C   0  0  2  0  0  0  0  0  0  0  0  0
    8.7717  -17.7463   16.7316 N   0  0  0  0  0  0  0  0  0  0  0  0
    8.6897  -16.6369   18.8926 C   0  0  0  0  0  0  0  0  0  0  0  0
    9.9071  -16.9248   19.0042 O   0  0  0  0  0  0  0  0  0  0  0  0
    6.8220  -14.4765   22.0851 O   0  0  0  0  0  0  0  0  0  0  0  0
    8.0511  -14.0688   21.6326 C   0  0  0  0  0  0  0  0  0  0  0  0
    8.8186  -15.1403   20.9140 C   0  0  2  0  0  0  0  0  0  0  0  0
    8.1301  -15.6974   19.7927 N   0  0  0  0  0  0  0  0  0  0  0  0
    9.1753  -16.1988   21.8870 C   0  0  0  0  0  0  0  0  0  0  0  0
    8.5409  -17.2840   21.9036 O   0  0  0  0  0  0  0  0  0  0  0  0
   10.2213  -16.0330   22.8155 N   0  0  0  0  0  0  0  0  0  0  0  0
   10.4855  -17.1543   23.8239 C   0  0  1  0  0  0  0  0  0  0  0  0
   11.2462  -18.1445   23.0427 C   0  0  0  0  0  0  0  0  0  0  0  0
   11.8011  -19.3395   23.6666 C   0  0  0  0  0  0  0  0  0  0  0  0
   12.5370  -20.2854   22.8157 C   0  0  0  0  0  0  0  0  0  0  0  0
   13.1304  -21.4231   23.6899 C   0  0  0  0  0  0  0  0  0  0  0  0
   13.6256  -22.4456   22.8199 N   0  0  0  0  0  0  0  0  0  0  0  0
   11.2703  -16.4236   24.8473 C   0  0  0  0  0  0  0  0  0  0  0  0
   11.3943  -16.7090   26.1828 O   0  0  0  0  0  0  0  0  0  0  0  0
   11.9212  -15.3877   24.4659 O   0  0  0  0  0  0  0  0  0  0  0  0
  2  1  1  6
  2  4  1  0
  3  2  1  0
  4  5  1  6
  6  4  1  0
  6  7  2  0
  8  9  1  0
 10  9  1  1
 10 11  1  0
 10 12  1  0
 11  6  1  0
 12 14  1  0
 13 12  2  0
 14 15  1  0
 15 21  1  0
 16 17  1  0
 15 16  1  6
 18 19  1  0
 18 17  1  0
 20 19  1  0
 21 23  2  0
 21 22  1  0
M  END
$$$$
