TSK.pdb
     RDKit          3D

 23 22  0  0  1  0  0  0  0  0999 V2000
    8.0255  -16.5473   18.0075 C   0  0  0  0  0  0  0  0  0  0  0  0
    8.5535  -15.2047   17.5514 C   0  0  1  0  0  0  0  0  0  0  0  0
    8.2838  -15.0238   16.2065 O   0  0  0  0  0  0  0  0  0  0  0  0
    7.9723  -14.0854   18.4035 C   0  0  2  0  0  0  0  0  0  0  0  0
    8.2763  -12.8200   17.7676 N   0  0  0  0  0  0  0  0  0  0  0  0
    8.5334  -14.1840   19.7627 C   0  0  0  0  0  0  0  0  0  0  0  0
    9.7656  -13.9823   19.8977 O   0  0  0  0  0  0  0  0  0  0  0  0
    6.3807  -15.7483   23.1004 O   0  0  0  0  0  0  0  0  0  0  0  0
    7.2415  -14.7001   23.3059 C   0  0  0  0  0  0  0  0  0  0  0  0
    8.2903  -14.5593   22.2411 C   0  0  2  0  0  0  0  0  0  0  0  0
    7.7667  -14.4908   20.9134 N   0  0  0  0  0  0  0  0  0  0  0  0
    9.2464  -15.6836   22.3686 C   0  0  0  0  0  0  0  0  0  0  0  0
    9.0927  -16.7268   21.6841 O   0  0  0  0  0  0  0  0  0  0  0  0
   10.3461  -15.6280   23.2469 N   0  0  0  0  0  0  0  0  0  0  0  0
   11.2296  -16.8703   23.3881 C   0  0  1  0  0  0  0  0  0  0  0  0
   12.5964  -16.3215   23.3727 C   0  0  0  0  0  0  0  0  0  0  0  0
   13.7572  -17.1809   23.1753 C   0  0  0  0  0  0  0  0  0  0  0  0
   14.8508  -16.6822   22.3292 C   0  0  0  0  0  0  0  0  0  0  0  0
   15.8895  -17.8126   22.0967 C   0  0  0  0  0  0  0  0  0  0  0  0
   16.8977  -17.3197   21.2088 N   0  0  0  0  0  0  0  0  0  0  0  0
   10.7731  -17.3837   24.7017 C   0  0  0  0  0  0  0  0  0  0  0  0
    9.9091  -16.7936   25.5880 O   0  0  0  0  0  0  0  0  0  0  0  0
   11.2308  -18.5175   25.0855 O   0  0  0  0  0  0  0  0  0  0  0  0
  2  1  1  1
  2  4  1  0
  3  2  1  0
  4  5  1  6
  6  4  1  0
  6  7  2  0
  8  9  1  0
 10  9  1  1
 10 11  1  0
 10 12  1  0
 11  6  1  0
 12 14  1  0
 13 12  2  0
 14 15  1  0
 15 21  1  0
 16 17  1  0
 15 16  1  1
 18 19  1  0
 18 17  1  0
 20 19  1  0
 21 23  2  0
 21 22  1  0
M  END
$$$$
