TSK.pdb
     RDKit          3D

 23 22  0  0  1  0  0  0  0  0999 V2000
    6.8185  -18.8788   20.3605 C   0  0  0  0  0  0  0  0  0  0  0  0
    7.4287  -18.7733   18.9799 C   0  0  1  0  0  0  0  0  0  0  0  0
    6.7434  -19.5894   18.0976 O   0  0  0  0  0  0  0  0  0  0  0  0
    7.4492  -17.3240   18.5150 C   0  0  2  0  0  0  0  0  0  0  0  0
    7.8598  -17.2938   17.1263 N   0  0  0  0  0  0  0  0  0  0  0  0
    8.3556  -16.5585   19.3892 C   0  0  0  0  0  0  0  0  0  0  0  0
    9.5899  -16.7436   19.2494 O   0  0  0  0  0  0  0  0  0  0  0  0
    6.9957  -14.4341   22.8463 O   0  0  0  0  0  0  0  0  0  0  0  0
    8.0789  -13.9539   22.1550 C   0  0  0  0  0  0  0  0  0  0  0  0
    8.7692  -14.9888   21.3147 C   0  0  2  0  0  0  0  0  0  0  0  0
    7.9154  -15.6349   20.3685 N   0  0  0  0  0  0  0  0  0  0  0  0
    9.3998  -15.9830   22.2138 C   0  0  0  0  0  0  0  0  0  0  0  0
    8.7220  -16.9315   22.6842 O   0  0  0  0  0  0  0  0  0  0  0  0
   10.7602  -15.9052   22.5702 N   0  0  0  0  0  0  0  0  0  0  0  0
   11.3397  -16.9945   23.4765 C   0  0  1  0  0  0  0  0  0  0  0  0
   11.8497  -17.9960   22.5244 C   0  0  0  0  0  0  0  0  0  0  0  0
   11.5944  -19.4191   22.7103 C   0  0  0  0  0  0  0  0  0  0  0  0
   12.0612  -20.3469   21.6702 C   0  0  0  0  0  0  0  0  0  0  0  0
   11.5008  -21.7682   21.9471 C   0  0  0  0  0  0  0  0  0  0  0  0
   11.8810  -22.6196   20.8617 N   0  0  0  0  0  0  0  0  0  0  0  0
   12.3814  -16.2255   24.1982 C   0  0  0  0  0  0  0  0  0  0  0  0
   12.8298  -14.9560   23.9382 O   0  0  0  0  0  0  0  0  0  0  0  0
   12.9561  -16.7956   25.1917 O   0  0  0  0  0  0  0  0  0  0  0  0
  2  1  1  1
  2  4  1  0
  3  2  1  0
  4  5  1  6
  6  4  1  0
  6  7  2  0
  8  9  1  0
 10  9  1  1
 10 11  1  0
 10 12  1  0
 11  6  1  0
 12 14  1  0
 13 12  2  0
 14 15  1  0
 15 21  1  0
 16 17  1  0
 15 16  1  6
 18 19  1  0
 18 17  1  0
 20 19  1  0
 21 23  2  0
 21 22  1  0
M  END
$$$$
