TSK.pdb
     RDKit          3D

 23 22  0  0  1  0  0  0  0  0999 V2000
    8.0254  -18.5198   16.6708 C   0  0  0  0  0  0  0  0  0  0  0  0
    8.4472  -17.9849   18.0219 C   0  0  1  0  0  0  0  0  0  0  0  0
    9.1358  -18.9599   18.7214 O   0  0  0  0  0  0  0  0  0  0  0  0
    9.2689  -16.7139   17.8597 C   0  0  2  0  0  0  0  0  0  0  0  0
   10.4565  -17.0306   17.0933 N   0  0  0  0  0  0  0  0  0  0  0  0
    9.5847  -16.1798   19.1964 C   0  0  0  0  0  0  0  0  0  0  0  0
   10.7222  -16.4291   19.6669 O   0  0  0  0  0  0  0  0  0  0  0  0
    6.6205  -14.7027   21.9117 O   0  0  0  0  0  0  0  0  0  0  0  0
    7.8540  -14.1033   21.8823 C   0  0  0  0  0  0  0  0  0  0  0  0
    8.9362  -14.9713   21.3086 C   0  0  2  0  0  0  0  0  0  0  0  0
    8.6848  -15.4084   19.9717 N   0  0  0  0  0  0  0  0  0  0  0  0
    9.1382  -16.1307   22.2083 C   0  0  0  0  0  0  0  0  0  0  0  0
    8.5558  -17.2206   21.9777 O   0  0  0  0  0  0  0  0  0  0  0  0
    9.9764  -16.0577   23.3379 N   0  0  0  0  0  0  0  0  0  0  0  0
   10.1108  -17.2967   24.2271 C   0  0  1  0  0  0  0  0  0  0  0  0
   11.5483  -17.6108   24.1611 C   0  0  0  0  0  0  0  0  0  0  0  0
   12.1484  -18.6084   25.0385 C   0  0  0  0  0  0  0  0  0  0  0  0
   13.6039  -18.8019   24.9716 C   0  0  0  0  0  0  0  0  0  0  0  0
   14.0097  -20.0236   25.8397 C   0  0  0  0  0  0  0  0  0  0  0  0
   15.4333  -20.1581   25.7873 N   0  0  0  0  0  0  0  0  0  0  0  0
    9.6447  -16.7544   25.5255 C   0  0  0  0  0  0  0  0  0  0  0  0
    9.4775  -15.4415   25.8842 O   0  0  0  0  0  0  0  0  0  0  0  0
    9.3594  -17.5949   26.4498 O   0  0  0  0  0  0  0  0  0  0  0  0
  2  1  1  6
  2  4  1  0
  3  2  1  0
  4  5  1  1
  6  4  1  0
  6  7  2  0
  8  9  1  0
 10  9  1  1
 10 11  1  0
 10 12  1  0
 11  6  1  0
 12 14  1  0
 13 12  2  0
 14 15  1  0
 15 21  1  0
 16 17  1  0
 15 16  1  1
 18 19  1  0
 18 17  1  0
 20 19  1  0
 21 23  2  0
 21 22  1  0
M  END
$$$$
