TSK.pdb
     RDKit          3D

 23 22  0  0  1  0  0  0  0  0999 V2000
   15.6458  -19.5843   15.1746 C   0  0  0  0  0  0  0  0  0  0  0  0
   14.8712  -19.7759   16.4603 C   0  0  1  0  0  0  0  0  0  0  0  0
   14.8587  -18.5968   17.1838 O   0  0  0  0  0  0  0  0  0  0  0  0
   13.4645  -20.2774   16.1658 C   0  0  2  0  0  0  0  0  0  0  0  0
   12.7805  -19.2812   15.3672 N   0  0  0  0  0  0  0  0  0  0  0  0
   12.7798  -20.5455   17.4430 C   0  0  0  0  0  0  0  0  0  0  0  0
   11.9261  -19.7096   17.8301 O   0  0  0  0  0  0  0  0  0  0  0  0
   13.4747  -24.0654   19.8624 O   0  0  0  0  0  0  0  0  0  0  0  0
   12.2638  -23.4232   19.8078 C   0  0  0  0  0  0  0  0  0  0  0  0
   12.3671  -21.9608   19.4848 C   0  0  2  0  0  0  0  0  0  0  0  0
   13.0293  -21.6826   18.2495 N   0  0  0  0  0  0  0  0  0  0  0  0
   13.0477  -21.2761   20.6084 C   0  0  0  0  0  0  0  0  0  0  0  0
   14.1586  -20.7157   20.4293 O   0  0  0  0  0  0  0  0  0  0  0  0
   12.4857  -21.2274   21.8990 N   0  0  0  0  0  0  0  0  0  0  0  0
   13.3228  -20.6370   23.0367 C   0  0  1  0  0  0  0  0  0  0  0  0
   12.3946  -20.6381   24.1804 C   0  0  0  0  0  0  0  0  0  0  0  0
   12.8546  -20.3417   25.5315 C   0  0  0  0  0  0  0  0  0  0  0  0
   11.8734  -20.4005   26.6244 C   0  0  0  0  0  0  0  0  0  0  0  0
   12.5609  -20.0265   27.9654 C   0  0  0  0  0  0  0  0  0  0  0  0
   11.5513  -19.9267   28.9745 N   0  0  0  0  0  0  0  0  0  0  0  0
   14.4189  -21.6318   23.1156 C   0  0  0  0  0  0  0  0  0  0  0  0
   14.3395  -22.9930   22.9704 O   0  0  0  0  0  0  0  0  0  0  0  0
   15.5996  -21.1939   23.3533 O   0  0  0  0  0  0  0  0  0  0  0  0
  2  1  1  6
  2  4  1  0
  3  2  1  0
  4  5  1  1
  6  4  1  0
  6  7  2  0
  8  9  1  0
 10  9  1  1
 10 11  1  0
 10 12  1  0
 11  6  1  0
 12 14  1  0
 13 12  2  0
 14 15  1  0
 15 21  1  0
 16 17  1  0
 15 16  1  1
 18 19  1  0
 18 17  1  0
 20 19  1  0
 21 23  2  0
 21 22  1  0
M  END
$$$$
