MFR.pdb
     RDKit          3D

 31 31  0  0  1  0  0  0  0  0999 V2000
   10.1048  -21.8227   22.6487 C   0  0  0  0  0  0  0  0  0  0  0  0
    8.6359  -22.2151   21.7059 S   0  0  0  0  0  0  0  0  0  0  0  0
    7.7637  -20.7697   21.1292 C   0  0  0  0  0  0  0  0  0  0  0  0
    8.0582  -19.4946   21.8366 C   0  0  0  0  0  0  0  0  0  0  0  0
    7.2601  -18.3291   21.3702 C   0  0  2  0  0  0  0  0  0  0  0  0
    7.4851  -18.0315   19.9718 N   0  0  0  0  0  0  0  0  0  0  0  0
    7.6461  -17.1300   22.1723 C   0  0  0  0  0  0  0  0  0  0  0  0
    8.4205  -16.2980   21.6373 O   0  0  0  0  0  0  0  0  0  0  0  0
    7.1603  -16.9280   23.4942 N   0  0  0  0  0  0  0  0  0  0  0  0
    7.5110  -15.7477   24.2025 C   0  0  1  0  0  0  0  0  0  0  0  0
    6.4379  -15.2923   25.1656 C   0  0  0  0  0  0  0  0  0  0  0  0
    6.7856  -14.0761   25.9094 C   0  0  0  0  0  0  0  0  0  0  0  0
    6.6543  -12.8091   25.3975 C   0  0  0  0  0  0  0  0  0  0  0  0
    6.9864  -11.6757   26.1135 C   0  0  0  0  0  0  0  0  0  0  0  0
    7.4639  -11.7948   27.3765 C   0  0  0  0  0  0  0  0  0  0  0  0
    7.6137  -13.0397   27.9337 C   0  0  0  0  0  0  0  0  0  0  0  0
    7.2754  -14.1674   27.2002 C   0  0  0  0  0  0  0  0  0  0  0  0
    8.8563  -15.7860   24.8301 C   0  0  0  0  0  0  0  0  0  0  0  0
    9.3673  -14.7885   25.4097 O   0  0  0  0  0  0  0  0  0  0  0  0
   14.4343  -15.0120   21.0823 N   0  0  0  0  0  0  0  0  0  0  0  0
   13.2662  -15.2636   20.3149 C   0  0  0  0  0  0  0  0  0  0  0  0
   13.1971  -14.7633   19.1229 N   0  0  0  0  0  0  0  0  0  0  0  0
   12.2153  -16.0436   20.8548 N   0  0  0  0  0  0  0  0  0  0  0  0
   12.3181  -16.5681   22.1803 C   0  0  0  0  0  0  0  0  0  0  0  0
   11.3502  -15.8680   23.1214 C   0  0  0  0  0  0  0  0  0  0  0  0
   11.8977  -16.0108   24.5213 C   0  0  0  0  0  0  0  0  0  0  0  0
   11.0213  -16.9403   25.3579 C   0  0  2  0  0  0  0  0  0  0  0  0
    9.6718  -16.9560   24.8277 N   0  0  0  0  0  0  0  0  0  0  0  0
   10.9623  -16.4892   26.7640 C   0  0  0  0  0  0  0  0  0  0  0  0
   12.0337  -16.4498   27.6397 O   0  0  0  0  0  0  0  0  0  0  0  0
    9.8499  -16.0935   27.2592 O   0  0  0  0  0  0  0  0  0  0  0  0
  1  2  1  0
  3  2  1  0
  4  3  1  0
  5  4  1  0
  5  6  1  6
  7  5  1  0
  7  8  2  0
  9  7  1  0
 10 11  1  1
 10  9  1  0
 12 11  1  0
 12 17  2  0
 13 12  1  0
 14 13  2  0
 14 15  1  0
 15 16  2  0
 16 17  1  0
 18 10  1  0
 19 18  2  0
 20 21  1  0
 21 22  2  0
 23 21  1  0
 24 23  1  0
 24 25  1  0
 25 26  1  0
 27 26  1  6
 27 28  1  0
 28 18  1  0
 29 30  1  0
 29 27  1  0
 31 29  2  0
M  END
$$$$
