MFR.pdb
     RDKit          3D

 31 31  0  0  1  0  0  0  0  0999 V2000
    7.7060  -11.7513   18.3659 C   0  0  0  0  0  0  0  0  0  0  0  0
    7.2484  -13.2661   17.5312 S   0  0  0  0  0  0  0  0  0  0  0  0
    7.3370  -14.7034   18.5843 C   0  0  0  0  0  0  0  0  0  0  0  0
    8.6064  -14.8941   19.3361 C   0  0  0  0  0  0  0  0  0  0  0  0
    8.6224  -16.0803   20.2334 C   0  0  2  0  0  0  0  0  0  0  0  0
    7.3704  -16.8060   20.2096 N   0  0  0  0  0  0  0  0  0  0  0  0
    8.8715  -15.6216   21.6327 C   0  0  0  0  0  0  0  0  0  0  0  0
   10.0259  -15.2132   21.9132 O   0  0  0  0  0  0  0  0  0  0  0  0
    7.8462  -15.6423   22.6188 N   0  0  0  0  0  0  0  0  0  0  0  0
    8.0964  -15.1025   23.9087 C   0  0  1  0  0  0  0  0  0  0  0  0
    6.8843  -14.4349   24.5183 C   0  0  0  0  0  0  0  0  0  0  0  0
    7.1639  -13.7309   25.7750 C   0  0  0  0  0  0  0  0  0  0  0  0
    7.0171  -12.3753   25.9351 C   0  0  0  0  0  0  0  0  0  0  0  0
    7.2848  -11.7303   27.1266 C   0  0  0  0  0  0  0  0  0  0  0  0
    7.7114  -12.4450   28.1965 C   0  0  0  0  0  0  0  0  0  0  0  0
    7.8741  -13.8030   28.0876 C   0  0  0  0  0  0  0  0  0  0  0  0
    7.6007  -14.4347   26.8832 C   0  0  0  0  0  0  0  0  0  0  0  0
    8.7586  -16.0420   24.8489 C   0  0  0  0  0  0  0  0  0  0  0  0
    8.1153  -16.8632   25.5587 O   0  0  0  0  0  0  0  0  0  0  0  0
   13.8111  -14.5782   21.0793 N   0  0  0  0  0  0  0  0  0  0  0  0
   14.8321  -14.7902   22.0432 C   0  0  0  0  0  0  0  0  0  0  0  0
   16.0330  -14.3987   21.7594 N   0  0  0  0  0  0  0  0  0  0  0  0
   14.5267  -15.4141   23.2767 N   0  0  0  0  0  0  0  0  0  0  0  0
   13.1697  -15.7054   23.6176 C   0  0  0  0  0  0  0  0  0  0  0  0
   13.0755  -16.3253   25.0031 C   0  0  0  0  0  0  0  0  0  0  0  0
   12.1488  -17.5134   24.9047 C   0  0  0  0  0  0  0  0  0  0  0  0
   10.8277  -17.2357   25.6184 C   0  0  2  0  0  0  0  0  0  0  0  0
   10.1739  -16.0891   25.0180 N   0  0  0  0  0  0  0  0  0  0  0  0
   11.0500  -16.9459   27.0504 C   0  0  0  0  0  0  0  0  0  0  0  0
   11.4725  -17.8621   27.9984 O   0  0  0  0  0  0  0  0  0  0  0  0
   10.8476  -15.7642   27.4995 O   0  0  0  0  0  0  0  0  0  0  0  0
  1  2  1  0
  3  2  1  0
  4  3  1  0
  5  4  1  0
  5  6  1  1
  7  5  1  0
  7  8  2  0
  9  7  1  0
 10 11  1  1
 10  9  1  0
 12 11  1  0
 12 17  2  0
 13 12  1  0
 14 13  2  0
 14 15  1  0
 15 16  2  0
 16 17  1  0
 18 10  1  0
 19 18  2  0
 20 21  1  0
 21 22  2  0
 23 21  1  0
 24 23  1  0
 24 25  1  0
 25 26  1  0
 27 26  1  6
 27 28  1  0
 28 18  1  0
 29 30  1  0
 29 27  1  0
 31 29  2  0
M  END
$$$$
