MFR.pdb
     RDKit          3D

 31 31  0  0  1  0  0  0  0  0999 V2000
    8.5003  -12.0560   17.5529 C   0  0  0  0  0  0  0  0  0  0  0  0
    7.6189  -13.5505   17.1170 S   0  0  0  0  0  0  0  0  0  0  0  0
    7.9113  -14.8955   18.2521 C   0  0  0  0  0  0  0  0  0  0  0  0
    9.0967  -14.7636   19.1411 C   0  0  0  0  0  0  0  0  0  0  0  0
    9.2478  -15.8572   20.1380 C   0  0  2  0  0  0  0  0  0  0  0  0
    8.1328  -16.7797   20.1169 N   0  0  0  0  0  0  0  0  0  0  0  0
    9.3326  -15.2559   21.5024 C   0  0  0  0  0  0  0  0  0  0  0  0
   10.3159  -14.5144   21.7503 O   0  0  0  0  0  0  0  0  0  0  0  0
    8.3418  -15.5073   22.4920 N   0  0  0  0  0  0  0  0  0  0  0  0
    8.4242  -14.8601   23.7538 C   0  0  1  0  0  0  0  0  0  0  0  0
    7.1031  -14.8208   24.4883 C   0  0  0  0  0  0  0  0  0  0  0  0
    7.1341  -14.0285   25.7231 C   0  0  0  0  0  0  0  0  0  0  0  0
    6.7304  -12.7183   25.7952 C   0  0  0  0  0  0  0  0  0  0  0  0
    6.7664  -11.9888   26.9673 C   0  0  0  0  0  0  0  0  0  0  0  0
    7.2151  -12.5698   28.1069 C   0  0  0  0  0  0  0  0  0  0  0  0
    7.6300  -13.8774   28.0872 C   0  0  0  0  0  0  0  0  0  0  0  0
    7.5873  -14.5954   26.9010 C   0  0  0  0  0  0  0  0  0  0  0  0
    9.5373  -15.3344   24.6148 C   0  0  0  0  0  0  0  0  0  0  0  0
    9.7000  -14.9355   25.8007 O   0  0  0  0  0  0  0  0  0  0  0  0
    9.3614  -19.9723   30.5787 N   0  0  0  0  0  0  0  0  0  0  0  0
   10.7754  -19.9307   30.4542 C   0  0  0  0  0  0  0  0  0  0  0  0
   11.4905  -20.2956   31.4698 N   0  0  0  0  0  0  0  0  0  0  0  0
   11.3701  -19.4997   29.2439 N   0  0  0  0  0  0  0  0  0  0  0  0
   10.5774  -18.8577   28.2430 C   0  0  0  0  0  0  0  0  0  0  0  0
   11.3674  -18.6713   26.9569 C   0  0  0  0  0  0  0  0  0  0  0  0
   10.5019  -17.8805   26.0053 C   0  0  0  0  0  0  0  0  0  0  0  0
   11.3548  -16.9958   25.0988 C   0  0  2  0  0  0  0  0  0  0  0  0
   10.5055  -16.2805   24.1663 N   0  0  0  0  0  0  0  0  0  0  0  0
   12.3176  -17.8051   24.3228 C   0  0  0  0  0  0  0  0  0  0  0  0
   12.1131  -18.2838   23.0400 O   0  0  0  0  0  0  0  0  0  0  0  0
   13.4481  -18.1157   24.8373 O   0  0  0  0  0  0  0  0  0  0  0  0
  1  2  1  0
  3  2  1  0
  4  3  1  0
  5  4  1  0
  5  6  1  1
  7  5  1  0
  7  8  2  0
  9  7  1  0
 10 11  1  1
 10  9  1  0
 12 11  1  0
 12 17  2  0
 13 12  1  0
 14 13  2  0
 14 15  1  0
 15 16  2  0
 16 17  1  0
 18 10  1  0
 19 18  2  0
 20 21  1  0
 21 22  2  0
 23 21  1  0
 24 23  1  0
 24 25  1  0
 25 26  1  0
 27 26  1  6
 27 28  1  0
 28 18  1  0
 29 30  1  0
 29 27  1  0
 31 29  2  0
M  END
$$$$
