MFR.pdb
     RDKit          3D

 31 31  0  0  1  0  0  0  0  0999 V2000
    7.9369  -11.8800   18.3215 C   0  0  0  0  0  0  0  0  0  0  0  0
    6.8800  -13.3071   18.1054 S   0  0  0  0  0  0  0  0  0  0  0  0
    7.2964  -14.6610   19.1901 C   0  0  0  0  0  0  0  0  0  0  0  0
    8.6825  -15.1904   19.0834 C   0  0  0  0  0  0  0  0  0  0  0  0
    9.0088  -16.2712   20.0520 C   0  0  2  0  0  0  0  0  0  0  0  0
    7.9743  -17.2810   20.1197 N   0  0  0  0  0  0  0  0  0  0  0  0
    9.1653  -15.6690   21.4097 C   0  0  0  0  0  0  0  0  0  0  0  0
   10.1285  -14.8827   21.5888 O   0  0  0  0  0  0  0  0  0  0  0  0
    8.2626  -15.9684   22.4678 N   0  0  0  0  0  0  0  0  0  0  0  0
    8.3387  -15.2435   23.6870 C   0  0  1  0  0  0  0  0  0  0  0  0
    6.9847  -14.8263   24.2152 C   0  0  0  0  0  0  0  0  0  0  0  0
    7.0508  -13.9205   25.3678 C   0  0  0  0  0  0  0  0  0  0  0  0
    7.2421  -12.5654   25.2589 C   0  0  0  0  0  0  0  0  0  0  0  0
    7.3010  -11.7285   26.3560 C   0  0  0  0  0  0  0  0  0  0  0  0
    7.1668  -12.2441   27.6024 C   0  0  0  0  0  0  0  0  0  0  0  0
    6.9737  -13.5928   27.7645 C   0  0  0  0  0  0  0  0  0  0  0  0
    6.9173  -14.4189   26.6516 C   0  0  0  0  0  0  0  0  0  0  0  0
    9.1809  -15.8833   24.7294 C   0  0  0  0  0  0  0  0  0  0  0  0
    8.9246  -17.0215   25.2096 O   0  0  0  0  0  0  0  0  0  0  0  0
   12.4284  -18.9903   30.1074 N   0  0  0  0  0  0  0  0  0  0  0  0
   11.3414  -18.5253   30.8939 C   0  0  0  0  0  0  0  0  0  0  0  0
   10.6983  -19.3839   31.6186 N   0  0  0  0  0  0  0  0  0  0  0  0
   10.9847  -17.1553   30.8744 N   0  0  0  0  0  0  0  0  0  0  0  0
   11.3526  -16.3332   29.7648 C   0  0  0  0  0  0  0  0  0  0  0  0
   11.1917  -17.0835   28.4519 C   0  0  0  0  0  0  0  0  0  0  0  0
   10.4108  -16.1932   27.5151 C   0  0  0  0  0  0  0  0  0  0  0  0
   11.1925  -15.9351   26.2290 C   0  0  2  0  0  0  0  0  0  0  0  0
   10.3466  -15.2596   25.2643 N   0  0  0  0  0  0  0  0  0  0  0  0
   11.6594  -17.2027   25.6295 C   0  0  0  0  0  0  0  0  0  0  0  0
   10.9356  -18.3818   25.5807 O   0  0  0  0  0  0  0  0  0  0  0  0
   12.8233  -17.2655   25.0998 O   0  0  0  0  0  0  0  0  0  0  0  0
  1  2  1  0
  3  2  1  0
  4  3  1  0
  5  4  1  0
  5  6  1  1
  7  5  1  0
  7  8  2  0
  9  7  1  0
 10 11  1  1
 10  9  1  0
 12 11  1  0
 12 17  2  0
 13 12  1  0
 14 13  2  0
 14 15  1  0
 15 16  2  0
 16 17  1  0
 18 10  1  0
 19 18  2  0
 20 21  1  0
 21 22  2  0
 23 21  1  0
 24 23  1  0
 24 25  1  0
 25 26  1  0
 27 26  1  1
 27 28  1  0
 28 18  1  0
 29 30  1  0
 29 27  1  0
 31 29  2  0
M  END
$$$$
