MFR.pdb
     RDKit          3D

 31 31  0  0  1  0  0  0  0  0999 V2000
   10.0412  -13.7501   29.0591 C   0  0  0  0  0  0  0  0  0  0  0  0
   10.8460  -15.2876   29.4937 S   0  0  0  0  0  0  0  0  0  0  0  0
   10.0535  -16.7205   28.7857 C   0  0  0  0  0  0  0  0  0  0  0  0
    8.9420  -16.4572   27.8327 C   0  0  0  0  0  0  0  0  0  0  0  0
    8.9959  -17.2599   26.5815 C   0  0  2  0  0  0  0  0  0  0  0  0
   10.3331  -17.3361   26.0331 N   0  0  0  0  0  0  0  0  0  0  0  0
    8.1076  -16.6238   25.5634 C   0  0  0  0  0  0  0  0  0  0  0  0
    6.8667  -16.7319   25.7266 O   0  0  0  0  0  0  0  0  0  0  0  0
    8.6369  -15.9194   24.4464 N   0  0  0  0  0  0  0  0  0  0  0  0
    7.7580  -15.3946   23.4616 C   0  0  1  0  0  0  0  0  0  0  0  0
    7.7328  -13.8830   23.4332 C   0  0  0  0  0  0  0  0  0  0  0  0
    7.4362  -13.2701   24.7331 C   0  0  0  0  0  0  0  0  0  0  0  0
    8.2763  -12.3879   25.3662 C   0  0  0  0  0  0  0  0  0  0  0  0
    7.9794  -11.8205   26.5899 C   0  0  0  0  0  0  0  0  0  0  0  0
    6.8156  -12.1328   27.2107 C   0  0  0  0  0  0  0  0  0  0  0  0
    5.9419  -13.0098   26.6190 C   0  0  0  0  0  0  0  0  0  0  0  0
    6.2560  -13.5705   25.3897 C   0  0  0  0  0  0  0  0  0  0  0  0
    7.9300  -15.9839   22.1094 C   0  0  0  0  0  0  0  0  0  0  0  0
    7.3990  -17.0766   21.7689 O   0  0  0  0  0  0  0  0  0  0  0  0
    7.2687  -13.5252   14.4151 N   0  0  0  0  0  0  0  0  0  0  0  0
    7.2312  -14.4287   15.5101 C   0  0  0  0  0  0  0  0  0  0  0  0
    7.0845  -15.6901   15.2585 N   0  0  0  0  0  0  0  0  0  0  0  0
    7.3535  -13.9453   16.8351 N   0  0  0  0  0  0  0  0  0  0  0  0
    8.6379  -13.8737   17.4578 C   0  0  0  0  0  0  0  0  0  0  0  0
    9.1922  -15.2638   17.7280 C   0  0  0  0  0  0  0  0  0  0  0  0
    9.9762  -15.1953   19.0166 C   0  0  0  0  0  0  0  0  0  0  0  0
    9.3817  -16.1301   20.0675 C   0  0  2  0  0  0  0  0  0  0  0  0
    8.7070  -15.3562   21.0914 N   0  0  0  0  0  0  0  0  0  0  0  0
   10.4364  -16.9374   20.7156 C   0  0  0  0  0  0  0  0  0  0  0  0
   10.8475  -16.8130   22.0316 O   0  0  0  0  0  0  0  0  0  0  0  0
   11.0503  -17.8388   20.0448 O   0  0  0  0  0  0  0  0  0  0  0  0
  1  2  1  0
  3  2  1  0
  4  3  1  0
  5  4  1  0
  5  6  1  6
  7  5  1  0
  7  8  2  0
  9  7  1  0
 10 11  1  6
 10  9  1  0
 12 11  1  0
 12 17  2  0
 13 12  1  0
 14 13  2  0
 14 15  1  0
 15 16  2  0
 16 17  1  0
 18 10  1  0
 19 18  2  0
 20 21  1  0
 21 22  2  0
 23 21  1  0
 24 23  1  0
 24 25  1  0
 25 26  1  0
 27 26  1  6
 27 28  1  0
 28 18  1  0
 29 30  1  0
 29 27  1  0
 31 29  2  0
M  END
$$$$
