MFR.pdb
     RDKit          3D

 31 31  0  0  1  0  0  0  0  0999 V2000
    7.3060  -10.9292   18.9368 C   0  0  0  0  0  0  0  0  0  0  0  0
    6.1893  -12.2471   18.4713 S   0  0  0  0  0  0  0  0  0  0  0  0
    6.6825  -13.8417   19.1013 C   0  0  0  0  0  0  0  0  0  0  0  0
    7.3838  -13.8455   20.4132 C   0  0  0  0  0  0  0  0  0  0  0  0
    7.7224  -15.1985   20.9304 C   0  0  2  0  0  0  0  0  0  0  0  0
    6.5466  -16.0101   21.1614 N   0  0  0  0  0  0  0  0  0  0  0  0
    8.4509  -15.0498   22.2256 C   0  0  0  0  0  0  0  0  0  0  0  0
    9.5763  -14.4922   22.1983 O   0  0  0  0  0  0  0  0  0  0  0  0
    7.8996  -15.5188   23.4504 N   0  0  0  0  0  0  0  0  0  0  0  0
    8.6486  -15.4031   24.6518 C   0  0  1  0  0  0  0  0  0  0  0  0
    7.7805  -15.2453   25.8798 C   0  0  0  0  0  0  0  0  0  0  0  0
    8.5248  -14.8752   27.0890 C   0  0  0  0  0  0  0  0  0  0  0  0
    8.7874  -13.5774   27.4519 C   0  0  0  0  0  0  0  0  0  0  0  0
    9.4896  -13.2486   28.5948 C   0  0  0  0  0  0  0  0  0  0  0  0
    9.9483  -14.2315   29.4077 C   0  0  0  0  0  0  0  0  0  0  0  0
    9.7120  -15.5449   29.0890 C   0  0  0  0  0  0  0  0  0  0  0  0
    9.0051  -15.8573   27.9370 C   0  0  0  0  0  0  0  0  0  0  0  0
    9.6928  -16.4445   24.8263 C   0  0  0  0  0  0  0  0  0  0  0  0
    9.4194  -17.6688   24.9611 O   0  0  0  0  0  0  0  0  0  0  0  0
   15.8238  -14.0888   19.7622 N   0  0  0  0  0  0  0  0  0  0  0  0
   14.4749  -14.5318   19.7326 C   0  0  0  0  0  0  0  0  0  0  0  0
   14.0016  -14.9788   18.6137 N   0  0  0  0  0  0  0  0  0  0  0  0
   13.6837  -14.4796   20.9054 N   0  0  0  0  0  0  0  0  0  0  0  0
   14.0584  -15.2358   22.0588 C   0  0  0  0  0  0  0  0  0  0  0  0
   12.8772  -16.0246   22.6023 C   0  0  0  0  0  0  0  0  0  0  0  0
   13.2947  -16.6050   23.9322 C   0  0  0  0  0  0  0  0  0  0  0  0
   12.0910  -17.1700   24.6831 C   0  0  2  0  0  0  0  0  0  0  0  0
   11.0856  -16.1388   24.8512 N   0  0  0  0  0  0  0  0  0  0  0  0
   12.4833  -17.6582   26.0217 C   0  0  0  0  0  0  0  0  0  0  0  0
   12.7595  -16.8594   27.1180 O   0  0  0  0  0  0  0  0  0  0  0  0
   12.5909  -18.9162   26.2340 O   0  0  0  0  0  0  0  0  0  0  0  0
  1  2  1  0
  3  2  1  0
  4  3  1  0
  5  4  1  0
  5  6  1  1
  7  5  1  0
  7  8  2  0
  9  7  1  0
 10 11  1  1
 10  9  1  0
 12 11  1  0
 12 17  2  0
 13 12  1  0
 14 13  2  0
 14 15  1  0
 15 16  2  0
 16 17  1  0
 18 10  1  0
 19 18  2  0
 20 21  1  0
 21 22  2  0
 23 21  1  0
 24 23  1  0
 24 25  1  0
 25 26  1  0
 27 26  1  1
 27 28  1  0
 28 18  1  0
 29 30  1  0
 29 27  1  0
 31 29  2  0
M  END
$$$$
