MFR.pdb
     RDKit          3D

 31 31  0  0  1  0  0  0  0  0999 V2000
    8.5540  -11.2369   19.8595 C   0  0  0  0  0  0  0  0  0  0  0  0
    7.1946  -12.3123   19.4167 S   0  0  0  0  0  0  0  0  0  0  0  0
    7.1756  -13.8382   20.3409 C   0  0  0  0  0  0  0  0  0  0  0  0
    8.2896  -14.7868   20.0726 C   0  0  0  0  0  0  0  0  0  0  0  0
    8.2190  -16.0583   20.8415 C   0  0  2  0  0  0  0  0  0  0  0  0
    6.8561  -16.4635   21.1119 N   0  0  0  0  0  0  0  0  0  0  0  0
    8.9197  -15.8705   22.1469 C   0  0  0  0  0  0  0  0  0  0  0  0
   10.1530  -15.6337   22.1152 O   0  0  0  0  0  0  0  0  0  0  0  0
    8.2254  -15.9547   23.3858 N   0  0  0  0  0  0  0  0  0  0  0  0
    8.9294  -15.7601   24.6042 C   0  0  1  0  0  0  0  0  0  0  0  0
    8.1247  -15.0098   25.6415 C   0  0  0  0  0  0  0  0  0  0  0  0
    8.8802  -14.6835   26.8564 C   0  0  0  0  0  0  0  0  0  0  0  0
    9.3374  -13.4230   27.1510 C   0  0  0  0  0  0  0  0  0  0  0  0
   10.0467  -13.1351   28.3005 C   0  0  0  0  0  0  0  0  0  0  0  0
   10.3145  -14.1223   29.1899 C   0  0  0  0  0  0  0  0  0  0  0  0
    9.8792  -15.3996   28.9413 C   0  0  0  0  0  0  0  0  0  0  0  0
    9.1682  -15.6711   27.7816 C   0  0  0  0  0  0  0  0  0  0  0  0
    9.5562  -16.9892   25.1535 C   0  0  0  0  0  0  0  0  0  0  0  0
    8.8896  -18.0145   25.4639 O   0  0  0  0  0  0  0  0  0  0  0  0
   13.7067  -20.9519   20.5573 N   0  0  0  0  0  0  0  0  0  0  0  0
   12.8834  -19.9065   20.0614 C   0  0  0  0  0  0  0  0  0  0  0  0
   12.5437  -19.9346   18.8125 N   0  0  0  0  0  0  0  0  0  0  0  0
   12.4541  -18.8696   20.9245 N   0  0  0  0  0  0  0  0  0  0  0  0
   13.0067  -18.7529   22.2373 C   0  0  0  0  0  0  0  0  0  0  0  0
   11.9337  -18.9339   23.2997 C   0  0  0  0  0  0  0  0  0  0  0  0
   12.5963  -18.7613   24.6454 C   0  0  0  0  0  0  0  0  0  0  0  0
   11.5741  -18.3730   25.7113 C   0  0  2  0  0  0  0  0  0  0  0  0
   10.9613  -17.1043   25.3685 N   0  0  0  0  0  0  0  0  0  0  0  0
   12.2158  -18.2357   27.0355 C   0  0  0  0  0  0  0  0  0  0  0  0
   12.6198  -17.0435   27.6116 O   0  0  0  0  0  0  0  0  0  0  0  0
   12.4383  -19.2772   27.7459 O   0  0  0  0  0  0  0  0  0  0  0  0
  1  2  1  0
  3  2  1  0
  4  3  1  0
  5  4  1  0
  5  6  1  1
  7  5  1  0
  7  8  2  0
  9  7  1  0
 10 11  1  1
 10  9  1  0
 12 11  1  0
 12 17  2  0
 13 12  1  0
 14 13  2  0
 14 15  1  0
 15 16  2  0
 16 17  1  0
 18 10  1  0
 19 18  2  0
 20 21  1  0
 21 22  2  0
 23 21  1  0
 24 23  1  0
 24 25  1  0
 25 26  1  0
 27 26  1  6
 27 28  1  0
 28 18  1  0
 29 30  1  0
 29 27  1  0
 31 29  2  0
M  END
$$$$
