MFR.pdb
     RDKit          3D

 31 31  0  0  1  0  0  0  0  0999 V2000
    7.6757  -12.1066   17.7623 C   0  0  0  0  0  0  0  0  0  0  0  0
    7.9757  -13.6090   16.8385 S   0  0  0  0  0  0  0  0  0  0  0  0
    8.4506  -14.9852   17.8696 C   0  0  0  0  0  0  0  0  0  0  0  0
    8.8717  -14.6559   19.2579 C   0  0  0  0  0  0  0  0  0  0  0  0
    9.1416  -15.8378   20.1199 C   0  0  2  0  0  0  0  0  0  0  0  0
    8.0842  -16.8235   20.0501 N   0  0  0  0  0  0  0  0  0  0  0  0
    9.2642  -15.3818   21.5367 C   0  0  0  0  0  0  0  0  0  0  0  0
   10.3587  -14.8777   21.8919 O   0  0  0  0  0  0  0  0  0  0  0  0
    8.1875  -15.5090   22.4579 N   0  0  0  0  0  0  0  0  0  0  0  0
    8.3253  -15.0053   23.7789 C   0  0  1  0  0  0  0  0  0  0  0  0
    7.1915  -14.0920   24.1873 C   0  0  0  0  0  0  0  0  0  0  0  0
    7.3381  -13.5305   25.5351 C   0  0  0  0  0  0  0  0  0  0  0  0
    6.6131  -13.9588   26.6193 C   0  0  0  0  0  0  0  0  0  0  0  0
    6.7656  -13.4181   27.8810 C   0  0  0  0  0  0  0  0  0  0  0  0
    7.6628  -12.4219   28.0812 C   0  0  0  0  0  0  0  0  0  0  0  0
    8.4121  -11.9585   27.0294 C   0  0  0  0  0  0  0  0  0  0  0  0
    8.2459  -12.5129   25.7687 C   0  0  0  0  0  0  0  0  0  0  0  0
    8.6158  -16.0407   24.8029 C   0  0  0  0  0  0  0  0  0  0  0  0
    7.7825  -16.9301   25.1291 O   0  0  0  0  0  0  0  0  0  0  0  0
   10.6958  -20.1334   21.8715 N   0  0  0  0  0  0  0  0  0  0  0  0
   12.0802  -19.8228   21.8138 C   0  0  0  0  0  0  0  0  0  0  0  0
   12.6378  -19.7249   20.6496 N   0  0  0  0  0  0  0  0  0  0  0  0
   12.8154  -19.6278   23.0079 N   0  0  0  0  0  0  0  0  0  0  0  0
   12.1403  -19.5746   24.2663 C   0  0  0  0  0  0  0  0  0  0  0  0
   11.4111  -18.2513   24.4396 C   0  0  0  0  0  0  0  0  0  0  0  0
   11.4830  -17.8836   25.9023 C   0  0  0  0  0  0  0  0  0  0  0  0
   10.1855  -17.2235   26.3634 C   0  0  2  0  0  0  0  0  0  0  0  0
    9.8618  -16.1097   25.4933 N   0  0  0  0  0  0  0  0  0  0  0  0
   10.3131  -16.7119   27.7440 C   0  0  0  0  0  0  0  0  0  0  0  0
   10.6984  -15.4285   28.0918 O   0  0  0  0  0  0  0  0  0  0  0  0
   10.0580  -17.4822   28.7344 O   0  0  0  0  0  0  0  0  0  0  0  0
  1  2  1  0
  3  2  1  0
  4  3  1  0
  5  4  1  0
  5  6  1  1
  7  5  1  0
  7  8  2  0
  9  7  1  0
 10 11  1  1
 10  9  1  0
 12 11  1  0
 12 17  2  0
 13 12  1  0
 14 13  2  0
 14 15  1  0
 15 16  2  0
 16 17  1  0
 18 10  1  0
 19 18  2  0
 20 21  1  0
 21 22  2  0
 23 21  1  0
 24 23  1  0
 24 25  1  0
 25 26  1  0
 27 26  1  6
 27 28  1  0
 28 18  1  0
 29 30  1  0
 29 27  1  0
 31 29  2  0
M  END
$$$$
