MFR.pdb
     RDKit          3D

 31 31  0  0  1  0  0  0  0  0999 V2000
    7.5360  -11.2040   19.2422 C   0  0  0  0  0  0  0  0  0  0  0  0
    6.6751  -12.5826   18.4946 S   0  0  0  0  0  0  0  0  0  0  0  0
    7.1100  -14.1563   19.2134 C   0  0  0  0  0  0  0  0  0  0  0  0
    7.8671  -14.1113   20.4932 C   0  0  0  0  0  0  0  0  0  0  0  0
    8.2130  -15.4443   21.0553 C   0  0  2  0  0  0  0  0  0  0  0  0
    7.0674  -16.3259   21.1272 N   0  0  0  0  0  0  0  0  0  0  0  0
    8.7493  -15.2593   22.4367 C   0  0  0  0  0  0  0  0  0  0  0  0
    9.8785  -14.7217   22.5542 O   0  0  0  0  0  0  0  0  0  0  0  0
    8.0164  -15.6733   23.5838 N   0  0  0  0  0  0  0  0  0  0  0  0
    8.6148  -15.5955   24.8697 C   0  0  1  0  0  0  0  0  0  0  0  0
    7.6075  -15.4203   25.9837 C   0  0  0  0  0  0  0  0  0  0  0  0
    7.1333  -14.0408   26.1432 C   0  0  0  0  0  0  0  0  0  0  0  0
    7.9556  -12.9860   26.4529 C   0  0  0  0  0  0  0  0  0  0  0  0
    7.4906  -11.6937   26.5984 C   0  0  0  0  0  0  0  0  0  0  0  0
    6.1710  -11.4318   26.4330 C   0  0  0  0  0  0  0  0  0  0  0  0
    5.3076  -12.4520   26.1227 C   0  0  0  0  0  0  0  0  0  0  0  0
    5.7917  -13.7442   25.9804 C   0  0  0  0  0  0  0  0  0  0  0  0
    9.5947  -16.6739   25.1564 C   0  0  0  0  0  0  0  0  0  0  0  0
    9.3119  -17.8988   25.0492 O   0  0  0  0  0  0  0  0  0  0  0  0
   17.4198  -16.0591   22.2869 N   0  0  0  0  0  0  0  0  0  0  0  0
   16.0323  -15.8329   22.0861 C   0  0  0  0  0  0  0  0  0  0  0  0
   15.6753  -14.9921   21.1687 N   0  0  0  0  0  0  0  0  0  0  0  0
   15.0786  -16.5181   22.8769 N   0  0  0  0  0  0  0  0  0  0  0  0
   15.4924  -17.2294   24.0453 C   0  0  0  0  0  0  0  0  0  0  0  0
   14.3050  -17.8798   24.7381 C   0  0  0  0  0  0  0  0  0  0  0  0
   13.1896  -16.8626   24.7738 C   0  0  0  0  0  0  0  0  0  0  0  0
   11.9665  -17.4191   25.4990 C   0  0  2  0  0  0  0  0  0  0  0  0
   10.9323  -16.4054   25.5720 N   0  0  0  0  0  0  0  0  0  0  0  0
   12.3096  -17.8320   26.8759 C   0  0  0  0  0  0  0  0  0  0  0  0
   11.7567  -17.3084   28.0320 O   0  0  0  0  0  0  0  0  0  0  0  0
   13.1861  -18.7456   27.0667 O   0  0  0  0  0  0  0  0  0  0  0  0
  1  2  1  0
  3  2  1  0
  4  3  1  0
  5  4  1  0
  5  6  1  1
  7  5  1  0
  7  8  2  0
  9  7  1  0
 10 11  1  1
 10  9  1  0
 12 11  1  0
 12 17  2  0
 13 12  1  0
 14 13  2  0
 14 15  1  0
 15 16  2  0
 16 17  1  0
 18 10  1  0
 19 18  2  0
 20 21  1  0
 21 22  2  0
 23 21  1  0
 24 23  1  0
 24 25  1  0
 25 26  1  0
 27 26  1  1
 27 28  1  0
 28 18  1  0
 29 30  1  0
 29 27  1  0
 31 29  2  0
M  END
$$$$
