MFR.pdb
     RDKit          3D

 31 31  0  0  1  0  0  0  0  0999 V2000
    8.2704  -20.5712   17.8856 C   0  0  0  0  0  0  0  0  0  0  0  0
    6.9778  -19.4346   18.3732 S   0  0  0  0  0  0  0  0  0  0  0  0
    7.4816  -17.7247   18.3020 C   0  0  0  0  0  0  0  0  0  0  0  0
    7.9645  -17.1248   19.5748 C   0  0  0  0  0  0  0  0  0  0  0  0
    8.3477  -15.6909   19.4773 C   0  0  2  0  0  0  0  0  0  0  0  0
    9.5267  -15.4899   18.6624 N   0  0  0  0  0  0  0  0  0  0  0  0
    8.6331  -15.1750   20.8495 C   0  0  0  0  0  0  0  0  0  0  0  0
    9.7509  -15.4498   21.3524 O   0  0  0  0  0  0  0  0  0  0  0  0
    7.6810  -14.4003   21.5688 N   0  0  0  0  0  0  0  0  0  0  0  0
    7.9188  -14.0769   22.9314 C   0  0  1  0  0  0  0  0  0  0  0  0
    7.0540  -12.9420   23.4320 C   0  0  0  0  0  0  0  0  0  0  0  0
    7.2003  -12.6730   24.8671 C   0  0  0  0  0  0  0  0  0  0  0  0
    6.3354  -13.1489   25.8211 C   0  0  0  0  0  0  0  0  0  0  0  0
    6.4900  -12.8854   27.1679 C   0  0  0  0  0  0  0  0  0  0  0  0
    7.5320  -12.1277   27.5891 C   0  0  0  0  0  0  0  0  0  0  0  0
    8.4247  -11.6283   26.6746 C   0  0  0  0  0  0  0  0  0  0  0  0
    8.2541  -11.9026   25.3256 C   0  0  0  0  0  0  0  0  0  0  0  0
    7.9090  -15.2441   23.8495 C   0  0  0  0  0  0  0  0  0  0  0  0
    7.0086  -16.1275   23.8201 O   0  0  0  0  0  0  0  0  0  0  0  0
   10.3162  -22.1972   24.3762 N   0  0  0  0  0  0  0  0  0  0  0  0
   10.1453  -21.6330   23.0843 C   0  0  0  0  0  0  0  0  0  0  0  0
    9.6096  -22.3664   22.1618 N   0  0  0  0  0  0  0  0  0  0  0  0
   10.5549  -20.3018   22.8301 N   0  0  0  0  0  0  0  0  0  0  0  0
   11.3080  -19.5828   23.8090 C   0  0  0  0  0  0  0  0  0  0  0  0
   10.3917  -18.9319   24.8334 C   0  0  0  0  0  0  0  0  0  0  0  0
   10.0239  -17.5652   24.3073 C   0  0  0  0  0  0  0  0  0  0  0  0
    9.2172  -16.7817   25.3403 C   0  0  2  0  0  0  0  0  0  0  0  0
    8.9200  -15.4564   24.8326 N   0  0  0  0  0  0  0  0  0  0  0  0
    9.9720  -16.6366   26.6026 C   0  0  0  0  0  0  0  0  0  0  0  0
   10.2207  -17.6520   27.5101 O   0  0  0  0  0  0  0  0  0  0  0  0
   10.4548  -15.4963   26.9279 O   0  0  0  0  0  0  0  0  0  0  0  0
  1  2  1  0
  3  2  1  0
  4  3  1  0
  5  4  1  0
  5  6  1  6
  7  5  1  0
  7  8  2  0
  9  7  1  0
 10 11  1  1
 10  9  1  0
 12 11  1  0
 12 17  2  0
 13 12  1  0
 14 13  2  0
 14 15  1  0
 15 16  2  0
 16 17  1  0
 18 10  1  0
 19 18  2  0
 20 21  1  0
 21 22  2  0
 23 21  1  0
 24 23  1  0
 24 25  1  0
 25 26  1  0
 27 26  1  6
 27 28  1  0
 28 18  1  0
 29 30  1  0
 29 27  1  0
 31 29  2  0
M  END
$$$$
