MFR.pdb
     RDKit          3D

 31 31  0  0  1  0  0  0  0  0999 V2000
    8.9822  -17.3256   17.4763 C   0  0  0  0  0  0  0  0  0  0  0  0
    7.3989  -16.5305   17.2282 S   0  0  0  0  0  0  0  0  0  0  0  0
    7.1489  -15.1164   18.2867 C   0  0  0  0  0  0  0  0  0  0  0  0
    7.7727  -15.1825   19.6356 C   0  0  0  0  0  0  0  0  0  0  0  0
    7.5004  -14.0046   20.5022 C   0  0  2  0  0  0  0  0  0  0  0  0
    8.0664  -12.7847   19.9673 N   0  0  0  0  0  0  0  0  0  0  0  0
    8.1002  -14.2487   21.8479 C   0  0  0  0  0  0  0  0  0  0  0  0
    9.3062  -13.9373   22.0114 O   0  0  0  0  0  0  0  0  0  0  0  0
    7.3425  -14.8125   22.9119 N   0  0  0  0  0  0  0  0  0  0  0  0
    8.0003  -15.2498   24.0926 C   0  0  1  0  0  0  0  0  0  0  0  0
    7.1727  -15.0495   25.3422 C   0  0  0  0  0  0  0  0  0  0  0  0
    7.0316  -13.6446   25.7414 C   0  0  0  0  0  0  0  0  0  0  0  0
    8.0663  -12.8863   26.2305 C   0  0  0  0  0  0  0  0  0  0  0  0
    7.9141  -11.5645   26.6007 C   0  0  0  0  0  0  0  0  0  0  0  0
    6.7016  -10.9696   26.4850 C   0  0  0  0  0  0  0  0  0  0  0  0
    5.6353  -11.6848   26.0014 C   0  0  0  0  0  0  0  0  0  0  0  0
    5.8059  -13.0117   25.6344 C   0  0  0  0  0  0  0  0  0  0  0  0
    8.5725  -16.6173   24.0051 C   0  0  0  0  0  0  0  0  0  0  0  0
    8.1089  -17.5028   23.2352 O   0  0  0  0  0  0  0  0  0  0  0  0
   15.8603  -18.0912   21.9221 N   0  0  0  0  0  0  0  0  0  0  0  0
   15.2142  -19.2688   21.4615 C   0  0  0  0  0  0  0  0  0  0  0  0
   15.8404  -20.3960   21.5768 N   0  0  0  0  0  0  0  0  0  0  0  0
   13.9190  -19.1937   20.8946 N   0  0  0  0  0  0  0  0  0  0  0  0
   12.9764  -18.2363   21.3817 C   0  0  0  0  0  0  0  0  0  0  0  0
   12.2789  -18.7445   22.6339 C   0  0  0  0  0  0  0  0  0  0  0  0
   11.2998  -17.6808   23.0694 C   0  0  0  0  0  0  0  0  0  0  0  0
   10.5688  -18.1002   24.3427 C   0  0  2  0  0  0  0  0  0  0  0  0
    9.6931  -17.0320   24.7838 N   0  0  0  0  0  0  0  0  0  0  0  0
   11.5254  -18.3949   25.4300 C   0  0  0  0  0  0  0  0  0  0  0  0
   12.3018  -19.5368   25.5282 O   0  0  0  0  0  0  0  0  0  0  0  0
   11.6835  -17.5551   26.3834 O   0  0  0  0  0  0  0  0  0  0  0  0
  1  2  1  0
  3  2  1  0
  4  3  1  0
  5  4  1  0
  5  6  1  6
  7  5  1  0
  7  8  2  0
  9  7  1  0
 10 11  1  1
 10  9  1  0
 12 11  1  0
 12 17  2  0
 13 12  1  0
 14 13  2  0
 14 15  1  0
 15 16  2  0
 16 17  1  0
 18 10  1  0
 19 18  2  0
 20 21  1  0
 21 22  2  0
 23 21  1  0
 24 23  1  0
 24 25  1  0
 25 26  1  0
 27 26  1  6
 27 28  1  0
 28 18  1  0
 29 30  1  0
 29 27  1  0
 31 29  2  0
M  END
$$$$
