MFR.pdb
     RDKit          3D

 31 31  0  0  1  0  0  0  0  0999 V2000
   11.2699  -20.4606   22.2244 C   0  0  0  0  0  0  0  0  0  0  0  0
   11.1532  -20.4603   20.4392 S   0  0  0  0  0  0  0  0  0  0  0  0
    9.8443  -19.4179   19.8204 C   0  0  0  0  0  0  0  0  0  0  0  0
   10.0049  -17.9554   20.0400 C   0  0  0  0  0  0  0  0  0  0  0  0
    8.7604  -17.1614   19.8573 C   0  0  2  0  0  0  0  0  0  0  0  0
    8.6787  -16.5597   18.5435 N   0  0  0  0  0  0  0  0  0  0  0  0
    8.7328  -16.0692   20.8754 C   0  0  0  0  0  0  0  0  0  0  0  0
    9.1940  -14.9501   20.5392 O   0  0  0  0  0  0  0  0  0  0  0  0
    8.2061  -16.2781   22.1804 N   0  0  0  0  0  0  0  0  0  0  0  0
    8.2831  -15.2402   23.1472 C   0  0  1  0  0  0  0  0  0  0  0  0
    6.9980  -15.0541   23.9220 C   0  0  0  0  0  0  0  0  0  0  0  0
    7.0548  -13.9753   24.9150 C   0  0  0  0  0  0  0  0  0  0  0  0
    7.1447  -14.1920   26.2677 C   0  0  0  0  0  0  0  0  0  0  0  0
    7.1978  -13.1630   27.1874 C   0  0  0  0  0  0  0  0  0  0  0  0
    7.1613  -11.8772   26.7600 C   0  0  0  0  0  0  0  0  0  0  0  0
    7.0717  -11.6078   25.4176 C   0  0  0  0  0  0  0  0  0  0  0  0
    7.0192  -12.6535   24.5076 C   0  0  0  0  0  0  0  0  0  0  0  0
    9.4729  -15.3138   24.0327 C   0  0  0  0  0  0  0  0  0  0  0  0
   10.5096  -14.6206   23.8413 O   0  0  0  0  0  0  0  0  0  0  0  0
   10.2676  -18.8825   30.4044 N   0  0  0  0  0  0  0  0  0  0  0  0
   11.5181  -18.4473   30.9176 C   0  0  0  0  0  0  0  0  0  0  0  0
   12.0943  -19.1721   31.8224 N   0  0  0  0  0  0  0  0  0  0  0  0
   12.1049  -17.2506   30.4401 N   0  0  0  0  0  0  0  0  0  0  0  0
   11.5138  -16.5482   29.3449 C   0  0  0  0  0  0  0  0  0  0  0  0
   11.6922  -17.3151   28.0439 C   0  0  0  0  0  0  0  0  0  0  0  0
   10.4384  -17.1164   27.2263 C   0  0  0  0  0  0  0  0  0  0  0  0
   10.7179  -16.2500   26.0003 C   0  0  2  0  0  0  0  0  0  0  0  0
    9.5319  -16.1727   25.1697 N   0  0  0  0  0  0  0  0  0  0  0  0
   11.8158  -16.8174   25.1899 C   0  0  0  0  0  0  0  0  0  0  0  0
   13.1283  -16.3771   25.1963 O   0  0  0  0  0  0  0  0  0  0  0  0
   11.5829  -17.7982   24.4007 O   0  0  0  0  0  0  0  0  0  0  0  0
  1  2  1  0
  3  2  1  0
  4  3  1  0
  5  4  1  0
  5  6  1  6
  7  5  1  0
  7  8  2  0
  9  7  1  0
 10 11  1  1
 10  9  1  0
 12 11  1  0
 12 17  2  0
 13 12  1  0
 14 13  2  0
 14 15  1  0
 15 16  2  0
 16 17  1  0
 18 10  1  0
 19 18  2  0
 20 21  1  0
 21 22  2  0
 23 21  1  0
 24 23  1  0
 24 25  1  0
 25 26  1  0
 27 26  1  1
 27 28  1  0
 28 18  1  0
 29 30  1  0
 29 27  1  0
 31 29  2  0
M  END
$$$$
