MFR.pdb
     RDKit          3D

 31 31  0  0  1  0  0  0  0  0999 V2000
    9.0309  -11.9117   18.7437 C   0  0  0  0  0  0  0  0  0  0  0  0
    8.0918  -13.1481   17.8550 S   0  0  0  0  0  0  0  0  0  0  0  0
    7.9922  -14.7079   18.7151 C   0  0  0  0  0  0  0  0  0  0  0  0
    9.2534  -15.2071   19.3258 C   0  0  0  0  0  0  0  0  0  0  0  0
    9.0767  -16.3410   20.2722 C   0  0  2  0  0  0  0  0  0  0  0  0
    7.8018  -17.0052   20.1043 N   0  0  0  0  0  0  0  0  0  0  0  0
    9.1520  -15.8179   21.6689 C   0  0  0  0  0  0  0  0  0  0  0  0
   10.2694  -15.4164   22.0793 O   0  0  0  0  0  0  0  0  0  0  0  0
    8.0067  -15.7716   22.5117 N   0  0  0  0  0  0  0  0  0  0  0  0
    8.0783  -15.1053   23.7642 C   0  0  1  0  0  0  0  0  0  0  0  0
    7.1005  -13.9580   23.8831 C   0  0  0  0  0  0  0  0  0  0  0  0
    7.1669  -13.2527   25.1681 C   0  0  0  0  0  0  0  0  0  0  0  0
    6.3741  -13.5610   26.2456 C   0  0  0  0  0  0  0  0  0  0  0  0
    6.4516  -12.8858   27.4479 C   0  0  0  0  0  0  0  0  0  0  0  0
    7.3404  -11.8727   27.5935 C   0  0  0  0  0  0  0  0  0  0  0  0
    8.1556  -11.5259   26.5459 C   0  0  0  0  0  0  0  0  0  0  0  0
    8.0643  -12.2146   25.3453 C   0  0  0  0  0  0  0  0  0  0  0  0
    8.0382  -16.0083   24.9424 C   0  0  0  0  0  0  0  0  0  0  0  0
    6.9855  -16.5939   25.3176 O   0  0  0  0  0  0  0  0  0  0  0  0
    6.1498  -20.4329   25.1601 N   0  0  0  0  0  0  0  0  0  0  0  0
    6.7651  -21.6208   24.6837 C   0  0  0  0  0  0  0  0  0  0  0  0
    6.3677  -22.7533   25.1689 N   0  0  0  0  0  0  0  0  0  0  0  0
    7.7838  -21.5497   23.7031 N   0  0  0  0  0  0  0  0  0  0  0  0
    8.6955  -20.4492   23.6933 C   0  0  0  0  0  0  0  0  0  0  0  0
    8.5245  -19.5869   24.9343 C   0  0  0  0  0  0  0  0  0  0  0  0
    9.6103  -18.5380   24.9092 C   0  0  0  0  0  0  0  0  0  0  0  0
    9.5268  -17.6365   26.1388 C   0  0  2  0  0  0  0  0  0  0  0  0
    9.1894  -16.2845   25.7377 N   0  0  0  0  0  0  0  0  0  0  0  0
   10.8181  -17.5989   26.8567 C   0  0  0  0  0  0  0  0  0  0  0  0
   11.9935  -17.0565   26.3660 O   0  0  0  0  0  0  0  0  0  0  0  0
   10.9074  -18.0977   28.0324 O   0  0  0  0  0  0  0  0  0  0  0  0
  1  2  1  0
  3  2  1  0
  4  3  1  0
  5  4  1  0
  5  6  1  6
  7  5  1  0
  7  8  2  0
  9  7  1  0
 10 11  1  1
 10  9  1  0
 12 11  1  0
 12 17  2  0
 13 12  1  0
 14 13  2  0
 14 15  1  0
 15 16  2  0
 16 17  1  0
 18 10  1  0
 19 18  2  0
 20 21  1  0
 21 22  2  0
 23 21  1  0
 24 23  1  0
 24 25  1  0
 25 26  1  0
 27 26  1  6
 27 28  1  0
 28 18  1  0
 29 30  1  0
 29 27  1  0
 31 29  2  0
M  END
$$$$
