MFR.pdb
     RDKit          3D

 31 31  0  0  1  0  0  0  0  0999 V2000
    5.7203  -11.9643   19.5973 C   0  0  0  0  0  0  0  0  0  0  0  0
    7.3309  -12.7409   19.5402 S   0  0  0  0  0  0  0  0  0  0  0  0
    7.4493  -14.1906   20.5732 C   0  0  0  0  0  0  0  0  0  0  0  0
    8.8116  -14.7575   20.7623 C   0  0  0  0  0  0  0  0  0  0  0  0
    8.8453  -16.0659   21.4689 C   0  0  2  0  0  0  0  0  0  0  0  0
    7.5623  -16.7354   21.4501 N   0  0  0  0  0  0  0  0  0  0  0  0
    9.2318  -15.8338   22.8927 C   0  0  0  0  0  0  0  0  0  0  0  0
   10.3625  -15.3330   23.1134 O   0  0  0  0  0  0  0  0  0  0  0  0
    8.3590  -16.1641   23.9666 N   0  0  0  0  0  0  0  0  0  0  0  0
    8.7886  -15.9790   25.3079 C   0  0  1  0  0  0  0  0  0  0  0  0
    7.6709  -15.5621   26.2371 C   0  0  0  0  0  0  0  0  0  0  0  0
    7.4495  -14.1123   26.2856 C   0  0  0  0  0  0  0  0  0  0  0  0
    6.2191  -13.5259   26.1211 C   0  0  0  0  0  0  0  0  0  0  0  0
    6.0303  -12.1587   26.1708 C   0  0  0  0  0  0  0  0  0  0  0  0
    7.0895  -11.3416   26.3900 C   0  0  0  0  0  0  0  0  0  0  0  0
    8.3404  -11.8788   26.5607 C   0  0  0  0  0  0  0  0  0  0  0  0
    8.5120  -13.2543   26.5076 C   0  0  0  0  0  0  0  0  0  0  0  0
    9.5912  -17.1021   25.8553 C   0  0  0  0  0  0  0  0  0  0  0  0
   10.0458  -17.1055   27.0323 O   0  0  0  0  0  0  0  0  0  0  0  0
   14.3987  -18.3100   20.7722 N   0  0  0  0  0  0  0  0  0  0  0  0
   13.1202  -18.7458   20.3341 C   0  0  0  0  0  0  0  0  0  0  0  0
   12.6369  -18.2319   19.2486 N   0  0  0  0  0  0  0  0  0  0  0  0
   12.4074  -19.7178   21.0768 N   0  0  0  0  0  0  0  0  0  0  0  0
   12.6676  -19.8890   22.4715 C   0  0  0  0  0  0  0  0  0  0  0  0
   11.4438  -19.5370   23.3028 C   0  0  0  0  0  0  0  0  0  0  0  0
   11.8036  -19.7568   24.7527 C   0  0  0  0  0  0  0  0  0  0  0  0
   10.6426  -19.3731   25.6674 C   0  0  2  0  0  0  0  0  0  0  0  0
    9.9061  -18.2647   25.0916 N   0  0  0  0  0  0  0  0  0  0  0  0
   11.1317  -18.9628   27.0003 C   0  0  0  0  0  0  0  0  0  0  0  0
   10.6819  -19.4646   28.2095 O   0  0  0  0  0  0  0  0  0  0  0  0
   12.0461  -18.0718   27.0961 O   0  0  0  0  0  0  0  0  0  0  0  0
  1  2  1  0
  3  2  1  0
  4  3  1  0
  5  4  1  0
  5  6  1  1
  7  5  1  0
  7  8  2  0
  9  7  1  0
 10 11  1  1
 10  9  1  0
 12 11  1  0
 12 17  2  0
 13 12  1  0
 14 13  2  0
 14 15  1  0
 15 16  2  0
 16 17  1  0
 18 10  1  0
 19 18  2  0
 20 21  1  0
 21 22  2  0
 23 21  1  0
 24 23  1  0
 24 25  1  0
 25 26  1  0
 27 26  1  6
 27 28  1  0
 28 18  1  0
 29 30  1  0
 29 27  1  0
 31 29  2  0
M  END
$$$$
