RMH.pdb
     RDKit          3D

 30 30  0  0  1  0  0  0  0  0999 V2000
   25.7900  -23.7246  -15.5886 N   0  0  0  0  0  0  0  0  0  0  0  0
   24.8158  -24.7514  -15.6007 C   0  0  0  0  0  0  0  0  0  0  0  0
   25.0274  -25.8837  -15.0298 N   0  0  0  0  0  0  0  0  0  0  0  0
   23.5568  -24.5608  -16.2531 N   0  0  0  0  0  0  0  0  0  0  0  0
   23.1922  -23.2991  -16.8602 C   0  0  0  0  0  0  0  0  0  0  0  0
   21.9296  -22.7881  -16.2025 C   0  0  0  0  0  0  0  0  0  0  0  0
   22.1832  -21.5571  -15.3761 C   0  0  0  0  0  0  0  0  0  0  0  0
   22.4905  -21.9671  -13.9699 C   0  0  2  0  0  0  0  0  0  0  0  0
   21.2885  -22.2670  -13.2491 N   0  0  0  0  0  0  0  0  0  0  0  0
   23.3495  -20.9834  -13.2658 C   0  0  0  0  0  0  0  0  0  0  0  0
   22.9607  -19.7892  -13.2140 O   0  0  0  0  0  0  0  0  0  0  0  0
   24.3132  -26.6120  -14.9836 C   0  0  0  0  0  0  0  0  0  0  0  0
   27.5433  -20.4874   -8.0257 S   0  0  0  0  0  0  0  0  0  0  0  0
   25.9160  -21.2846   -8.1231 C   0  0  0  0  0  0  0  0  0  0  0  0
   25.0607  -20.8478   -9.6646 C   0  0  0  0  0  0  0  0  0  0  0  0
   26.0644  -20.9453  -10.7883 C   0  0  2  0  0  0  0  0  0  0  0  0
   25.5046  -20.4261  -12.0970 N   0  0  0  0  0  0  0  0  0  0  0  0
   24.5632  -21.3837  -12.6756 C   0  0  0  0  0  0  0  0  0  0  0  0
   26.6651  -20.2316  -13.0109 O   0  0  0  0  0  0  0  0  0  0  0  0
   27.5406  -21.1228  -13.0645 N   0  0  0  0  0  0  0  0  0  0  0  0
   26.8141  -19.0753  -13.8216 C   0  0  1  0  0  0  0  0  0  0  0  0
   27.5012  -19.0651  -15.0924 C   0  0  0  0  0  0  0  0  0  0  0  0
   26.9788  -20.1175  -16.0414 C   0  0  0  0  0  0  0  0  0  0  0  0
   27.7148  -20.1203  -17.3205 C   0  0  0  0  0  0  0  0  0  0  0  0
   27.1550  -20.0952  -18.5775 N   0  0  0  0  0  0  0  0  0  0  0  0
   28.1909  -20.1090  -19.4382 C   0  0  0  0  0  0  0  0  0  0  0  0
   29.3548  -20.1411  -18.7712 N   0  0  0  0  0  0  0  0  0  0  0  0
   29.0562  -20.1478  -17.4757 C   0  0  0  0  0  0  0  0  0  0  0  0
   27.2730  -17.7399  -15.7260 O   0  0  0  0  0  0  0  0  0  0  0  0
   28.1485  -17.2588  -16.7034 O   0  0  0  0  0  0  0  0  0  0  0  0
  2  1  1  0
  2  4  1  0
  3  2  2  0
  4  5  1  0
  5  6  1  0
  7  6  1  0
  7  8  1  0
  8 10  1  0
  8  9  1  1
 10 11  2  0
 13 14  1  0
 13 12  1  0
 14 15  1  0
 16 15  1  1
 17 16  1  0
 17 10  1  0
 18 20  1  0
 18 16  1  0
 19 18  2  0
 21 20  1  0
 21 22  1  1
 23 27  1  0
 23 22  1  0
 24 23  2  0
 25 24  1  0
 25 26  1  0
 26 27  2  0
 28 21  1  0
 29 28  1  0
 30 28  2  0
M  END
$$$$
