RMH.pdb
     RDKit          3D

 30 30  0  0  1  0  0  0  0  0999 V2000
   13.0511  -21.6829   -3.5534 N   0  0  0  0  0  0  0  0  0  0  0  0
   13.7170  -22.8532   -3.9897 C   0  0  0  0  0  0  0  0  0  0  0  0
   14.0326  -23.0249   -5.2241 N   0  0  0  0  0  0  0  0  0  0  0  0
   14.0621  -23.8892   -3.0650 N   0  0  0  0  0  0  0  0  0  0  0  0
   13.6866  -23.8259   -1.6692 C   0  0  0  0  0  0  0  0  0  0  0  0
   14.3017  -25.0028   -0.9449 C   0  0  0  0  0  0  0  0  0  0  0  0
   15.8050  -24.9627   -0.9797 C   0  0  0  0  0  0  0  0  0  0  0  0
   16.3418  -26.2121   -0.3544 C   0  0  2  0  0  0  0  0  0  0  0  0
   15.3762  -27.2697   -0.4116 N   0  0  0  0  0  0  0  0  0  0  0  0
   16.8600  -25.9840    1.0170 C   0  0  0  0  0  0  0  0  0  0  0  0
   16.2837  -26.5650    1.9711 O   0  0  0  0  0  0  0  0  0  0  0  0
   14.4845  -23.8779   -5.5569 C   0  0  0  0  0  0  0  0  0  0  0  0
   22.9199  -24.0104    2.7737 S   0  0  0  0  0  0  0  0  0  0  0  0
   22.4854  -25.2845    1.5567 C   0  0  0  0  0  0  0  0  0  0  0  0
   20.7398  -25.7643    1.7013 C   0  0  0  0  0  0  0  0  0  0  0  0
   20.0294  -24.6790    2.4740 C   0  0  2  0  0  0  0  0  0  0  0  0
   18.5377  -24.9287    2.5640 N   0  0  0  0  0  0  0  0  0  0  0  0
   17.9653  -25.1398    1.2352 C   0  0  0  0  0  0  0  0  0  0  0  0
   17.9391  -23.7186    3.1941 O   0  0  0  0  0  0  0  0  0  0  0  0
   18.2485  -23.4430    4.3739 N   0  0  0  0  0  0  0  0  0  0  0  0
   17.0327  -22.8683    2.5072 C   0  0  2  0  0  0  0  0  0  0  0  0
   16.4543  -21.6753    3.0811 C   0  0  0  0  0  0  0  0  0  0  0  0
   15.2932  -21.1480    2.2719 C   0  0  0  0  0  0  0  0  0  0  0  0
   14.8399  -19.8287    2.7534 C   0  0  0  0  0  0  0  0  0  0  0  0
   15.4389  -19.0757    3.7374 N   0  0  0  0  0  0  0  0  0  0  0  0
   14.6937  -17.9590    3.8464 C   0  0  0  0  0  0  0  0  0  0  0  0
   13.6702  -17.9915    2.9792 N   0  0  0  0  0  0  0  0  0  0  0  0
   13.7656  -19.1383    2.3135 C   0  0  0  0  0  0  0  0  0  0  0  0
   15.9371  -22.0207    4.4312 O   0  0  0  0  0  0  0  0  0  0  0  0
   16.2756  -21.2438    5.5426 O   0  0  0  0  0  0  0  0  0  0  0  0
  2  1  1  0
  2  4  1  0
  3  2  2  0
  4  5  1  0
  5  6  1  0
  7  6  1  0
  7  8  1  0
  8 10  1  0
  8  9  1  1
 10 11  2  0
 13 14  1  0
 13 12  1  0
 14 15  1  0
 16 15  1  1
 17 16  1  0
 17 10  1  0
 18 20  1  0
 18 16  1  0
 19 18  2  0
 21 20  1  0
 21 22  1  1
 23 27  1  0
 23 22  1  0
 24 23  2  0
 25 24  1  0
 25 26  1  0
 26 27  2  0
 28 21  1  0
 29 28  1  0
 30 28  2  0
M  END
$$$$
