RMH.pdb
     RDKit          3D

 30 30  0  0  1  0  0  0  0  0999 V2000
   19.9265  -29.3173   -2.4354 N   0  0  0  0  0  0  0  0  0  0  0  0
   18.9757  -28.6270   -1.6463 C   0  0  0  0  0  0  0  0  0  0  0  0
   18.5606  -29.1032   -0.5266 N   0  0  0  0  0  0  0  0  0  0  0  0
   18.4426  -27.3695   -2.0724 N   0  0  0  0  0  0  0  0  0  0  0  0
   17.7045  -27.2302   -3.3090 C   0  0  0  0  0  0  0  0  0  0  0  0
   18.6268  -26.6656   -4.3666 C   0  0  0  0  0  0  0  0  0  0  0  0
   17.9539  -26.5706   -5.7086 C   0  0  0  0  0  0  0  0  0  0  0  0
   17.6005  -25.1415   -5.9781 C   0  0  2  0  0  0  0  0  0  0  0  0
   16.5477  -24.7015   -5.1109 N   0  0  0  0  0  0  0  0  0  0  0  0
   17.3053  -24.8893   -7.4101 C   0  0  0  0  0  0  0  0  0  0  0  0
   16.2498  -25.3742   -7.8905 O   0  0  0  0  0  0  0  0  0  0  0  0
   17.9152  -28.5915    0.0768 C   0  0  0  0  0  0  0  0  0  0  0  0
   18.1052  -19.6686  -13.2212 S   0  0  0  0  0  0  0  0  0  0  0  0
   18.1715  -20.1794  -11.4811 C   0  0  0  0  0  0  0  0  0  0  0  0
   17.9169  -21.9696  -11.3109 C   0  0  0  0  0  0  0  0  0  0  0  0
   18.0855  -22.3191   -9.8517 C   0  0  1  0  0  0  0  0  0  0  0  0
   17.9001  -23.8012   -9.5972 N   0  0  0  0  0  0  0  0  0  0  0  0
   18.1866  -24.1282   -8.2011 C   0  0  0  0  0  0  0  0  0  0  0  0
   18.8524  -24.5115  -10.4962 O   0  0  0  0  0  0  0  0  0  0  0  0
   20.0668  -24.5157  -10.1984 N   0  0  0  0  0  0  0  0  0  0  0  0
   18.4341  -25.1826  -11.6757 C   0  0  2  0  0  0  0  0  0  0  0  0
   19.3388  -25.8206  -12.6039 C   0  0  0  0  0  0  0  0  0  0  0  0
   18.6478  -26.8410  -13.4769 C   0  0  0  0  0  0  0  0  0  0  0  0
   19.5849  -27.4883  -14.4154 C   0  0  0  0  0  0  0  0  0  0  0  0
   20.3291  -28.6189  -14.1667 N   0  0  0  0  0  0  0  0  0  0  0  0
   21.0343  -28.8460  -15.2915 C   0  0  0  0  0  0  0  0  0  0  0  0
   20.7589  -27.9118  -16.2146 N   0  0  0  0  0  0  0  0  0  0  0  0
   19.8712  -27.0841  -15.6720 C   0  0  0  0  0  0  0  0  0  0  0  0
   19.8936  -24.7707  -13.4980 O   0  0  0  0  0  0  0  0  0  0  0  0
   21.1989  -24.8705  -13.9875 O   0  0  0  0  0  0  0  0  0  0  0  0
  2  1  1  0
  2  4  1  0
  3  2  2  0
  4  5  1  0
  5  6  1  0
  7  6  1  0
  7  8  1  0
  8 10  1  0
  8  9  1  1
 10 11  2  0
 13 14  1  0
 13 12  1  0
 14 15  1  0
 16 15  1  1
 17 16  1  0
 17 10  1  0
 18 20  1  0
 18 16  1  0
 19 18  2  0
 21 20  1  0
 21 22  1  6
 23 27  1  0
 23 22  1  0
 24 23  2  0
 25 24  1  0
 25 26  1  0
 26 27  2  0
 28 21  1  0
 29 28  1  0
 30 28  2  0
M  END
$$$$
