RMH.pdb
     RDKit          3D

 30 30  0  0  1  0  0  0  0  0999 V2000
   19.2808  -18.2992  -16.8954 N   0  0  0  0  0  0  0  0  0  0  0  0
   18.4731  -18.2508  -18.0567 C   0  0  0  0  0  0  0  0  0  0  0  0
   17.4526  -19.0200  -18.1968 N   0  0  0  0  0  0  0  0  0  0  0  0
   18.7688  -17.3385  -19.1187 N   0  0  0  0  0  0  0  0  0  0  0  0
   19.9851  -16.5553  -19.1389 C   0  0  0  0  0  0  0  0  0  0  0  0
   19.7311  -15.2416  -18.4335 C   0  0  0  0  0  0  0  0  0  0  0  0
   20.8850  -14.2885  -18.5847 C   0  0  0  0  0  0  0  0  0  0  0  0
   21.8918  -14.5662  -17.5126 C   0  0  2  0  0  0  0  0  0  0  0  0
   21.5858  -15.7862  -16.8255 N   0  0  0  0  0  0  0  0  0  0  0  0
   22.0699  -13.4187  -16.5892 C   0  0  0  0  0  0  0  0  0  0  0  0
   21.1595  -13.1843  -15.7548 O   0  0  0  0  0  0  0  0  0  0  0  0
   16.8713  -19.0057  -19.0361 C   0  0  0  0  0  0  0  0  0  0  0  0
   27.0904  -14.6367  -14.7281 S   0  0  0  0  0  0  0  0  0  0  0  0
   26.0422  -13.5252  -15.7074 C   0  0  0  0  0  0  0  0  0  0  0  0
   25.7050  -11.9810  -14.8127 C   0  0  0  0  0  0  0  0  0  0  0  0
   24.9026  -11.0877  -15.7280 C   0  0  2  0  0  0  0  0  0  0  0  0
   23.4391  -11.4782  -15.7636 N   0  0  0  0  0  0  0  0  0  0  0  0
   23.2277  -12.6203  -16.6518 C   0  0  0  0  0  0  0  0  0  0  0  0
   22.6924  -10.2915  -16.2675 O   0  0  0  0  0  0  0  0  0  0  0  0
   22.8013   -9.9841  -17.4746 N   0  0  0  0  0  0  0  0  0  0  0  0
   21.8634   -9.4983  -15.4308 C   0  0  1  0  0  0  0  0  0  0  0  0
   21.1066   -8.3581  -15.8937 C   0  0  0  0  0  0  0  0  0  0  0  0
   19.7058   -8.3256  -15.3299 C   0  0  0  0  0  0  0  0  0  0  0  0
   18.8281   -9.3201  -15.9768 C   0  0  0  0  0  0  0  0  0  0  0  0
   19.1886  -10.1849  -16.9849 N   0  0  0  0  0  0  0  0  0  0  0  0
   18.0827  -10.9014  -17.2634 C   0  0  0  0  0  0  0  0  0  0  0  0
   17.0651  -10.5184  -16.4769 N   0  0  0  0  0  0  0  0  0  0  0  0
   17.5281   -9.5505  -15.6920 C   0  0  0  0  0  0  0  0  0  0  0  0
   21.8022   -7.1283  -15.4321 O   0  0  0  0  0  0  0  0  0  0  0  0
   22.9715   -7.2156  -14.6716 O   0  0  0  0  0  0  0  0  0  0  0  0
  2  1  1  0
  2  4  1  0
  3  2  2  0
  4  5  1  0
  5  6  1  0
  7  6  1  0
  7  8  1  0
  8 10  1  0
  8  9  1  1
 10 11  2  0
 13 14  1  0
 13 12  1  0
 14 15  1  0
 16 15  1  1
 17 16  1  0
 17 10  1  0
 18 20  1  0
 18 16  1  0
 19 18  2  0
 21 20  1  0
 21 22  1  6
 23 27  1  0
 23 22  1  0
 24 23  2  0
 25 24  1  0
 25 26  1  0
 26 27  2  0
 28 21  1  0
 29 28  1  0
 30 28  2  0
M  END
$$$$
