RMH.pdb
     RDKit          3D

 30 30  0  0  1  0  0  0  0  0999 V2000
   26.8301  -23.6563  -17.2522 N   0  0  0  0  0  0  0  0  0  0  0  0
   27.4946  -23.1883  -18.4110 C   0  0  0  0  0  0  0  0  0  0  0  0
   27.0896  -23.5031  -19.5898 N   0  0  0  0  0  0  0  0  0  0  0  0
   28.6457  -22.3449  -18.3067 N   0  0  0  0  0  0  0  0  0  0  0  0
   29.0637  -21.7724  -17.0454 C   0  0  0  0  0  0  0  0  0  0  0  0
   28.5337  -20.3588  -16.9519 C   0  0  0  0  0  0  0  0  0  0  0  0
   27.5680  -20.1933  -15.8105 C   0  0  0  0  0  0  0  0  0  0  0  0
   28.1752  -20.7686  -14.5694 C   0  0  2  0  0  0  0  0  0  0  0  0
   29.0835  -21.8306  -14.8879 N   0  0  0  0  0  0  0  0  0  0  0  0
   27.1543  -21.1692  -13.5702 C   0  0  0  0  0  0  0  0  0  0  0  0
   26.2305  -21.9355  -13.9433 O   0  0  0  0  0  0  0  0  0  0  0  0
   27.4938  -23.0916  -20.4323 C   0  0  0  0  0  0  0  0  0  0  0  0
   28.0634  -20.5113   -7.1286 S   0  0  0  0  0  0  0  0  0  0  0  0
   26.2560  -20.3732   -7.2144 C   0  0  0  0  0  0  0  0  0  0  0  0
   25.6259  -20.9667   -8.8111 C   0  0  0  0  0  0  0  0  0  0  0  0
   26.6701  -20.6600   -9.8576 C   0  0  2  0  0  0  0  0  0  0  0  0
   26.1893  -20.9938  -11.2551 N   0  0  0  0  0  0  0  0  0  0  0  0
   27.2250  -20.7004  -12.2446 C   0  0  0  0  0  0  0  0  0  0  0  0
   24.9866  -20.1510  -11.5060 O   0  0  0  0  0  0  0  0  0  0  0  0
   25.1516  -18.9602  -11.8501 N   0  0  0  0  0  0  0  0  0  0  0  0
   23.6633  -20.6475  -11.3696 C   0  0  1  0  0  0  0  0  0  0  0  0
   22.5928  -20.3534  -12.2940 C   0  0  0  0  0  0  0  0  0  0  0  0
   22.8497  -20.9116  -13.6737 C   0  0  0  0  0  0  0  0  0  0  0  0
   21.7670  -20.5701  -14.6166 C   0  0  0  0  0  0  0  0  0  0  0  0
   20.6697  -19.7865  -14.3412 N   0  0  0  0  0  0  0  0  0  0  0  0
   19.9552  -19.7457  -15.4822 C   0  0  0  0  0  0  0  0  0  0  0  0
   20.5600  -20.4643  -16.4405 N   0  0  0  0  0  0  0  0  0  0  0  0
   21.6682  -20.9661  -15.9042 C   0  0  0  0  0  0  0  0  0  0  0  0
   21.3535  -20.9915  -11.7780 O   0  0  0  0  0  0  0  0  0  0  0  0
   20.1013  -20.6157  -12.2721 O   0  0  0  0  0  0  0  0  0  0  0  0
  2  1  1  0
  2  4  1  0
  3  2  2  0
  4  5  1  0
  5  6  1  0
  7  6  1  0
  7  8  1  0
  8 10  1  0
  8  9  1  6
 10 11  2  0
 13 14  1  0
 13 12  1  0
 14 15  1  0
 16 15  1  1
 17 16  1  0
 17 10  1  0
 18 20  1  0
 18 16  1  0
 19 18  2  0
 21 20  1  0
 21 22  1  1
 23 27  1  0
 23 22  1  0
 24 23  2  0
 25 24  1  0
 25 26  1  0
 26 27  2  0
 28 21  1  0
 29 28  1  0
 30 28  2  0
M  END
$$$$
