RMH.pdb
     RDKit          3D

 30 30  0  0  1  0  0  0  0  0999 V2000
   20.4954  -21.0862  -11.2840 N   0  0  0  0  0  0  0  0  0  0  0  0
   21.1298  -19.9187  -10.7964 C   0  0  0  0  0  0  0  0  0  0  0  0
   20.6529  -18.7482  -11.0310 N   0  0  0  0  0  0  0  0  0  0  0  0
   22.3300  -20.0048  -10.0221 N   0  0  0  0  0  0  0  0  0  0  0  0
   23.3535  -20.9881  -10.3028 C   0  0  0  0  0  0  0  0  0  0  0  0
   24.5016  -20.7858   -9.3389 C   0  0  0  0  0  0  0  0  0  0  0  0
   25.6635  -20.0830   -9.9860 C   0  0  0  0  0  0  0  0  0  0  0  0
   26.2467  -20.9715  -11.0398 C   0  0  2  0  0  0  0  0  0  0  0  0
   27.5550  -21.4210  -10.6647 N   0  0  0  0  0  0  0  0  0  0  0  0
   26.2197  -20.3495  -12.3865 C   0  0  0  0  0  0  0  0  0  0  0  0
   26.8753  -19.2916  -12.5625 O   0  0  0  0  0  0  0  0  0  0  0  0
   21.0980  -17.8987  -10.6805 C   0  0  0  0  0  0  0  0  0  0  0  0
   27.3606  -24.4972  -16.2392 S   0  0  0  0  0  0  0  0  0  0  0  0
   28.1706  -22.8968  -16.5148 C   0  0  0  0  0  0  0  0  0  0  0  0
   27.5467  -21.6371  -15.3649 C   0  0  0  0  0  0  0  0  0  0  0  0
   26.1265  -21.3160  -15.7644 C   0  0  2  0  0  0  0  0  0  0  0  0
   25.4590  -20.3745  -14.7828 N   0  0  0  0  0  0  0  0  0  0  0  0
   25.4790  -20.9333  -13.4317 C   0  0  0  0  0  0  0  0  0  0  0  0
   24.0534  -20.2012  -15.2453 O   0  0  0  0  0  0  0  0  0  0  0  0
   23.1257  -20.5718  -14.4932 N   0  0  0  0  0  0  0  0  0  0  0  0
   23.7279  -19.6322  -16.5050 C   0  0  1  0  0  0  0  0  0  0  0  0
   22.6521  -18.6901  -16.7101 C   0  0  0  0  0  0  0  0  0  0  0  0
   22.8064  -17.4437  -15.8711 C   0  0  0  0  0  0  0  0  0  0  0  0
   21.5988  -17.1662  -15.0694 C   0  0  0  0  0  0  0  0  0  0  0  0
   20.4864  -17.9709  -14.9747 N   0  0  0  0  0  0  0  0  0  0  0  0
   19.6425  -17.3301  -14.1433 C   0  0  0  0  0  0  0  0  0  0  0  0
   20.1827  -16.1750  -13.7252 N   0  0  0  0  0  0  0  0  0  0  0  0
   21.3799  -16.0810  -14.2957 C   0  0  0  0  0  0  0  0  0  0  0  0
   22.6737  -18.2733  -18.1367 O   0  0  0  0  0  0  0  0  0  0  0  0
   21.4832  -18.1382  -18.8563 O   0  0  0  0  0  0  0  0  0  0  0  0
  2  1  1  0
  2  4  1  0
  3  2  2  0
  4  5  1  0
  5  6  1  0
  7  6  1  0
  7  8  1  0
  8 10  1  0
  8  9  1  1
 10 11  2  0
 13 14  1  0
 13 12  1  0
 14 15  1  0
 16 15  1  1
 17 16  1  0
 17 10  1  0
 18 20  1  0
 18 16  1  0
 19 18  2  0
 21 20  1  0
 21 22  1  6
 23 27  1  0
 23 22  1  0
 24 23  2  0
 25 24  1  0
 25 26  1  0
 26 27  2  0
 28 21  1  0
 29 28  1  0
 30 28  2  0
M  END
$$$$
