RMH.pdb
     RDKit          3D

 30 30  0  0  1  0  0  0  0  0999 V2000
   16.3251  -31.2702  -10.6313 N   0  0  0  0  0  0  0  0  0  0  0  0
   17.1730  -32.2631  -11.1776 C   0  0  0  0  0  0  0  0  0  0  0  0
   16.6973  -33.3256  -11.7232 N   0  0  0  0  0  0  0  0  0  0  0  0
   18.5957  -32.1152  -11.1394 N   0  0  0  0  0  0  0  0  0  0  0  0
   19.2315  -30.9914  -10.4868 C   0  0  0  0  0  0  0  0  0  0  0  0
   19.6467  -29.9873  -11.5391 C   0  0  0  0  0  0  0  0  0  0  0  0
   20.2953  -28.7725  -10.9340 C   0  0  0  0  0  0  0  0  0  0  0  0
   19.4231  -27.5807  -11.1765 C   0  0  2  0  0  0  0  0  0  0  0  0
   19.7033  -26.9916  -12.4527 N   0  0  0  0  0  0  0  0  0  0  0  0
   19.4826  -26.5975  -10.0670 C   0  0  0  0  0  0  0  0  0  0  0  0
   20.5426  -25.9389   -9.9168 O   0  0  0  0  0  0  0  0  0  0  0  0
   17.2983  -34.0571  -12.1054 C   0  0  0  0  0  0  0  0  0  0  0  0
   17.2248  -21.9698  -11.2281 S   0  0  0  0  0  0  0  0  0  0  0  0
   18.5747  -21.6119  -10.0693 C   0  0  0  0  0  0  0  0  0  0  0  0
   19.1386  -23.1205   -9.2301 C   0  0  0  0  0  0  0  0  0  0  0  0
   17.9350  -24.0099   -9.0297 C   0  0  2  0  0  0  0  0  0  0  0  0
   18.2865  -25.2835   -8.2882 N   0  0  0  0  0  0  0  0  0  0  0  0
   18.3797  -26.4133   -9.2117 C   0  0  0  0  0  0  0  0  0  0  0  0
   17.1963  -25.5174   -7.3000 O   0  0  0  0  0  0  0  0  0  0  0  0
   16.0614  -25.8278   -7.7232 N   0  0  0  0  0  0  0  0  0  0  0  0
   17.3969  -25.4015   -5.8990 C   0  0  1  0  0  0  0  0  0  0  0  0
   16.3354  -25.4891   -4.9229 C   0  0  0  0  0  0  0  0  0  0  0  0
   16.8563  -25.5895   -3.5088 C   0  0  0  0  0  0  0  0  0  0  0  0
   17.4962  -26.8937   -3.2485 C   0  0  0  0  0  0  0  0  0  0  0  0
   17.4950  -27.9798   -4.0937 N   0  0  0  0  0  0  0  0  0  0  0  0
   18.1908  -28.9398   -3.4546 C   0  0  0  0  0  0  0  0  0  0  0  0
   18.6170  -28.4954   -2.2623 N   0  0  0  0  0  0  0  0  0  0  0  0
   18.1884  -27.2426   -2.1425 C   0  0  0  0  0  0  0  0  0  0  0  0
   15.5261  -24.2456   -5.0132 O   0  0  0  0  0  0  0  0  0  0  0  0
   14.2861  -24.1562   -4.3748 O   0  0  0  0  0  0  0  0  0  0  0  0
  2  1  1  0
  2  4  1  0
  3  2  2  0
  4  5  1  0
  5  6  1  0
  7  6  1  0
  7  8  1  0
  8 10  1  0
  8  9  1  6
 10 11  2  0
 13 14  1  0
 13 12  1  0
 14 15  1  0
 16 15  1  6
 17 16  1  0
 17 10  1  0
 18 20  1  0
 18 16  1  0
 19 18  2  0
 21 20  1  0
 21 22  1  1
 23 27  1  0
 23 22  1  0
 24 23  2  0
 25 24  1  0
 25 26  1  0
 26 27  2  0
 28 21  1  0
 29 28  1  0
 30 28  2  0
M  END
$$$$
