RMH.pdb
     RDKit          3D

 30 30  0  0  1  0  0  0  0  0999 V2000
   29.5933  -20.4475  -19.2649 N   0  0  0  0  0  0  0  0  0  0  0  0
   28.1956  -20.2244  -19.2641 C   0  0  0  0  0  0  0  0  0  0  0  0
   27.5392  -20.0766  -20.3595 N   0  0  0  0  0  0  0  0  0  0  0  0
   27.4642  -20.1556  -18.0362 N   0  0  0  0  0  0  0  0  0  0  0  0
   28.1154  -20.2724  -16.7495 C   0  0  0  0  0  0  0  0  0  0  0  0
   28.1960  -21.7356  -16.3747 C   0  0  0  0  0  0  0  0  0  0  0  0
   27.8826  -21.9630  -14.9212 C   0  0  0  0  0  0  0  0  0  0  0  0
   26.4935  -21.4825  -14.6397 C   0  0  2  0  0  0  0  0  0  0  0  0
   26.3721  -20.0798  -14.9079 N   0  0  0  0  0  0  0  0  0  0  0  0
   26.0310  -21.8467  -13.2778 C   0  0  0  0  0  0  0  0  0  0  0  0
   25.9590  -23.0668  -12.9844 O   0  0  0  0  0  0  0  0  0  0  0  0
   26.5294  -19.9260  -20.3730 C   0  0  0  0  0  0  0  0  0  0  0  0
   26.1657  -20.1571   -5.6955 S   0  0  0  0  0  0  0  0  0  0  0  0
   26.4254  -19.6369   -7.4146 C   0  0  0  0  0  0  0  0  0  0  0  0
   25.4472  -20.6483   -8.5629 C   0  0  0  0  0  0  0  0  0  0  0  0
   25.8949  -20.3112   -9.9649 C   0  0  2  0  0  0  0  0  0  0  0  0
   25.1997  -21.1664  -11.0046 N   0  0  0  0  0  0  0  0  0  0  0  0
   25.6847  -20.8490  -12.3469 C   0  0  0  0  0  0  0  0  0  0  0  0
   23.7440  -20.8662  -10.9009 O   0  0  0  0  0  0  0  0  0  0  0  0
   23.1573  -21.1129   -9.8245 N   0  0  0  0  0  0  0  0  0  0  0  0
   22.9995  -20.3117  -11.9754 C   0  0  2  0  0  0  0  0  0  0  0  0
   21.5565  -20.2518  -12.0098 C   0  0  0  0  0  0  0  0  0  0  0  0
   20.9949  -20.5999  -13.3679 C   0  0  0  0  0  0  0  0  0  0  0  0
   21.4949  -19.6935  -14.4197 C   0  0  0  0  0  0  0  0  0  0  0  0
   22.2968  -18.5919  -14.2262 N   0  0  0  0  0  0  0  0  0  0  0  0
   22.5022  -18.0708  -15.4510 C   0  0  0  0  0  0  0  0  0  0  0  0
   21.8668  -18.7978  -16.3829 N   0  0  0  0  0  0  0  0  0  0  0  0
   21.2523  -19.7893  -15.7450 C   0  0  0  0  0  0  0  0  0  0  0  0
   21.0332  -21.2505  -11.0411 O   0  0  0  0  0  0  0  0  0  0  0  0
   21.2710  -22.6150  -11.2280 O   0  0  0  0  0  0  0  0  0  0  0  0
  2  1  1  0
  2  4  1  0
  3  2  2  0
  4  5  1  0
  5  6  1  0
  7  6  1  0
  7  8  1  0
  8 10  1  0
  8  9  1  1
 10 11  2  0
 13 14  1  0
 13 12  1  0
 14 15  1  0
 16 15  1  1
 17 16  1  0
 17 10  1  0
 18 20  1  0
 18 16  1  0
 19 18  2  0
 21 20  1  0
 21 22  1  6
 23 27  1  0
 23 22  1  0
 24 23  2  0
 25 24  1  0
 25 26  1  0
 26 27  2  0
 28 21  1  0
 29 28  1  0
 30 28  2  0
M  END
$$$$
