RMH.pdb
     RDKit          3D

 30 30  0  0  1  0  0  0  0  0999 V2000
   26.3872  -35.8349   -9.4215 N   0  0  0  0  0  0  0  0  0  0  0  0
   25.6126  -34.8174   -8.8149 C   0  0  0  0  0  0  0  0  0  0  0  0
   25.7458  -34.5248   -7.5701 N   0  0  0  0  0  0  0  0  0  0  0  0
   24.6503  -34.0775   -9.5725 N   0  0  0  0  0  0  0  0  0  0  0  0
   24.3832  -34.3691  -10.9642 C   0  0  0  0  0  0  0  0  0  0  0  0
   25.1016  -33.3514  -11.8222 C   0  0  0  0  0  0  0  0  0  0  0  0
   24.3085  -32.0822  -11.9742 C   0  0  0  0  0  0  0  0  0  0  0  0
   24.4834  -31.5604  -13.3660 C   0  0  2  0  0  0  0  0  0  0  0  0
   25.8721  -31.4023  -13.6834 N   0  0  0  0  0  0  0  0  0  0  0  0
   23.6959  -30.3276  -13.6139 C   0  0  0  0  0  0  0  0  0  0  0  0
   24.0245  -29.2822  -12.9983 O   0  0  0  0  0  0  0  0  0  0  0  0
   25.1810  -33.8051   -7.1166 C   0  0  0  0  0  0  0  0  0  0  0  0
   18.9015  -26.8115  -18.8684 S   0  0  0  0  0  0  0  0  0  0  0  0
   19.8644  -28.2458  -18.3126 C   0  0  0  0  0  0  0  0  0  0  0  0
   20.5489  -27.9753  -16.6523 C   0  0  0  0  0  0  0  0  0  0  0  0
   21.2508  -29.2450  -16.2341 C   0  0  2  0  0  0  0  0  0  0  0  0
   21.8721  -29.1241  -14.8576 N   0  0  0  0  0  0  0  0  0  0  0  0
   22.6135  -30.3366  -14.5141 C   0  0  0  0  0  0  0  0  0  0  0  0
   20.7501  -28.9200  -13.8988 O   0  0  0  0  0  0  0  0  0  0  0  0
   19.9686  -29.8715  -13.6809 N   0  0  0  0  0  0  0  0  0  0  0  0
   20.5353  -27.6890  -13.2245 C   0  0  2  0  0  0  0  0  0  0  0  0
   19.4366  -27.4476  -12.3179 C   0  0  0  0  0  0  0  0  0  0  0  0
   19.4380  -26.0408  -11.7685 C   0  0  0  0  0  0  0  0  0  0  0  0
   18.2793  -25.7915  -10.8892 C   0  0  0  0  0  0  0  0  0  0  0  0
   17.7950  -26.6460   -9.9251 N   0  0  0  0  0  0  0  0  0  0  0  0
   16.7394  -26.0151   -9.3757 C   0  0  0  0  0  0  0  0  0  0  0  0
   16.5543  -24.8188   -9.9548 N   0  0  0  0  0  0  0  0  0  0  0  0
   17.5000  -24.6884  -10.8801 C   0  0  0  0  0  0  0  0  0  0  0  0
   18.1700  -27.6303  -13.0740 O   0  0  0  0  0  0  0  0  0  0  0  0
   17.0944  -28.3172  -12.5043 O   0  0  0  0  0  0  0  0  0  0  0  0
  2  1  1  0
  2  4  1  0
  3  2  2  0
  4  5  1  0
  5  6  1  0
  7  6  1  0
  7  8  1  0
  8 10  1  0
  8  9  1  1
 10 11  2  0
 13 14  1  0
 13 12  1  0
 14 15  1  0
 16 15  1  6
 17 16  1  0
 17 10  1  0
 18 20  1  0
 18 16  1  0
 19 18  2  0
 21 20  1  0
 21 22  1  6
 23 27  1  0
 23 22  1  0
 24 23  2  0
 25 24  1  0
 25 26  1  0
 26 27  2  0
 28 21  1  0
 29 28  1  0
 30 28  2  0
M  END
$$$$
