RMH.pdb
     RDKit          3D

 30 30  0  0  1  0  0  0  0  0999 V2000
   30.8348  -21.8522  -18.9641 N   0  0  0  0  0  0  0  0  0  0  0  0
   30.5122  -22.4751  -17.7348 C   0  0  0  0  0  0  0  0  0  0  0  0
   31.2269  -23.4324  -17.2599 N   0  0  0  0  0  0  0  0  0  0  0  0
   29.3729  -22.0568  -16.9769 N   0  0  0  0  0  0  0  0  0  0  0  0
   28.5013  -20.9939  -17.4283 C   0  0  0  0  0  0  0  0  0  0  0  0
   28.2781  -20.0280  -16.2858 C   0  0  0  0  0  0  0  0  0  0  0  0
   26.9638  -20.2672  -15.5943 C   0  0  0  0  0  0  0  0  0  0  0  0
   26.9557  -21.6515  -15.0254 C   0  0  2  0  0  0  0  0  0  0  0  0
   26.6690  -22.6213  -16.0410 N   0  0  0  0  0  0  0  0  0  0  0  0
   26.0633  -21.7764  -13.8467 C   0  0  0  0  0  0  0  0  0  0  0  0
   25.0253  -22.4757  -13.9625 O   0  0  0  0  0  0  0  0  0  0  0  0
   31.0096  -23.8845  -16.3705 C   0  0  0  0  0  0  0  0  0  0  0  0
   27.9151  -20.4568   -7.7199 S   0  0  0  0  0  0  0  0  0  0  0  0
   26.1835  -19.9183   -7.6508 C   0  0  0  0  0  0  0  0  0  0  0  0
   25.2369  -20.5646   -9.0596 C   0  0  0  0  0  0  0  0  0  0  0  0
   26.1610  -20.6029  -10.2530 C   0  0  1  0  0  0  0  0  0  0  0  0
   25.4635  -21.1175  -11.4956 N   0  0  0  0  0  0  0  0  0  0  0  0
   26.3768  -21.1275  -12.6374 C   0  0  0  0  0  0  0  0  0  0  0  0
   24.3234  -20.1952  -11.7587 O   0  0  0  0  0  0  0  0  0  0  0  0
   24.5666  -19.0612  -12.2262 N   0  0  0  0  0  0  0  0  0  0  0  0
   22.9743  -20.5543  -11.4995 C   0  0  1  0  0  0  0  0  0  0  0  0
   21.8811  -20.2888  -12.4060 C   0  0  0  0  0  0  0  0  0  0  0  0
   22.0640  -20.9613  -13.7459 C   0  0  0  0  0  0  0  0  0  0  0  0
   21.0067  -20.5805  -14.7025 C   0  0  0  0  0  0  0  0  0  0  0  0
   19.9706  -19.7077  -14.4599 N   0  0  0  0  0  0  0  0  0  0  0  0
   19.2578  -19.6616  -15.6018 C   0  0  0  0  0  0  0  0  0  0  0  0
   19.8056  -20.4617  -16.5295 N   0  0  0  0  0  0  0  0  0  0  0  0
   20.8754  -21.0209  -15.9725 C   0  0  0  0  0  0  0  0  0  0  0  0
   20.6391  -20.8345  -11.7985 O   0  0  0  0  0  0  0  0  0  0  0  0
   19.4580  -20.0874  -11.8021 O   0  0  0  0  0  0  0  0  0  0  0  0
  2  1  1  0
  2  4  1  0
  3  2  2  0
  4  5  1  0
  5  6  1  0
  7  6  1  0
  7  8  1  0
  8 10  1  0
  8  9  1  6
 10 11  2  0
 13 14  1  0
 13 12  1  0
 14 15  1  0
 16 15  1  1
 17 16  1  0
 17 10  1  0
 18 20  1  0
 18 16  1  0
 19 18  2  0
 21 20  1  0
 21 22  1  1
 23 27  1  0
 23 22  1  0
 24 23  2  0
 25 24  1  0
 25 26  1  0
 26 27  2  0
 28 21  1  0
 29 28  1  0
 30 28  2  0
M  END
$$$$
