RMH.pdb
     RDKit          3D

 30 30  0  0  1  0  0  0  0  0999 V2000
   27.3415  -17.4572  -19.0150 N   0  0  0  0  0  0  0  0  0  0  0  0
   27.9650  -16.2779  -18.5420 C   0  0  0  0  0  0  0  0  0  0  0  0
   28.0762  -15.2339  -19.2839 N   0  0  0  0  0  0  0  0  0  0  0  0
   28.4952  -16.2098  -17.2147 N   0  0  0  0  0  0  0  0  0  0  0  0
   28.8137  -17.3994  -16.4554 C   0  0  0  0  0  0  0  0  0  0  0  0
   27.7342  -18.4323  -16.6915 C   0  0  0  0  0  0  0  0  0  0  0  0
   26.9635  -18.7389  -15.4366 C   0  0  0  0  0  0  0  0  0  0  0  0
   27.6129  -19.8894  -14.7332 C   0  0  2  0  0  0  0  0  0  0  0  0
   28.2821  -20.7483  -15.6652 N   0  0  0  0  0  0  0  0  0  0  0  0
   26.6698  -20.6235  -13.8539 C   0  0  0  0  0  0  0  0  0  0  0  0
   26.1398  -21.6722  -14.3002 O   0  0  0  0  0  0  0  0  0  0  0  0
   28.5185  -14.3752  -18.9528 C   0  0  0  0  0  0  0  0  0  0  0  0
   26.8841  -19.8580   -7.5498 S   0  0  0  0  0  0  0  0  0  0  0  0
   25.2710  -20.6890   -7.5744 C   0  0  0  0  0  0  0  0  0  0  0  0
   24.8142  -21.1891   -9.2595 C   0  0  0  0  0  0  0  0  0  0  0  0
   25.7484  -20.4858  -10.2147 C   0  0  1  0  0  0  0  0  0  0  0  0
   25.4675  -20.8522  -11.6577 N   0  0  0  0  0  0  0  0  0  0  0  0
   26.3822  -20.1527  -12.5587 C   0  0  0  0  0  0  0  0  0  0  0  0
   24.0617  -20.4449  -11.9361 O   0  0  0  0  0  0  0  0  0  0  0  0
   23.3343  -20.1098  -10.9757 N   0  0  0  0  0  0  0  0  0  0  0  0
   23.5179  -20.4225  -13.2476 C   0  0  2  0  0  0  0  0  0  0  0  0
   22.2955  -21.0939  -13.6249 C   0  0  0  0  0  0  0  0  0  0  0  0
   22.0539  -22.3504  -12.8224 C   0  0  0  0  0  0  0  0  0  0  0  0
   20.8083  -23.0311  -13.2261 C   0  0  0  0  0  0  0  0  0  0  0  0
   19.9189  -22.5939  -14.1811 N   0  0  0  0  0  0  0  0  0  0  0  0
   18.9396  -23.5179  -14.2174 C   0  0  0  0  0  0  0  0  0  0  0  0
   19.1854  -24.4971  -13.3335 N   0  0  0  0  0  0  0  0  0  0  0  0
   20.3304  -24.1930  -12.7303 C   0  0  0  0  0  0  0  0  0  0  0  0
   21.1632  -20.1688  -13.3574 O   0  0  0  0  0  0  0  0  0  0  0  0
   20.9056  -19.7165  -12.0603 O   0  0  0  0  0  0  0  0  0  0  0  0
  2  1  1  0
  2  4  1  0
  3  2  2  0
  4  5  1  0
  5  6  1  0
  7  6  1  0
  7  8  1  0
  8 10  1  0
  8  9  1  6
 10 11  2  0
 13 14  1  0
 13 12  1  0
 14 15  1  0
 16 15  1  1
 17 16  1  0
 17 10  1  0
 18 20  1  0
 18 16  1  0
 19 18  2  0
 21 20  1  0
 21 22  1  1
 23 27  1  0
 23 22  1  0
 24 23  2  0
 25 24  1  0
 25 26  1  0
 26 27  2  0
 28 21  1  0
 29 28  1  0
 30 28  2  0
M  END
$$$$
