RMH.pdb
     RDKit          3D

 30 30  0  0  1  0  0  0  0  0999 V2000
   19.3107  -24.9890  -13.5465 N   0  0  0  0  0  0  0  0  0  0  0  0
   20.1207  -25.6352  -14.5107 C   0  0  0  0  0  0  0  0  0  0  0  0
   19.9935  -26.8897  -14.7617 N   0  0  0  0  0  0  0  0  0  0  0  0
   21.1134  -24.9083  -15.2412 N   0  0  0  0  0  0  0  0  0  0  0  0
   21.3353  -23.4940  -15.0321 C   0  0  0  0  0  0  0  0  0  0  0  0
   22.3377  -23.0016  -16.0522 C   0  0  0  0  0  0  0  0  0  0  0  0
   22.4891  -21.5054  -16.0168 C   0  0  0  0  0  0  0  0  0  0  0  0
   22.9921  -21.0970  -14.6676 C   0  0  2  0  0  0  0  0  0  0  0  0
   22.1896  -21.6686  -13.6267 N   0  0  0  0  0  0  0  0  0  0  0  0
   23.1366  -19.6262  -14.5362 C   0  0  0  0  0  0  0  0  0  0  0  0
   22.2102  -18.9888  -13.9746 O   0  0  0  0  0  0  0  0  0  0  0  0
   20.5680  -27.3664  -15.4583 C   0  0  0  0  0  0  0  0  0  0  0  0
   28.4910  -16.5120  -16.6159 S   0  0  0  0  0  0  0  0  0  0  0  0
   27.7649  -15.2391  -15.5455 C   0  0  0  0  0  0  0  0  0  0  0  0
   26.0224  -15.6002  -15.1828 C   0  0  0  0  0  0  0  0  0  0  0  0
   25.8599  -17.1012  -15.1665 C   0  0  1  0  0  0  0  0  0  0  0  0
   24.4086  -17.5143  -15.0297 N   0  0  0  0  0  0  0  0  0  0  0  0
   24.2811  -18.9709  -15.0289 C   0  0  0  0  0  0  0  0  0  0  0  0
   23.6880  -16.9370  -16.1990 O   0  0  0  0  0  0  0  0  0  0  0  0
   23.5179  -17.6528  -17.2101 N   0  0  0  0  0  0  0  0  0  0  0  0
   23.1881  -15.6080  -16.2087 C   0  0  1  0  0  0  0  0  0  0  0  0
   21.8874  -15.2398  -16.7183 C   0  0  0  0  0  0  0  0  0  0  0  0
   20.7592  -15.8238  -15.9015 C   0  0  0  0  0  0  0  0  0  0  0  0
   19.4374  -15.4369  -16.4317 C   0  0  0  0  0  0  0  0  0  0  0  0
   18.8612  -14.1904  -16.3411 N   0  0  0  0  0  0  0  0  0  0  0  0
   17.6672  -14.2951  -16.9553 C   0  0  0  0  0  0  0  0  0  0  0  0
   17.4845  -15.5420  -17.4165 N   0  0  0  0  0  0  0  0  0  0  0  0
   18.5716  -16.2355  -17.0927 C   0  0  0  0  0  0  0  0  0  0  0  0
   21.7698  -13.7597  -16.6478 O   0  0  0  0  0  0  0  0  0  0  0  0
   21.0132  -13.0606  -17.5924 O   0  0  0  0  0  0  0  0  0  0  0  0
  2  1  1  0
  2  4  1  0
  3  2  2  0
  4  5  1  0
  5  6  1  0
  7  6  1  0
  7  8  1  0
  8 10  1  0
  8  9  1  1
 10 11  2  0
 13 14  1  0
 13 12  1  0
 14 15  1  0
 16 15  1  1
 17 16  1  0
 17 10  1  0
 18 20  1  0
 18 16  1  0
 19 18  2  0
 21 20  1  0
 21 22  1  6
 23 27  1  0
 23 22  1  0
 24 23  2  0
 25 24  1  0
 25 26  1  0
 26 27  2  0
 28 21  1  0
 29 28  1  0
 30 28  2  0
M  END
$$$$
