RMH.pdb
     RDKit          3D

 30 30  0  0  1  0  0  0  0  0999 V2000
   30.3809  -22.5551  -18.5192 N   0  0  0  0  0  0  0  0  0  0  0  0
   29.6932  -21.4485  -19.0724 C   0  0  0  0  0  0  0  0  0  0  0  0
   29.5675  -21.3041  -20.3437 N   0  0  0  0  0  0  0  0  0  0  0  0
   29.1127  -20.4490  -18.2291 N   0  0  0  0  0  0  0  0  0  0  0  0
   29.0125  -20.6203  -16.7959 C   0  0  0  0  0  0  0  0  0  0  0  0
   28.1492  -21.8286  -16.5084 C   0  0  0  0  0  0  0  0  0  0  0  0
   27.9219  -22.0206  -15.0338 C   0  0  0  0  0  0  0  0  0  0  0  0
   27.0977  -20.8844  -14.5145 C   0  0  2  0  0  0  0  0  0  0  0  0
   27.9327  -19.8250  -14.0300 N   0  0  0  0  0  0  0  0  0  0  0  0
   26.0915  -21.3221  -13.5158 C   0  0  0  0  0  0  0  0  0  0  0  0
   25.4308  -22.3633  -13.7593 O   0  0  0  0  0  0  0  0  0  0  0  0
   29.1230  -20.4830  -20.7569 C   0  0  0  0  0  0  0  0  0  0  0  0
   28.4760  -20.4358   -7.2140 S   0  0  0  0  0  0  0  0  0  0  0  0
   26.8539  -19.9885   -7.8937 C   0  0  0  0  0  0  0  0  0  0  0  0
   26.5405  -20.8437   -9.4650 C   0  0  0  0  0  0  0  0  0  0  0  0
   25.2075  -20.3653   -9.9883 C   0  0  2  0  0  0  0  0  0  0  0  0
   24.8807  -20.9628  -11.3418 N   0  0  0  0  0  0  0  0  0  0  0  0
   25.8886  -20.5872  -12.3323 C   0  0  0  0  0  0  0  0  0  0  0  0
   23.5485  -20.4247  -11.7360 O   0  0  0  0  0  0  0  0  0  0  0  0
   23.4398  -19.1987  -11.9568 N   0  0  0  0  0  0  0  0  0  0  0  0
   22.4004  -21.2494  -11.8704 C   0  0  1  0  0  0  0  0  0  0  0  0
   21.1093  -20.7687  -12.3053 C   0  0  0  0  0  0  0  0  0  0  0  0
   20.4141  -21.7362  -13.2335 C   0  0  0  0  0  0  0  0  0  0  0  0
   21.0323  -21.7550  -14.5735 C   0  0  0  0  0  0  0  0  0  0  0  0
   22.0449  -20.9317  -15.0103 N   0  0  0  0  0  0  0  0  0  0  0  0
   22.2900  -21.2989  -16.2827 C   0  0  0  0  0  0  0  0  0  0  0  0
   21.4789  -22.3044  -16.6455 N   0  0  0  0  0  0  0  0  0  0  0  0
   20.7118  -22.5786  -15.5948 C   0  0  0  0  0  0  0  0  0  0  0  0
   20.2507  -20.6093  -11.1023 O   0  0  0  0  0  0  0  0  0  0  0  0
   19.0054  -19.9818  -11.1955 O   0  0  0  0  0  0  0  0  0  0  0  0
  2  1  1  0
  2  4  1  0
  3  2  2  0
  4  5  1  0
  5  6  1  0
  7  6  1  0
  7  8  1  0
  8 10  1  0
  8  9  1  1
 10 11  2  0
 13 14  1  0
 13 12  1  0
 14 15  1  0
 16 15  1  1
 17 16  1  0
 17 10  1  0
 18 20  1  0
 18 16  1  0
 19 18  2  0
 21 20  1  0
 21 22  1  1
 23 27  1  0
 23 22  1  0
 24 23  2  0
 25 24  1  0
 25 26  1  0
 26 27  2  0
 28 21  1  0
 29 28  1  0
 30 28  2  0
M  END
$$$$
