DVE.pdb
     RDKit          3D

 25 24  0  0  1  0  0  0  0  0999 V2000
   18.0421  -11.4807  -18.1537 N   0  0  0  0  0  0  0  0  0  0  0  0
   19.1004  -10.5350  -18.3337 C   0  0  1  0  0  0  0  0  0  0  0  0
   18.6821   -9.2892  -19.0690 C   0  0  0  0  0  0  0  0  0  0  0  0
   18.1925   -9.5861  -20.4189 C   0  0  0  0  0  0  0  0  0  0  0  0
   18.8437  -10.3954  -21.1303 O   0  0  0  0  0  0  0  0  0  0  0  0
   19.6935  -10.1746  -17.0237 C   0  0  0  0  0  0  0  0  0  0  0  0
   18.9571   -9.9099  -16.0424 O   0  0  0  0  0  0  0  0  0  0  0  0
   17.0486   -9.0361  -20.9839 O   0  0  0  0  0  0  0  0  0  0  0  0
   22.7704  -12.0178  -15.4384 C   0  0  0  0  0  0  0  0  0  0  0  0
   23.0265  -10.5485  -15.4685 C   0  0  2  0  0  0  0  0  0  0  0  0
   23.7896  -10.1383  -14.2361 C   0  0  0  0  0  0  0  0  0  0  0  0
   21.7299   -9.7486  -15.5704 C   0  0  2  0  0  0  0  0  0  0  0  0
   21.0967  -10.1115  -16.8159 N   0  0  0  0  0  0  0  0  0  0  0  0
   22.1153   -8.3235  -15.6218 C   0  0  0  0  0  0  0  0  0  0  0  0
   22.4887   -7.8498  -16.7300 O   0  0  0  0  0  0  0  0  0  0  0  0
   22.0813   -7.4755  -14.4810 N   0  0  0  0  0  0  0  0  0  0  0  0
   22.2452   -6.0351  -14.7074 C   0  0  1  0  0  0  0  0  0  0  0  0
   21.1113   -5.5122  -15.5296 C   0  0  0  0  0  0  0  0  0  0  0  0
   21.2036   -4.0311  -15.7107 C   0  0  0  0  0  0  0  0  0  0  0  0
   20.0350   -3.5014  -16.4862 C   0  0  0  0  0  0  0  0  0  0  0  0
   19.0978   -4.2540  -16.7956 O   0  0  0  0  0  0  0  0  0  0  0  0
   22.2338   -5.4151  -13.3677 C   0  0  0  0  0  0  0  0  0  0  0  0
   21.6631   -6.0667  -12.4210 O   0  0  0  0  0  0  0  0  0  0  0  0
   20.0130   -2.1781  -16.8497 O   0  0  0  0  0  0  0  0  0  0  0  0
   22.7978   -4.1898  -13.0721 O   0  0  0  0  0  0  0  0  0  0  0  0
  2  1  1  1
  2  6  1  0
  2  3  1  0
  4  3  1  0
  4  5  2  0
  6  7  2  0
  8  4  1  0
 10  9  1  1
 10 12  1  0
 11 10  1  0
 12 14  1  0
 13  6  1  0
 12 13  1  6
 14 15  2  0
 16 14  1  0
 16 17  1  0
 17 22  1  0
 18 19  1  0
 17 18  1  6
 19 20  1  0
 20 24  1  0
 21 20  2  0
 22 25  1  0
 23 22  2  0
M  END
$$$$
