DVE.pdb
     RDKit          3D

 25 24  0  0  1  0  0  0  0  0999 V2000
   37.0011  -37.5395   -2.9393 N   0  0  0  0  0  0  0  0  0  0  0  0
   35.9399  -36.5949   -2.7714 C   0  0  1  0  0  0  0  0  0  0  0  0
   34.5663  -37.2097   -2.8253 C   0  0  0  0  0  0  0  0  0  0  0  0
   34.2854  -37.8134   -4.1316 C   0  0  0  0  0  0  0  0  0  0  0  0
   35.1374  -37.6843   -5.0496 O   0  0  0  0  0  0  0  0  0  0  0  0
   36.1123  -35.8514   -1.5005 C   0  0  0  0  0  0  0  0  0  0  0  0
   36.4316  -36.4553   -0.4476 O   0  0  0  0  0  0  0  0  0  0  0  0
   33.1349  -38.5280   -4.4415 O   0  0  0  0  0  0  0  0  0  0  0  0
   38.0205  -32.3903   -1.1233 C   0  0  0  0  0  0  0  0  0  0  0  0
   36.6243  -32.3019   -0.6054 C   0  0  2  0  0  0  0  0  0  0  0  0
   36.5749  -31.3614    0.5703 C   0  0  0  0  0  0  0  0  0  0  0  0
   36.0809  -33.6708   -0.2025 C   0  0  2  0  0  0  0  0  0  0  0  0
   35.9286  -34.4463   -1.4106 N   0  0  0  0  0  0  0  0  0  0  0  0
   34.7494  -33.4384    0.3933 C   0  0  0  0  0  0  0  0  0  0  0  0
   33.7349  -33.6078   -0.3375 O   0  0  0  0  0  0  0  0  0  0  0  0
   34.5709  -33.0354    1.7451 N   0  0  0  0  0  0  0  0  0  0  0  0
   33.3929  -33.5510    2.4518 C   0  0  1  0  0  0  0  0  0  0  0  0
   33.4199  -35.0456    2.4723 C   0  0  0  0  0  0  0  0  0  0  0  0
   32.2413  -35.6047    3.2025 C   0  0  0  0  0  0  0  0  0  0  0  0
   32.3457  -37.0929    3.3510 C   0  0  0  0  0  0  0  0  0  0  0  0
   32.3784  -37.6071    4.4801 O   0  0  0  0  0  0  0  0  0  0  0  0
   33.4852  -33.0190    3.8257 C   0  0  0  0  0  0  0  0  0  0  0  0
   32.4411  -33.1124    4.5658 O   0  0  0  0  0  0  0  0  0  0  0  0
   32.4047  -37.8786    2.2272 O   0  0  0  0  0  0  0  0  0  0  0  0
   34.6168  -32.4355    4.3602 O   0  0  0  0  0  0  0  0  0  0  0  0
  2  1  1  1
  2  6  1  0
  2  3  1  0
  4  3  1  0
  4  5  2  0
  6  7  2  0
  8  4  1  0
 10  9  1  1
 10 12  1  0
 11 10  1  0
 12 14  1  0
 13  6  1  0
 12 13  1  6
 14 15  2  0
 16 14  1  0
 16 17  1  0
 17 22  1  0
 18 19  1  0
 17 18  1  1
 19 20  1  0
 20 24  1  0
 21 20  2  0
 22 25  1  0
 23 22  2  0
M  END
$$$$
