DVE.pdb
     RDKit          3D

 25 24  0  0  1  0  0  0  0  0999 V2000
   25.6028  -21.6990  -11.5263 N   0  0  0  0  0  0  0  0  0  0  0  0
   25.7358  -21.4693  -12.9321 C   0  0  1  0  0  0  0  0  0  0  0  0
   25.0165  -22.4824  -13.7830 C   0  0  0  0  0  0  0  0  0  0  0  0
   25.4940  -23.8464  -13.5352 C   0  0  0  0  0  0  0  0  0  0  0  0
   26.3337  -24.0319  -12.6154 O   0  0  0  0  0  0  0  0  0  0  0  0
   25.2745  -20.1025  -13.2737 C   0  0  0  0  0  0  0  0  0  0  0  0
   24.2990  -19.5906  -12.6722 O   0  0  0  0  0  0  0  0  0  0  0  0
   25.0868  -24.9683  -14.2463 O   0  0  0  0  0  0  0  0  0  0  0  0
   26.4364  -15.8787  -15.6299 C   0  0  0  0  0  0  0  0  0  0  0  0
   26.7318  -17.2855  -15.2311 C   0  0  2  0  0  0  0  0  0  0  0  0
   27.2378  -18.0575  -16.4217 C   0  0  0  0  0  0  0  0  0  0  0  0
   25.5048  -17.9780  -14.6427 C   0  0  2  0  0  0  0  0  0  0  0  0
   25.8998  -19.3179  -14.2785 N   0  0  0  0  0  0  0  0  0  0  0  0
   24.4999  -18.0476  -15.7230 C   0  0  0  0  0  0  0  0  0  0  0  0
   24.6384  -18.9389  -16.6054 O   0  0  0  0  0  0  0  0  0  0  0  0
   23.3944  -17.1571  -15.8044 N   0  0  0  0  0  0  0  0  0  0  0  0
   22.2925  -17.5311  -16.6981 C   0  0  1  0  0  0  0  0  0  0  0  0
   21.0062  -17.5730  -15.9373 C   0  0  0  0  0  0  0  0  0  0  0  0
   19.8394  -17.7919  -16.8460 C   0  0  0  0  0  0  0  0  0  0  0  0
   18.5420  -17.7114  -16.0990 C   0  0  0  0  0  0  0  0  0  0  0  0
   18.5387  -17.5421  -14.8695 O   0  0  0  0  0  0  0  0  0  0  0  0
   22.2408  -16.4792  -17.7325 C   0  0  0  0  0  0  0  0  0  0  0  0
   22.7459  -15.3370  -17.4380 O   0  0  0  0  0  0  0  0  0  0  0  0
   17.3607  -17.8267  -16.7881 O   0  0  0  0  0  0  0  0  0  0  0  0
   21.6906  -16.6481  -18.9877 O   0  0  0  0  0  0  0  0  0  0  0  0
  2  1  1  1
  2  6  1  0
  2  3  1  0
  4  3  1  0
  4  5  2  0
  6  7  2  0
  8  4  1  0
 10  9  1  6
 10 12  1  0
 11 10  1  0
 12 14  1  0
 13  6  1  0
 12 13  1  6
 14 15  2  0
 16 14  1  0
 16 17  1  0
 17 22  1  0
 18 19  1  0
 17 18  1  1
 19 20  1  0
 20 24  1  0
 21 20  2  0
 22 25  1  0
 23 22  2  0
M  END
$$$$
