DVE.pdb
     RDKit          3D

 25 24  0  0  1  0  0  0  0  0999 V2000
   19.6399  -13.1942  -16.0822 N   0  0  0  0  0  0  0  0  0  0  0  0
   20.1963  -12.1010  -16.8185 C   0  0  1  0  0  0  0  0  0  0  0  0
   19.1653  -11.2460  -17.5068 C   0  0  0  0  0  0  0  0  0  0  0  0
   18.3330  -12.0245  -18.4294 C   0  0  0  0  0  0  0  0  0  0  0  0
   18.8697  -12.9583  -19.0814 O   0  0  0  0  0  0  0  0  0  0  0  0
   21.0392  -11.2630  -15.9325 C   0  0  0  0  0  0  0  0  0  0  0  0
   20.6299  -10.9280  -14.7943 O   0  0  0  0  0  0  0  0  0  0  0  0
   16.9773  -11.8097  -18.6443 O   0  0  0  0  0  0  0  0  0  0  0  0
   25.6072   -9.5304  -15.0713 C   0  0  0  0  0  0  0  0  0  0  0  0
   24.6282  -10.3553  -15.8371 C   0  0  2  0  0  0  0  0  0  0  0  0
   24.8731  -10.1963  -17.3150 C   0  0  0  0  0  0  0  0  0  0  0  0
   23.1864   -9.9800  -15.5032 C   0  0  2  0  0  0  0  0  0  0  0  0
   22.3268  -10.8054  -16.3181 N   0  0  0  0  0  0  0  0  0  0  0  0
   23.0150   -8.5670  -15.8981 C   0  0  0  0  0  0  0  0  0  0  0  0
   23.1645   -8.2690  -17.1150 O   0  0  0  0  0  0  0  0  0  0  0  0
   22.6913   -7.5417  -14.9677 N   0  0  0  0  0  0  0  0  0  0  0  0
   22.4097   -6.2067  -15.5074 C   0  0  1  0  0  0  0  0  0  0  0  0
   20.9446   -6.0549  -15.7631 C   0  0  0  0  0  0  0  0  0  0  0  0
   20.6086   -4.6711  -16.2182 C   0  0  0  0  0  0  0  0  0  0  0  0
   19.1335   -4.5088  -16.4316 C   0  0  0  0  0  0  0  0  0  0  0  0
   18.5865   -3.4173  -16.2084 O   0  0  0  0  0  0  0  0  0  0  0  0
   22.8489   -5.2539  -14.4689 C   0  0  0  0  0  0  0  0  0  0  0  0
   22.9092   -5.6838  -13.2614 O   0  0  0  0  0  0  0  0  0  0  0  0
   18.3964   -5.5780  -16.8756 O   0  0  0  0  0  0  0  0  0  0  0  0
   23.1995   -3.9411  -14.7150 O   0  0  0  0  0  0  0  0  0  0  0  0
  2  1  1  1
  2  6  1  0
  2  3  1  0
  4  3  1  0
  4  5  2  0
  6  7  2  0
  8  4  1  0
 10  9  1  1
 10 12  1  0
 11 10  1  0
 12 14  1  0
 13  6  1  0
 12 13  1  6
 14 15  2  0
 16 14  1  0
 16 17  1  0
 17 22  1  0
 18 19  1  0
 17 18  1  1
 19 20  1  0
 20 24  1  0
 21 20  2  0
 22 25  1  0
 23 22  2  0
M  END
$$$$
