DVE.pdb
     RDKit          3D

 25 24  0  0  1  0  0  0  0  0999 V2000
   27.7624  -21.3705  -16.2669 N   0  0  0  0  0  0  0  0  0  0  0  0
   27.2958  -20.4247  -15.3003 C   0  0  1  0  0  0  0  0  0  0  0  0
   26.7228  -19.1707  -15.9059 C   0  0  0  0  0  0  0  0  0  0  0  0
   27.6845  -18.4946  -16.7822 C   0  0  0  0  0  0  0  0  0  0  0  0
   28.8616  -18.3274  -16.3677 O   0  0  0  0  0  0  0  0  0  0  0  0
   26.2970  -21.0570  -14.4057 C   0  0  0  0  0  0  0  0  0  0  0  0
   25.4460  -21.8567  -14.8657 O   0  0  0  0  0  0  0  0  0  0  0  0
   27.3950  -18.0161  -18.0540 O   0  0  0  0  0  0  0  0  0  0  0  0
   24.6203  -21.2859   -9.6891 C   0  0  0  0  0  0  0  0  0  0  0  0
   25.6436  -20.8838  -10.6973 C   0  0  2  0  0  0  0  0  0  0  0  0
   25.8669  -19.3955  -10.6317 C   0  0  0  0  0  0  0  0  0  0  0  0
   25.2361  -21.2890  -12.1119 C   0  0  2  0  0  0  0  0  0  0  0  0
   26.2524  -20.7958  -13.0107 N   0  0  0  0  0  0  0  0  0  0  0  0
   23.9618  -20.5993  -12.3987 C   0  0  0  0  0  0  0  0  0  0  0  0
   23.9924  -19.3528  -12.5914 O   0  0  0  0  0  0  0  0  0  0  0  0
   22.7157  -21.2809  -12.4650 N   0  0  0  0  0  0  0  0  0  0  0  0
   21.5410  -20.4994  -12.8675 C   0  0  1  0  0  0  0  0  0  0  0  0
   20.8503  -21.1645  -14.0146 C   0  0  0  0  0  0  0  0  0  0  0  0
   19.6460  -20.3934  -14.4502 C   0  0  0  0  0  0  0  0  0  0  0  0
   18.9010  -21.1105  -15.5358 C   0  0  0  0  0  0  0  0  0  0  0  0
   19.3651  -22.1500  -16.0303 O   0  0  0  0  0  0  0  0  0  0  0  0
   20.6562  -20.4687  -11.6862 C   0  0  0  0  0  0  0  0  0  0  0  0
   20.7060  -21.4702  -10.8856 O   0  0  0  0  0  0  0  0  0  0  0  0
   17.7028  -20.6061  -15.9758 O   0  0  0  0  0  0  0  0  0  0  0  0
   19.7886  -19.4360  -11.3901 O   0  0  0  0  0  0  0  0  0  0  0  0
  2  1  1  6
  2  6  1  0
  2  3  1  0
  4  3  1  0
  4  5  2  0
  6  7  2  0
  8  4  1  0
 10  9  1  1
 10 12  1  0
 11 10  1  0
 12 14  1  0
 13  6  1  0
 12 13  1  6
 14 15  2  0
 16 14  1  0
 16 17  1  0
 17 22  1  0
 18 19  1  0
 17 18  1  6
 19 20  1  0
 20 24  1  0
 21 20  2  0
 22 25  1  0
 23 22  2  0
M  END
$$$$
