DVE.pdb
     RDKit          3D

 25 24  0  0  1  0  0  0  0  0999 V2000
   22.0145  -13.8437  -17.7758 N   0  0  0  0  0  0  0  0  0  0  0  0
   22.1856  -12.4732  -18.1488 C   0  0  1  0  0  0  0  0  0  0  0  0
   21.0178  -11.9008  -18.9080 C   0  0  0  0  0  0  0  0  0  0  0  0
   20.7481  -12.6436  -20.1430 C   0  0  0  0  0  0  0  0  0  0  0  0
   19.6654  -13.2792  -20.2383 O   0  0  0  0  0  0  0  0  0  0  0  0
   22.4639  -11.6470  -16.9498 C   0  0  0  0  0  0  0  0  0  0  0  0
   21.8500  -11.8568  -15.8752 O   0  0  0  0  0  0  0  0  0  0  0  0
   21.6064  -12.7024  -21.2340 O   0  0  0  0  0  0  0  0  0  0  0  0
   25.8764   -9.1999  -16.9930 C   0  0  0  0  0  0  0  0  0  0  0  0
   25.2718   -9.7069  -15.7270 C   0  0  2  0  0  0  0  0  0  0  0  0
   25.8322  -11.0671  -15.4030 C   0  0  0  0  0  0  0  0  0  0  0  0
   23.7489   -9.7765  -15.8137 C   0  0  2  0  0  0  0  0  0  0  0  0
   23.4196  -10.5970  -16.9550 N   0  0  0  0  0  0  0  0  0  0  0  0
   23.2759   -8.3985  -16.0571 C   0  0  0  0  0  0  0  0  0  0  0  0
   23.0616   -8.0469  -17.2497 O   0  0  0  0  0  0  0  0  0  0  0  0
   23.0557   -7.4640  -15.0083 N   0  0  0  0  0  0  0  0  0  0  0  0
   22.4601   -6.1729  -15.3706 C   0  0  1  0  0  0  0  0  0  0  0  0
   21.0809   -6.3771  -15.9102 C   0  0  0  0  0  0  0  0  0  0  0  0
   20.3777   -5.0751  -16.1227 C   0  0  0  0  0  0  0  0  0  0  0  0
   20.4305   -4.6535  -17.5605 C   0  0  0  0  0  0  0  0  0  0  0  0
   20.8401   -5.4413  -18.4277 O   0  0  0  0  0  0  0  0  0  0  0  0
   22.4092   -5.3901  -14.1200 C   0  0  0  0  0  0  0  0  0  0  0  0
   22.4573   -6.0403  -13.0148 O   0  0  0  0  0  0  0  0  0  0  0  0
   20.0220   -3.3897  -17.9065 O   0  0  0  0  0  0  0  0  0  0  0  0
   22.3176   -4.0133  -14.0666 O   0  0  0  0  0  0  0  0  0  0  0  0
  2  1  1  1
  2  6  1  0
  2  3  1  0
  4  3  1  0
  4  5  2  0
  6  7  2  0
  8  4  1  0
 10  9  1  6
 10 12  1  0
 11 10  1  0
 12 14  1  0
 13  6  1  0
 12 13  1  6
 14 15  2  0
 16 14  1  0
 16 17  1  0
 17 22  1  0
 18 19  1  0
 17 18  1  1
 19 20  1  0
 20 24  1  0
 21 20  2  0
 22 25  1  0
 23 22  2  0
M  END
$$$$
