DVE.pdb
     RDKit          3D

 25 24  0  0  1  0  0  0  0  0999 V2000
   17.5029  -11.6077  -17.3590 N   0  0  0  0  0  0  0  0  0  0  0  0
   18.4585  -10.5717  -17.6043 C   0  0  1  0  0  0  0  0  0  0  0  0
   17.9374   -9.4597  -18.4759 C   0  0  0  0  0  0  0  0  0  0  0  0
   17.5629   -9.9372  -19.8106 C   0  0  0  0  0  0  0  0  0  0  0  0
   16.6777   -9.3082  -20.4479 O   0  0  0  0  0  0  0  0  0  0  0  0
   18.9555  -10.0191  -16.3216 C   0  0  0  0  0  0  0  0  0  0  0  0
   18.1756   -9.8629  -15.3507 O   0  0  0  0  0  0  0  0  0  0  0  0
   18.1163  -11.0465  -20.4378 O   0  0  0  0  0  0  0  0  0  0  0  0
   22.8380   -9.3015  -13.4016 C   0  0  0  0  0  0  0  0  0  0  0  0
   22.1650   -9.8269  -14.6249 C   0  0  2  0  0  0  0  0  0  0  0  0
   23.0875   -9.6993  -15.8091 C   0  0  0  0  0  0  0  0  0  0  0  0
   20.8512   -9.1014  -14.9057 C   0  0  2  0  0  0  0  0  0  0  0  0
   20.3118   -9.6455  -16.1292 N   0  0  0  0  0  0  0  0  0  0  0  0
   21.1904   -7.6795  -15.1178 C   0  0  0  0  0  0  0  0  0  0  0  0
   21.7620   -7.3607  -16.1965 O   0  0  0  0  0  0  0  0  0  0  0  0
   20.8996   -6.6681  -14.1616 N   0  0  0  0  0  0  0  0  0  0  0  0
   21.2041   -5.2819  -14.5337 C   0  0  1  0  0  0  0  0  0  0  0  0
   19.9750   -4.4382  -14.4210 C   0  0  0  0  0  0  0  0  0  0  0  0
   20.2681   -3.0018  -14.7137 C   0  0  0  0  0  0  0  0  0  0  0  0
   19.0258   -2.1653  -14.6443 C   0  0  0  0  0  0  0  0  0  0  0  0
   17.9629   -2.5841  -15.1292 O   0  0  0  0  0  0  0  0  0  0  0  0
   22.2279   -4.8249  -13.5733 C   0  0  0  0  0  0  0  0  0  0  0  0
   22.9727   -3.8421  -13.9282 O   0  0  0  0  0  0  0  0  0  0  0  0
   19.0768   -0.9340  -14.0401 O   0  0  0  0  0  0  0  0  0  0  0  0
   22.4292   -5.3823  -12.3261 O   0  0  0  0  0  0  0  0  0  0  0  0
  2  1  1  1
  2  6  1  0
  2  3  1  0
  4  3  1  0
  4  5  2  0
  6  7  2  0
  8  4  1  0
 10  9  1  1
 10 12  1  0
 11 10  1  0
 12 14  1  0
 13  6  1  0
 12 13  1  6
 14 15  2  0
 16 14  1  0
 16 17  1  0
 17 22  1  0
 18 19  1  0
 17 18  1  1
 19 20  1  0
 20 24  1  0
 21 20  2  0
 22 25  1  0
 23 22  2  0
M  END
$$$$
