DVE.pdb
     RDKit          3D

 25 24  0  0  1  0  0  0  0  0999 V2000
   17.5573  -12.6158  -15.9122 N   0  0  0  0  0  0  0  0  0  0  0  0
   18.0630  -11.4540  -16.5764 C   0  0  1  0  0  0  0  0  0  0  0  0
   16.9881  -10.5420  -17.1061 C   0  0  0  0  0  0  0  0  0  0  0  0
   16.1171  -11.2212  -18.0705 C   0  0  0  0  0  0  0  0  0  0  0  0
   16.6381  -12.0188  -18.8936 O   0  0  0  0  0  0  0  0  0  0  0  0
   18.9667  -10.7008  -15.6743 C   0  0  0  0  0  0  0  0  0  0  0  0
   18.5944  -10.3856  -14.5179 O   0  0  0  0  0  0  0  0  0  0  0  0
   14.7405  -11.0515  -18.1490 O   0  0  0  0  0  0  0  0  0  0  0  0
   22.6377  -11.7422  -15.1297 C   0  0  0  0  0  0  0  0  0  0  0  0
   22.5983  -10.2961  -15.4935 C   0  0  2  0  0  0  0  0  0  0  0  0
   23.6789   -9.5538  -14.7513 C   0  0  0  0  0  0  0  0  0  0  0  0
   21.2369   -9.6728  -15.1947 C   0  0  2  0  0  0  0  0  0  0  0  0
   20.2735  -10.3054  -16.0641 N   0  0  0  0  0  0  0  0  0  0  0  0
   21.3401   -8.2423  -15.5482 C   0  0  0  0  0  0  0  0  0  0  0  0
   21.6281   -7.9452  -16.7401 O   0  0  0  0  0  0  0  0  0  0  0  0
   21.1292   -7.1993  -14.6050 N   0  0  0  0  0  0  0  0  0  0  0  0
   21.2348   -5.8193  -15.0920 C   0  0  1  0  0  0  0  0  0  0  0  0
   19.9170   -5.1258  -14.9594 C   0  0  0  0  0  0  0  0  0  0  0  0
   19.9802   -3.7257  -15.4794 C   0  0  0  0  0  0  0  0  0  0  0  0
   18.6440   -3.0508  -15.3965 C   0  0  0  0  0  0  0  0  0  0  0  0
   17.6440   -3.6883  -15.0305 O   0  0  0  0  0  0  0  0  0  0  0  0
   22.2441   -5.1678  -14.2340 C   0  0  0  0  0  0  0  0  0  0  0  0
   22.3601   -5.5964  -13.0301 O   0  0  0  0  0  0  0  0  0  0  0  0
   18.5389   -1.7233  -15.7289 O   0  0  0  0  0  0  0  0  0  0  0  0
   23.0664   -4.1372  -14.6444 O   0  0  0  0  0  0  0  0  0  0  0  0
  2  1  1  1
  2  6  1  0
  2  3  1  0
  4  3  1  0
  4  5  2  0
  6  7  2  0
  8  4  1  0
 10  9  1  1
 10 12  1  0
 11 10  1  0
 12 14  1  0
 13  6  1  0
 12 13  1  6
 14 15  2  0
 16 14  1  0
 16 17  1  0
 17 22  1  0
 18 19  1  0
 17 18  1  1
 19 20  1  0
 20 24  1  0
 21 20  2  0
 22 25  1  0
 23 22  2  0
M  END
$$$$
