DVE.pdb
     RDKit          3D

 25 24  0  0  1  0  0  0  0  0999 V2000
   16.3167  -10.6740  -13.9047 N   0  0  0  0  0  0  0  0  0  0  0  0
   16.9826   -9.8793  -14.8904 C   0  0  1  0  0  0  0  0  0  0  0  0
   16.1217   -8.7908  -15.4748 C   0  0  0  0  0  0  0  0  0  0  0  0
   14.9291   -9.3290  -16.1366 C   0  0  0  0  0  0  0  0  0  0  0  0
   14.2852   -8.5802  -16.9177 O   0  0  0  0  0  0  0  0  0  0  0  0
   18.2227   -9.2956  -14.3256 C   0  0  0  0  0  0  0  0  0  0  0  0
   18.2451   -8.8671  -13.1461 O   0  0  0  0  0  0  0  0  0  0  0  0
   14.4456  -10.6204  -15.9671 O   0  0  0  0  0  0  0  0  0  0  0  0
   21.8137  -10.7921  -14.4036 C   0  0  0  0  0  0  0  0  0  0  0  0
   21.8035   -9.4611  -15.0771 C   0  0  2  0  0  0  0  0  0  0  0  0
   23.1132   -8.7571  -14.8354 C   0  0  0  0  0  0  0  0  0  0  0  0
   20.6456   -8.5903  -14.5953 C   0  0  2  0  0  0  0  0  0  0  0  0
   19.4247   -9.1933  -15.0745 N   0  0  0  0  0  0  0  0  0  0  0  0
   20.8153   -7.2696  -15.2347 C   0  0  0  0  0  0  0  0  0  0  0  0
   20.7743   -7.2110  -16.4945 O   0  0  0  0  0  0  0  0  0  0  0  0
   21.0207   -6.0752  -14.4912 N   0  0  0  0  0  0  0  0  0  0  0  0
   21.1396   -4.8232  -15.2470 C   0  0  1  0  0  0  0  0  0  0  0  0
   20.2889   -3.7640  -14.6230 C   0  0  0  0  0  0  0  0  0  0  0  0
   20.4276   -2.4585  -15.3380 C   0  0  0  0  0  0  0  0  0  0  0  0
   19.5069   -1.4220  -14.7672 C   0  0  0  0  0  0  0  0  0  0  0  0
   18.7319   -1.7158  -13.8434 O   0  0  0  0  0  0  0  0  0  0  0  0
   22.5645   -4.4442  -15.1729 C   0  0  0  0  0  0  0  0  0  0  0  0
   23.0714   -3.8528  -16.1926 O   0  0  0  0  0  0  0  0  0  0  0  0
   19.5304   -0.1476  -15.2762 O   0  0  0  0  0  0  0  0  0  0  0  0
   23.3773   -4.6813  -14.0821 O   0  0  0  0  0  0  0  0  0  0  0  0
  2  1  1  1
  2  6  1  0
  2  3  1  0
  4  3  1  0
  4  5  2  0
  6  7  2  0
  8  4  1  0
 10  9  1  1
 10 12  1  0
 11 10  1  0
 12 14  1  0
 13  6  1  0
 12 13  1  6
 14 15  2  0
 16 14  1  0
 16 17  1  0
 17 22  1  0
 18 19  1  0
 17 18  1  1
 19 20  1  0
 20 24  1  0
 21 20  2  0
 22 25  1  0
 23 22  2  0
M  END
$$$$
