DVE.pdb
     RDKit          3D

 25 24  0  0  1  0  0  0  0  0999 V2000
   23.1887  -12.4372  -19.8791 N   0  0  0  0  0  0  0  0  0  0  0  0
   23.7759  -11.2473  -19.3443 C   0  0  1  0  0  0  0  0  0  0  0  0
   24.2144  -10.2620  -20.3952 C   0  0  0  0  0  0  0  0  0  0  0  0
   25.5007  -10.6327  -20.9935 C   0  0  0  0  0  0  0  0  0  0  0  0
   26.0533  -11.6999  -20.6181 O   0  0  0  0  0  0  0  0  0  0  0  0
   22.8398  -10.5949  -18.3978 C   0  0  0  0  0  0  0  0  0  0  0  0
   21.6172  -10.5094  -18.6684 O   0  0  0  0  0  0  0  0  0  0  0  0
   26.1686   -9.8875  -21.9572 O   0  0  0  0  0  0  0  0  0  0  0  0
   23.8772  -10.6513  -14.4788 C   0  0  0  0  0  0  0  0  0  0  0  0
   22.4720  -10.4664  -14.9441 C   0  0  2  0  0  0  0  0  0  0  0  0
   21.8721  -11.8021  -15.2985 C   0  0  0  0  0  0  0  0  0  0  0  0
   22.3904   -9.5229  -16.1418 C   0  0  2  0  0  0  0  0  0  0  0  0
   23.2693  -10.0443  -17.1615 N   0  0  0  0  0  0  0  0  0  0  0  0
   22.9030   -8.2149  -15.6853 C   0  0  0  0  0  0  0  0  0  0  0  0
   24.1531   -8.0603  -15.6128 O   0  0  0  0  0  0  0  0  0  0  0  0
   22.0488   -7.1357  -15.3284 N   0  0  0  0  0  0  0  0  0  0  0  0
   22.6840   -5.9094  -14.8329 C   0  0  1  0  0  0  0  0  0  0  0  0
   22.3962   -4.7717  -15.7591 C   0  0  0  0  0  0  0  0  0  0  0  0
   20.9284   -4.6160  -15.9957 C   0  0  0  0  0  0  0  0  0  0  0  0
   20.6442   -3.4944  -16.9491 C   0  0  0  0  0  0  0  0  0  0  0  0
   21.2041   -3.4587  -18.0562 O   0  0  0  0  0  0  0  0  0  0  0  0
   22.0842   -5.6545  -13.5083 C   0  0  0  0  0  0  0  0  0  0  0  0
   22.6104   -4.7303  -12.7903 O   0  0  0  0  0  0  0  0  0  0  0  0
   19.7602   -2.5097  -16.5851 O   0  0  0  0  0  0  0  0  0  0  0  0
   20.9990   -6.3408  -13.0001 O   0  0  0  0  0  0  0  0  0  0  0  0
  2  1  1  6
  2  6  1  0
  2  3  1  0
  4  3  1  0
  4  5  2  0
  6  7  2  0
  8  4  1  0
 10  9  1  6
 10 12  1  0
 11 10  1  0
 12 14  1  0
 13  6  1  0
 12 13  1  6
 14 15  2  0
 16 14  1  0
 16 17  1  0
 17 22  1  0
 18 19  1  0
 17 18  1  6
 19 20  1  0
 20 24  1  0
 21 20  2  0
 22 25  1  0
 23 22  2  0
M  END
$$$$
