DVE.pdb
     RDKit          3D

 25 24  0  0  1  0  0  0  0  0999 V2000
   17.0508  -23.0065  -11.1107 N   0  0  0  0  0  0  0  0  0  0  0  0
   17.5877  -22.8233  -12.4240 C   0  0  1  0  0  0  0  0  0  0  0  0
   16.6051  -23.1153  -13.5272 C   0  0  0  0  0  0  0  0  0  0  0  0
   16.1395  -24.5053  -13.4947 C   0  0  0  0  0  0  0  0  0  0  0  0
   16.9937  -25.4275  -13.5665 O   0  0  0  0  0  0  0  0  0  0  0  0
   18.1211  -21.4480  -12.5721 C   0  0  0  0  0  0  0  0  0  0  0  0
   17.4030  -20.4541  -12.3039 O   0  0  0  0  0  0  0  0  0  0  0  0
   14.8091  -24.8914  -13.3892 O   0  0  0  0  0  0  0  0  0  0  0  0
   22.1837  -21.0601  -12.6413 C   0  0  0  0  0  0  0  0  0  0  0  0
   21.3244  -19.8872  -12.3077 C   0  0  2  0  0  0  0  0  0  0  0  0
   21.0004  -19.8944  -10.8365 C   0  0  0  0  0  0  0  0  0  0  0  0
   20.0356  -19.8770  -13.1263 C   0  0  2  0  0  0  0  0  0  0  0  0
   19.4448  -21.1896  -13.0159 N   0  0  0  0  0  0  0  0  0  0  0  0
   20.4285  -19.6409  -14.5305 C   0  0  0  0  0  0  0  0  0  0  0  0
   20.8568  -20.6213  -15.1994 O   0  0  0  0  0  0  0  0  0  0  0  0
   20.3428  -18.3636  -15.1493 N   0  0  0  0  0  0  0  0  0  0  0  0
   20.7418  -18.2694  -16.5581 C   0  0  1  0  0  0  0  0  0  0  0  0
   20.1518  -17.0436  -17.1780 C   0  0  0  0  0  0  0  0  0  0  0  0
   20.4710  -16.9594  -18.6360 C   0  0  0  0  0  0  0  0  0  0  0  0
   19.8929  -15.7206  -19.2516 C   0  0  0  0  0  0  0  0  0  0  0  0
   18.7136  -15.4044  -19.0289 O   0  0  0  0  0  0  0  0  0  0  0  0
   22.2154  -18.1808  -16.5521 C   0  0  0  0  0  0  0  0  0  0  0  0
   22.7600  -17.4732  -15.6306 O   0  0  0  0  0  0  0  0  0  0  0  0
   20.6804  -14.9417  -20.0622 O   0  0  0  0  0  0  0  0  0  0  0  0
   23.0368  -18.8098  -17.4667 O   0  0  0  0  0  0  0  0  0  0  0  0
  2  1  1  1
  2  6  1  0
  2  3  1  0
  4  3  1  0
  4  5  2  0
  6  7  2  0
  8  4  1  0
 10  9  1  6
 10 12  1  0
 11 10  1  0
 12 14  1  0
 13  6  1  0
 12 13  1  6
 14 15  2  0
 16 14  1  0
 16 17  1  0
 17 22  1  0
 18 19  1  0
 17 18  1  1
 19 20  1  0
 20 24  1  0
 21 20  2  0
 22 25  1  0
 23 22  2  0
M  END
$$$$
