DVE.pdb
     RDKit          3D

 25 24  0  0  1  0  0  0  0  0999 V2000
   28.6283  -35.5165   -5.3143 N   0  0  0  0  0  0  0  0  0  0  0  0
   27.5317  -35.7081   -4.4157 C   0  0  1  0  0  0  0  0  0  0  0  0
   27.4794  -37.0846   -3.8074 C   0  0  0  0  0  0  0  0  0  0  0  0
   26.8600  -38.0608   -4.7092 C   0  0  0  0  0  0  0  0  0  0  0  0
   27.3278  -38.1873   -5.8713 O   0  0  0  0  0  0  0  0  0  0  0  0
   27.5611  -34.6825   -3.3457 C   0  0  0  0  0  0  0  0  0  0  0  0
   28.6539  -34.2927   -2.8669 O   0  0  0  0  0  0  0  0  0  0  0  0
   25.7806  -38.8702   -4.3775 O   0  0  0  0  0  0  0  0  0  0  0  0
   25.4267  -31.5264   -3.6958 C   0  0  0  0  0  0  0  0  0  0  0  0
   25.2095  -32.0705   -2.3239 C   0  0  2  0  0  0  0  0  0  0  0  0
   25.0648  -30.9366   -1.3426 C   0  0  0  0  0  0  0  0  0  0  0  0
   26.3474  -32.9926   -1.8925 C   0  0  2  0  0  0  0  0  0  0  0  0
   26.3786  -34.1001   -2.8179 N   0  0  0  0  0  0  0  0  0  0  0  0
   25.9973  -33.4959   -0.5486 C   0  0  0  0  0  0  0  0  0  0  0  0
   24.9508  -34.1906   -0.4296 O   0  0  0  0  0  0  0  0  0  0  0  0
   26.7874  -33.2292    0.6030 N   0  0  0  0  0  0  0  0  0  0  0  0
   26.4119  -33.9066    1.8492 C   0  0  1  0  0  0  0  0  0  0  0  0
   27.5569  -33.8852    2.8103 C   0  0  0  0  0  0  0  0  0  0  0  0
   27.2290  -34.6220    4.0691 C   0  0  0  0  0  0  0  0  0  0  0  0
   28.3350  -34.5054    5.0746 C   0  0  0  0  0  0  0  0  0  0  0  0
   28.1580  -33.8718    6.1270 O   0  0  0  0  0  0  0  0  0  0  0  0
   25.2729  -33.1415    2.3937 C   0  0  0  0  0  0  0  0  0  0  0  0
   25.3001  -31.8659    2.2575 O   0  0  0  0  0  0  0  0  0  0  0  0
   29.5425  -35.1057    4.8191 O   0  0  0  0  0  0  0  0  0  0  0  0
   24.1876  -33.7091    3.0316 O   0  0  0  0  0  0  0  0  0  0  0  0
  2  1  1  1
  2  6  1  0
  2  3  1  0
  4  3  1  0
  4  5  2  0
  6  7  2  0
  8  4  1  0
 10  9  1  6
 10 12  1  0
 11 10  1  0
 12 14  1  0
 13  6  1  0
 12 13  1  6
 14 15  2  0
 16 14  1  0
 16 17  1  0
 17 22  1  0
 18 19  1  0
 17 18  1  1
 19 20  1  0
 20 24  1  0
 21 20  2  0
 22 25  1  0
 23 22  2  0
M  END
$$$$
