CDL.pdb
     RDKit          3D

 23 22  0  0  1  0  0  0  0  0999 V2000
    6.4769  -18.9241   21.3546 N   0  0  0  0  0  0  0  0  0  0  0  0
    7.0131  -17.6009   21.5481 C   0  0  1  0  0  0  0  0  0  0  0  0
    6.1034  -16.7773   22.4675 C   0  0  0  0  0  0  0  0  0  0  0  0
    4.4460  -16.6949   21.7873 S   0  0  0  0  0  0  0  0  0  0  0  0
    8.3312  -17.6947   22.2885 C   0  0  0  0  0  0  0  0  0  0  0  0
    8.4508  -18.6547   23.0454 O   0  0  0  0  0  0  0  0  0  0  0  0
    9.2878  -16.7029   22.0582 N   0  0  0  0  0  0  0  0  0  0  0  0
   10.5706  -16.5283   22.6287 C   0  0  1  0  0  0  0  0  0  0  0  0
   11.6374  -15.8981   21.7615 C   0  0  0  0  0  0  0  0  0  0  0  0
   11.8812  -16.6317   20.4934 C   0  0  0  0  0  0  0  0  0  0  0  0
   12.3551  -17.8159   20.5899 O   0  0  0  0  0  0  0  0  0  0  0  0
   10.5095  -15.9743   23.9892 C   0  0  0  0  0  0  0  0  0  0  0  0
   11.5267  -15.3827   24.4960 O   0  0  0  0  0  0  0  0  0  0  0  0
   11.6348  -16.1262   19.2543 O   0  0  0  0  0  0  0  0  0  0  0  0
    7.8963  -12.3971   24.6774 C   0  0  0  0  0  0  0  0  0  0  0  0
    7.7779  -13.6950   25.3824 C   0  0  2  0  0  0  0  0  0  0  0  0
    6.4602  -13.6861   26.1732 C   0  0  0  0  0  0  0  0  0  0  0  0
    8.8862  -14.1671   26.2299 C   0  0  0  0  0  0  0  0  0  0  0  0
    9.3222  -15.5627   26.2092 C   0  0  2  0  0  0  0  0  0  0  0  0
    9.3563  -16.0549   24.8072 N   0  0  0  0  0  0  0  0  0  0  0  0
    8.6405  -16.5217   27.0604 C   0  0  0  0  0  0  0  0  0  0  0  0
    8.4503  -16.4652   28.2914 O   0  0  0  0  0  0  0  0  0  0  0  0
    8.1121  -17.6852   26.4420 O   0  0  0  0  0  0  0  0  0  0  0  0
  2  1  1  1
  2  5  1  0
  3  2  1  0
  4  3  1  0
  5  6  2  0
  7  8  1  0
  7  5  1  0
  8 12  1  0
  8  9  1  6
 10  9  1  0
 11 10  2  0
 12 13  2  0
 12 20  1  0
 14 10  1  0
 16 17  1  1
 16 15  1  0
 18 16  1  0
 19 18  1  6
 20 19  1  0
 21 19  1  0
 21 23  1  0
 22 21  2  0
M  END
$$$$
