CDL.pdb
     RDKit          3D

 23 22  0  0  1  0  0  0  0  0999 V2000
    7.3394  -14.7470   18.6931 N   0  0  0  0  0  0  0  0  0  0  0  0
    8.3631  -14.3675   19.6332 C   0  0  1  0  0  0  0  0  0  0  0  0
    7.9934  -13.0556   20.3356 C   0  0  0  0  0  0  0  0  0  0  0  0
    8.0225  -11.6966   19.1657 S   0  0  0  0  0  0  0  0  0  0  0  0
    8.4342  -15.3958   20.7431 C   0  0  0  0  0  0  0  0  0  0  0  0
    7.4155  -16.0583   20.9226 O   0  0  0  0  0  0  0  0  0  0  0  0
    9.6272  -15.5080   21.4614 N   0  0  0  0  0  0  0  0  0  0  0  0
    9.9981  -16.4305   22.4678 C   0  0  1  0  0  0  0  0  0  0  0  0
   11.3355  -17.1208   22.3196 C   0  0  0  0  0  0  0  0  0  0  0  0
   11.6612  -18.0319   23.4464 C   0  0  0  0  0  0  0  0  0  0  0  0
   11.3169  -19.2573   23.3200 O   0  0  0  0  0  0  0  0  0  0  0  0
    9.7433  -15.9172   23.8218 C   0  0  0  0  0  0  0  0  0  0  0  0
    9.7787  -16.7041   24.8322 O   0  0  0  0  0  0  0  0  0  0  0  0
   12.2937  -17.6459   24.5878 O   0  0  0  0  0  0  0  0  0  0  0  0
    6.4505  -13.2498   27.2724 C   0  0  0  0  0  0  0  0  0  0  0  0
    7.2214  -12.4170   26.3196 C   0  0  2  0  0  0  0  0  0  0  0  0
    6.2997  -11.2938   25.8188 C   0  0  0  0  0  0  0  0  0  0  0  0
    7.9168  -13.0572   25.1900 C   0  0  0  0  0  0  0  0  0  0  0  0
    8.9321  -14.0876   25.4035 C   0  0  2  0  0  0  0  0  0  0  0  0
    9.4499  -14.5584   24.0924 N   0  0  0  0  0  0  0  0  0  0  0  0
    8.6107  -15.2217   26.2517 C   0  0  0  0  0  0  0  0  0  0  0  0
    7.8443  -16.1753   26.0106 O   0  0  0  0  0  0  0  0  0  0  0  0
    9.2318  -15.2815   27.5268 O   0  0  0  0  0  0  0  0  0  0  0  0
  2  1  1  6
  2  5  1  0
  3  2  1  0
  4  3  1  0
  5  6  2  0
  7  8  1  0
  7  5  1  0
  8 12  1  0
  8  9  1  1
 10  9  1  0
 11 10  2  0
 12 13  2  0
 12 20  1  0
 14 10  1  0
 16 17  1  6
 16 15  1  0
 18 16  1  0
 19 18  1  6
 20 19  1  0
 21 19  1  0
 21 23  1  0
 22 21  2  0
M  END
$$$$
