CDL.pdb
     RDKit          3D

 23 22  0  0  1  0  0  0  0  0999 V2000
    7.8401  -14.7658   18.3453 N   0  0  0  0  0  0  0  0  0  0  0  0
    8.5617  -14.3505   19.5211 C   0  0  1  0  0  0  0  0  0  0  0  0
    8.0797  -12.9738   19.9939 C   0  0  0  0  0  0  0  0  0  0  0  0
    8.6423  -11.6988   18.8650 S   0  0  0  0  0  0  0  0  0  0  0  0
    8.2415  -15.2886   20.6663 C   0  0  0  0  0  0  0  0  0  0  0  0
    7.0735  -15.6618   20.7396 O   0  0  0  0  0  0  0  0  0  0  0  0
    9.2773  -15.6484   21.5322 N   0  0  0  0  0  0  0  0  0  0  0  0
    9.2660  -16.5129   22.6520 C   0  0  1  0  0  0  0  0  0  0  0  0
   10.0705  -17.7897   22.5527 C   0  0  0  0  0  0  0  0  0  0  0  0
   11.3953  -17.6076   21.9065 C   0  0  0  0  0  0  0  0  0  0  0  0
   12.4266  -17.8995   22.6048 O   0  0  0  0  0  0  0  0  0  0  0  0
    9.4527  -15.7922   23.9198 C   0  0  0  0  0  0  0  0  0  0  0  0
   10.5294  -15.1337   24.1403 O   0  0  0  0  0  0  0  0  0  0  0  0
   11.5742  -17.1551   20.6357 O   0  0  0  0  0  0  0  0  0  0  0  0
    8.1185  -12.0420   25.9820 C   0  0  0  0  0  0  0  0  0  0  0  0
    7.2284  -13.2261   26.0160 C   0  0  2  0  0  0  0  0  0  0  0  0
    5.8370  -12.7599   26.4728 C   0  0  0  0  0  0  0  0  0  0  0  0
    7.6419  -14.4268   26.7621 C   0  0  0  0  0  0  0  0  0  0  0  0
    8.7612  -15.2552   26.3158 C   0  0  2  0  0  0  0  0  0  0  0  0
    8.4837  -15.7780   24.9525 N   0  0  0  0  0  0  0  0  0  0  0  0
    9.2262  -16.3270   27.1783 C   0  0  0  0  0  0  0  0  0  0  0  0
    9.1367  -17.5578   26.9995 O   0  0  0  0  0  0  0  0  0  0  0  0
    9.8688  -15.9596   28.3896 O   0  0  0  0  0  0  0  0  0  0  0  0
  2  1  1  6
  2  5  1  0
  3  2  1  0
  4  3  1  0
  5  6  2  0
  7  8  1  0
  7  5  1  0
  8 12  1  0
  8  9  1  6
 10  9  1  0
 11 10  2  0
 12 13  2  0
 12 20  1  0
 14 10  1  0
 16 17  1  1
 16 15  1  0
 18 16  1  0
 19 18  1  1
 20 19  1  0
 21 19  1  0
 21 23  1  0
 22 21  2  0
M  END
$$$$
