CDL.pdb
     RDKit          3D

 23 22  0  0  1  0  0  0  0  0999 V2000
    7.1841  -15.4008   19.9862 N   0  0  0  0  0  0  0  0  0  0  0  0
    8.1270  -14.9234   20.9653 C   0  0  1  0  0  0  0  0  0  0  0  0
    7.8000  -13.4820   21.3738 C   0  0  0  0  0  0  0  0  0  0  0  0
    8.1600  -12.3583   20.0233 S   0  0  0  0  0  0  0  0  0  0  0  0
    7.9828  -15.7303   22.2390 C   0  0  0  0  0  0  0  0  0  0  0  0
    6.8483  -16.1261   22.4943 O   0  0  0  0  0  0  0  0  0  0  0  0
    9.1269  -15.9565   23.0083 N   0  0  0  0  0  0  0  0  0  0  0  0
    9.3233  -16.8198   24.1118 C   0  0  1  0  0  0  0  0  0  0  0  0
   10.4484  -17.8258   24.0159 C   0  0  0  0  0  0  0  0  0  0  0  0
   10.3259  -18.7444   22.8552 C   0  0  0  0  0  0  0  0  0  0  0  0
    9.2502  -19.4313   22.7699 O   0  0  0  0  0  0  0  0  0  0  0  0
    9.2729  -16.1083   25.3974 C   0  0  0  0  0  0  0  0  0  0  0  0
    9.1751  -16.7591   26.4967 O   0  0  0  0  0  0  0  0  0  0  0  0
   11.2757  -18.8965   21.8928 O   0  0  0  0  0  0  0  0  0  0  0  0
    7.6053  -11.5914   25.4110 C   0  0  0  0  0  0  0  0  0  0  0  0
    7.0776  -12.8530   25.9816 C   0  0  2  0  0  0  0  0  0  0  0  0
    5.6379  -12.5940   26.4527 C   0  0  0  0  0  0  0  0  0  0  0  0
    7.8436  -13.5575   27.0237 C   0  0  0  0  0  0  0  0  0  0  0  0
    9.2261  -13.9791   26.8016 C   0  0  2  0  0  0  0  0  0  0  0  0
    9.3273  -14.6972   25.5043 N   0  0  0  0  0  0  0  0  0  0  0  0
    9.9052  -14.7288   27.8435 C   0  0  0  0  0  0  0  0  0  0  0  0
   10.1505  -14.3776   29.0145 O   0  0  0  0  0  0  0  0  0  0  0  0
   10.3623  -16.0329   27.5185 O   0  0  0  0  0  0  0  0  0  0  0  0
  2  1  1  6
  2  5  1  0
  3  2  1  0
  4  3  1  0
  5  6  2  0
  7  8  1  0
  7  5  1  0
  8 12  1  0
  8  9  1  6
 10  9  1  0
 11 10  2  0
 12 13  2  0
 12 20  1  0
 14 10  1  0
 16 17  1  1
 16 15  1  0
 18 16  1  0
 19 18  1  1
 20 19  1  0
 21 19  1  0
 21 23  1  0
 22 21  2  0
M  END
$$$$
