CDL.pdb
     RDKit          3D

 23 22  0  0  1  0  0  0  0  0999 V2000
    7.9228  -14.0895   18.2298 N   0  0  0  0  0  0  0  0  0  0  0  0
    8.9350  -14.2088   19.2481 C   0  0  1  0  0  0  0  0  0  0  0  0
    9.3104  -12.8293   19.8023 C   0  0  0  0  0  0  0  0  0  0  0  0
    7.8415  -11.9652   20.3610 S   0  0  0  0  0  0  0  0  0  0  0  0
    8.3704  -14.9634   20.4338 C   0  0  0  0  0  0  0  0  0  0  0  0
    7.1461  -15.0557   20.4736 O   0  0  0  0  0  0  0  0  0  0  0  0
    9.2667  -15.4844   21.3703 N   0  0  0  0  0  0  0  0  0  0  0  0
    9.0356  -16.3509   22.4645 C   0  0  1  0  0  0  0  0  0  0  0  0
    9.5934  -17.7534   22.3705 C   0  0  0  0  0  0  0  0  0  0  0  0
   11.0730  -17.7968   22.2498 C   0  0  0  0  0  0  0  0  0  0  0  0
   11.7426  -17.8544   23.3381 O   0  0  0  0  0  0  0  0  0  0  0  0
    9.2848  -15.6998   23.7589 C   0  0  0  0  0  0  0  0  0  0  0  0
   10.3901  -15.0897   23.9771 O   0  0  0  0  0  0  0  0  0  0  0  0
   11.7479  -17.7784   21.0683 O   0  0  0  0  0  0  0  0  0  0  0  0
    7.8988  -11.9640   25.6827 C   0  0  0  0  0  0  0  0  0  0  0  0
    7.0544  -13.1748   25.8118 C   0  0  2  0  0  0  0  0  0  0  0  0
    5.6599  -12.7318   26.2819 C   0  0  0  0  0  0  0  0  0  0  0  0
    7.5324  -14.3140   26.6137 C   0  0  0  0  0  0  0  0  0  0  0  0
    8.6471  -15.1481   26.1665 C   0  0  2  0  0  0  0  0  0  0  0  0
    8.3476  -15.7030   24.8206 N   0  0  0  0  0  0  0  0  0  0  0  0
    9.1318  -16.1981   27.0447 C   0  0  0  0  0  0  0  0  0  0  0  0
    9.0971  -17.4320   26.8679 O   0  0  0  0  0  0  0  0  0  0  0  0
    9.7264  -15.8020   28.2715 O   0  0  0  0  0  0  0  0  0  0  0  0
  2  1  1  6
  2  5  1  0
  3  2  1  0
  4  3  1  0
  5  6  2  0
  7  8  1  0
  7  5  1  0
  8 12  1  0
  8  9  1  6
 10  9  1  0
 11 10  2  0
 12 13  2  0
 12 20  1  0
 14 10  1  0
 16 17  1  1
 16 15  1  0
 18 16  1  0
 19 18  1  1
 20 19  1  0
 21 19  1  0
 21 23  1  0
 22 21  2  0
M  END
$$$$
