CDL.pdb
     RDKit          3D

 23 22  0  0  1  0  0  0  0  0999 V2000
    7.3048  -15.9004   19.7055 N   0  0  0  0  0  0  0  0  0  0  0  0
    8.2355  -15.1269   20.4872 C   0  0  1  0  0  0  0  0  0  0  0  0
    7.5139  -13.9865   21.2152 C   0  0  0  0  0  0  0  0  0  0  0  0
    7.0541  -12.7014   20.0519 S   0  0  0  0  0  0  0  0  0  0  0  0
    8.8073  -15.9921   21.5911 C   0  0  0  0  0  0  0  0  0  0  0  0
    8.2278  -17.0570   21.7886 O   0  0  0  0  0  0  0  0  0  0  0  0
    9.9253  -15.5216   22.2843 N   0  0  0  0  0  0  0  0  0  0  0  0
   10.6482  -16.1102   23.3485 C   0  0  1  0  0  0  0  0  0  0  0  0
   12.0829  -15.6722   23.5406 C   0  0  0  0  0  0  0  0  0  0  0  0
   13.0191  -16.2531   22.5445 C   0  0  0  0  0  0  0  0  0  0  0  0
   12.9046  -15.8494   21.3362 O   0  0  0  0  0  0  0  0  0  0  0  0
    9.8716  -16.1584   24.5960 C   0  0  0  0  0  0  0  0  0  0  0  0
   10.3236  -16.7835   25.6189 O   0  0  0  0  0  0  0  0  0  0  0  0
   13.9759  -17.1754   22.8368 O   0  0  0  0  0  0  0  0  0  0  0  0
    8.2521  -12.6491   27.0966 C   0  0  0  0  0  0  0  0  0  0  0  0
    7.3519  -13.1452   26.0292 C   0  0  2  0  0  0  0  0  0  0  0  0
    6.1750  -12.1644   25.9082 C   0  0  0  0  0  0  0  0  0  0  0  0
    6.8646  -14.5344   26.0749 C   0  0  0  0  0  0  0  0  0  0  0  0
    7.7815  -15.6689   25.9742 C   0  0  2  0  0  0  0  0  0  0  0  0
    8.6086  -15.5356   24.7466 N   0  0  0  0  0  0  0  0  0  0  0  0
    7.2437  -17.0143   26.0722 C   0  0  0  0  0  0  0  0  0  0  0  0
    6.6856  -17.5551   27.0473 O   0  0  0  0  0  0  0  0  0  0  0  0
    7.3529  -17.8472   24.9278 O   0  0  0  0  0  0  0  0  0  0  0  0
  2  1  1  1
  2  5  1  0
  3  2  1  0
  4  3  1  0
  5  6  2  0
  7  8  1  0
  7  5  1  0
  8 12  1  0
  8  9  1  1
 10  9  1  0
 11 10  2  0
 12 13  2  0
 12 20  1  0
 14 10  1  0
 16 17  1  1
 16 15  1  0
 18 16  1  0
 19 18  1  6
 20 19  1  0
 21 19  1  0
 21 23  1  0
 22 21  2  0
M  END
$$$$
