CDL.pdb
     RDKit          3D

 23 22  0  0  1  0  0  0  0  0999 V2000
    8.0766  -14.9109   18.0918 N   0  0  0  0  0  0  0  0  0  0  0  0
    8.5780  -14.4536   19.3627 C   0  0  1  0  0  0  0  0  0  0  0  0
    7.8815  -13.1540   19.7835 C   0  0  0  0  0  0  0  0  0  0  0  0
    8.5021  -11.7770   18.8167 S   0  0  0  0  0  0  0  0  0  0  0  0
    8.2133  -15.4558   20.4383 C   0  0  0  0  0  0  0  0  0  0  0  0
    7.2166  -16.1383   20.2157 O   0  0  0  0  0  0  0  0  0  0  0  0
    9.0215  -15.5242   21.5759 N   0  0  0  0  0  0  0  0  0  0  0  0
    8.9453  -16.3884   22.6934 C   0  0  1  0  0  0  0  0  0  0  0  0
    9.5960  -17.7477   22.5668 C   0  0  0  0  0  0  0  0  0  0  0  0
   11.0141  -17.6884   22.1295 C   0  0  0  0  0  0  0  0  0  0  0  0
   11.6276  -16.5787   22.2983 O   0  0  0  0  0  0  0  0  0  0  0  0
    9.2506  -15.7010   23.9568 C   0  0  0  0  0  0  0  0  0  0  0  0
   10.3960  -15.1572   24.1402 O   0  0  0  0  0  0  0  0  0  0  0  0
   11.6886  -18.7283   21.5679 O   0  0  0  0  0  0  0  0  0  0  0  0
    8.1681  -11.7865   25.6604 C   0  0  0  0  0  0  0  0  0  0  0  0
    7.2181  -12.9061   25.8596 C   0  0  2  0  0  0  0  0  0  0  0  0
    5.8760  -12.3130   26.3166 C   0  0  0  0  0  0  0  0  0  0  0  0
    7.6000  -14.0416   26.7166 C   0  0  0  0  0  0  0  0  0  0  0  0
    8.6630  -14.9674   26.3283 C   0  0  2  0  0  0  0  0  0  0  0  0
    8.3262  -15.5968   25.0247 N   0  0  0  0  0  0  0  0  0  0  0  0
    9.0909  -15.9796   27.2776 C   0  0  0  0  0  0  0  0  0  0  0  0
    9.6520  -15.8188   28.3795 O   0  0  0  0  0  0  0  0  0  0  0  0
    8.8557  -17.3374   26.9363 O   0  0  0  0  0  0  0  0  0  0  0  0
  2  1  1  6
  2  5  1  0
  3  2  1  0
  4  3  1  0
  5  6  2  0
  7  8  1  0
  7  5  1  0
  8 12  1  0
  8  9  1  6
 10  9  1  0
 11 10  2  0
 12 13  2  0
 12 20  1  0
 14 10  1  0
 16 17  1  1
 16 15  1  0
 18 16  1  0
 19 18  1  1
 20 19  1  0
 21 19  1  0
 21 23  1  0
 22 21  2  0
M  END
$$$$
