CDL.pdb
     RDKit          3D

 23 22  0  0  1  0  0  0  0  0999 V2000
    6.3588  -19.3511   21.7533 N   0  0  0  0  0  0  0  0  0  0  0  0
    6.5412  -18.3212   22.7441 C   0  0  1  0  0  0  0  0  0  0  0  0
    6.0054  -18.7791   24.1058 C   0  0  0  0  0  0  0  0  0  0  0  0
    6.1518  -17.4551   25.3066 S   0  0  0  0  0  0  0  0  0  0  0  0
    8.0219  -18.0923   22.9662 C   0  0  0  0  0  0  0  0  0  0  0  0
    8.6422  -19.0387   23.4442 O   0  0  0  0  0  0  0  0  0  0  0  0
    8.5555  -16.8490   22.6179 N   0  0  0  0  0  0  0  0  0  0  0  0
    9.8353  -16.3049   22.8779 C   0  0  1  0  0  0  0  0  0  0  0  0
   10.4524  -15.4359   21.8049 C   0  0  0  0  0  0  0  0  0  0  0  0
   10.6920  -16.1522   20.5261 C   0  0  0  0  0  0  0  0  0  0  0  0
   11.1728  -17.3349   20.6046 O   0  0  0  0  0  0  0  0  0  0  0  0
    9.9411  -15.7400   24.2312 C   0  0  0  0  0  0  0  0  0  0  0  0
   11.0610  -15.2908   24.6619 O   0  0  0  0  0  0  0  0  0  0  0  0
   10.4348  -15.6325   19.2951 O   0  0  0  0  0  0  0  0  0  0  0  0
    7.8802  -12.0687   25.7228 C   0  0  0  0  0  0  0  0  0  0  0  0
    7.1541  -13.3443   25.9260 C   0  0  2  0  0  0  0  0  0  0  0  0
    5.7108  -13.0082   26.3333 C   0  0  0  0  0  0  0  0  0  0  0  0
    7.7184  -14.3690   26.8210 C   0  0  0  0  0  0  0  0  0  0  0  0
    8.9534  -15.0774   26.4878 C   0  0  2  0  0  0  0  0  0  0  0  0
    8.8446  -15.6570   25.1236 N   0  0  0  0  0  0  0  0  0  0  0  0
    9.4618  -16.0721   27.4157 C   0  0  0  0  0  0  0  0  0  0  0  0
    9.9161  -15.8983   28.5638 O   0  0  0  0  0  0  0  0  0  0  0  0
    9.4558  -17.4265   26.9904 O   0  0  0  0  0  0  0  0  0  0  0  0
  2  1  1  6
  2  5  1  0
  3  2  1  0
  4  3  1  0
  5  6  2  0
  7  8  1  0
  7  5  1  0
  8 12  1  0
  8  9  1  6
 10  9  1  0
 11 10  2  0
 12 13  2  0
 12 20  1  0
 14 10  1  0
 16 17  1  1
 16 15  1  0
 18 16  1  0
 19 18  1  1
 20 19  1  0
 21 19  1  0
 21 23  1  0
 22 21  2  0
M  END
$$$$
