CDL.pdb
     RDKit          3D

 23 22  0  0  1  0  0  0  0  0999 V2000
    6.7364  -15.9801   19.2124 N   0  0  0  0  0  0  0  0  0  0  0  0
    7.7041  -15.2463   19.9874 C   0  0  1  0  0  0  0  0  0  0  0  0
    7.1721  -13.8514   20.3370 C   0  0  0  0  0  0  0  0  0  0  0  0
    8.3948  -12.9405   21.2814 S   0  0  0  0  0  0  0  0  0  0  0  0
    7.9041  -15.9319   21.3232 C   0  0  0  0  0  0  0  0  0  0  0  0
    6.8804  -16.3076   21.8886 O   0  0  0  0  0  0  0  0  0  0  0  0
    9.2095  -16.0799   21.7984 N   0  0  0  0  0  0  0  0  0  0  0  0
    9.6866  -16.7513   22.9487 C   0  0  1  0  0  0  0  0  0  0  0  0
   10.9372  -17.5881   22.7968 C   0  0  0  0  0  0  0  0  0  0  0  0
   12.1216  -16.8098   22.3526 C   0  0  0  0  0  0  0  0  0  0  0  0
   11.9224  -15.8986   21.4773 O   0  0  0  0  0  0  0  0  0  0  0  0
    9.6915  -15.8899   24.1402 C   0  0  0  0  0  0  0  0  0  0  0  0
   10.7943  -15.4398   24.6120 O   0  0  0  0  0  0  0  0  0  0  0  0
   13.3866  -17.0063   22.8141 O   0  0  0  0  0  0  0  0  0  0  0  0
    7.9902  -12.0444   26.2202 C   0  0  0  0  0  0  0  0  0  0  0  0
    7.0613  -13.1731   25.9780 C   0  0  2  0  0  0  0  0  0  0  0  0
    5.6338  -12.6820   26.2661 C   0  0  0  0  0  0  0  0  0  0  0  0
    7.3040  -14.4696   26.6335 C   0  0  0  0  0  0  0  0  0  0  0  0
    8.4662  -15.2902   26.2958 C   0  0  2  0  0  0  0  0  0  0  0  0
    8.5121  -15.5111   24.8268 N   0  0  0  0  0  0  0  0  0  0  0  0
    8.6641  -16.5460   26.9976 C   0  0  0  0  0  0  0  0  0  0  0  0
    8.4090  -17.7011   26.6033 O   0  0  0  0  0  0  0  0  0  0  0  0
    9.2163  -16.4851   28.3040 O   0  0  0  0  0  0  0  0  0  0  0  0
  2  1  1  6
  2  5  1  0
  3  2  1  0
  4  3  1  0
  5  6  2  0
  7  8  1  0
  7  5  1  0
  8 12  1  0
  8  9  1  6
 10  9  1  0
 11 10  2  0
 12 13  2  0
 12 20  1  0
 14 10  1  0
 16 17  1  1
 16 15  1  0
 18 16  1  0
 19 18  1  6
 20 19  1  0
 21 19  1  0
 21 23  1  0
 22 21  2  0
M  END
$$$$
