CDL.pdb
     RDKit          3D

 23 22  0  0  1  0  0  0  0  0999 V2000
    8.7873  -14.4046   17.7431 N   0  0  0  0  0  0  0  0  0  0  0  0
    8.8379  -13.9054   19.0937 C   0  0  1  0  0  0  0  0  0  0  0  0
    8.0089  -12.6225   19.2279 C   0  0  0  0  0  0  0  0  0  0  0  0
    8.0576  -12.0272   20.9189 S   0  0  0  0  0  0  0  0  0  0  0  0
    8.1708  -14.8981   20.0230 C   0  0  0  0  0  0  0  0  0  0  0  0
    7.3441  -15.6432   19.5033 O   0  0  0  0  0  0  0  0  0  0  0  0
    8.5396  -14.8890   21.3706 N   0  0  0  0  0  0  0  0  0  0  0  0
    8.7762  -15.9678   22.2548 C   0  0  1  0  0  0  0  0  0  0  0  0
    9.5363  -17.1574   21.7125 C   0  0  0  0  0  0  0  0  0  0  0  0
    9.4731  -18.3529   22.5915 C   0  0  0  0  0  0  0  0  0  0  0  0
   10.3612  -18.4475   23.5072 O   0  0  0  0  0  0  0  0  0  0  0  0
    9.2413  -15.5197   23.5756 C   0  0  0  0  0  0  0  0  0  0  0  0
   10.4783  -15.2494   23.7715 O   0  0  0  0  0  0  0  0  0  0  0  0
    8.5414  -19.3385   22.4815 O   0  0  0  0  0  0  0  0  0  0  0  0
    7.7821  -11.8677   25.9542 C   0  0  0  0  0  0  0  0  0  0  0  0
    7.0957  -13.1654   26.1551 C   0  0  2  0  0  0  0  0  0  0  0  0
    5.7831  -12.8957   26.9075 C   0  0  0  0  0  0  0  0  0  0  0  0
    7.8243  -14.2867   26.7725 C   0  0  0  0  0  0  0  0  0  0  0  0
    8.8669  -15.0115   26.0472 C   0  0  2  0  0  0  0  0  0  0  0  0
    8.3789  -15.3615   24.6878 N   0  0  0  0  0  0  0  0  0  0  0  0
    9.4789  -16.1700   26.6735 C   0  0  0  0  0  0  0  0  0  0  0  0
    9.3823  -17.3688   26.3441 O   0  0  0  0  0  0  0  0  0  0  0  0
   10.2976  -15.9425   27.8107 O   0  0  0  0  0  0  0  0  0  0  0  0
  2  1  1  6
  2  5  1  0
  3  2  1  0
  4  3  1  0
  5  6  2  0
  7  8  1  0
  7  5  1  0
  8 12  1  0
  8  9  1  6
 10  9  1  0
 11 10  2  0
 12 13  2  0
 12 20  1  0
 14 10  1  0
 16 17  1  1
 16 15  1  0
 18 16  1  0
 19 18  1  1
 20 19  1  0
 21 19  1  0
 21 23  1  0
 22 21  2  0
M  END
$$$$
