CDL.pdb
     RDKit          3D

 23 22  0  0  1  0  0  0  0  0999 V2000
    8.2862  -14.8810   17.9655 N   0  0  0  0  0  0  0  0  0  0  0  0
    8.6916  -14.2979   19.2191 C   0  0  1  0  0  0  0  0  0  0  0  0
    7.9947  -12.9499   19.4393 C   0  0  0  0  0  0  0  0  0  0  0  0
    8.4985  -12.2407   21.0076 S   0  0  0  0  0  0  0  0  0  0  0  0
    8.2142  -15.1729   20.3595 C   0  0  0  0  0  0  0  0  0  0  0  0
    7.0498  -15.5571   20.2859 O   0  0  0  0  0  0  0  0  0  0  0  0
    9.1160  -15.4684   21.3848 N   0  0  0  0  0  0  0  0  0  0  0  0
    8.9560  -16.2875   22.5272 C   0  0  1  0  0  0  0  0  0  0  0  0
    9.5747  -17.6669   22.4858 C   0  0  0  0  0  0  0  0  0  0  0  0
   10.9906  -17.6689   22.0372 C   0  0  0  0  0  0  0  0  0  0  0  0
   11.7007  -16.6529   22.3526 O   0  0  0  0  0  0  0  0  0  0  0  0
    9.2115  -15.5610   23.7796 C   0  0  0  0  0  0  0  0  0  0  0  0
   10.3040  -14.9120   23.9428 O   0  0  0  0  0  0  0  0  0  0  0  0
   11.5677  -18.6718   21.3211 O   0  0  0  0  0  0  0  0  0  0  0  0
    7.5381  -11.8523   25.4929 C   0  0  0  0  0  0  0  0  0  0  0  0
    6.7987  -13.1010   25.7923 C   0  0  2  0  0  0  0  0  0  0  0  0
    5.4250  -12.7131   26.3619 C   0  0  0  0  0  0  0  0  0  0  0  0
    7.4294  -14.1389   26.6256 C   0  0  0  0  0  0  0  0  0  0  0  0
    8.5986  -14.8844   26.1616 C   0  0  2  0  0  0  0  0  0  0  0  0
    8.2943  -15.5307   24.8583 N   0  0  0  0  0  0  0  0  0  0  0  0
    9.2220  -15.8392   27.0608 C   0  0  0  0  0  0  0  0  0  0  0  0
    9.8366  -15.6148   28.1223 O   0  0  0  0  0  0  0  0  0  0  0  0
    9.1399  -17.2135   26.7145 O   0  0  0  0  0  0  0  0  0  0  0  0
  2  1  1  6
  2  5  1  0
  3  2  1  0
  4  3  1  0
  5  6  2  0
  7  8  1  0
  7  5  1  0
  8 12  1  0
  8  9  1  6
 10  9  1  0
 11 10  2  0
 12 13  2  0
 12 20  1  0
 14 10  1  0
 16 17  1  1
 16 15  1  0
 18 16  1  0
 19 18  1  1
 20 19  1  0
 21 19  1  0
 21 23  1  0
 22 21  2  0
M  END
$$$$
