CDL.pdb
     RDKit          3D

 23 22  0  0  1  0  0  0  0  0999 V2000
    7.2930  -14.9558   18.0062 N   0  0  0  0  0  0  0  0  0  0  0  0
    8.2142  -14.3738   18.9487 C   0  0  1  0  0  0  0  0  0  0  0  0
    7.7202  -12.9970   19.4086 C   0  0  0  0  0  0  0  0  0  0  0  0
    8.8145  -12.3338   20.6652 S   0  0  0  0  0  0  0  0  0  0  0  0
    8.2461  -15.2155   20.2075 C   0  0  0  0  0  0  0  0  0  0  0  0
    7.1513  -15.5070   20.6822 O   0  0  0  0  0  0  0  0  0  0  0  0
    9.4916  -15.5866   20.7202 N   0  0  0  0  0  0  0  0  0  0  0  0
    9.8103  -16.3643   21.8582 C   0  0  1  0  0  0  0  0  0  0  0  0
   11.0515  -17.2254   21.7866 C   0  0  0  0  0  0  0  0  0  0  0  0
   11.2156  -18.1282   22.9544 C   0  0  0  0  0  0  0  0  0  0  0  0
   10.1501  -18.6257   23.4577 O   0  0  0  0  0  0  0  0  0  0  0  0
    9.6887  -15.6035   23.1104 C   0  0  0  0  0  0  0  0  0  0  0  0
   10.5848  -14.7497   23.4414 O   0  0  0  0  0  0  0  0  0  0  0  0
   12.4138  -18.4517   23.5124 O   0  0  0  0  0  0  0  0  0  0  0  0
    5.6488  -12.5457   26.3449 C   0  0  0  0  0  0  0  0  0  0  0  0
    6.9983  -13.1534   26.2746 C   0  0  2  0  0  0  0  0  0  0  0  0
    8.0320  -12.0165   26.3025 C   0  0  0  0  0  0  0  0  0  0  0  0
    7.3111  -14.1101   25.1992 C   0  0  0  0  0  0  0  0  0  0  0  0
    8.4821  -14.9829   25.2706 C   0  0  2  0  0  0  0  0  0  0  0  0
    8.6049  -15.7586   24.0088 N   0  0  0  0  0  0  0  0  0  0  0  0
    8.6302  -15.8631   26.4161 C   0  0  0  0  0  0  0  0  0  0  0  0
    8.0697  -16.9565   26.6291 O   0  0  0  0  0  0  0  0  0  0  0  0
    9.5194  -15.4543   27.4444 O   0  0  0  0  0  0  0  0  0  0  0  0
  2  1  1  6
  2  5  1  0
  3  2  1  0
  4  3  1  0
  5  6  2  0
  7  8  1  0
  7  5  1  0
  8 12  1  0
  8  9  1  6
 10  9  1  0
 11 10  2  0
 12 13  2  0
 12 20  1  0
 14 10  1  0
 16 17  1  6
 16 15  1  0
 18 16  1  0
 19 18  1  1
 20 19  1  0
 21 19  1  0
 21 23  1  0
 22 21  2  0
M  END
$$$$
