KQR.pdb
     RDKit          3D

 30 29  0  0  1  0  0  0  0  0999 V2000
   20.5964  -24.0819  -17.0259 N   0  0  0  0  0  0  0  0  0  0  0  0
   20.9535  -23.2747  -15.8937 C   0  0  1  0  0  0  0  0  0  0  0  0
   22.3116  -23.5522  -15.3764 C   0  0  0  0  0  0  0  0  0  0  0  0
   23.0491  -24.5750  -16.1577 C   0  0  0  0  0  0  0  0  0  0  0  0
   24.4070  -24.8704  -15.6233 C   0  0  0  0  0  0  0  0  0  0  0  0
   25.0487  -25.8439  -16.6406 C   0  0  0  0  0  0  0  0  0  0  0  0
   26.3619  -26.2220  -16.1859 N   0  0  0  0  0  0  0  0  0  0  0  0
   20.8768  -21.8319  -16.2880 C   0  0  0  0  0  0  0  0  0  0  0  0
   21.3404  -21.4183  -17.3751 O   0  0  0  0  0  0  0  0  0  0  0  0
   18.0541  -17.4155  -12.6776 N   0  0  0  0  0  0  0  0  0  0  0  0
   18.2542  -16.7016  -13.8911 C   0  0  0  0  0  0  0  0  0  0  0  0
   17.8116  -15.5329  -13.9560 O   0  0  0  0  0  0  0  0  0  0  0  0
   18.9730  -17.4135  -14.9750 C   0  0  0  0  0  0  0  0  0  0  0  0
   19.3221  -18.8328  -14.6654 C   0  0  0  0  0  0  0  0  0  0  0  0
   20.0786  -19.4931  -15.7632 C   0  0  2  0  0  0  0  0  0  0  0  0
   20.2718  -20.9235  -15.4188 N   0  0  0  0  0  0  0  0  0  0  0  0
   21.4469  -18.9474  -15.8484 C   0  0  0  0  0  0  0  0  0  0  0  0
   22.3800  -19.5089  -15.1736 O   0  0  0  0  0  0  0  0  0  0  0  0
   28.4725  -17.5493  -18.3965 N   0  0  0  0  0  0  0  0  0  0  0  0
   28.4746  -18.9469  -18.1498 C   0  0  0  0  0  0  0  0  0  0  0  0
   29.5475  -19.5212  -17.7710 N   0  0  0  0  0  0  0  0  0  0  0  0
   27.2788  -19.6747  -18.3312 N   0  0  0  0  0  0  0  0  0  0  0  0
   26.0727  -18.9929  -18.7467 C   0  0  0  0  0  0  0  0  0  0  0  0
   25.5005  -18.2872  -17.5391 C   0  0  0  0  0  0  0  0  0  0  0  0
   24.0629  -18.6188  -17.2980 C   0  0  0  0  0  0  0  0  0  0  0  0
   23.2543  -17.4715  -16.7223 C   0  0  2  0  0  0  0  0  0  0  0  0
   21.8471  -17.8392  -16.6260 N   0  0  0  0  0  0  0  0  0  0  0  0
   23.3613  -16.2576  -17.5642 C   0  0  0  0  0  0  0  0  0  0  0  0
   24.4583  -15.7034  -17.8272 O   0  0  0  0  0  0  0  0  0  0  0  0
   22.2221  -15.6827  -18.1014 O   0  0  0  0  0  0  0  0  0  0  0  0
  2  1  1  6
  2  3  1  0
  4  3  1  0
  5  4  1  0
  6  5  1  0
  7  6  1  0
  8  9  2  0
  8  2  1  0
 10 11  1  0
 11 12  2  0
 11 13  1  0
 13 14  1  0
 15 14  1  1
 15 16  1  0
 16  8  1  0
 17 15  1  0
 17 27  1  0
 18 17  2  0
 19 20  1  0
 20 22  1  0
 21 20  2  0
 22 23  1  0
 23 24  1  0
 24 25  1  0
 26 25  1  6
 26 27  1  0
 26 28  1  0
 28 29  2  0
 28 30  1  0
M  END
$$$$
