KQR.pdb
     RDKit          3D

 30 29  0  0  1  0  0  0  0  0999 V2000
   32.0232  -27.4306  -18.8185 N   0  0  0  0  0  0  0  0  0  0  0  0
   32.6313  -28.6931  -19.1304 C   0  0  1  0  0  0  0  0  0  0  0  0
   33.8519  -28.9707  -18.3419 C   0  0  0  0  0  0  0  0  0  0  0  0
   35.1110  -28.7006  -19.0783 C   0  0  0  0  0  0  0  0  0  0  0  0
   36.1604  -29.7354  -18.8671 C   0  0  0  0  0  0  0  0  0  0  0  0
   37.3323  -29.3306  -19.7929 C   0  0  0  0  0  0  0  0  0  0  0  0
   38.4910  -30.1276  -19.4827 N   0  0  0  0  0  0  0  0  0  0  0  0
   31.6367  -29.7829  -18.8728 C   0  0  0  0  0  0  0  0  0  0  0  0
   31.9186  -30.9901  -19.0488 O   0  0  0  0  0  0  0  0  0  0  0  0
   26.4845  -28.9882  -15.6581 N   0  0  0  0  0  0  0  0  0  0  0  0
   26.3705  -30.3882  -15.8800 C   0  0  0  0  0  0  0  0  0  0  0  0
   25.3246  -30.9538  -15.4900 O   0  0  0  0  0  0  0  0  0  0  0  0
   27.5100  -31.0530  -16.5568 C   0  0  0  0  0  0  0  0  0  0  0  0
   28.6688  -30.1576  -16.8529 C   0  0  0  0  0  0  0  0  0  0  0  0
   29.3069  -30.4549  -18.1637 C   0  0  2  0  0  0  0  0  0  0  0  0
   30.3601  -29.4425  -18.4242 N   0  0  0  0  0  0  0  0  0  0  0  0
   28.3396  -30.2704  -19.2626 C   0  0  0  0  0  0  0  0  0  0  0  0
   28.2404  -29.1173  -19.8123 O   0  0  0  0  0  0  0  0  0  0  0  0
   28.4411  -28.3981  -26.7095 N   0  0  0  0  0  0  0  0  0  0  0  0
   27.8764  -27.6413  -25.6500 C   0  0  0  0  0  0  0  0  0  0  0  0
   27.9056  -26.3679  -25.6961 N   0  0  0  0  0  0  0  0  0  0  0  0
   27.2906  -28.3217  -24.5608 N   0  0  0  0  0  0  0  0  0  0  0  0
   27.3450  -29.7656  -24.4958 C   0  0  0  0  0  0  0  0  0  0  0  0
   26.5303  -30.2063  -23.3017 C   0  0  0  0  0  0  0  0  0  0  0  0
   27.3581  -30.4027  -22.0726 C   0  0  0  0  0  0  0  0  0  0  0  0
   26.5854  -30.9601  -20.8921 C   0  0  2  0  0  0  0  0  0  0  0  0
   27.4900  -31.2662  -19.7909 N   0  0  0  0  0  0  0  0  0  0  0  0
   25.8598  -32.1991  -21.2561 C   0  0  0  0  0  0  0  0  0  0  0  0
   26.0826  -33.3074  -20.7068 O   0  0  0  0  0  0  0  0  0  0  0  0
   24.8867  -32.1700  -22.2404 O   0  0  0  0  0  0  0  0  0  0  0  0
  2  1  1  1
  2  3  1  0
  4  3  1  0
  5  4  1  0
  6  5  1  0
  7  6  1  0
  8  9  2  0
  8  2  1  0
 10 11  1  0
 11 12  2  0
 11 13  1  0
 13 14  1  0
 15 14  1  1
 15 16  1  0
 16  8  1  0
 17 15  1  0
 17 27  1  0
 18 17  2  0
 19 20  1  0
 20 22  1  0
 21 20  2  0
 22 23  1  0
 23 24  1  0
 24 25  1  0
 26 25  1  6
 26 27  1  0
 26 28  1  0
 28 29  2  0
 28 30  1  0
M  END
$$$$
