KQR.pdb
     RDKit          3D

 30 29  0  0  1  0  0  0  0  0999 V2000
   26.8022  -22.5929  -16.8675 N   0  0  0  0  0  0  0  0  0  0  0  0
   27.5455  -21.7265  -15.9969 C   0  0  1  0  0  0  0  0  0  0  0  0
   28.6384  -21.0002  -16.6801 C   0  0  0  0  0  0  0  0  0  0  0  0
   28.5841  -21.0968  -18.1594 C   0  0  0  0  0  0  0  0  0  0  0  0
   28.8101  -19.7981  -18.8516 C   0  0  0  0  0  0  0  0  0  0  0  0
   30.3169  -19.7736  -19.2026 C   0  0  0  0  0  0  0  0  0  0  0  0
   30.6415  -18.5306  -19.8537 N   0  0  0  0  0  0  0  0  0  0  0  0
   26.6064  -20.7253  -15.3979 C   0  0  0  0  0  0  0  0  0  0  0  0
   26.9876  -19.8860  -14.5505 O   0  0  0  0  0  0  0  0  0  0  0  0
   21.9391  -15.5906  -16.7398 N   0  0  0  0  0  0  0  0  0  0  0  0
   22.9026  -16.5937  -17.0360 C   0  0  0  0  0  0  0  0  0  0  0  0
   23.5453  -16.4829  -18.1039 O   0  0  0  0  0  0  0  0  0  0  0  0
   23.0567  -17.6862  -16.0455 C   0  0  0  0  0  0  0  0  0  0  0  0
   24.0880  -18.7079  -16.3984 C   0  0  0  0  0  0  0  0  0  0  0  0
   24.2911  -19.7171  -15.3242 C   0  0  2  0  0  0  0  0  0  0  0  0
   25.2691  -20.7286  -15.7959 N   0  0  0  0  0  0  0  0  0  0  0  0
   23.0512  -20.4835  -15.0946 C   0  0  0  0  0  0  0  0  0  0  0  0
   22.5798  -21.1976  -16.0482 O   0  0  0  0  0  0  0  0  0  0  0  0
   19.8988  -22.9366   -7.6579 N   0  0  0  0  0  0  0  0  0  0  0  0
   19.2065  -23.1285   -8.8818 C   0  0  0  0  0  0  0  0  0  0  0  0
   18.2318  -23.9479   -8.9360 N   0  0  0  0  0  0  0  0  0  0  0  0
   19.6167  -22.4015  -10.0201 N   0  0  0  0  0  0  0  0  0  0  0  0
   20.8216  -21.6028   -9.9731 C   0  0  0  0  0  0  0  0  0  0  0  0
   20.9835  -20.9297  -11.3164 C   0  0  0  0  0  0  0  0  0  0  0  0
   20.8787  -21.8840  -12.4623 C   0  0  0  0  0  0  0  0  0  0  0  0
   21.0441  -21.2336  -13.8228 C   0  0  2  0  0  0  0  0  0  0  0  0
   22.3112  -20.5165  -13.8929 N   0  0  0  0  0  0  0  0  0  0  0  0
   19.9506  -20.2740  -14.1009 C   0  0  0  0  0  0  0  0  0  0  0  0
   20.1136  -19.0279  -14.0793 O   0  0  0  0  0  0  0  0  0  0  0  0
   18.6809  -20.7366  -14.4019 O   0  0  0  0  0  0  0  0  0  0  0  0
  2  1  1  6
  2  3  1  0
  4  3  1  0
  5  4  1  0
  6  5  1  0
  7  6  1  0
  8  9  2  0
  8  2  1  0
 10 11  1  0
 11 12  2  0
 11 13  1  0
 13 14  1  0
 15 14  1  6
 15 16  1  0
 16  8  1  0
 17 15  1  0
 17 27  1  0
 18 17  2  0
 19 20  1  0
 20 22  1  0
 21 20  2  0
 22 23  1  0
 23 24  1  0
 24 25  1  0
 26 25  1  1
 26 27  1  0
 26 28  1  0
 28 29  2  0
 28 30  1  0
M  END
$$$$
