KQR.pdb
     RDKit          3D

 30 29  0  0  1  0  0  0  0  0999 V2000
   23.0483  -25.0244  -14.5067 N   0  0  0  0  0  0  0  0  0  0  0  0
   23.1390  -23.6886  -13.9885 C   0  0  1  0  0  0  0  0  0  0  0  0
   23.6273  -22.7037  -14.9786 C   0  0  0  0  0  0  0  0  0  0  0  0
   24.3368  -23.3164  -16.1282 C   0  0  0  0  0  0  0  0  0  0  0  0
   25.8096  -23.4196  -15.9350 C   0  0  0  0  0  0  0  0  0  0  0  0
   26.3544  -24.0487  -17.2395 C   0  0  0  0  0  0  0  0  0  0  0  0
   27.7829  -24.2040  -17.1414 N   0  0  0  0  0  0  0  0  0  0  0  0
   21.7827  -23.2621  -13.5176 C   0  0  0  0  0  0  0  0  0  0  0  0
   21.5457  -22.0842  -13.1651 O   0  0  0  0  0  0  0  0  0  0  0  0
   16.2686  -25.1553  -15.3663 N   0  0  0  0  0  0  0  0  0  0  0  0
   15.9003  -24.6863  -14.0753 C   0  0  0  0  0  0  0  0  0  0  0  0
   14.6856  -24.7081  -13.7753 O   0  0  0  0  0  0  0  0  0  0  0  0
   16.9972  -24.2106  -13.1985 C   0  0  0  0  0  0  0  0  0  0  0  0
   18.3625  -24.3098  -13.7971 C   0  0  0  0  0  0  0  0  0  0  0  0
   19.4388  -23.9229  -12.8454 C   0  0  2  0  0  0  0  0  0  0  0  0
   20.7548  -24.2044  -13.4706 N   0  0  0  0  0  0  0  0  0  0  0  0
   19.4068  -24.7878  -11.6503 C   0  0  0  0  0  0  0  0  0  0  0  0
   19.9141  -25.9620  -11.7228 O   0  0  0  0  0  0  0  0  0  0  0  0
   15.9911  -23.3585   -3.9731 N   0  0  0  0  0  0  0  0  0  0  0  0
   15.4212  -23.6627   -5.2367 C   0  0  0  0  0  0  0  0  0  0  0  0
   14.2214  -23.3153   -5.4902 N   0  0  0  0  0  0  0  0  0  0  0  0
   16.2025  -24.3487   -6.1915 N   0  0  0  0  0  0  0  0  0  0  0  0
   17.2968  -25.1907   -5.7608 C   0  0  0  0  0  0  0  0  0  0  0  0
   17.9108  -25.8173   -6.9913 C   0  0  0  0  0  0  0  0  0  0  0  0
   18.0911  -24.8443   -8.1118 C   0  0  0  0  0  0  0  0  0  0  0  0
   18.8316  -25.4123   -9.3078 C   0  0  2  0  0  0  0  0  0  0  0  0
   18.8632  -24.4414  -10.3945 N   0  0  0  0  0  0  0  0  0  0  0  0
   18.1864  -26.6486   -9.8071 C   0  0  0  0  0  0  0  0  0  0  0  0
   17.1824  -26.6374  -10.5631 O   0  0  0  0  0  0  0  0  0  0  0  0
   18.6863  -27.8877   -9.4446 O   0  0  0  0  0  0  0  0  0  0  0  0
  2  1  1  6
  2  3  1  0
  4  3  1  0
  5  4  1  0
  6  5  1  0
  7  6  1  0
  8  9  2  0
  8  2  1  0
 10 11  1  0
 11 12  2  0
 11 13  1  0
 13 14  1  0
 15 14  1  6
 15 16  1  0
 16  8  1  0
 17 15  1  0
 17 27  1  0
 18 17  2  0
 19 20  1  0
 20 22  1  0
 21 20  2  0
 22 23  1  0
 23 24  1  0
 24 25  1  0
 26 25  1  1
 26 27  1  0
 26 28  1  0
 28 29  2  0
 28 30  1  0
M  END
$$$$
