KQR.pdb
     RDKit          3D

 30 29  0  0  1  0  0  0  0  0999 V2000
   26.0186  -22.6008  -16.8022 N   0  0  0  0  0  0  0  0  0  0  0  0
   27.4158  -22.9308  -16.7920 C   0  0  1  0  0  0  0  0  0  0  0  0
   28.0558  -22.8279  -18.1219 C   0  0  0  0  0  0  0  0  0  0  0  0
   27.2460  -23.4110  -19.2194 C   0  0  0  0  0  0  0  0  0  0  0  0
   26.0877  -22.5660  -19.6210 C   0  0  0  0  0  0  0  0  0  0  0  0
   25.3841  -23.3431  -20.7592 C   0  0  0  0  0  0  0  0  0  0  0  0
   24.1841  -22.6487  -21.1487 N   0  0  0  0  0  0  0  0  0  0  0  0
   28.1216  -22.0066  -15.8481 C   0  0  0  0  0  0  0  0  0  0  0  0
   29.3544  -22.0854  -15.6441 O   0  0  0  0  0  0  0  0  0  0  0  0
   29.2099  -17.3404  -17.1038 N   0  0  0  0  0  0  0  0  0  0  0  0
   27.8154  -17.3490  -16.8250 C   0  0  0  0  0  0  0  0  0  0  0  0
   27.0752  -16.6457  -17.5484 O   0  0  0  0  0  0  0  0  0  0  0  0
   27.3647  -18.1957  -15.6944 C   0  0  0  0  0  0  0  0  0  0  0  0
   28.4643  -18.8807  -14.9503 C   0  0  0  0  0  0  0  0  0  0  0  0
   27.9977  -20.0854  -14.2122 C   0  0  2  0  0  0  0  0  0  0  0  0
   27.3837  -21.0305  -15.1775 N   0  0  0  0  0  0  0  0  0  0  0  0
   26.8990  -19.7339  -13.2921 C   0  0  0  0  0  0  0  0  0  0  0  0
   26.0906  -18.7968  -13.6235 O   0  0  0  0  0  0  0  0  0  0  0  0
   19.1368  -21.4256  -13.3534 N   0  0  0  0  0  0  0  0  0  0  0  0
   20.0702  -20.6707  -14.1103 C   0  0  0  0  0  0  0  0  0  0  0  0
   19.6815  -20.0395  -15.1470 N   0  0  0  0  0  0  0  0  0  0  0  0
   21.4187  -20.6361  -13.6942 N   0  0  0  0  0  0  0  0  0  0  0  0
   21.9120  -21.6206  -12.7565 C   0  0  0  0  0  0  0  0  0  0  0  0
   22.8942  -20.9325  -11.8368 C   0  0  0  0  0  0  0  0  0  0  0  0
   24.2735  -20.8586  -12.4085 C   0  0  0  0  0  0  0  0  0  0  0  0
   25.3044  -20.2809  -11.4573 C   0  0  2  0  0  0  0  0  0  0  0  0
   26.6352  -20.3471  -12.0483 N   0  0  0  0  0  0  0  0  0  0  0  0
   25.3289  -21.0178  -10.1726 C   0  0  0  0  0  0  0  0  0  0  0  0
   26.1817  -21.9026   -9.9090 O   0  0  0  0  0  0  0  0  0  0  0  0
   24.3854  -20.7439   -9.1971 O   0  0  0  0  0  0  0  0  0  0  0  0
  2  1  1  6
  2  3  1  0
  4  3  1  0
  5  4  1  0
  6  5  1  0
  7  6  1  0
  8  9  2  0
  8  2  1  0
 10 11  1  0
 11 12  2  0
 11 13  1  0
 13 14  1  0
 15 14  1  6
 15 16  1  0
 16  8  1  0
 17 15  1  0
 17 27  1  0
 18 17  2  0
 19 20  1  0
 20 22  1  0
 21 20  2  0
 22 23  1  0
 23 24  1  0
 24 25  1  0
 26 25  1  6
 26 27  1  0
 26 28  1  0
 28 29  2  0
 28 30  1  0
M  END
$$$$
