KQR.pdb
     RDKit          3D

 30 29  0  0  1  0  0  0  0  0999 V2000
   27.9155  -19.6253  -17.2701 N   0  0  0  0  0  0  0  0  0  0  0  0
   28.3676  -19.0227  -16.0479 C   0  0  1  0  0  0  0  0  0  0  0  0
   27.7721  -17.6931  -15.7903 C   0  0  0  0  0  0  0  0  0  0  0  0
   27.2952  -17.0065  -17.0158 C   0  0  0  0  0  0  0  0  0  0  0  0
   28.1896  -17.1929  -18.1914 C   0  0  0  0  0  0  0  0  0  0  0  0
   27.6802  -16.1968  -19.2603 C   0  0  0  0  0  0  0  0  0  0  0  0
   26.9627  -16.9116  -20.2843 N   0  0  0  0  0  0  0  0  0  0  0  0
   28.0231  -19.9307  -14.9077 C   0  0  0  0  0  0  0  0  0  0  0  0
   26.9897  -20.6377  -14.9148 O   0  0  0  0  0  0  0  0  0  0  0  0
   32.1525  -21.4079  -10.3449 N   0  0  0  0  0  0  0  0  0  0  0  0
   30.9606  -21.9729   -9.8134 C   0  0  0  0  0  0  0  0  0  0  0  0
   31.0458  -22.5917   -8.7291 O   0  0  0  0  0  0  0  0  0  0  0  0
   29.7189  -21.7759  -10.5992 C   0  0  0  0  0  0  0  0  0  0  0  0
   29.9021  -21.0269  -11.8789 C   0  0  0  0  0  0  0  0  0  0  0  0
   28.6401  -20.8958  -12.6560 C   0  0  2  0  0  0  0  0  0  0  0  0
   28.8782  -19.9897  -13.8068 N   0  0  0  0  0  0  0  0  0  0  0  0
   27.6090  -20.2089  -11.8544 C   0  0  0  0  0  0  0  0  0  0  0  0
   27.6767  -18.9368  -11.7188 O   0  0  0  0  0  0  0  0  0  0  0  0
   19.7686  -20.2081  -13.7378 N   0  0  0  0  0  0  0  0  0  0  0  0
   20.1397  -21.4581  -13.1774 C   0  0  0  0  0  0  0  0  0  0  0  0
   19.3785  -22.4694  -13.3260 N   0  0  0  0  0  0  0  0  0  0  0  0
   21.3532  -21.5531  -12.4625 N   0  0  0  0  0  0  0  0  0  0  0  0
   22.2254  -20.4038  -12.3613 C   0  0  0  0  0  0  0  0  0  0  0  0
   23.3809  -20.7773  -11.4619 C   0  0  0  0  0  0  0  0  0  0  0  0
   24.3697  -19.6687  -11.2938 C   0  0  0  0  0  0  0  0  0  0  0  0
   25.5669  -20.0358  -10.4374 C   0  0  2  0  0  0  0  0  0  0  0  0
   26.5184  -20.8281  -11.2063 N   0  0  0  0  0  0  0  0  0  0  0  0
   25.1619  -20.8205   -9.2482 C   0  0  0  0  0  0  0  0  0  0  0  0
   25.4798  -22.0255   -9.0846 O   0  0  0  0  0  0  0  0  0  0  0  0
   24.3997  -20.2311   -8.2541 O   0  0  0  0  0  0  0  0  0  0  0  0
  2  1  1  6
  2  3  1  0
  4  3  1  0
  5  4  1  0
  6  5  1  0
  7  6  1  0
  8  9  2  0
  8  2  1  0
 10 11  1  0
 11 12  2  0
 11 13  1  0
 13 14  1  0
 15 14  1  1
 15 16  1  0
 16  8  1  0
 17 15  1  0
 17 27  1  0
 18 17  2  0
 19 20  1  0
 20 22  1  0
 21 20  2  0
 22 23  1  0
 23 24  1  0
 24 25  1  0
 26 25  1  6
 26 27  1  0
 26 28  1  0
 28 29  2  0
 28 30  1  0
M  END
$$$$
