KQR.pdb
     RDKit          3D

 30 29  0  0  1  0  0  0  0  0999 V2000
   28.9471  -26.3235  -16.7115 N   0  0  0  0  0  0  0  0  0  0  0  0
   28.5887  -25.1548  -17.4643 C   0  0  1  0  0  0  0  0  0  0  0  0
   27.4631  -25.3771  -18.3984 C   0  0  0  0  0  0  0  0  0  0  0  0
   26.1932  -25.7426  -17.7245 C   0  0  0  0  0  0  0  0  0  0  0  0
   25.5256  -26.9355  -18.3146 C   0  0  0  0  0  0  0  0  0  0  0  0
   24.2123  -27.1117  -17.5155 C   0  0  0  0  0  0  0  0  0  0  0  0
   23.4718  -28.2288  -18.0426 N   0  0  0  0  0  0  0  0  0  0  0  0
   28.2104  -24.0646  -16.5095 C   0  0  0  0  0  0  0  0  0  0  0  0
   28.6967  -23.9967  -15.3577 O   0  0  0  0  0  0  0  0  0  0  0  0
   29.1008  -18.7054  -18.3861 N   0  0  0  0  0  0  0  0  0  0  0  0
   28.3001  -18.2942  -17.2851 C   0  0  0  0  0  0  0  0  0  0  0  0
   28.2445  -17.0696  -17.0341 O   0  0  0  0  0  0  0  0  0  0  0  0
   27.6011  -19.3622  -16.5308 C   0  0  0  0  0  0  0  0  0  0  0  0
   27.8039  -20.7414  -17.0684 C   0  0  0  0  0  0  0  0  0  0  0  0
   27.1526  -21.7870  -16.2340 C   0  0  2  0  0  0  0  0  0  0  0  0
   27.2899  -23.0979  -16.9156 N   0  0  0  0  0  0  0  0  0  0  0  0
   25.6964  -21.5593  -16.1646 C   0  0  0  0  0  0  0  0  0  0  0  0
   25.0027  -21.6603  -17.2369 O   0  0  0  0  0  0  0  0  0  0  0  0
   23.6728  -20.7607   -8.4672 N   0  0  0  0  0  0  0  0  0  0  0  0
   24.4930  -19.8988   -9.2407 C   0  0  0  0  0  0  0  0  0  0  0  0
   25.6620  -19.6002   -8.8299 N   0  0  0  0  0  0  0  0  0  0  0  0
   23.9912  -19.3878  -10.4572 N   0  0  0  0  0  0  0  0  0  0  0  0
   23.1510  -20.2129  -11.2968 C   0  0  0  0  0  0  0  0  0  0  0  0
   23.7779  -20.2646  -12.6709 C   0  0  0  0  0  0  0  0  0  0  0  0
   22.9318  -20.9858  -13.6702 C   0  0  0  0  0  0  0  0  0  0  0  0
   23.5249  -21.0246  -15.0659 C   0  0  2  0  0  0  0  0  0  0  0  0
   24.9653  -21.2374  -15.0007 N   0  0  0  0  0  0  0  0  0  0  0  0
   23.2740  -19.7606  -15.7962 C   0  0  0  0  0  0  0  0  0  0  0  0
   24.1362  -18.8526  -15.9059 O   0  0  0  0  0  0  0  0  0  0  0  0
   22.0467  -19.5376  -16.3968 O   0  0  0  0  0  0  0  0  0  0  0  0
  2  1  1  1
  2  3  1  0
  4  3  1  0
  5  4  1  0
  6  5  1  0
  7  6  1  0
  8  9  2  0
  8  2  1  0
 10 11  1  0
 11 12  2  0
 11 13  1  0
 13 14  1  0
 15 14  1  6
 15 16  1  0
 16  8  1  0
 17 15  1  0
 17 27  1  0
 18 17  2  0
 19 20  1  0
 20 22  1  0
 21 20  2  0
 22 23  1  0
 23 24  1  0
 24 25  1  0
 26 25  1  1
 26 27  1  0
 26 28  1  0
 28 29  2  0
 28 30  1  0
M  END
$$$$
