KQR.pdb
     RDKit          3D

 30 29  0  0  1  0  0  0  0  0999 V2000
   22.4866  -16.7488  -17.0912 N   0  0  0  0  0  0  0  0  0  0  0  0
   21.5424  -17.6497  -16.4929 C   0  0  1  0  0  0  0  0  0  0  0  0
   20.5163  -18.1420  -17.4381 C   0  0  0  0  0  0  0  0  0  0  0  0
   19.7800  -17.0592  -18.1351 C   0  0  0  0  0  0  0  0  0  0  0  0
   19.8275  -17.1641  -19.6196 C   0  0  0  0  0  0  0  0  0  0  0  0
   19.1541  -15.8746  -20.1467 C   0  0  0  0  0  0  0  0  0  0  0  0
   19.3227  -15.7901  -21.5745 N   0  0  0  0  0  0  0  0  0  0  0  0
   22.2851  -18.8256  -15.9371 C   0  0  0  0  0  0  0  0  0  0  0  0
   21.6893  -19.8180  -15.4597 O   0  0  0  0  0  0  0  0  0  0  0  0
   28.3736  -19.9833  -17.0774 N   0  0  0  0  0  0  0  0  0  0  0  0
   28.1127  -20.9484  -16.0660 C   0  0  0  0  0  0  0  0  0  0  0  0
   29.0248  -21.7593  -15.7894 O   0  0  0  0  0  0  0  0  0  0  0  0
   26.7746  -20.9047  -15.4291 C   0  0  0  0  0  0  0  0  0  0  0  0
   25.8729  -19.8304  -15.9439 C   0  0  0  0  0  0  0  0  0  0  0  0
   24.4959  -19.9175  -15.3872 C   0  0  2  0  0  0  0  0  0  0  0  0
   23.6803  -18.8140  -15.9520 N   0  0  0  0  0  0  0  0  0  0  0  0
   24.5090  -19.6588  -13.9345 C   0  0  0  0  0  0  0  0  0  0  0  0
   24.2295  -18.4815  -13.5133 O   0  0  0  0  0  0  0  0  0  0  0  0
   19.3152  -22.9097   -9.7585 N   0  0  0  0  0  0  0  0  0  0  0  0
   20.0872  -22.6134   -8.6051 C   0  0  0  0  0  0  0  0  0  0  0  0
   19.7665  -23.1214   -7.4810 N   0  0  0  0  0  0  0  0  0  0  0  0
   21.2015  -21.7559   -8.7303 N   0  0  0  0  0  0  0  0  0  0  0  0
   21.6189  -21.2982  -10.0373 C   0  0  0  0  0  0  0  0  0  0  0  0
   22.8585  -20.4527   -9.8575 C   0  0  0  0  0  0  0  0  0  0  0  0
   23.3333  -19.8368  -11.1342 C   0  0  0  0  0  0  0  0  0  0  0  0
   24.7455  -20.2331  -11.5215 C   0  0  2  0  0  0  0  0  0  0  0  0
   24.8010  -20.6061  -12.9295 N   0  0  0  0  0  0  0  0  0  0  0  0
   25.2258  -21.3804  -10.7171 C   0  0  0  0  0  0  0  0  0  0  0  0
   25.4056  -22.5263  -11.2014 O   0  0  0  0  0  0  0  0  0  0  0  0
   25.4988  -21.2177   -9.3697 O   0  0  0  0  0  0  0  0  0  0  0  0
  2  1  1  6
  2  3  1  0
  4  3  1  0
  5  4  1  0
  6  5  1  0
  7  6  1  0
  8  9  2  0
  8  2  1  0
 10 11  1  0
 11 12  2  0
 11 13  1  0
 13 14  1  0
 15 14  1  6
 15 16  1  0
 16  8  1  0
 17 15  1  0
 17 27  1  0
 18 17  2  0
 19 20  1  0
 20 22  1  0
 21 20  2  0
 22 23  1  0
 23 24  1  0
 24 25  1  0
 26 25  1  1
 26 27  1  0
 26 28  1  0
 28 29  2  0
 28 30  1  0
M  END
$$$$
