KQR.pdb
     RDKit          3D

 30 29  0  0  1  0  0  0  0  0999 V2000
   28.3993  -26.5700  -16.5091 N   0  0  0  0  0  0  0  0  0  0  0  0
   28.2459  -25.6778  -17.6233 C   0  0  1  0  0  0  0  0  0  0  0  0
   28.7516  -26.2334  -18.8978 C   0  0  0  0  0  0  0  0  0  0  0  0
   29.9321  -27.1169  -18.7357 C   0  0  0  0  0  0  0  0  0  0  0  0
   31.2194  -26.4680  -19.1079 C   0  0  0  0  0  0  0  0  0  0  0  0
   32.2915  -27.5772  -18.9866 C   0  0  0  0  0  0  0  0  0  0  0  0
   33.5883  -27.0321  -19.2958 N   0  0  0  0  0  0  0  0  0  0  0  0
   26.7923  -25.3552  -17.7848 C   0  0  0  0  0  0  0  0  0  0  0  0
   26.3701  -24.6690  -18.7433 O   0  0  0  0  0  0  0  0  0  0  0  0
   22.3254  -29.0979  -15.8533 N   0  0  0  0  0  0  0  0  0  0  0  0
   22.9912  -29.1179  -17.1098 C   0  0  0  0  0  0  0  0  0  0  0  0
   22.9524  -30.1805  -17.7696 O   0  0  0  0  0  0  0  0  0  0  0  0
   23.6754  -27.8695  -17.5239 C   0  0  0  0  0  0  0  0  0  0  0  0
   23.6945  -26.7944  -16.4867 C   0  0  0  0  0  0  0  0  0  0  0  0
   24.4247  -25.5768  -16.9316 C   0  0  2  0  0  0  0  0  0  0  0  0
   25.8835  -25.8331  -16.8401 N   0  0  0  0  0  0  0  0  0  0  0  0
   24.1878  -24.4615  -15.9951 C   0  0  0  0  0  0  0  0  0  0  0  0
   22.9965  -24.0101  -15.8594 O   0  0  0  0  0  0  0  0  0  0  0  0
   25.0042  -19.2550  -10.2940 N   0  0  0  0  0  0  0  0  0  0  0  0
   25.4001  -20.3102   -9.4315 C   0  0  0  0  0  0  0  0  0  0  0  0
   24.9696  -20.3431   -8.2324 N   0  0  0  0  0  0  0  0  0  0  0  0
   26.2688  -21.3072   -9.9257 N   0  0  0  0  0  0  0  0  0  0  0  0
   26.7433  -21.2419  -11.2904 C   0  0  0  0  0  0  0  0  0  0  0  0
   25.5754  -21.5416  -12.2014 C   0  0  0  0  0  0  0  0  0  0  0  0
   25.8914  -22.5783  -13.2311 C   0  0  0  0  0  0  0  0  0  0  0  0
   24.7940  -22.7802  -14.2589 C   0  0  2  0  0  0  0  0  0  0  0  0
   25.1684  -23.8247  -15.2041 N   0  0  0  0  0  0  0  0  0  0  0  0
   24.5293  -21.5373  -15.0199 C   0  0  0  0  0  0  0  0  0  0  0  0
   25.1353  -21.2444  -16.0813 O   0  0  0  0  0  0  0  0  0  0  0  0
   23.5785  -20.6371  -14.5702 O   0  0  0  0  0  0  0  0  0  0  0  0
  2  1  1  1
  2  3  1  0
  4  3  1  0
  5  4  1  0
  6  5  1  0
  7  6  1  0
  8  9  2  0
  8  2  1  0
 10 11  1  0
 11 12  2  0
 11 13  1  0
 13 14  1  0
 15 14  1  1
 15 16  1  0
 16  8  1  0
 17 15  1  0
 17 27  1  0
 18 17  2  0
 19 20  1  0
 20 22  1  0
 21 20  2  0
 22 23  1  0
 23 24  1  0
 24 25  1  0
 26 25  1  1
 26 27  1  0
 26 28  1  0
 28 29  2  0
 28 30  1  0
M  END
$$$$
