KQR.pdb
     RDKit          3D

 30 29  0  0  1  0  0  0  0  0999 V2000
   17.9784  -26.5722   -6.2050 N   0  0  0  0  0  0  0  0  0  0  0  0
   16.6327  -26.1178   -5.9959 C   0  0  1  0  0  0  0  0  0  0  0  0
   15.7763  -27.1078   -5.3065 C   0  0  0  0  0  0  0  0  0  0  0  0
   16.2970  -28.4952   -5.3738 C   0  0  0  0  0  0  0  0  0  0  0  0
   16.7078  -29.0438   -4.0520 C   0  0  0  0  0  0  0  0  0  0  0  0
   17.1480  -30.5013   -4.3283 C   0  0  0  0  0  0  0  0  0  0  0  0
   17.6015  -31.1096   -3.1042 N   0  0  0  0  0  0  0  0  0  0  0  0
   16.6699  -24.8643   -5.1771 C   0  0  0  0  0  0  0  0  0  0  0  0
   17.4528  -23.9240   -5.4433 O   0  0  0  0  0  0  0  0  0  0  0  0
   10.9822  -21.5082   -5.0530 N   0  0  0  0  0  0  0  0  0  0  0  0
   12.3279  -21.5635   -5.5094 C   0  0  0  0  0  0  0  0  0  0  0  0
   12.5400  -21.3255   -6.7195 O   0  0  0  0  0  0  0  0  0  0  0  0
   13.3622  -21.9015   -4.5023 C   0  0  0  0  0  0  0  0  0  0  0  0
   14.0812  -23.1869   -4.7530 C   0  0  0  0  0  0  0  0  0  0  0  0
   15.1338  -23.4660   -3.7392 C   0  0  2  0  0  0  0  0  0  0  0  0
   15.8077  -24.7415   -4.0870 N   0  0  0  0  0  0  0  0  0  0  0  0
   14.5251  -23.7198   -2.4192 C   0  0  0  0  0  0  0  0  0  0  0  0
   13.5309  -24.5240   -2.3407 O   0  0  0  0  0  0  0  0  0  0  0  0
   14.3212  -17.1535    3.1973 N   0  0  0  0  0  0  0  0  0  0  0  0
   14.6116  -18.2876    3.9995 C   0  0  0  0  0  0  0  0  0  0  0  0
   14.8823  -18.1361    5.2357 N   0  0  0  0  0  0  0  0  0  0  0  0
   14.5939  -19.5678    3.4050 N   0  0  0  0  0  0  0  0  0  0  0  0
   14.2218  -19.7150    2.0151 C   0  0  0  0  0  0  0  0  0  0  0  0
   14.2072  -21.1916    1.6937 C   0  0  0  0  0  0  0  0  0  0  0  0
   13.9230  -21.4710    0.2529 C   0  0  0  0  0  0  0  0  0  0  0  0
   13.9881  -22.9416   -0.1138 C   0  0  2  0  0  0  0  0  0  0  0  0
   14.9424  -23.1545   -1.1948 N   0  0  0  0  0  0  0  0  0  0  0  0
   12.6675  -23.4493   -0.5525 C   0  0  0  0  0  0  0  0  0  0  0  0
   12.2150  -23.2640   -1.7103 O   0  0  0  0  0  0  0  0  0  0  0  0
   11.8715  -24.1637    0.3265 O   0  0  0  0  0  0  0  0  0  0  0  0
  2  1  1  1
  2  3  1  0
  4  3  1  0
  5  4  1  0
  6  5  1  0
  7  6  1  0
  8  9  2  0
  8  2  1  0
 10 11  1  0
 11 12  2  0
 11 13  1  0
 13 14  1  0
 15 14  1  6
 15 16  1  0
 16  8  1  0
 17 15  1  0
 17 27  1  0
 18 17  2  0
 19 20  1  0
 20 22  1  0
 21 20  2  0
 22 23  1  0
 23 24  1  0
 24 25  1  0
 26 25  1  6
 26 27  1  0
 26 28  1  0
 28 29  2  0
 28 30  1  0
M  END
$$$$
