KQR.pdb
     RDKit          3D

 30 29  0  0  1  0  0  0  0  0999 V2000
   29.3214  -24.5245  -17.3387 N   0  0  0  0  0  0  0  0  0  0  0  0
   28.6482  -23.3013  -17.6730 C   0  0  1  0  0  0  0  0  0  0  0  0
   27.3219  -23.5089  -18.2946 C   0  0  0  0  0  0  0  0  0  0  0  0
   26.8729  -24.9227  -18.2821 C   0  0  0  0  0  0  0  0  0  0  0  0
   26.1953  -25.3231  -17.0182 C   0  0  0  0  0  0  0  0  0  0  0  0
   25.6563  -26.7510  -17.2727 C   0  0  0  0  0  0  0  0  0  0  0  0
   25.1744  -27.3132  -16.0375 N   0  0  0  0  0  0  0  0  0  0  0  0
   28.4707  -22.4932  -16.4246 C   0  0  0  0  0  0  0  0  0  0  0  0
   29.0965  -22.7561  -15.3724 O   0  0  0  0  0  0  0  0  0  0  0  0
   26.2839  -16.6261  -16.7676 N   0  0  0  0  0  0  0  0  0  0  0  0
   26.6449  -16.6977  -15.3939 C   0  0  0  0  0  0  0  0  0  0  0  0
   26.6207  -15.6361  -14.7320 O   0  0  0  0  0  0  0  0  0  0  0  0
   27.0202  -18.0329  -14.8698 C   0  0  0  0  0  0  0  0  0  0  0  0
   27.1358  -19.1012  -15.9079 C   0  0  0  0  0  0  0  0  0  0  0  0
   27.5196  -20.4206  -15.3373 C   0  0  2  0  0  0  0  0  0  0  0  0
   27.5826  -21.4171  -16.4350 N   0  0  0  0  0  0  0  0  0  0  0  0
   26.4595  -20.9247  -14.4433 C   0  0  0  0  0  0  0  0  0  0  0  0
   25.3963  -21.4176  -14.9611 O   0  0  0  0  0  0  0  0  0  0  0  0
   26.9092  -20.0370   -6.1486 N   0  0  0  0  0  0  0  0  0  0  0  0
   27.6970  -20.3669   -7.2819 C   0  0  0  0  0  0  0  0  0  0  0  0
   28.9380  -20.6195   -7.1384 N   0  0  0  0  0  0  0  0  0  0  0  0
   27.0831  -20.4081   -8.5524 N   0  0  0  0  0  0  0  0  0  0  0  0
   25.7016  -20.0070   -8.7018 C   0  0  0  0  0  0  0  0  0  0  0  0
   25.3502  -20.0943  -10.1690 C   0  0  0  0  0  0  0  0  0  0  0  0
   25.7041  -21.4143  -10.7748 C   0  0  0  0  0  0  0  0  0  0  0  0
   25.4103  -21.5090  -12.2601 C   0  0  2  0  0  0  0  0  0  0  0  0
   26.5000  -20.9251  -13.0323 N   0  0  0  0  0  0  0  0  0  0  0  0
   24.1589  -20.7986  -12.6110 C   0  0  0  0  0  0  0  0  0  0  0  0
   24.1420  -19.6202  -13.0478 O   0  0  0  0  0  0  0  0  0  0  0  0
   22.9365  -21.4317  -12.4639 O   0  0  0  0  0  0  0  0  0  0  0  0
  2  1  1  1
  2  3  1  0
  4  3  1  0
  5  4  1  0
  6  5  1  0
  7  6  1  0
  8  9  2  0
  8  2  1  0
 10 11  1  0
 11 12  2  0
 11 13  1  0
 13 14  1  0
 15 14  1  6
 15 16  1  0
 16  8  1  0
 17 15  1  0
 17 27  1  0
 18 17  2  0
 19 20  1  0
 20 22  1  0
 21 20  2  0
 22 23  1  0
 23 24  1  0
 24 25  1  0
 26 25  1  1
 26 27  1  0
 26 28  1  0
 28 29  2  0
 28 30  1  0
M  END
$$$$
