KQR.pdb
     RDKit          3D

 30 29  0  0  1  0  0  0  0  0999 V2000
   27.7607  -22.6304  -20.5946 N   0  0  0  0  0  0  0  0  0  0  0  0
   28.2761  -22.5946  -19.2551 C   0  0  1  0  0  0  0  0  0  0  0  0
   29.7462  -22.4405  -19.1926 C   0  0  0  0  0  0  0  0  0  0  0  0
   30.3416  -21.8974  -20.4380 C   0  0  0  0  0  0  0  0  0  0  0  0
   31.8106  -21.6720  -20.3489 C   0  0  0  0  0  0  0  0  0  0  0  0
   32.2229  -21.0874  -21.7210 C   0  0  0  0  0  0  0  0  0  0  0  0
   33.6404  -20.8327  -21.7318 N   0  0  0  0  0  0  0  0  0  0  0  0
   27.6432  -21.4493  -18.5265 C   0  0  0  0  0  0  0  0  0  0  0  0
   28.0704  -20.2776  -18.6387 O   0  0  0  0  0  0  0  0  0  0  0  0
   22.2353  -21.5971  -20.0066 N   0  0  0  0  0  0  0  0  0  0  0  0
   22.4939  -20.8690  -18.8127 C   0  0  0  0  0  0  0  0  0  0  0  0
   21.7020  -19.9478  -18.5124 O   0  0  0  0  0  0  0  0  0  0  0  0
   23.6867  -21.2711  -18.0293 C   0  0  0  0  0  0  0  0  0  0  0  0
   24.6708  -20.1742  -17.7832 C   0  0  0  0  0  0  0  0  0  0  0  0
   25.8358  -20.6165  -16.9702 C   0  0  2  0  0  0  0  0  0  0  0  0
   26.5467  -21.6956  -17.6995 N   0  0  0  0  0  0  0  0  0  0  0  0
   25.3806  -21.2553  -15.7204 C   0  0  0  0  0  0  0  0  0  0  0  0
   25.2751  -22.5315  -15.6808 O   0  0  0  0  0  0  0  0  0  0  0  0
   22.8141  -20.7313   -8.4412 N   0  0  0  0  0  0  0  0  0  0  0  0
   23.9465  -21.2063   -7.7298 C   0  0  0  0  0  0  0  0  0  0  0  0
   23.9017  -21.3023   -6.4597 N   0  0  0  0  0  0  0  0  0  0  0  0
   25.1059  -21.5642   -8.4511 N   0  0  0  0  0  0  0  0  0  0  0  0
   25.5101  -20.7882   -9.6027 C   0  0  0  0  0  0  0  0  0  0  0  0
   24.8779  -21.4113  -10.8258 C   0  0  0  0  0  0  0  0  0  0  0  0
   25.2632  -20.7223  -12.0953 C   0  0  0  0  0  0  0  0  0  0  0  0
   24.6495  -21.3355  -13.3397 C   0  0  2  0  0  0  0  0  0  0  0  0
   25.0446  -20.5843  -14.5247 N   0  0  0  0  0  0  0  0  0  0  0  0
   23.1701  -21.3439  -13.2662 C   0  0  0  0  0  0  0  0  0  0  0  0
   22.4571  -20.4294  -13.7509 O   0  0  0  0  0  0  0  0  0  0  0  0
   22.5119  -22.3907  -12.6436 O   0  0  0  0  0  0  0  0  0  0  0  0
  2  1  1  6
  2  3  1  0
  4  3  1  0
  5  4  1  0
  6  5  1  0
  7  6  1  0
  8  9  2  0
  8  2  1  0
 10 11  1  0
 11 12  2  0
 11 13  1  0
 13 14  1  0
 15 14  1  6
 15 16  1  0
 16  8  1  0
 17 15  1  0
 17 27  1  0
 18 17  2  0
 19 20  1  0
 20 22  1  0
 21 20  2  0
 22 23  1  0
 23 24  1  0
 24 25  1  0
 26 25  1  1
 26 27  1  0
 26 28  1  0
 28 29  2  0
 28 30  1  0
M  END
$$$$
