KQR.pdb
     RDKit          3D

 30 29  0  0  1  0  0  0  0  0999 V2000
   27.7151  -19.0147  -17.5520 N   0  0  0  0  0  0  0  0  0  0  0  0
   27.5540  -18.4622  -16.2368 C   0  0  1  0  0  0  0  0  0  0  0  0
   26.3767  -17.5753  -16.1098 C   0  0  0  0  0  0  0  0  0  0  0  0
   26.5777  -16.2301  -16.7018 C   0  0  0  0  0  0  0  0  0  0  0  0
   27.5217  -15.3737  -15.9322 C   0  0  0  0  0  0  0  0  0  0  0  0
   27.5900  -14.0353  -16.7058 C   0  0  0  0  0  0  0  0  0  0  0  0
   28.5081  -13.1424  -16.0469 N   0  0  0  0  0  0  0  0  0  0  0  0
   27.4150  -19.5859  -15.2565 C   0  0  0  0  0  0  0  0  0  0  0  0
   26.5457  -20.4770  -15.3915 O   0  0  0  0  0  0  0  0  0  0  0  0
   31.6597  -20.8056  -10.7150 N   0  0  0  0  0  0  0  0  0  0  0  0
   30.5774  -21.6260  -10.2931 C   0  0  0  0  0  0  0  0  0  0  0  0
   30.7439  -22.3230   -9.2673 O   0  0  0  0  0  0  0  0  0  0  0  0
   29.3437  -21.5799  -11.1141 C   0  0  0  0  0  0  0  0  0  0  0  0
   29.4276  -20.6995  -12.3183 C   0  0  0  0  0  0  0  0  0  0  0  0
   28.1634  -20.6730  -13.1023 C   0  0  2  0  0  0  0  0  0  0  0  0
   28.2787  -19.6407  -14.1621 N   0  0  0  0  0  0  0  0  0  0  0  0
   27.0430  -20.2118  -12.2601 C   0  0  0  0  0  0  0  0  0  0  0  0
   26.9827  -18.9742  -11.9342 O   0  0  0  0  0  0  0  0  0  0  0  0
   19.5128  -21.4084  -14.3998 N   0  0  0  0  0  0  0  0  0  0  0  0
   19.6958  -22.0753  -13.1605 C   0  0  0  0  0  0  0  0  0  0  0  0
   18.7177  -22.6899  -12.6219 N   0  0  0  0  0  0  0  0  0  0  0  0
   20.9671  -22.0423  -12.5479 N   0  0  0  0  0  0  0  0  0  0  0  0
   22.0718  -21.3828  -13.2086 C   0  0  0  0  0  0  0  0  0  0  0  0
   23.3052  -21.5818  -12.3584 C   0  0  0  0  0  0  0  0  0  0  0  0
   23.6476  -20.3795  -11.5387 C   0  0  0  0  0  0  0  0  0  0  0  0
   24.9999  -20.4639  -10.8563 C   0  0  2  0  0  0  0  0  0  0  0  0
   25.9948  -21.0180  -11.7660 N   0  0  0  0  0  0  0  0  0  0  0  0
   24.9448  -21.3206   -9.6493 C   0  0  0  0  0  0  0  0  0  0  0  0
   25.6121  -22.3793   -9.5323 O   0  0  0  0  0  0  0  0  0  0  0  0
   24.1333  -20.9684   -8.5844 O   0  0  0  0  0  0  0  0  0  0  0  0
  2  1  1  6
  2  3  1  0
  4  3  1  0
  5  4  1  0
  6  5  1  0
  7  6  1  0
  8  9  2  0
  8  2  1  0
 10 11  1  0
 11 12  2  0
 11 13  1  0
 13 14  1  0
 15 14  1  1
 15 16  1  0
 16  8  1  0
 17 15  1  0
 17 27  1  0
 18 17  2  0
 19 20  1  0
 20 22  1  0
 21 20  2  0
 22 23  1  0
 23 24  1  0
 24 25  1  0
 26 25  1  6
 26 27  1  0
 26 28  1  0
 28 29  2  0
 28 30  1  0
M  END
$$$$
