KQR.pdb
     RDKit          3D

 30 29  0  0  1  0  0  0  0  0999 V2000
   18.0193  -26.6051   -9.8871 N   0  0  0  0  0  0  0  0  0  0  0  0
   18.4268  -25.8184   -8.7575 C   0  0  1  0  0  0  0  0  0  0  0  0
   18.2168  -24.3658   -8.9438 C   0  0  0  0  0  0  0  0  0  0  0  0
   19.0360  -23.7805  -10.0332 C   0  0  0  0  0  0  0  0  0  0  0  0
   18.7939  -22.3272  -10.2478 C   0  0  0  0  0  0  0  0  0  0  0  0
   19.7043  -21.9272  -11.4334 C   0  0  0  0  0  0  0  0  0  0  0  0
   19.5460  -20.5231  -11.7122 N   0  0  0  0  0  0  0  0  0  0  0  0
   17.6516  -26.2640   -7.5560 C   0  0  0  0  0  0  0  0  0  0  0  0
   16.4098  -26.4207   -7.5915 O   0  0  0  0  0  0  0  0  0  0  0  0
   18.9356  -30.2691   -3.4597 N   0  0  0  0  0  0  0  0  0  0  0  0
   18.2065  -29.4478   -2.5563 C   0  0  0  0  0  0  0  0  0  0  0  0
   17.7424  -29.9878   -1.5272 O   0  0  0  0  0  0  0  0  0  0  0  0
   18.0617  -28.0179   -2.9204 C   0  0  0  0  0  0  0  0  0  0  0  0
   18.6276  -27.6528   -4.2541 C   0  0  0  0  0  0  0  0  0  0  0  0
   17.6451  -26.9537   -5.1256 C   0  0  2  0  0  0  0  0  0  0  0  0
   18.3330  -26.5113   -6.3638 N   0  0  0  0  0  0  0  0  0  0  0  0
   17.1904  -25.7019   -4.4903 C   0  0  0  0  0  0  0  0  0  0  0  0
   18.0332  -24.7516   -4.3227 O   0  0  0  0  0  0  0  0  0  0  0  0
    9.7504  -20.8345   -3.6182 N   0  0  0  0  0  0  0  0  0  0  0  0
   10.8758  -20.0238   -3.3176 C   0  0  0  0  0  0  0  0  0  0  0  0
   10.7377  -18.7606   -3.2187 N   0  0  0  0  0  0  0  0  0  0  0  0
   12.1324  -20.6401   -3.1336 N   0  0  0  0  0  0  0  0  0  0  0  0
   12.3731  -21.9645   -3.6626 C   0  0  0  0  0  0  0  0  0  0  0  0
   13.7753  -22.3710   -3.2723 C   0  0  0  0  0  0  0  0  0  0  0  0
   14.1929  -23.6737   -3.8752 C   0  0  0  0  0  0  0  0  0  0  0  0
   15.5578  -24.1540   -3.4193 C   0  0  2  0  0  0  0  0  0  0  0  0
   15.8800  -25.4331   -4.0395 N   0  0  0  0  0  0  0  0  0  0  0  0
   15.6086  -24.3242   -1.9488 C   0  0  0  0  0  0  0  0  0  0  0  0
   15.4400  -25.4340   -1.3835 O   0  0  0  0  0  0  0  0  0  0  0  0
   15.8512  -23.2332   -1.1316 O   0  0  0  0  0  0  0  0  0  0  0  0
  2  1  1  6
  2  3  1  0
  4  3  1  0
  5  4  1  0
  6  5  1  0
  7  6  1  0
  8  9  2  0
  8  2  1  0
 10 11  1  0
 11 12  2  0
 11 13  1  0
 13 14  1  0
 15 14  1  1
 15 16  1  0
 16  8  1  0
 17 15  1  0
 17 27  1  0
 18 17  2  0
 19 20  1  0
 20 22  1  0
 21 20  2  0
 22 23  1  0
 23 24  1  0
 24 25  1  0
 26 25  1  1
 26 27  1  0
 26 28  1  0
 28 29  2  0
 28 30  1  0
M  END
$$$$
