KQR.pdb
     RDKit          3D

 30 29  0  0  1  0  0  0  0  0999 V2000
   28.8863  -23.4163  -16.9053 N   0  0  0  0  0  0  0  0  0  0  0  0
   27.6431  -23.0283  -17.5095 C   0  0  1  0  0  0  0  0  0  0  0  0
   26.6011  -24.0762  -17.4397 C   0  0  0  0  0  0  0  0  0  0  0  0
   27.0726  -25.4148  -17.8712 C   0  0  0  0  0  0  0  0  0  0  0  0
   27.7816  -26.1715  -16.8027 C   0  0  0  0  0  0  0  0  0  0  0  0
   28.1919  -27.5153  -17.4508 C   0  0  0  0  0  0  0  0  0  0  0  0
   28.9022  -28.3187  -16.4895 N   0  0  0  0  0  0  0  0  0  0  0  0
   27.1348  -21.8007  -16.8183 C   0  0  0  0  0  0  0  0  0  0  0  0
   27.6009  -21.4194  -15.7205 O   0  0  0  0  0  0  0  0  0  0  0  0
   25.4064  -16.3069  -18.5860 N   0  0  0  0  0  0  0  0  0  0  0  0
   25.6399  -17.3621  -19.5104 C   0  0  0  0  0  0  0  0  0  0  0  0
   25.3872  -17.1429  -20.7162 O   0  0  0  0  0  0  0  0  0  0  0  0
   26.1638  -18.6333  -18.9558 C   0  0  0  0  0  0  0  0  0  0  0  0
   26.3080  -18.6534  -17.4688 C   0  0  0  0  0  0  0  0  0  0  0  0
   25.5966  -19.7967  -16.8360 C   0  0  2  0  0  0  0  0  0  0  0  0
   26.1128  -21.0616  -17.4151 N   0  0  0  0  0  0  0  0  0  0  0  0
   24.1670  -19.7814  -17.2013 C   0  0  0  0  0  0  0  0  0  0  0  0
   23.8164  -20.2353  -18.3469 O   0  0  0  0  0  0  0  0  0  0  0  0
   17.6050  -21.9090  -12.9010 N   0  0  0  0  0  0  0  0  0  0  0  0
   17.3341  -21.4966  -14.2316 C   0  0  0  0  0  0  0  0  0  0  0  0
   16.1295  -21.3090  -14.6034 N   0  0  0  0  0  0  0  0  0  0  0  0
   18.4137  -21.3021  -15.1200 N   0  0  0  0  0  0  0  0  0  0  0  0
   19.7586  -21.6410  -14.7096 C   0  0  0  0  0  0  0  0  0  0  0  0
   20.6582  -20.4807  -15.0676 C   0  0  0  0  0  0  0  0  0  0  0  0
   20.9212  -20.3795  -16.5357 C   0  0  0  0  0  0  0  0  0  0  0  0
   21.7641  -19.1811  -16.9293 C   0  0  2  0  0  0  0  0  0  0  0  0
   23.1124  -19.3088  -16.3906 N   0  0  0  0  0  0  0  0  0  0  0  0
   21.1788  -17.9178  -16.4237 C   0  0  0  0  0  0  0  0  0  0  0  0
   20.0563  -17.4894  -16.7928 O   0  0  0  0  0  0  0  0  0  0  0  0
   21.8721  -17.1513  -15.5026 O   0  0  0  0  0  0  0  0  0  0  0  0
  2  1  1  1
  2  3  1  0
  4  3  1  0
  5  4  1  0
  6  5  1  0
  7  6  1  0
  8  9  2  0
  8  2  1  0
 10 11  1  0
 11 12  2  0
 11 13  1  0
 13 14  1  0
 15 14  1  6
 15 16  1  0
 16  8  1  0
 17 15  1  0
 17 27  1  0
 18 17  2  0
 19 20  1  0
 20 22  1  0
 21 20  2  0
 22 23  1  0
 23 24  1  0
 24 25  1  0
 26 25  1  1
 26 27  1  0
 26 28  1  0
 28 29  2  0
 28 30  1  0
M  END
$$$$
