KQR.pdb
     RDKit          3D

 30 29  0  0  1  0  0  0  0  0999 V2000
   18.8149  -21.1873  -11.2315 N   0  0  0  0  0  0  0  0  0  0  0  0
   19.4190  -21.5464  -12.4834 C   0  0  1  0  0  0  0  0  0  0  0  0
   18.5091  -21.4000  -13.6408 C   0  0  0  0  0  0  0  0  0  0  0  0
   17.6058  -22.5599  -13.8388 C   0  0  0  0  0  0  0  0  0  0  0  0
   17.2257  -23.2441  -12.5722 C   0  0  0  0  0  0  0  0  0  0  0  0
   16.2934  -24.4051  -12.9934 C   0  0  0  0  0  0  0  0  0  0  0  0
   16.8893  -25.6626  -12.6221 N   0  0  0  0  0  0  0  0  0  0  0  0
   20.6192  -20.6784  -12.7051 C   0  0  0  0  0  0  0  0  0  0  0  0
   20.5495  -19.4292  -12.6560 O   0  0  0  0  0  0  0  0  0  0  0  0
   26.3817  -22.5378  -11.3661 N   0  0  0  0  0  0  0  0  0  0  0  0
   26.6602  -21.2656  -11.9374 C   0  0  0  0  0  0  0  0  0  0  0  0
   27.8241  -20.8206  -11.8221 O   0  0  0  0  0  0  0  0  0  0  0  0
   25.5377  -20.5791  -12.6206 C   0  0  0  0  0  0  0  0  0  0  0  0
   24.2247  -21.2862  -12.5288 C   0  0  0  0  0  0  0  0  0  0  0  0
   23.1054  -20.5025  -13.1175 C   0  0  2  0  0  0  0  0  0  0  0  0
   21.8493  -21.2794  -12.9739 N   0  0  0  0  0  0  0  0  0  0  0  0
   23.2853  -20.3603  -14.5752 C   0  0  0  0  0  0  0  0  0  0  0  0
   22.5396  -21.0453  -15.3602 O   0  0  0  0  0  0  0  0  0  0  0  0
   18.1358  -16.2321  -17.3961 N   0  0  0  0  0  0  0  0  0  0  0  0
   19.1279  -15.4172  -16.7912 C   0  0  0  0  0  0  0  0  0  0  0  0
   18.8061  -14.2839  -16.3050 N   0  0  0  0  0  0  0  0  0  0  0  0
   20.4590  -15.8844  -16.7418 N   0  0  0  0  0  0  0  0  0  0  0  0
   20.9208  -16.8573  -17.7073 C   0  0  0  0  0  0  0  0  0  0  0  0
   22.3961  -17.0820  -17.4688 C   0  0  0  0  0  0  0  0  0  0  0  0
   22.6676  -17.9736  -16.3001 C   0  0  0  0  0  0  0  0  0  0  0  0
   23.8864  -18.8605  -16.4720 C   0  0  2  0  0  0  0  0  0  0  0  0
   24.2196  -19.5164  -15.2137 N   0  0  0  0  0  0  0  0  0  0  0  0
   25.0649  -18.0812  -16.9167 C   0  0  0  0  0  0  0  0  0  0  0  0
   25.9975  -17.7512  -16.1413 O   0  0  0  0  0  0  0  0  0  0  0  0
   25.1757  -17.6833  -18.2380 O   0  0  0  0  0  0  0  0  0  0  0  0
  2  1  1  1
  2  3  1  0
  4  3  1  0
  5  4  1  0
  6  5  1  0
  7  6  1  0
  8  9  2  0
  8  2  1  0
 10 11  1  0
 11 12  2  0
 11 13  1  0
 13 14  1  0
 15 14  1  6
 15 16  1  0
 16  8  1  0
 17 15  1  0
 17 27  1  0
 18 17  2  0
 19 20  1  0
 20 22  1  0
 21 20  2  0
 22 23  1  0
 23 24  1  0
 24 25  1  0
 26 25  1  1
 26 27  1  0
 26 28  1  0
 28 29  2  0
 28 30  1  0
M  END
$$$$
