YRP.pdb
     RDKit          3D

 31 32  0  0  1  0  0  0  0  0999 V2000
   18.8852  -23.6471   -7.6970 O   0  0  0  0  0  0  0  0  0  0  0  0
   19.8423  -22.8002   -8.2439 C   0  0  0  0  0  0  0  0  0  0  0  0
   20.2054  -22.8923   -9.5666 C   0  0  0  0  0  0  0  0  0  0  0  0
   21.1713  -22.0222  -10.0781 C   0  0  0  0  0  0  0  0  0  0  0  0
   21.7733  -21.0683   -9.2901 C   0  0  0  0  0  0  0  0  0  0  0  0
   22.7947  -20.1644   -9.8741 C   0  0  0  0  0  0  0  0  0  0  0  0
   24.1091  -20.9175   -9.8363 C   0  0  2  0  0  0  0  0  0  0  0  0
   24.5986  -21.1132   -8.5115 N   0  0  0  0  0  0  0  0  0  0  0  0
   25.0912  -20.2241  -10.6957 C   0  0  0  0  0  0  0  0  0  0  0  0
   25.4438  -19.0243  -10.4836 O   0  0  0  0  0  0  0  0  0  0  0  0
   21.4083  -20.9767   -7.9614 C   0  0  0  0  0  0  0  0  0  0  0  0
   20.4510  -21.8442   -7.4662 C   0  0  0  0  0  0  0  0  0  0  0  0
   32.6761  -21.7518  -10.4705 N   0  0  0  0  0  0  0  0  0  0  0  0
   31.6256  -22.5117   -9.8895 C   0  0  0  0  0  0  0  0  0  0  0  0
   31.8972  -23.5660   -9.2490 N   0  0  0  0  0  0  0  0  0  0  0  0
   30.2940  -22.0163  -10.0749 N   0  0  0  0  0  0  0  0  0  0  0  0
   30.1378  -20.9676  -11.0958 C   0  0  0  0  0  0  0  0  0  0  0  0
   28.7339  -20.4777  -11.1211 C   0  0  0  0  0  0  0  0  0  0  0  0
   28.0515  -20.6712  -12.4053 C   0  0  0  0  0  0  0  0  0  0  0  0
   26.6703  -20.1105  -12.5965 C   0  0  2  0  0  0  0  0  0  0  0  0
   25.7228  -20.8478  -11.8328 N   0  0  0  0  0  0  0  0  0  0  0  0
   26.3843  -20.1727  -14.0549 C   0  0  0  0  0  0  0  0  0  0  0  0
   25.5444  -20.9738  -14.4705 O   0  0  0  0  0  0  0  0  0  0  0  0
   31.2720  -24.2294   -8.7783 N   0  0  0  0  0  0  0  0  0  0  0  0
   27.0686  -19.3195  -14.9381 C   0  0  0  0  0  0  0  0  0  0  0  0
   28.2603  -18.5256  -14.5711 C   0  0  0  0  0  0  0  0  0  0  0  0
   28.0188  -17.2247  -15.2904 C   0  0  0  0  0  0  0  0  0  0  0  0
   26.7978  -17.4520  -16.1953 C   0  0  1  0  0  0  0  0  0  0  0  0
   26.8391  -18.9752  -16.3325 C   0  0  0  0  0  0  0  0  0  0  0  0
   27.9106  -19.4178  -17.2366 O   0  0  0  0  0  0  0  0  0  0  0  0
   27.6733  -19.3617  -18.6028 O   0  0  0  0  0  0  0  0  0  0  0  0
  2  1  1  0
  2  3  2  0
  4  3  1  0
  5  4  2  0
  6  5  1  0
  7  6  1  0
  7  8  1  1
  9  7  1  0
  9 10  2  0
 11 12  2  0
 11  5  1  0
 12  2  1  0
 14 13  1  0
 15 14  2  0
 16 14  1  0
 17 16  1  0
 18 19  1  0
 18 17  1  0
 20 19  1  6
 20 21  1  0
 21  9  1  0
 22 20  1  0
 23 22  2  0
 24 28  1  0
 24 22  1  0
 25 24  1  0
 26 25  1  0
 26 27  1  0
 27 28  1  0
 28 29  1  6
 29 31  2  0
 29 30  1  0
M  END
$$$$
