YRP.pdb
     RDKit          3D

 31 32  0  0  1  0  0  0  0  0999 V2000
   28.4778  -31.3155  -17.2439 O   0  0  0  0  0  0  0  0  0  0  0  0
   27.9721  -30.0207  -17.2385 C   0  0  0  0  0  0  0  0  0  0  0  0
   28.2982  -29.1306  -16.2429 C   0  0  0  0  0  0  0  0  0  0  0  0
   27.7690  -27.8381  -16.2739 C   0  0  0  0  0  0  0  0  0  0  0  0
   26.9254  -27.4274  -17.2803 C   0  0  0  0  0  0  0  0  0  0  0  0
   26.3858  -26.0453  -17.2745 C   0  0  0  0  0  0  0  0  0  0  0  0
   25.2599  -26.0262  -16.2605 C   0  0  2  0  0  0  0  0  0  0  0  0
   24.1217  -26.7752  -16.6810 N   0  0  0  0  0  0  0  0  0  0  0  0
   24.9169  -24.6246  -15.9416 C   0  0  0  0  0  0  0  0  0  0  0  0
   24.2360  -23.9012  -16.7303 O   0  0  0  0  0  0  0  0  0  0  0  0
   26.5980  -28.3222  -18.2799 C   0  0  0  0  0  0  0  0  0  0  0  0
   27.1278  -29.5996  -18.2381 C   0  0  0  0  0  0  0  0  0  0  0  0
   25.9699  -20.0303   -8.7754 N   0  0  0  0  0  0  0  0  0  0  0  0
   24.8025  -20.7135   -9.2101 C   0  0  0  0  0  0  0  0  0  0  0  0
   23.9372  -21.0735   -8.3632 N   0  0  0  0  0  0  0  0  0  0  0  0
   24.6836  -20.9536  -10.6177 N   0  0  0  0  0  0  0  0  0  0  0  0
   25.7424  -20.3711  -11.4578 C   0  0  0  0  0  0  0  0  0  0  0  0
   25.4930  -20.6815  -12.8906 C   0  0  0  0  0  0  0  0  0  0  0  0
   25.4548  -22.1154  -13.1984 C   0  0  0  0  0  0  0  0  0  0  0  0
   25.2040  -22.5581  -14.6126 C   0  0  2  0  0  0  0  0  0  0  0  0
   25.3228  -23.9718  -14.7210 N   0  0  0  0  0  0  0  0  0  0  0  0
   26.1949  -21.8458  -15.4631 C   0  0  0  0  0  0  0  0  0  0  0  0
   27.3396  -22.2937  -15.5583 O   0  0  0  0  0  0  0  0  0  0  0  0
   23.0652  -21.5975   -8.4955 N   0  0  0  0  0  0  0  0  0  0  0  0
   25.8163  -20.6780  -16.1481 C   0  0  0  0  0  0  0  0  0  0  0  0
   24.5488  -19.9531  -15.9180 C   0  0  0  0  0  0  0  0  0  0  0  0
   24.1481  -19.5478  -17.3119 C   0  0  0  0  0  0  0  0  0  0  0  0
   25.3385  -19.8921  -18.2207 C   0  0  1  0  0  0  0  0  0  0  0  0
   26.4716  -19.9068  -17.1928 C   0  0  0  0  0  0  0  0  0  0  0  0
   26.8549  -18.5499  -16.7762 O   0  0  0  0  0  0  0  0  0  0  0  0
   27.7191  -17.8377  -17.5959 O   0  0  0  0  0  0  0  0  0  0  0  0
  2  1  1  0
  2  3  2  0
  4  3  1  0
  5  4  2  0
  6  5  1  0
  7  6  1  0
  7  8  1  6
  9  7  1  0
  9 10  2  0
 11 12  2  0
 11  5  1  0
 12  2  1  0
 14 13  1  0
 15 14  2  0
 16 14  1  0
 17 16  1  0
 18 19  1  0
 18 17  1  0
 20 19  1  1
 20 21  1  0
 21  9  1  0
 22 20  1  0
 23 22  2  0
 24 28  1  0
 24 22  1  0
 25 24  1  0
 26 25  1  0
 26 27  1  0
 27 28  1  0
 28 29  1  1
 29 31  2  0
 29 30  1  0
M  END
$$$$
