YRP.pdb
     RDKit          3D

 31 32  0  0  1  0  0  0  0  0999 V2000
   13.7957  -13.7808  -20.6468 O   0  0  0  0  0  0  0  0  0  0  0  0
   14.4969  -12.9498  -19.7807 C   0  0  0  0  0  0  0  0  0  0  0  0
   13.8741  -12.3334  -18.7214 C   0  0  0  0  0  0  0  0  0  0  0  0
   14.6144  -11.5058  -17.8736 C   0  0  0  0  0  0  0  0  0  0  0  0
   15.9590  -11.2892  -18.0696 C   0  0  0  0  0  0  0  0  0  0  0  0
   16.7073  -10.4024  -17.1450 C   0  0  0  0  0  0  0  0  0  0  0  0
   17.3804  -11.3055  -16.1315 C   0  0  2  0  0  0  0  0  0  0  0  0
   16.4604  -11.8915  -15.2131 N   0  0  0  0  0  0  0  0  0  0  0  0
   18.4496  -10.5520  -15.4437 C   0  0  0  0  0  0  0  0  0  0  0  0
   18.2384   -9.9106  -14.3700 O   0  0  0  0  0  0  0  0  0  0  0  0
   16.5838  -11.9085  -19.1342 C   0  0  0  0  0  0  0  0  0  0  0  0
   15.8401  -12.7253  -19.9672 C   0  0  0  0  0  0  0  0  0  0  0  0
   26.6039  -12.2559  -15.9442 N   0  0  0  0  0  0  0  0  0  0  0  0
   26.4010  -10.8512  -16.0094 C   0  0  0  0  0  0  0  0  0  0  0  0
   27.3959  -10.0737  -15.9728 N   0  0  0  0  0  0  0  0  0  0  0  0
   25.0450  -10.4007  -16.1153 N   0  0  0  0  0  0  0  0  0  0  0  0
   24.0315  -11.4553  -16.2802 C   0  0  0  0  0  0  0  0  0  0  0  0
   22.6827  -10.8521  -16.4491 C   0  0  0  0  0  0  0  0  0  0  0  0
   22.0943  -10.3356  -15.2085 C   0  0  0  0  0  0  0  0  0  0  0  0
   20.7507   -9.6639  -15.2552 C   0  0  2  0  0  0  0  0  0  0  0  0
   19.8057  -10.4855  -15.9308 N   0  0  0  0  0  0  0  0  0  0  0  0
   20.9511   -8.3596  -15.9418 C   0  0  0  0  0  0  0  0  0  0  0  0
   20.5324   -8.2138  -17.0922 O   0  0  0  0  0  0  0  0  0  0  0  0
   27.4356   -9.0518  -16.0541 N   0  0  0  0  0  0  0  0  0  0  0  0
   21.6089   -7.3121  -15.2737 C   0  0  0  0  0  0  0  0  0  0  0  0
   22.0813   -7.3852  -13.8749 C   0  0  0  0  0  0  0  0  0  0  0  0
   21.7612   -6.0100  -13.3511 C   0  0  0  0  0  0  0  0  0  0  0  0
   21.3190   -5.1778  -14.5650 C   0  0  2  0  0  0  0  0  0  0  0  0
   21.9796   -5.9702  -15.6948 C   0  0  0  0  0  0  0  0  0  0  0  0
   23.4316   -5.7457  -15.7490 O   0  0  0  0  0  0  0  0  0  0  0  0
   23.8883   -4.5901  -16.3671 O   0  0  0  0  0  0  0  0  0  0  0  0
  2  1  1  0
  2  3  2  0
  4  3  1  0
  5  4  2  0
  6  5  1  0
  7  6  1  0
  7  8  1  1
  9  7  1  0
  9 10  2  0
 11 12  2  0
 11  5  1  0
 12  2  1  0
 14 13  1  0
 15 14  2  0
 16 14  1  0
 17 16  1  0
 18 19  1  0
 18 17  1  0
 20 19  1  6
 20 21  1  0
 21  9  1  0
 22 20  1  0
 23 22  2  0
 24 28  1  0
 24 22  1  0
 25 24  1  0
 26 25  1  0
 26 27  1  0
 27 28  1  0
 28 29  1  1
 29 31  2  0
 29 30  1  0
M  END
$$$$
