YRP.pdb
     RDKit          3D

 31 32  0  0  1  0  0  0  0  0999 V2000
   21.1090  -21.4839   -7.9696 O   0  0  0  0  0  0  0  0  0  0  0  0
   22.2181  -21.0775   -8.7025 C   0  0  0  0  0  0  0  0  0  0  0  0
   23.3560  -20.6199   -8.0815 C   0  0  0  0  0  0  0  0  0  0  0  0
   24.4495  -20.2210   -8.8541 C   0  0  0  0  0  0  0  0  0  0  0  0
   24.4201  -20.2744  -10.2287 C   0  0  0  0  0  0  0  0  0  0  0  0
   25.6040  -19.8406  -11.0107 C   0  0  0  0  0  0  0  0  0  0  0  0
   26.2190  -21.0965  -11.5943 C   0  0  2  0  0  0  0  0  0  0  0  0
   26.9849  -21.8329  -10.6434 N   0  0  0  0  0  0  0  0  0  0  0  0
   27.0107  -20.7394  -12.7900 C   0  0  0  0  0  0  0  0  0  0  0  0
   28.1280  -20.1450  -12.7055 O   0  0  0  0  0  0  0  0  0  0  0  0
   23.2765  -20.7338  -10.8518 C   0  0  0  0  0  0  0  0  0  0  0  0
   22.1998  -21.1255  -10.0760 C   0  0  0  0  0  0  0  0  0  0  0  0
   27.3058  -25.8359  -16.1418 N   0  0  0  0  0  0  0  0  0  0  0  0
   26.1084  -25.5837  -16.8637 C   0  0  0  0  0  0  0  0  0  0  0  0
   25.0832  -26.2866  -16.6390 N   0  0  0  0  0  0  0  0  0  0  0  0
   26.1470  -24.5202  -17.8232 N   0  0  0  0  0  0  0  0  0  0  0  0
   27.1611  -23.4803  -17.5853 C   0  0  0  0  0  0  0  0  0  0  0  0
   26.7269  -22.5789  -16.4850 C   0  0  0  0  0  0  0  0  0  0  0  0
   27.5936  -21.4123  -16.2847 C   0  0  0  0  0  0  0  0  0  0  0  0
   27.2366  -20.4027  -15.2302 C   0  0  2  0  0  0  0  0  0  0  0  0
   26.5833  -21.0348  -14.1356 N   0  0  0  0  0  0  0  0  0  0  0  0
   26.3712  -19.3880  -15.8889 C   0  0  0  0  0  0  0  0  0  0  0  0
   25.1835  -19.3090  -15.5674 O   0  0  0  0  0  0  0  0  0  0  0  0
   24.1542  -26.2527  -17.0730 N   0  0  0  0  0  0  0  0  0  0  0  0
   26.9148  -18.5323  -16.8629 C   0  0  0  0  0  0  0  0  0  0  0  0
   28.3112  -18.6001  -17.3430 C   0  0  0  0  0  0  0  0  0  0  0  0
   28.6781  -17.1462  -17.4831 C   0  0  0  0  0  0  0  0  0  0  0  0
   27.3799  -16.3512  -17.2729 C   0  0  1  0  0  0  0  0  0  0  0  0
   26.3441  -17.4246  -17.6131 C   0  0  0  0  0  0  0  0  0  0  0  0
   26.2598  -17.6696  -19.0603 O   0  0  0  0  0  0  0  0  0  0  0  0
   25.4912  -16.8016  -19.8231 O   0  0  0  0  0  0  0  0  0  0  0  0
  2  1  1  0
  2  3  2  0
  4  3  1  0
  5  4  2  0
  6  5  1  0
  7  6  1  0
  7  8  1  1
  9  7  1  0
  9 10  2  0
 11 12  2  0
 11  5  1  0
 12  2  1  0
 14 13  1  0
 15 14  2  0
 16 14  1  0
 17 16  1  0
 18 19  1  0
 18 17  1  0
 20 19  1  6
 20 21  1  0
 21  9  1  0
 22 20  1  0
 23 22  2  0
 24 28  1  0
 24 22  1  0
 25 24  1  0
 26 25  1  0
 26 27  1  0
 27 28  1  0
 28 29  1  6
 29 31  2  0
 29 30  1  0
M  END
$$$$
