YRP.pdb
     RDKit          3D

 31 32  0  0  1  0  0  0  0  0999 V2000
   27.6284  -19.6463  -18.7749 O   0  0  0  0  0  0  0  0  0  0  0  0
   27.4847  -19.3297  -17.4290 C   0  0  0  0  0  0  0  0  0  0  0  0
   28.5791  -19.1217  -16.6233 C   0  0  0  0  0  0  0  0  0  0  0  0
   28.3921  -18.8051  -15.2756 C   0  0  0  0  0  0  0  0  0  0  0  0
   27.1348  -18.6937  -14.7278 C   0  0  0  0  0  0  0  0  0  0  0  0
   26.9817  -18.3557  -13.2913 C   0  0  0  0  0  0  0  0  0  0  0  0
   27.2846  -19.6217  -12.5157 C   0  0  2  0  0  0  0  0  0  0  0  0
   26.7839  -20.7954  -13.1520 N   0  0  0  0  0  0  0  0  0  0  0  0
   26.7783  -19.4783  -11.1347 C   0  0  0  0  0  0  0  0  0  0  0  0
   27.1187  -18.5102  -10.3893 O   0  0  0  0  0  0  0  0  0  0  0  0
   26.0360  -18.9031  -15.5377 C   0  0  0  0  0  0  0  0  0  0  0  0
   26.2338  -19.2167  -16.8707 C   0  0  0  0  0  0  0  0  0  0  0  0
   20.3597  -23.2634   -6.5123 N   0  0  0  0  0  0  0  0  0  0  0  0
   20.1732  -22.1151   -7.3280 C   0  0  0  0  0  0  0  0  0  0  0  0
   19.0345  -21.8760   -7.8197 N   0  0  0  0  0  0  0  0  0  0  0  0
   21.3208  -21.2846   -7.5426 N   0  0  0  0  0  0  0  0  0  0  0  0
   22.6199  -21.8883   -7.2044 C   0  0  0  0  0  0  0  0  0  0  0  0
   23.7209  -20.9244   -7.4692 C   0  0  0  0  0  0  0  0  0  0  0  0
   24.2537  -20.9791   -8.8350 C   0  0  0  0  0  0  0  0  0  0  0  0
   25.5545  -20.2933   -9.1455 C   0  0  2  0  0  0  0  0  0  0  0  0
   25.8652  -20.4161  -10.5285 N   0  0  0  0  0  0  0  0  0  0  0  0
   26.5860  -20.9270   -8.2812 C   0  0  0  0  0  0  0  0  0  0  0  0
   27.0459  -22.0259   -8.5988 O   0  0  0  0  0  0  0  0  0  0  0  0
   18.7344  -21.1235   -8.4491 N   0  0  0  0  0  0  0  0  0  0  0  0
   27.0253  -20.2679   -7.1197 C   0  0  0  0  0  0  0  0  0  0  0  0
   26.6319  -18.8932   -6.7448 C   0  0  0  0  0  0  0  0  0  0  0  0
   27.9128  -18.3282   -6.1896 C   0  0  0  0  0  0  0  0  0  0  0  0
   28.8972  -19.5043   -6.0928 C   0  0  1  0  0  0  0  0  0  0  0  0
   27.9169  -20.6780   -6.0462 C   0  0  0  0  0  0  0  0  0  0  0  0
   27.2562  -20.7921   -4.7378 O   0  0  0  0  0  0  0  0  0  0  0  0
   28.0074  -21.2594   -3.6685 O   0  0  0  0  0  0  0  0  0  0  0  0
  2  1  1  0
  2  3  2  0
  4  3  1  0
  5  4  2  0
  6  5  1  0
  7  6  1  0
  7  8  1  6
  9  7  1  0
  9 10  2  0
 11 12  2  0
 11  5  1  0
 12  2  1  0
 14 13  1  0
 15 14  2  0
 16 14  1  0
 17 16  1  0
 18 19  1  0
 18 17  1  0
 20 19  1  6
 20 21  1  0
 21  9  1  0
 22 20  1  0
 23 22  2  0
 24 28  1  0
 24 22  1  0
 25 24  1  0
 26 25  1  0
 26 27  1  0
 27 28  1  0
 28 29  1  1
 29 31  2  0
 29 30  1  0
M  END
$$$$
