YRP.pdb
     RDKit          3D

 31 32  0  0  1  0  0  0  0  0999 V2000
   23.9826   -8.2778    6.8867 O   0  0  0  0  0  0  0  0  0  0  0  0
   23.1212   -9.2790    7.3202 C   0  0  0  0  0  0  0  0  0  0  0  0
   22.4296   -9.1636    8.5027 C   0  0  0  0  0  0  0  0  0  0  0  0
   21.5731  -10.1921    8.9030 C   0  0  0  0  0  0  0  0  0  0  0  0
   21.4002  -11.3251    8.1416 C   0  0  0  0  0  0  0  0  0  0  0  0
   20.4806  -12.3935    8.6044 C   0  0  0  0  0  0  0  0  0  0  0  0
   19.2314  -12.2856    7.7536 C   0  0  2  0  0  0  0  0  0  0  0  0
   18.4768  -11.1061    8.0229 N   0  0  0  0  0  0  0  0  0  0  0  0
   18.4240  -13.5125    7.9183 C   0  0  0  0  0  0  0  0  0  0  0  0
   18.0241  -13.9085    9.0550 O   0  0  0  0  0  0  0  0  0  0  0  0
   22.0956  -11.4404    6.9540 C   0  0  0  0  0  0  0  0  0  0  0  0
   22.9413  -10.4154    6.5684 C   0  0  0  0  0  0  0  0  0  0  0  0
   15.2664  -18.9879    1.9245 N   0  0  0  0  0  0  0  0  0  0  0  0
   16.0914  -19.8824    2.6578 C   0  0  0  0  0  0  0  0  0  0  0  0
   16.3041  -21.0448    2.2115 N   0  0  0  0  0  0  0  0  0  0  0  0
   16.6405  -19.3911    3.8867 N   0  0  0  0  0  0  0  0  0  0  0  0
   16.4079  -17.9649    4.1664 C   0  0  0  0  0  0  0  0  0  0  0  0
   17.0708  -17.5744    5.4391 C   0  0  0  0  0  0  0  0  0  0  0  0
   16.8147  -16.1900    5.8514 C   0  0  0  0  0  0  0  0  0  0  0  0
   17.5026  -15.6465    7.0722 C   0  0  2  0  0  0  0  0  0  0  0  0
   18.0283  -14.3501    6.8126 N   0  0  0  0  0  0  0  0  0  0  0  0
   18.5674  -16.6216    7.4296 C   0  0  0  0  0  0  0  0  0  0  0  0
   19.6795  -16.5176    6.9076 O   0  0  0  0  0  0  0  0  0  0  0  0
   16.8704  -21.8060    2.6018 N   0  0  0  0  0  0  0  0  0  0  0  0
   18.2967  -17.6434    8.3564 C   0  0  0  0  0  0  0  0  0  0  0  0
   16.9638  -17.9055    8.9391 C   0  0  0  0  0  0  0  0  0  0  0  0
   17.2943  -18.2420   10.3693 C   0  0  0  0  0  0  0  0  0  0  0  0
   18.8251  -18.3550   10.4436 C   0  0  2  0  0  0  0  0  0  0  0  0
   19.1490  -18.6455    8.9768 C   0  0  0  0  0  0  0  0  0  0  0  0
   18.8109  -20.0262    8.6012 O   0  0  0  0  0  0  0  0  0  0  0  0
   19.6754  -21.0377    8.9956 O   0  0  0  0  0  0  0  0  0  0  0  0
  2  1  1  0
  2  3  2  0
  4  3  1  0
  5  4  2  0
  6  5  1  0
  7  6  1  0
  7  8  1  1
  9  7  1  0
  9 10  2  0
 11 12  2  0
 11  5  1  0
 12  2  1  0
 14 13  1  0
 15 14  2  0
 16 14  1  0
 17 16  1  0
 18 19  1  0
 18 17  1  0
 20 19  1  6
 20 21  1  0
 21  9  1  0
 22 20  1  0
 23 22  2  0
 24 28  1  0
 24 22  1  0
 25 24  1  0
 26 25  1  0
 26 27  1  0
 27 28  1  0
 28 29  1  1
 29 31  2  0
 29 30  1  0
M  END
$$$$
