YRP.pdb
     RDKit          3D

 31 32  0  0  1  0  0  0  0  0999 V2000
   19.3424  -15.0763  -23.5829 O   0  0  0  0  0  0  0  0  0  0  0  0
   20.2526  -15.3461  -22.5674 C   0  0  0  0  0  0  0  0  0  0  0  0
   21.4737  -14.7167  -22.5170 C   0  0  0  0  0  0  0  0  0  0  0  0
   22.3604  -15.0155  -21.4797 C   0  0  0  0  0  0  0  0  0  0  0  0
   22.0437  -15.9277  -20.4994 C   0  0  0  0  0  0  0  0  0  0  0  0
   23.0152  -16.2155  -19.4157 C   0  0  0  0  0  0  0  0  0  0  0  0
   22.2794  -16.0005  -18.1086 C   0  0  2  0  0  0  0  0  0  0  0  0
   22.0006  -14.6265  -17.8483 N   0  0  0  0  0  0  0  0  0  0  0  0
   23.0432  -16.6309  -17.0117 C   0  0  0  0  0  0  0  0  0  0  0  0
   24.1216  -16.1319  -16.5679 O   0  0  0  0  0  0  0  0  0  0  0  0
   20.8169  -16.5599  -20.5510 C   0  0  0  0  0  0  0  0  0  0  0  0
   19.9474  -16.2561  -21.5835 C   0  0  0  0  0  0  0  0  0  0  0  0
   20.7744  -21.8905  -10.5491 N   0  0  0  0  0  0  0  0  0  0  0  0
   20.2859  -21.0917  -11.6177 C   0  0  0  0  0  0  0  0  0  0  0  0
   19.0508  -21.0896  -11.8825 N   0  0  0  0  0  0  0  0  0  0  0  0
   21.2542  -20.3223  -12.3412 N   0  0  0  0  0  0  0  0  0  0  0  0
   22.5157  -21.0129  -12.6545 C   0  0  0  0  0  0  0  0  0  0  0  0
   23.3996  -20.1307  -13.4620 C   0  0  0  0  0  0  0  0  0  0  0  0
   22.6933  -19.3246  -14.4637 C   0  0  0  0  0  0  0  0  0  0  0  0
   23.4846  -18.4531  -15.3980 C   0  0  2  0  0  0  0  0  0  0  0  0
   22.6294  -17.8507  -16.3625 N   0  0  0  0  0  0  0  0  0  0  0  0
   24.5110  -19.3266  -16.0273 C   0  0  0  0  0  0  0  0  0  0  0  0
   24.2664  -19.8582  -17.1125 O   0  0  0  0  0  0  0  0  0  0  0  0
   18.5370  -20.5955  -12.6203 N   0  0  0  0  0  0  0  0  0  0  0  0
   25.7435  -19.5324  -15.3831 C   0  0  0  0  0  0  0  0  0  0  0  0
   26.0786  -19.0076  -14.0425 C   0  0  0  0  0  0  0  0  0  0  0  0
   27.5161  -18.5897  -14.2066 C   0  0  0  0  0  0  0  0  0  0  0  0
   27.9620  -19.1084  -15.5827 C   0  0  1  0  0  0  0  0  0  0  0  0
   26.9493  -20.2361  -15.7909 C   0  0  0  0  0  0  0  0  0  0  0  0
   27.2574  -21.4125  -14.9646 O   0  0  0  0  0  0  0  0  0  0  0  0
   28.2986  -22.2363  -15.3685 O   0  0  0  0  0  0  0  0  0  0  0  0
  2  1  1  0
  2  3  2  0
  4  3  1  0
  5  4  2  0
  6  5  1  0
  7  6  1  0
  7  8  1  1
  9  7  1  0
  9 10  2  0
 11 12  2  0
 11  5  1  0
 12  2  1  0
 14 13  1  0
 15 14  2  0
 16 14  1  0
 17 16  1  0
 18 19  1  0
 18 17  1  0
 20 19  1  1
 20 21  1  0
 21  9  1  0
 22 20  1  0
 23 22  2  0
 24 28  1  0
 24 22  1  0
 25 24  1  0
 26 25  1  0
 26 27  1  0
 27 28  1  0
 28 29  1  1
 29 31  2  0
 29 30  1  0
M  END
$$$$
