YRP.pdb
     RDKit          3D

 31 32  0  0  1  0  0  0  0  0999 V2000
   17.0510  -21.4302  -20.2661 O   0  0  0  0  0  0  0  0  0  0  0  0
   18.2421  -20.7469  -20.0501 C   0  0  0  0  0  0  0  0  0  0  0  0
   18.5909  -19.6597  -20.8158 C   0  0  0  0  0  0  0  0  0  0  0  0
   19.7968  -19.0000  -20.5667 C   0  0  0  0  0  0  0  0  0  0  0  0
   20.6512  -19.4098  -19.5690 C   0  0  0  0  0  0  0  0  0  0  0  0
   21.9224  -18.6802  -19.3386 C   0  0  0  0  0  0  0  0  0  0  0  0
   21.6669  -17.7192  -18.1952 C   0  0  2  0  0  0  0  0  0  0  0  0
   21.4840  -16.3741  -18.6314 N   0  0  0  0  0  0  0  0  0  0  0  0
   22.7582  -17.8400  -17.2060 C   0  0  0  0  0  0  0  0  0  0  0  0
   23.9670  -17.5963  -17.5030 O   0  0  0  0  0  0  0  0  0  0  0  0
   20.3003  -20.5022  -18.8005 C   0  0  0  0  0  0  0  0  0  0  0  0
   19.1037  -21.1477  -19.0571 C   0  0  0  0  0  0  0  0  0  0  0  0
   22.9877  -21.2043   -8.9977 N   0  0  0  0  0  0  0  0  0  0  0  0
   24.3318  -20.7892   -9.1972 C   0  0  0  0  0  0  0  0  0  0  0  0
   25.1131  -20.7047   -8.2083 N   0  0  0  0  0  0  0  0  0  0  0  0
   24.7191  -20.4868  -10.5431 N   0  0  0  0  0  0  0  0  0  0  0  0
   23.6405  -20.0227  -11.4305 C   0  0  0  0  0  0  0  0  0  0  0  0
   24.1892  -19.6649  -12.7655 C   0  0  0  0  0  0  0  0  0  0  0  0
   23.2010  -19.1005  -13.6914 C   0  0  0  0  0  0  0  0  0  0  0  0
   23.6584  -18.5642  -15.0187 C   0  0  2  0  0  0  0  0  0  0  0  0
   22.5407  -18.2394  -15.8371 N   0  0  0  0  0  0  0  0  0  0  0  0
   24.5137  -19.6162  -15.6304 C   0  0  0  0  0  0  0  0  0  0  0  0
   24.0139  -20.4083  -16.4322 O   0  0  0  0  0  0  0  0  0  0  0  0
   26.0943  -20.4079   -8.1685 N   0  0  0  0  0  0  0  0  0  0  0  0
   25.8761  -19.6932  -15.2922 C   0  0  0  0  0  0  0  0  0  0  0  0
   26.5212  -18.8695  -14.2480 C   0  0  0  0  0  0  0  0  0  0  0  0
   27.8536  -18.5421  -14.8689 C   0  0  0  0  0  0  0  0  0  0  0  0
   27.9541  -19.3892  -16.1471 C   0  0  2  0  0  0  0  0  0  0  0  0
   26.9637  -20.5064  -15.8130 C   0  0  0  0  0  0  0  0  0  0  0  0
   27.5144  -21.4564  -14.8353 O   0  0  0  0  0  0  0  0  0  0  0  0
   26.9786  -21.4561  -13.5551 O   0  0  0  0  0  0  0  0  0  0  0  0
  2  1  1  0
  2  3  2  0
  4  3  1  0
  5  4  2  0
  6  5  1  0
  7  6  1  0
  7  8  1  6
  9  7  1  0
  9 10  2  0
 11 12  2  0
 11  5  1  0
 12  2  1  0
 14 13  1  0
 15 14  2  0
 16 14  1  0
 17 16  1  0
 18 19  1  0
 18 17  1  0
 20 19  1  1
 20 21  1  0
 21  9  1  0
 22 20  1  0
 23 22  2  0
 24 28  1  0
 24 22  1  0
 25 24  1  0
 26 25  1  0
 26 27  1  0
 27 28  1  0
 28 29  1  1
 29 31  2  0
 29 30  1  0
M  END
$$$$
