YRP.pdb
     RDKit          3D

 31 32  0  0  1  0  0  0  0  0999 V2000
   50.1723  -11.9096  -12.1426 O   0  0  0  0  0  0  0  0  0  0  0  0
   48.8311  -11.8556  -11.7812 C   0  0  0  0  0  0  0  0  0  0  0  0
   48.3771  -10.9475  -10.8543 C   0  0  0  0  0  0  0  0  0  0  0  0
   47.0212  -10.9252  -10.5186 C   0  0  0  0  0  0  0  0  0  0  0  0
   46.1206  -11.7918  -11.0940 C   0  0  0  0  0  0  0  0  0  0  0  0
   44.6891  -11.7339  -10.7083 C   0  0  0  0  0  0  0  0  0  0  0  0
   44.6058  -12.2409   -9.2827 C   0  0  2  0  0  0  0  0  0  0  0  0
   44.7023  -13.6606   -9.1922 N   0  0  0  0  0  0  0  0  0  0  0  0
   43.3709  -11.7258   -8.6553 C   0  0  0  0  0  0  0  0  0  0  0  0
   42.2178  -12.0842   -9.0434 O   0  0  0  0  0  0  0  0  0  0  0  0
   46.5776  -12.7040  -12.0248 C   0  0  0  0  0  0  0  0  0  0  0  0
   47.9226  -12.7169  -12.3487 C   0  0  0  0  0  0  0  0  0  0  0  0
   43.6056   -7.2704   -1.4793 N   0  0  0  0  0  0  0  0  0  0  0  0
   43.9900   -8.6303   -1.3319 C   0  0  0  0  0  0  0  0  0  0  0  0
   44.4590   -9.0311   -0.2297 N   0  0  0  0  0  0  0  0  0  0  0  0
   43.8142   -9.4765   -2.4747 N   0  0  0  0  0  0  0  0  0  0  0  0
   43.1373   -8.8617   -3.6280 C   0  0  0  0  0  0  0  0  0  0  0  0
   42.9913   -9.8519   -4.7280 C   0  0  0  0  0  0  0  0  0  0  0  0
   42.3744   -9.3133   -5.9452 C   0  0  0  0  0  0  0  0  0  0  0  0
   42.1454  -10.2236   -7.1189 C   0  0  2  0  0  0  0  0  0  0  0  0
   43.3755  -10.7848   -7.5620 N   0  0  0  0  0  0  0  0  0  0  0  0
   41.4925   -9.4020   -8.1731 C   0  0  0  0  0  0  0  0  0  0  0  0
   42.1486   -9.0513   -9.1562 O   0  0  0  0  0  0  0  0  0  0  0  0
   44.6984   -9.9804    0.0772 N   0  0  0  0  0  0  0  0  0  0  0  0
   40.1408   -9.0395   -8.0393 C   0  0  0  0  0  0  0  0  0  0  0  0
   39.3040   -9.3687   -6.8662 C   0  0  0  0  0  0  0  0  0  0  0  0
   37.9804   -9.7127   -7.4969 C   0  0  0  0  0  0  0  0  0  0  0  0
   38.1022   -9.3450   -8.9840 C   0  0  1  0  0  0  0  0  0  0  0  0
   39.2349   -8.3185   -8.9196 C   0  0  0  0  0  0  0  0  0  0  0  0
   38.7803   -7.0302   -8.3763 O   0  0  0  0  0  0  0  0  0  0  0  0
   39.1163   -6.7223   -7.0655 O   0  0  0  0  0  0  0  0  0  0  0  0
  2  1  1  0
  2  3  2  0
  4  3  1  0
  5  4  2  0
  6  5  1  0
  7  6  1  0
  7  8  1  6
  9  7  1  0
  9 10  2  0
 11 12  2  0
 11  5  1  0
 12  2  1  0
 14 13  1  0
 15 14  2  0
 16 14  1  0
 17 16  1  0
 18 19  1  0
 18 17  1  0
 20 19  1  1
 20 21  1  0
 21  9  1  0
 22 20  1  0
 23 22  2  0
 24 28  1  0
 24 22  1  0
 25 24  1  0
 26 25  1  0
 26 27  1  0
 27 28  1  0
 28 29  1  1
 29 31  2  0
 29 30  1  0
M  END
$$$$
