YRP.pdb
     RDKit          3D

 31 32  0  0  1  0  0  0  0  0999 V2000
   21.8356  -22.0116   -6.9693 O   0  0  0  0  0  0  0  0  0  0  0  0
   22.7143  -21.4842   -7.9085 C   0  0  0  0  0  0  0  0  0  0  0  0
   22.3358  -21.3023   -9.2175 C   0  0  0  0  0  0  0  0  0  0  0  0
   23.2485  -20.7690  -10.1308 C   0  0  0  0  0  0  0  0  0  0  0  0
   24.5245  -20.4173   -9.7545 C   0  0  0  0  0  0  0  0  0  0  0  0
   25.4621  -19.8543  -10.7571 C   0  0  0  0  0  0  0  0  0  0  0  0
   25.9587  -21.0214  -11.5863 C   0  0  2  0  0  0  0  0  0  0  0  0
   26.7668  -21.9283  -10.8397 N   0  0  0  0  0  0  0  0  0  0  0  0
   26.6593  -20.5054  -12.7808 C   0  0  0  0  0  0  0  0  0  0  0  0
   27.7226  -19.8193  -12.6946 O   0  0  0  0  0  0  0  0  0  0  0  0
   24.9041  -20.6008   -8.4394 C   0  0  0  0  0  0  0  0  0  0  0  0
   23.9915  -21.1303   -7.5443 C   0  0  0  0  0  0  0  0  0  0  0  0
   29.5873  -24.4393  -16.6800 N   0  0  0  0  0  0  0  0  0  0  0  0
   28.3764  -25.1710  -16.5499 C   0  0  0  0  0  0  0  0  0  0  0  0
   28.4044  -26.3509  -16.0997 N   0  0  0  0  0  0  0  0  0  0  0  0
   27.1739  -24.5020  -16.9490 N   0  0  0  0  0  0  0  0  0  0  0  0
   27.3412  -23.1256  -17.4431 C   0  0  0  0  0  0  0  0  0  0  0  0
   27.5989  -22.1986  -16.3091 C   0  0  0  0  0  0  0  0  0  0  0  0
   26.9097  -20.9081  -16.4177 C   0  0  0  0  0  0  0  0  0  0  0  0
   26.7991  -20.0285  -15.2041 C   0  0  2  0  0  0  0  0  0  0  0  0
   26.1974  -20.7379  -14.1274 N   0  0  0  0  0  0  0  0  0  0  0  0
   25.9986  -18.8424  -15.6102 C   0  0  0  0  0  0  0  0  0  0  0  0
   24.8461  -18.7206  -15.1897 O   0  0  0  0  0  0  0  0  0  0  0  0
   27.6369  -27.0129  -15.9409 N   0  0  0  0  0  0  0  0  0  0  0  0
   26.5633  -17.8766  -16.4616 C   0  0  0  0  0  0  0  0  0  0  0  0
   27.9334  -17.9521  -17.0112 C   0  0  0  0  0  0  0  0  0  0  0  0
   28.3928  -16.5197  -16.9375 C   0  0  0  0  0  0  0  0  0  0  0  0
   27.1602  -15.6907  -16.5441 C   0  0  1  0  0  0  0  0  0  0  0  0
   26.0421  -16.6302  -17.0003 C   0  0  0  0  0  0  0  0  0  0  0  0
   25.8887  -16.6344  -18.4625 O   0  0  0  0  0  0  0  0  0  0  0  0
   25.1139  -15.6372  -19.0380 O   0  0  0  0  0  0  0  0  0  0  0  0
  2  1  1  0
  2  3  2  0
  4  3  1  0
  5  4  2  0
  6  5  1  0
  7  6  1  0
  7  8  1  1
  9  7  1  0
  9 10  2  0
 11 12  2  0
 11  5  1  0
 12  2  1  0
 14 13  1  0
 15 14  2  0
 16 14  1  0
 17 16  1  0
 18 19  1  0
 18 17  1  0
 20 19  1  6
 20 21  1  0
 21  9  1  0
 22 20  1  0
 23 22  2  0
 24 28  1  0
 24 22  1  0
 25 24  1  0
 26 25  1  0
 26 27  1  0
 27 28  1  0
 28 29  1  6
 29 31  2  0
 29 30  1  0
M  END
$$$$
