YRP.pdb
     RDKit          3D

 31 32  0  0  1  0  0  0  0  0999 V2000
   18.1646  -13.1676  -18.1365 O   0  0  0  0  0  0  0  0  0  0  0  0
   18.5937  -14.2186  -17.3341 C   0  0  0  0  0  0  0  0  0  0  0  0
   18.8755  -14.0311  -16.0017 C   0  0  0  0  0  0  0  0  0  0  0  0
   19.3040  -15.1134  -15.2292 C   0  0  0  0  0  0  0  0  0  0  0  0
   19.4522  -16.3709  -15.7677 C   0  0  0  0  0  0  0  0  0  0  0  0
   19.9100  -17.4925  -14.9112 C   0  0  0  0  0  0  0  0  0  0  0  0
   19.9783  -18.7159  -15.8026 C   0  0  2  0  0  0  0  0  0  0  0  0
   18.7306  -19.3986  -15.9044 N   0  0  0  0  0  0  0  0  0  0  0  0
   21.0610  -19.6029  -15.3283 C   0  0  0  0  0  0  0  0  0  0  0  0
   20.9460  -20.3041  -14.2776 O   0  0  0  0  0  0  0  0  0  0  0  0
   19.1692  -16.5583  -17.1064 C   0  0  0  0  0  0  0  0  0  0  0  0
   18.7462  -15.4788  -17.8613 C   0  0  0  0  0  0  0  0  0  0  0  0
   28.7477  -23.2460  -16.7658 N   0  0  0  0  0  0  0  0  0  0  0  0
   28.2306  -22.1100  -17.4446 C   0  0  0  0  0  0  0  0  0  0  0  0
   28.8586  -21.6318  -18.4308 N   0  0  0  0  0  0  0  0  0  0  0  0
   26.9988  -21.5702  -16.9504 N   0  0  0  0  0  0  0  0  0  0  0  0
   26.5044  -20.3680  -17.6407 C   0  0  0  0  0  0  0  0  0  0  0  0
   25.2877  -19.8475  -16.9621 C   0  0  0  0  0  0  0  0  0  0  0  0
   24.3898  -20.8899  -16.4527 C   0  0  0  0  0  0  0  0  0  0  0  0
   23.3521  -20.5302  -15.4268 C   0  0  2  0  0  0  0  0  0  0  0  0
   22.3224  -19.7432  -16.0138 N   0  0  0  0  0  0  0  0  0  0  0  0
   24.0623  -19.8035  -14.3404 C   0  0  0  0  0  0  0  0  0  0  0  0
   23.7831  -18.6225  -14.1230 O   0  0  0  0  0  0  0  0  0  0  0  0
   28.6474  -20.8121  -19.0105 N   0  0  0  0  0  0  0  0  0  0  0  0
   25.0362  -20.4687  -13.5754 C   0  0  0  0  0  0  0  0  0  0  0  0
   25.3803  -21.8981  -13.7286 C   0  0  0  0  0  0  0  0  0  0  0  0
   25.5813  -22.3391  -12.3027 C   0  0  0  0  0  0  0  0  0  0  0  0
   25.5441  -21.0632  -11.4469 C   0  0  2  0  0  0  0  0  0  0  0  0
   25.9068  -20.0161  -12.5018 C   0  0  0  0  0  0  0  0  0  0  0  0
   27.3364  -20.0507  -12.8432 O   0  0  0  0  0  0  0  0  0  0  0  0
   28.2253  -19.4172  -11.9861 O   0  0  0  0  0  0  0  0  0  0  0  0
  2  1  1  0
  2  3  2  0
  4  3  1  0
  5  4  2  0
  6  5  1  0
  7  6  1  0
  7  8  1  1
  9  7  1  0
  9 10  2  0
 11 12  2  0
 11  5  1  0
 12  2  1  0
 14 13  1  0
 15 14  2  0
 16 14  1  0
 17 16  1  0
 18 19  1  0
 18 17  1  0
 20 19  1  6
 20 21  1  0
 21  9  1  0
 22 20  1  0
 23 22  2  0
 24 28  1  0
 24 22  1  0
 25 24  1  0
 26 25  1  0
 26 27  1  0
 27 28  1  0
 28 29  1  1
 29 31  2  0
 29 30  1  0
M  END
$$$$
