HGG.pdb
     RDKit          3D

 19 19  0  0  1  0  0  0  0  0999 V2000
   11.2663  -17.4292   22.7823 N   0  0  0  0  0  0  0  0  0  0  0  0
   12.4816  -18.1551   22.4385 C   0  0  1  0  0  0  0  0  0  0  0  0
   12.2331  -19.6065   22.7640 C   0  0  0  0  0  0  0  0  0  0  0  0
   11.9656  -19.8055   24.2029 C   0  0  0  0  0  0  0  0  0  0  0  0
   12.8927  -19.6627   25.2299 C   0  0  0  0  0  0  0  0  0  0  0  0
   12.2889  -19.9217   26.3864 N   0  0  0  0  0  0  0  0  0  0  0  0
   11.0111  -20.2237   26.1273 C   0  0  0  0  0  0  0  0  0  0  0  0
   10.8009  -20.1579   24.8150 N   0  0  0  0  0  0  0  0  0  0  0  0
   12.7070  -17.9365   20.9861 C   0  0  0  0  0  0  0  0  0  0  0  0
   13.6163  -18.5877   20.4274 O   0  0  0  0  0  0  0  0  0  0  0  0
   11.9431  -17.0270   20.2017 N   0  0  0  0  0  0  0  0  0  0  0  0
   12.2016  -16.7219   18.8344 C   0  0  0  0  0  0  0  0  0  0  0  0
   12.7009  -15.3120   18.6542 C   0  0  0  0  0  0  0  0  0  0  0  0
   11.9053  -14.3379   18.6366 O   0  0  0  0  0  0  0  0  0  0  0  0
   14.0869  -15.0413   18.4986 N   0  0  0  0  0  0  0  0  0  0  0  0
   14.6032  -13.7216   18.1907 C   0  0  0  0  0  0  0  0  0  0  0  0
   16.0614  -13.7172   18.0025 C   0  0  0  0  0  0  0  0  0  0  0  0
   16.7325  -14.7130   18.3153 O   0  0  0  0  0  0  0  0  0  0  0  0
   16.6784  -12.6093   17.4801 O   0  0  0  0  0  0  0  0  0  0  0  0
  2  1  1  6
  3  2  1  0
  4  3  1  0
  5  4  2  0
  6  5  1  0
  7  6  1  0
  7  8  2  0
  8  4  1  0
  9  2  1  0
 10  9  2  0
 11  9  1  0
 12 11  1  0
 13 12  1  0
 14 13  2  0
 15 13  1  0
 16 15  1  0
 17 16  1  0
 17 19  1  0
 18 17  2  0
M  END
$$$$
