HGG.pdb
     RDKit          3D

 19 19  0  0  1  0  0  0  0  0999 V2000
   10.2327  -17.2166   19.8249 N   0  0  0  0  0  0  0  0  0  0  0  0
   10.1784  -16.1921   20.8591 C   0  0  1  0  0  0  0  0  0  0  0  0
    8.7574  -15.6894   20.9051 C   0  0  0  0  0  0  0  0  0  0  0  0
    8.5935  -14.4432   20.1294 C   0  0  0  0  0  0  0  0  0  0  0  0
    9.5840  -13.8136   19.3830 C   0  0  0  0  0  0  0  0  0  0  0  0
    9.0671  -12.7215   18.8266 N   0  0  0  0  0  0  0  0  0  0  0  0
    7.7831  -12.6378   19.1950 C   0  0  0  0  0  0  0  0  0  0  0  0
    7.4828  -13.6689   19.9807 N   0  0  0  0  0  0  0  0  0  0  0  0
   10.5814  -16.8520   22.1281 C   0  0  0  0  0  0  0  0  0  0  0  0
   10.3610  -18.0766   22.2501 O   0  0  0  0  0  0  0  0  0  0  0  0
   11.2031  -16.1634   23.2076 N   0  0  0  0  0  0  0  0  0  0  0  0
   12.5271  -16.4113   23.6709 C   0  0  0  0  0  0  0  0  0  0  0  0
   12.5384  -17.1845   24.9639 C   0  0  0  0  0  0  0  0  0  0  0  0
   13.6071  -17.3705   25.6007 O   0  0  0  0  0  0  0  0  0  0  0  0
   11.3407  -17.7267   25.5022 N   0  0  0  0  0  0  0  0  0  0  0  0
   11.2556  -18.2759   26.8416 C   0  0  0  0  0  0  0  0  0  0  0  0
   11.9961  -19.5385   26.9806 C   0  0  0  0  0  0  0  0  0  0  0  0
   12.6043  -20.0137   26.0090 O   0  0  0  0  0  0  0  0  0  0  0  0
   12.0130  -20.1900   28.1873 O   0  0  0  0  0  0  0  0  0  0  0  0
  2  1  1  6
  3  2  1  0
  4  3  1  0
  5  4  2  0
  6  5  1  0
  7  6  1  0
  7  8  2  0
  8  4  1  0
  9  2  1  0
 10  9  2  0
 11  9  1  0
 12 11  1  0
 13 12  1  0
 14 13  2  0
 15 13  1  0
 16 15  1  0
 17 16  1  0
 17 19  1  0
 18 17  2  0
M  END
$$$$
