HGG.pdb
     RDKit          3D

 19 19  0  0  1  0  0  0  0  0999 V2000
   10.6895  -13.1075   19.4299 N   0  0  0  0  0  0  0  0  0  0  0  0
    9.6242  -13.9789   19.9071 C   0  0  1  0  0  0  0  0  0  0  0  0
    9.5448  -15.1406   18.9487 C   0  0  0  0  0  0  0  0  0  0  0  0
    9.2630  -14.6927   17.5697 C   0  0  0  0  0  0  0  0  0  0  0  0
    8.3363  -13.7224   17.2031 C   0  0  0  0  0  0  0  0  0  0  0  0
    8.3621  -13.5887   15.8799 N   0  0  0  0  0  0  0  0  0  0  0  0
    9.2734  -14.4410   15.3958 C   0  0  0  0  0  0  0  0  0  0  0  0
    9.8252  -15.1138   16.4026 N   0  0  0  0  0  0  0  0  0  0  0  0
   10.0108  -14.4069   21.2765 C   0  0  0  0  0  0  0  0  0  0  0  0
   11.1744  -14.1622   21.6627 O   0  0  0  0  0  0  0  0  0  0  0  0
    9.1271  -15.0787   22.1675 N   0  0  0  0  0  0  0  0  0  0  0  0
    9.4722  -15.5047   23.4822 C   0  0  0  0  0  0  0  0  0  0  0  0
   10.5816  -16.5241   23.4735 C   0  0  0  0  0  0  0  0  0  0  0  0
   11.4004  -16.5856   22.5207 O   0  0  0  0  0  0  0  0  0  0  0  0
   10.7352  -17.4469   24.5428 N   0  0  0  0  0  0  0  0  0  0  0  0
   11.9650  -18.1762   24.7847 C   0  0  0  0  0  0  0  0  0  0  0  0
   11.8977  -19.0078   25.9954 C   0  0  0  0  0  0  0  0  0  0  0  0
   10.9347  -18.9017   26.7708 O   0  0  0  0  0  0  0  0  0  0  0  0
   12.9023  -19.9013   26.2659 O   0  0  0  0  0  0  0  0  0  0  0  0
  2  1  1  6
  3  2  1  0
  4  3  1  0
  5  4  2  0
  6  5  1  0
  7  6  1  0
  7  8  2  0
  8  4  1  0
  9  2  1  0
 10  9  2  0
 11  9  1  0
 12 11  1  0
 13 12  1  0
 14 13  2  0
 15 13  1  0
 16 15  1  0
 17 16  1  0
 17 19  1  0
 18 17  2  0
M  END
$$$$
