HGG.pdb
     RDKit          3D

 19 19  0  0  1  0  0  0  0  0999 V2000
    8.6545  -15.7641   21.4757 N   0  0  0  0  0  0  0  0  0  0  0  0
    7.9574  -14.7172   22.2108 C   0  0  1  0  0  0  0  0  0  0  0  0
    6.8210  -14.2493   21.3368 C   0  0  0  0  0  0  0  0  0  0  0  0
    7.3007  -13.7843   20.0196 C   0  0  0  0  0  0  0  0  0  0  0  0
    8.0100  -12.6121   19.7796 C   0  0  0  0  0  0  0  0  0  0  0  0
    8.2679  -12.5307   18.4773 N   0  0  0  0  0  0  0  0  0  0  0  0
    7.7463  -13.6110   17.8840 C   0  0  0  0  0  0  0  0  0  0  0  0
    7.1597  -14.3764   18.8009 N   0  0  0  0  0  0  0  0  0  0  0  0
    7.4763  -15.3368   23.4728 C   0  0  0  0  0  0  0  0  0  0  0  0
    6.8358  -14.6206   24.2727 O   0  0  0  0  0  0  0  0  0  0  0  0
    7.7066  -16.6989   23.8159 N   0  0  0  0  0  0  0  0  0  0  0  0
    7.3052  -17.3043   25.0413 C   0  0  0  0  0  0  0  0  0  0  0  0
    8.4726  -17.5434   25.9631 C   0  0  0  0  0  0  0  0  0  0  0  0
    9.5497  -18.0318   25.5348 O   0  0  0  0  0  0  0  0  0  0  0  0
    8.3906  -17.2237   27.3450 N   0  0  0  0  0  0  0  0  0  0  0  0
    9.5371  -17.2596   28.2322 C   0  0  0  0  0  0  0  0  0  0  0  0
   10.0942  -18.6124   28.3780 C   0  0  0  0  0  0  0  0  0  0  0  0
   11.1607  -18.9102   27.8177 O   0  0  0  0  0  0  0  0  0  0  0  0
    9.4322  -19.5449   29.1350 O   0  0  0  0  0  0  0  0  0  0  0  0
  2  1  1  6
  3  2  1  0
  4  3  1  0
  5  4  2  0
  6  5  1  0
  7  6  1  0
  7  8  2  0
  8  4  1  0
  9  2  1  0
 10  9  2  0
 11  9  1  0
 12 11  1  0
 13 12  1  0
 14 13  2  0
 15 13  1  0
 16 15  1  0
 17 16  1  0
 17 19  1  0
 18 17  2  0
M  END
$$$$
