HGG.pdb
     RDKit          3D

 19 19  0  0  1  0  0  0  0  0999 V2000
    5.9974  -21.6695   23.0685 N   0  0  0  0  0  0  0  0  0  0  0  0
    5.8532  -21.5130   24.5097 C   0  0  1  0  0  0  0  0  0  0  0  0
    6.4396  -22.7479   25.1463 C   0  0  0  0  0  0  0  0  0  0  0  0
    5.6460  -23.9534   24.8326 C   0  0  0  0  0  0  0  0  0  0  0  0
    4.5377  -24.4049   25.5415 C   0  0  0  0  0  0  0  0  0  0  0  0
    4.0883  -25.5161   24.9649 N   0  0  0  0  0  0  0  0  0  0  0  0
    4.8739  -25.7841   23.9150 C   0  0  0  0  0  0  0  0  0  0  0  0
    5.8178  -24.8507   23.8222 N   0  0  0  0  0  0  0  0  0  0  0  0
    6.6015  -20.2829   24.8774 C   0  0  0  0  0  0  0  0  0  0  0  0
    7.6799  -20.0523   24.2885 O   0  0  0  0  0  0  0  0  0  0  0  0
    6.1546  -19.3576   25.8623 N   0  0  0  0  0  0  0  0  0  0  0  0
    6.8239  -18.1456   26.1975 C   0  0  0  0  0  0  0  0  0  0  0  0
    7.8490  -18.3472   27.2830 C   0  0  0  0  0  0  0  0  0  0  0  0
    8.4679  -17.3724   27.7818 O   0  0  0  0  0  0  0  0  0  0  0  0
    8.1468  -19.6462   27.7755 N   0  0  0  0  0  0  0  0  0  0  0  0
    9.0203  -19.8787   28.9094 C   0  0  0  0  0  0  0  0  0  0  0  0
   10.4436  -19.8161   28.5460 C   0  0  0  0  0  0  0  0  0  0  0  0
   10.7785  -19.5040   27.3927 O   0  0  0  0  0  0  0  0  0  0  0  0
   11.4007  -20.1036   29.4853 O   0  0  0  0  0  0  0  0  0  0  0  0
  2  1  1  6
  3  2  1  0
  4  3  1  0
  5  4  2  0
  6  5  1  0
  7  6  1  0
  7  8  2  0
  8  4  1  0
  9  2  1  0
 10  9  2  0
 11  9  1  0
 12 11  1  0
 13 12  1  0
 14 13  2  0
 15 13  1  0
 16 15  1  0
 17 16  1  0
 17 19  1  0
 18 17  2  0
M  END
$$$$
