HGG.pdb
     RDKit          3D

 19 19  0  0  1  0  0  0  0  0999 V2000
    8.2875  -16.7654   21.1545 N   0  0  0  0  0  0  0  0  0  0  0  0
    7.7221  -15.8359   22.1232 C   0  0  1  0  0  0  0  0  0  0  0  0
    6.7166  -14.9892   21.3841 C   0  0  0  0  0  0  0  0  0  0  0  0
    7.3688  -14.0984   20.4029 C   0  0  0  0  0  0  0  0  0  0  0  0
    7.2515  -14.1874   19.0198 C   0  0  0  0  0  0  0  0  0  0  0  0
    7.9785  -13.2194   18.4686 N   0  0  0  0  0  0  0  0  0  0  0  0
    8.5523  -12.5203   19.4551 C   0  0  0  0  0  0  0  0  0  0  0  0
    8.1942  -13.0383   20.6273 N   0  0  0  0  0  0  0  0  0  0  0  0
    7.0881  -16.6638   23.1819 C   0  0  0  0  0  0  0  0  0  0  0  0
    6.4867  -17.7033   22.8344 O   0  0  0  0  0  0  0  0  0  0  0  0
    7.1305  -16.3347   24.5660 N   0  0  0  0  0  0  0  0  0  0  0  0
    6.5307  -17.1083   25.6010 C   0  0  0  0  0  0  0  0  0  0  0  0
    7.4985  -18.0926   26.2046 C   0  0  0  0  0  0  0  0  0  0  0  0
    7.1969  -18.7551   27.2304 O   0  0  0  0  0  0  0  0  0  0  0  0
    8.7818  -18.3013   25.6318 N   0  0  0  0  0  0  0  0  0  0  0  0
    9.7704  -19.1885   26.2136 C   0  0  0  0  0  0  0  0  0  0  0  0
   11.1053  -18.5761   26.2830 C   0  0  0  0  0  0  0  0  0  0  0  0
   11.2212  -17.3563   26.4796 O   0  0  0  0  0  0  0  0  0  0  0  0
   12.2226  -19.3565   26.1298 O   0  0  0  0  0  0  0  0  0  0  0  0
  2  1  1  6
  3  2  1  0
  4  3  1  0
  5  4  2  0
  6  5  1  0
  7  6  1  0
  7  8  2  0
  8  4  1  0
  9  2  1  0
 10  9  2  0
 11  9  1  0
 12 11  1  0
 13 12  1  0
 14 13  2  0
 15 13  1  0
 16 15  1  0
 17 16  1  0
 17 19  1  0
 18 17  2  0
M  END
$$$$
