HGG.pdb
     RDKit          3D

 19 19  0  0  1  0  0  0  0  0999 V2000
    8.5491  -16.1189   20.5398 N   0  0  0  0  0  0  0  0  0  0  0  0
    8.2777  -14.9261   21.3308 C   0  0  1  0  0  0  0  0  0  0  0  0
    7.0642  -14.2653   20.7267 C   0  0  0  0  0  0  0  0  0  0  0  0
    7.2576  -13.9760   19.2913 C   0  0  0  0  0  0  0  0  0  0  0  0
    8.0167  -12.9353   18.7664 C   0  0  0  0  0  0  0  0  0  0  0  0
    7.9562  -12.9929   17.4389 N   0  0  0  0  0  0  0  0  0  0  0  0
    7.1847  -14.0342   17.1048 C   0  0  0  0  0  0  0  0  0  0  0  0
    6.7560  -14.6370   18.2110 N   0  0  0  0  0  0  0  0  0  0  0  0
    8.0306  -15.3891   22.7211 C   0  0  0  0  0  0  0  0  0  0  0  0
    6.8535  -15.6453   23.0553 O   0  0  0  0  0  0  0  0  0  0  0  0
    9.0621  -15.5551   23.6878 N   0  0  0  0  0  0  0  0  0  0  0  0
    8.8456  -15.9122   25.0497 C   0  0  0  0  0  0  0  0  0  0  0  0
   10.1148  -15.8510   25.8591 C   0  0  0  0  0  0  0  0  0  0  0  0
   10.1302  -16.1893   27.0705 O   0  0  0  0  0  0  0  0  0  0  0  0
   11.3329  -15.4088   25.2767 N   0  0  0  0  0  0  0  0  0  0  0  0
   12.6059  -16.0586   25.5217 C   0  0  0  0  0  0  0  0  0  0  0  0
   13.0989  -16.7925   24.3469 C   0  0  0  0  0  0  0  0  0  0  0  0
   12.4215  -17.7091   23.8561 O   0  0  0  0  0  0  0  0  0  0  0  0
   14.3098  -16.4616   23.7946 O   0  0  0  0  0  0  0  0  0  0  0  0
  2  1  1  6
  3  2  1  0
  4  3  1  0
  5  4  2  0
  6  5  1  0
  7  6  1  0
  7  8  2  0
  8  4  1  0
  9  2  1  0
 10  9  2  0
 11  9  1  0
 12 11  1  0
 13 12  1  0
 14 13  2  0
 15 13  1  0
 16 15  1  0
 17 16  1  0
 17 19  1  0
 18 17  2  0
M  END
$$$$
