HGG.pdb
     RDKit          3D

 19 19  0  0  1  0  0  0  0  0999 V2000
    9.2997  -16.8146   19.8704 N   0  0  0  0  0  0  0  0  0  0  0  0
   10.3770  -15.8849   20.1823 C   0  0  1  0  0  0  0  0  0  0  0  0
    9.7377  -14.6567   20.7801 C   0  0  0  0  0  0  0  0  0  0  0  0
    8.8073  -14.0095   19.8330 C   0  0  0  0  0  0  0  0  0  0  0  0
    9.1648  -13.3669   18.6524 C   0  0  0  0  0  0  0  0  0  0  0  0
    8.0616  -12.9094   18.0667 N   0  0  0  0  0  0  0  0  0  0  0  0
    7.0174  -13.2403   18.8359 C   0  0  0  0  0  0  0  0  0  0  0  0
    7.4511  -13.9040   19.9046 N   0  0  0  0  0  0  0  0  0  0  0  0
   11.2678  -16.5798   21.1476 C   0  0  0  0  0  0  0  0  0  0  0  0
   10.7801  -16.9475   22.2384 O   0  0  0  0  0  0  0  0  0  0  0  0
   12.6427  -16.8471   20.8943 N   0  0  0  0  0  0  0  0  0  0  0  0
   13.5004  -17.5753   21.7680 C   0  0  0  0  0  0  0  0  0  0  0  0
   14.3575  -16.6644   22.6080 C   0  0  0  0  0  0  0  0  0  0  0  0
   14.6207  -15.4925   22.2345 O   0  0  0  0  0  0  0  0  0  0  0  0
   14.8940  -17.1034   23.8481 N   0  0  0  0  0  0  0  0  0  0  0  0
   15.7678  -16.2827   24.6642 C   0  0  0  0  0  0  0  0  0  0  0  0
   17.1278  -16.1881   24.1136 C   0  0  0  0  0  0  0  0  0  0  0  0
   17.4124  -16.7683   23.0542 O   0  0  0  0  0  0  0  0  0  0  0  0
   18.0816  -15.4566   24.7739 O   0  0  0  0  0  0  0  0  0  0  0  0
  2  1  1  1
  3  2  1  0
  4  3  1  0
  5  4  2  0
  6  5  1  0
  7  6  1  0
  7  8  2  0
  8  4  1  0
  9  2  1  0
 10  9  2  0
 11  9  1  0
 12 11  1  0
 13 12  1  0
 14 13  2  0
 15 13  1  0
 16 15  1  0
 17 16  1  0
 17 19  1  0
 18 17  2  0
M  END
$$$$
