HGG.pdb
     RDKit          3D

 19 19  0  0  1  0  0  0  0  0999 V2000
   10.0316  -15.7379   19.8191 N   0  0  0  0  0  0  0  0  0  0  0  0
   10.9258  -14.6818   19.3638 C   0  0  1  0  0  0  0  0  0  0  0  0
   10.2450  -13.3702   19.6643 C   0  0  0  0  0  0  0  0  0  0  0  0
    8.9322  -13.2703   18.9947 C   0  0  0  0  0  0  0  0  0  0  0  0
    8.7100  -12.7937   17.7071 C   0  0  0  0  0  0  0  0  0  0  0  0
    7.4062  -12.8544   17.4506 N   0  0  0  0  0  0  0  0  0  0  0  0
    6.7949  -13.3532   18.5317 C   0  0  0  0  0  0  0  0  0  0  0  0
    7.7018  -13.6089   19.4712 N   0  0  0  0  0  0  0  0  0  0  0  0
   12.1919  -14.8439   20.1247 C   0  0  0  0  0  0  0  0  0  0  0  0
   12.1169  -15.0274   21.3591 O   0  0  0  0  0  0  0  0  0  0  0  0
   13.4806  -14.8011   19.5219 N   0  0  0  0  0  0  0  0  0  0  0  0
   14.6436  -14.2530   20.1353 C   0  0  0  0  0  0  0  0  0  0  0  0
   15.3604  -15.2634   20.9926 C   0  0  0  0  0  0  0  0  0  0  0  0
   16.5012  -15.0228   21.4647 O   0  0  0  0  0  0  0  0  0  0  0  0
   14.7678  -16.5192   21.2931 N   0  0  0  0  0  0  0  0  0  0  0  0
   15.4094  -17.5138   22.1310 C   0  0  0  0  0  0  0  0  0  0  0  0
   14.6632  -17.7712   23.3714 C   0  0  0  0  0  0  0  0  0  0  0  0
   13.6526  -17.1031   23.6400 O   0  0  0  0  0  0  0  0  0  0  0  0
   15.0870  -18.7519   24.2313 O   0  0  0  0  0  0  0  0  0  0  0  0
  2  1  1  1
  3  2  1  0
  4  3  1  0
  5  4  2  0
  6  5  1  0
  7  6  1  0
  7  8  2  0
  8  4  1  0
  9  2  1  0
 10  9  2  0
 11  9  1  0
 12 11  1  0
 13 12  1  0
 14 13  2  0
 15 13  1  0
 16 15  1  0
 17 16  1  0
 17 19  1  0
 18 17  2  0
M  END
$$$$
