HGG.pdb
     RDKit          3D

 19 19  0  0  1  0  0  0  0  0999 V2000
   11.9281  -14.3219   19.1719 N   0  0  0  0  0  0  0  0  0  0  0  0
   11.5327  -14.7315   20.5128 C   0  0  1  0  0  0  0  0  0  0  0  0
   10.1286  -15.2721   20.4107 C   0  0  0  0  0  0  0  0  0  0  0  0
    9.2072  -14.2883   19.8066 C   0  0  0  0  0  0  0  0  0  0  0  0
    9.0709  -12.9586   20.1913 C   0  0  0  0  0  0  0  0  0  0  0  0
    8.1491  -12.3862   19.4220 N   0  0  0  0  0  0  0  0  0  0  0  0
    7.6967  -13.3077   18.5632 C   0  0  0  0  0  0  0  0  0  0  0  0
    8.3253  -14.4598   18.7828 N   0  0  0  0  0  0  0  0  0  0  0  0
   12.5045  -15.7715   20.9399 C   0  0  0  0  0  0  0  0  0  0  0  0
   12.9163  -16.5802   20.0801 O   0  0  0  0  0  0  0  0  0  0  0  0
   12.9883  -15.8931   22.2730 N   0  0  0  0  0  0  0  0  0  0  0  0
   13.9283  -16.8715   22.7072 C   0  0  0  0  0  0  0  0  0  0  0  0
   15.3493  -16.4487   22.4393 C   0  0  0  0  0  0  0  0  0  0  0  0
   15.8023  -16.3977   21.2670 O   0  0  0  0  0  0  0  0  0  0  0  0
   16.2201  -16.0948   23.5046 N   0  0  0  0  0  0  0  0  0  0  0  0
   17.5157  -15.4788   23.2928 C   0  0  0  0  0  0  0  0  0  0  0  0
   18.1613  -15.0780   24.5515 C   0  0  0  0  0  0  0  0  0  0  0  0
   17.6059  -15.3087   25.6370 O   0  0  0  0  0  0  0  0  0  0  0  0
   19.3792  -14.4483   24.5231 O   0  0  0  0  0  0  0  0  0  0  0  0
  2  1  1  6
  3  2  1  0
  4  3  1  0
  5  4  2  0
  6  5  1  0
  7  6  1  0
  7  8  2  0
  8  4  1  0
  9  2  1  0
 10  9  2  0
 11  9  1  0
 12 11  1  0
 13 12  1  0
 14 13  2  0
 15 13  1  0
 16 15  1  0
 17 16  1  0
 17 19  1  0
 18 17  2  0
M  END
$$$$
