HGG.pdb
     RDKit          3D

 19 19  0  0  1  0  0  0  0  0999 V2000
    9.0455  -15.9011   21.5239 N   0  0  0  0  0  0  0  0  0  0  0  0
    8.0058  -15.2174   22.2813 C   0  0  1  0  0  0  0  0  0  0  0  0
    6.9282  -14.8326   21.2990 C   0  0  0  0  0  0  0  0  0  0  0  0
    7.4778  -14.0828   20.1513 C   0  0  0  0  0  0  0  0  0  0  0  0
    8.1976  -12.8949   20.2253 C   0  0  0  0  0  0  0  0  0  0  0  0
    8.5254  -12.5193   18.9921 N   0  0  0  0  0  0  0  0  0  0  0  0
    8.0379  -13.4284   18.1395 C   0  0  0  0  0  0  0  0  0  0  0  0
    7.4036  -14.3774   18.8234 N   0  0  0  0  0  0  0  0  0  0  0  0
    7.5185  -16.1856   23.2978 C   0  0  0  0  0  0  0  0  0  0  0  0
    7.6917  -17.4044   23.0798 O   0  0  0  0  0  0  0  0  0  0  0  0
    6.8672  -15.7973   24.5024 N   0  0  0  0  0  0  0  0  0  0  0  0
    6.3665  -16.7038   25.4806 C   0  0  0  0  0  0  0  0  0  0  0  0
    7.4368  -17.1420   26.4461 C   0  0  0  0  0  0  0  0  0  0  0  0
    7.1515  -17.8068   27.4750 O   0  0  0  0  0  0  0  0  0  0  0  0
    8.8015  -16.8167   26.2220 N   0  0  0  0  0  0  0  0  0  0  0  0
    9.8490  -17.1043   27.1827 C   0  0  0  0  0  0  0  0  0  0  0  0
   10.3393  -18.4869   27.0843 C   0  0  0  0  0  0  0  0  0  0  0  0
    9.8627  -19.2576   26.2365 O   0  0  0  0  0  0  0  0  0  0  0  0
   11.3250  -18.9230   27.9322 O   0  0  0  0  0  0  0  0  0  0  0  0
  2  1  1  6
  3  2  1  0
  4  3  1  0
  5  4  2  0
  6  5  1  0
  7  6  1  0
  7  8  2  0
  8  4  1  0
  9  2  1  0
 10  9  2  0
 11  9  1  0
 12 11  1  0
 13 12  1  0
 14 13  2  0
 15 13  1  0
 16 15  1  0
 17 16  1  0
 17 19  1  0
 18 17  2  0
M  END
$$$$
