HGG.pdb
     RDKit          3D

 19 19  0  0  1  0  0  0  0  0999 V2000
    8.7406  -17.5220   18.6011 N   0  0  0  0  0  0  0  0  0  0  0  0
    9.2358  -16.7953   19.7625 C   0  0  1  0  0  0  0  0  0  0  0  0
    8.0709  -16.0201   20.3248 C   0  0  0  0  0  0  0  0  0  0  0  0
    7.7772  -14.8161   19.5212 C   0  0  0  0  0  0  0  0  0  0  0  0
    8.3695  -14.4840   18.3074 C   0  0  0  0  0  0  0  0  0  0  0  0
    7.8545  -13.3329   17.8842 N   0  0  0  0  0  0  0  0  0  0  0  0
    6.9562  -12.9244   18.7884 C   0  0  0  0  0  0  0  0  0  0  0  0
    6.8983  -13.8084   19.7814 N   0  0  0  0  0  0  0  0  0  0  0  0
    9.7419  -17.8172   20.7153 C   0  0  0  0  0  0  0  0  0  0  0  0
    9.1590  -18.9224   20.7569 O   0  0  0  0  0  0  0  0  0  0  0  0
   10.8523  -17.6025   21.5795 N   0  0  0  0  0  0  0  0  0  0  0  0
   11.0721  -18.2976   22.8033 C   0  0  0  0  0  0  0  0  0  0  0  0
   12.2956  -17.7971   23.5262 C   0  0  0  0  0  0  0  0  0  0  0  0
   12.5719  -16.5707   23.5640 O   0  0  0  0  0  0  0  0  0  0  0  0
   13.1738  -18.6973   24.1871 N   0  0  0  0  0  0  0  0  0  0  0  0
   14.2495  -18.2563   25.0539 C   0  0  0  0  0  0  0  0  0  0  0  0
   15.4691  -17.9130   24.3080 C   0  0  0  0  0  0  0  0  0  0  0  0
   16.1897  -18.8113   23.8457 O   0  0  0  0  0  0  0  0  0  0  0  0
   15.8086  -16.5971   24.1242 O   0  0  0  0  0  0  0  0  0  0  0  0
  2  1  1  6
  3  2  1  0
  4  3  1  0
  5  4  2  0
  6  5  1  0
  7  6  1  0
  7  8  2  0
  8  4  1  0
  9  2  1  0
 10  9  2  0
 11  9  1  0
 12 11  1  0
 13 12  1  0
 14 13  2  0
 15 13  1  0
 16 15  1  0
 17 16  1  0
 17 19  1  0
 18 17  2  0
M  END
$$$$
