HGG.pdb
     RDKit          3D

 19 19  0  0  1  0  0  0  0  0999 V2000
    9.0785  -15.3810   21.6277 N   0  0  0  0  0  0  0  0  0  0  0  0
    8.1208  -14.3648   22.0427 C   0  0  1  0  0  0  0  0  0  0  0  0
    6.9725  -14.4189   21.0668 C   0  0  0  0  0  0  0  0  0  0  0  0
    7.4216  -14.1755   19.6809 C   0  0  0  0  0  0  0  0  0  0  0  0
    8.0354  -13.0170   19.2165 C   0  0  0  0  0  0  0  0  0  0  0  0
    8.2944  -13.1638   17.9201 N   0  0  0  0  0  0  0  0  0  0  0  0
    7.8656  -14.3757   17.5473 C   0  0  0  0  0  0  0  0  0  0  0  0
    7.3369  -14.9977   18.5982 N   0  0  0  0  0  0  0  0  0  0  0  0
    7.7009  -14.7196   23.4233 C   0  0  0  0  0  0  0  0  0  0  0  0
    6.8164  -14.0228   23.9665 O   0  0  0  0  0  0  0  0  0  0  0  0
    8.2525  -15.8082   24.1558 N   0  0  0  0  0  0  0  0  0  0  0  0
    7.9830  -16.0802   25.5279 C   0  0  0  0  0  0  0  0  0  0  0  0
    8.9329  -15.3552   26.4454 C   0  0  0  0  0  0  0  0  0  0  0  0
   10.0714  -14.9954   26.0498 O   0  0  0  0  0  0  0  0  0  0  0  0
    8.5698  -15.0565   27.7861 N   0  0  0  0  0  0  0  0  0  0  0  0
    9.4310  -14.3201   28.6911 C   0  0  0  0  0  0  0  0  0  0  0  0
   10.2864  -15.2029   29.4979 C   0  0  0  0  0  0  0  0  0  0  0  0
   10.3314  -16.4188   29.2543 O   0  0  0  0  0  0  0  0  0  0  0  0
   11.0348  -14.6789   30.5207 O   0  0  0  0  0  0  0  0  0  0  0  0
  2  1  1  6
  3  2  1  0
  4  3  1  0
  5  4  2  0
  6  5  1  0
  7  6  1  0
  7  8  2  0
  8  4  1  0
  9  2  1  0
 10  9  2  0
 11  9  1  0
 12 11  1  0
 13 12  1  0
 14 13  2  0
 15 13  1  0
 16 15  1  0
 17 16  1  0
 17 19  1  0
 18 17  2  0
M  END
$$$$
