HGG.pdb
     RDKit          3D

 19 19  0  0  1  0  0  0  0  0999 V2000
    9.2546  -17.4569   18.8081 N   0  0  0  0  0  0  0  0  0  0  0  0
   10.0814  -16.4211   19.4128 C   0  0  1  0  0  0  0  0  0  0  0  0
    9.1703  -15.5741   20.2653 C   0  0  0  0  0  0  0  0  0  0  0  0
    8.2819  -14.7288   19.4421 C   0  0  0  0  0  0  0  0  0  0  0  0
    8.2877  -14.6540   18.0532 C   0  0  0  0  0  0  0  0  0  0  0  0
    7.3510  -13.7907   17.6703 N   0  0  0  0  0  0  0  0  0  0  0  0
    6.7520  -13.3160   18.7690 C   0  0  0  0  0  0  0  0  0  0  0  0
    7.3024  -13.8723   19.8453 N   0  0  0  0  0  0  0  0  0  0  0  0
   11.1131  -17.1226   20.2201 C   0  0  0  0  0  0  0  0  0  0  0  0
   10.7963  -18.1981   20.7730 O   0  0  0  0  0  0  0  0  0  0  0  0
   12.4385  -16.6340   20.3950 N   0  0  0  0  0  0  0  0  0  0  0  0
   13.4420  -17.2768   21.1755 C   0  0  0  0  0  0  0  0  0  0  0  0
   13.2369  -17.0576   22.6519 C   0  0  0  0  0  0  0  0  0  0  0  0
   14.1426  -17.3294   23.4813 O   0  0  0  0  0  0  0  0  0  0  0  0
   12.0129  -16.5368   23.1507 N   0  0  0  0  0  0  0  0  0  0  0  0
   11.8262  -16.1507   24.5361 C   0  0  0  0  0  0  0  0  0  0  0  0
   11.5611  -17.3024   25.4108 C   0  0  0  0  0  0  0  0  0  0  0  0
   11.5952  -18.4544   24.9508 O   0  0  0  0  0  0  0  0  0  0  0  0
   11.2760  -17.1003   26.7369 O   0  0  0  0  0  0  0  0  0  0  0  0
  2  1  1  1
  3  2  1  0
  4  3  1  0
  5  4  2  0
  6  5  1  0
  7  6  1  0
  7  8  2  0
  8  4  1  0
  9  2  1  0
 10  9  2  0
 11  9  1  0
 12 11  1  0
 13 12  1  0
 14 13  2  0
 15 13  1  0
 16 15  1  0
 17 16  1  0
 17 19  1  0
 18 17  2  0
M  END
$$$$
