HGG.pdb
     RDKit          3D

 19 19  0  0  1  0  0  0  0  0999 V2000
    8.0740  -18.2276   20.6049 N   0  0  0  0  0  0  0  0  0  0  0  0
    8.9514  -17.1596   21.0649 C   0  0  1  0  0  0  0  0  0  0  0  0
    9.0837  -16.1791   19.9268 C   0  0  0  0  0  0  0  0  0  0  0  0
    9.7531  -16.7858   18.7583 C   0  0  0  0  0  0  0  0  0  0  0  0
   11.0178  -17.3648   18.7553 C   0  0  0  0  0  0  0  0  0  0  0  0
   11.2821  -17.8016   17.5270 N   0  0  0  0  0  0  0  0  0  0  0  0
   10.2282  -17.5192   16.7519 C   0  0  0  0  0  0  0  0  0  0  0  0
    9.2981  -16.9066   17.4801 N   0  0  0  0  0  0  0  0  0  0  0  0
    8.2935  -16.5553   22.2524 C   0  0  0  0  0  0  0  0  0  0  0  0
    8.8868  -15.6283   22.8454 O   0  0  0  0  0  0  0  0  0  0  0  0
    7.0271  -16.9765   22.7471 N   0  0  0  0  0  0  0  0  0  0  0  0
    6.3753  -16.4181   23.8840 C   0  0  0  0  0  0  0  0  0  0  0  0
    6.5578  -17.2679   25.1146 C   0  0  0  0  0  0  0  0  0  0  0  0
    5.8816  -17.0594   26.1546 O   0  0  0  0  0  0  0  0  0  0  0  0
    7.5002  -18.3308   25.1362 N   0  0  0  0  0  0  0  0  0  0  0  0
    7.7876  -19.1061   26.3275 C   0  0  0  0  0  0  0  0  0  0  0  0
    9.0883  -18.7642   26.9217 C   0  0  0  0  0  0  0  0  0  0  0  0
    9.7545  -17.8232   26.4626 O   0  0  0  0  0  0  0  0  0  0  0  0
    9.5638  -19.4880   27.9851 O   0  0  0  0  0  0  0  0  0  0  0  0
  2  1  1  6
  3  2  1  0
  4  3  1  0
  5  4  2  0
  6  5  1  0
  7  6  1  0
  7  8  2  0
  8  4  1  0
  9  2  1  0
 10  9  2  0
 11  9  1  0
 12 11  1  0
 13 12  1  0
 14 13  2  0
 15 13  1  0
 16 15  1  0
 17 16  1  0
 17 19  1  0
 18 17  2  0
M  END
$$$$
