TMA.pdb
     RDKit          3D

 21 20  0  0  1  0  0  0  0  0999 V2000
    6.8263  -17.8782   20.6554 C   0  0  0  0  0  0  0  0  0  0  0  0
    7.8375  -17.2757   19.7028 C   0  0  1  0  0  0  0  0  0  0  0  0
    7.4889  -17.5768   18.3964 O   0  0  0  0  0  0  0  0  0  0  0  0
    7.8901  -15.7829   19.9431 C   0  0  2  0  0  0  0  0  0  0  0  0
    8.6712  -15.1699   18.9000 N   0  0  0  0  0  0  0  0  0  0  0  0
    8.4040  -15.4576   21.2956 C   0  0  0  0  0  0  0  0  0  0  0  0
    9.5998  -15.7172   21.5867 O   0  0  0  0  0  0  0  0  0  0  0  0
    7.0430  -10.9131   27.3185 C   0  0  0  0  0  0  0  0  0  0  0  0
    6.3398  -12.4752   26.7997 S   0  0  0  0  0  0  0  0  0  0  0  0
    7.4438  -13.5273   25.8755 C   0  0  0  0  0  0  0  0  0  0  0  0
    7.0649  -13.7576   24.4526 C   0  0  0  0  0  0  0  0  0  0  0  0
    8.0177  -14.5794   23.6484 C   0  0  2  0  0  0  0  0  0  0  0  0
    7.6201  -14.8565   22.3155 N   0  0  0  0  0  0  0  0  0  0  0  0
    8.4324  -15.7734   24.3919 C   0  0  0  0  0  0  0  0  0  0  0  0
    7.5881  -16.6533   24.6731 O   0  0  0  0  0  0  0  0  0  0  0  0
   11.6997  -17.3324   25.1557 C   0  0  0  0  0  0  0  0  0  0  0  0
   10.2369  -17.1497   25.4936 C   0  0  2  0  0  0  0  0  0  0  0  0
    9.7753  -15.9587   24.8036 N   0  0  0  0  0  0  0  0  0  0  0  0
   10.1361  -17.0149   26.9710 C   0  0  0  0  0  0  0  0  0  0  0  0
    9.6941  -15.9679   27.5249 O   0  0  0  0  0  0  0  0  0  0  0  0
   10.5468  -18.0859   27.7341 O   0  0  0  0  0  0  0  0  0  0  0  0
  2  3  1  0
  2  4  1  0
  2  1  1  1
  4  5  1  6
  6  4  1  0
  6  7  2  0
  9  8  1  0
  9 10  1  0
 10 11  1  0
 12 11  1  1
 12 13  1  0
 12 14  1  0
 13  6  1  0
 14 15  2  0
 14 18  1  0
 17 16  1  1
 17 19  1  0
 18 17  1  0
 19 20  2  0
 19 21  1  0
M  END
$$$$
