TMA.pdb
     RDKit          3D

 21 20  0  0  1  0  0  0  0  0999 V2000
    6.5227  -17.8209   19.4544 C   0  0  0  0  0  0  0  0  0  0  0  0
    7.1997  -17.5510   20.7818 C   0  0  1  0  0  0  0  0  0  0  0  0
    8.0895  -18.5725   21.0710 O   0  0  0  0  0  0  0  0  0  0  0  0
    7.8898  -16.2071   20.7017 C   0  0  2  0  0  0  0  0  0  0  0  0
    8.8997  -16.2619   19.6764 N   0  0  0  0  0  0  0  0  0  0  0  0
    8.4419  -15.7891   22.0130 C   0  0  0  0  0  0  0  0  0  0  0  0
    9.6615  -15.9698   22.2617 O   0  0  0  0  0  0  0  0  0  0  0  0
    6.4819  -10.7879   26.3547 C   0  0  0  0  0  0  0  0  0  0  0  0
    6.7211  -12.2908   27.2971 S   0  0  0  0  0  0  0  0  0  0  0  0
    7.6800  -13.5495   26.4752 C   0  0  0  0  0  0  0  0  0  0  0  0
    7.2309  -13.8966   25.0970 C   0  0  0  0  0  0  0  0  0  0  0  0
    8.0949  -14.8607   24.3526 C   0  0  2  0  0  0  0  0  0  0  0  0
    7.6698  -15.1818   23.0382 N   0  0  0  0  0  0  0  0  0  0  0  0
    8.3876  -16.0399   25.1737 C   0  0  0  0  0  0  0  0  0  0  0  0
    7.4823  -16.8707   25.4110 O   0  0  0  0  0  0  0  0  0  0  0  0
   11.2638  -18.0413   25.9333 C   0  0  0  0  0  0  0  0  0  0  0  0
   10.0126  -17.4246   26.5176 C   0  0  2  0  0  0  0  0  0  0  0  0
    9.6796  -16.2653   25.7098 N   0  0  0  0  0  0  0  0  0  0  0  0
   10.3151  -17.0570   27.9262 C   0  0  0  0  0  0  0  0  0  0  0  0
   10.3086  -15.8581   28.3275 O   0  0  0  0  0  0  0  0  0  0  0  0
   10.6088  -18.0816   28.7991 O   0  0  0  0  0  0  0  0  0  0  0  0
  2  3  1  0
  2  4  1  0
  2  1  1  6
  4  5  1  6
  6  4  1  0
  6  7  2  0
  9  8  1  0
  9 10  1  0
 10 11  1  0
 12 11  1  1
 12 13  1  0
 12 14  1  0
 13  6  1  0
 14 15  2  0
 14 18  1  0
 17 16  1  6
 17 19  1  0
 18 17  1  0
 19 20  2  0
 19 21  1  0
M  END
$$$$
