TMA.pdb
     RDKit          3D

 21 20  0  0  1  0  0  0  0  0999 V2000
    7.1905  -16.3143   20.1033 C   0  0  0  0  0  0  0  0  0  0  0  0
    7.8600  -15.1129   19.4697 C   0  0  1  0  0  0  0  0  0  0  0  0
    7.4624  -14.9970   18.1479 O   0  0  0  0  0  0  0  0  0  0  0  0
    7.5009  -13.8847   20.2769 C   0  0  2  0  0  0  0  0  0  0  0  0
    7.8394  -12.7105   19.5148 N   0  0  0  0  0  0  0  0  0  0  0  0
    8.1441  -13.8928   21.6131 C   0  0  0  0  0  0  0  0  0  0  0  0
    9.3521  -13.5609   21.7249 O   0  0  0  0  0  0  0  0  0  0  0  0
    7.1557  -11.3686   27.8276 C   0  0  0  0  0  0  0  0  0  0  0  0
    5.9791  -11.7614   26.5372 S   0  0  0  0  0  0  0  0  0  0  0  0
    6.6864  -12.4864   25.0696 C   0  0  0  0  0  0  0  0  0  0  0  0
    7.2152  -13.8704   25.2321 C   0  0  0  0  0  0  0  0  0  0  0  0
    8.0435  -14.3892   24.1029 C   0  0  2  0  0  0  0  0  0  0  0  0
    7.4745  -14.2590   22.8103 N   0  0  0  0  0  0  0  0  0  0  0  0
    8.5288  -15.7426   24.3913 C   0  0  0  0  0  0  0  0  0  0  0  0
    7.7213  -16.6983   24.4192 O   0  0  0  0  0  0  0  0  0  0  0  0
   11.8851  -17.3258   24.5342 C   0  0  0  0  0  0  0  0  0  0  0  0
   10.4219  -17.3250   24.9168 C   0  0  2  0  0  0  0  0  0  0  0  0
    9.8997  -15.9989   24.6410 N   0  0  0  0  0  0  0  0  0  0  0  0
   10.3405  -17.6694   26.3610 C   0  0  0  0  0  0  0  0  0  0  0  0
    9.9228  -16.8496   27.2280 O   0  0  0  0  0  0  0  0  0  0  0  0
   10.7418  -18.9333   26.7342 O   0  0  0  0  0  0  0  0  0  0  0  0
  2  3  1  0
  2  4  1  0
  2  1  1  1
  4  5  1  6
  6  4  1  0
  6  7  2  0
  9  8  1  0
  9 10  1  0
 10 11  1  0
 12 11  1  1
 12 13  1  0
 12 14  1  0
 13  6  1  0
 14 15  2  0
 14 18  1  0
 17 16  1  1
 17 19  1  0
 18 17  1  0
 19 20  2  0
 19 21  1  0
M  END
$$$$
