TMA.pdb
     RDKit          3D

 21 20  0  0  1  0  0  0  0  0999 V2000
    6.3792  -17.4028   20.6002 C   0  0  0  0  0  0  0  0  0  0  0  0
    7.3752  -16.8433   19.6062 C   0  0  1  0  0  0  0  0  0  0  0  0
    6.9289  -17.0726   18.3150 O   0  0  0  0  0  0  0  0  0  0  0  0
    7.5540  -15.3677   19.8879 C   0  0  2  0  0  0  0  0  0  0  0  0
    8.3340  -14.7819   18.8284 N   0  0  0  0  0  0  0  0  0  0  0  0
    8.1503  -15.1274   21.2243 C   0  0  0  0  0  0  0  0  0  0  0  0
    9.3690  -15.3724   21.4158 O   0  0  0  0  0  0  0  0  0  0  0  0
    7.3530  -11.4123   28.2208 C   0  0  0  0  0  0  0  0  0  0  0  0
    6.4884  -12.3136   26.9386 S   0  0  0  0  0  0  0  0  0  0  0  0
    7.5230  -13.3441   25.9152 C   0  0  0  0  0  0  0  0  0  0  0  0
    7.0591  -13.5193   24.5097 C   0  0  0  0  0  0  0  0  0  0  0  0
    7.9193  -14.3764   23.6406 C   0  0  2  0  0  0  0  0  0  0  0  0
    7.4229  -14.6259   22.3357 N   0  0  0  0  0  0  0  0  0  0  0  0
    8.3286  -15.5929   24.3497 C   0  0  0  0  0  0  0  0  0  0  0  0
    7.4730  -16.4583   24.6415 O   0  0  0  0  0  0  0  0  0  0  0  0
   11.5312  -17.3207   24.8577 C   0  0  0  0  0  0  0  0  0  0  0  0
   10.1349  -17.0334   25.3629 C   0  0  2  0  0  0  0  0  0  0  0  0
    9.6789  -15.8164   24.7160 N   0  0  0  0  0  0  0  0  0  0  0  0
   10.2192  -16.8844   26.8399 C   0  0  0  0  0  0  0  0  0  0  0  0
    9.9292  -15.8029   27.4270 O   0  0  0  0  0  0  0  0  0  0  0  0
   10.6310  -17.9812   27.5646 O   0  0  0  0  0  0  0  0  0  0  0  0
  2  3  1  0
  2  4  1  0
  2  1  1  1
  4  5  1  6
  6  4  1  0
  6  7  2  0
  9  8  1  0
  9 10  1  0
 10 11  1  0
 12 11  1  1
 12 13  1  0
 12 14  1  0
 13  6  1  0
 14 15  2  0
 14 18  1  0
 17 16  1  6
 17 19  1  0
 18 17  1  0
 19 20  2  0
 19 21  1  0
M  END
$$$$
