TMA.pdb
     RDKit          3D

 21 20  0  0  1  0  0  0  0  0999 V2000
    7.0067  -16.3109   19.8837 C   0  0  0  0  0  0  0  0  0  0  0  0
    7.8453  -15.1926   19.3013 C   0  0  1  0  0  0  0  0  0  0  0  0
    7.5464  -15.0325   17.9582 O   0  0  0  0  0  0  0  0  0  0  0  0
    7.5769  -13.9319   20.0934 C   0  0  2  0  0  0  0  0  0  0  0  0
    8.0504  -12.7988   19.3410 N   0  0  0  0  0  0  0  0  0  0  0  0
    8.1712  -13.9937   21.4507 C   0  0  0  0  0  0  0  0  0  0  0  0
    9.4017  -13.7816   21.6022 O   0  0  0  0  0  0  0  0  0  0  0  0
    6.9529  -11.1446   27.5416 C   0  0  0  0  0  0  0  0  0  0  0  0
    5.7842  -11.8200   26.3660 S   0  0  0  0  0  0  0  0  0  0  0  0
    6.5137  -12.5153   24.8949 C   0  0  0  0  0  0  0  0  0  0  0  0
    7.0105  -13.9142   25.0282 C   0  0  0  0  0  0  0  0  0  0  0  0
    7.9287  -14.3861   23.9493 C   0  0  2  0  0  0  0  0  0  0  0  0
    7.4292  -14.2837   22.6259 N   0  0  0  0  0  0  0  0  0  0  0  0
    8.4676  -15.7125   24.2666 C   0  0  0  0  0  0  0  0  0  0  0  0
    7.6987  -16.6985   24.3175 O   0  0  0  0  0  0  0  0  0  0  0  0
   11.8949  -17.1432   24.5242 C   0  0  0  0  0  0  0  0  0  0  0  0
   10.4187  -17.2024   24.8477 C   0  0  2  0  0  0  0  0  0  0  0  0
    9.8479  -15.9088   24.5189 N   0  0  0  0  0  0  0  0  0  0  0  0
   10.2938  -17.5176   26.2954 C   0  0  0  0  0  0  0  0  0  0  0  0
    9.7307  -16.7329   27.1112 O   0  0  0  0  0  0  0  0  0  0  0  0
   10.8204  -18.7139   26.7308 O   0  0  0  0  0  0  0  0  0  0  0  0
  2  3  1  0
  2  4  1  0
  2  1  1  1
  4  5  1  6
  6  4  1  0
  6  7  2  0
  9  8  1  0
  9 10  1  0
 10 11  1  0
 12 11  1  1
 12 13  1  0
 12 14  1  0
 13  6  1  0
 14 15  2  0
 14 18  1  0
 17 16  1  1
 17 19  1  0
 18 17  1  0
 19 20  2  0
 19 21  1  0
M  END
$$$$
