TMA.pdb
     RDKit          3D

 21 20  0  0  1  0  0  0  0  0999 V2000
    7.1417  -16.1526   19.6779 C   0  0  0  0  0  0  0  0  0  0  0  0
    7.8205  -14.9469   19.0624 C   0  0  1  0  0  0  0  0  0  0  0  0
    7.3441  -14.7452   17.7775 O   0  0  0  0  0  0  0  0  0  0  0  0
    7.5676  -13.7500   19.9525 C   0  0  2  0  0  0  0  0  0  0  0  0
    8.0456  -12.5653   19.2877 N   0  0  0  0  0  0  0  0  0  0  0  0
    8.1699  -13.9225   21.2967 C   0  0  0  0  0  0  0  0  0  0  0  0
    9.4139  -13.8060   21.4415 O   0  0  0  0  0  0  0  0  0  0  0  0
    7.0815  -11.3832   27.6554 C   0  0  0  0  0  0  0  0  0  0  0  0
    5.9359  -12.2683   26.6028 S   0  0  0  0  0  0  0  0  0  0  0  0
    6.5890  -12.7447   25.0134 C   0  0  0  0  0  0  0  0  0  0  0  0
    7.0141  -14.1686   24.8982 C   0  0  0  0  0  0  0  0  0  0  0  0
    7.9302  -14.4863   23.7626 C   0  0  2  0  0  0  0  0  0  0  0  0
    7.4212  -14.2183   22.4662 N   0  0  0  0  0  0  0  0  0  0  0  0
    8.4846  -15.8367   23.9020 C   0  0  0  0  0  0  0  0  0  0  0  0
    7.7501  -16.8316   23.7103 O   0  0  0  0  0  0  0  0  0  0  0  0
   11.8216  -17.3665   24.0241 C   0  0  0  0  0  0  0  0  0  0  0  0
   10.3960  -17.3589   24.5293 C   0  0  2  0  0  0  0  0  0  0  0  0
    9.8417  -16.0464   24.2508 N   0  0  0  0  0  0  0  0  0  0  0  0
   10.4400  -17.6501   25.9867 C   0  0  0  0  0  0  0  0  0  0  0  0
    9.9605  -16.8587   26.8482 O   0  0  0  0  0  0  0  0  0  0  0  0
   11.0304  -18.8314   26.3789 O   0  0  0  0  0  0  0  0  0  0  0  0
  2  3  1  0
  2  4  1  0
  2  1  1  1
  4  5  1  6
  6  4  1  0
  6  7  2  0
  9  8  1  0
  9 10  1  0
 10 11  1  0
 12 11  1  1
 12 13  1  0
 12 14  1  0
 13  6  1  0
 14 15  2  0
 14 18  1  0
 17 16  1  1
 17 19  1  0
 18 17  1  0
 19 20  2  0
 19 21  1  0
M  END
$$$$
