TMA.pdb
     RDKit          3D

 21 20  0  0  1  0  0  0  0  0999 V2000
    7.0310  -18.5420   21.1772 C   0  0  0  0  0  0  0  0  0  0  0  0
    7.9201  -18.0893   20.0381 C   0  0  1  0  0  0  0  0  0  0  0  0
    7.4467  -18.6014   18.8412 O   0  0  0  0  0  0  0  0  0  0  0  0
    7.9545  -16.5769   20.0306 C   0  0  2  0  0  0  0  0  0  0  0  0
    8.6824  -16.1327   18.8701 N   0  0  0  0  0  0  0  0  0  0  0  0
    8.5152  -16.0296   21.2897 C   0  0  0  0  0  0  0  0  0  0  0  0
    9.7443  -16.1494   21.5282 O   0  0  0  0  0  0  0  0  0  0  0  0
    7.1691  -11.8411   28.0384 C   0  0  0  0  0  0  0  0  0  0  0  0
    6.6133  -12.3722   26.4219 S   0  0  0  0  0  0  0  0  0  0  0  0
    7.6308  -13.6148   25.6473 C   0  0  0  0  0  0  0  0  0  0  0  0
    7.2874  -13.9301   24.2317 C   0  0  0  0  0  0  0  0  0  0  0  0
    8.1782  -14.9144   23.5478 C   0  0  2  0  0  0  0  0  0  0  0  0
    7.7414  -15.3604   22.2743 N   0  0  0  0  0  0  0  0  0  0  0  0
    8.5396  -16.0085   24.4548 C   0  0  0  0  0  0  0  0  0  0  0  0
    7.6545  -16.7927   24.8643 O   0  0  0  0  0  0  0  0  0  0  0  0
   11.6997  -17.7046   25.2480 C   0  0  0  0  0  0  0  0  0  0  0  0
   10.2967  -17.3410   25.6801 C   0  0  2  0  0  0  0  0  0  0  0  0
    9.8761  -16.2028   24.8832 N   0  0  0  0  0  0  0  0  0  0  0  0
   10.3483  -17.0199   27.1310 C   0  0  0  0  0  0  0  0  0  0  0  0
   10.0690  -15.8710   27.5786 O   0  0  0  0  0  0  0  0  0  0  0  0
   10.7167  -18.0314   27.9907 O   0  0  0  0  0  0  0  0  0  0  0  0
  2  3  1  0
  2  4  1  0
  2  1  1  1
  4  5  1  6
  6  4  1  0
  6  7  2  0
  9  8  1  0
  9 10  1  0
 10 11  1  0
 12 11  1  1
 12 13  1  0
 12 14  1  0
 13  6  1  0
 14 15  2  0
 14 18  1  0
 17 16  1  6
 17 19  1  0
 18 17  1  0
 19 20  2  0
 19 21  1  0
M  END
$$$$
