TMA.pdb
     RDKit          3D

 21 20  0  0  1  0  0  0  0  0999 V2000
    7.0872  -14.6721   17.7699 C   0  0  0  0  0  0  0  0  0  0  0  0
    7.6455  -14.7954   19.1720 C   0  0  1  0  0  0  0  0  0  0  0  0
    8.9038  -15.3731   19.1270 O   0  0  0  0  0  0  0  0  0  0  0  0
    7.6791  -13.4176   19.7959 C   0  0  2  0  0  0  0  0  0  0  0  0
    8.4520  -12.5425   18.9527 N   0  0  0  0  0  0  0  0  0  0  0  0
    8.1893  -13.4523   21.1879 C   0  0  0  0  0  0  0  0  0  0  0  0
    9.4055  -13.2226   21.4116 O   0  0  0  0  0  0  0  0  0  0  0  0
    6.8113  -11.1081   27.6257 C   0  0  0  0  0  0  0  0  0  0  0  0
    6.3722  -12.8253   27.3759 S   0  0  0  0  0  0  0  0  0  0  0  0
    7.3185  -13.6691   26.1221 C   0  0  0  0  0  0  0  0  0  0  0  0
    6.9173  -13.3800   24.7162 C   0  0  0  0  0  0  0  0  0  0  0  0
    7.8146  -13.9277   23.6557 C   0  0  2  0  0  0  0  0  0  0  0  0
    7.3796  -13.7346   22.3196 N   0  0  0  0  0  0  0  0  0  0  0  0
    8.1853  -15.3152   23.9519 C   0  0  0  0  0  0  0  0  0  0  0  0
    7.3046  -16.2043   23.9601 O   0  0  0  0  0  0  0  0  0  0  0  0
   11.3460  -17.2284   24.2179 C   0  0  0  0  0  0  0  0  0  0  0  0
    9.9149  -17.0113   24.6562 C   0  0  2  0  0  0  0  0  0  0  0  0
    9.5259  -15.6788   24.2312 N   0  0  0  0  0  0  0  0  0  0  0  0
    9.8761  -17.1607   26.1351 C   0  0  0  0  0  0  0  0  0  0  0  0
    9.6501  -16.1849   26.9066 O   0  0  0  0  0  0  0  0  0  0  0  0
   10.0980  -18.4188   26.6506 O   0  0  0  0  0  0  0  0  0  0  0  0
  2  3  1  0
  2  4  1  0
  2  1  1  6
  4  5  1  6
  6  4  1  0
  6  7  2  0
  9  8  1  0
  9 10  1  0
 10 11  1  0
 12 11  1  1
 12 13  1  0
 12 14  1  0
 13  6  1  0
 14 15  2  0
 14 18  1  0
 17 16  1  1
 17 19  1  0
 18 17  1  0
 19 20  2  0
 19 21  1  0
M  END
$$$$
