TMA.pdb
     RDKit          3D

 21 20  0  0  1  0  0  0  0  0999 V2000
    6.7034  -14.4820   18.0129 C   0  0  0  0  0  0  0  0  0  0  0  0
    7.3536  -14.7028   19.3624 C   0  0  1  0  0  0  0  0  0  0  0  0
    8.4642  -15.5185   19.2205 O   0  0  0  0  0  0  0  0  0  0  0  0
    7.7147  -13.3542   19.9453 C   0  0  2  0  0  0  0  0  0  0  0  0
    8.5557  -12.6522   19.0104 N   0  0  0  0  0  0  0  0  0  0  0  0
    8.3430  -13.4794   21.2828 C   0  0  0  0  0  0  0  0  0  0  0  0
    9.5966  -13.4781   21.3848 O   0  0  0  0  0  0  0  0  0  0  0  0
    5.4047  -11.8611   27.1687 C   0  0  0  0  0  0  0  0  0  0  0  0
    7.0965  -12.3128   27.5401 S   0  0  0  0  0  0  0  0  0  0  0  0
    7.9217  -13.2499   26.2672 C   0  0  0  0  0  0  0  0  0  0  0  0
    7.3984  -13.0501   24.8860 C   0  0  0  0  0  0  0  0  0  0  0  0
    8.1360  -13.7610   23.7995 C   0  0  2  0  0  0  0  0  0  0  0  0
    7.6094  -13.6043   22.4920 N   0  0  0  0  0  0  0  0  0  0  0  0
    8.3804  -15.1601   24.1644 C   0  0  0  0  0  0  0  0  0  0  0  0
    7.4305  -15.9749   24.1695 O   0  0  0  0  0  0  0  0  0  0  0  0
   11.3770  -17.2949   24.4479 C   0  0  0  0  0  0  0  0  0  0  0  0
    9.9587  -16.9940   24.8785 C   0  0  2  0  0  0  0  0  0  0  0  0
    9.6749  -15.6178   24.5140 N   0  0  0  0  0  0  0  0  0  0  0  0
    9.8856  -17.2103   26.3478 C   0  0  0  0  0  0  0  0  0  0  0  0
    9.6596  -16.2670   27.1587 O   0  0  0  0  0  0  0  0  0  0  0  0
   10.0752  -18.4945   26.8091 O   0  0  0  0  0  0  0  0  0  0  0  0
  2  3  1  0
  2  4  1  0
  2  1  1  6
  4  5  1  6
  6  4  1  0
  6  7  2  0
  9  8  1  0
  9 10  1  0
 10 11  1  0
 12 11  1  1
 12 13  1  0
 12 14  1  0
 13  6  1  0
 14 15  2  0
 14 18  1  0
 17 16  1  1
 17 19  1  0
 18 17  1  0
 19 20  2  0
 19 21  1  0
M  END
$$$$
