TMA.pdb
     RDKit          3D

 21 20  0  0  1  0  0  0  0  0999 V2000
    7.1142  -18.1549   19.8232 C   0  0  0  0  0  0  0  0  0  0  0  0
    7.5661  -17.5249   21.1239 C   0  0  1  0  0  0  0  0  0  0  0  0
    8.3117  -18.4367   21.8528 O   0  0  0  0  0  0  0  0  0  0  0  0
    8.3589  -16.2776   20.8007 C   0  0  2  0  0  0  0  0  0  0  0  0
    9.4547  -16.6325   19.9361 N   0  0  0  0  0  0  0  0  0  0  0  0
    8.8136  -15.5774   22.0263 C   0  0  0  0  0  0  0  0  0  0  0  0
   10.0252  -15.6291   22.3602 O   0  0  0  0  0  0  0  0  0  0  0  0
    5.0234  -11.7867   27.0760 C   0  0  0  0  0  0  0  0  0  0  0  0
    6.5885  -11.2267   26.4121 S   0  0  0  0  0  0  0  0  0  0  0  0
    7.6916  -12.5261   25.8881 C   0  0  0  0  0  0  0  0  0  0  0  0
    7.4258  -13.0808   24.5305 C   0  0  0  0  0  0  0  0  0  0  0  0
    8.2897  -14.2249   24.1125 C   0  0  2  0  0  0  0  0  0  0  0  0
    7.9542  -14.8309   22.8749 N   0  0  0  0  0  0  0  0  0  0  0  0
    8.4463  -15.1872   25.2078 C   0  0  0  0  0  0  0  0  0  0  0  0
    8.8537  -14.7954   26.3244 O   0  0  0  0  0  0  0  0  0  0  0  0
    7.5720  -18.7912   25.6746 C   0  0  0  0  0  0  0  0  0  0  0  0
    8.3484  -17.5555   26.0716 C   0  0  2  0  0  0  0  0  0  0  0  0
    8.1456  -16.5608   25.0338 N   0  0  0  0  0  0  0  0  0  0  0  0
    9.7766  -17.9499   26.1973 C   0  0  0  0  0  0  0  0  0  0  0  0
   10.6711  -17.5030   25.4237 O   0  0  0  0  0  0  0  0  0  0  0  0
   10.1032  -18.8344   27.2017 O   0  0  0  0  0  0  0  0  0  0  0  0
  2  3  1  0
  2  4  1  0
  2  1  1  6
  4  5  1  6
  6  4  1  0
  6  7  2  0
  9  8  1  0
  9 10  1  0
 10 11  1  0
 12 11  1  1
 12 13  1  0
 12 14  1  0
 13  6  1  0
 14 15  2  0
 14 18  1  0
 17 16  1  6
 17 19  1  0
 18 17  1  0
 19 20  2  0
 19 21  1  0
M  END
$$$$
