TMA.pdb
     RDKit          3D

 21 20  0  0  1  0  0  0  0  0999 V2000
    8.4454  -17.6158   19.1586 C   0  0  0  0  0  0  0  0  0  0  0  0
    8.4973  -17.2571   20.6289 C   0  0  1  0  0  0  0  0  0  0  0  0
    9.2358  -18.2053   21.3175 O   0  0  0  0  0  0  0  0  0  0  0  0
    9.0921  -15.8724   20.7623 C   0  0  2  0  0  0  0  0  0  0  0  0
   10.3871  -15.8586   20.1324 N   0  0  0  0  0  0  0  0  0  0  0  0
    9.1495  -15.4284   22.1760 C   0  0  0  0  0  0  0  0  0  0  0  0
   10.2539  -15.4056   22.7775 O   0  0  0  0  0  0  0  0  0  0  0  0
    6.5989  -10.9263   27.8606 C   0  0  0  0  0  0  0  0  0  0  0  0
    6.5798  -11.5799   26.1943 S   0  0  0  0  0  0  0  0  0  0  0  0
    6.6959  -13.3557   26.0814 C   0  0  0  0  0  0  0  0  0  0  0  0
    6.7084  -13.9083   24.6973 C   0  0  0  0  0  0  0  0  0  0  0  0
    7.9979  -14.5122   24.2474 C   0  0  2  0  0  0  0  0  0  0  0  0
    8.0139  -15.0149   22.9213 N   0  0  0  0  0  0  0  0  0  0  0  0
    8.4989  -15.4698   25.2385 C   0  0  0  0  0  0  0  0  0  0  0  0
    8.6121  -15.1218   26.4353 O   0  0  0  0  0  0  0  0  0  0  0  0
    9.4991  -19.0833   25.0937 C   0  0  0  0  0  0  0  0  0  0  0  0
    9.3721  -17.7637   25.8216 C   0  0  2  0  0  0  0  0  0  0  0  0
    8.8612  -16.7901   24.8737 N   0  0  0  0  0  0  0  0  0  0  0  0
   10.7243  -17.4011   26.3224 C   0  0  0  0  0  0  0  0  0  0  0  0
   11.3535  -16.3906   25.8964 O   0  0  0  0  0  0  0  0  0  0  0  0
   11.2830  -18.2147   27.2835 O   0  0  0  0  0  0  0  0  0  0  0  0
  2  3  1  0
  2  4  1  0
  2  1  1  6
  4  5  1  1
  6  4  1  0
  6  7  2  0
  9  8  1  0
  9 10  1  0
 10 11  1  0
 12 11  1  1
 12 13  1  0
 12 14  1  0
 13  6  1  0
 14 15  2  0
 14 18  1  0
 17 16  1  6
 17 19  1  0
 18 17  1  0
 19 20  2  0
 19 21  1  0
M  END
$$$$
