TMA.pdb
     RDKit          3D

 21 20  0  0  1  0  0  0  0  0999 V2000
    7.5400  -18.1282   21.6949 C   0  0  0  0  0  0  0  0  0  0  0  0
    8.6741  -17.7591   20.7619 C   0  0  1  0  0  0  0  0  0  0  0  0
    8.3420  -18.1013   19.4613 O   0  0  0  0  0  0  0  0  0  0  0  0
    8.9467  -16.2777   20.9037 C   0  0  2  0  0  0  0  0  0  0  0  0
    9.9389  -15.8912   19.9340 N   0  0  0  0  0  0  0  0  0  0  0  0
    9.3418  -15.9174   22.2869 C   0  0  0  0  0  0  0  0  0  0  0  0
   10.5000  -16.1897   22.6949 O   0  0  0  0  0  0  0  0  0  0  0  0
    5.6295  -11.9480   26.3805 C   0  0  0  0  0  0  0  0  0  0  0  0
    7.1194  -12.3042   27.3065 S   0  0  0  0  0  0  0  0  0  0  0  0
    8.1609  -13.5670   26.5992 C   0  0  0  0  0  0  0  0  0  0  0  0
    7.8647  -13.9193   25.1816 C   0  0  0  0  0  0  0  0  0  0  0  0
    8.7722  -14.9271   24.5565 C   0  0  2  0  0  0  0  0  0  0  0  0
    8.4812  -15.2679   23.2108 N   0  0  0  0  0  0  0  0  0  0  0  0
    8.9359  -16.0938   25.4296 C   0  0  0  0  0  0  0  0  0  0  0  0
    7.9699  -16.8662   25.6205 O   0  0  0  0  0  0  0  0  0  0  0  0
   11.5862  -18.2579   26.4572 C   0  0  0  0  0  0  0  0  0  0  0  0
   10.3687  -17.5080   26.9499 C   0  0  2  0  0  0  0  0  0  0  0  0
   10.1696  -16.3720   26.0682 N   0  0  0  0  0  0  0  0  0  0  0  0
   10.6423  -17.0886   28.3500 C   0  0  0  0  0  0  0  0  0  0  0  0
   10.7216  -15.8727   28.6873 O   0  0  0  0  0  0  0  0  0  0  0  0
   10.8103  -18.0836   29.2878 O   0  0  0  0  0  0  0  0  0  0  0  0
  2  3  1  0
  2  4  1  0
  2  1  1  1
  4  5  1  6
  6  4  1  0
  6  7  2  0
  9  8  1  0
  9 10  1  0
 10 11  1  0
 12 11  1  1
 12 13  1  0
 12 14  1  0
 13  6  1  0
 14 15  2  0
 14 18  1  0
 17 16  1  6
 17 19  1  0
 18 17  1  0
 19 20  2  0
 19 21  1  0
M  END
$$$$
