TMA.pdb
     RDKit          3D

 21 20  0  0  1  0  0  0  0  0999 V2000
    6.6768  -14.5337   17.6448 C   0  0  0  0  0  0  0  0  0  0  0  0
    7.2633  -14.7272   19.0274 C   0  0  1  0  0  0  0  0  0  0  0  0
    8.3508  -15.5825   18.9603 O   0  0  0  0  0  0  0  0  0  0  0  0
    7.6451  -13.3710   19.5785 C   0  0  2  0  0  0  0  0  0  0  0  0
    8.5500  -12.7316   18.6584 N   0  0  0  0  0  0  0  0  0  0  0  0
    8.2096  -13.4681   20.9464 C   0  0  0  0  0  0  0  0  0  0  0  0
    9.4563  -13.4346   21.1097 O   0  0  0  0  0  0  0  0  0  0  0  0
    6.7735  -12.5782   28.7626 C   0  0  0  0  0  0  0  0  0  0  0  0
    6.5452  -12.0896   27.0559 S   0  0  0  0  0  0  0  0  0  0  0  0
    7.5227  -13.0007   25.8753 C   0  0  0  0  0  0  0  0  0  0  0  0
    7.0574  -12.9185   24.4617 C   0  0  0  0  0  0  0  0  0  0  0  0
    7.8827  -13.6558   23.4591 C   0  0  2  0  0  0  0  0  0  0  0  0
    7.4206  -13.6002   22.1194 N   0  0  0  0  0  0  0  0  0  0  0  0
    8.1682  -15.0184   23.9198 C   0  0  0  0  0  0  0  0  0  0  0  0
    7.2390  -15.8526   24.0029 O   0  0  0  0  0  0  0  0  0  0  0  0
   11.1928  -17.0807   24.4087 C   0  0  0  0  0  0  0  0  0  0  0  0
    9.7871  -16.7225   24.8362 C   0  0  2  0  0  0  0  0  0  0  0  0
    9.4797  -15.4189   24.2761 N   0  0  0  0  0  0  0  0  0  0  0  0
    9.7642  -16.7123   26.3229 C   0  0  0  0  0  0  0  0  0  0  0  0
    9.5900  -15.6515   26.9883 O   0  0  0  0  0  0  0  0  0  0  0  0
    9.9421  -17.9169   26.9673 O   0  0  0  0  0  0  0  0  0  0  0  0
  2  3  1  0
  2  4  1  0
  2  1  1  6
  4  5  1  6
  6  4  1  0
  6  7  2  0
  9  8  1  0
  9 10  1  0
 10 11  1  0
 12 11  1  1
 12 13  1  0
 12 14  1  0
 13  6  1  0
 14 15  2  0
 14 18  1  0
 17 16  1  1
 17 19  1  0
 18 17  1  0
 19 20  2  0
 19 21  1  0
M  END
$$$$
