CQW.pdb
     RDKit          3D

 30 31  0  0  1  0  0  0  0  0999 V2000
   30.3491  -23.9694  -17.4911 N   0  0  0  0  0  0  0  0  0  0  0  0
   29.0403  -23.3677  -17.4829 C   0  0  1  0  0  0  0  0  0  0  0  0
   27.9704  -24.4276  -17.6353 C   0  0  0  0  0  0  0  0  0  0  0  0
   28.0282  -25.1902  -19.2869 S   0  0  0  0  0  0  0  0  0  0  0  0
   28.7630  -22.5637  -16.2743 C   0  0  0  0  0  0  0  0  0  0  0  0
   29.2976  -22.7995  -15.1663 O   0  0  0  0  0  0  0  0  0  0  0  0
   27.3674  -16.6101  -16.8368 N   0  0  0  0  0  0  0  0  0  0  0  0
   27.1225  -16.7408  -15.4645 C   0  0  0  0  0  0  0  0  0  0  0  0
   26.8559  -15.7613  -14.7320 O   0  0  0  0  0  0  0  0  0  0  0  0
   27.1746  -18.0887  -14.8135 C   0  0  0  0  0  0  0  0  0  0  0  0
   27.5766  -19.1533  -15.7857 C   0  0  0  0  0  0  0  0  0  0  0  0
   27.7149  -20.5133  -15.2159 C   0  0  2  0  0  0  0  0  0  0  0  0
   27.8579  -21.4743  -16.3415 N   0  0  0  0  0  0  0  0  0  0  0  0
   26.5976  -21.0182  -14.3828 C   0  0  0  0  0  0  0  0  0  0  0  0
   25.5092  -21.1749  -14.9891 O   0  0  0  0  0  0  0  0  0  0  0  0
   26.6629  -21.3149  -13.0378 N   0  0  0  0  0  0  0  0  0  0  0  0
   25.6957  -21.6381  -12.0457 C   0  0  1  0  0  0  0  0  0  0  0  0
   26.4556  -22.0051  -10.7910 C   0  0  0  0  0  0  0  0  0  0  0  0
   26.4350  -20.9804   -9.7304 C   0  0  0  0  0  0  0  0  0  0  0  0
   25.3908  -20.1515   -9.3933 C   0  0  0  0  0  0  0  0  0  0  0  0
   25.7662  -19.3645   -8.3728 N   0  0  0  0  0  0  0  0  0  0  0  0
   27.0274  -19.6620   -8.0408 C   0  0  0  0  0  0  0  0  0  0  0  0
   27.8467  -19.1143   -7.0518 C   0  0  0  0  0  0  0  0  0  0  0  0
   29.1292  -19.5856   -6.8957 C   0  0  0  0  0  0  0  0  0  0  0  0
   29.5989  -20.6124   -7.7340 C   0  0  0  0  0  0  0  0  0  0  0  0
   28.7493  -21.1119   -8.6895 C   0  0  0  0  0  0  0  0  0  0  0  0
   27.4605  -20.6601   -8.8696 C   0  0  0  0  0  0  0  0  0  0  0  0
   24.5662  -20.7643  -11.8000 C   0  0  0  0  0  0  0  0  0  0  0  0
   24.5026  -19.5234  -11.8235 O   0  0  0  0  0  0  0  0  0  0  0  0
   23.3109  -21.3666  -11.4816 O   0  0  0  0  0  0  0  0  0  0  0  0
  2  1  1  1
  2  5  1  0
  3  2  1  0
  4  3  1  0
  5  6  2  0
  8  7  1  0
  8  9  2  0
 10 11  1  0
 10  8  1  0
 12 11  1  6
 12 14  1  0
 13  5  1  0
 13 12  1  0
 14 15  2  0
 16 17  1  0
 16 14  1  0
 17 28  1  0
 17 18  1  1
 19 18  1  0
 20 19  2  0
 21 22  1  0
 21 20  1  0
 22 27  2  0
 23 24  2  0
 23 22  1  0
 24 25  1  0
 25 26  2  0
 27 19  1  0
 27 26  1  0
 28 29  2  0
 28 30  1  0
M  END
$$$$
