CQW.pdb
     RDKit          3D

 30 31  0  0  1  0  0  0  0  0999 V2000
   28.4193  -20.9105  -16.6884 N   0  0  0  0  0  0  0  0  0  0  0  0
   28.2060  -21.4496  -15.3696 C   0  0  1  0  0  0  0  0  0  0  0  0
   29.5282  -21.6498  -14.6604 C   0  0  0  0  0  0  0  0  0  0  0  0
   30.4087  -23.1063  -15.3055 S   0  0  0  0  0  0  0  0  0  0  0  0
   27.3190  -20.6223  -14.5254 C   0  0  0  0  0  0  0  0  0  0  0  0
   27.3939  -19.3726  -14.4853 O   0  0  0  0  0  0  0  0  0  0  0  0
   21.2410  -21.3298  -11.6883 N   0  0  0  0  0  0  0  0  0  0  0  0
   21.7331  -20.6567  -12.8130 C   0  0  0  0  0  0  0  0  0  0  0  0
   21.1730  -20.7150  -13.9309 O   0  0  0  0  0  0  0  0  0  0  0  0
   22.9761  -19.8270  -12.7123 C   0  0  0  0  0  0  0  0  0  0  0  0
   24.0887  -20.4026  -13.5314 C   0  0  0  0  0  0  0  0  0  0  0  0
   25.4115  -20.4414  -12.8666 C   0  0  2  0  0  0  0  0  0  0  0  0
   26.3331  -21.2415  -13.7160 N   0  0  0  0  0  0  0  0  0  0  0  0
   25.4744  -21.0412  -11.5124 C   0  0  0  0  0  0  0  0  0  0  0  0
   25.4379  -22.2961  -11.4831 O   0  0  0  0  0  0  0  0  0  0  0  0
   25.5640  -20.3466  -10.3247 N   0  0  0  0  0  0  0  0  0  0  0  0
   25.3745  -20.6918   -8.9575 C   0  0  1  0  0  0  0  0  0  0  0  0
   26.2177  -19.7390   -8.1404 C   0  0  0  0  0  0  0  0  0  0  0  0
   27.5373  -20.2631   -7.7418 C   0  0  0  0  0  0  0  0  0  0  0  0
   28.3092  -21.1782   -8.4185 C   0  0  0  0  0  0  0  0  0  0  0  0
   29.4424  -21.3910   -7.7313 N   0  0  0  0  0  0  0  0  0  0  0  0
   29.4239  -20.6375   -6.6262 C   0  0  0  0  0  0  0  0  0  0  0  0
   30.3694  -20.5204   -5.6055 C   0  0  0  0  0  0  0  0  0  0  0  0
   30.1276  -19.6714   -4.5511 C   0  0  0  0  0  0  0  0  0  0  0  0
   28.9315  -18.9327   -4.5141 C   0  0  0  0  0  0  0  0  0  0  0  0
   28.0382  -19.0891   -5.5446 C   0  0  0  0  0  0  0  0  0  0  0  0
   28.2527  -19.9314   -6.6132 C   0  0  0  0  0  0  0  0  0  0  0  0
   24.0428  -20.8874   -8.4207 C   0  0  0  0  0  0  0  0  0  0  0  0
   23.6553  -21.6450   -7.5151 O   0  0  0  0  0  0  0  0  0  0  0  0
   22.9771  -20.1165   -8.9772 O   0  0  0  0  0  0  0  0  0  0  0  0
  2  1  1  6
  2  5  1  0
  3  2  1  0
  4  3  1  0
  5  6  2  0
  8  7  1  0
  8  9  2  0
 10 11  1  0
 10  8  1  0
 12 11  1  6
 12 14  1  0
 13  5  1  0
 13 12  1  0
 14 15  2  0
 16 17  1  0
 16 14  1  0
 17 28  1  0
 17 18  1  1
 19 18  1  0
 20 19  2  0
 21 22  1  0
 21 20  1  0
 22 27  2  0
 23 24  2  0
 23 22  1  0
 24 25  1  0
 25 26  2  0
 27 19  1  0
 27 26  1  0
 28 29  2  0
 28 30  1  0
M  END
$$$$
