CQW.pdb
     RDKit          3D

 30 31  0  0  1  0  0  0  0  0999 V2000
   24.6753  -20.9467   -7.7263 N   0  0  0  0  0  0  0  0  0  0  0  0
   25.3141  -20.1942   -8.7755 C   0  0  1  0  0  0  0  0  0  0  0  0
   26.7828  -19.9983   -8.4664 C   0  0  0  0  0  0  0  0  0  0  0  0
   27.0286  -18.6695   -7.2470 S   0  0  0  0  0  0  0  0  0  0  0  0
   25.1736  -20.8037  -10.1145 C   0  0  0  0  0  0  0  0  0  0  0  0
   25.2562  -22.0383  -10.3090 O   0  0  0  0  0  0  0  0  0  0  0  0
   22.9500  -22.7859  -13.6402 N   0  0  0  0  0  0  0  0  0  0  0  0
   23.0011  -21.9615  -14.7707 C   0  0  0  0  0  0  0  0  0  0  0  0
   22.7803  -22.3892  -15.9262 O   0  0  0  0  0  0  0  0  0  0  0  0
   23.3311  -20.5073  -14.6301 C   0  0  0  0  0  0  0  0  0  0  0  0
   23.5432  -20.1279  -13.1978 C   0  0  0  0  0  0  0  0  0  0  0  0
   24.8359  -20.5531  -12.6137 C   0  0  2  0  0  0  0  0  0  0  0  0
   24.9356  -19.9812  -11.2448 N   0  0  0  0  0  0  0  0  0  0  0  0
   26.0707  -20.1412  -13.3230 C   0  0  0  0  0  0  0  0  0  0  0  0
   26.4033  -18.9412  -13.1611 O   0  0  0  0  0  0  0  0  0  0  0  0
   26.8515  -20.9499  -14.1216 N   0  0  0  0  0  0  0  0  0  0  0  0
   28.0106  -20.7348  -14.9181 C   0  0  1  0  0  0  0  0  0  0  0  0
   29.0777  -21.6773  -14.4087 C   0  0  0  0  0  0  0  0  0  0  0  0
   29.6429  -21.3229  -13.0934 C   0  0  0  0  0  0  0  0  0  0  0  0
   29.2487  -20.2974  -12.2664 C   0  0  0  0  0  0  0  0  0  0  0  0
   30.0071  -20.3097  -11.1589 N   0  0  0  0  0  0  0  0  0  0  0  0
   30.8831  -21.3167  -11.2479 C   0  0  0  0  0  0  0  0  0  0  0  0
   31.8734  -21.7248  -10.3522 C   0  0  0  0  0  0  0  0  0  0  0  0
   32.6682  -22.8027  -10.6648 C   0  0  0  0  0  0  0  0  0  0  0  0
   32.4738  -23.4794  -11.8821 C   0  0  0  0  0  0  0  0  0  0  0  0
   31.4859  -23.0328  -12.7242 C   0  0  0  0  0  0  0  0  0  0  0  0
   30.6747  -21.9568  -12.4385 C   0  0  0  0  0  0  0  0  0  0  0  0
   27.9192  -20.6958  -16.3637 C   0  0  0  0  0  0  0  0  0  0  0  0
   27.2730  -19.9292  -17.0979 O   0  0  0  0  0  0  0  0  0  0  0  0
   28.6667  -21.6589  -17.1077 O   0  0  0  0  0  0  0  0  0  0  0  0
  2  1  1  1
  2  5  1  0
  3  2  1  0
  4  3  1  0
  5  6  2  0
  8  7  1  0
  8  9  2  0
 10 11  1  0
 10  8  1  0
 12 11  1  6
 12 14  1  0
 13  5  1  0
 13 12  1  0
 14 15  2  0
 16 17  1  0
 16 14  1  0
 17 28  1  0
 17 18  1  6
 19 18  1  0
 20 19  2  0
 21 22  1  0
 21 20  1  0
 22 27  2  0
 23 24  2  0
 23 22  1  0
 24 25  1  0
 25 26  2  0
 27 19  1  0
 27 26  1  0
 28 29  2  0
 28 30  1  0
M  END
$$$$
