CQW.pdb
     RDKit          3D

 30 31  0  0  1  0  0  0  0  0999 V2000
   28.5205  -20.3929  -17.6917 N   0  0  0  0  0  0  0  0  0  0  0  0
   28.3831  -21.1167  -16.4538 C   0  0  1  0  0  0  0  0  0  0  0  0
   29.6721  -21.8343  -16.1152 C   0  0  0  0  0  0  0  0  0  0  0  0
   29.5231  -22.7559  -14.5527 S   0  0  0  0  0  0  0  0  0  0  0  0
   27.9808  -20.2698  -15.3115 C   0  0  0  0  0  0  0  0  0  0  0  0
   28.3677  -19.0861  -15.1761 O   0  0  0  0  0  0  0  0  0  0  0  0
   24.9958  -17.1583  -15.8324 N   0  0  0  0  0  0  0  0  0  0  0  0
   24.4997  -18.4598  -15.9747 C   0  0  0  0  0  0  0  0  0  0  0  0
   23.8203  -18.8168  -16.9636 O   0  0  0  0  0  0  0  0  0  0  0  0
   24.7711  -19.4903  -14.9223 C   0  0  0  0  0  0  0  0  0  0  0  0
   25.6522  -18.9508  -13.8392 C   0  0  0  0  0  0  0  0  0  0  0  0
   26.5785  -19.9312  -13.2277 C   0  0  2  0  0  0  0  0  0  0  0  0
   27.1222  -20.7922  -14.3112 N   0  0  0  0  0  0  0  0  0  0  0  0
   26.0184  -20.8530  -12.2109 C   0  0  0  0  0  0  0  0  0  0  0  0
   26.3458  -22.0579  -12.3458 O   0  0  0  0  0  0  0  0  0  0  0  0
   25.1913  -20.4975  -11.1665 N   0  0  0  0  0  0  0  0  0  0  0  0
   25.1812  -20.7749   -9.7711 C   0  0  1  0  0  0  0  0  0  0  0  0
   26.5773  -20.5048   -9.2569 C   0  0  0  0  0  0  0  0  0  0  0  0
   26.7345  -20.6228   -7.7952 C   0  0  0  0  0  0  0  0  0  0  0  0
   25.9520  -21.3502   -6.9294 C   0  0  0  0  0  0  0  0  0  0  0  0
   26.4241  -21.2035   -5.6815 N   0  0  0  0  0  0  0  0  0  0  0  0
   27.4922  -20.3989   -5.7168 C   0  0  0  0  0  0  0  0  0  0  0  0
   28.3121  -19.9518   -4.6789 C   0  0  0  0  0  0  0  0  0  0  0  0
   29.3659  -19.1141   -4.9598 C   0  0  0  0  0  0  0  0  0  0  0  0
   29.6039  -18.7184   -6.2881 C   0  0  0  0  0  0  0  0  0  0  0  0
   28.7643  -19.1883   -7.2673 C   0  0  0  0  0  0  0  0  0  0  0  0
   27.7014  -20.0277   -7.0165 C   0  0  0  0  0  0  0  0  0  0  0  0
   24.1397  -20.2402   -8.9171 C   0  0  0  0  0  0  0  0  0  0  0  0
   23.7704  -19.0646   -8.7564 O   0  0  0  0  0  0  0  0  0  0  0  0
   23.3905  -21.1588   -8.1203 O   0  0  0  0  0  0  0  0  0  0  0  0
  2  1  1  6
  2  5  1  0
  3  2  1  0
  4  3  1  0
  5  6  2  0
  8  7  1  0
  8  9  2  0
 10 11  1  0
 10  8  1  0
 12 11  1  6
 12 14  1  0
 13  5  1  0
 13 12  1  0
 14 15  2  0
 16 17  1  0
 16 14  1  0
 17 28  1  0
 17 18  1  1
 19 18  1  0
 20 19  2  0
 21 22  1  0
 21 20  1  0
 22 27  2  0
 23 24  2  0
 23 22  1  0
 24 25  1  0
 25 26  2  0
 27 19  1  0
 27 26  1  0
 28 29  2  0
 28 30  1  0
M  END
$$$$
