CQW.pdb
     RDKit          3D

 30 31  0  0  1  0  0  0  0  0999 V2000
   13.5109  -21.6835   -0.8566 N   0  0  0  0  0  0  0  0  0  0  0  0
   14.3918  -21.9354    0.2552 C   0  0  1  0  0  0  0  0  0  0  0  0
   15.8339  -21.7294   -0.1560 C   0  0  0  0  0  0  0  0  0  0  0  0
   16.4911  -23.1944   -1.0130 S   0  0  0  0  0  0  0  0  0  0  0  0
   14.0997  -21.1081    1.4444 C   0  0  0  0  0  0  0  0  0  0  0  0
   13.2782  -20.1627    1.4270 O   0  0  0  0  0  0  0  0  0  0  0  0
   12.6701  -23.4764    6.5944 N   0  0  0  0  0  0  0  0  0  0  0  0
   11.8624  -23.0489    5.5337 C   0  0  0  0  0  0  0  0  0  0  0  0
   10.7048  -23.4881    5.3496 O   0  0  0  0  0  0  0  0  0  0  0  0
   12.3709  -22.0295    4.5612 C   0  0  0  0  0  0  0  0  0  0  0  0
   13.7912  -21.6555    4.8496 C   0  0  0  0  0  0  0  0  0  0  0  0
   14.3870  -20.6655    3.9232 C   0  0  2  0  0  0  0  0  0  0  0  0
   14.7625  -21.3720    2.6699 N   0  0  0  0  0  0  0  0  0  0  0  0
   15.6072  -19.9572    4.3781 C   0  0  0  0  0  0  0  0  0  0  0  0
   16.6908  -20.5203    4.0853 O   0  0  0  0  0  0  0  0  0  0  0  0
   15.6383  -18.7690    5.0771 N   0  0  0  0  0  0  0  0  0  0  0  0
   16.6570  -18.0452    5.7572 C   0  0  1  0  0  0  0  0  0  0  0  0
   16.5568  -16.6071    5.3008 C   0  0  0  0  0  0  0  0  0  0  0  0
   17.3160  -16.2897    4.0769 C   0  0  0  0  0  0  0  0  0  0  0  0
   17.5366  -17.1117    2.9968 C   0  0  0  0  0  0  0  0  0  0  0  0
   18.2686  -16.4525    2.0850 N   0  0  0  0  0  0  0  0  0  0  0  0
   18.5285  -15.2246    2.5473 C   0  0  0  0  0  0  0  0  0  0  0  0
   19.2522  -14.1823    1.9649 C   0  0  0  0  0  0  0  0  0  0  0  0
   19.3908  -12.9924    2.6404 C   0  0  0  0  0  0  0  0  0  0  0  0
   18.8024  -12.8409    3.9086 C   0  0  0  0  0  0  0  0  0  0  0  0
   18.1034  -13.9000    4.4322 C   0  0  0  0  0  0  0  0  0  0  0  0
   17.9478  -15.1031    3.7797 C   0  0  0  0  0  0  0  0  0  0  0  0
   16.8344  -18.1839    7.1887 C   0  0  0  0  0  0  0  0  0  0  0  0
   16.1896  -18.8618    8.0065 O   0  0  0  0  0  0  0  0  0  0  0  0
   17.8981  -17.4566    7.8047 O   0  0  0  0  0  0  0  0  0  0  0  0
  2  1  1  6
  2  5  1  0
  3  2  1  0
  4  3  1  0
  5  6  2  0
  8  7  1  0
  8  9  2  0
 10 11  1  0
 10  8  1  0
 12 11  1  1
 12 14  1  0
 13  5  1  0
 13 12  1  0
 14 15  2  0
 16 17  1  0
 16 14  1  0
 17 28  1  0
 17 18  1  1
 19 18  1  0
 20 19  2  0
 21 22  1  0
 21 20  1  0
 22 27  2  0
 23 24  2  0
 23 22  1  0
 24 25  1  0
 25 26  2  0
 27 19  1  0
 27 26  1  0
 28 29  2  0
 28 30  1  0
M  END
$$$$
