CQW.pdb
     RDKit          3D

 30 31  0  0  1  0  0  0  0  0999 V2000
   16.9186  -14.1177  -16.7522 N   0  0  0  0  0  0  0  0  0  0  0  0
   16.8614  -13.0954  -15.7388 C   0  0  1  0  0  0  0  0  0  0  0  0
   17.5397  -13.5692  -14.4713 C   0  0  0  0  0  0  0  0  0  0  0  0
   19.2427  -14.1205  -14.8012 S   0  0  0  0  0  0  0  0  0  0  0  0
   17.4543  -11.8084  -16.1585 C   0  0  0  0  0  0  0  0  0  0  0  0
   18.2350  -11.7077  -17.1328 O   0  0  0  0  0  0  0  0  0  0  0  0
   17.4769   -5.7282  -17.9620 N   0  0  0  0  0  0  0  0  0  0  0  0
   16.6656   -6.4803  -17.1039 C   0  0  0  0  0  0  0  0  0  0  0  0
   15.5223   -6.8720  -17.4299 O   0  0  0  0  0  0  0  0  0  0  0  0
   17.1507   -6.8471  -15.7351 C   0  0  0  0  0  0  0  0  0  0  0  0
   16.7698   -8.2490  -15.3745 C   0  0  0  0  0  0  0  0  0  0  0  0
   17.6886   -9.3020  -15.8646 C   0  0  2  0  0  0  0  0  0  0  0  0
   17.1450  -10.6215  -15.4469 N   0  0  0  0  0  0  0  0  0  0  0  0
   19.0890   -9.2616  -15.3803 C   0  0  0  0  0  0  0  0  0  0  0  0
   19.2747   -9.7625  -14.2438 O   0  0  0  0  0  0  0  0  0  0  0  0
   20.1641   -8.7303  -16.0609 N   0  0  0  0  0  0  0  0  0  0  0  0
   21.5261   -8.4878  -15.7288 C   0  0  1  0  0  0  0  0  0  0  0  0
   22.3659   -9.3109  -16.6795 C   0  0  0  0  0  0  0  0  0  0  0  0
   23.8188   -9.2548  -16.4325 C   0  0  0  0  0  0  0  0  0  0  0  0
   24.6534   -8.1770  -16.6134 C   0  0  0  0  0  0  0  0  0  0  0  0
   25.9036   -8.5271  -16.2726 N   0  0  0  0  0  0  0  0  0  0  0  0
   25.9002   -9.8047  -15.8761 C   0  0  0  0  0  0  0  0  0  0  0  0
   26.9529  -10.6090  -15.4354 C   0  0  0  0  0  0  0  0  0  0  0  0
   26.7059  -11.9139  -15.0783 C   0  0  0  0  0  0  0  0  0  0  0  0
   25.3970  -12.4213  -15.1619 C   0  0  0  0  0  0  0  0  0  0  0  0
   24.4020  -11.5848  -15.6032 C   0  0  0  0  0  0  0  0  0  0  0  0
   24.6188  -10.2742  -15.9677 C   0  0  0  0  0  0  0  0  0  0  0  0
   22.0158   -7.1356  -15.5512 C   0  0  0  0  0  0  0  0  0  0  0  0
   21.8329   -6.1264  -16.2530 O   0  0  0  0  0  0  0  0  0  0  0  0
   22.8342   -6.8644  -14.4126 O   0  0  0  0  0  0  0  0  0  0  0  0
  2  1  1  6
  2  5  1  0
  3  2  1  0
  4  3  1  0
  5  6  2  0
  8  7  1  0
  8  9  2  0
 10 11  1  0
 10  8  1  0
 12 11  1  1
 12 14  1  0
 13  5  1  0
 13 12  1  0
 14 15  2  0
 16 17  1  0
 16 14  1  0
 17 28  1  0
 17 18  1  6
 19 18  1  0
 20 19  2  0
 21 22  1  0
 21 20  1  0
 22 27  2  0
 23 24  2  0
 23 22  1  0
 24 25  1  0
 25 26  2  0
 27 19  1  0
 27 26  1  0
 28 29  2  0
 28 30  1  0
M  END
$$$$
