CQW.pdb
     RDKit          3D

 30 31  0  0  1  0  0  0  0  0999 V2000
   27.8130  -17.9539  -15.0555 N   0  0  0  0  0  0  0  0  0  0  0  0
   27.9100  -19.2755  -14.4904 C   0  0  1  0  0  0  0  0  0  0  0  0
   28.7860  -19.2595  -13.2561 C   0  0  0  0  0  0  0  0  0  0  0  0
   30.3748  -18.4348  -13.5856 S   0  0  0  0  0  0  0  0  0  0  0  0
   26.6021  -19.8756  -14.1537 C   0  0  0  0  0  0  0  0  0  0  0  0
   25.5615  -19.1940  -14.0069 O   0  0  0  0  0  0  0  0  0  0  0  0
   25.5847  -25.8453  -15.5428 N   0  0  0  0  0  0  0  0  0  0  0  0
   24.3397  -25.5304  -14.9851 C   0  0  0  0  0  0  0  0  0  0  0  0
   23.4078  -26.3625  -14.9056 O   0  0  0  0  0  0  0  0  0  0  0  0
   24.0764  -24.1545  -14.4549 C   0  0  0  0  0  0  0  0  0  0  0  0
   25.3016  -23.2972  -14.5189 C   0  0  0  0  0  0  0  0  0  0  0  0
   25.1653  -21.9501  -13.9191 C   0  0  2  0  0  0  0  0  0  0  0  0
   26.4905  -21.2789  -13.9829 N   0  0  0  0  0  0  0  0  0  0  0  0
   24.7344  -21.8771  -12.5026 C   0  0  0  0  0  0  0  0  0  0  0  0
   23.5440  -22.2157  -12.2895 O   0  0  0  0  0  0  0  0  0  0  0  0
   25.5164  -21.4761  -11.4401 N   0  0  0  0  0  0  0  0  0  0  0  0
   25.2811  -21.2952  -10.0486 C   0  0  1  0  0  0  0  0  0  0  0  0
   26.6198  -21.0052   -9.4083 C   0  0  0  0  0  0  0  0  0  0  0  0
   26.5624  -20.6709   -7.9730 C   0  0  0  0  0  0  0  0  0  0  0  0
   25.4740  -20.7675   -7.1382 C   0  0  0  0  0  0  0  0  0  0  0  0
   25.8295  -20.3739   -5.9051 N   0  0  0  0  0  0  0  0  0  0  0  0
   27.1205  -20.0241   -5.9201 C   0  0  0  0  0  0  0  0  0  0  0  0
   27.9323  -19.5492   -4.8882 C   0  0  0  0  0  0  0  0  0  0  0  0
   29.2493  -19.2478   -5.1453 C   0  0  0  0  0  0  0  0  0  0  0  0
   29.7610  -19.4212   -6.4436 C   0  0  0  0  0  0  0  0  0  0  0  0
   28.9162  -19.8901   -7.4187 C   0  0  0  0  0  0  0  0  0  0  0  0
   27.5934  -20.2002   -7.1914 C   0  0  0  0  0  0  0  0  0  0  0  0
   24.2199  -20.4247   -9.5838 C   0  0  0  0  0  0  0  0  0  0  0  0
   23.8892  -19.2945   -9.9806 O   0  0  0  0  0  0  0  0  0  0  0  0
   23.3966  -20.8867   -8.5121 O   0  0  0  0  0  0  0  0  0  0  0  0
  2  1  1  1
  2  5  1  0
  3  2  1  0
  4  3  1  0
  5  6  2  0
  8  7  1  0
  8  9  2  0
 10 11  1  0
 10  8  1  0
 12 11  1  1
 12 14  1  0
 13  5  1  0
 13 12  1  0
 14 15  2  0
 16 17  1  0
 16 14  1  0
 17 28  1  0
 17 18  1  1
 19 18  1  0
 20 19  2  0
 21 22  1  0
 21 20  1  0
 22 27  2  0
 23 24  2  0
 23 22  1  0
 24 25  1  0
 25 26  2  0
 27 19  1  0
 27 26  1  0
 28 29  2  0
 28 30  1  0
M  END
$$$$
