CQW.pdb
     RDKit          3D

 30 31  0  0  1  0  0  0  0  0999 V2000
   31.5502  -23.9460  -17.9654 N   0  0  0  0  0  0  0  0  0  0  0  0
   30.5599  -24.1919  -16.9486 C   0  0  1  0  0  0  0  0  0  0  0  0
   31.2267  -24.5180  -15.6294 C   0  0  0  0  0  0  0  0  0  0  0  0
   32.8600  -25.2790  -15.8864 S   0  0  0  0  0  0  0  0  0  0  0  0
   29.6156  -23.0717  -16.7550 C   0  0  0  0  0  0  0  0  0  0  0  0
   29.8853  -21.8936  -17.0841 O   0  0  0  0  0  0  0  0  0  0  0  0
   23.9042  -23.4196  -17.3615 N   0  0  0  0  0  0  0  0  0  0  0  0
   23.9404  -22.0339  -17.1648 C   0  0  0  0  0  0  0  0  0  0  0  0
   22.9029  -21.3406  -17.0660 O   0  0  0  0  0  0  0  0  0  0  0  0
   25.2533  -21.3196  -17.0658 C   0  0  0  0  0  0  0  0  0  0  0  0
   26.4046  -22.2730  -17.1419 C   0  0  0  0  0  0  0  0  0  0  0  0
   27.3509  -22.2170  -16.0041 C   0  0  2  0  0  0  0  0  0  0  0  0
   28.3442  -23.3104  -16.1741 N   0  0  0  0  0  0  0  0  0  0  0  0
   26.7875  -22.3805  -14.6427 C   0  0  0  0  0  0  0  0  0  0  0  0
   27.1868  -23.3946  -14.0189 O   0  0  0  0  0  0  0  0  0  0  0  0
   25.8869  -21.5322  -14.0340 N   0  0  0  0  0  0  0  0  0  0  0  0
   25.5471  -21.2522  -12.6811 C   0  0  1  0  0  0  0  0  0  0  0  0
   26.8455  -21.1268  -11.9164 C   0  0  0  0  0  0  0  0  0  0  0  0
   26.6967  -20.7577  -10.4963 C   0  0  0  0  0  0  0  0  0  0  0  0
   25.5476  -20.3574   -9.8557 C   0  0  0  0  0  0  0  0  0  0  0  0
   25.8252  -20.1164   -8.5647 N   0  0  0  0  0  0  0  0  0  0  0  0
   27.1252  -20.3496   -8.3529 C   0  0  0  0  0  0  0  0  0  0  0  0
   27.8771  -20.2350   -7.1820 C   0  0  0  0  0  0  0  0  0  0  0  0
   29.2200  -20.5302   -7.2067 C   0  0  0  0  0  0  0  0  0  0  0  0
   29.8186  -20.9430   -8.4104 C   0  0  0  0  0  0  0  0  0  0  0  0
   29.0304  -21.0365   -9.5304 C   0  0  0  0  0  0  0  0  0  0  0  0
   27.6836  -20.7475   -9.5364 C   0  0  0  0  0  0  0  0  0  0  0  0
   24.5861  -20.2170  -12.3577 C   0  0  0  0  0  0  0  0  0  0  0  0
   24.1951  -19.2553  -13.0409 O   0  0  0  0  0  0  0  0  0  0  0  0
   23.9607  -20.2617  -11.0745 O   0  0  0  0  0  0  0  0  0  0  0  0
  2  1  1  6
  2  5  1  0
  3  2  1  0
  4  3  1  0
  5  6  2  0
  8  7  1  0
  8  9  2  0
 10 11  1  0
 10  8  1  0
 12 11  1  6
 12 14  1  0
 13  5  1  0
 13 12  1  0
 14 15  2  0
 16 17  1  0
 16 14  1  0
 17 28  1  0
 17 18  1  1
 19 18  1  0
 20 19  2  0
 21 22  1  0
 21 20  1  0
 22 27  2  0
 23 24  2  0
 23 22  1  0
 24 25  1  0
 25 26  2  0
 27 19  1  0
 27 26  1  0
 28 29  2  0
 28 30  1  0
M  END
$$$$
