CQW.pdb
     RDKit          3D

 30 31  0  0  1  0  0  0  0  0999 V2000
   19.7400  -21.0941  -12.2972 N   0  0  0  0  0  0  0  0  0  0  0  0
   20.8678  -20.2969  -11.8876 C   0  0  1  0  0  0  0  0  0  0  0  0
   20.6973  -19.8364  -10.4558 C   0  0  0  0  0  0  0  0  0  0  0  0
   19.4007  -18.5662  -10.3215 S   0  0  0  0  0  0  0  0  0  0  0  0
   22.1665  -20.9881  -12.0272 C   0  0  0  0  0  0  0  0  0  0  0  0
   22.3191  -22.2033  -11.7642 O   0  0  0  0  0  0  0  0  0  0  0  0
   25.0273  -23.3898  -14.8111 N   0  0  0  0  0  0  0  0  0  0  0  0
   26.2850  -22.7762  -14.7683 C   0  0  0  0  0  0  0  0  0  0  0  0
   27.3397  -23.3814  -15.0655 O   0  0  0  0  0  0  0  0  0  0  0  0
   26.4117  -21.3424  -14.3539 C   0  0  0  0  0  0  0  0  0  0  0  0
   25.0790  -20.7457  -14.0250 C   0  0  0  0  0  0  0  0  0  0  0  0
   24.6284  -20.9321  -12.6266 C   0  0  2  0  0  0  0  0  0  0  0  0
   23.3051  -20.2712  -12.4749 N   0  0  0  0  0  0  0  0  0  0  0  0
   25.4903  -20.3787  -11.5551 C   0  0  0  0  0  0  0  0  0  0  0  0
   24.9278  -19.5578  -10.7891 O   0  0  0  0  0  0  0  0  0  0  0  0
   26.8183  -20.6861  -11.3471 N   0  0  0  0  0  0  0  0  0  0  0  0
   27.6979  -20.5803  -10.2338 C   0  0  1  0  0  0  0  0  0  0  0  0
   26.9053  -20.9689   -9.0061 C   0  0  0  0  0  0  0  0  0  0  0  0
   26.9670  -20.0010   -7.8950 C   0  0  0  0  0  0  0  0  0  0  0  0
   26.3757  -18.7608   -7.8370 C   0  0  0  0  0  0  0  0  0  0  0  0
   26.6644  -18.1911   -6.6564 N   0  0  0  0  0  0  0  0  0  0  0  0
   27.4283  -19.0305   -5.9484 C   0  0  0  0  0  0  0  0  0  0  0  0
   27.9789  -18.8825   -4.6739 C   0  0  0  0  0  0  0  0  0  0  0  0
   28.7453  -19.8943   -4.1446 C   0  0  0  0  0  0  0  0  0  0  0  0
   28.9648  -21.0641   -4.8934 C   0  0  0  0  0  0  0  0  0  0  0  0
   28.3995  -21.1536   -6.1411 C   0  0  0  0  0  0  0  0  0  0  0  0
   27.6278  -20.1574   -6.6975 C   0  0  0  0  0  0  0  0  0  0  0  0
   29.0205  -21.1709  -10.2760 C   0  0  0  0  0  0  0  0  0  0  0  0
   29.9108  -21.1870   -9.4091 O   0  0  0  0  0  0  0  0  0  0  0  0
   29.4111  -21.8527  -11.4687 O   0  0  0  0  0  0  0  0  0  0  0  0
  2  1  1  1
  2  5  1  0
  3  2  1  0
  4  3  1  0
  5  6  2  0
  8  7  1  0
  8  9  2  0
 10 11  1  0
 10  8  1  0
 12 11  1  6
 12 14  1  0
 13  5  1  0
 13 12  1  0
 14 15  2  0
 16 17  1  0
 16 14  1  0
 17 28  1  0
 17 18  1  1
 19 18  1  0
 20 19  2  0
 21 22  1  0
 21 20  1  0
 22 27  2  0
 23 24  2  0
 23 22  1  0
 24 25  1  0
 25 26  2  0
 27 19  1  0
 27 26  1  0
 28 29  2  0
 28 30  1  0
M  END
$$$$
