CQW.pdb
     RDKit          3D

 30 31  0  0  1  0  0  0  0  0999 V2000
   25.8408  -19.4595  -17.7935 N   0  0  0  0  0  0  0  0  0  0  0  0
   26.4602  -20.0644  -16.6422 C   0  0  1  0  0  0  0  0  0  0  0  0
   27.9467  -19.7791  -16.6308 C   0  0  0  0  0  0  0  0  0  0  0  0
   28.8216  -20.7897  -17.8663 S   0  0  0  0  0  0  0  0  0  0  0  0
   25.8708  -19.6364  -15.3563 C   0  0  0  0  0  0  0  0  0  0  0  0
   25.8128  -18.4359  -15.0036 O   0  0  0  0  0  0  0  0  0  0  0  0
   21.6611  -21.8816  -10.5039 N   0  0  0  0  0  0  0  0  0  0  0  0
   21.4475  -21.2536  -11.7369 C   0  0  0  0  0  0  0  0  0  0  0  0
   20.5131  -21.5774  -12.5043 O   0  0  0  0  0  0  0  0  0  0  0  0
   22.3531  -20.1493  -12.1884 C   0  0  0  0  0  0  0  0  0  0  0  0
   23.2264  -20.5844  -13.3235 C   0  0  0  0  0  0  0  0  0  0  0  0
   24.6533  -20.2052  -13.2075 C   0  0  2  0  0  0  0  0  0  0  0  0
   25.3415  -20.6031  -14.4641 N   0  0  0  0  0  0  0  0  0  0  0  0
   25.4307  -20.8138  -12.1017 C   0  0  0  0  0  0  0  0  0  0  0  0
   25.8650  -21.9700  -12.3288 O   0  0  0  0  0  0  0  0  0  0  0  0
   25.6998  -20.2252  -10.8841 N   0  0  0  0  0  0  0  0  0  0  0  0
   26.2646  -20.6873   -9.6628 C   0  0  1  0  0  0  0  0  0  0  0  0
   27.6300  -20.0497   -9.5383 C   0  0  0  0  0  0  0  0  0  0  0  0
   28.4283  -20.5111   -8.3872 C   0  0  0  0  0  0  0  0  0  0  0  0
   29.3213  -21.5565   -8.3583 C   0  0  0  0  0  0  0  0  0  0  0  0
   29.8462  -21.6522   -7.1266 N   0  0  0  0  0  0  0  0  0  0  0  0
   29.3153  -20.6958   -6.3567 C   0  0  0  0  0  0  0  0  0  0  0  0
   29.5433  -20.3988   -5.0116 C   0  0  0  0  0  0  0  0  0  0  0  0
   28.8689  -19.3543   -4.4239 C   0  0  0  0  0  0  0  0  0  0  0  0
   27.9585  -18.5993   -5.1847 C   0  0  0  0  0  0  0  0  0  0  0  0
   27.7739  -18.9378   -6.5022 C   0  0  0  0  0  0  0  0  0  0  0  0
   28.4345  -19.9780   -7.1179 C   0  0  0  0  0  0  0  0  0  0  0  0
   25.4989  -20.6532   -8.4329 C   0  0  0  0  0  0  0  0  0  0  0  0
   24.6989  -19.7969   -8.0194 O   0  0  0  0  0  0  0  0  0  0  0  0
   25.6447  -21.7447   -7.5234 O   0  0  0  0  0  0  0  0  0  0  0  0
  2  1  1  6
  2  5  1  0
  3  2  1  0
  4  3  1  0
  5  6  2  0
  8  7  1  0
  8  9  2  0
 10 11  1  0
 10  8  1  0
 12 11  1  6
 12 14  1  0
 13  5  1  0
 13 12  1  0
 14 15  2  0
 16 17  1  0
 16 14  1  0
 17 28  1  0
 17 18  1  1
 19 18  1  0
 20 19  2  0
 21 22  1  0
 21 20  1  0
 22 27  2  0
 23 24  2  0
 23 22  1  0
 24 25  1  0
 25 26  2  0
 27 19  1  0
 27 26  1  0
 28 29  2  0
 28 30  1  0
M  END
$$$$
