CQW.pdb
     RDKit          3D

 30 31  0  0  1  0  0  0  0  0999 V2000
   28.3261  -18.3865  -18.1911 N   0  0  0  0  0  0  0  0  0  0  0  0
   28.6604  -18.9717  -16.9179 C   0  0  1  0  0  0  0  0  0  0  0  0
   30.0368  -18.5237  -16.4754 C   0  0  0  0  0  0  0  0  0  0  0  0
   30.0964  -16.7211  -16.2299 S   0  0  0  0  0  0  0  0  0  0  0  0
   27.6826  -18.6725  -15.8509 C   0  0  0  0  0  0  0  0  0  0  0  0
   27.2044  -17.5288  -15.6714 O   0  0  0  0  0  0  0  0  0  0  0  0
   22.4250  -20.4264  -15.4548 N   0  0  0  0  0  0  0  0  0  0  0  0
   22.4497  -19.8543  -14.1772 C   0  0  0  0  0  0  0  0  0  0  0  0
   21.4138  -19.6857  -13.4950 O   0  0  0  0  0  0  0  0  0  0  0  0
   23.7472  -19.4136  -13.5725 C   0  0  0  0  0  0  0  0  0  0  0  0
   24.8946  -19.6436  -14.5058 C   0  0  0  0  0  0  0  0  0  0  0  0
   26.2397  -19.4488  -13.9175 C   0  0  2  0  0  0  0  0  0  0  0  0
   27.2500  -19.7031  -14.9784 N   0  0  0  0  0  0  0  0  0  0  0  0
   26.6143  -20.3165  -12.7755 C   0  0  0  0  0  0  0  0  0  0  0  0
   27.1145  -21.4247  -13.0897 O   0  0  0  0  0  0  0  0  0  0  0  0
   26.4568  -20.0080  -11.4408 N   0  0  0  0  0  0  0  0  0  0  0  0
   26.4728  -20.7689  -10.2387 C   0  0  1  0  0  0  0  0  0  0  0  0
   27.4729  -20.1126   -9.3139 C   0  0  0  0  0  0  0  0  0  0  0  0
   27.1269  -20.1729   -7.8815 C   0  0  0  0  0  0  0  0  0  0  0  0
   25.8898  -20.4173   -7.3330 C   0  0  0  0  0  0  0  0  0  0  0  0
   25.9899  -20.3939   -5.9947 N   0  0  0  0  0  0  0  0  0  0  0  0
   27.2604  -20.1398   -5.6622 C   0  0  0  0  0  0  0  0  0  0  0  0
   27.8492  -20.0147   -4.4024 C   0  0  0  0  0  0  0  0  0  0  0  0
   29.1941  -19.7439   -4.3062 C   0  0  0  0  0  0  0  0  0  0  0  0
   29.9586  -19.5961   -5.4772 C   0  0  0  0  0  0  0  0  0  0  0  0
   29.3259  -19.7285   -6.6883 C   0  0  0  0  0  0  0  0  0  0  0  0
   27.9813  -19.9993   -6.8160 C   0  0  0  0  0  0  0  0  0  0  0  0
   25.2364  -21.1394   -9.5801 C   0  0  0  0  0  0  0  0  0  0  0  0
   25.0134  -22.0500   -8.7644 O   0  0  0  0  0  0  0  0  0  0  0  0
   24.0666  -20.3741   -9.8732 O   0  0  0  0  0  0  0  0  0  0  0  0
  2  1  1  6
  2  5  1  0
  3  2  1  0
  4  3  1  0
  5  6  2  0
  8  7  1  0
  8  9  2  0
 10 11  1  0
 10  8  1  0
 12 11  1  6
 12 14  1  0
 13  5  1  0
 13 12  1  0
 14 15  2  0
 16 17  1  0
 16 14  1  0
 17 28  1  0
 17 18  1  1
 19 18  1  0
 20 19  2  0
 21 22  1  0
 21 20  1  0
 22 27  2  0
 23 24  2  0
 23 22  1  0
 24 25  1  0
 25 26  2  0
 27 19  1  0
 27 26  1  0
 28 29  2  0
 28 30  1  0
M  END
$$$$
