CQW.pdb
     RDKit          3D

 30 31  0  0  1  0  0  0  0  0999 V2000
   31.1920  -28.1888  -21.9812 N   0  0  0  0  0  0  0  0  0  0  0  0
   29.9011  -27.7137  -21.5533 C   0  0  1  0  0  0  0  0  0  0  0  0
   29.0584  -27.3243  -22.7489 C   0  0  0  0  0  0  0  0  0  0  0  0
   27.3866  -26.8155  -22.2399 S   0  0  0  0  0  0  0  0  0  0  0  0
   29.1551  -28.6838  -20.7249 C   0  0  0  0  0  0  0  0  0  0  0  0
   28.7192  -29.7674  -21.1776 O   0  0  0  0  0  0  0  0  0  0  0  0
   28.6464  -32.8214  -15.2912 N   0  0  0  0  0  0  0  0  0  0  0  0
   29.1468  -31.8376  -16.1526 C   0  0  0  0  0  0  0  0  0  0  0  0
   30.1527  -32.0231  -16.8742 O   0  0  0  0  0  0  0  0  0  0  0  0
   28.4796  -30.4993  -16.2386 C   0  0  0  0  0  0  0  0  0  0  0  0
   29.0870  -29.6505  -17.3114 C   0  0  0  0  0  0  0  0  0  0  0  0
   28.2144  -29.3811  -18.4773 C   0  0  2  0  0  0  0  0  0  0  0  0
   28.9069  -28.4030  -19.3573 N   0  0  0  0  0  0  0  0  0  0  0  0
   26.8727  -28.8126  -18.2053 C   0  0  0  0  0  0  0  0  0  0  0  0
   26.8692  -27.6220  -17.8062 O   0  0  0  0  0  0  0  0  0  0  0  0
   25.6710  -29.4730  -18.3506 N   0  0  0  0  0  0  0  0  0  0  0  0
   24.3275  -29.1787  -17.9861 C   0  0  1  0  0  0  0  0  0  0  0  0
   23.4895  -30.3713  -18.3882 C   0  0  0  0  0  0  0  0  0  0  0  0
   22.0348  -30.1917  -18.2244 C   0  0  0  0  0  0  0  0  0  0  0  0
   21.2296  -29.2838  -18.8713 C   0  0  0  0  0  0  0  0  0  0  0  0
   19.9646  -29.4402  -18.4506 N   0  0  0  0  0  0  0  0  0  0  0  0
   19.9300  -30.4258  -17.5469 C   0  0  0  0  0  0  0  0  0  0  0  0
   18.8511  -30.9467  -16.8298 C   0  0  0  0  0  0  0  0  0  0  0  0
   19.0610  -31.9734  -15.9393 C   0  0  0  0  0  0  0  0  0  0  0  0
   20.3588  -32.4851  -15.7621 C   0  0  0  0  0  0  0  0  0  0  0  0
   21.3811  -31.9331  -16.4933 C   0  0  0  0  0  0  0  0  0  0  0  0
   21.2017  -30.9047  -17.3920 C   0  0  0  0  0  0  0  0  0  0  0  0
   24.0123  -28.6724  -16.6655 C   0  0  0  0  0  0  0  0  0  0  0  0
   24.3359  -29.1114  -15.5489 O   0  0  0  0  0  0  0  0  0  0  0  0
   23.2151  -27.4908  -16.5746 O   0  0  0  0  0  0  0  0  0  0  0  0
  2  1  1  6
  2  5  1  0
  3  2  1  0
  4  3  1  0
  5  6  2  0
  8  7  1  0
  8  9  2  0
 10 11  1  0
 10  8  1  0
 12 11  1  1
 12 14  1  0
 13  5  1  0
 13 12  1  0
 14 15  2  0
 16 17  1  0
 16 14  1  0
 17 28  1  0
 17 18  1  1
 19 18  1  0
 20 19  2  0
 21 22  1  0
 21 20  1  0
 22 27  2  0
 23 24  2  0
 23 22  1  0
 24 25  1  0
 25 26  2  0
 27 19  1  0
 27 26  1  0
 28 29  2  0
 28 30  1  0
M  END
$$$$
