CQW.pdb
     RDKit          3D

 30 31  0  0  1  0  0  0  0  0999 V2000
   28.0605  -23.6422  -17.6512 N   0  0  0  0  0  0  0  0  0  0  0  0
   27.0525  -23.5083  -16.6308 C   0  0  1  0  0  0  0  0  0  0  0  0
   26.8316  -24.8314  -15.9294 C   0  0  0  0  0  0  0  0  0  0  0  0
   25.8216  -25.9552  -16.9442 S   0  0  0  0  0  0  0  0  0  0  0  0
   27.3576  -22.4679  -15.6266 C   0  0  0  0  0  0  0  0  0  0  0  0
   28.5281  -22.1308  -15.3343 O   0  0  0  0  0  0  0  0  0  0  0  0
   28.0508  -17.8257  -13.7690 N   0  0  0  0  0  0  0  0  0  0  0  0
   27.9268  -18.0132  -15.1509 C   0  0  0  0  0  0  0  0  0  0  0  0
   28.7375  -17.5271  -15.9716 O   0  0  0  0  0  0  0  0  0  0  0  0
   26.7921  -18.8190  -15.7045 C   0  0  0  0  0  0  0  0  0  0  0  0
   25.9824  -19.4489  -14.6146 C   0  0  0  0  0  0  0  0  0  0  0  0
   26.5630  -20.6753  -14.0210 C   0  0  2  0  0  0  0  0  0  0  0  0
   26.3016  -21.8071  -14.9492 N   0  0  0  0  0  0  0  0  0  0  0  0
   26.0469  -21.1001  -12.6979 C   0  0  0  0  0  0  0  0  0  0  0  0
   24.8513  -21.4844  -12.6904 O   0  0  0  0  0  0  0  0  0  0  0  0
   26.7573  -21.1014  -11.5161 N   0  0  0  0  0  0  0  0  0  0  0  0
   26.4127  -21.3149  -10.1523 C   0  0  1  0  0  0  0  0  0  0  0  0
   27.6912  -21.2092   -9.3519 C   0  0  0  0  0  0  0  0  0  0  0  0
   27.5952  -20.3824   -8.1344 C   0  0  0  0  0  0  0  0  0  0  0  0
   26.6819  -19.3882   -7.8726 C   0  0  0  0  0  0  0  0  0  0  0  0
   26.9243  -18.8783   -6.6549 N   0  0  0  0  0  0  0  0  0  0  0  0
   27.9720  -19.5164   -6.1215 C   0  0  0  0  0  0  0  0  0  0  0  0
   28.5956  -19.3375   -4.8851 C   0  0  0  0  0  0  0  0  0  0  0  0
   29.6753  -20.1208   -4.5505 C   0  0  0  0  0  0  0  0  0  0  0  0
   30.1375  -21.0910   -5.4575 C   0  0  0  0  0  0  0  0  0  0  0  0
   29.4860  -21.2214   -6.6587 C   0  0  0  0  0  0  0  0  0  0  0  0
   28.4027  -20.4517   -7.0216 C   0  0  0  0  0  0  0  0  0  0  0  0
   25.2974  -20.6116   -9.5513 C   0  0  0  0  0  0  0  0  0  0  0  0
   24.8913  -19.4533   -9.7461 O   0  0  0  0  0  0  0  0  0  0  0  0
   24.5094  -21.3082   -8.5851 O   0  0  0  0  0  0  0  0  0  0  0  0
  2  1  1  6
  2  5  1  0
  3  2  1  0
  4  3  1  0
  5  6  2  0
  8  7  1  0
  8  9  2  0
 10 11  1  0
 10  8  1  0
 12 11  1  6
 12 14  1  0
 13  5  1  0
 13 12  1  0
 14 15  2  0
 16 17  1  0
 16 14  1  0
 17 28  1  0
 17 18  1  1
 19 18  1  0
 20 19  2  0
 21 22  1  0
 21 20  1  0
 22 27  2  0
 23 24  2  0
 23 22  1  0
 24 25  1  0
 25 26  2  0
 27 19  1  0
 27 26  1  0
 28 29  2  0
 28 30  1  0
M  END
$$$$
