CQW.pdb
     RDKit          3D

 30 31  0  0  1  0  0  0  0  0999 V2000
   28.0029  -19.0063  -21.3623 N   0  0  0  0  0  0  0  0  0  0  0  0
   26.7052  -19.6238  -21.2630 C   0  0  1  0  0  0  0  0  0  0  0  0
   26.8427  -21.0880  -20.9047 C   0  0  0  0  0  0  0  0  0  0  0  0
   27.5610  -21.2962  -19.2453 S   0  0  0  0  0  0  0  0  0  0  0  0
   25.8061  -18.9656  -20.2922 C   0  0  0  0  0  0  0  0  0  0  0  0
   26.2189  -18.1668  -19.4201 O   0  0  0  0  0  0  0  0  0  0  0  0
   23.3569  -15.4255  -18.7990 N   0  0  0  0  0  0  0  0  0  0  0  0
   22.0177  -15.8118  -18.6675 C   0  0  0  0  0  0  0  0  0  0  0  0
   21.2103  -15.2017  -17.9307 O   0  0  0  0  0  0  0  0  0  0  0  0
   21.4964  -16.9967  -19.4210 C   0  0  0  0  0  0  0  0  0  0  0  0
   22.5830  -17.6795  -20.1912 C   0  0  0  0  0  0  0  0  0  0  0  0
   23.4725  -18.5545  -19.3934 C   0  0  2  0  0  0  0  0  0  0  0  0
   24.4135  -19.2307  -20.3251 N   0  0  0  0  0  0  0  0  0  0  0  0
   22.8334  -19.6314  -18.6000 C   0  0  0  0  0  0  0  0  0  0  0  0
   22.5518  -20.6722  -19.2438 O   0  0  0  0  0  0  0  0  0  0  0  0
   22.5336  -19.5747  -17.2553 N   0  0  0  0  0  0  0  0  0  0  0  0
   21.8876  -20.4575  -16.3455 C   0  0  1  0  0  0  0  0  0  0  0  0
   22.3339  -20.0635  -14.9556 C   0  0  0  0  0  0  0  0  0  0  0  0
   21.4414  -19.1161  -14.2620 C   0  0  0  0  0  0  0  0  0  0  0  0
   20.3920  -19.4196  -13.4268 C   0  0  0  0  0  0  0  0  0  0  0  0
   19.8319  -18.2797  -12.9927 N   0  0  0  0  0  0  0  0  0  0  0  0
   20.4915  -17.2453  -13.5260 C   0  0  0  0  0  0  0  0  0  0  0  0
   20.2792  -15.8736  -13.3758 C   0  0  0  0  0  0  0  0  0  0  0  0
   21.0954  -14.9847  -14.0353 C   0  0  0  0  0  0  0  0  0  0  0  0
   22.1326  -15.4685  -14.8524 C   0  0  0  0  0  0  0  0  0  0  0  0
   22.2934  -16.8273  -14.9635 C   0  0  0  0  0  0  0  0  0  0  0  0
   21.4920  -17.7414  -14.3156 C   0  0  0  0  0  0  0  0  0  0  0  0
   20.4641  -20.7103  -16.4432 C   0  0  0  0  0  0  0  0  0  0  0  0
   19.5708  -20.0268  -16.9715 O   0  0  0  0  0  0  0  0  0  0  0  0
   19.9570  -21.9138  -15.8650 O   0  0  0  0  0  0  0  0  0  0  0  0
  2  1  1  1
  2  5  1  0
  3  2  1  0
  4  3  1  0
  5  6  2  0
  8  7  1  0
  8  9  2  0
 10 11  1  0
 10  8  1  0
 12 11  1  6
 12 14  1  0
 13  5  1  0
 13 12  1  0
 14 15  2  0
 16 17  1  0
 16 14  1  0
 17 28  1  0
 17 18  1  1
 19 18  1  0
 20 19  2  0
 21 22  1  0
 21 20  1  0
 22 27  2  0
 23 24  2  0
 23 22  1  0
 24 25  1  0
 25 26  2  0
 27 19  1  0
 27 26  1  0
 28 29  2  0
 28 30  1  0
M  END
$$$$
