CQW.pdb
     RDKit          3D

 30 31  0  0  1  0  0  0  0  0999 V2000
   37.1272  -26.6627    5.0902 N   0  0  0  0  0  0  0  0  0  0  0  0
   36.8714  -25.2604    5.2988 C   0  0  1  0  0  0  0  0  0  0  0  0
   35.7288  -24.7955    4.4217 C   0  0  0  0  0  0  0  0  0  0  0  0
   34.3883  -26.0259    4.3776 S   0  0  0  0  0  0  0  0  0  0  0  0
   36.5809  -24.9119    6.7053 C   0  0  0  0  0  0  0  0  0  0  0  0
   36.0525  -25.7159    7.5074 O   0  0  0  0  0  0  0  0  0  0  0  0
   39.7417  -23.6865   10.8594 N   0  0  0  0  0  0  0  0  0  0  0  0
   38.8081  -22.8213   11.4424 C   0  0  0  0  0  0  0  0  0  0  0  0
   38.8330  -22.5245   12.6583 O   0  0  0  0  0  0  0  0  0  0  0  0
   37.7229  -22.2102   10.6104 C   0  0  0  0  0  0  0  0  0  0  0  0
   37.8293  -22.6265    9.1766 C   0  0  0  0  0  0  0  0  0  0  0  0
   36.6053  -23.2262    8.5976 C   0  0  2  0  0  0  0  0  0  0  0  0
   36.9021  -23.6205    7.1950 N   0  0  0  0  0  0  0  0  0  0  0  0
   35.3935  -22.3745    8.5384 C   0  0  0  0  0  0  0  0  0  0  0  0
   35.1110  -21.9279    7.3992 O   0  0  0  0  0  0  0  0  0  0  0  0
   34.5841  -22.0460    9.6054 N   0  0  0  0  0  0  0  0  0  0  0  0
   33.4599  -21.1897    9.7702 C   0  0  1  0  0  0  0  0  0  0  0  0
   32.4904  -21.5142    8.6562 C   0  0  0  0  0  0  0  0  0  0  0  0
   31.2688  -20.6880    8.6357 C   0  0  0  0  0  0  0  0  0  0  0  0
   29.9985  -21.0704    8.9976 C   0  0  0  0  0  0  0  0  0  0  0  0
   29.1651  -20.0298    8.8417 N   0  0  0  0  0  0  0  0  0  0  0  0
   29.8632  -18.9832    8.3873 C   0  0  0  0  0  0  0  0  0  0  0  0
   29.4378  -17.6915    8.0710 C   0  0  0  0  0  0  0  0  0  0  0  0
   30.3498  -16.7707    7.6109 C   0  0  0  0  0  0  0  0  0  0  0  0
   31.6983  -17.1418    7.4645 C   0  0  0  0  0  0  0  0  0  0  0  0
   32.0587  -18.4259    7.7896 C   0  0  0  0  0  0  0  0  0  0  0  0
   31.1683  -19.3695    8.2525 C   0  0  0  0  0  0  0  0  0  0  0  0
   32.8230  -21.0442   11.0637 C   0  0  0  0  0  0  0  0  0  0  0  0
   31.8576  -20.3367   11.3981 O   0  0  0  0  0  0  0  0  0  0  0  0
   33.3400  -21.8084   12.1539 O   0  0  0  0  0  0  0  0  0  0  0  0
  2  1  1  1
  2  5  1  0
  3  2  1  0
  4  3  1  0
  5  6  2  0
  8  7  1  0
  8  9  2  0
 10 11  1  0
 10  8  1  0
 12 11  1  6
 12 14  1  0
 13  5  1  0
 13 12  1  0
 14 15  2  0
 16 17  1  0
 16 14  1  0
 17 28  1  0
 17 18  1  6
 19 18  1  0
 20 19  2  0
 21 22  1  0
 21 20  1  0
 22 27  2  0
 23 24  2  0
 23 22  1  0
 24 25  1  0
 25 26  2  0
 27 19  1  0
 27 26  1  0
 28 29  2  0
 28 30  1  0
M  END
$$$$
