CQW.pdb
     RDKit          3D

 30 31  0  0  1  0  0  0  0  0999 V2000
   27.2521  -17.3416  -17.8924 N   0  0  0  0  0  0  0  0  0  0  0  0
   26.9361  -17.6351  -16.5179 C   0  0  1  0  0  0  0  0  0  0  0  0
   26.4757  -16.3830  -15.8026 C   0  0  0  0  0  0  0  0  0  0  0  0
   27.8503  -15.2127  -15.5708 S   0  0  0  0  0  0  0  0  0  0  0  0
   25.9176  -18.6934  -16.3548 C   0  0  0  0  0  0  0  0  0  0  0  0
   24.8407  -18.7018  -16.9944 O   0  0  0  0  0  0  0  0  0  0  0  0
   26.3582  -23.2496  -12.2685 N   0  0  0  0  0  0  0  0  0  0  0  0
   25.2608  -23.7405  -12.9861 C   0  0  0  0  0  0  0  0  0  0  0  0
   24.5433  -24.6749  -12.5630 O   0  0  0  0  0  0  0  0  0  0  0  0
   24.9032  -23.1504  -14.3155 C   0  0  0  0  0  0  0  0  0  0  0  0
   25.7998  -22.0047  -14.6672 C   0  0  0  0  0  0  0  0  0  0  0  0
   25.1167  -20.8084  -15.2110 C   0  0  2  0  0  0  0  0  0  0  0  0
   26.1413  -19.7561  -15.4430 N   0  0  0  0  0  0  0  0  0  0  0  0
   24.0677  -20.1837  -14.3704 C   0  0  0  0  0  0  0  0  0  0  0  0
   24.4937  -19.4659  -13.4322 O   0  0  0  0  0  0  0  0  0  0  0  0
   22.7066  -20.3303  -14.5356 N   0  0  0  0  0  0  0  0  0  0  0  0
   21.5645  -19.7894  -13.8819 C   0  0  1  0  0  0  0  0  0  0  0  0
   21.7911  -18.2995  -13.7576 C   0  0  0  0  0  0  0  0  0  0  0  0
   21.6077  -17.5371  -15.0067 C   0  0  0  0  0  0  0  0  0  0  0  0
   20.6024  -17.6855  -15.9331 C   0  0  0  0  0  0  0  0  0  0  0  0
   20.7859  -16.8014  -16.9263 N   0  0  0  0  0  0  0  0  0  0  0  0
   21.8851  -16.0845  -16.6671 C   0  0  0  0  0  0  0  0  0  0  0  0
   22.4793  -15.0574  -17.4029 C   0  0  0  0  0  0  0  0  0  0  0  0
   23.6256  -14.4613  -16.9321 C   0  0  0  0  0  0  0  0  0  0  0  0
   24.1847  -14.8938  -15.7164 C   0  0  0  0  0  0  0  0  0  0  0  0
   23.5579  -15.9083  -15.0365 C   0  0  0  0  0  0  0  0  0  0  0  0
   22.4095  -16.5243  -15.4829 C   0  0  0  0  0  0  0  0  0  0  0  0
   20.2272  -20.1337  -14.3211 C   0  0  0  0  0  0  0  0  0  0  0  0
   19.8581  -20.7401  -15.3410 O   0  0  0  0  0  0  0  0  0  0  0  0
   19.1302  -19.7448  -13.4934 O   0  0  0  0  0  0  0  0  0  0  0  0
  2  1  1  6
  2  5  1  0
  3  2  1  0
  4  3  1  0
  5  6  2  0
  8  7  1  0
  8  9  2  0
 10 11  1  0
 10  8  1  0
 12 11  1  1
 12 14  1  0
 13  5  1  0
 13 12  1  0
 14 15  2  0
 16 17  1  0
 16 14  1  0
 17 28  1  0
 17 18  1  6
 19 18  1  0
 20 19  2  0
 21 22  1  0
 21 20  1  0
 22 27  2  0
 23 24  2  0
 23 22  1  0
 24 25  1  0
 25 26  2  0
 27 19  1  0
 27 26  1  0
 28 29  2  0
 28 30  1  0
M  END
$$$$
