NWL.pdb
     RDKit          3D

 31 32  0  0  1  0  0  0  0  0999 V2000
   27.5404  -19.7059  -17.9429 N   0  0  0  0  0  0  0  0  0  0  0  0
   27.8260  -19.4040  -16.5704 C   0  0  0  0  0  0  0  0  0  0  0  0
   28.8161  -18.6921  -16.3256 O   0  0  0  0  0  0  0  0  0  0  0  0
   26.9831  -19.9134  -15.4816 C   0  0  0  0  0  0  0  0  0  0  0  0
   27.7563  -20.8587  -14.6233 C   0  0  2  0  0  0  0  0  0  0  0  0
   28.0597  -22.0737  -15.3131 N   0  0  0  0  0  0  0  0  0  0  0  0
   27.0095  -21.1391  -13.3465 C   0  0  0  0  0  0  0  0  0  0  0  0
   26.0038  -21.8863  -13.3300 O   0  0  0  0  0  0  0  0  0  0  0  0
   27.4469  -20.5514  -12.1455 N   0  0  0  0  0  0  0  0  0  0  0  0
   26.6779  -20.7352  -10.8979 C   0  0  1  0  0  0  0  0  0  0  0  0
   27.5008  -20.3244   -9.7387 C   0  0  0  0  0  0  0  0  0  0  0  0
   26.8848  -20.4325   -8.4199 C   0  0  0  0  0  0  0  0  0  0  0  0
   25.6236  -20.9292   -8.1781 C   0  0  0  0  0  0  0  0  0  0  0  0
   25.3557  -20.8619   -6.8649 N   0  0  0  0  0  0  0  0  0  0  0  0
   26.4272  -20.3252   -6.2278 C   0  0  0  0  0  0  0  0  0  0  0  0
   26.6719  -20.0581   -4.9068 C   0  0  0  0  0  0  0  0  0  0  0  0
   27.8796  -19.5205   -4.5502 C   0  0  0  0  0  0  0  0  0  0  0  0
   28.8433  -19.2463   -5.4878 C   0  0  0  0  0  0  0  0  0  0  0  0
   28.5899  -19.5155   -6.8027 C   0  0  0  0  0  0  0  0  0  0  0  0
   27.3818  -20.0580   -7.2026 C   0  0  0  0  0  0  0  0  0  0  0  0
   25.3414  -20.1275  -11.0372 C   0  0  0  0  0  0  0  0  0  0  0  0
   25.1319  -18.9160  -11.2543 O   0  0  0  0  0  0  0  0  0  0  0  0
   22.4879  -18.9039  -13.8573 C   0  0  0  0  0  0  0  0  0  0  0  0
   23.0951  -20.3080  -13.7467 C   0  0  2  0  0  0  0  0  0  0  0  0
   22.6728  -21.0095  -15.0409 C   0  0  0  0  0  0  0  0  0  0  0  0
   22.4497  -20.9720  -12.5787 C   0  0  0  0  0  0  0  0  0  0  0  0
   22.8281  -20.4219  -11.2363 C   0  0  2  0  0  0  0  0  0  0  0  0
   24.1450  -20.9330  -10.9243 N   0  0  0  0  0  0  0  0  0  0  0  0
   21.8876  -20.8528  -10.1651 C   0  0  0  0  0  0  0  0  0  0  0  0
   20.7327  -20.1849   -9.8257 O   0  0  0  0  0  0  0  0  0  0  0  0
   22.1477  -21.8955   -9.5131 O   0  0  0  0  0  0  0  0  0  0  0  0
  1  2  1  0
  2  3  2  0
  4  5  1  0
  4  2  1  0
  5  6  1  6
  7  5  1  0
  7  8  2  0
  9  7  1  0
 10  9  1  0
 10 11  1  1
 12 13  2  0
 12 11  1  0
 14 13  1  0
 15 20  2  0
 15 14  1  0
 16 15  1  0
 17 18  1  0
 17 16  2  0
 18 19  2  0
 19 20  1  0
 20 12  1  0
 21 28  1  0
 21 10  1  0
 22 21  2  0
 24 23  1  6
 24 26  1  0
 25 24  1  0
 27 26  1  6
 27 28  1  0
 27 29  1  0
 29 31  2  0
 29 30  1  0
M  END
$$$$
