NWL.pdb
     RDKit          3D

 31 32  0  0  1  0  0  0  0  0999 V2000
   20.8682  -22.6839  -14.2721 N   0  0  0  0  0  0  0  0  0  0  0  0
   21.7745  -21.7284  -13.7046 C   0  0  0  0  0  0  0  0  0  0  0  0
   21.5442  -20.5218  -13.8996 O   0  0  0  0  0  0  0  0  0  0  0  0
   22.9395  -22.1500  -12.9171 C   0  0  0  0  0  0  0  0  0  0  0  0
   24.1574  -21.4018  -13.3475 C   0  0  2  0  0  0  0  0  0  0  0  0
   24.5292  -21.7222  -14.6903 N   0  0  0  0  0  0  0  0  0  0  0  0
   25.2968  -21.6633  -12.3988 C   0  0  0  0  0  0  0  0  0  0  0  0
   25.8271  -22.7953  -12.3131 O   0  0  0  0  0  0  0  0  0  0  0  0
   25.7780  -20.6176  -11.5903 N   0  0  0  0  0  0  0  0  0  0  0  0
   26.8880  -20.8520  -10.6443 C   0  0  1  0  0  0  0  0  0  0  0  0
   28.1001  -20.1430  -11.1110 C   0  0  0  0  0  0  0  0  0  0  0  0
   29.3022  -20.9477  -11.3057 C   0  0  0  0  0  0  0  0  0  0  0  0
   29.7355  -21.4356  -12.5180 C   0  0  0  0  0  0  0  0  0  0  0  0
   30.8533  -22.1567  -12.3414 N   0  0  0  0  0  0  0  0  0  0  0  0
   31.1705  -22.1539  -11.0217 C   0  0  0  0  0  0  0  0  0  0  0  0
   32.2064  -22.7170  -10.3245 C   0  0  0  0  0  0  0  0  0  0  0  0
   32.2784  -22.5245   -8.9707 C   0  0  0  0  0  0  0  0  0  0  0  0
   31.3364  -21.7817   -8.3045 C   0  0  0  0  0  0  0  0  0  0  0  0
   30.3067  -21.2248   -9.0083 C   0  0  0  0  0  0  0  0  0  0  0  0
   30.1990  -21.3970  -10.3767 C   0  0  0  0  0  0  0  0  0  0  0  0
   26.4349  -20.5961   -9.2644 C   0  0  0  0  0  0  0  0  0  0  0  0
   25.4943  -19.8353   -8.9561 O   0  0  0  0  0  0  0  0  0  0  0  0
   29.3024  -19.5988   -5.7303 C   0  0  0  0  0  0  0  0  0  0  0  0
   28.4627  -20.6006   -4.9279 C   0  0  2  0  0  0  0  0  0  0  0  0
   29.4854  -21.3651   -4.0824 C   0  0  0  0  0  0  0  0  0  0  0  0
   27.8283  -21.5245   -5.9105 C   0  0  0  0  0  0  0  0  0  0  0  0
   26.7590  -20.9162   -6.7674 C   0  0  2  0  0  0  0  0  0  0  0  0
   27.0819  -21.2373   -8.1405 N   0  0  0  0  0  0  0  0  0  0  0  0
   26.7010  -19.4345   -6.6294 C   0  0  0  0  0  0  0  0  0  0  0  0
   27.4985  -18.5543   -7.3254 O   0  0  0  0  0  0  0  0  0  0  0  0
   25.8742  -18.9321   -5.8271 O   0  0  0  0  0  0  0  0  0  0  0  0
  1  2  1  0
  2  3  2  0
  4  5  1  0
  4  2  1  0
  5  6  1  6
  7  5  1  0
  7  8  2  0
  9  7  1  0
 10  9  1  0
 10 11  1  6
 12 13  2  0
 12 11  1  0
 14 13  1  0
 15 20  2  0
 15 14  1  0
 16 15  1  0
 17 18  1  0
 17 16  2  0
 18 19  2  0
 19 20  1  0
 20 12  1  0
 21 28  1  0
 21 10  1  0
 22 21  2  0
 24 23  1  6
 24 26  1  0
 25 24  1  0
 27 26  1  1
 27 28  1  0
 27 29  1  0
 29 31  2  0
 29 30  1  0
M  END
$$$$
