NWL.pdb
     RDKit          3D

 31 32  0  0  1  0  0  0  0  0999 V2000
   34.0346  -35.4849   -6.5691 N   0  0  0  0  0  0  0  0  0  0  0  0
   33.2293  -36.6613   -6.4136 C   0  0  0  0  0  0  0  0  0  0  0  0
   33.8128  -37.7510   -6.2752 O   0  0  0  0  0  0  0  0  0  0  0  0
   31.7628  -36.5928   -6.4162 C   0  0  0  0  0  0  0  0  0  0  0  0
   31.3079  -35.1750   -6.5211 C   0  0  2  0  0  0  0  0  0  0  0  0
   32.4092  -34.2740   -6.6609 N   0  0  0  0  0  0  0  0  0  0  0  0
   30.4609  -34.8060   -5.3324 C   0  0  0  0  0  0  0  0  0  0  0  0
   30.8236  -33.9210   -4.5229 O   0  0  0  0  0  0  0  0  0  0  0  0
   29.2368  -35.4668   -5.1230 N   0  0  0  0  0  0  0  0  0  0  0  0
   28.3046  -35.0028   -4.0754 C   0  0  1  0  0  0  0  0  0  0  0  0
   26.9421  -34.8779   -4.6389 C   0  0  0  0  0  0  0  0  0  0  0  0
   26.6274  -33.6353   -5.3370 C   0  0  0  0  0  0  0  0  0  0  0  0
   26.6498  -32.3831   -4.7650 C   0  0  0  0  0  0  0  0  0  0  0  0
   26.2829  -31.4652   -5.6725 N   0  0  0  0  0  0  0  0  0  0  0  0
   26.0164  -32.0936   -6.8456 C   0  0  0  0  0  0  0  0  0  0  0  0
   25.6246  -31.6238   -8.0713 C   0  0  0  0  0  0  0  0  0  0  0  0
   25.4473  -32.5126   -9.0977 C   0  0  0  0  0  0  0  0  0  0  0  0
   25.6539  -33.8575   -8.9208 C   0  0  0  0  0  0  0  0  0  0  0  0
   26.0438  -34.3165   -7.6948 C   0  0  0  0  0  0  0  0  0  0  0  0
   26.2329  -33.4503   -6.6329 C   0  0  0  0  0  0  0  0  0  0  0  0
   28.4690  -35.8198   -2.8587 C   0  0  0  0  0  0  0  0  0  0  0  0
   28.0428  -36.9855   -2.7238 O   0  0  0  0  0  0  0  0  0  0  0  0
   31.9489  -37.4951   -1.0296 C   0  0  0  0  0  0  0  0  0  0  0  0
   31.8647  -35.9729   -0.8616 C   0  0  2  0  0  0  0  0  0  0  0  0
   33.1746  -35.5926   -0.1653 C   0  0  0  0  0  0  0  0  0  0  0  0
   30.7131  -35.6965    0.0433 C   0  0  0  0  0  0  0  0  0  0  0  0
   29.3660  -36.0713   -0.4975 C   0  0  2  0  0  0  0  0  0  0  0  0
   29.1615  -35.2958   -1.7015 N   0  0  0  0  0  0  0  0  0  0  0  0
   28.2678  -35.7585    0.4586 C   0  0  0  0  0  0  0  0  0  0  0  0
   27.2852  -34.8199    0.2381 O   0  0  0  0  0  0  0  0  0  0  0  0
   28.2163  -36.3828    1.5483 O   0  0  0  0  0  0  0  0  0  0  0  0
  1  2  1  0
  2  3  2  0
  4  5  1  0
  4  2  1  0
  5  6  1  1
  7  5  1  0
  7  8  2  0
  9  7  1  0
 10  9  1  0
 10 11  1  6
 12 13  2  0
 12 11  1  0
 14 13  1  0
 15 20  2  0
 15 14  1  0
 16 15  1  0
 17 18  1  0
 17 16  2  0
 18 19  2  0
 19 20  1  0
 20 12  1  0
 21 28  1  0
 21 10  1  0
 22 21  2  0
 24 23  1  1
 24 26  1  0
 25 24  1  0
 27 26  1  1
 27 28  1  0
 27 29  1  0
 29 31  2  0
 29 30  1  0
M  END
$$$$
