NWL.pdb
     RDKit          3D

 31 32  0  0  1  0  0  0  0  0999 V2000
   31.5498  -26.7599  -16.6985 N   0  0  0  0  0  0  0  0  0  0  0  0
   30.4359  -25.9030  -16.9842 C   0  0  0  0  0  0  0  0  0  0  0  0
   29.6920  -26.2131  -17.9316 O   0  0  0  0  0  0  0  0  0  0  0  0
   30.1729  -24.6965  -16.1902 C   0  0  0  0  0  0  0  0  0  0  0  0
   29.5491  -23.6396  -17.0400 C   0  0  2  0  0  0  0  0  0  0  0  0
   30.4432  -23.1814  -18.0572 N   0  0  0  0  0  0  0  0  0  0  0  0
   29.0740  -22.4932  -16.1876 C   0  0  0  0  0  0  0  0  0  0  0  0
   29.8174  -21.9700  -15.3253 O   0  0  0  0  0  0  0  0  0  0  0  0
   27.7689  -21.9972  -16.3599 N   0  0  0  0  0  0  0  0  0  0  0  0
   27.2896  -20.8545  -15.5560 C   0  0  1  0  0  0  0  0  0  0  0  0
   27.1353  -19.6644  -16.4219 C   0  0  0  0  0  0  0  0  0  0  0  0
   26.5105  -18.4888  -15.8237 C   0  0  0  0  0  0  0  0  0  0  0  0
   27.0773  -17.7107  -14.8393 C   0  0  0  0  0  0  0  0  0  0  0  0
   26.2292  -16.7295  -14.4946 N   0  0  0  0  0  0  0  0  0  0  0  0
   25.1014  -16.8454  -15.2407 C   0  0  0  0  0  0  0  0  0  0  0  0
   23.9525  -16.1012  -15.2910 C   0  0  0  0  0  0  0  0  0  0  0  0
   22.9706  -16.4542  -16.1776 C   0  0  0  0  0  0  0  0  0  0  0  0
   23.1167  -17.5341  -17.0115 C   0  0  0  0  0  0  0  0  0  0  0  0
   24.2656  -18.2705  -16.9536 C   0  0  0  0  0  0  0  0  0  0  0  0
   25.2803  -17.9461  -16.0709 C   0  0  0  0  0  0  0  0  0  0  0  0
   26.1292  -21.2634  -14.7430 C   0  0  0  0  0  0  0  0  0  0  0  0
   25.1576  -21.9193  -15.1726 O   0  0  0  0  0  0  0  0  0  0  0  0
   26.9780  -19.5828  -11.0740 C   0  0  0  0  0  0  0  0  0  0  0  0
   25.7351  -20.1694  -10.3932 C   0  0  2  0  0  0  0  0  0  0  0  0
   26.2014  -20.5091   -8.9745 C   0  0  0  0  0  0  0  0  0  0  0  0
   25.3870  -21.4212  -11.1236 C   0  0  0  0  0  0  0  0  0  0  0  0
   24.8931  -21.2309  -12.5263 C   0  0  2  0  0  0  0  0  0  0  0  0
   26.0447  -20.9127  -13.3420 N   0  0  0  0  0  0  0  0  0  0  0  0
   23.9148  -20.1131  -12.6327 C   0  0  0  0  0  0  0  0  0  0  0  0
   22.6333  -20.1474  -12.1312 O   0  0  0  0  0  0  0  0  0  0  0  0
   24.2629  -19.0563  -13.2175 O   0  0  0  0  0  0  0  0  0  0  0  0
  1  2  1  0
  2  3  2  0
  4  5  1  0
  4  2  1  0
  5  6  1  6
  7  5  1  0
  7  8  2  0
  9  7  1  0
 10  9  1  0
 10 11  1  6
 12 13  2  0
 12 11  1  0
 14 13  1  0
 15 20  2  0
 15 14  1  0
 16 15  1  0
 17 18  1  0
 17 16  2  0
 18 19  2  0
 19 20  1  0
 20 12  1  0
 21 28  1  0
 21 10  1  0
 22 21  2  0
 24 23  1  6
 24 26  1  0
 25 24  1  0
 27 26  1  1
 27 28  1  0
 27 29  1  0
 29 31  2  0
 29 30  1  0
M  END
$$$$
