NWL.pdb
     RDKit          3D

 31 32  0  0  1  0  0  0  0  0999 V2000
   26.2737   -8.2454  -21.7036 N   0  0  0  0  0  0  0  0  0  0  0  0
   24.9751   -7.7534  -22.0616 C   0  0  0  0  0  0  0  0  0  0  0  0
   24.8741   -7.0856  -23.1060 O   0  0  0  0  0  0  0  0  0  0  0  0
   23.7963   -8.0236  -21.2294 C   0  0  0  0  0  0  0  0  0  0  0  0
   24.1723   -8.8554  -20.0483 C   0  0  2  0  0  0  0  0  0  0  0  0
   24.3756  -10.2243  -20.4073 N   0  0  0  0  0  0  0  0  0  0  0  0
   23.1313   -8.7335  -18.9675 C   0  0  0  0  0  0  0  0  0  0  0  0
   22.0798   -9.4144  -18.9952 O   0  0  0  0  0  0  0  0  0  0  0  0
   23.3401   -7.8373  -17.9035 N   0  0  0  0  0  0  0  0  0  0  0  0
   22.3411   -7.7118  -16.8227 C   0  0  1  0  0  0  0  0  0  0  0  0
   22.9613   -8.0632  -15.5260 C   0  0  0  0  0  0  0  0  0  0  0  0
   23.2078   -9.4796  -15.2741 C   0  0  0  0  0  0  0  0  0  0  0  0
   24.4154  -10.0109  -14.8800 C   0  0  0  0  0  0  0  0  0  0  0  0
   24.3066  -11.3434  -14.7647 N   0  0  0  0  0  0  0  0  0  0  0  0
   23.0368  -11.7064  -15.0779 C   0  0  0  0  0  0  0  0  0  0  0  0
   22.4090  -12.9235  -15.1040 C   0  0  0  0  0  0  0  0  0  0  0  0
   21.0851  -12.9809  -15.4485 C   0  0  0  0  0  0  0  0  0  0  0  0
   20.3806  -11.8471  -15.7663 C   0  0  0  0  0  0  0  0  0  0  0  0
   21.0154  -10.6380  -15.7382 C   0  0  0  0  0  0  0  0  0  0  0  0
   22.3521  -10.5389  -15.3957 C   0  0  0  0  0  0  0  0  0  0  0  0
   21.6543   -6.4105  -16.9217 C   0  0  0  0  0  0  0  0  0  0  0  0
   22.2324   -5.3049  -16.9703 O   0  0  0  0  0  0  0  0  0  0  0  0
   18.6534   -4.1322  -19.7646 C   0  0  0  0  0  0  0  0  0  0  0  0
   18.2971   -5.5002  -19.1693 C   0  0  2  0  0  0  0  0  0  0  0  0
   16.9163   -5.8207  -19.7490 C   0  0  0  0  0  0  0  0  0  0  0  0
   18.1958   -5.3210  -17.6931 C   0  0  0  0  0  0  0  0  0  0  0  0
   19.4944   -5.0787  -16.9842 C   0  0  2  0  0  0  0  0  0  0  0  0
   20.2103   -6.3357  -16.9689 N   0  0  0  0  0  0  0  0  0  0  0  0
   19.2940   -4.6315  -15.5778 C   0  0  0  0  0  0  0  0  0  0  0  0
   19.6174   -5.3789  -14.4680 O   0  0  0  0  0  0  0  0  0  0  0  0
   18.7961   -3.4968  -15.3674 O   0  0  0  0  0  0  0  0  0  0  0  0
  1  2  1  0
  2  3  2  0
  4  5  1  0
  4  2  1  0
  5  6  1  6
  7  5  1  0
  7  8  2  0
  9  7  1  0
 10  9  1  0
 10 11  1  1
 12 13  2  0
 12 11  1  0
 14 13  1  0
 15 20  2  0
 15 14  1  0
 16 15  1  0
 17 18  1  0
 17 16  2  0
 18 19  2  0
 19 20  1  0
 20 12  1  0
 21 28  1  0
 21 10  1  0
 22 21  2  0
 24 23  1  6
 24 26  1  0
 25 24  1  0
 27 26  1  1
 27 28  1  0
 27 29  1  0
 29 31  2  0
 29 30  1  0
M  END
$$$$
