NWL.pdb
     RDKit          3D

 31 32  0  0  1  0  0  0  0  0999 V2000
   31.3653  -24.3801  -16.9293 N   0  0  0  0  0  0  0  0  0  0  0  0
   29.9417  -24.2301  -17.0153 C   0  0  0  0  0  0  0  0  0  0  0  0
   29.3297  -24.9465  -17.8271 O   0  0  0  0  0  0  0  0  0  0  0  0
   29.2201  -23.2651  -16.1766 C   0  0  0  0  0  0  0  0  0  0  0  0
   28.3407  -22.4000  -17.0171 C   0  0  2  0  0  0  0  0  0  0  0  0
   29.0982  -21.6057  -17.9333 N   0  0  0  0  0  0  0  0  0  0  0  0
   27.4715  -21.5320  -16.1466 C   0  0  0  0  0  0  0  0  0  0  0  0
   27.9600  -20.6179  -15.4425 O   0  0  0  0  0  0  0  0  0  0  0  0
   26.0819  -21.7494  -16.1206 N   0  0  0  0  0  0  0  0  0  0  0  0
   25.2358  -21.0691  -15.1190 C   0  0  1  0  0  0  0  0  0  0  0  0
   23.8221  -21.1011  -15.5549 C   0  0  0  0  0  0  0  0  0  0  0  0
   22.8313  -20.5726  -14.6224 C   0  0  0  0  0  0  0  0  0  0  0  0
   22.9016  -19.3397  -14.0136 C   0  0  0  0  0  0  0  0  0  0  0  0
   21.8488  -19.1782  -13.1973 N   0  0  0  0  0  0  0  0  0  0  0  0
   21.0759  -20.2922  -13.2563 C   0  0  0  0  0  0  0  0  0  0  0  0
   19.8996  -20.6282  -12.6399 C   0  0  0  0  0  0  0  0  0  0  0  0
   19.3290  -21.8423  -12.9142 C   0  0  0  0  0  0  0  0  0  0  0  0
   19.9116  -22.7229  -13.7906 C   0  0  0  0  0  0  0  0  0  0  0  0
   21.0848  -22.3793  -14.3999 C   0  0  0  0  0  0  0  0  0  0  0  0
   21.6925  -21.1622  -14.1483 C   0  0  0  0  0  0  0  0  0  0  0  0
   25.5470  -21.5769  -13.7699 C   0  0  0  0  0  0  0  0  0  0  0  0
   25.4461  -22.7713  -13.4206 O   0  0  0  0  0  0  0  0  0  0  0  0
   28.9797  -22.5016  -11.5756 C   0  0  0  0  0  0  0  0  0  0  0  0
   28.7346  -21.0117  -11.8450 C   0  0  2  0  0  0  0  0  0  0  0  0
   30.0220  -20.3232  -11.3823 C   0  0  0  0  0  0  0  0  0  0  0  0
   27.5978  -20.5923  -10.9771 C   0  0  0  0  0  0  0  0  0  0  0  0
   26.2545  -21.1266  -11.3742 C   0  0  2  0  0  0  0  0  0  0  0  0
   26.0051  -20.6833  -12.7285 N   0  0  0  0  0  0  0  0  0  0  0  0
   25.1630  -20.6137  -10.5003 C   0  0  0  0  0  0  0  0  0  0  0  0
   24.1412  -19.7959  -10.9269 O   0  0  0  0  0  0  0  0  0  0  0  0
   25.1558  -20.9375   -9.2858 O   0  0  0  0  0  0  0  0  0  0  0  0
  1  2  1  0
  2  3  2  0
  4  5  1  0
  4  2  1  0
  5  6  1  6
  7  5  1  0
  7  8  2  0
  9  7  1  0
 10  9  1  0
 10 11  1  6
 12 13  2  0
 12 11  1  0
 14 13  1  0
 15 20  2  0
 15 14  1  0
 16 15  1  0
 17 18  1  0
 17 16  2  0
 18 19  2  0
 19 20  1  0
 20 12  1  0
 21 28  1  0
 21 10  1  0
 22 21  2  0
 24 23  1  1
 24 26  1  0
 25 24  1  0
 27 26  1  1
 27 28  1  0
 27 29  1  0
 29 31  2  0
 29 30  1  0
M  END
$$$$
