NWL.pdb
     RDKit          3D

 31 32  0  0  1  0  0  0  0  0999 V2000
   17.2576  -11.4545  -19.3445 N   0  0  0  0  0  0  0  0  0  0  0  0
   16.4713  -10.2821  -19.0918 C   0  0  0  0  0  0  0  0  0  0  0  0
   15.5086  -10.0542  -19.8456 O   0  0  0  0  0  0  0  0  0  0  0  0
   16.7839   -9.3735  -17.9819 C   0  0  0  0  0  0  0  0  0  0  0  0
   17.9992   -9.8415  -17.2523 C   0  0  2  0  0  0  0  0  0  0  0  0
   17.7450  -11.0379  -16.5119 N   0  0  0  0  0  0  0  0  0  0  0  0
   18.5220   -8.7544  -16.3515 C   0  0  0  0  0  0  0  0  0  0  0  0
   18.0456   -8.5705  -15.2073 O   0  0  0  0  0  0  0  0  0  0  0  0
   19.5663   -7.9258  -16.8008 N   0  0  0  0  0  0  0  0  0  0  0  0
   20.0780   -6.8353  -15.9460 C   0  0  1  0  0  0  0  0  0  0  0  0
   21.5440   -6.9662  -15.7935 C   0  0  0  0  0  0  0  0  0  0  0  0
   22.0289   -8.1090  -15.0259 C   0  0  0  0  0  0  0  0  0  0  0  0
   22.6272   -9.2247  -15.5673 C   0  0  0  0  0  0  0  0  0  0  0  0
   22.9264  -10.0955  -14.5911 N   0  0  0  0  0  0  0  0  0  0  0  0
   22.5336   -9.5707  -13.4027 C   0  0  0  0  0  0  0  0  0  0  0  0
   22.6199  -10.0387  -12.1182 C   0  0  0  0  0  0  0  0  0  0  0  0
   22.1449   -9.2626  -11.0950 C   0  0  0  0  0  0  0  0  0  0  0  0
   21.5871   -8.0316  -11.3327 C   0  0  0  0  0  0  0  0  0  0  0  0
   21.5048   -7.5738  -12.6170 C   0  0  0  0  0  0  0  0  0  0  0  0
   21.9729   -8.3286  -13.6776 C   0  0  0  0  0  0  0  0  0  0  0  0
   19.5524   -5.5398  -16.4155 C   0  0  0  0  0  0  0  0  0  0  0  0
   19.3417   -5.2511  -17.6118 O   0  0  0  0  0  0  0  0  0  0  0  0
   16.6846   -1.8075  -17.8860 C   0  0  0  0  0  0  0  0  0  0  0  0
   16.8727   -3.3183  -17.6998 C   0  0  2  0  0  0  0  0  0  0  0  0
   15.4961   -3.9150  -18.0067 C   0  0  0  0  0  0  0  0  0  0  0  0
   17.2118   -3.5425  -16.2658 C   0  0  0  0  0  0  0  0  0  0  0  0
   18.6291   -3.2358  -15.8848 C   0  0  2  0  0  0  0  0  0  0  0  0
   19.2385   -4.4833  -15.4784 N   0  0  0  0  0  0  0  0  0  0  0  0
   18.7123   -2.2767  -14.7485 C   0  0  0  0  0  0  0  0  0  0  0  0
   18.9352   -0.9250  -14.8832 O   0  0  0  0  0  0  0  0  0  0  0  0
   18.5727   -2.7107  -13.5771 O   0  0  0  0  0  0  0  0  0  0  0  0
  1  2  1  0
  2  3  2  0
  4  5  1  0
  4  2  1  0
  5  6  1  1
  7  5  1  0
  7  8  2  0
  9  7  1  0
 10  9  1  0
 10 11  1  6
 12 13  2  0
 12 11  1  0
 14 13  1  0
 15 20  2  0
 15 14  1  0
 16 15  1  0
 17 18  1  0
 17 16  2  0
 18 19  2  0
 19 20  1  0
 20 12  1  0
 21 28  1  0
 21 10  1  0
 22 21  2  0
 24 23  1  1
 24 26  1  0
 25 24  1  0
 27 26  1  1
 27 28  1  0
 27 29  1  0
 29 31  2  0
 29 30  1  0
M  END
$$$$
