NWL.pdb
     RDKit          3D

 31 32  0  0  1  0  0  0  0  0999 V2000
   27.3214  -22.4037  -19.6206 N   0  0  0  0  0  0  0  0  0  0  0  0
   27.4778  -21.5418  -18.4851 C   0  0  0  0  0  0  0  0  0  0  0  0
   28.2989  -20.6115  -18.5703 O   0  0  0  0  0  0  0  0  0  0  0  0
   26.6989  -21.7422  -17.2570 C   0  0  0  0  0  0  0  0  0  0  0  0
   27.6064  -22.0108  -16.1027 C   0  0  2  0  0  0  0  0  0  0  0  0
   28.2926  -23.2568  -16.2469 N   0  0  0  0  0  0  0  0  0  0  0  0
   26.8372  -21.9689  -14.8092 C   0  0  0  0  0  0  0  0  0  0  0  0
   26.1312  -22.9355  -14.4388 O   0  0  0  0  0  0  0  0  0  0  0  0
   26.9100  -20.8221  -13.9977 N   0  0  0  0  0  0  0  0  0  0  0  0
   26.0275  -20.6793  -12.8218 C   0  0  1  0  0  0  0  0  0  0  0  0
   26.6340  -19.7391  -11.8534 C   0  0  0  0  0  0  0  0  0  0  0  0
   27.6549  -20.2781  -10.9602 C   0  0  0  0  0  0  0  0  0  0  0  0
   28.7897  -20.9411  -11.3703 C   0  0  0  0  0  0  0  0  0  0  0  0
   29.4988  -21.3283  -10.2989 N   0  0  0  0  0  0  0  0  0  0  0  0
   28.8477  -20.9290   -9.1770 C   0  0  0  0  0  0  0  0  0  0  0  0
   29.1466  -21.0569   -7.8464 C   0  0  0  0  0  0  0  0  0  0  0  0
   28.2910  -20.5249   -6.9191 C   0  0  0  0  0  0  0  0  0  0  0  0
   27.1462  -19.8699   -7.2975 C   0  0  0  0  0  0  0  0  0  0  0  0
   26.8562  -19.7480   -8.6267 C   0  0  0  0  0  0  0  0  0  0  0  0
   27.6952  -20.2725   -9.5936 C   0  0  0  0  0  0  0  0  0  0  0  0
   24.6451  -20.4118  -13.2604 C   0  0  0  0  0  0  0  0  0  0  0  0
   24.3312  -19.9602  -14.3813 O   0  0  0  0  0  0  0  0  0  0  0  0
   21.2206  -21.0922  -15.7697 C   0  0  0  0  0  0  0  0  0  0  0  0
   22.3467  -21.8712  -15.0789 C   0  0  2  0  0  0  0  0  0  0  0  0
   22.2954  -23.2626  -15.7166 C   0  0  0  0  0  0  0  0  0  0  0  0
   21.9909  -21.9644  -13.6345 C   0  0  0  0  0  0  0  0  0  0  0  0
   22.1570  -20.6986  -12.8484 C   0  0  2  0  0  0  0  0  0  0  0  0
   23.5255  -20.6664  -12.3804 N   0  0  0  0  0  0  0  0  0  0  0  0
   21.2519  -20.6459  -11.6669 C   0  0  0  0  0  0  0  0  0  0  0  0
   21.6503  -20.8689  -10.3683 O   0  0  0  0  0  0  0  0  0  0  0  0
   20.0361  -20.3816  -11.8458 O   0  0  0  0  0  0  0  0  0  0  0  0
  1  2  1  0
  2  3  2  0
  4  5  1  0
  4  2  1  0
  5  6  1  6
  7  5  1  0
  7  8  2  0
  9  7  1  0
 10  9  1  0
 10 11  1  1
 12 13  2  0
 12 11  1  0
 14 13  1  0
 15 20  2  0
 15 14  1  0
 16 15  1  0
 17 18  1  0
 17 16  2  0
 18 19  2  0
 19 20  1  0
 20 12  1  0
 21 28  1  0
 21 10  1  0
 22 21  2  0
 24 23  1  6
 24 26  1  0
 25 24  1  0
 27 26  1  1
 27 28  1  0
 27 29  1  0
 29 31  2  0
 29 30  1  0
M  END
$$$$
