NWL.pdb
     RDKit          3D

 31 32  0  0  1  0  0  0  0  0999 V2000
   28.7267  -22.0288  -17.3441 N   0  0  0  0  0  0  0  0  0  0  0  0
   27.8139  -21.1317  -16.6972 C   0  0  0  0  0  0  0  0  0  0  0  0
   27.6268  -20.0176  -17.2176 O   0  0  0  0  0  0  0  0  0  0  0  0
   27.1173  -21.5062  -15.4604 C   0  0  0  0  0  0  0  0  0  0  0  0
   27.4653  -20.5599  -14.3597 C   0  0  2  0  0  0  0  0  0  0  0  0
   28.8802  -20.4260  -14.2035 N   0  0  0  0  0  0  0  0  0  0  0  0
   26.8225  -20.9955  -13.0699 C   0  0  0  0  0  0  0  0  0  0  0  0
   25.8433  -21.7773  -13.0609 O   0  0  0  0  0  0  0  0  0  0  0  0
   27.3287  -20.5163  -11.8480 N   0  0  0  0  0  0  0  0  0  0  0  0
   26.6644  -20.8620  -10.5748 C   0  0  1  0  0  0  0  0  0  0  0  0
   27.6310  -20.7482   -9.4601 C   0  0  0  0  0  0  0  0  0  0  0  0
   27.0806  -20.7250   -8.1084 C   0  0  0  0  0  0  0  0  0  0  0  0
   25.8378  -21.2011   -7.7558 C   0  0  0  0  0  0  0  0  0  0  0  0
   25.6331  -21.0022   -6.4446 N   0  0  0  0  0  0  0  0  0  0  0  0
   26.7286  -20.3980   -5.9186 C   0  0  0  0  0  0  0  0  0  0  0  0
   27.0341  -19.9967   -4.6450 C   0  0  0  0  0  0  0  0  0  0  0  0
   28.2522  -19.4192   -4.4046 C   0  0  0  0  0  0  0  0  0  0  0  0
   29.1665  -19.2366   -5.4113 C   0  0  0  0  0  0  0  0  0  0  0  0
   28.8526  -19.6394   -6.6782 C   0  0  0  0  0  0  0  0  0  0  0  0
   27.6321  -20.2261   -6.9612 C   0  0  0  0  0  0  0  0  0  0  0  0
   25.3928  -20.1248  -10.4550 C   0  0  0  0  0  0  0  0  0  0  0  0
   25.2918  -18.8803  -10.4501 O   0  0  0  0  0  0  0  0  0  0  0  0
   22.3736  -20.0383  -14.7022 C   0  0  0  0  0  0  0  0  0  0  0  0
   22.0023  -19.8095  -13.2318 C   0  0  2  0  0  0  0  0  0  0  0  0
   21.8381  -18.2916  -13.1113 C   0  0  0  0  0  0  0  0  0  0  0  0
   23.1641  -20.2583  -12.4131 C   0  0  0  0  0  0  0  0  0  0  0  0
   22.9119  -20.3567  -10.9385 C   0  0  2  0  0  0  0  0  0  0  0  0
   24.1358  -20.8298  -10.3294 N   0  0  0  0  0  0  0  0  0  0  0  0
   21.8210  -21.3180  -10.6162 C   0  0  0  0  0  0  0  0  0  0  0  0
   21.9052  -22.6809  -10.7912 O   0  0  0  0  0  0  0  0  0  0  0  0
   20.7403  -20.8753  -10.1516 O   0  0  0  0  0  0  0  0  0  0  0  0
  1  2  1  0
  2  3  2  0
  4  5  1  0
  4  2  1  0
  5  6  1  1
  7  5  1  0
  7  8  2  0
  9  7  1  0
 10  9  1  0
 10 11  1  1
 12 13  2  0
 12 11  1  0
 14 13  1  0
 15 20  2  0
 15 14  1  0
 16 15  1  0
 17 18  1  0
 17 16  2  0
 18 19  2  0
 19 20  1  0
 20 12  1  0
 21 28  1  0
 21 10  1  0
 22 21  2  0
 24 23  1  6
 24 26  1  0
 25 24  1  0
 27 26  1  6
 27 28  1  0
 27 29  1  0
 29 31  2  0
 29 30  1  0
M  END
$$$$
