NWL.pdb
     RDKit          3D

 31 32  0  0  1  0  0  0  0  0999 V2000
   30.8506  -23.8943  -19.1933 N   0  0  0  0  0  0  0  0  0  0  0  0
   31.3147  -24.2138  -17.8745 C   0  0  0  0  0  0  0  0  0  0  0  0
   32.4613  -24.6819  -17.7593 O   0  0  0  0  0  0  0  0  0  0  0  0
   30.4719  -23.9991  -16.6918 C   0  0  0  0  0  0  0  0  0  0  0  0
   29.1416  -23.4534  -17.0925 C   0  0  2  0  0  0  0  0  0  0  0  0
   29.1271  -23.0453  -18.4627 N   0  0  0  0  0  0  0  0  0  0  0  0
   28.7476  -22.3148  -16.1898 C   0  0  0  0  0  0  0  0  0  0  0  0
   29.3968  -22.0518  -15.1508 O   0  0  0  0  0  0  0  0  0  0  0  0
   27.6278  -21.5284  -16.5162 N   0  0  0  0  0  0  0  0  0  0  0  0
   27.2141  -20.4136  -15.6399 C   0  0  1  0  0  0  0  0  0  0  0  0
   26.7685  -19.2687  -16.4648 C   0  0  0  0  0  0  0  0  0  0  0  0
   26.2349  -18.1107  -15.7543 C   0  0  0  0  0  0  0  0  0  0  0  0
   26.9246  -17.3757  -14.8164 C   0  0  0  0  0  0  0  0  0  0  0  0
   26.1367  -16.4004  -14.3382 N   0  0  0  0  0  0  0  0  0  0  0  0
   24.9272  -16.4775  -14.9490 C   0  0  0  0  0  0  0  0  0  0  0  0
   23.7906  -15.7213  -14.8357 C   0  0  0  0  0  0  0  0  0  0  0  0
   22.7061  -16.0315  -15.6119 C   0  0  0  0  0  0  0  0  0  0  0  0
   22.7379  -17.0804  -16.4960 C   0  0  0  0  0  0  0  0  0  0  0  0
   23.8755  -17.8291  -16.6015 C   0  0  0  0  0  0  0  0  0  0  0  0
   24.9916  -17.5477  -15.8341 C   0  0  0  0  0  0  0  0  0  0  0  0
   26.2920  -20.9070  -14.6002 C   0  0  0  0  0  0  0  0  0  0  0  0
   25.4441  -21.8071  -14.7729 O   0  0  0  0  0  0  0  0  0  0  0  0
   25.7707  -19.8091   -8.5571 C   0  0  0  0  0  0  0  0  0  0  0  0
   25.2862  -20.7294   -9.6843 C   0  0  2  0  0  0  0  0  0  0  0  0
   25.6906  -22.1349   -9.2300 C   0  0  0  0  0  0  0  0  0  0  0  0
   26.0476  -20.3565  -10.9102 C   0  0  0  0  0  0  0  0  0  0  0  0
   25.4604  -20.8376  -12.2030 C   0  0  2  0  0  0  0  0  0  0  0  0
   26.3160  -20.3529  -13.2640 N   0  0  0  0  0  0  0  0  0  0  0  0
   24.0850  -20.3123  -12.4275 C   0  0  0  0  0  0  0  0  0  0  0  0
   23.7979  -19.0384  -12.8632 O   0  0  0  0  0  0  0  0  0  0  0  0
   23.1043  -21.0677  -12.2096 O   0  0  0  0  0  0  0  0  0  0  0  0
  1  2  1  0
  2  3  2  0
  4  5  1  0
  4  2  1  0
  5  6  1  6
  7  5  1  0
  7  8  2  0
  9  7  1  0
 10  9  1  0
 10 11  1  6
 12 13  2  0
 12 11  1  0
 14 13  1  0
 15 20  2  0
 15 14  1  0
 16 15  1  0
 17 18  1  0
 17 16  2  0
 18 19  2  0
 19 20  1  0
 20 12  1  0
 21 28  1  0
 21 10  1  0
 22 21  2  0
 24 23  1  1
 24 26  1  0
 25 24  1  0
 27 26  1  1
 27 28  1  0
 27 29  1  0
 29 31  2  0
 29 30  1  0
M  END
$$$$
