NWL.pdb
     RDKit          3D

 31 32  0  0  1  0  0  0  0  0999 V2000
   19.2021  -25.6642   -9.8755 N   0  0  0  0  0  0  0  0  0  0  0  0
   19.1220  -26.2854  -11.1656 C   0  0  0  0  0  0  0  0  0  0  0  0
   19.2776  -25.5657  -12.1680 O   0  0  0  0  0  0  0  0  0  0  0  0
   18.8652  -27.7236  -11.3097 C   0  0  0  0  0  0  0  0  0  0  0  0
   18.7151  -28.3627   -9.9691 C   0  0  2  0  0  0  0  0  0  0  0  0
   18.9922  -27.4434   -8.9098 N   0  0  0  0  0  0  0  0  0  0  0  0
   19.5947  -29.5802   -9.8664 C   0  0  0  0  0  0  0  0  0  0  0  0
   19.2063  -30.7011  -10.2696 O   0  0  0  0  0  0  0  0  0  0  0  0
   20.8795  -29.4603   -9.3061 N   0  0  0  0  0  0  0  0  0  0  0  0
   21.8076  -30.6094   -9.3076 C   0  0  1  0  0  0  0  0  0  0  0  0
   23.0204  -30.2710  -10.0849 C   0  0  0  0  0  0  0  0  0  0  0  0
   23.7908  -31.3864  -10.6261 C   0  0  0  0  0  0  0  0  0  0  0  0
   24.7603  -32.0811   -9.9382 C   0  0  0  0  0  0  0  0  0  0  0  0
   25.2910  -33.0230  -10.7331 N   0  0  0  0  0  0  0  0  0  0  0  0
   24.6838  -32.9636  -11.9455 C   0  0  0  0  0  0  0  0  0  0  0  0
   24.8411  -33.7012  -13.0890 C   0  0  0  0  0  0  0  0  0  0  0  0
   24.0565  -33.4187  -14.1750 C   0  0  0  0  0  0  0  0  0  0  0  0
   23.1210  -32.4155  -14.1379 C   0  0  0  0  0  0  0  0  0  0  0  0
   22.9719  -31.6850  -12.9934 C   0  0  0  0  0  0  0  0  0  0  0  0
   23.7461  -31.9396  -11.8755 C   0  0  0  0  0  0  0  0  0  0  0  0
   21.9940  -31.1068   -7.9318 C   0  0  0  0  0  0  0  0  0  0  0  0
   22.1195  -30.3790   -6.9252 O   0  0  0  0  0  0  0  0  0  0  0  0
   19.9300  -34.4175   -4.8803 C   0  0  0  0  0  0  0  0  0  0  0  0
   20.3889  -34.7714   -6.3004 C   0  0  2  0  0  0  0  0  0  0  0  0
   20.1315  -36.2763   -6.4208 C   0  0  0  0  0  0  0  0  0  0  0  0
   21.8535  -34.5030   -6.3656 C   0  0  0  0  0  0  0  0  0  0  0  0
   22.2444  -33.0561   -6.3256 C   0  0  2  0  0  0  0  0  0  0  0  0
   22.0459  -32.5262   -7.6570 N   0  0  0  0  0  0  0  0  0  0  0  0
   23.6733  -32.8685   -5.9502 C   0  0  0  0  0  0  0  0  0  0  0  0
   24.7158  -32.8190   -6.8479 O   0  0  0  0  0  0  0  0  0  0  0  0
   23.9699  -32.7451   -4.7350 O   0  0  0  0  0  0  0  0  0  0  0  0
  1  2  1  0
  2  3  2  0
  4  5  1  0
  4  2  1  0
  5  6  1  1
  7  5  1  0
  7  8  2  0
  9  7  1  0
 10  9  1  0
 10 11  1  1
 12 13  2  0
 12 11  1  0
 14 13  1  0
 15 20  2  0
 15 14  1  0
 16 15  1  0
 17 18  1  0
 17 16  2  0
 18 19  2  0
 19 20  1  0
 20 12  1  0
 21 28  1  0
 21 10  1  0
 22 21  2  0
 24 23  1  1
 24 26  1  0
 25 24  1  0
 27 26  1  6
 27 28  1  0
 27 29  1  0
 29 31  2  0
 29 30  1  0
M  END
$$$$
