NWL.pdb
     RDKit          3D

 31 32  0  0  1  0  0  0  0  0999 V2000
   29.0315  -17.7625  -15.4168 N   0  0  0  0  0  0  0  0  0  0  0  0
   28.9982  -19.0933  -15.9501 C   0  0  0  0  0  0  0  0  0  0  0  0
   29.6066  -19.3089  -17.0133 O   0  0  0  0  0  0  0  0  0  0  0  0
   28.2727  -20.1738  -15.2709 C   0  0  0  0  0  0  0  0  0  0  0  0
   27.5900  -19.6549  -14.0491 C   0  0  2  0  0  0  0  0  0  0  0  0
   28.5266  -19.3031  -13.0277 N   0  0  0  0  0  0  0  0  0  0  0  0
   26.5921  -20.6598  -13.5384 C   0  0  0  0  0  0  0  0  0  0  0  0
   26.2297  -21.6331  -14.2395 O   0  0  0  0  0  0  0  0  0  0  0  0
   26.0530  -20.5057  -12.2482 N   0  0  0  0  0  0  0  0  0  0  0  0
   24.9383  -21.3621  -11.7947 C   0  0  1  0  0  0  0  0  0  0  0  0
   25.0967  -21.6679  -10.3556 C   0  0  0  0  0  0  0  0  0  0  0  0
   26.0487  -20.8522   -9.6079 C   0  0  0  0  0  0  0  0  0  0  0  0
   25.7148  -19.7661   -8.8303 C   0  0  0  0  0  0  0  0  0  0  0  0
   26.8264  -19.2266   -8.3067 N   0  0  0  0  0  0  0  0  0  0  0  0
   27.8993  -19.9434   -8.7276 C   0  0  0  0  0  0  0  0  0  0  0  0
   29.2404  -19.8240   -8.4751 C   0  0  0  0  0  0  0  0  0  0  0  0
   30.1049  -20.7254   -9.0363 C   0  0  0  0  0  0  0  0  0  0  0  0
   29.6538  -21.7402   -9.8424 C   0  0  0  0  0  0  0  0  0  0  0  0
   28.3149  -21.8507  -10.0888 C   0  0  0  0  0  0  0  0  0  0  0  0
   27.4100  -20.9592   -9.5408 C   0  0  0  0  0  0  0  0  0  0  0  0
   23.6528  -20.7885  -12.2343 C   0  0  0  0  0  0  0  0  0  0  0  0
   23.5221  -19.6695  -12.7723 O   0  0  0  0  0  0  0  0  0  0  0  0
   20.7223  -20.1399  -15.6412 C   0  0  0  0  0  0  0  0  0  0  0  0
   21.8226  -21.1355  -15.2532 C   0  0  2  0  0  0  0  0  0  0  0  0
   21.9780  -22.0319  -16.4852 C   0  0  0  0  0  0  0  0  0  0  0  0
   21.3032  -21.9362  -14.1085 C   0  0  0  0  0  0  0  0  0  0  0  0
   21.2144  -21.2070  -12.8015 C   0  0  2  0  0  0  0  0  0  0  0  0
   22.4163  -21.5188  -12.0593 N   0  0  0  0  0  0  0  0  0  0  0  0
   20.0369  -21.6349  -11.9962 C   0  0  0  0  0  0  0  0  0  0  0  0
   18.8510  -20.9402  -11.9183 O   0  0  0  0  0  0  0  0  0  0  0  0
   20.1102  -22.7007  -11.3339 O   0  0  0  0  0  0  0  0  0  0  0  0
  1  2  1  0
  2  3  2  0
  4  5  1  0
  4  2  1  0
  5  6  1  1
  7  5  1  0
  7  8  2  0
  9  7  1  0
 10  9  1  0
 10 11  1  1
 12 13  2  0
 12 11  1  0
 14 13  1  0
 15 20  2  0
 15 14  1  0
 16 15  1  0
 17 18  1  0
 17 16  2  0
 18 19  2  0
 19 20  1  0
 20 12  1  0
 21 28  1  0
 21 10  1  0
 22 21  2  0
 24 23  1  6
 24 26  1  0
 25 24  1  0
 27 26  1  6
 27 28  1  0
 27 29  1  0
 29 31  2  0
 29 30  1  0
M  END
$$$$
