NWL.pdb
     RDKit          3D

 31 32  0  0  1  0  0  0  0  0999 V2000
   24.0160  -20.5937  -16.0028 N   0  0  0  0  0  0  0  0  0  0  0  0
   24.0917  -19.6274  -14.9459 C   0  0  0  0  0  0  0  0  0  0  0  0
   23.1433  -18.8335  -14.8150 O   0  0  0  0  0  0  0  0  0  0  0  0
   25.2469  -19.5686  -14.0418 C   0  0  0  0  0  0  0  0  0  0  0  0
   25.0871  -20.5497  -12.9282 C   0  0  2  0  0  0  0  0  0  0  0  0
   23.7649  -20.5238  -12.3848 N   0  0  0  0  0  0  0  0  0  0  0  0
   26.1128  -20.2979  -11.8553 C   0  0  0  0  0  0  0  0  0  0  0  0
   27.3280  -20.1694  -12.1324 O   0  0  0  0  0  0  0  0  0  0  0  0
   25.7018  -20.2049  -10.5132 N   0  0  0  0  0  0  0  0  0  0  0  0
   26.6995  -20.0787   -9.4313 C   0  0  1  0  0  0  0  0  0  0  0  0
   26.1313  -19.2868   -8.3178 C   0  0  0  0  0  0  0  0  0  0  0  0
   27.0435  -18.9098   -7.2425 C   0  0  0  0  0  0  0  0  0  0  0  0
   27.8195  -17.7725   -7.2306 C   0  0  0  0  0  0  0  0  0  0  0  0
   28.5616  -17.7437   -6.1129 N   0  0  0  0  0  0  0  0  0  0  0  0
   28.2874  -18.8515   -5.3783 C   0  0  0  0  0  0  0  0  0  0  0  0
   28.7538  -19.2895   -4.1671 C   0  0  0  0  0  0  0  0  0  0  0  0
   28.2699  -20.4630   -3.6537 C   0  0  0  0  0  0  0  0  0  0  0  0
   27.3313  -21.2033   -4.3275 C   0  0  0  0  0  0  0  0  0  0  0  0
   26.8727  -20.7588   -5.5349 C   0  0  0  0  0  0  0  0  0  0  0  0
   27.3377  -19.5785   -6.0870 C   0  0  0  0  0  0  0  0  0  0  0  0
   27.2632  -21.4031   -9.1103 C   0  0  0  0  0  0  0  0  0  0  0  0
   26.6275  -22.4764   -9.1626 O   0  0  0  0  0  0  0  0  0  0  0  0
   30.9225  -23.0976  -10.8519 C   0  0  0  0  0  0  0  0  0  0  0  0
   31.1939  -22.0704   -9.7457 C   0  0  2  0  0  0  0  0  0  0  0  0
   32.7191  -21.9361   -9.7154 C   0  0  0  0  0  0  0  0  0  0  0  0
   30.7141  -22.6683   -8.4675 C   0  0  0  0  0  0  0  0  0  0  0  0
   29.2273  -22.8172   -8.3454 C   0  0  2  0  0  0  0  0  0  0  0  0
   28.6428  -21.5417   -8.6976 N   0  0  0  0  0  0  0  0  0  0  0  0
   28.8074  -23.1631   -6.9591 C   0  0  0  0  0  0  0  0  0  0  0  0
   28.5620  -24.4427   -6.5146 O   0  0  0  0  0  0  0  0  0  0  0  0
   28.6605  -22.2377   -6.1212 O   0  0  0  0  0  0  0  0  0  0  0  0
  1  2  1  0
  2  3  2  0
  4  5  1  0
  4  2  1  0
  5  6  1  1
  7  5  1  0
  7  8  2  0
  9  7  1  0
 10  9  1  0
 10 11  1  1
 12 13  2  0
 12 11  1  0
 14 13  1  0
 15 20  2  0
 15 14  1  0
 16 15  1  0
 17 18  1  0
 17 16  2  0
 18 19  2  0
 19 20  1  0
 20 12  1  0
 21 28  1  0
 21 10  1  0
 22 21  2  0
 24 23  1  6
 24 26  1  0
 25 24  1  0
 27 26  1  1
 27 28  1  0
 27 29  1  0
 29 31  2  0
 29 30  1  0
M  END
$$$$
