WTG.pdb
     RDKit          3D

 26 27  0  0  1  0  0  0  0  0999 V2000
   24.5427  -19.5398   -8.9713 N   0  0  0  0  0  0  0  0  0  0  0  0
   25.8039  -20.0059   -9.5142 C   0  0  1  0  0  0  0  0  0  0  0  0
   26.2120  -21.2868   -8.7935 C   0  0  0  0  0  0  0  0  0  0  0  0
   26.3308  -21.0387   -7.3314 C   0  0  0  0  0  0  0  0  0  0  0  0
   25.3619  -21.2565   -6.3775 C   0  0  0  0  0  0  0  0  0  0  0  0
   25.8696  -20.9034   -5.1731 N   0  0  0  0  0  0  0  0  0  0  0  0
   27.1254  -20.4690   -5.3246 C   0  0  0  0  0  0  0  0  0  0  0  0
   28.0831  -19.9963   -4.4309 C   0  0  0  0  0  0  0  0  0  0  0  0
   29.3175  -19.6104   -4.8723 C   0  0  0  0  0  0  0  0  0  0  0  0
   29.6163  -19.6908   -6.2194 C   0  0  0  0  0  0  0  0  0  0  0  0
   28.6773  -20.1577   -7.1197 C   0  0  0  0  0  0  0  0  0  0  0  0
   27.4384  -20.5438   -6.6681 C   0  0  0  0  0  0  0  0  0  0  0  0
   25.7211  -20.2860  -10.9601 C   0  0  0  0  0  0  0  0  0  0  0  0
   24.5823  -20.2818  -11.4902 O   0  0  0  0  0  0  0  0  0  0  0  0
   29.2234  -20.7287  -13.3136 C   0  0  0  0  0  0  0  0  0  0  0  0
   28.2596  -19.5755  -13.5072 C   0  0  1  0  0  0  0  0  0  0  0  0
   28.2847  -19.1311  -14.8352 O   0  0  0  0  0  0  0  0  0  0  0  0
   26.8759  -20.0654  -13.1308 C   0  0  2  0  0  0  0  0  0  0  0  0
   26.8523  -20.5552  -11.7644 N   0  0  0  0  0  0  0  0  0  0  0  0
   26.4871  -21.1458  -14.0815 C   0  0  0  0  0  0  0  0  0  0  0  0
   26.7847  -22.3392  -13.8692 O   0  0  0  0  0  0  0  0  0  0  0  0
   25.7616  -20.8340  -15.2618 N   0  0  0  0  0  0  0  0  0  0  0  0
   25.2583  -21.8893  -16.1514 C   0  0  0  0  0  0  0  0  0  0  0  0
   23.7810  -21.7709  -16.1820 C   0  0  0  0  0  0  0  0  0  0  0  0
   23.0976  -21.0222  -17.1318 O   0  0  0  0  0  0  0  0  0  0  0  0
   23.1139  -22.3745  -15.3097 O   0  0  0  0  0  0  0  0  0  0  0  0
  2  1  1  1
  2 13  1  0
  3  2  1  0
  4  3  1  0
  5  4  2  0
  6  7  1  0
  6  5  1  0
  7 12  2  0
  8  7  1  0
  8  9  2  0
  9 10  1  0
 10 11  2  0
 12  4  1  0
 12 11  1  0
 13 19  1  0
 13 14  2  0
 16 15  1  6
 16 17  1  0
 18 16  1  0
 18 19  1  1
 20 18  1  0
 20 21  2  0
 22 20  1  0
 23 22  1  0
 24 23  1  0
 25 24  1  0
 26 24  2  0
M  END
$$$$
