WTG.pdb
     RDKit          3D

 26 27  0  0  1  0  0  0  0  0999 V2000
   24.2318  -19.2949  -14.5881 N   0  0  0  0  0  0  0  0  0  0  0  0
   22.7824  -19.2756  -14.6285 C   0  0  1  0  0  0  0  0  0  0  0  0
   22.3189  -19.6793  -16.0246 C   0  0  0  0  0  0  0  0  0  0  0  0
   22.7695  -18.6760  -17.0263 C   0  0  0  0  0  0  0  0  0  0  0  0
   23.9145  -18.7304  -17.7893 C   0  0  0  0  0  0  0  0  0  0  0  0
   23.9523  -17.6261  -18.5716 N   0  0  0  0  0  0  0  0  0  0  0  0
   22.8743  -16.8707  -18.3352 C   0  0  0  0  0  0  0  0  0  0  0  0
   22.4299  -15.6576  -18.8550 C   0  0  0  0  0  0  0  0  0  0  0  0
   21.2607  -15.0997  -18.4198 C   0  0  0  0  0  0  0  0  0  0  0  0
   20.5136  -15.7476  -17.4541 C   0  0  0  0  0  0  0  0  0  0  0  0
   20.9404  -16.9521  -16.9278 C   0  0  0  0  0  0  0  0  0  0  0  0
   22.1169  -17.5067  -17.3705 C   0  0  0  0  0  0  0  0  0  0  0  0
   22.1830  -20.2006  -13.6483 C   0  0  0  0  0  0  0  0  0  0  0  0
   22.9444  -20.7164  -12.7926 O   0  0  0  0  0  0  0  0  0  0  0  0
   21.8875  -20.0364  -11.1158 C   0  0  0  0  0  0  0  0  0  0  0  0
   20.4345  -20.4550  -11.2149 C   0  0  1  0  0  0  0  0  0  0  0  0
   19.5984  -19.3314  -11.2226 O   0  0  0  0  0  0  0  0  0  0  0  0
   20.2727  -21.2537  -12.4924 C   0  0  2  0  0  0  0  0  0  0  0  0
   20.8076  -20.5275  -13.6301 N   0  0  0  0  0  0  0  0  0  0  0  0
   18.8221  -21.5373  -12.6868 C   0  0  0  0  0  0  0  0  0  0  0  0
   18.0524  -20.6881  -13.1810 O   0  0  0  0  0  0  0  0  0  0  0  0
   18.2816  -22.7947  -12.3085 N   0  0  0  0  0  0  0  0  0  0  0  0
   16.8806  -23.1396  -12.5859 C   0  0  0  0  0  0  0  0  0  0  0  0
   16.0626  -22.5723  -11.4876 C   0  0  0  0  0  0  0  0  0  0  0  0
   14.6768  -22.6591  -11.4485 O   0  0  0  0  0  0  0  0  0  0  0  0
   16.6472  -21.9852  -10.5475 O   0  0  0  0  0  0  0  0  0  0  0  0
  2  1  1  6
  2 13  1  0
  3  2  1  0
  4  3  1  0
  5  4  2  0
  6  7  1  0
  6  5  1  0
  7 12  2  0
  8  7  1  0
  8  9  2  0
  9 10  1  0
 10 11  2  0
 12  4  1  0
 12 11  1  0
 13 19  1  0
 13 14  2  0
 16 15  1  6
 16 17  1  0
 18 16  1  0
 18 19  1  6
 20 18  1  0
 20 21  2  0
 22 20  1  0
 23 22  1  0
 24 23  1  0
 25 24  1  0
 26 24  2  0
M  END
$$$$
