WTG.pdb
     RDKit          3D

 26 27  0  0  1  0  0  0  0  0999 V2000
   28.0912  -21.7898  -10.3949 N   0  0  0  0  0  0  0  0  0  0  0  0
   26.9931  -21.0038   -9.8664 C   0  0  1  0  0  0  0  0  0  0  0  0
   27.5549  -19.7578   -9.1891 C   0  0  0  0  0  0  0  0  0  0  0  0
   28.5271  -20.1420   -8.1306 C   0  0  0  0  0  0  0  0  0  0  0  0
   29.7290  -20.7893   -8.3116 C   0  0  0  0  0  0  0  0  0  0  0  0
   30.3076  -20.9504   -7.0982 N   0  0  0  0  0  0  0  0  0  0  0  0
   29.5191  -20.4300   -6.1517 C   0  0  0  0  0  0  0  0  0  0  0  0
   29.6333  -20.3293   -4.7674 C   0  0  0  0  0  0  0  0  0  0  0  0
   28.6509  -19.7318   -4.0289 C   0  0  0  0  0  0  0  0  0  0  0  0
   27.5337  -19.2231   -4.6642 C   0  0  0  0  0  0  0  0  0  0  0  0
   27.4046  -19.3148   -6.0371 C   0  0  0  0  0  0  0  0  0  0  0  0
   28.3967  -19.9169   -6.7727 C   0  0  0  0  0  0  0  0  0  0  0  0
   26.0498  -20.5818  -10.9191 C   0  0  0  0  0  0  0  0  0  0  0  0
   26.5228  -19.9966  -11.9249 O   0  0  0  0  0  0  0  0  0  0  0  0
   25.3536  -21.4936  -13.5562 C   0  0  0  0  0  0  0  0  0  0  0  0
   23.9144  -21.4543  -13.0835 C   0  0  1  0  0  0  0  0  0  0  0  0
   23.5124  -22.7155  -12.6258 O   0  0  0  0  0  0  0  0  0  0  0  0
   23.8234  -20.4261  -11.9741 C   0  0  2  0  0  0  0  0  0  0  0  0
   24.6555  -20.8043  -10.8461 N   0  0  0  0  0  0  0  0  0  0  0  0
   22.3966  -20.3119  -11.5576 C   0  0  0  0  0  0  0  0  0  0  0  0
   22.0135  -20.6921  -10.4322 O   0  0  0  0  0  0  0  0  0  0  0  0
   21.4338  -19.7613  -12.4445 N   0  0  0  0  0  0  0  0  0  0  0  0
   20.0453  -19.5348  -12.0211 C   0  0  0  0  0  0  0  0  0  0  0  0
   19.3208  -18.9599  -13.1796 C   0  0  0  0  0  0  0  0  0  0  0  0
   19.9371  -18.6544  -14.3864 O   0  0  0  0  0  0  0  0  0  0  0  0
   18.0928  -18.7377  -13.0673 O   0  0  0  0  0  0  0  0  0  0  0  0
  2  1  1  6
  2 13  1  0
  3  2  1  0
  4  3  1  0
  5  4  2  0
  6  7  1  0
  6  5  1  0
  7 12  2  0
  8  7  1  0
  8  9  2  0
  9 10  1  0
 10 11  2  0
 12  4  1  0
 12 11  1  0
 13 19  1  0
 13 14  2  0
 16 15  1  1
 16 17  1  0
 18 16  1  0
 18 19  1  1
 20 18  1  0
 20 21  2  0
 22 20  1  0
 23 22  1  0
 24 23  1  0
 25 24  1  0
 26 24  2  0
M  END
$$$$
