WTG.pdb
     RDKit          3D

 26 27  0  0  1  0  0  0  0  0999 V2000
   21.1590  -18.7577  -14.5851 N   0  0  0  0  0  0  0  0  0  0  0  0
   21.7691  -19.9607  -14.0528 C   0  0  1  0  0  0  0  0  0  0  0  0
   21.8036  -21.0252  -15.1448 C   0  0  0  0  0  0  0  0  0  0  0  0
   20.4241  -21.3257  -15.6138 C   0  0  0  0  0  0  0  0  0  0  0  0
   19.2607  -21.1952  -14.8887 C   0  0  0  0  0  0  0  0  0  0  0  0
   18.2274  -21.5705  -15.6790 N   0  0  0  0  0  0  0  0  0  0  0  0
   18.6895  -21.9350  -16.8799 C   0  0  0  0  0  0  0  0  0  0  0  0
   18.0690  -22.3948  -18.0387 C   0  0  0  0  0  0  0  0  0  0  0  0
   18.8051  -22.7004  -19.1489 C   0  0  0  0  0  0  0  0  0  0  0  0
   20.1788  -22.5509  -19.1189 C   0  0  0  0  0  0  0  0  0  0  0  0
   20.8104  -22.0959  -17.9770 C   0  0  0  0  0  0  0  0  0  0  0  0
   20.0634  -21.7907  -16.8649 C   0  0  0  0  0  0  0  0  0  0  0  0
   23.1468  -19.7272  -13.5802 C   0  0  0  0  0  0  0  0  0  0  0  0
   23.8696  -18.9503  -14.2526 O   0  0  0  0  0  0  0  0  0  0  0  0
   24.6710  -21.4676  -10.0919 C   0  0  0  0  0  0  0  0  0  0  0  0
   25.1846  -20.1030  -10.5044 C   0  0  1  0  0  0  0  0  0  0  0  0
   26.5249  -19.9477  -10.1287 O   0  0  0  0  0  0  0  0  0  0  0  0
   25.0315  -19.9899  -12.0077 C   0  0  2  0  0  0  0  0  0  0  0  0
   23.6818  -20.3314  -12.4194 N   0  0  0  0  0  0  0  0  0  0  0  0
   26.0214  -20.9017  -12.6490 C   0  0  0  0  0  0  0  0  0  0  0  0
   25.8953  -22.1423  -12.5952 O   0  0  0  0  0  0  0  0  0  0  0  0
   27.1409  -20.3695  -13.3419 N   0  0  0  0  0  0  0  0  0  0  0  0
   28.1223  -21.2453  -13.9964 C   0  0  0  0  0  0  0  0  0  0  0  0
   27.6729  -21.4407  -15.3954 C   0  0  0  0  0  0  0  0  0  0  0  0
   28.4038  -22.1550  -16.3362 O   0  0  0  0  0  0  0  0  0  0  0  0
   26.5810  -20.9380  -15.7491 O   0  0  0  0  0  0  0  0  0  0  0  0
  2  1  1  6
  2 13  1  0
  3  2  1  0
  4  3  1  0
  5  4  2  0
  6  7  1  0
  6  5  1  0
  7 12  2  0
  8  7  1  0
  8  9  2  0
  9 10  1  0
 10 11  2  0
 12  4  1  0
 12 11  1  0
 13 19  1  0
 13 14  2  0
 16 15  1  6
 16 17  1  0
 18 16  1  0
 18 19  1  1
 20 18  1  0
 20 21  2  0
 22 20  1  0
 23 22  1  0
 24 23  1  0
 25 24  1  0
 26 24  2  0
M  END
$$$$
