WTG.pdb
     RDKit          3D

 26 27  0  0  1  0  0  0  0  0999 V2000
   28.0886  -21.4578  -10.6410 N   0  0  0  0  0  0  0  0  0  0  0  0
   26.8557  -21.0626   -9.9880 C   0  0  1  0  0  0  0  0  0  0  0  0
   27.1645  -19.9839   -8.9546 C   0  0  0  0  0  0  0  0  0  0  0  0
   28.2605  -20.4328   -8.0544 C   0  0  0  0  0  0  0  0  0  0  0  0
   29.2250  -21.3742   -8.3367 C   0  0  0  0  0  0  0  0  0  0  0  0
   30.0303  -21.4900   -7.2546 N   0  0  0  0  0  0  0  0  0  0  0  0
   29.6146  -20.6575   -6.2940 C   0  0  0  0  0  0  0  0  0  0  0  0
   30.0737  -20.3833   -5.0081 C   0  0  0  0  0  0  0  0  0  0  0  0
   29.4401  -19.4604   -4.2242 C   0  0  0  0  0  0  0  0  0  0  0  0
   28.3330  -18.7938   -4.7144 C   0  0  0  0  0  0  0  0  0  0  0  0
   27.8643  -19.0541   -5.9882 C   0  0  0  0  0  0  0  0  0  0  0  0
   28.5067  -19.9833   -6.7703 C   0  0  0  0  0  0  0  0  0  0  0  0
   25.8636  -20.5304  -10.9411 C   0  0  0  0  0  0  0  0  0  0  0  0
   26.2944  -19.9116  -11.9458 O   0  0  0  0  0  0  0  0  0  0  0  0
   25.3216  -20.7983  -13.5082 C   0  0  0  0  0  0  0  0  0  0  0  0
   23.8876  -21.0909  -13.1153 C   0  0  1  0  0  0  0  0  0  0  0  0
   23.7090  -22.4619  -12.8914 O   0  0  0  0  0  0  0  0  0  0  0  0
   23.5844  -20.2977  -11.8603 C   0  0  2  0  0  0  0  0  0  0  0  0
   24.4680  -20.6845  -10.7753 N   0  0  0  0  0  0  0  0  0  0  0  0
   22.1609  -20.5373  -11.4876 C   0  0  0  0  0  0  0  0  0  0  0  0
   21.8532  -21.2805  -10.5332 O   0  0  0  0  0  0  0  0  0  0  0  0
   21.1148  -19.9168  -12.2204 N   0  0  0  0  0  0  0  0  0  0  0  0
   19.7201  -19.9769  -11.7624 C   0  0  0  0  0  0  0  0  0  0  0  0
   19.1974  -21.3171  -12.1202 C   0  0  0  0  0  0  0  0  0  0  0  0
   17.9557  -21.7839  -11.7080 O   0  0  0  0  0  0  0  0  0  0  0  0
   19.9082  -22.0673  -12.8289 O   0  0  0  0  0  0  0  0  0  0  0  0
  2  1  1  6
  2 13  1  0
  3  2  1  0
  4  3  1  0
  5  4  2  0
  6  7  1  0
  6  5  1  0
  7 12  2  0
  8  7  1  0
  8  9  2  0
  9 10  1  0
 10 11  2  0
 12  4  1  0
 12 11  1  0
 13 19  1  0
 13 14  2  0
 16 15  1  1
 16 17  1  0
 18 16  1  0
 18 19  1  1
 20 18  1  0
 20 21  2  0
 22 20  1  0
 23 22  1  0
 24 23  1  0
 25 24  1  0
 26 24  2  0
M  END
$$$$
