WTG.pdb
     RDKit          3D

 26 27  0  0  1  0  0  0  0  0999 V2000
   27.9757  -21.7273  -10.4852 N   0  0  0  0  0  0  0  0  0  0  0  0
   26.8366  -21.0036   -9.9548 C   0  0  1  0  0  0  0  0  0  0  0  0
   27.3370  -19.7896   -9.1785 C   0  0  0  0  0  0  0  0  0  0  0  0
   28.3081  -20.2120   -8.1336 C   0  0  0  0  0  0  0  0  0  0  0  0
   29.3561  -21.0914   -8.2901 C   0  0  0  0  0  0  0  0  0  0  0  0
   29.9938  -21.2028   -7.1011 N   0  0  0  0  0  0  0  0  0  0  0  0
   29.3911  -20.4272   -6.1935 C   0  0  0  0  0  0  0  0  0  0  0  0
   29.6342  -20.1746   -4.8458 C   0  0  0  0  0  0  0  0  0  0  0  0
   28.8380  -19.3139   -4.1436 C   0  0  0  0  0  0  0  0  0  0  0  0
   27.7816  -18.6893   -4.7793 C   0  0  0  0  0  0  0  0  0  0  0  0
   27.5264  -18.9289   -6.1163 C   0  0  0  0  0  0  0  0  0  0  0  0
   28.3314  -19.7955   -6.8154 C   0  0  0  0  0  0  0  0  0  0  0  0
   25.9249  -20.5390  -11.0173 C   0  0  0  0  0  0  0  0  0  0  0  0
   26.4385  -20.1306  -12.0884 O   0  0  0  0  0  0  0  0  0  0  0  0
   25.3593  -21.1840  -13.5186 C   0  0  0  0  0  0  0  0  0  0  0  0
   23.8866  -21.1595  -13.1622 C   0  0  1  0  0  0  0  0  0  0  0  0
   23.4517  -22.4348  -12.7800 O   0  0  0  0  0  0  0  0  0  0  0  0
   23.7045  -20.1683  -12.0305 C   0  0  2  0  0  0  0  0  0  0  0  0
   24.5174  -20.5336  -10.8844 N   0  0  0  0  0  0  0  0  0  0  0  0
   22.2605  -20.1397  -11.6610 C   0  0  0  0  0  0  0  0  0  0  0  0
   21.8658  -20.5306  -10.5434 O   0  0  0  0  0  0  0  0  0  0  0  0
   21.2945  -19.6612  -12.5853 N   0  0  0  0  0  0  0  0  0  0  0  0
   19.9344  -19.3082  -12.1560 C   0  0  0  0  0  0  0  0  0  0  0  0
   19.1181  -20.5438  -12.2221 C   0  0  0  0  0  0  0  0  0  0  0  0
   17.7887  -20.5991  -11.8232 O   0  0  0  0  0  0  0  0  0  0  0  0
   19.6509  -21.5906  -12.6585 O   0  0  0  0  0  0  0  0  0  0  0  0
  2  1  1  6
  2 13  1  0
  3  2  1  0
  4  3  1  0
  5  4  2  0
  6  7  1  0
  6  5  1  0
  7 12  2  0
  8  7  1  0
  8  9  2  0
  9 10  1  0
 10 11  2  0
 12  4  1  0
 12 11  1  0
 13 19  1  0
 13 14  2  0
 16 15  1  1
 16 17  1  0
 18 16  1  0
 18 19  1  1
 20 18  1  0
 20 21  2  0
 22 20  1  0
 23 22  1  0
 24 23  1  0
 25 24  1  0
 26 24  2  0
M  END
$$$$
