WTG.pdb
     RDKit          3D

 26 27  0  0  1  0  0  0  0  0999 V2000
   27.6874  -21.6902   -9.8112 N   0  0  0  0  0  0  0  0  0  0  0  0
   26.4408  -20.9512   -9.7591 C   0  0  1  0  0  0  0  0  0  0  0  0
   26.6544  -19.6726   -8.9552 C   0  0  0  0  0  0  0  0  0  0  0  0
   26.5833  -19.9634   -7.4979 C   0  0  0  0  0  0  0  0  0  0  0  0
   25.6068  -20.6852   -6.8486 C   0  0  0  0  0  0  0  0  0  0  0  0
   25.9126  -20.7164   -5.5301 N   0  0  0  0  0  0  0  0  0  0  0  0
   27.0471  -20.0415   -5.3157 C   0  0  0  0  0  0  0  0  0  0  0  0
   27.7904  -19.7692   -4.1700 C   0  0  0  0  0  0  0  0  0  0  0  0
   28.9410  -19.0356   -4.2440 C   0  0  0  0  0  0  0  0  0  0  0  0
   29.3694  -18.5600   -5.4691 C   0  0  0  0  0  0  0  0  0  0  0  0
   28.6435  -18.8212   -6.6158 C   0  0  0  0  0  0  0  0  0  0  0  0
   27.4877  -19.5595   -6.5332 C   0  0  0  0  0  0  0  0  0  0  0  0
   25.9503  -20.5862  -11.1015 C   0  0  0  0  0  0  0  0  0  0  0  0
   26.7926  -20.1743  -11.9375 O   0  0  0  0  0  0  0  0  0  0  0  0
   26.3664  -21.2933  -13.7087 C   0  0  0  0  0  0  0  0  0  0  0  0
   24.8635  -21.4741  -13.7789 C   0  0  1  0  0  0  0  0  0  0  0  0
   24.5046  -22.7683  -13.3815 O   0  0  0  0  0  0  0  0  0  0  0  0
   24.2335  -20.4388  -12.8692 C   0  0  2  0  0  0  0  0  0  0  0  0
   24.5921  -20.6785  -11.4830 N   0  0  0  0  0  0  0  0  0  0  0  0
   22.7544  -20.4986  -13.0457 C   0  0  0  0  0  0  0  0  0  0  0  0
   21.9926  -20.7391  -12.0866 O   0  0  0  0  0  0  0  0  0  0  0  0
   22.1766  -20.2803  -14.3244 N   0  0  0  0  0  0  0  0  0  0  0  0
   20.7202  -20.2930  -14.5178 C   0  0  0  0  0  0  0  0  0  0  0  0
   20.2563  -18.8864  -14.4552 C   0  0  0  0  0  0  0  0  0  0  0  0
   19.8302  -18.2778  -13.2816 O   0  0  0  0  0  0  0  0  0  0  0  0
   20.2471  -18.2117  -15.5110 O   0  0  0  0  0  0  0  0  0  0  0  0
  2  1  1  6
  2 13  1  0
  3  2  1  0
  4  3  1  0
  5  4  2  0
  6  7  1  0
  6  5  1  0
  7 12  2  0
  8  7  1  0
  8  9  2  0
  9 10  1  0
 10 11  2  0
 12  4  1  0
 12 11  1  0
 13 19  1  0
 13 14  2  0
 16 15  1  1
 16 17  1  0
 18 16  1  0
 18 19  1  1
 20 18  1  0
 20 21  2  0
 22 20  1  0
 23 22  1  0
 24 23  1  0
 25 24  1  0
 26 24  2  0
M  END
$$$$
