WTG.pdb
     RDKit          3D

 26 27  0  0  1  0  0  0  0  0999 V2000
   27.0025  -20.2555  -17.0397 N   0  0  0  0  0  0  0  0  0  0  0  0
   26.7157  -19.5555  -15.8025 C   0  0  1  0  0  0  0  0  0  0  0  0
   25.9057  -18.3019  -16.1172 C   0  0  0  0  0  0  0  0  0  0  0  0
   26.6541  -17.4297  -17.0618 C   0  0  0  0  0  0  0  0  0  0  0  0
   26.1164  -16.5268  -17.9516 C   0  0  0  0  0  0  0  0  0  0  0  0
   27.1348  -15.9390  -18.6226 N   0  0  0  0  0  0  0  0  0  0  0  0
   28.3007  -16.4339  -18.1933 C   0  0  0  0  0  0  0  0  0  0  0  0
   29.6261  -16.1830  -18.5393 C   0  0  0  0  0  0  0  0  0  0  0  0
   30.6458  -16.8515  -17.9221 C   0  0  0  0  0  0  0  0  0  0  0  0
   30.3565  -17.7853  -16.9450 C   0  0  0  0  0  0  0  0  0  0  0  0
   29.0466  -18.0463  -16.5898 C   0  0  0  0  0  0  0  0  0  0  0  0
   28.0269  -17.3701  -17.2149 C   0  0  0  0  0  0  0  0  0  0  0  0
   25.9482  -20.3857  -14.8550 C   0  0  0  0  0  0  0  0  0  0  0  0
   25.5194  -21.4928  -15.2653 O   0  0  0  0  0  0  0  0  0  0  0  0
   27.0446  -21.6899  -11.6523 C   0  0  0  0  0  0  0  0  0  0  0  0
   25.6847  -21.0979  -11.3414 C   0  0  1  0  0  0  0  0  0  0  0  0
   25.8219  -19.8772  -10.6685 O   0  0  0  0  0  0  0  0  0  0  0  0
   24.9553  -20.9076  -12.6560 C   0  0  2  0  0  0  0  0  0  0  0  0
   25.6780  -19.9949  -13.5235 N   0  0  0  0  0  0  0  0  0  0  0  0
   23.5913  -20.3823  -12.3628 C   0  0  0  0  0  0  0  0  0  0  0  0
   23.2797  -19.2004  -12.6154 O   0  0  0  0  0  0  0  0  0  0  0  0
   22.6082  -21.2273  -11.7831 N   0  0  0  0  0  0  0  0  0  0  0  0
   21.2571  -20.7344  -11.4827 C   0  0  0  0  0  0  0  0  0  0  0  0
   20.4154  -21.0064  -12.6723 C   0  0  0  0  0  0  0  0  0  0  0  0
   19.0727  -20.6589  -12.7493 O   0  0  0  0  0  0  0  0  0  0  0  0
   20.9382  -21.5775  -13.6575 O   0  0  0  0  0  0  0  0  0  0  0  0
  2  1  1  6
  2 13  1  0
  3  2  1  0
  4  3  1  0
  5  4  2  0
  6  7  1  0
  6  5  1  0
  7 12  2  0
  8  7  1  0
  8  9  2  0
  9 10  1  0
 10 11  2  0
 12  4  1  0
 12 11  1  0
 13 19  1  0
 13 14  2  0
 16 15  1  6
 16 17  1  0
 18 16  1  0
 18 19  1  6
 20 18  1  0
 20 21  2  0
 22 20  1  0
 23 22  1  0
 24 23  1  0
 25 24  1  0
 26 24  2  0
M  END
$$$$
