WTG.pdb
     RDKit          3D

 26 27  0  0  1  0  0  0  0  0999 V2000
   28.1749  -21.5268  -10.6567 N   0  0  0  0  0  0  0  0  0  0  0  0
   26.8921  -21.1347  -10.1057 C   0  0  1  0  0  0  0  0  0  0  0  0
   27.1095  -20.0259   -9.0810 C   0  0  0  0  0  0  0  0  0  0  0  0
   28.1850  -20.4103   -8.1277 C   0  0  0  0  0  0  0  0  0  0  0  0
   29.2493  -21.2469   -8.3800 C   0  0  0  0  0  0  0  0  0  0  0  0
   29.9932  -21.3341   -7.2522 N   0  0  0  0  0  0  0  0  0  0  0  0
   29.4423  -20.5845   -6.2914 C   0  0  0  0  0  0  0  0  0  0  0  0
   29.7930  -20.3241   -4.9691 C   0  0  0  0  0  0  0  0  0  0  0  0
   29.0282  -19.4969   -4.1954 C   0  0  0  0  0  0  0  0  0  0  0  0
   27.8958  -18.9143   -4.7327 C   0  0  0  0  0  0  0  0  0  0  0  0
   27.5336  -19.1622   -6.0432 C   0  0  0  0  0  0  0  0  0  0  0  0
   28.3078  -19.9950   -6.8147 C   0  0  0  0  0  0  0  0  0  0  0  0
   25.9652  -20.6420  -11.1421 C   0  0  0  0  0  0  0  0  0  0  0  0
   26.3776  -19.7378  -11.9104 O   0  0  0  0  0  0  0  0  0  0  0  0
   25.0244  -22.0008  -13.9910 C   0  0  0  0  0  0  0  0  0  0  0  0
   23.6473  -21.6271  -13.4809 C   0  0  1  0  0  0  0  0  0  0  0  0
   22.9759  -22.7595  -13.0029 O   0  0  0  0  0  0  0  0  0  0  0  0
   23.8283  -20.6044  -12.3775 C   0  0  2  0  0  0  0  0  0  0  0  0
   24.6509  -21.1364  -11.3060 N   0  0  0  0  0  0  0  0  0  0  0  0
   22.4807  -20.2255  -11.8647 C   0  0  0  0  0  0  0  0  0  0  0  0
   22.0827  -20.5964  -10.7414 O   0  0  0  0  0  0  0  0  0  0  0  0
   21.6132  -19.4253  -12.6545 N   0  0  0  0  0  0  0  0  0  0  0  0
   20.3128  -18.9723  -12.1423 C   0  0  0  0  0  0  0  0  0  0  0  0
   19.3502  -20.0813  -12.3448 C   0  0  0  0  0  0  0  0  0  0  0  0
   19.7140  -21.3198  -12.8580 O   0  0  0  0  0  0  0  0  0  0  0  0
   18.1494  -19.8950  -12.0391 O   0  0  0  0  0  0  0  0  0  0  0  0
  2  1  1  6
  2 13  1  0
  3  2  1  0
  4  3  1  0
  5  4  2  0
  6  7  1  0
  6  5  1  0
  7 12  2  0
  8  7  1  0
  8  9  2  0
  9 10  1  0
 10 11  2  0
 12  4  1  0
 12 11  1  0
 13 19  1  0
 13 14  2  0
 16 15  1  1
 16 17  1  0
 18 16  1  0
 18 19  1  1
 20 18  1  0
 20 21  2  0
 22 20  1  0
 23 22  1  0
 24 23  1  0
 25 24  1  0
 26 24  2  0
M  END
$$$$
