WTG.pdb
     RDKit          3D

 26 27  0  0  1  0  0  0  0  0999 V2000
   28.3353  -21.3852  -10.7729 N   0  0  0  0  0  0  0  0  0  0  0  0
   27.0457  -21.1230  -10.1641 C   0  0  1  0  0  0  0  0  0  0  0  0
   27.2043  -20.0244   -9.1178 C   0  0  0  0  0  0  0  0  0  0  0  0
   28.2719  -20.3884   -8.1477 C   0  0  0  0  0  0  0  0  0  0  0  0
   29.4070  -21.1229   -8.4091 C   0  0  0  0  0  0  0  0  0  0  0  0
   30.1147  -21.2281   -7.2597 N   0  0  0  0  0  0  0  0  0  0  0  0
   29.4726  -20.5880   -6.2765 C   0  0  0  0  0  0  0  0  0  0  0  0
   29.7543  -20.3901   -4.9271 C   0  0  0  0  0  0  0  0  0  0  0  0
   28.8997  -19.6768   -4.1344 C   0  0  0  0  0  0  0  0  0  0  0  0
   27.7450  -19.1476   -4.6793 C   0  0  0  0  0  0  0  0  0  0  0  0
   27.4504  -19.3348   -6.0165 C   0  0  0  0  0  0  0  0  0  0  0  0
   28.3146  -20.0531   -6.8071 C   0  0  0  0  0  0  0  0  0  0  0  0
   26.0386  -20.6902  -11.1512 C   0  0  0  0  0  0  0  0  0  0  0  0
   26.3089  -19.6876  -11.8581 O   0  0  0  0  0  0  0  0  0  0  0  0
   25.3106  -21.5955  -14.2335 C   0  0  0  0  0  0  0  0  0  0  0  0
   23.9519  -21.7746  -13.5869 C   0  0  1  0  0  0  0  0  0  0  0  0
   23.7534  -23.1121  -13.2218 O   0  0  0  0  0  0  0  0  0  0  0  0
   23.8998  -20.8724  -12.3705 C   0  0  2  0  0  0  0  0  0  0  0  0
   24.7994  -21.3458  -11.3339 N   0  0  0  0  0  0  0  0  0  0  0  0
   22.4955  -20.8405  -11.8711 C   0  0  0  0  0  0  0  0  0  0  0  0
   22.2303  -20.9933  -10.6611 O   0  0  0  0  0  0  0  0  0  0  0  0
   21.4192  -20.6330  -12.7739 N   0  0  0  0  0  0  0  0  0  0  0  0
   20.0288  -20.5673  -12.3041 C   0  0  0  0  0  0  0  0  0  0  0  0
   19.1753  -20.3188  -13.4903 C   0  0  0  0  0  0  0  0  0  0  0  0
   17.7871  -20.3122  -13.4404 O   0  0  0  0  0  0  0  0  0  0  0  0
   19.7306  -20.1040  -14.5929 O   0  0  0  0  0  0  0  0  0  0  0  0
  2  1  1  6
  2 13  1  0
  3  2  1  0
  4  3  1  0
  5  4  2  0
  6  7  1  0
  6  5  1  0
  7 12  2  0
  8  7  1  0
  8  9  2  0
  9 10  1  0
 10 11  2  0
 12  4  1  0
 12 11  1  0
 13 19  1  0
 13 14  2  0
 16 15  1  1
 16 17  1  0
 18 16  1  0
 18 19  1  1
 20 18  1  0
 20 21  2  0
 22 20  1  0
 23 22  1  0
 24 23  1  0
 25 24  1  0
 26 24  2  0
M  END
$$$$
