WTG.pdb
     RDKit          3D

 26 27  0  0  1  0  0  0  0  0999 V2000
   24.6163  -20.5889   -9.7560 N   0  0  0  0  0  0  0  0  0  0  0  0
   25.9450  -20.3414  -10.2812 C   0  0  1  0  0  0  0  0  0  0  0  0
   26.9562  -21.1516   -9.4762 C   0  0  0  0  0  0  0  0  0  0  0  0
   26.8908  -20.7733   -8.0389 C   0  0  0  0  0  0  0  0  0  0  0  0
   25.7529  -20.5380   -7.2999 C   0  0  0  0  0  0  0  0  0  0  0  0
   26.1280  -20.2220   -6.0380 N   0  0  0  0  0  0  0  0  0  0  0  0
   27.4619  -20.2473   -5.9460 C   0  0  0  0  0  0  0  0  0  0  0  0
   28.3483  -20.0064   -4.8992 C   0  0  0  0  0  0  0  0  0  0  0  0
   29.6975  -20.1067   -5.0918 C   0  0  0  0  0  0  0  0  0  0  0  0
   30.1850  -20.4507   -6.3385 C   0  0  0  0  0  0  0  0  0  0  0  0
   29.3192  -20.6930   -7.3881 C   0  0  0  0  0  0  0  0  0  0  0  0
   27.9639  -20.5902   -7.1866 C   0  0  0  0  0  0  0  0  0  0  0  0
   26.0643  -20.7192  -11.7021 C   0  0  0  0  0  0  0  0  0  0  0  0
   25.3316  -21.6495  -12.1212 O   0  0  0  0  0  0  0  0  0  0  0  0
   25.2496  -18.8907  -14.6170 C   0  0  0  0  0  0  0  0  0  0  0  0
   26.6625  -19.3515  -14.9134 C   0  0  1  0  0  0  0  0  0  0  0  0
   27.5725  -18.3052  -14.7166 O   0  0  0  0  0  0  0  0  0  0  0  0
   26.9704  -20.5121  -13.9891 C   0  0  2  0  0  0  0  0  0  0  0  0
   26.9552  -20.0884  -12.6006 N   0  0  0  0  0  0  0  0  0  0  0  0
   28.3076  -21.0601  -14.3551 C   0  0  0  0  0  0  0  0  0  0  0  0
   29.3626  -20.5262  -13.9554 O   0  0  0  0  0  0  0  0  0  0  0  0
   28.4079  -22.2146  -15.1759 N   0  0  0  0  0  0  0  0  0  0  0  0
   29.7105  -22.8123  -15.4991 C   0  0  0  0  0  0  0  0  0  0  0  0
   29.9751  -22.5410  -16.9322 C   0  0  0  0  0  0  0  0  0  0  0  0
   30.7414  -23.3761  -17.7354 O   0  0  0  0  0  0  0  0  0  0  0  0
   29.4849  -21.5089  -17.4465 O   0  0  0  0  0  0  0  0  0  0  0  0
  2  1  1  1
  2 13  1  0
  3  2  1  0
  4  3  1  0
  5  4  2  0
  6  7  1  0
  6  5  1  0
  7 12  2  0
  8  7  1  0
  8  9  2  0
  9 10  1  0
 10 11  2  0
 12  4  1  0
 12 11  1  0
 13 19  1  0
 13 14  2  0
 16 15  1  1
 16 17  1  0
 18 16  1  0
 18 19  1  1
 20 18  1  0
 20 21  2  0
 22 20  1  0
 23 22  1  0
 24 23  1  0
 25 24  1  0
 26 24  2  0
M  END
$$$$
