CDH.pdb
     RDKit          3D

 25 25  0  0  1  0  0  0  0  0999 V2000
   46.0338  -13.7203   -7.4213 N   0  0  0  0  0  0  0  0  0  0  0  0
   45.8197  -12.6323   -6.4967 C   0  0  1  0  0  0  0  0  0  0  0  0
   47.1291  -11.8487   -6.3784 C   0  0  0  0  0  0  0  0  0  0  0  0
   46.8277  -10.3838   -5.3755 S   0  0  0  0  0  0  0  0  0  0  0  0
   44.7040  -11.7883   -6.9753 C   0  0  0  0  0  0  0  0  0  0  0  0
   44.6257  -11.5006   -8.2171 O   0  0  0  0  0  0  0  0  0  0  0  0
   43.6935  -11.2704   -6.1133 N   0  0  0  0  0  0  0  0  0  0  0  0
   42.6270  -10.5026   -6.6721 C   0  0  1  0  0  0  0  0  0  0  0  0
   41.4412  -10.6460   -5.6995 C   0  0  0  0  0  0  0  0  0  0  0  0
   40.2670  -10.0501   -6.3911 C   0  0  0  0  0  0  0  0  0  0  0  0
   40.3525   -9.5949   -7.5502 O   0  0  0  0  0  0  0  0  0  0  0  0
   42.9131   -9.0710   -6.8026 C   0  0  0  0  0  0  0  0  0  0  0  0
   43.4624   -8.3692   -5.9167 O   0  0  0  0  0  0  0  0  0  0  0  0
   39.0366   -9.9894   -5.7470 O   0  0  0  0  0  0  0  0  0  0  0  0
   42.5416   -8.4196   -8.0277 N   0  0  0  0  0  0  0  0  0  0  0  0
   42.8162   -6.9979   -8.2334 C   0  0  1  0  0  0  0  0  0  0  0  0
   42.7982   -6.7224   -9.7048 C   0  0  0  0  0  0  0  0  0  0  0  0
   43.2267   -5.3717  -10.0806 C   0  0  0  0  0  0  0  0  0  0  0  0
   43.7251   -4.4316   -9.2087 C   0  0  0  0  0  0  0  0  0  0  0  0
   43.9907   -3.3398   -9.9402 N   0  0  0  0  0  0  0  0  0  0  0  0
   43.6751   -3.5777  -11.2183 C   0  0  0  0  0  0  0  0  0  0  0  0
   43.2051   -4.8273  -11.3060 N   0  0  0  0  0  0  0  0  0  0  0  0
   41.7763   -6.1675   -7.5529 C   0  0  0  0  0  0  0  0  0  0  0  0
   40.5735   -6.5300   -7.4864 O   0  0  0  0  0  0  0  0  0  0  0  0
   42.0977   -4.9553   -6.9624 O   0  0  0  0  0  0  0  0  0  0  0  0
  2  5  1  0
  2  1  1  6
  3  2  1  0
  4  3  1  0
  5  6  2  0
  7  8  1  0
  7  5  1  0
  9 10  1  0
  8  9  1  1
 10 14  1  0
 11 10  2  0
 12 15  1  0
 12  8  1  0
 13 12  2  0
 16 15  1  0
 16 17  1  6
 18 17  1  0
 18 19  2  0
 20 19  1  0
 21 22  2  0
 21 20  1  0
 22 18  1  0
 23 16  1  0
 24 23  2  0
 25 23  1  0
M  END
$$$$
