CDH.pdb
     RDKit          3D

 25 25  0  0  1  0  0  0  0  0999 V2000
   27.9962  -31.4167  -17.1042 N   0  0  0  0  0  0  0  0  0  0  0  0
   27.3946  -32.4972  -16.3591 C   0  0  1  0  0  0  0  0  0  0  0  0
   28.3698  -32.9087  -15.2537 C   0  0  0  0  0  0  0  0  0  0  0  0
   29.8613  -33.5607  -16.0235 S   0  0  0  0  0  0  0  0  0  0  0  0
   26.0894  -32.0596  -15.8194 C   0  0  0  0  0  0  0  0  0  0  0  0
   25.4859  -31.0749  -16.3642 O   0  0  0  0  0  0  0  0  0  0  0  0
   25.4565  -32.6874  -14.7069 N   0  0  0  0  0  0  0  0  0  0  0  0
   24.0462  -32.5434  -14.5348 C   0  0  1  0  0  0  0  0  0  0  0  0
   23.3964  -33.1769  -15.7794 C   0  0  0  0  0  0  0  0  0  0  0  0
   21.9440  -32.8700  -15.6868 C   0  0  0  0  0  0  0  0  0  0  0  0
   21.0825  -33.6314  -16.1725 O   0  0  0  0  0  0  0  0  0  0  0  0
   23.5042  -33.2337  -13.3608 C   0  0  0  0  0  0  0  0  0  0  0  0
   23.2403  -34.4614  -13.3134 O   0  0  0  0  0  0  0  0  0  0  0  0
   21.5166  -31.7116  -15.0479 O   0  0  0  0  0  0  0  0  0  0  0  0
   23.2556  -32.4567  -12.1786 N   0  0  0  0  0  0  0  0  0  0  0  0
   22.8019  -33.0956  -10.9439 C   0  0  1  0  0  0  0  0  0  0  0  0
   23.3921  -32.3542   -9.7849 C   0  0  0  0  0  0  0  0  0  0  0  0
   24.8474  -32.4755   -9.6569 C   0  0  0  0  0  0  0  0  0  0  0  0
   25.6520  -33.2237  -10.4848 C   0  0  0  0  0  0  0  0  0  0  0  0
   26.9050  -33.0742  -10.0315 N   0  0  0  0  0  0  0  0  0  0  0  0
   26.8947  -32.2673   -8.9645 C   0  0  0  0  0  0  0  0  0  0  0  0
   25.6297  -31.8982   -8.7331 N   0  0  0  0  0  0  0  0  0  0  0  0
   21.3101  -33.0558  -10.8600 C   0  0  0  0  0  0  0  0  0  0  0  0
   20.6103  -32.4664  -11.7234 O   0  0  0  0  0  0  0  0  0  0  0  0
   20.6321  -33.6721   -9.8198 O   0  0  0  0  0  0  0  0  0  0  0  0
  2  5  1  0
  2  1  1  1
  3  2  1  0
  4  3  1  0
  5  6  2  0
  7  8  1  0
  7  5  1  0
  9 10  1  0
  8  9  1  6
 10 14  1  0
 11 10  2  0
 12 15  1  0
 12  8  1  0
 13 12  2  0
 16 15  1  0
 16 17  1  1
 18 17  1  0
 18 19  2  0
 20 19  1  0
 21 22  2  0
 21 20  1  0
 22 18  1  0
 23 16  1  0
 24 23  2  0
 25 23  1  0
M  END
$$$$
