CDH.pdb
     RDKit          3D

 25 25  0  0  1  0  0  0  0  0999 V2000
   45.7916  -16.2358   -7.8854 N   0  0  0  0  0  0  0  0  0  0  0  0
   45.9783  -15.0099   -8.6251 C   0  0  1  0  0  0  0  0  0  0  0  0
   46.0731  -15.3648  -10.1109 C   0  0  0  0  0  0  0  0  0  0  0  0
   47.7796  -15.8013  -10.4845 S   0  0  0  0  0  0  0  0  0  0  0  0
   44.8600  -14.0853   -8.3410 C   0  0  0  0  0  0  0  0  0  0  0  0
   43.6724  -14.4209   -8.6692 O   0  0  0  0  0  0  0  0  0  0  0  0
   45.0370  -12.8195   -7.7096 N   0  0  0  0  0  0  0  0  0  0  0  0
   43.8909  -12.0177   -7.4219 C   0  0  1  0  0  0  0  0  0  0  0  0
   44.2973  -11.0914   -6.2601 C   0  0  0  0  0  0  0  0  0  0  0  0
   43.0353  -10.4900   -5.7524 C   0  0  0  0  0  0  0  0  0  0  0  0
   42.9475  -10.0358   -4.5931 O   0  0  0  0  0  0  0  0  0  0  0  0
   43.4547  -11.1623   -8.5293 C   0  0  0  0  0  0  0  0  0  0  0  0
   44.2296  -10.5464   -9.3035 O   0  0  0  0  0  0  0  0  0  0  0  0
   41.9158  -10.4236   -6.5740 O   0  0  0  0  0  0  0  0  0  0  0  0
   42.0431  -11.0146   -8.7497 N   0  0  0  0  0  0  0  0  0  0  0  0
   41.5383  -10.1788   -9.8386 C   0  0  1  0  0  0  0  0  0  0  0  0
   40.1045  -10.5353  -10.0806 C   0  0  0  0  0  0  0  0  0  0  0  0
   39.4402   -9.7353  -11.1140 C   0  0  0  0  0  0  0  0  0  0  0  0
   40.0629   -8.8022  -11.9103 C   0  0  0  0  0  0  0  0  0  0  0  0
   39.1152   -8.2956  -12.7120 N   0  0  0  0  0  0  0  0  0  0  0  0
   37.9446   -8.8817  -12.4363 C   0  0  0  0  0  0  0  0  0  0  0  0
   38.1432   -9.7676  -11.4536 N   0  0  0  0  0  0  0  0  0  0  0  0
   41.6428   -8.7338   -9.4714 C   0  0  0  0  0  0  0  0  0  0  0  0
   42.0616   -7.8692  -10.2836 O   0  0  0  0  0  0  0  0  0  0  0  0
   41.2791   -8.2842   -8.2116 O   0  0  0  0  0  0  0  0  0  0  0  0
  2  5  1  0
  2  1  1  1
  3  2  1  0
  4  3  1  0
  5  6  2  0
  7  8  1  0
  7  5  1  0
  9 10  1  0
  8  9  1  1
 10 14  1  0
 11 10  2  0
 12 15  1  0
 12  8  1  0
 13 12  2  0
 16 15  1  0
 16 17  1  1
 18 17  1  0
 18 19  2  0
 20 19  1  0
 21 22  2  0
 21 20  1  0
 22 18  1  0
 23 16  1  0
 24 23  2  0
 25 23  1  0
M  END
$$$$
