CDH.pdb
     RDKit          3D

 25 25  0  0  1  0  0  0  0  0999 V2000
   20.7054  -12.8918  -18.6363 N   0  0  0  0  0  0  0  0  0  0  0  0
   21.7684  -12.0492  -18.1415 C   0  0  1  0  0  0  0  0  0  0  0  0
   22.6513  -11.6571  -19.3286 C   0  0  0  0  0  0  0  0  0  0  0  0
   23.6450  -13.0843  -19.7954 S   0  0  0  0  0  0  0  0  0  0  0  0
   21.1899  -10.8708  -17.4612 C   0  0  0  0  0  0  0  0  0  0  0  0
   20.1328  -10.3324  -17.9338 O   0  0  0  0  0  0  0  0  0  0  0  0
   21.7556  -10.2936  -16.2868 N   0  0  0  0  0  0  0  0  0  0  0  0
   21.1704   -9.1114  -15.7398 C   0  0  1  0  0  0  0  0  0  0  0  0
   21.6200   -9.0531  -14.2677 C   0  0  0  0  0  0  0  0  0  0  0  0
   20.8224   -7.9681  -13.6363 C   0  0  0  0  0  0  0  0  0  0  0  0
   21.2678   -6.8071  -13.5284 O   0  0  0  0  0  0  0  0  0  0  0  0
   21.6067   -7.8664  -16.3785 C   0  0  0  0  0  0  0  0  0  0  0  0
   22.7380   -7.6879  -16.8955 O   0  0  0  0  0  0  0  0  0  0  0  0
   19.5482   -8.2345  -13.1482 O   0  0  0  0  0  0  0  0  0  0  0  0
   20.6794   -6.7703  -16.4193 N   0  0  0  0  0  0  0  0  0  0  0  0
   21.0490   -5.4990  -17.0407 C   0  0  1  0  0  0  0  0  0  0  0  0
   21.2506   -5.7315  -18.5058 C   0  0  0  0  0  0  0  0  0  0  0  0
   21.5448   -4.5239  -19.2831 C   0  0  0  0  0  0  0  0  0  0  0  0
   20.6033   -3.6282  -19.7347 C   0  0  0  0  0  0  0  0  0  0  0  0
   21.2742   -2.6768  -20.4000 N   0  0  0  0  0  0  0  0  0  0  0  0
   22.5820   -2.9570  -20.3708 C   0  0  0  0  0  0  0  0  0  0  0  0
   22.7498   -4.0928  -19.6840 N   0  0  0  0  0  0  0  0  0  0  0  0
   19.9659   -4.4897  -16.8354 C   0  0  0  0  0  0  0  0  0  0  0  0
   18.7809   -4.8273  -16.5815 O   0  0  0  0  0  0  0  0  0  0  0  0
   20.2254   -3.1305  -16.9163 O   0  0  0  0  0  0  0  0  0  0  0  0
  2  5  1  0
  2  1  1  6
  3  2  1  0
  4  3  1  0
  5  6  2  0
  7  8  1  0
  7  5  1  0
  9 10  1  0
  8  9  1  1
 10 14  1  0
 11 10  2  0
 12 15  1  0
 12  8  1  0
 13 12  2  0
 16 15  1  0
 16 17  1  6
 18 17  1  0
 18 19  2  0
 20 19  1  0
 21 22  2  0
 21 20  1  0
 22 18  1  0
 23 16  1  0
 24 23  2  0
 25 23  1  0
M  END
$$$$
