CDH.pdb
     RDKit          3D

 25 25  0  0  1  0  0  0  0  0999 V2000
   24.6496  -12.0838  -18.4889 N   0  0  0  0  0  0  0  0  0  0  0  0
   23.9944  -12.0408  -17.2030 C   0  0  1  0  0  0  0  0  0  0  0  0
   24.9979  -11.5043  -16.1795 C   0  0  0  0  0  0  0  0  0  0  0  0
   26.2133  -12.7902  -15.8454 S   0  0  0  0  0  0  0  0  0  0  0  0
   22.7826  -11.1985  -17.2929 C   0  0  0  0  0  0  0  0  0  0  0  0
   22.8306  -10.1015  -17.9449 O   0  0  0  0  0  0  0  0  0  0  0  0
   21.5427  -11.5495  -16.6830 N   0  0  0  0  0  0  0  0  0  0  0  0
   20.4164  -10.6871  -16.8470 C   0  0  1  0  0  0  0  0  0  0  0  0
   19.1810  -11.5162  -16.4484 C   0  0  0  0  0  0  0  0  0  0  0  0
   17.9972  -10.6972  -16.8227 C   0  0  0  0  0  0  0  0  0  0  0  0
   17.4675   -9.9063  -16.0154 O   0  0  0  0  0  0  0  0  0  0  0  0
   20.4351   -9.4951  -15.9942 C   0  0  0  0  0  0  0  0  0  0  0  0
   20.9333   -9.4499  -14.8415 O   0  0  0  0  0  0  0  0  0  0  0  0
   17.4534  -10.8017  -18.0979 O   0  0  0  0  0  0  0  0  0  0  0  0
   19.8439   -8.2910  -16.5078 N   0  0  0  0  0  0  0  0  0  0  0  0
   19.9554   -7.0301  -15.7753 C   0  0  1  0  0  0  0  0  0  0  0  0
   21.3512   -6.5133  -15.9362 C   0  0  0  0  0  0  0  0  0  0  0  0
   21.5835   -5.1859  -15.3591 C   0  0  0  0  0  0  0  0  0  0  0  0
   20.6603   -4.4692  -14.6334 C   0  0  0  0  0  0  0  0  0  0  0  0
   21.2568   -3.3173  -14.2943 N   0  0  0  0  0  0  0  0  0  0  0  0
   22.5021   -3.3049  -14.7829 C   0  0  0  0  0  0  0  0  0  0  0  0
   22.7044   -4.4537  -15.4380 N   0  0  0  0  0  0  0  0  0  0  0  0
   18.9834   -6.0315  -16.3156 C   0  0  0  0  0  0  0  0  0  0  0  0
   18.5750   -6.0759  -17.5046 O   0  0  0  0  0  0  0  0  0  0  0  0
   18.4882   -5.0084  -15.5220 O   0  0  0  0  0  0  0  0  0  0  0  0
  2  5  1  0
  2  1  1  6
  3  2  1  0
  4  3  1  0
  5  6  2  0
  7  8  1  0
  7  5  1  0
  9 10  1  0
  8  9  1  1
 10 14  1  0
 11 10  2  0
 12 15  1  0
 12  8  1  0
 13 12  2  0
 16 15  1  0
 16 17  1  6
 18 17  1  0
 18 19  2  0
 20 19  1  0
 21 22  2  0
 21 20  1  0
 22 18  1  0
 23 16  1  0
 24 23  2  0
 25 23  1  0
M  END
$$$$
