CDH.pdb
     RDKit          3D

 25 25  0  0  1  0  0  0  0  0999 V2000
   22.4339  -12.8377  -17.3176 N   0  0  0  0  0  0  0  0  0  0  0  0
   21.5719  -11.8840  -17.9750 C   0  0  1  0  0  0  0  0  0  0  0  0
   20.2547  -12.5891  -18.3074 C   0  0  0  0  0  0  0  0  0  0  0  0
   20.4688  -13.5006  -19.8454 S   0  0  0  0  0  0  0  0  0  0  0  0
   21.3724  -10.7105  -17.0980 C   0  0  0  0  0  0  0  0  0  0  0  0
   20.9675  -10.8869  -15.8998 O   0  0  0  0  0  0  0  0  0  0  0  0
   21.6122   -9.3709  -17.5227 N   0  0  0  0  0  0  0  0  0  0  0  0
   21.3206   -8.2942  -16.6311 C   0  0  1  0  0  0  0  0  0  0  0  0
   22.2516   -7.1368  -17.0389 C   0  0  0  0  0  0  0  0  0  0  0  0
   23.6294   -7.5734  -16.6879 C   0  0  0  0  0  0  0  0  0  0  0  0
   24.4835   -7.8116  -17.5663 O   0  0  0  0  0  0  0  0  0  0  0  0
   19.9446   -7.7956  -16.7105 C   0  0  0  0  0  0  0  0  0  0  0  0
   19.3127   -7.6120  -17.7811 O   0  0  0  0  0  0  0  0  0  0  0  0
   23.9930   -7.7260  -15.3548 O   0  0  0  0  0  0  0  0  0  0  0  0
   19.2660   -7.4945  -15.4810 N   0  0  0  0  0  0  0  0  0  0  0  0
   17.9071   -6.9538  -15.4882 C   0  0  1  0  0  0  0  0  0  0  0  0
   17.0831   -7.7366  -14.5137 C   0  0  0  0  0  0  0  0  0  0  0  0
   16.7652   -9.1031  -14.9387 C   0  0  0  0  0  0  0  0  0  0  0  0
   16.5505   -9.4941  -16.2400 C   0  0  0  0  0  0  0  0  0  0  0  0
   16.2868  -10.8082  -16.2020 N   0  0  0  0  0  0  0  0  0  0  0  0
   16.3327  -11.2307  -14.9335 C   0  0  0  0  0  0  0  0  0  0  0  0
   16.6270  -10.1829  -14.1554 N   0  0  0  0  0  0  0  0  0  0  0  0
   17.9226   -5.5129  -15.0912 C   0  0  0  0  0  0  0  0  0  0  0  0
   16.8799   -4.8092  -15.0985 O   0  0  0  0  0  0  0  0  0  0  0  0
   19.0954   -4.8891  -14.6952 O   0  0  0  0  0  0  0  0  0  0  0  0
  2  5  1  0
  2  1  1  1
  3  2  1  0
  4  3  1  0
  5  6  2  0
  7  8  1  0
  7  5  1  0
  9 10  1  0
  8  9  1  6
 10 14  1  0
 11 10  2  0
 12 15  1  0
 12  8  1  0
 13 12  2  0
 16 15  1  0
 16 17  1  1
 18 17  1  0
 18 19  2  0
 20 19  1  0
 21 22  2  0
 21 20  1  0
 22 18  1  0
 23 16  1  0
 24 23  2  0
 25 23  1  0
M  END
$$$$
