CDH.pdb
     RDKit          3D

 25 25  0  0  1  0  0  0  0  0999 V2000
   25.4240  -32.9122   -4.2132 N   0  0  0  0  0  0  0  0  0  0  0  0
   26.0160  -33.8083   -3.2482 C   0  0  1  0  0  0  0  0  0  0  0  0
   27.4467  -34.1104   -3.7001 C   0  0  0  0  0  0  0  0  0  0  0  0
   28.2454  -35.1096   -2.4327 S   0  0  0  0  0  0  0  0  0  0  0  0
   25.9723  -33.1892   -1.9061 C   0  0  0  0  0  0  0  0  0  0  0  0
   26.2506  -31.9493   -1.7801 O   0  0  0  0  0  0  0  0  0  0  0  0
   25.6299  -33.9116   -0.7258 N   0  0  0  0  0  0  0  0  0  0  0  0
   25.6185  -33.2308    0.5295 C   0  0  1  0  0  0  0  0  0  0  0  0
   24.1940  -33.3943    1.0922 C   0  0  0  0  0  0  0  0  0  0  0  0
   24.1207  -32.5146    2.2892 C   0  0  0  0  0  0  0  0  0  0  0  0
   24.6466  -31.3827    2.3021 O   0  0  0  0  0  0  0  0  0  0  0  0
   26.5458  -33.7767    1.5247 C   0  0  0  0  0  0  0  0  0  0  0  0
   26.7043  -35.0016    1.7563 O   0  0  0  0  0  0  0  0  0  0  0  0
   23.4550  -32.9464    3.4307 O   0  0  0  0  0  0  0  0  0  0  0  0
   27.3312  -32.8506    2.2919 N   0  0  0  0  0  0  0  0  0  0  0  0
   28.3534  -33.3270    3.2231 C   0  0  1  0  0  0  0  0  0  0  0  0
   29.2669  -32.1853    3.5448 C   0  0  0  0  0  0  0  0  0  0  0  0
   30.4946  -32.1388    2.7451 C   0  0  0  0  0  0  0  0  0  0  0  0
   30.8281  -33.0389    1.7596 C   0  0  0  0  0  0  0  0  0  0  0  0
   32.0185  -32.6511    1.2796 N   0  0  0  0  0  0  0  0  0  0  0  0
   32.4209  -31.5544    1.9316 C   0  0  0  0  0  0  0  0  0  0  0  0
   31.4844  -31.2381    2.8332 N   0  0  0  0  0  0  0  0  0  0  0  0
   27.7149  -33.8298    4.4775 C   0  0  0  0  0  0  0  0  0  0  0  0
   26.6040  -33.3969    4.8788 O   0  0  0  0  0  0  0  0  0  0  0  0
   28.3254  -34.8015    5.2551 O   0  0  0  0  0  0  0  0  0  0  0  0
  2  5  1  0
  2  1  1  6
  3  2  1  0
  4  3  1  0
  5  6  2  0
  7  8  1  0
  7  5  1  0
  9 10  1  0
  8  9  1  1
 10 14  1  0
 11 10  2  0
 12 15  1  0
 12  8  1  0
 13 12  2  0
 16 15  1  0
 16 17  1  1
 18 17  1  0
 18 19  2  0
 20 19  1  0
 21 22  2  0
 21 20  1  0
 22 18  1  0
 23 16  1  0
 24 23  2  0
 25 23  1  0
M  END
$$$$
