CDH.pdb
     RDKit          3D

 25 25  0  0  1  0  0  0  0  0999 V2000
   13.2472  -11.2378   -9.9229 N   0  0  0  0  0  0  0  0  0  0  0  0
   14.6523  -10.9238   -9.8137 C   0  0  1  0  0  0  0  0  0  0  0  0
   15.4374  -12.0091  -10.5541 C   0  0  0  0  0  0  0  0  0  0  0  0
   15.3551  -13.5286   -9.5916 S   0  0  0  0  0  0  0  0  0  0  0  0
   14.9027   -9.5759  -10.3674 C   0  0  0  0  0  0  0  0  0  0  0  0
   14.2632   -9.1979  -11.4061 O   0  0  0  0  0  0  0  0  0  0  0  0
   15.8331   -8.6594   -9.7957 N   0  0  0  0  0  0  0  0  0  0  0  0
   16.0941   -7.4240  -10.4628 C   0  0  1  0  0  0  0  0  0  0  0  0
   16.5799   -6.4456   -9.3769 C   0  0  0  0  0  0  0  0  0  0  0  0
   15.3577   -5.9662   -8.6780 C   0  0  0  0  0  0  0  0  0  0  0  0
   15.2514   -6.0199   -7.4355 O   0  0  0  0  0  0  0  0  0  0  0  0
   17.1418   -7.4957  -11.4854 C   0  0  0  0  0  0  0  0  0  0  0  0
   18.3022   -7.9360  -11.2887 O   0  0  0  0  0  0  0  0  0  0  0  0
   14.2975   -5.4431   -9.4094 O   0  0  0  0  0  0  0  0  0  0  0  0
   16.8248   -7.0313  -12.8071 N   0  0  0  0  0  0  0  0  0  0  0  0
   17.8201   -7.0813  -13.8775 C   0  0  1  0  0  0  0  0  0  0  0  0
   17.3827   -8.1030  -14.8806 C   0  0  0  0  0  0  0  0  0  0  0  0
   17.6306   -9.4933  -14.4871 C   0  0  0  0  0  0  0  0  0  0  0  0
   18.8683  -10.0923  -14.4462 C   0  0  0  0  0  0  0  0  0  0  0  0
   18.6646  -11.3554  -14.0449 N   0  0  0  0  0  0  0  0  0  0  0  0
   17.3566  -11.5477  -13.8405 C   0  0  0  0  0  0  0  0  0  0  0  0
   16.7194  -10.4031  -14.1120 N   0  0  0  0  0  0  0  0  0  0  0  0
   17.9361   -5.7453  -14.5375 C   0  0  0  0  0  0  0  0  0  0  0  0
   16.9890   -4.9173  -14.5354 O   0  0  0  0  0  0  0  0  0  0  0  0
   19.1012   -5.3612  -15.1829 O   0  0  0  0  0  0  0  0  0  0  0  0
  2  5  1  0
  2  1  1  6
  3  2  1  0
  4  3  1  0
  5  6  2  0
  7  8  1  0
  7  5  1  0
  9 10  1  0
  8  9  1  1
 10 14  1  0
 11 10  2  0
 12 15  1  0
 12  8  1  0
 13 12  2  0
 16 15  1  0
 16 17  1  6
 18 17  1  0
 18 19  2  0
 20 19  1  0
 21 22  2  0
 21 20  1  0
 22 18  1  0
 23 16  1  0
 24 23  2  0
 25 23  1  0
M  END
$$$$
