CDH.pdb
     RDKit          3D

 25 25  0  0  1  0  0  0  0  0999 V2000
   15.7096   -6.1353  -19.8458 N   0  0  0  0  0  0  0  0  0  0  0  0
   15.8866   -7.1359  -18.8202 C   0  0  1  0  0  0  0  0  0  0  0  0
   16.9177   -8.1494  -19.3224 C   0  0  0  0  0  0  0  0  0  0  0  0
   18.5214   -7.3350  -19.4091 S   0  0  0  0  0  0  0  0  0  0  0  0
   16.3090   -6.4852  -17.5615 C   0  0  0  0  0  0  0  0  0  0  0  0
   16.6896   -5.2664  -17.5848 O   0  0  0  0  0  0  0  0  0  0  0  0
   16.3139   -7.1537  -16.3023 N   0  0  0  0  0  0  0  0  0  0  0  0
   16.7793   -6.4578  -15.1455 C   0  0  1  0  0  0  0  0  0  0  0  0
   15.7872   -6.7935  -14.0161 C   0  0  0  0  0  0  0  0  0  0  0  0
   14.4734   -6.2439  -14.4453 C   0  0  0  0  0  0  0  0  0  0  0  0
   14.2383   -5.0183  -14.4221 O   0  0  0  0  0  0  0  0  0  0  0  0
   18.1123   -6.8619  -14.6892 C   0  0  0  0  0  0  0  0  0  0  0  0
   18.7042   -6.3743  -13.6936 O   0  0  0  0  0  0  0  0  0  0  0  0
   13.4709   -7.1004  -14.8858 O   0  0  0  0  0  0  0  0  0  0  0  0
   18.7943   -7.8874  -15.4283 N   0  0  0  0  0  0  0  0  0  0  0  0
   20.1864   -8.2242  -15.1324 C   0  0  1  0  0  0  0  0  0  0  0  0
   20.5347   -9.4795  -15.8702 C   0  0  0  0  0  0  0  0  0  0  0  0
   21.9207   -9.9257  -15.7001 C   0  0  0  0  0  0  0  0  0  0  0  0
   22.4709  -10.3548  -14.5145 C   0  0  0  0  0  0  0  0  0  0  0  0
   23.7478  -10.6657  -14.7801 N   0  0  0  0  0  0  0  0  0  0  0  0
   23.9954  -10.4438  -16.0759 C   0  0  0  0  0  0  0  0  0  0  0  0
   22.8723   -9.9887  -16.6430 N   0  0  0  0  0  0  0  0  0  0  0  0
   21.0897   -7.1164  -15.5691 C   0  0  0  0  0  0  0  0  0  0  0  0
   20.8784   -6.4609  -16.6218 O   0  0  0  0  0  0  0  0  0  0  0  0
   22.2051   -6.7632  -14.8256 O   0  0  0  0  0  0  0  0  0  0  0  0
  2  5  1  0
  2  1  1  6
  3  2  1  0
  4  3  1  0
  5  6  2  0
  7  8  1  0
  7  5  1  0
  9 10  1  0
  8  9  1  1
 10 14  1  0
 11 10  2  0
 12 15  1  0
 12  8  1  0
 13 12  2  0
 16 15  1  0
 16 17  1  6
 18 17  1  0
 18 19  2  0
 20 19  1  0
 21 22  2  0
 21 20  1  0
 22 18  1  0
 23 16  1  0
 24 23  2  0
 25 23  1  0
M  END
$$$$
