CDH.pdb
     RDKit          3D

 25 25  0  0  1  0  0  0  0  0999 V2000
   15.9131  -14.6068  -16.2217 N   0  0  0  0  0  0  0  0  0  0  0  0
   15.6862  -13.6674  -15.1489 C   0  0  1  0  0  0  0  0  0  0  0  0
   16.5238  -14.1117  -13.9474 C   0  0  0  0  0  0  0  0  0  0  0  0
   15.6767  -15.4782  -13.1365 S   0  0  0  0  0  0  0  0  0  0  0  0
   16.0369  -12.3044  -15.6021 C   0  0  0  0  0  0  0  0  0  0  0  0
   17.1056  -12.1259  -16.2780 O   0  0  0  0  0  0  0  0  0  0  0  0
   15.2343  -11.1599  -15.3225 N   0  0  0  0  0  0  0  0  0  0  0  0
   15.5973   -9.8993  -15.8869 C   0  0  1  0  0  0  0  0  0  0  0  0
   14.3448   -9.0084  -15.7853 C   0  0  0  0  0  0  0  0  0  0  0  0
   13.8775   -9.1142  -14.3772 C   0  0  0  0  0  0  0  0  0  0  0  0
   13.2728  -10.1245  -13.9631 O   0  0  0  0  0  0  0  0  0  0  0  0
   16.6819   -9.2087  -15.1833 C   0  0  0  0  0  0  0  0  0  0  0  0
   17.0901   -9.5070  -14.0329 O   0  0  0  0  0  0  0  0  0  0  0  0
   14.1103   -8.0727  -13.4864 O   0  0  0  0  0  0  0  0  0  0  0  0
   17.3270   -8.1131  -15.8516 N   0  0  0  0  0  0  0  0  0  0  0  0
   18.3789   -7.3448  -15.1867 C   0  0  1  0  0  0  0  0  0  0  0  0
   19.6441   -7.5000  -15.9719 C   0  0  0  0  0  0  0  0  0  0  0  0
   20.7878   -6.7490  -15.4457 C   0  0  0  0  0  0  0  0  0  0  0  0
   21.0907   -6.6062  -14.1114 C   0  0  0  0  0  0  0  0  0  0  0  0
   22.1980   -5.8523  -14.0530 N   0  0  0  0  0  0  0  0  0  0  0  0
   22.5796   -5.5321  -15.2946 C   0  0  0  0  0  0  0  0  0  0  0  0
   21.7131   -6.0832  -16.1522 N   0  0  0  0  0  0  0  0  0  0  0  0
   18.0006   -5.9003  -15.1218 C   0  0  0  0  0  0  0  0  0  0  0  0
   18.3433   -5.1649  -14.1603 O   0  0  0  0  0  0  0  0  0  0  0  0
   17.2517   -5.3076  -16.1265 O   0  0  0  0  0  0  0  0  0  0  0  0
  2  5  1  0
  2  1  1  6
  3  2  1  0
  4  3  1  0
  5  6  2  0
  7  8  1  0
  7  5  1  0
  9 10  1  0
  8  9  1  1
 10 14  1  0
 11 10  2  0
 12 15  1  0
 12  8  1  0
 13 12  2  0
 16 15  1  0
 16 17  1  6
 18 17  1  0
 18 19  2  0
 20 19  1  0
 21 22  2  0
 21 20  1  0
 22 18  1  0
 23 16  1  0
 24 23  2  0
 25 23  1  0
M  END
$$$$
