CDH.pdb
     RDKit          3D

 25 25  0  0  1  0  0  0  0  0999 V2000
   16.6835  -12.9043  -14.2665 N   0  0  0  0  0  0  0  0  0  0  0  0
   15.7060  -11.8558  -14.0937 C   0  0  1  0  0  0  0  0  0  0  0  0
   14.5416  -12.4254  -13.2799 C   0  0  0  0  0  0  0  0  0  0  0  0
   13.4542  -13.3277  -14.3961 S   0  0  0  0  0  0  0  0  0  0  0  0
   16.3373  -10.6951  -13.4301 C   0  0  0  0  0  0  0  0  0  0  0  0
   17.1252  -10.8907  -12.4443 O   0  0  0  0  0  0  0  0  0  0  0  0
   16.1122   -9.3475  -13.8372 N   0  0  0  0  0  0  0  0  0  0  0  0
   16.8041   -8.2924  -13.1684 C   0  0  1  0  0  0  0  0  0  0  0  0
   17.2663   -7.3187  -14.2688 C   0  0  0  0  0  0  0  0  0  0  0  0
   18.0865   -6.2836  -13.5847 C   0  0  0  0  0  0  0  0  0  0  0  0
   18.9510   -6.5889  -12.7378 O   0  0  0  0  0  0  0  0  0  0  0  0
   15.9811   -7.5276  -12.2270 C   0  0  0  0  0  0  0  0  0  0  0  0
   14.8459   -7.0574  -12.4902 O   0  0  0  0  0  0  0  0  0  0  0  0
   17.8996   -4.9386  -13.8823 O   0  0  0  0  0  0  0  0  0  0  0  0
   16.5044   -7.2968  -10.9094 N   0  0  0  0  0  0  0  0  0  0  0  0
   15.7836   -6.4567   -9.9537 C   0  0  1  0  0  0  0  0  0  0  0  0
   15.6378   -7.2181   -8.6729 C   0  0  0  0  0  0  0  0  0  0  0  0
   14.3946   -7.9859   -8.5546 C   0  0  0  0  0  0  0  0  0  0  0  0
   13.3957   -8.0192   -9.4999 C   0  0  0  0  0  0  0  0  0  0  0  0
   12.4407   -8.8249   -9.0134 N   0  0  0  0  0  0  0  0  0  0  0  0
   12.8179   -9.2817   -7.8139 C   0  0  0  0  0  0  0  0  0  0  0  0
   14.0196   -8.7664   -7.5306 N   0  0  0  0  0  0  0  0  0  0  0  0
   16.5406   -5.1922   -9.7043 C   0  0  0  0  0  0  0  0  0  0  0  0
   17.6721   -4.9825  -10.2125 O   0  0  0  0  0  0  0  0  0  0  0  0
   16.0222   -4.1915   -8.8973 O   0  0  0  0  0  0  0  0  0  0  0  0
  2  5  1  0
  2  1  1  1
  3  2  1  0
  4  3  1  0
  5  6  2  0
  7  8  1  0
  7  5  1  0
  9 10  1  0
  8  9  1  6
 10 14  1  0
 11 10  2  0
 12 15  1  0
 12  8  1  0
 13 12  2  0
 16 15  1  0
 16 17  1  1
 18 17  1  0
 18 19  2  0
 20 19  1  0
 21 22  2  0
 21 20  1  0
 22 18  1  0
 23 16  1  0
 24 23  2  0
 25 23  1  0
M  END
$$$$
