HFF.pdb
     RDKit          3D

 33 35  0  0  1  0  0  0  0  0999 V2000
   26.4237  -18.3098  -15.7724 N   0  0  0  0  0  0  0  0  0  0  0  0
   27.2371  -19.1262  -14.8815 C   0  0  1  0  0  0  0  0  0  0  0  0
   28.5848  -18.4324  -14.6439 C   0  0  0  0  0  0  0  0  0  0  0  0
   29.3458  -18.3354  -15.8913 C   0  0  0  0  0  0  0  0  0  0  0  0
   29.7702  -17.1526  -16.4900 C   0  0  0  0  0  0  0  0  0  0  0  0
   30.4272  -17.4903  -17.6127 N   0  0  0  0  0  0  0  0  0  0  0  0
   30.4223  -18.8324  -17.7264 C   0  0  0  0  0  0  0  0  0  0  0  0
   29.7621  -19.3324  -16.6731 N   0  0  0  0  0  0  0  0  0  0  0  0
   26.5518  -19.0719  -13.5505 C   0  0  0  0  0  0  0  0  0  0  0  0
   26.2321  -18.0138  -13.0000 O   0  0  0  0  0  0  0  0  0  0  0  0
   26.2464  -20.2876  -12.8737 N   0  0  0  0  0  0  0  0  0  0  0  0
   25.4867  -20.3400  -11.6595 C   0  0  1  0  0  0  0  0  0  0  0  0
   24.1442  -21.0138  -11.8479 C   0  0  0  0  0  0  0  0  0  0  0  0
   23.2161  -20.8243  -10.7123 C   0  0  0  0  0  0  0  0  0  0  0  0
   22.2856  -19.7933  -10.7318 C   0  0  0  0  0  0  0  0  0  0  0  0
   21.3899  -19.5811   -9.7215 C   0  0  0  0  0  0  0  0  0  0  0  0
   21.3953  -20.4053   -8.6412 C   0  0  0  0  0  0  0  0  0  0  0  0
   22.2963  -21.4425   -8.5689 C   0  0  0  0  0  0  0  0  0  0  0  0
   23.2000  -21.6464   -9.6043 C   0  0  0  0  0  0  0  0  0  0  0  0
   26.2331  -20.8042  -10.4736 C   0  0  0  0  0  0  0  0  0  0  0  0
   26.7887  -21.9590  -10.4429 O   0  0  0  0  0  0  0  0  0  0  0  0
   26.3192  -19.9357   -9.3636 N   0  0  0  0  0  0  0  0  0  0  0  0
   26.7939  -20.3550   -8.0674 C   0  0  1  0  0  0  0  0  0  0  0  0
   27.6424  -19.2099   -7.5368 C   0  0  0  0  0  0  0  0  0  0  0  0
   28.1384  -19.4167   -6.1934 C   0  0  0  0  0  0  0  0  0  0  0  0
   27.3933  -18.9216   -5.1424 C   0  0  0  0  0  0  0  0  0  0  0  0
   27.8147  -19.1064   -3.8199 C   0  0  0  0  0  0  0  0  0  0  0  0
   28.9668  -19.7800   -3.5690 C   0  0  0  0  0  0  0  0  0  0  0  0
   29.7489  -20.2963   -4.6066 C   0  0  0  0  0  0  0  0  0  0  0  0
   29.2899  -20.0884   -5.9199 C   0  0  0  0  0  0  0  0  0  0  0  0
   25.6805  -20.7176   -7.2165 C   0  0  0  0  0  0  0  0  0  0  0  0
   25.8106  -21.7379   -6.2856 O   0  0  0  0  0  0  0  0  0  0  0  0
   24.5537  -20.1329   -7.2765 O   0  0  0  0  0  0  0  0  0  0  0  0
  2  1  1  6
  2  3  1  0
  4  3  1  0
  5  4  2  0
  6  7  1  0
  6  5  1  0
  7  8  2  0
  8  4  1  0
  9 11  1  0
  9  2  1  0
 10  9  2  0
 12 11  1  0
 12 13  1  6
 13 14  1  0
 14 19  1  0
 15 14  2  0
 15 16  1  0
 16 17  2  0
 17 18  1  0
 19 18  2  0
 20 12  1  0
 21 20  2  0
 22 20  1  0
 23 31  1  0
 23 22  1  0
 23 24  1  1
 25 24  1  0
 25 26  2  0
 27 26  1  0
 28 27  2  0
 29 30  2  0
 29 28  1  0
 30 25  1  0
 31 32  1  0
 33 31  2  0
M  END
$$$$
