HFF.pdb
     RDKit          3D

 33 35  0  0  1  0  0  0  0  0999 V2000
   27.4665  -21.5337  -13.6311 N   0  0  0  0  0  0  0  0  0  0  0  0
   27.6131  -20.4090  -12.7171 C   0  0  1  0  0  0  0  0  0  0  0  0
   26.5576  -19.3450  -13.0458 C   0  0  0  0  0  0  0  0  0  0  0  0
   26.9343  -18.5931  -14.2446 C   0  0  0  0  0  0  0  0  0  0  0  0
   28.0597  -18.8314  -15.0285 C   0  0  0  0  0  0  0  0  0  0  0  0
   28.0474  -17.9290  -16.0243 N   0  0  0  0  0  0  0  0  0  0  0  0
   26.9600  -17.1469  -15.8821 C   0  0  0  0  0  0  0  0  0  0  0  0
   26.2930  -17.5624  -14.7970 N   0  0  0  0  0  0  0  0  0  0  0  0
   27.2085  -20.9300  -11.3721 C   0  0  0  0  0  0  0  0  0  0  0  0
   26.2805  -21.7283  -11.2101 O   0  0  0  0  0  0  0  0  0  0  0  0
   27.9163  -20.4957  -10.2147 N   0  0  0  0  0  0  0  0  0  0  0  0
   27.5372  -20.8588   -8.8811 C   0  0  1  0  0  0  0  0  0  0  0  0
   28.6937  -20.7695   -7.9083 C   0  0  0  0  0  0  0  0  0  0  0  0
   28.2824  -20.4927   -6.5150 C   0  0  0  0  0  0  0  0  0  0  0  0
   27.9233  -19.2066   -6.1324 C   0  0  0  0  0  0  0  0  0  0  0  0
   27.5161  -18.8943   -4.8656 C   0  0  0  0  0  0  0  0  0  0  0  0
   27.4539  -19.8727   -3.9247 C   0  0  0  0  0  0  0  0  0  0  0  0
   27.7991  -21.1646   -4.2484 C   0  0  0  0  0  0  0  0  0  0  0  0
   28.2100  -21.4670   -5.5407 C   0  0  0  0  0  0  0  0  0  0  0  0
   26.2900  -20.2375   -8.3937 C   0  0  0  0  0  0  0  0  0  0  0  0
   26.1383  -18.9647   -8.3791 O   0  0  0  0  0  0  0  0  0  0  0  0
   25.2596  -21.0891   -7.9389 N   0  0  0  0  0  0  0  0  0  0  0  0
   24.0456  -20.6043   -7.3288 C   0  0  1  0  0  0  0  0  0  0  0  0
   23.3955  -19.6859   -8.3518 C   0  0  0  0  0  0  0  0  0  0  0  0
   22.8482  -20.3756   -9.4999 C   0  0  0  0  0  0  0  0  0  0  0  0
   23.5823  -20.3753  -10.6687 C   0  0  0  0  0  0  0  0  0  0  0  0
   23.1111  -21.0408  -11.8071 C   0  0  0  0  0  0  0  0  0  0  0  0
   21.9212  -21.6934  -11.7605 C   0  0  0  0  0  0  0  0  0  0  0  0
   21.1487  -21.7164  -10.5953 C   0  0  0  0  0  0  0  0  0  0  0  0
   21.6582  -21.0353   -9.4748 C   0  0  0  0  0  0  0  0  0  0  0  0
   23.2154  -21.7132   -6.9088 C   0  0  0  0  0  0  0  0  0  0  0  0
   22.0004  -21.4829   -6.2803 O   0  0  0  0  0  0  0  0  0  0  0  0
   23.5487  -22.9260   -7.0913 O   0  0  0  0  0  0  0  0  0  0  0  0
  2  1  1  6
  2  3  1  0
  4  3  1  0
  5  4  2  0
  6  7  1  0
  6  5  1  0
  7  8  2  0
  8  4  1  0
  9 11  1  0
  9  2  1  0
 10  9  2  0
 12 11  1  0
 12 13  1  1
 13 14  1  0
 14 19  1  0
 15 14  2  0
 15 16  1  0
 16 17  2  0
 17 18  1  0
 19 18  2  0
 20 12  1  0
 21 20  2  0
 22 20  1  0
 23 31  1  0
 23 22  1  0
 23 24  1  6
 25 24  1  0
 25 26  2  0
 27 26  1  0
 28 27  2  0
 29 30  2  0
 29 28  1  0
 30 25  1  0
 31 32  1  0
 33 31  2  0
M  END
$$$$
