HFF.pdb
     RDKit          3D

 33 35  0  0  1  0  0  0  0  0999 V2000
   27.3548  -23.3855  -17.5913 N   0  0  0  0  0  0  0  0  0  0  0  0
   27.0993  -22.0001  -17.2212 C   0  0  1  0  0  0  0  0  0  0  0  0
   26.0443  -21.4074  -18.1645 C   0  0  0  0  0  0  0  0  0  0  0  0
   26.6342  -21.0836  -19.4651 C   0  0  0  0  0  0  0  0  0  0  0  0
   27.2687  -19.8881  -19.7904 C   0  0  0  0  0  0  0  0  0  0  0  0
   27.6628  -19.9844  -21.0717 N   0  0  0  0  0  0  0  0  0  0  0  0
   27.2952  -21.1907  -21.5449 C   0  0  0  0  0  0  0  0  0  0  0  0
   26.6717  -21.8478  -20.5576 N   0  0  0  0  0  0  0  0  0  0  0  0
   26.4149  -22.0604  -15.8900 C   0  0  0  0  0  0  0  0  0  0  0  0
   25.4812  -22.8310  -15.6468 O   0  0  0  0  0  0  0  0  0  0  0  0
   26.8483  -21.1963  -14.8437 N   0  0  0  0  0  0  0  0  0  0  0  0
   26.1903  -21.1112  -13.5734 C   0  0  1  0  0  0  0  0  0  0  0  0
   27.1424  -20.7474  -12.4540 C   0  0  0  0  0  0  0  0  0  0  0  0
   26.4875  -20.6030  -11.1359 C   0  0  0  0  0  0  0  0  0  0  0  0
   26.4263  -21.6806  -10.2617 C   0  0  0  0  0  0  0  0  0  0  0  0
   25.8521  -21.6019   -9.0239 C   0  0  0  0  0  0  0  0  0  0  0  0
   25.3115  -20.4250   -8.6129 C   0  0  0  0  0  0  0  0  0  0  0  0
   25.3433  -19.3251   -9.4388 C   0  0  0  0  0  0  0  0  0  0  0  0
   25.9314  -19.4201  -10.6940 C   0  0  0  0  0  0  0  0  0  0  0  0
   24.9327  -20.3381  -13.5704 C   0  0  0  0  0  0  0  0  0  0  0  0
   24.9079  -19.1003  -13.9024 O   0  0  0  0  0  0  0  0  0  0  0  0
   23.7474  -21.0034  -13.1878 N   0  0  0  0  0  0  0  0  0  0  0  0
   22.4910  -20.3243  -12.9841 C   0  0  1  0  0  0  0  0  0  0  0  0
   22.0329  -19.8609  -14.3582 C   0  0  0  0  0  0  0  0  0  0  0  0
   21.6337  -20.9360  -15.2405 C   0  0  0  0  0  0  0  0  0  0  0  0
   22.5140  -21.3254  -16.2296 C   0  0  0  0  0  0  0  0  0  0  0  0
   22.1892  -22.3714  -17.1020 C   0  0  0  0  0  0  0  0  0  0  0  0
   20.9975  -23.0094  -16.9731 C   0  0  0  0  0  0  0  0  0  0  0  0
   20.0794  -22.6439  -15.9839 C   0  0  0  0  0  0  0  0  0  0  0  0
   20.4446  -21.5883  -15.1289 C   0  0  0  0  0  0  0  0  0  0  0  0
   21.5539  -21.1926  -12.3035 C   0  0  0  0  0  0  0  0  0  0  0  0
   21.9080  -22.4950  -11.9829 O   0  0  0  0  0  0  0  0  0  0  0  0
   20.3868  -20.8147  -11.9716 O   0  0  0  0  0  0  0  0  0  0  0  0
  2  1  1  6
  2  3  1  0
  4  3  1  0
  5  4  2  0
  6  7  1  0
  6  5  1  0
  7  8  2  0
  8  4  1  0
  9 11  1  0
  9  2  1  0
 10  9  2  0
 12 11  1  0
 12 13  1  1
 13 14  1  0
 14 19  1  0
 15 14  2  0
 15 16  1  0
 16 17  2  0
 17 18  1  0
 19 18  2  0
 20 12  1  0
 21 20  2  0
 22 20  1  0
 23 31  1  0
 23 22  1  0
 23 24  1  6
 25 24  1  0
 25 26  2  0
 27 26  1  0
 28 27  2  0
 29 30  2  0
 29 28  1  0
 30 25  1  0
 31 32  1  0
 33 31  2  0
M  END
$$$$
