HFF.pdb
     RDKit          3D

 33 35  0  0  1  0  0  0  0  0999 V2000
   19.6257   -3.0063  -18.3433 N   0  0  0  0  0  0  0  0  0  0  0  0
   18.4107   -3.7838  -18.1405 C   0  0  1  0  0  0  0  0  0  0  0  0
   17.9593   -4.3814  -19.4797 C   0  0  0  0  0  0  0  0  0  0  0  0
   17.2661   -3.3770  -20.2890 C   0  0  0  0  0  0  0  0  0  0  0  0
   17.7722   -2.7730  -21.4365 C   0  0  0  0  0  0  0  0  0  0  0  0
   16.8379   -1.9130  -21.8766 N   0  0  0  0  0  0  0  0  0  0  0  0
   15.7797   -1.9654  -21.0450 C   0  0  0  0  0  0  0  0  0  0  0  0
   16.0539   -2.8594  -20.0855 N   0  0  0  0  0  0  0  0  0  0  0  0
   18.8253   -4.9703  -17.3254 C   0  0  0  0  0  0  0  0  0  0  0  0
   19.8196   -5.6537  -17.5879 O   0  0  0  0  0  0  0  0  0  0  0  0
   18.0485   -5.3422  -16.1907 N   0  0  0  0  0  0  0  0  0  0  0  0
   18.3961   -6.4296  -15.3243 C   0  0  1  0  0  0  0  0  0  0  0  0
   18.9473   -5.9555  -13.9965 C   0  0  0  0  0  0  0  0  0  0  0  0
   20.1677   -5.1289  -14.1170 C   0  0  0  0  0  0  0  0  0  0  0  0
   20.0784   -3.7428  -14.1168 C   0  0  0  0  0  0  0  0  0  0  0  0
   21.1719   -2.9276  -14.2053 C   0  0  0  0  0  0  0  0  0  0  0  0
   22.4099   -3.4798  -14.2988 C   0  0  0  0  0  0  0  0  0  0  0  0
   22.5569   -4.8477  -14.3046 C   0  0  0  0  0  0  0  0  0  0  0  0
   21.4360   -5.6636  -14.2127 C   0  0  0  0  0  0  0  0  0  0  0  0
   17.3751   -7.4895  -15.2094 C   0  0  0  0  0  0  0  0  0  0  0  0
   16.1865   -7.2320  -14.8045 O   0  0  0  0  0  0  0  0  0  0  0  0
   17.7454   -8.8064  -15.5593 N   0  0  0  0  0  0  0  0  0  0  0  0
   16.8319   -9.9221  -15.5149 C   0  0  1  0  0  0  0  0  0  0  0  0
   17.4153  -10.9836  -16.4344 C   0  0  0  0  0  0  0  0  0  0  0  0
   16.6668  -12.2216  -16.4556 C   0  0  0  0  0  0  0  0  0  0  0  0
   15.4284  -12.2217  -17.0650 C   0  0  0  0  0  0  0  0  0  0  0  0
   14.6661  -13.3944  -17.1311 C   0  0  0  0  0  0  0  0  0  0  0  0
   15.1501  -14.5426  -16.5915 C   0  0  0  0  0  0  0  0  0  0  0  0
   16.3998  -14.5826  -15.9659 C   0  0  0  0  0  0  0  0  0  0  0  0
   17.1330  -13.3829  -15.9209 C   0  0  0  0  0  0  0  0  0  0  0  0
   16.6355  -10.3580  -14.1486 C   0  0  0  0  0  0  0  0  0  0  0  0
   15.3855  -10.7777  -13.7177 O   0  0  0  0  0  0  0  0  0  0  0  0
   17.5762  -10.3790  -13.2943 O   0  0  0  0  0  0  0  0  0  0  0  0
  2  1  1  6
  2  3  1  0
  4  3  1  0
  5  4  2  0
  6  7  1  0
  6  5  1  0
  7  8  2  0
  8  4  1  0
  9 11  1  0
  9  2  1  0
 10  9  2  0
 12 11  1  0
 12 13  1  1
 13 14  1  0
 14 19  1  0
 15 14  2  0
 15 16  1  0
 16 17  2  0
 17 18  1  0
 19 18  2  0
 20 12  1  0
 21 20  2  0
 22 20  1  0
 23 31  1  0
 23 22  1  0
 23 24  1  6
 25 24  1  0
 25 26  2  0
 27 26  1  0
 28 27  2  0
 29 30  2  0
 29 28  1  0
 30 25  1  0
 31 32  1  0
 33 31  2  0
M  END
$$$$
