HFF.pdb
     RDKit          3D

 33 35  0  0  1  0  0  0  0  0999 V2000
   17.1709  -11.7893  -13.4876 N   0  0  0  0  0  0  0  0  0  0  0  0
   16.4505  -10.5362  -13.6676 C   0  0  1  0  0  0  0  0  0  0  0  0
   14.9621  -10.7569  -13.3673 C   0  0  0  0  0  0  0  0  0  0  0  0
   14.3035  -11.4410  -14.4820 C   0  0  0  0  0  0  0  0  0  0  0  0
   13.6061  -10.8195  -15.5139 C   0  0  0  0  0  0  0  0  0  0  0  0
   13.1531  -11.7894  -16.3266 N   0  0  0  0  0  0  0  0  0  0  0  0
   13.5446  -12.9803  -15.8341 C   0  0  0  0  0  0  0  0  0  0  0  0
   14.2430  -12.7531  -14.7135 N   0  0  0  0  0  0  0  0  0  0  0  0
   16.9229   -9.6400  -12.5641 C   0  0  0  0  0  0  0  0  0  0  0  0
   17.1830  -10.0492  -11.4285 O   0  0  0  0  0  0  0  0  0  0  0  0
   17.0860   -8.2478  -12.8183 N   0  0  0  0  0  0  0  0  0  0  0  0
   17.5779   -7.3240  -11.8393 C   0  0  1  0  0  0  0  0  0  0  0  0
   18.8633   -6.6528  -12.2744 C   0  0  0  0  0  0  0  0  0  0  0  0
   19.9959   -7.5876  -12.4492 C   0  0  0  0  0  0  0  0  0  0  0  0
   20.7285   -8.0146  -11.3491 C   0  0  0  0  0  0  0  0  0  0  0  0
   21.7720   -8.8920  -11.4461 C   0  0  0  0  0  0  0  0  0  0  0  0
   22.1231   -9.3787  -12.6652 C   0  0  0  0  0  0  0  0  0  0  0  0
   21.4323   -8.9887  -13.7892 C   0  0  0  0  0  0  0  0  0  0  0  0
   20.3730   -8.0970  -13.6747 C   0  0  0  0  0  0  0  0  0  0  0  0
   16.5689   -6.3963  -11.2913 C   0  0  0  0  0  0  0  0  0  0  0  0
   15.6801   -5.8563  -12.0407 O   0  0  0  0  0  0  0  0  0  0  0  0
   16.6093   -6.1159   -9.9080 N   0  0  0  0  0  0  0  0  0  0  0  0
   15.6718   -5.2369   -9.2525 C   0  0  1  0  0  0  0  0  0  0  0  0
   15.3753   -5.8668   -7.9005 C   0  0  0  0  0  0  0  0  0  0  0  0
   14.4008   -6.9352   -7.9486 C   0  0  0  0  0  0  0  0  0  0  0  0
   13.0688   -6.6067   -7.7985 C   0  0  0  0  0  0  0  0  0  0  0  0
   12.0795   -7.5963   -7.8533 C   0  0  0  0  0  0  0  0  0  0  0  0
   12.4340   -8.8912   -8.0572 C   0  0  0  0  0  0  0  0  0  0  0  0
   13.7726   -9.2634   -8.2136 C   0  0  0  0  0  0  0  0  0  0  0  0
   14.7344   -8.2389   -8.1516 C   0  0  0  0  0  0  0  0  0  0  0  0
   16.2064   -3.8935   -9.1813 C   0  0  0  0  0  0  0  0  0  0  0  0
   17.5434   -3.6535   -9.4625 O   0  0  0  0  0  0  0  0  0  0  0  0
   15.4947   -2.8889   -8.8660 O   0  0  0  0  0  0  0  0  0  0  0  0
  2  1  1  1
  2  3  1  0
  4  3  1  0
  5  4  2  0
  6  7  1  0
  6  5  1  0
  7  8  2  0
  8  4  1  0
  9 11  1  0
  9  2  1  0
 10  9  2  0
 12 11  1  0
 12 13  1  6
 13 14  1  0
 14 19  1  0
 15 14  2  0
 15 16  1  0
 16 17  2  0
 17 18  1  0
 19 18  2  0
 20 12  1  0
 21 20  2  0
 22 20  1  0
 23 31  1  0
 23 22  1  0
 23 24  1  1
 25 24  1  0
 25 26  2  0
 27 26  1  0
 28 27  2  0
 29 30  2  0
 29 28  1  0
 30 25  1  0
 31 32  1  0
 33 31  2  0
M  END
$$$$
