HFF.pdb
     RDKit          3D

 33 35  0  0  1  0  0  0  0  0999 V2000
   28.4318  -22.2640  -18.2350 N   0  0  0  0  0  0  0  0  0  0  0  0
   27.8232  -21.0196  -17.7846 C   0  0  1  0  0  0  0  0  0  0  0  0
   26.6771  -20.6413  -18.7319 C   0  0  0  0  0  0  0  0  0  0  0  0
   27.1990  -20.0829  -19.9810 C   0  0  0  0  0  0  0  0  0  0  0  0
   27.1207  -20.6875  -21.2323 C   0  0  0  0  0  0  0  0  0  0  0  0
   27.7167  -19.8618  -22.1094 N   0  0  0  0  0  0  0  0  0  0  0  0
   28.1573  -18.7755  -21.4460 C   0  0  0  0  0  0  0  0  0  0  0  0
   27.8353  -18.9235  -20.1539 N   0  0  0  0  0  0  0  0  0  0  0  0
   27.1423  -21.3511  -16.4920 C   0  0  0  0  0  0  0  0  0  0  0  0
   26.3762  -22.3106  -16.3609 O   0  0  0  0  0  0  0  0  0  0  0  0
   27.3782  -20.5328  -15.3501 N   0  0  0  0  0  0  0  0  0  0  0  0
   26.6943  -20.7101  -14.1032 C   0  0  1  0  0  0  0  0  0  0  0  0
   27.4537  -20.1109  -12.9387 C   0  0  0  0  0  0  0  0  0  0  0  0
   26.7768  -20.2781  -11.6345 C   0  0  0  0  0  0  0  0  0  0  0  0
   25.8557  -19.3351  -11.1968 C   0  0  0  0  0  0  0  0  0  0  0  0
   25.1848  -19.4461  -10.0112 C   0  0  0  0  0  0  0  0  0  0  0  0
   25.4164  -20.5199   -9.2115 C   0  0  0  0  0  0  0  0  0  0  0  0
   26.3195  -21.4843   -9.5953 C   0  0  0  0  0  0  0  0  0  0  0  0
   26.9932  -21.3584  -10.8039 C   0  0  0  0  0  0  0  0  0  0  0  0
   25.2574  -20.3723  -14.1237 C   0  0  0  0  0  0  0  0  0  0  0  0
   24.8466  -19.2204  -14.5079 O   0  0  0  0  0  0  0  0  0  0  0  0
   24.3391  -21.3596  -13.7044 N   0  0  0  0  0  0  0  0  0  0  0  0
   22.9184  -21.1274  -13.6091 C   0  0  1  0  0  0  0  0  0  0  0  0
   22.2549  -22.2202  -14.4327 C   0  0  0  0  0  0  0  0  0  0  0  0
   20.8091  -22.1631  -14.4326 C   0  0  0  0  0  0  0  0  0  0  0  0
   20.1899  -21.3794  -15.3851 C   0  0  0  0  0  0  0  0  0  0  0  0
   18.7932  -21.2990  -15.4445 C   0  0  0  0  0  0  0  0  0  0  0  0
   18.0408  -21.9994  -14.5573 C   0  0  0  0  0  0  0  0  0  0  0  0
   18.6311  -22.8040  -13.5779 C   0  0  0  0  0  0  0  0  0  0  0  0
   20.0365  -22.8566  -13.5528 C   0  0  0  0  0  0  0  0  0  0  0  0
   22.5061  -21.0911  -12.2220 C   0  0  0  0  0  0  0  0  0  0  0  0
   21.5112  -20.2179  -11.8073 O   0  0  0  0  0  0  0  0  0  0  0  0
   23.0214  -21.8406  -11.3344 O   0  0  0  0  0  0  0  0  0  0  0  0
  2  1  1  6
  2  3  1  0
  4  3  1  0
  5  4  2  0
  6  7  1  0
  6  5  1  0
  7  8  2  0
  8  4  1  0
  9 11  1  0
  9  2  1  0
 10  9  2  0
 12 11  1  0
 12 13  1  1
 13 14  1  0
 14 19  1  0
 15 14  2  0
 15 16  1  0
 16 17  2  0
 17 18  1  0
 19 18  2  0
 20 12  1  0
 21 20  2  0
 22 20  1  0
 23 31  1  0
 23 22  1  0
 23 24  1  6
 25 24  1  0
 25 26  2  0
 27 26  1  0
 28 27  2  0
 29 30  2  0
 29 28  1  0
 30 25  1  0
 31 32  1  0
 33 31  2  0
M  END
$$$$
