HFF.pdb
     RDKit          3D

 33 35  0  0  1  0  0  0  0  0999 V2000
   28.0100  -21.8150  -13.2413 N   0  0  0  0  0  0  0  0  0  0  0  0
   27.9045  -20.6474  -12.3768 C   0  0  1  0  0  0  0  0  0  0  0  0
   27.0832  -19.5621  -13.0852 C   0  0  0  0  0  0  0  0  0  0  0  0
   27.8422  -18.9765  -14.1922 C   0  0  0  0  0  0  0  0  0  0  0  0
   29.0948  -19.3998  -14.6273 C   0  0  0  0  0  0  0  0  0  0  0  0
   29.4463  -18.6073  -15.6543 N   0  0  0  0  0  0  0  0  0  0  0  0
   28.4596  -17.7152  -15.8660 C   0  0  0  0  0  0  0  0  0  0  0  0
   27.4915  -17.9518  -14.9705 N   0  0  0  0  0  0  0  0  0  0  0  0
   27.0424  -21.0752  -11.2288 C   0  0  0  0  0  0  0  0  0  0  0  0
   26.2792  -22.0443  -11.2839 O   0  0  0  0  0  0  0  0  0  0  0  0
   27.0926  -20.3420  -10.0085 N   0  0  0  0  0  0  0  0  0  0  0  0
   25.9283  -20.0254   -9.2351 C   0  0  1  0  0  0  0  0  0  0  0  0
   26.2257  -19.0463   -8.1195 C   0  0  0  0  0  0  0  0  0  0  0  0
   27.1760  -19.5613   -7.1100 C   0  0  0  0  0  0  0  0  0  0  0  0
   26.9257  -20.7634   -6.4607 C   0  0  0  0  0  0  0  0  0  0  0  0
   27.7759  -21.2988   -5.5342 C   0  0  0  0  0  0  0  0  0  0  0  0
   28.9222  -20.6397   -5.2211 C   0  0  0  0  0  0  0  0  0  0  0  0
   29.2200  -19.4440   -5.8332 C   0  0  0  0  0  0  0  0  0  0  0  0
   28.3465  -18.9128   -6.7740 C   0  0  0  0  0  0  0  0  0  0  0  0
   24.7245  -19.6944  -10.0227 C   0  0  0  0  0  0  0  0  0  0  0  0
   24.7739  -18.8746  -11.0070 O   0  0  0  0  0  0  0  0  0  0  0  0
   23.5061  -20.3090   -9.6600 N   0  0  0  0  0  0  0  0  0  0  0  0
   22.3117  -20.2315  -10.4654 C   0  0  1  0  0  0  0  0  0  0  0  0
   22.6363  -20.9376  -11.7726 C   0  0  0  0  0  0  0  0  0  0  0  0
   21.5198  -21.0253  -12.6886 C   0  0  0  0  0  0  0  0  0  0  0  0
   21.2876  -19.9592  -13.5338 C   0  0  0  0  0  0  0  0  0  0  0  0
   20.2322  -19.9947  -14.4533 C   0  0  0  0  0  0  0  0  0  0  0  0
   19.4301  -21.0887  -14.5148 C   0  0  0  0  0  0  0  0  0  0  0  0
   19.6332  -22.1883  -13.6754 C   0  0  0  0  0  0  0  0  0  0  0  0
   20.7039  -22.1117  -12.7663 C   0  0  0  0  0  0  0  0  0  0  0  0
   21.1843  -20.7894   -9.7491 C   0  0  0  0  0  0  0  0  0  0  0  0
   21.3703  -21.8189   -8.8381 O   0  0  0  0  0  0  0  0  0  0  0  0
   19.9947  -20.3736   -9.9135 O   0  0  0  0  0  0  0  0  0  0  0  0
  2  1  1  6
  2  3  1  0
  4  3  1  0
  5  4  2  0
  6  7  1  0
  6  5  1  0
  7  8  2  0
  8  4  1  0
  9 11  1  0
  9  2  1  0
 10  9  2  0
 12 11  1  0
 12 13  1  1
 13 14  1  0
 14 19  1  0
 15 14  2  0
 15 16  1  0
 16 17  2  0
 17 18  1  0
 19 18  2  0
 20 12  1  0
 21 20  2  0
 22 20  1  0
 23 31  1  0
 23 22  1  0
 23 24  1  6
 25 24  1  0
 25 26  2  0
 27 26  1  0
 28 27  2  0
 29 30  2  0
 29 28  1  0
 30 25  1  0
 31 32  1  0
 33 31  2  0
M  END
$$$$
