HFF.pdb
     RDKit          3D

 33 35  0  0  1  0  0  0  0  0999 V2000
   26.8120  -21.6923  -13.2710 N   0  0  0  0  0  0  0  0  0  0  0  0
   26.6398  -20.4329  -12.5597 C   0  0  1  0  0  0  0  0  0  0  0  0
   25.2523  -19.8573  -12.8723 C   0  0  0  0  0  0  0  0  0  0  0  0
   25.2732  -19.1062  -14.1293 C   0  0  0  0  0  0  0  0  0  0  0  0
   26.3925  -18.9023  -14.9312 C   0  0  0  0  0  0  0  0  0  0  0  0
   25.9974  -18.1651  -15.9832 N   0  0  0  0  0  0  0  0  0  0  0  0
   24.6810  -17.9088  -15.8582 C   0  0  0  0  0  0  0  0  0  0  0  0
   24.2544  -18.4872  -14.7274 N   0  0  0  0  0  0  0  0  0  0  0  0
   26.5717  -20.7982  -11.1084 C   0  0  0  0  0  0  0  0  0  0  0  0
   25.9354  -21.7690  -10.6872 O   0  0  0  0  0  0  0  0  0  0  0  0
   27.2675  -20.0001  -10.1554 N   0  0  0  0  0  0  0  0  0  0  0  0
   27.2295  -20.2511   -8.7449 C   0  0  1  0  0  0  0  0  0  0  0  0
   28.3338  -19.5307   -8.0011 C   0  0  0  0  0  0  0  0  0  0  0  0
   28.3482  -19.7988   -6.5468 C   0  0  0  0  0  0  0  0  0  0  0  0
   27.8961  -18.8372   -5.6522 C   0  0  0  0  0  0  0  0  0  0  0  0
   27.8669  -19.0351   -4.3002 C   0  0  0  0  0  0  0  0  0  0  0  0
   28.2958  -20.2192   -3.7899 C   0  0  0  0  0  0  0  0  0  0  0  0
   28.7550  -21.2071   -4.6301 C   0  0  0  0  0  0  0  0  0  0  0  0
   28.7776  -20.9917   -6.0026 C   0  0  0  0  0  0  0  0  0  0  0  0
   25.8979  -20.1205   -8.1215 C   0  0  0  0  0  0  0  0  0  0  0  0
   25.1883  -19.0640   -8.2749 O   0  0  0  0  0  0  0  0  0  0  0  0
   25.4221  -21.1989   -7.3439 N   0  0  0  0  0  0  0  0  0  0  0  0
   24.1743  -21.1613   -6.6208 C   0  0  1  0  0  0  0  0  0  0  0  0
   23.2044  -22.0314   -7.4051 C   0  0  0  0  0  0  0  0  0  0  0  0
   22.5154  -21.3346   -8.4697 C   0  0  0  0  0  0  0  0  0  0  0  0
   21.4680  -20.5026   -8.1301 C   0  0  0  0  0  0  0  0  0  0  0  0
   20.7752  -19.7893   -9.1160 C   0  0  0  0  0  0  0  0  0  0  0  0
   21.1379  -19.9165  -10.4183 C   0  0  0  0  0  0  0  0  0  0  0  0
   22.1934  -20.7494  -10.8019 C   0  0  0  0  0  0  0  0  0  0  0  0
   22.8625  -21.4481   -9.7806 C   0  0  0  0  0  0  0  0  0  0  0  0
   24.3747  -21.5773   -5.2489 C   0  0  0  0  0  0  0  0  0  0  0  0
   25.2137  -22.6415   -4.9527 O   0  0  0  0  0  0  0  0  0  0  0  0
   23.8065  -21.0016   -4.2687 O   0  0  0  0  0  0  0  0  0  0  0  0
  2  1  1  6
  2  3  1  0
  4  3  1  0
  5  4  2  0
  6  7  1  0
  6  5  1  0
  7  8  2  0
  8  4  1  0
  9 11  1  0
  9  2  1  0
 10  9  2  0
 12 11  1  0
 12 13  1  1
 13 14  1  0
 14 19  1  0
 15 14  2  0
 15 16  1  0
 16 17  2  0
 17 18  1  0
 19 18  2  0
 20 12  1  0
 21 20  2  0
 22 20  1  0
 23 31  1  0
 23 22  1  0
 23 24  1  6
 25 24  1  0
 25 26  2  0
 27 26  1  0
 28 27  2  0
 29 30  2  0
 29 28  1  0
 30 25  1  0
 31 32  1  0
 33 31  2  0
M  END
$$$$
