HFF.pdb
     RDKit          3D

 33 35  0  0  1  0  0  0  0  0999 V2000
   26.7173  -20.5974  -16.5602 N   0  0  0  0  0  0  0  0  0  0  0  0
   25.9431  -19.6851  -15.7294 C   0  0  1  0  0  0  0  0  0  0  0  0
   24.6394  -19.3209  -16.4518 C   0  0  0  0  0  0  0  0  0  0  0  0
   24.9021  -18.4141  -17.5712 C   0  0  0  0  0  0  0  0  0  0  0  0
   24.8542  -18.7580  -18.9192 C   0  0  0  0  0  0  0  0  0  0  0  0
   25.1600  -17.6535  -19.6211 N   0  0  0  0  0  0  0  0  0  0  0  0
   25.3937  -16.6465  -18.7576 C   0  0  0  0  0  0  0  0  0  0  0  0
   25.2329  -17.1232  -17.5158 N   0  0  0  0  0  0  0  0  0  0  0  0
   25.5000  -20.4952  -14.5498 C   0  0  0  0  0  0  0  0  0  0  0  0
   25.0933  -21.6572  -14.6450 O   0  0  0  0  0  0  0  0  0  0  0  0
   25.5434  -19.9146  -13.2497 N   0  0  0  0  0  0  0  0  0  0  0  0
   25.1174  -20.6045  -12.0679 C   0  0  1  0  0  0  0  0  0  0  0  0
   26.1060  -20.4638  -10.9301 C   0  0  0  0  0  0  0  0  0  0  0  0
   27.5101  -20.7082  -11.3249 C   0  0  0  0  0  0  0  0  0  0  0  0
   28.1410  -19.8639  -12.2296 C   0  0  0  0  0  0  0  0  0  0  0  0
   29.4415  -20.0278  -12.6167 C   0  0  0  0  0  0  0  0  0  0  0  0
   30.1654  -21.0573  -12.1045 C   0  0  0  0  0  0  0  0  0  0  0  0
   29.5903  -21.9251  -11.2050 C   0  0  0  0  0  0  0  0  0  0  0  0
   28.2675  -21.7451  -10.8200 C   0  0  0  0  0  0  0  0  0  0  0  0
   23.7128  -20.3706  -11.6785 C   0  0  0  0  0  0  0  0  0  0  0  0
   23.3913  -19.4321  -10.8668 O   0  0  0  0  0  0  0  0  0  0  0  0
   22.7239  -21.2158  -12.2276 N   0  0  0  0  0  0  0  0  0  0  0  0
   21.3833  -20.7737  -12.5252 C   0  0  1  0  0  0  0  0  0  0  0  0
   21.5296  -19.5331  -13.3925 C   0  0  0  0  0  0  0  0  0  0  0  0
   20.2893  -18.8244  -13.6221 C   0  0  0  0  0  0  0  0  0  0  0  0
   19.6784  -18.9656  -14.8517 C   0  0  0  0  0  0  0  0  0  0  0  0
   18.4677  -18.3175  -15.1252 C   0  0  0  0  0  0  0  0  0  0  0  0
   17.8885  -17.5436  -14.1715 C   0  0  0  0  0  0  0  0  0  0  0  0
   18.4765  -17.3759  -12.9141 C   0  0  0  0  0  0  0  0  0  0  0  0
   19.6922  -18.0440  -12.6806 C   0  0  0  0  0  0  0  0  0  0  0  0
   20.6243  -21.8439  -13.1367 C   0  0  0  0  0  0  0  0  0  0  0  0
   19.2908  -22.0372  -12.8066 O   0  0  0  0  0  0  0  0  0  0  0  0
   21.1284  -22.6416  -13.9880 O   0  0  0  0  0  0  0  0  0  0  0  0
  2  1  1  6
  2  3  1  0
  4  3  1  0
  5  4  2  0
  6  7  1  0
  6  5  1  0
  7  8  2  0
  8  4  1  0
  9 11  1  0
  9  2  1  0
 10  9  2  0
 12 11  1  0
 12 13  1  1
 13 14  1  0
 14 19  1  0
 15 14  2  0
 15 16  1  0
 16 17  2  0
 17 18  1  0
 19 18  2  0
 20 12  1  0
 21 20  2  0
 22 20  1  0
 23 31  1  0
 23 22  1  0
 23 24  1  6
 25 24  1  0
 25 26  2  0
 27 26  1  0
 28 27  2  0
 29 30  2  0
 29 28  1  0
 30 25  1  0
 31 32  1  0
 33 31  2  0
M  END
$$$$
