HFF.pdb
     RDKit          3D

 33 35  0  0  1  0  0  0  0  0999 V2000
   28.0201  -19.8514  -14.8956 N   0  0  0  0  0  0  0  0  0  0  0  0
   27.9680  -19.2757  -13.5585 C   0  0  1  0  0  0  0  0  0  0  0  0
   26.5713  -18.6912  -13.3100 C   0  0  0  0  0  0  0  0  0  0  0  0
   26.3599  -17.4894  -14.1196 C   0  0  0  0  0  0  0  0  0  0  0  0
   27.1603  -16.3507  -14.1012 C   0  0  0  0  0  0  0  0  0  0  0  0
   26.6304  -15.4797  -14.9768 N   0  0  0  0  0  0  0  0  0  0  0  0
   25.5373  -16.0386  -15.5310 C   0  0  0  0  0  0  0  0  0  0  0  0
   25.3856  -17.2597  -15.0009 N   0  0  0  0  0  0  0  0  0  0  0  0
   28.0567  -20.4381  -12.6178 C   0  0  0  0  0  0  0  0  0  0  0  0
   27.5499  -21.5385  -12.8568 O   0  0  0  0  0  0  0  0  0  0  0  0
   28.7548  -20.2857  -11.3854 N   0  0  0  0  0  0  0  0  0  0  0  0
   28.9755  -21.3662  -10.4701 C   0  0  1  0  0  0  0  0  0  0  0  0
   30.3263  -21.2807   -9.7921 C   0  0  0  0  0  0  0  0  0  0  0  0
   31.3811  -22.0740  -10.4594 C   0  0  0  0  0  0  0  0  0  0  0  0
   32.6572  -22.1420   -9.9151 C   0  0  0  0  0  0  0  0  0  0  0  0
   33.6661  -22.8741  -10.4756 C   0  0  0  0  0  0  0  0  0  0  0  0
   33.4291  -23.5729  -11.6165 C   0  0  0  0  0  0  0  0  0  0  0  0
   32.1833  -23.5405  -12.1995 C   0  0  0  0  0  0  0  0  0  0  0  0
   31.1672  -22.7927  -11.6176 C   0  0  0  0  0  0  0  0  0  0  0  0
   27.8556  -21.6458   -9.5498 C   0  0  0  0  0  0  0  0  0  0  0  0
   27.8445  -22.6914   -8.8084 O   0  0  0  0  0  0  0  0  0  0  0  0
   26.7870  -20.7237   -9.5079 N   0  0  0  0  0  0  0  0  0  0  0  0
   25.7154  -20.7998   -8.5450 C   0  0  1  0  0  0  0  0  0  0  0  0
   25.7808  -19.5132   -7.7367 C   0  0  0  0  0  0  0  0  0  0  0  0
   26.8467  -19.4847   -6.7588 C   0  0  0  0  0  0  0  0  0  0  0  0
   26.9088  -20.5085   -5.8353 C   0  0  0  0  0  0  0  0  0  0  0  0
   27.9280  -20.5428   -4.8759 C   0  0  0  0  0  0  0  0  0  0  0  0
   28.8650  -19.5602   -4.8544 C   0  0  0  0  0  0  0  0  0  0  0  0
   28.8359  -18.5065   -5.7729 C   0  0  0  0  0  0  0  0  0  0  0  0
   27.7953  -18.5097   -6.7194 C   0  0  0  0  0  0  0  0  0  0  0  0
   24.4514  -21.0208   -9.2149 C   0  0  0  0  0  0  0  0  0  0  0  0
   23.3230  -21.3716   -8.4883 O   0  0  0  0  0  0  0  0  0  0  0  0
   24.3137  -20.9062  -10.4731 O   0  0  0  0  0  0  0  0  0  0  0  0
  2  1  1  6
  2  3  1  0
  4  3  1  0
  5  4  2  0
  6  7  1  0
  6  5  1  0
  7  8  2  0
  8  4  1  0
  9 11  1  0
  9  2  1  0
 10  9  2  0
 12 11  1  0
 12 13  1  1
 13 14  1  0
 14 19  1  0
 15 14  2  0
 15 16  1  0
 16 17  2  0
 17 18  1  0
 19 18  2  0
 20 12  1  0
 21 20  2  0
 22 20  1  0
 23 31  1  0
 23 22  1  0
 23 24  1  6
 25 24  1  0
 25 26  2  0
 27 26  1  0
 28 27  2  0
 29 30  2  0
 29 28  1  0
 30 25  1  0
 31 32  1  0
 33 31  2  0
M  END
$$$$
