HFF.pdb
     RDKit          3D

 33 35  0  0  1  0  0  0  0  0999 V2000
   14.4303  -11.4154    7.3555 N   0  0  0  0  0  0  0  0  0  0  0  0
   15.5642  -11.5050    8.2653 C   0  0  1  0  0  0  0  0  0  0  0  0
   15.0542  -11.5479    9.7118 C   0  0  0  0  0  0  0  0  0  0  0  0
   14.5644  -10.2324   10.1287 C   0  0  0  0  0  0  0  0  0  0  0  0
   13.2270   -9.8796   10.2856 C   0  0  0  0  0  0  0  0  0  0  0  0
   13.1993   -8.5925   10.6715 N   0  0  0  0  0  0  0  0  0  0  0  0
   14.4658   -8.1421   10.7571 C   0  0  0  0  0  0  0  0  0  0  0  0
   15.2844   -9.1495   10.4250 N   0  0  0  0  0  0  0  0  0  0  0  0
   16.1535  -12.8636    8.0391 C   0  0  0  0  0  0  0  0  0  0  0  0
   15.4732  -13.8543    7.7557 O   0  0  0  0  0  0  0  0  0  0  0  0
   17.5626  -13.0396    8.1512 N   0  0  0  0  0  0  0  0  0  0  0  0
   18.2157  -14.2970    7.9360 C   0  0  1  0  0  0  0  0  0  0  0  0
   19.3937  -14.1808    6.9922 C   0  0  0  0  0  0  0  0  0  0  0  0
   19.0274  -13.7300    5.6321 C   0  0  0  0  0  0  0  0  0  0  0  0
   18.4542  -14.6172    4.7302 C   0  0  0  0  0  0  0  0  0  0  0  0
   18.0771  -14.2538    3.4678 C   0  0  0  0  0  0  0  0  0  0  0  0
   18.2638  -12.9715    3.0589 C   0  0  0  0  0  0  0  0  0  0  0  0
   18.8284  -12.0506    3.9110 C   0  0  0  0  0  0  0  0  0  0  0  0
   19.2057  -12.4346    5.1919 C   0  0  0  0  0  0  0  0  0  0  0  0
   18.4976  -15.0735    9.1593 C   0  0  0  0  0  0  0  0  0  0  0  0
   19.0409  -14.5307   10.1856 O   0  0  0  0  0  0  0  0  0  0  0  0
   18.1510  -16.4423    9.1693 N   0  0  0  0  0  0  0  0  0  0  0  0
   18.4398  -17.3223   10.2754 C   0  0  1  0  0  0  0  0  0  0  0  0
   17.2568  -17.2112   11.2246 C   0  0  0  0  0  0  0  0  0  0  0  0
   17.3580  -18.0565   12.3945 C   0  0  0  0  0  0  0  0  0  0  0  0
   18.4038  -18.9548   12.4584 C   0  0  0  0  0  0  0  0  0  0  0  0
   18.5624  -19.7866   13.5736 C   0  0  0  0  0  0  0  0  0  0  0  0
   17.6796  -19.7080   14.6024 C   0  0  0  0  0  0  0  0  0  0  0  0
   16.6075  -18.8110   14.5747 C   0  0  0  0  0  0  0  0  0  0  0  0
   16.4844  -17.9941   13.4361 C   0  0  0  0  0  0  0  0  0  0  0  0
   18.6981  -18.6639    9.7974 C   0  0  0  0  0  0  0  0  0  0  0  0
   18.0432  -19.1481    8.6744 O   0  0  0  0  0  0  0  0  0  0  0  0
   19.5197  -19.4480   10.3678 O   0  0  0  0  0  0  0  0  0  0  0  0
  2  1  1  6
  2  3  1  0
  4  3  1  0
  5  4  2  0
  6  7  1  0
  6  5  1  0
  7  8  2  0
  8  4  1  0
  9 11  1  0
  9  2  1  0
 10  9  2  0
 12 11  1  0
 12 13  1  1
 13 14  1  0
 14 19  1  0
 15 14  2  0
 15 16  1  0
 16 17  2  0
 17 18  1  0
 19 18  2  0
 20 12  1  0
 21 20  2  0
 22 20  1  0
 23 31  1  0
 23 22  1  0
 23 24  1  1
 25 24  1  0
 25 26  2  0
 27 26  1  0
 28 27  2  0
 29 30  2  0
 29 28  1  0
 30 25  1  0
 31 32  1  0
 33 31  2  0
M  END
$$$$
