HFF.pdb
     RDKit          3D

 33 35  0  0  1  0  0  0  0  0999 V2000
   28.1700  -20.0331  -15.8727 N   0  0  0  0  0  0  0  0  0  0  0  0
   27.7328  -19.5497  -14.5700 C   0  0  1  0  0  0  0  0  0  0  0  0
   26.5976  -18.5349  -14.7584 C   0  0  0  0  0  0  0  0  0  0  0  0
   27.1070  -17.2861  -15.3289 C   0  0  0  0  0  0  0  0  0  0  0  0
   27.2381  -16.0796  -14.6472 C   0  0  0  0  0  0  0  0  0  0  0  0
   27.7335  -15.1840  -15.5182 N   0  0  0  0  0  0  0  0  0  0  0  0
   27.9111  -15.7930  -16.7064 C   0  0  0  0  0  0  0  0  0  0  0  0
   27.5267  -17.0698  -16.5762 N   0  0  0  0  0  0  0  0  0  0  0  0
   27.0766  -20.7219  -13.9070 C   0  0  0  0  0  0  0  0  0  0  0  0
   26.4476  -21.5830  -14.5295 O   0  0  0  0  0  0  0  0  0  0  0  0
   27.1726  -20.8666  -12.4930 N   0  0  0  0  0  0  0  0  0  0  0  0
   26.1667  -21.5097  -11.7002 C   0  0  1  0  0  0  0  0  0  0  0  0
   26.7308  -22.1126  -10.4313 C   0  0  0  0  0  0  0  0  0  0  0  0
   26.9460  -21.1299   -9.3473 C   0  0  0  0  0  0  0  0  0  0  0  0
   25.8847  -20.7235   -8.5486 C   0  0  0  0  0  0  0  0  0  0  0  0
   26.0263  -19.8343   -7.5204 C   0  0  0  0  0  0  0  0  0  0  0  0
   27.2525  -19.3137   -7.2526 C   0  0  0  0  0  0  0  0  0  0  0  0
   28.3391  -19.6805   -8.0127 C   0  0  0  0  0  0  0  0  0  0  0  0
   28.1798  -20.5865   -9.0541 C   0  0  0  0  0  0  0  0  0  0  0  0
   24.9325  -20.7255  -11.4983 C   0  0  0  0  0  0  0  0  0  0  0  0
   24.9278  -19.6562  -10.7913 O   0  0  0  0  0  0  0  0  0  0  0  0
   23.7464  -21.1885  -12.1087 N   0  0  0  0  0  0  0  0  0  0  0  0
   22.4738  -20.5240  -11.9672 C   0  0  1  0  0  0  0  0  0  0  0  0
   22.5959  -19.2106  -12.7241 C   0  0  0  0  0  0  0  0  0  0  0  0
   22.6627  -19.3622  -14.1615 C   0  0  0  0  0  0  0  0  0  0  0  0
   21.4877  -19.6012  -14.8448 C   0  0  0  0  0  0  0  0  0  0  0  0
   21.4884  -19.7396  -16.2382 C   0  0  0  0  0  0  0  0  0  0  0  0
   22.6559  -19.6366  -16.9238 C   0  0  0  0  0  0  0  0  0  0  0  0
   23.8666  -19.3952  -16.2674 C   0  0  0  0  0  0  0  0  0  0  0  0
   23.8218  -19.2630  -14.8677 C   0  0  0  0  0  0  0  0  0  0  0  0
   21.4035  -21.3822  -12.4290 C   0  0  0  0  0  0  0  0  0  0  0  0
   21.6877  -22.6109  -13.0070 O   0  0  0  0  0  0  0  0  0  0  0  0
   20.1776  -21.0621  -12.3298 O   0  0  0  0  0  0  0  0  0  0  0  0
  2  1  1  6
  2  3  1  0
  4  3  1  0
  5  4  2  0
  6  7  1  0
  6  5  1  0
  7  8  2  0
  8  4  1  0
  9 11  1  0
  9  2  1  0
 10  9  2  0
 12 11  1  0
 12 13  1  1
 13 14  1  0
 14 19  1  0
 15 14  2  0
 15 16  1  0
 16 17  2  0
 17 18  1  0
 19 18  2  0
 20 12  1  0
 21 20  2  0
 22 20  1  0
 23 31  1  0
 23 22  1  0
 23 24  1  6
 25 24  1  0
 25 26  2  0
 27 26  1  0
 28 27  2  0
 29 30  2  0
 29 28  1  0
 30 25  1  0
 31 32  1  0
 33 31  2  0
M  END
$$$$
