HFF.pdb
     RDKit          3D

 33 35  0  0  1  0  0  0  0  0999 V2000
   28.6647  -32.7241  -16.8637 N   0  0  0  0  0  0  0  0  0  0  0  0
   28.5816  -33.8066  -15.8926 C   0  0  1  0  0  0  0  0  0  0  0  0
   29.9434  -33.9818  -15.2077 C   0  0  0  0  0  0  0  0  0  0  0  0
   30.8872  -34.6635  -16.0959 C   0  0  0  0  0  0  0  0  0  0  0  0
   31.0205  -36.0426  -16.2294 C   0  0  0  0  0  0  0  0  0  0  0  0
   31.9910  -36.2613  -17.1330 N   0  0  0  0  0  0  0  0  0  0  0  0
   32.4581  -35.0718  -17.5585 C   0  0  0  0  0  0  0  0  0  0  0  0
   31.7779  -34.1101  -16.9201 N   0  0  0  0  0  0  0  0  0  0  0  0
   27.6819  -33.3023  -14.8061 C   0  0  0  0  0  0  0  0  0  0  0  0
   27.6134  -32.1115  -14.4866 O   0  0  0  0  0  0  0  0  0  0  0  0
   26.8593  -34.2249  -14.0980 N   0  0  0  0  0  0  0  0  0  0  0  0
   25.8985  -33.8237  -13.1133 C   0  0  1  0  0  0  0  0  0  0  0  0
   24.4733  -34.0132  -13.5874 C   0  0  0  0  0  0  0  0  0  0  0  0
   24.1361  -33.2291  -14.7951 C   0  0  0  0  0  0  0  0  0  0  0  0
   23.6099  -31.9492  -14.6755 C   0  0  0  0  0  0  0  0  0  0  0  0
   23.2978  -31.1702  -15.7543 C   0  0  0  0  0  0  0  0  0  0  0  0
   23.5044  -31.6526  -17.0077 C   0  0  0  0  0  0  0  0  0  0  0  0
   24.0227  -32.9147  -17.1848 C   0  0  0  0  0  0  0  0  0  0  0  0
   24.3362  -33.6945  -16.0784 C   0  0  0  0  0  0  0  0  0  0  0  0
   26.1522  -34.3278  -11.7492 C   0  0  0  0  0  0  0  0  0  0  0  0
   26.4120  -35.5639  -11.5306 O   0  0  0  0  0  0  0  0  0  0  0  0
   26.0998  -33.4049  -10.6818 N   0  0  0  0  0  0  0  0  0  0  0  0
   26.3128  -33.7773   -9.3045 C   0  0  1  0  0  0  0  0  0  0  0  0
   26.7575  -32.5117   -8.5879 C   0  0  0  0  0  0  0  0  0  0  0  0
   26.9136  -32.6675   -7.1579 C   0  0  0  0  0  0  0  0  0  0  0  0
   28.1202  -33.1410   -6.6839 C   0  0  0  0  0  0  0  0  0  0  0  0
   28.3351  -33.2960   -5.3089 C   0  0  0  0  0  0  0  0  0  0  0  0
   27.3473  -32.9766   -4.4336 C   0  0  0  0  0  0  0  0  0  0  0  0
   26.1115  -32.4943   -4.8749 C   0  0  0  0  0  0  0  0  0  0  0  0
   25.9370  -32.3538   -6.2636 C   0  0  0  0  0  0  0  0  0  0  0  0
   25.1189  -34.3856   -8.7569 C   0  0  0  0  0  0  0  0  0  0  0  0
   25.2149  -35.4500   -7.8724 O   0  0  0  0  0  0  0  0  0  0  0  0
   23.9493  -33.9844   -9.0505 O   0  0  0  0  0  0  0  0  0  0  0  0
  2  1  1  6
  2  3  1  0
  4  3  1  0
  5  4  2  0
  6  7  1  0
  6  5  1  0
  7  8  2  0
  8  4  1  0
  9 11  1  0
  9  2  1  0
 10  9  2  0
 12 11  1  0
 12 13  1  6
 13 14  1  0
 14 19  1  0
 15 14  2  0
 15 16  1  0
 16 17  2  0
 17 18  1  0
 19 18  2  0
 20 12  1  0
 21 20  2  0
 22 20  1  0
 23 31  1  0
 23 22  1  0
 23 24  1  1
 25 24  1  0
 25 26  2  0
 27 26  1  0
 28 27  2  0
 29 30  2  0
 29 28  1  0
 30 25  1  0
 31 32  1  0
 33 31  2  0
M  END
$$$$
