NIT.pdb
     RDKit          3D

 24 23  0  0  1  0  0  0  0  0999 V2000
   15.6982   -9.8682  -19.4043 N   0  0  0  0  0  0  0  0  0  0  0  0
   17.0581   -9.6758  -19.0105 C   0  0  0  0  0  0  0  0  0  0  0  0
   17.9321  -10.1779  -19.7658 O   0  0  0  0  0  0  0  0  0  0  0  0
   17.4406   -8.9416  -17.8021 C   0  0  0  0  0  0  0  0  0  0  0  0
   18.5171   -9.7486  -17.0759 C   0  0  2  0  0  0  0  0  0  0  0  0
   17.9959  -10.9668  -16.5399 N   0  0  0  0  0  0  0  0  0  0  0  0
   19.0068   -8.8884  -15.9650 C   0  0  0  0  0  0  0  0  0  0  0  0
   18.2554   -8.7227  -14.9738 O   0  0  0  0  0  0  0  0  0  0  0  0
   23.2712   -9.8688  -13.3767 C   0  0  0  0  0  0  0  0  0  0  0  0
   21.9585   -9.3362  -13.8237 C   0  0  0  0  0  0  0  0  0  0  0  0
   21.9459   -7.9226  -14.2983 C   0  0  2  0  0  0  0  0  0  0  0  0
   22.4378   -7.0483  -13.1591 C   0  0  0  0  0  0  0  0  0  0  0  0
   20.6564   -7.4299  -14.8639 C   0  0  2  0  0  0  0  0  0  0  0  0
   20.2780   -8.2606  -15.9961 N   0  0  0  0  0  0  0  0  0  0  0  0
   20.8143   -6.0128  -15.2777 C   0  0  0  0  0  0  0  0  0  0  0  0
   21.6677   -5.7408  -16.1540 O   0  0  0  0  0  0  0  0  0  0  0  0
   19.2017   -1.3954  -15.6916 C   0  0  0  0  0  0  0  0  0  0  0  0
   18.9447   -2.8093  -15.1435 C   0  0  1  0  0  0  0  0  0  0  0  0
   17.9843   -3.3547  -15.9819 O   0  0  0  0  0  0  0  0  0  0  0  0
   20.2210   -3.6224  -15.2090 C   0  0  2  0  0  0  0  0  0  0  0  0
   20.0384   -4.9616  -14.7203 N   0  0  0  0  0  0  0  0  0  0  0  0
   21.3066   -2.9371  -14.4617 C   0  0  0  0  0  0  0  0  0  0  0  0
   22.2070   -2.1592  -15.1441 O   0  0  0  0  0  0  0  0  0  0  0  0
   21.3912   -3.0725  -13.2364 O   0  0  0  0  0  0  0  0  0  0  0  0
  1  2  1  0
  2  3  2  0
  4  2  1  0
  5  4  1  0
  5  6  1  1
  7 14  1  0
  7  5  1  0
  8  7  2  0
 10  9  1  0
 11 10  1  0
 11 12  1  1
 13 11  1  0
 13 14  1  6
 15 13  1  0
 16 15  2  0
 18 20  1  0
 18 17  1  6
 19 18  1  0
 20 21  1  1
 21 15  1  0
 22 20  1  0
 22 23  1  0
 24 22  2  0
M  END
$$$$
