NIT.pdb
     RDKit          3D

 24 23  0  0  1  0  0  0  0  0999 V2000
   17.2964  -24.0416   -7.3291 N   0  0  0  0  0  0  0  0  0  0  0  0
   16.1662  -24.1968   -6.4690 C   0  0  0  0  0  0  0  0  0  0  0  0
   15.2209  -23.3821   -6.6404 O   0  0  0  0  0  0  0  0  0  0  0  0
   16.0866  -25.2348   -5.4387 C   0  0  0  0  0  0  0  0  0  0  0  0
   17.4276  -25.9681   -5.3977 C   0  0  2  0  0  0  0  0  0  0  0  0
   17.6095  -26.8056   -6.5416 N   0  0  0  0  0  0  0  0  0  0  0  0
   17.4088  -26.8062   -4.1685 C   0  0  0  0  0  0  0  0  0  0  0  0
   16.8020  -27.9038   -4.2136 O   0  0  0  0  0  0  0  0  0  0  0  0
   21.7584  -28.2934   -1.7911 C   0  0  0  0  0  0  0  0  0  0  0  0
   20.3448  -28.2153   -2.2408 C   0  0  0  0  0  0  0  0  0  0  0  0
   19.3963  -27.5226   -1.3220 C   0  0  2  0  0  0  0  0  0  0  0  0
   19.4073  -28.2673    0.0007 C   0  0  0  0  0  0  0  0  0  0  0  0
   18.0111  -27.3195   -1.8373 C   0  0  2  0  0  0  0  0  0  0  0  0
   18.0464  -26.4046   -2.9672 N   0  0  0  0  0  0  0  0  0  0  0  0
   17.1588  -26.7807   -0.7474 C   0  0  0  0  0  0  0  0  0  0  0  0
   17.3993  -25.6280   -0.3192 O   0  0  0  0  0  0  0  0  0  0  0  0
   13.1864  -26.9196    2.1850 C   0  0  0  0  0  0  0  0  0  0  0  0
   13.9921  -27.6365    1.0885 C   0  0  1  0  0  0  0  0  0  0  0  0
   13.2114  -27.5453   -0.0539 O   0  0  0  0  0  0  0  0  0  0  0  0
   15.3135  -26.9266    0.8788 C   0  0  2  0  0  0  0  0  0  0  0  0
   16.0880  -27.5194   -0.1769 N   0  0  0  0  0  0  0  0  0  0  0  0
   16.0902  -26.9002    2.1448 C   0  0  0  0  0  0  0  0  0  0  0  0
   16.0912  -25.7624    2.9109 O   0  0  0  0  0  0  0  0  0  0  0  0
   16.7274  -27.8986    2.4972 O   0  0  0  0  0  0  0  0  0  0  0  0
  1  2  1  0
  2  3  2  0
  4  2  1  0
  5  4  1  0
  5  6  1  6
  7 14  1  0
  7  5  1  0
  8  7  2  0
 10  9  1  0
 11 10  1  0
 11 12  1  1
 13 11  1  0
 13 14  1  6
 15 13  1  0
 16 15  2  0
 18 20  1  0
 18 17  1  1
 19 18  1  0
 20 21  1  6
 21 15  1  0
 22 20  1  0
 22 23  1  0
 24 22  2  0
M  END
$$$$
