NIT.pdb
     RDKit          3D

 24 23  0  0  1  0  0  0  0  0999 V2000
   17.1338  -21.8040  -14.2221 N   0  0  0  0  0  0  0  0  0  0  0  0
   18.4769  -22.2859  -14.1490 C   0  0  0  0  0  0  0  0  0  0  0  0
   18.6141  -23.5246  -13.9661 O   0  0  0  0  0  0  0  0  0  0  0  0
   19.6445  -21.4106  -14.2754 C   0  0  0  0  0  0  0  0  0  0  0  0
   20.3758  -21.3962  -12.9328 C   0  0  2  0  0  0  0  0  0  0  0  0
   19.6150  -20.7320  -11.9213 N   0  0  0  0  0  0  0  0  0  0  0  0
   21.6492  -20.6603  -13.1578 C   0  0  0  0  0  0  0  0  0  0  0  0
   21.6136  -19.4060  -13.1494 O   0  0  0  0  0  0  0  0  0  0  0  0
   26.0738  -21.3336  -10.4258 C   0  0  0  0  0  0  0  0  0  0  0  0
   24.9599  -20.8726  -11.2937 C   0  0  0  0  0  0  0  0  0  0  0  0
   25.1795  -20.9816  -12.7646 C   0  0  2  0  0  0  0  0  0  0  0  0
   26.4840  -20.2771  -13.0904 C   0  0  0  0  0  0  0  0  0  0  0  0
   24.0603  -20.5146  -13.6334 C   0  0  2  0  0  0  0  0  0  0  0  0
   22.8813  -21.3269  -13.3787 N   0  0  0  0  0  0  0  0  0  0  0  0
   24.4727  -20.6132  -15.0563 C   0  0  0  0  0  0  0  0  0  0  0  0
   24.9721  -21.6901  -15.4573 O   0  0  0  0  0  0  0  0  0  0  0  0
   22.7075  -20.7531  -18.1763 C   0  0  0  0  0  0  0  0  0  0  0  0
   23.6869  -19.5786  -18.3398 C   0  0  1  0  0  0  0  0  0  0  0  0
   22.9323  -18.4405  -18.0987 O   0  0  0  0  0  0  0  0  0  0  0  0
   24.8001  -19.6957  -17.3194 C   0  0  2  0  0  0  0  0  0  0  0  0
   24.3226  -19.5385  -15.9729 N   0  0  0  0  0  0  0  0  0  0  0  0
   25.8720  -18.7097  -17.6119 C   0  0  0  0  0  0  0  0  0  0  0  0
   26.6125  -18.8401  -18.7591 O   0  0  0  0  0  0  0  0  0  0  0  0
   26.0886  -17.7835  -16.8231 O   0  0  0  0  0  0  0  0  0  0  0  0
  1  2  1  0
  2  3  2  0
  4  2  1  0
  5  4  1  0
  5  6  1  1
  7 14  1  0
  7  5  1  0
  8  7  2  0
 10  9  1  0
 11 10  1  0
 11 12  1  6
 13 11  1  0
 13 14  1  6
 15 13  1  0
 16 15  2  0
 18 20  1  0
 18 17  1  1
 19 18  1  0
 20 21  1  1
 21 15  1  0
 22 20  1  0
 22 23  1  0
 24 22  2  0
M  END
$$$$
