NIT.pdb
     RDKit          3D

 24 23  0  0  1  0  0  0  0  0999 V2000
   21.0795  -22.6327   -8.5679 N   0  0  0  0  0  0  0  0  0  0  0  0
   20.8159  -21.8999   -9.7657 C   0  0  0  0  0  0  0  0  0  0  0  0
   19.6375  -21.9602  -10.2066 O   0  0  0  0  0  0  0  0  0  0  0  0
   21.8397  -21.1166  -10.4612 C   0  0  0  0  0  0  0  0  0  0  0  0
   23.1568  -21.2734   -9.7007 C   0  0  2  0  0  0  0  0  0  0  0  0
   23.0858  -20.7007   -8.3930 N   0  0  0  0  0  0  0  0  0  0  0  0
   24.1886  -20.5580  -10.4991 C   0  0  0  0  0  0  0  0  0  0  0  0
   24.3063  -19.3196  -10.3342 O   0  0  0  0  0  0  0  0  0  0  0  0
   29.8647  -20.3010  -11.5991 C   0  0  0  0  0  0  0  0  0  0  0  0
   28.5447  -20.1263  -12.2577 C   0  0  0  0  0  0  0  0  0  0  0  0
   27.3886  -20.8132  -11.6131 C   0  0  2  0  0  0  0  0  0  0  0  0
   27.6362  -22.3086  -11.6936 C   0  0  0  0  0  0  0  0  0  0  0  0
   26.0361  -20.4427  -12.1221 C   0  0  2  0  0  0  0  0  0  0  0  0
   25.0279  -21.2265  -11.4263 N   0  0  0  0  0  0  0  0  0  0  0  0
   25.9805  -20.6895  -13.5852 C   0  0  0  0  0  0  0  0  0  0  0  0
   25.6599  -21.8335  -13.9834 O   0  0  0  0  0  0  0  0  0  0  0  0
   23.7390  -18.3223  -15.0602 C   0  0  0  0  0  0  0  0  0  0  0  0
   24.1352  -19.6450  -15.7375 C   0  0  1  0  0  0  0  0  0  0  0  0
   23.5766  -19.5852  -17.0053 O   0  0  0  0  0  0  0  0  0  0  0  0
   25.6440  -19.7383  -15.8330 C   0  0  2  0  0  0  0  0  0  0  0  0
   26.2752  -19.6828  -14.5430 N   0  0  0  0  0  0  0  0  0  0  0  0
   26.1706  -18.6682  -16.7187 C   0  0  0  0  0  0  0  0  0  0  0  0
   25.9692  -18.7547  -18.0727 O   0  0  0  0  0  0  0  0  0  0  0  0
   26.7841  -17.7124  -16.2318 O   0  0  0  0  0  0  0  0  0  0  0  0
  1  2  1  0
  2  3  2  0
  4  2  1  0
  5  4  1  0
  5  6  1  1
  7 14  1  0
  7  5  1  0
  8  7  2  0
 10  9  1  0
 11 10  1  0
 11 12  1  6
 13 11  1  0
 13 14  1  1
 15 13  1  0
 16 15  2  0
 18 20  1  0
 18 17  1  1
 19 18  1  0
 20 21  1  1
 21 15  1  0
 22 20  1  0
 22 23  1  0
 24 22  2  0
M  END
$$$$
