NIT.pdb
     RDKit          3D

 24 23  0  0  1  0  0  0  0  0999 V2000
   18.8447  -16.4266  -18.4709 N   0  0  0  0  0  0  0  0  0  0  0  0
   20.1147  -15.7794  -18.5688 C   0  0  0  0  0  0  0  0  0  0  0  0
   20.8431  -16.1274  -19.5357 O   0  0  0  0  0  0  0  0  0  0  0  0
   20.5679  -14.7669  -17.6123 C   0  0  0  0  0  0  0  0  0  0  0  0
   21.9651  -15.1589  -17.1309 C   0  0  2  0  0  0  0  0  0  0  0  0
   21.9574  -16.4123  -16.4438 N   0  0  0  0  0  0  0  0  0  0  0  0
   22.4026  -14.0856  -16.1980 C   0  0  0  0  0  0  0  0  0  0  0  0
   21.8231  -13.9979  -15.0884 O   0  0  0  0  0  0  0  0  0  0  0  0
   27.4976  -13.0505  -15.1510 C   0  0  0  0  0  0  0  0  0  0  0  0
   26.0186  -13.1689  -15.0809 C   0  0  0  0  0  0  0  0  0  0  0  0
   25.2392  -11.9643  -15.4874 C   0  0  2  0  0  0  0  0  0  0  0  0
   25.6371  -10.8244  -14.5672 C   0  0  0  0  0  0  0  0  0  0  0  0
   23.7587  -12.1323  -15.5605 C   0  0  2  0  0  0  0  0  0  0  0  0
   23.4388  -13.1738  -16.5237 N   0  0  0  0  0  0  0  0  0  0  0  0
   23.1395  -10.8412  -15.9531 C   0  0  0  0  0  0  0  0  0  0  0  0
   23.4630  -10.3369  -17.0535 O   0  0  0  0  0  0  0  0  0  0  0  0
   19.6231   -7.5992  -16.2047 C   0  0  0  0  0  0  0  0  0  0  0  0
   20.1534   -8.9790  -15.7799 C   0  0  1  0  0  0  0  0  0  0  0  0
   19.8458   -9.8262  -16.8337 O   0  0  0  0  0  0  0  0  0  0  0  0
   21.6536   -8.9111  -15.5821 C   0  0  2  0  0  0  0  0  0  0  0  0
   22.2001  -10.1619  -15.1322 N   0  0  0  0  0  0  0  0  0  0  0  0
   21.9989   -7.8195  -14.6356 C   0  0  0  0  0  0  0  0  0  0  0  0
   22.3112   -6.5769  -15.1254 O   0  0  0  0  0  0  0  0  0  0  0  0
   22.0032   -8.0375  -13.4193 O   0  0  0  0  0  0  0  0  0  0  0  0
  1  2  1  0
  2  3  2  0
  4  2  1  0
  5  4  1  0
  5  6  1  1
  7 14  1  0
  7  5  1  0
  8  7  2  0
 10  9  1  0
 11 10  1  0
 11 12  1  1
 13 11  1  0
 13 14  1  6
 15 13  1  0
 16 15  2  0
 18 20  1  0
 18 17  1  6
 19 18  1  0
 20 21  1  1
 21 15  1  0
 22 20  1  0
 22 23  1  0
 24 22  2  0
M  END
$$$$
