NIT.pdb
     RDKit          3D

 24 23  0  0  1  0  0  0  0  0999 V2000
   17.1876  -12.3732  -18.7330 N   0  0  0  0  0  0  0  0  0  0  0  0
   17.5375  -12.9395  -17.4688 C   0  0  0  0  0  0  0  0  0  0  0  0
   16.8029  -13.8761  -17.0567 O   0  0  0  0  0  0  0  0  0  0  0  0
   18.6790  -12.4752  -16.6772 C   0  0  0  0  0  0  0  0  0  0  0  0
   19.3261  -11.3041  -17.4171 C   0  0  2  0  0  0  0  0  0  0  0  0
   20.1312  -11.7478  -18.5117 N   0  0  0  0  0  0  0  0  0  0  0  0
   20.1841  -10.6041  -16.4233 C   0  0  0  0  0  0  0  0  0  0  0  0
   19.6843  -10.3262  -15.3063 O   0  0  0  0  0  0  0  0  0  0  0  0
   25.2939  -11.9288  -15.5610 C   0  0  0  0  0  0  0  0  0  0  0  0
   23.8978  -11.4388  -15.4291 C   0  0  0  0  0  0  0  0  0  0  0  0
   23.6833   -9.9825  -15.6678 C   0  0  2  0  0  0  0  0  0  0  0  0
   24.5220   -9.2203  -14.6579 C   0  0  0  0  0  0  0  0  0  0  0  0
   22.2651   -9.5196  -15.6790 C   0  0  2  0  0  0  0  0  0  0  0  0
   21.5285  -10.2476  -16.6999 N   0  0  0  0  0  0  0  0  0  0  0  0
   22.2303   -8.0589  -15.9428 C   0  0  0  0  0  0  0  0  0  0  0  0
   22.7050   -7.6384  -17.0235 O   0  0  0  0  0  0  0  0  0  0  0  0
   20.3293   -3.6537  -15.7001 C   0  0  0  0  0  0  0  0  0  0  0  0
   20.2692   -5.1587  -15.3892 C   0  0  1  0  0  0  0  0  0  0  0  0
   19.5444   -5.7161  -16.4316 O   0  0  0  0  0  0  0  0  0  0  0  0
   21.6714   -5.7309  -15.3605 C   0  0  2  0  0  0  0  0  0  0  0  0
   21.6822   -7.1275  -15.0210 N   0  0  0  0  0  0  0  0  0  0  0  0
   22.5234   -4.9582  -14.4205 C   0  0  0  0  0  0  0  0  0  0  0  0
   23.2680   -3.9082  -14.8941 O   0  0  0  0  0  0  0  0  0  0  0  0
   22.5557   -5.2657  -13.2241 O   0  0  0  0  0  0  0  0  0  0  0  0
  1  2  1  0
  2  3  2  0
  4  2  1  0
  5  4  1  0
  5  6  1  6
  7 14  1  0
  7  5  1  0
  8  7  2  0
 10  9  1  0
 11 10  1  0
 11 12  1  1
 13 11  1  0
 13 14  1  6
 15 13  1  0
 16 15  2  0
 18 20  1  0
 18 17  1  6
 19 18  1  0
 20 21  1  1
 21 15  1  0
 22 20  1  0
 22 23  1  0
 24 22  2  0
M  END
$$$$
