NIT.pdb
     RDKit          3D

 24 23  0  0  1  0  0  0  0  0999 V2000
   18.5560  -11.5358  -22.1578 N   0  0  0  0  0  0  0  0  0  0  0  0
   19.6329  -11.4587  -21.2220 C   0  0  0  0  0  0  0  0  0  0  0  0
   20.7108  -12.0111  -21.5679 O   0  0  0  0  0  0  0  0  0  0  0  0
   19.5159  -10.7829  -19.9278 C   0  0  0  0  0  0  0  0  0  0  0  0
   20.2692  -11.6129  -18.8879 C   0  0  2  0  0  0  0  0  0  0  0  0
   19.5819  -12.8277  -18.5797 N   0  0  0  0  0  0  0  0  0  0  0  0
   20.3582  -10.7704  -17.6647 C   0  0  0  0  0  0  0  0  0  0  0  0
   19.4180  -10.8346  -16.8361 O   0  0  0  0  0  0  0  0  0  0  0  0
   24.4902  -10.9368  -14.5622 C   0  0  0  0  0  0  0  0  0  0  0  0
   23.1672  -10.7437  -15.2095 C   0  0  0  0  0  0  0  0  0  0  0  0
   22.7636   -9.3339  -15.4805 C   0  0  2  0  0  0  0  0  0  0  0  0
   22.8204   -8.5763  -14.1664 C   0  0  0  0  0  0  0  0  0  0  0  0
   21.4583   -9.1457  -16.1778 C   0  0  2  0  0  0  0  0  0  0  0  0
   21.4579   -9.9107  -17.4147 N   0  0  0  0  0  0  0  0  0  0  0  0
   21.2540   -7.7005  -16.4502 C   0  0  0  0  0  0  0  0  0  0  0  0
   22.1863   -7.0594  -16.9885 O   0  0  0  0  0  0  0  0  0  0  0  0
   19.3349   -5.9509  -18.8014 C   0  0  0  0  0  0  0  0  0  0  0  0
   18.9025   -5.3216  -17.4663 C   0  0  1  0  0  0  0  0  0  0  0  0
   17.7000   -5.9349  -17.1486 O   0  0  0  0  0  0  0  0  0  0  0  0
   19.9393   -5.6173  -16.4025 C   0  0  2  0  0  0  0  0  0  0  0  0
   20.0484   -7.0233  -16.1251 N   0  0  0  0  0  0  0  0  0  0  0  0
   19.6320   -4.8623  -15.1606 C   0  0  0  0  0  0  0  0  0  0  0  0
   19.7369   -3.4947  -15.1604 O   0  0  0  0  0  0  0  0  0  0  0  0
   19.2864   -5.4686  -14.1409 O   0  0  0  0  0  0  0  0  0  0  0  0
  1  2  1  0
  2  3  2  0
  4  2  1  0
  5  4  1  0
  5  6  1  1
  7 14  1  0
  7  5  1  0
  8  7  2  0
 10  9  1  0
 11 10  1  0
 11 12  1  1
 13 11  1  0
 13 14  1  6
 15 13  1  0
 16 15  2  0
 18 20  1  0
 18 17  1  6
 19 18  1  0
 20 21  1  1
 21 15  1  0
 22 20  1  0
 22 23  1  0
 24 22  2  0
M  END
$$$$
