NIT.pdb
     RDKit          3D

 24 23  0  0  1  0  0  0  0  0999 V2000
   29.0823  -20.4234  -17.4183 N   0  0  0  0  0  0  0  0  0  0  0  0
   28.7837  -21.7914  -17.1344 C   0  0  0  0  0  0  0  0  0  0  0  0
   29.3838  -22.6487  -17.8355 O   0  0  0  0  0  0  0  0  0  0  0  0
   27.8373  -22.2002  -16.0938 C   0  0  0  0  0  0  0  0  0  0  0  0
   27.2740  -20.9377  -15.4407 C   0  0  2  0  0  0  0  0  0  0  0  0
   28.2690  -20.2408  -14.6875 N   0  0  0  0  0  0  0  0  0  0  0  0
   26.1876  -21.3876  -14.5289 C   0  0  0  0  0  0  0  0  0  0  0  0
   25.5491  -22.4222  -14.8396 O   0  0  0  0  0  0  0  0  0  0  0  0
   26.2750  -20.5726   -9.0906 C   0  0  0  0  0  0  0  0  0  0  0  0
   26.0400  -21.1688  -10.4307 C   0  0  0  0  0  0  0  0  0  0  0  0
   24.8335  -20.6898  -11.1647 C   0  0  2  0  0  0  0  0  0  0  0  0
   23.6142  -21.0547  -10.3373 C   0  0  0  0  0  0  0  0  0  0  0  0
   24.7028  -21.1405  -12.5808 C   0  0  2  0  0  0  0  0  0  0  0  0
   25.8594  -20.6900  -13.3386 N   0  0  0  0  0  0  0  0  0  0  0  0
   23.4484  -20.5911  -13.1544 C   0  0  0  0  0  0  0  0  0  0  0  0
   23.3234  -19.3465  -13.2278 O   0  0  0  0  0  0  0  0  0  0  0  0
   19.6004  -20.5611  -16.0343 C   0  0  0  0  0  0  0  0  0  0  0  0
   20.8917  -21.2416  -15.5497 C   0  0  1  0  0  0  0  0  0  0  0  0
   21.8823  -20.7961  -16.4117 O   0  0  0  0  0  0  0  0  0  0  0  0
   21.1967  -20.8074  -14.1310 C   0  0  2  0  0  0  0  0  0  0  0  0
   22.3925  -21.4194  -13.6200 N   0  0  0  0  0  0  0  0  0  0  0  0
   20.0410  -21.0983  -13.2441 C   0  0  0  0  0  0  0  0  0  0  0  0
   19.1134  -20.1171  -13.0028 O   0  0  0  0  0  0  0  0  0  0  0  0
   19.9243  -22.2167  -12.7318 O   0  0  0  0  0  0  0  0  0  0  0  0
  1  2  1  0
  2  3  2  0
  4  2  1  0
  5  4  1  0
  5  6  1  1
  7 14  1  0
  7  5  1  0
  8  7  2  0
 10  9  1  0
 11 10  1  0
 11 12  1  1
 13 11  1  0
 13 14  1  6
 15 13  1  0
 16 15  2  0
 18 20  1  0
 18 17  1  6
 19 18  1  0
 20 21  1  1
 21 15  1  0
 22 20  1  0
 22 23  1  0
 24 22  2  0
M  END
$$$$
