NIT.pdb
     RDKit          3D

 24 23  0  0  1  0  0  0  0  0999 V2000
   29.3606   -9.7440  -18.0239 N   0  0  0  0  0  0  0  0  0  0  0  0
   28.5221   -8.5926  -18.1362 C   0  0  0  0  0  0  0  0  0  0  0  0
   29.1105   -7.4881  -18.2794 O   0  0  0  0  0  0  0  0  0  0  0  0
   27.0599   -8.6652  -18.0898 C   0  0  0  0  0  0  0  0  0  0  0  0
   26.6650  -10.1090  -17.7784 C   0  0  2  0  0  0  0  0  0  0  0  0
   26.9852  -10.9910  -18.8566 N   0  0  0  0  0  0  0  0  0  0  0  0
   25.1926  -10.1031  -17.5642 C   0  0  0  0  0  0  0  0  0  0  0  0
   24.4585  -10.4745  -18.5118 O   0  0  0  0  0  0  0  0  0  0  0  0
   23.1509  -12.8304  -13.8285 C   0  0  0  0  0  0  0  0  0  0  0  0
   23.2619  -12.0532  -15.0895 C   0  0  0  0  0  0  0  0  0  0  0  0
   22.8203  -10.6301  -15.0296 C   0  0  2  0  0  0  0  0  0  0  0  0
   21.3315  -10.6204  -14.7336 C   0  0  0  0  0  0  0  0  0  0  0  0
   23.1605   -9.7855  -16.2113 C   0  0  2  0  0  0  0  0  0  0  0  0
   24.6063   -9.6951  -16.3391 N   0  0  0  0  0  0  0  0  0  0  0  0
   22.5601   -8.4386  -16.0380 C   0  0  0  0  0  0  0  0  0  0  0  0
   21.3163   -8.3247  -16.1387 O   0  0  0  0  0  0  0  0  0  0  0  0
   21.9030   -4.2208  -14.0630 C   0  0  0  0  0  0  0  0  0  0  0  0
   22.7721   -5.4822  -14.2006 C   0  0  1  0  0  0  0  0  0  0  0  0
   22.2306   -6.3951  -13.3082 O   0  0  0  0  0  0  0  0  0  0  0  0
   22.6801   -6.0142  -15.6157 C   0  0  2  0  0  0  0  0  0  0  0  0
   23.3390   -7.2829  -15.7639 N   0  0  0  0  0  0  0  0  0  0  0  0
   23.2327   -5.0234  -16.5748 C   0  0  0  0  0  0  0  0  0  0  0  0
   22.3741   -4.2550  -17.3190 O   0  0  0  0  0  0  0  0  0  0  0  0
   24.4562   -4.8995  -16.6955 O   0  0  0  0  0  0  0  0  0  0  0  0
  1  2  1  0
  2  3  2  0
  4  2  1  0
  5  4  1  0
  5  6  1  6
  7 14  1  0
  7  5  1  0
  8  7  2  0
 10  9  1  0
 11 10  1  0
 11 12  1  6
 13 11  1  0
 13 14  1  1
 15 13  1  0
 16 15  2  0
 18 20  1  0
 18 17  1  6
 19 18  1  0
 20 21  1  1
 21 15  1  0
 22 20  1  0
 22 23  1  0
 24 22  2  0
M  END
$$$$
