NIT.pdb
     RDKit          3D

 24 23  0  0  1  0  0  0  0  0999 V2000
   18.3113  -23.4451  -10.3990 N   0  0  0  0  0  0  0  0  0  0  0  0
   18.0191  -22.4845  -11.4154 C   0  0  0  0  0  0  0  0  0  0  0  0
   16.8777  -22.5624  -11.9426 O   0  0  0  0  0  0  0  0  0  0  0  0
   18.9746  -21.4584  -11.8392 C   0  0  0  0  0  0  0  0  0  0  0  0
   20.2604  -21.6437  -11.0330 C   0  0  2  0  0  0  0  0  0  0  0  0
   20.1006  -21.2250   -9.6757 N   0  0  0  0  0  0  0  0  0  0  0  0
   21.2933  -20.8003  -11.6930 C   0  0  0  0  0  0  0  0  0  0  0  0
   21.2526  -19.5611  -11.5000 O   0  0  0  0  0  0  0  0  0  0  0  0
   26.4189  -21.8208  -11.3155 C   0  0  0  0  0  0  0  0  0  0  0  0
   25.0947  -21.1757  -11.5080 C   0  0  0  0  0  0  0  0  0  0  0  0
   24.6484  -20.9914  -12.9189 C   0  0  2  0  0  0  0  0  0  0  0  0
   25.6988  -20.1582  -13.6307 C   0  0  0  0  0  0  0  0  0  0  0  0
   23.2754  -20.4394  -13.1078 C   0  0  2  0  0  0  0  0  0  0  0  0
   22.3049  -21.3498  -12.5211 N   0  0  0  0  0  0  0  0  0  0  0  0
   23.0181  -20.2560  -14.5586 C   0  0  0  0  0  0  0  0  0  0  0  0
   22.9385  -21.2761  -15.2819 O   0  0  0  0  0  0  0  0  0  0  0  0
   21.3187  -17.6161  -18.3360 C   0  0  0  0  0  0  0  0  0  0  0  0
   21.6391  -17.6744  -16.8329 C   0  0  1  0  0  0  0  0  0  0  0  0
   20.4090  -17.7938  -16.2040 O   0  0  0  0  0  0  0  0  0  0  0  0
   22.4979  -18.8872  -16.5401 C   0  0  2  0  0  0  0  0  0  0  0  0
   22.8599  -18.9752  -15.1520 N   0  0  0  0  0  0  0  0  0  0  0  0
   23.7115  -18.8773  -17.3968 C   0  0  0  0  0  0  0  0  0  0  0  0
   23.7226  -19.6078  -18.5576 O   0  0  0  0  0  0  0  0  0  0  0  0
   24.6982  -18.2146  -17.0589 O   0  0  0  0  0  0  0  0  0  0  0  0
  1  2  1  0
  2  3  2  0
  4  2  1  0
  5  4  1  0
  5  6  1  1
  7 14  1  0
  7  5  1  0
  8  7  2  0
 10  9  1  0
 11 10  1  0
 11 12  1  1
 13 11  1  0
 13 14  1  6
 15 13  1  0
 16 15  2  0
 18 20  1  0
 18 17  1  6
 19 18  1  0
 20 21  1  1
 21 15  1  0
 22 20  1  0
 22 23  1  0
 24 22  2  0
M  END
$$$$
