PMA.pdb
     RDKit          3D

 21 21  0  0  1  0  0  0  0  0999 V2000
    7.3754  -15.1944   19.7960 N   0  0  0  0  0  0  0  0  0  0  0  0
    6.9292  -14.7998   18.4735 C   0  0  0  0  0  0  0  0  0  0  0  0
    7.3873  -13.4005   18.2277 C   0  0  0  0  0  0  0  0  0  0  0  0
    7.9739  -12.9904   19.5822 C   0  0  0  0  0  0  0  0  0  0  0  0
    8.4823  -14.3448   20.0506 C   0  0  1  0  0  0  0  0  0  0  0  0
    8.9049  -14.2943   21.4640 C   0  0  0  0  0  0  0  0  0  0  0  0
   10.1150  -14.0924   21.7124 O   0  0  0  0  0  0  0  0  0  0  0  0
    6.5731  -12.0455   28.5035 C   0  0  0  0  0  0  0  0  0  0  0  0
    6.1410  -12.3478   26.7648 S   0  0  0  0  0  0  0  0  0  0  0  0
    7.4971  -13.3408   26.0490 C   0  0  0  0  0  0  0  0  0  0  0  0
    7.2671  -13.5727   24.5871 C   0  0  0  0  0  0  0  0  0  0  0  0
    8.4162  -14.3299   23.9543 C   0  0  2  0  0  0  0  0  0  0  0  0
    8.0009  -14.4643   22.5420 N   0  0  0  0  0  0  0  0  0  0  0  0
    8.6491  -15.6608   24.5350 C   0  0  0  0  0  0  0  0  0  0  0  0
    7.7025  -16.5250   24.5685 O   0  0  0  0  0  0  0  0  0  0  0  0
   11.2710  -18.1143   24.9254 C   0  0  0  0  0  0  0  0  0  0  0  0
   10.0523  -17.4820   25.5639 C   0  0  2  0  0  0  0  0  0  0  0  0
    9.8788  -16.1026   25.0826 N   0  0  0  0  0  0  0  0  0  0  0  0
   10.2016  -17.5283   27.0203 C   0  0  0  0  0  0  0  0  0  0  0  0
   10.2626  -16.4528   27.6644 O   0  0  0  0  0  0  0  0  0  0  0  0
   10.2797  -18.7151   27.7315 O   0  0  0  0  0  0  0  0  0  0  0  0
  2  1  1  0
  3  2  1  0
  4  3  1  0
  4  5  1  0
  5  1  1  0
  6 13  1  0
  5  6  1  1
  7  6  2  0
  9  8  1  0
 10  9  1  0
 12 11  1  1
 11 10  1  0
 12 14  1  0
 12 13  1  0
 14 18  1  0
 15 14  2  0
 17 19  1  0
 17 16  1  6
 18 17  1  0
 19 21  1  0
 20 19  2  0
M  END
$$$$
