PMA.pdb
     RDKit          3D

 21 21  0  0  1  0  0  0  0  0999 V2000
    7.3174  -14.8856   20.2787 N   0  0  0  0  0  0  0  0  0  0  0  0
    7.0337  -14.3604   18.9569 C   0  0  0  0  0  0  0  0  0  0  0  0
    7.7190  -13.0409   18.8251 C   0  0  0  0  0  0  0  0  0  0  0  0
    8.2632  -12.7964   20.2362 C   0  0  0  0  0  0  0  0  0  0  0  0
    8.5211  -14.2357   20.6534 C   0  0  1  0  0  0  0  0  0  0  0  0
    8.8437  -14.3228   22.0913 C   0  0  0  0  0  0  0  0  0  0  0  0
    9.9939  -13.9944   22.4600 O   0  0  0  0  0  0  0  0  0  0  0  0
    6.4897  -10.7100   26.9188 C   0  0  0  0  0  0  0  0  0  0  0  0
    6.8153  -12.4968   26.9692 S   0  0  0  0  0  0  0  0  0  0  0  0
    6.6637  -13.1093   25.2548 C   0  0  0  0  0  0  0  0  0  0  0  0
    6.9382  -14.5806   25.1934 C   0  0  0  0  0  0  0  0  0  0  0  0
    8.2502  -14.8753   24.4962 C   0  0  2  0  0  0  0  0  0  0  0  0
    7.9092  -14.7604   23.0625 N   0  0  0  0  0  0  0  0  0  0  0  0
    8.7895  -16.2147   24.7752 C   0  0  0  0  0  0  0  0  0  0  0  0
    8.0156  -17.2369   24.7667 O   0  0  0  0  0  0  0  0  0  0  0  0
   12.0435  -18.0201   24.7439 C   0  0  0  0  0  0  0  0  0  0  0  0
   10.6209  -17.8795   25.2433 C   0  0  2  0  0  0  0  0  0  0  0  0
   10.1478  -16.4983   25.0615 N   0  0  0  0  0  0  0  0  0  0  0  0
   10.5695  -18.2844   26.6500 C   0  0  0  0  0  0  0  0  0  0  0  0
   10.9303  -19.4440   26.9673 O   0  0  0  0  0  0  0  0  0  0  0  0
   10.1372  -17.4407   27.6607 O   0  0  0  0  0  0  0  0  0  0  0  0
  2  1  1  0
  3  2  1  0
  4  3  1  0
  4  5  1  0
  5  1  1  0
  6 13  1  0
  5  6  1  1
  7  6  2  0
  9  8  1  0
 10  9  1  0
 12 11  1  1
 11 10  1  0
 12 14  1  0
 12 13  1  0
 14 18  1  0
 15 14  2  0
 17 19  1  0
 17 16  1  1
 18 17  1  0
 19 21  1  0
 20 19  2  0
M  END
$$$$
