PMA.pdb
     RDKit          3D

 21 21  0  0  1  0  0  0  0  0999 V2000
    7.2369  -14.9746   19.8757 N   0  0  0  0  0  0  0  0  0  0  0  0
    6.8615  -14.5311   18.5468 C   0  0  0  0  0  0  0  0  0  0  0  0
    7.4887  -13.1977   18.3083 C   0  0  0  0  0  0  0  0  0  0  0  0
    8.0999  -12.8593   19.6717 C   0  0  0  0  0  0  0  0  0  0  0  0
    8.4341  -14.2643   20.1474 C   0  0  1  0  0  0  0  0  0  0  0  0
    8.8382  -14.2630   21.5671 C   0  0  0  0  0  0  0  0  0  0  0  0
   10.0064  -13.9126   21.8489 O   0  0  0  0  0  0  0  0  0  0  0  0
    7.4900  -11.4059   27.5431 C   0  0  0  0  0  0  0  0  0  0  0  0
    6.2758  -12.5880   26.8877 S   0  0  0  0  0  0  0  0  0  0  0  0
    7.2231  -13.9890   26.1969 C   0  0  0  0  0  0  0  0  0  0  0  0
    7.0784  -14.0409   24.7069 C   0  0  0  0  0  0  0  0  0  0  0  0
    8.3420  -14.5438   24.0403 C   0  0  2  0  0  0  0  0  0  0  0  0
    7.9619  -14.6401   22.6150 N   0  0  0  0  0  0  0  0  0  0  0  0
    8.7944  -15.8561   24.5260 C   0  0  0  0  0  0  0  0  0  0  0  0
    7.9970  -16.8601   24.5105 O   0  0  0  0  0  0  0  0  0  0  0  0
   11.9447  -17.7337   25.0919 C   0  0  0  0  0  0  0  0  0  0  0  0
   10.4863  -17.4935   25.4209 C   0  0  2  0  0  0  0  0  0  0  0  0
   10.0898  -16.1320   25.0290 N   0  0  0  0  0  0  0  0  0  0  0  0
   10.2788  -17.7226   26.8527 C   0  0  0  0  0  0  0  0  0  0  0  0
    9.9510  -16.7583   27.5861 O   0  0  0  0  0  0  0  0  0  0  0  0
   10.4282  -18.9663   27.4452 O   0  0  0  0  0  0  0  0  0  0  0  0
  2  1  1  0
  3  2  1  0
  4  3  1  0
  4  5  1  0
  5  1  1  0
  6 13  1  0
  5  6  1  1
  7  6  2  0
  9  8  1  0
 10  9  1  0
 12 11  1  1
 11 10  1  0
 12 14  1  0
 12 13  1  0
 14 18  1  0
 15 14  2  0
 17 19  1  0
 17 16  1  1
 18 17  1  0
 19 21  1  0
 20 19  2  0
M  END
$$$$
