PMA.pdb
     RDKit          3D

 21 21  0  0  1  0  0  0  0  0999 V2000
    7.0803  -16.4307   20.3661 N   0  0  0  0  0  0  0  0  0  0  0  0
    6.6080  -16.4499   18.9949 C   0  0  0  0  0  0  0  0  0  0  0  0
    7.4002  -15.4517   18.2174 C   0  0  0  0  0  0  0  0  0  0  0  0
    8.2308  -14.7566   19.3009 C   0  0  0  0  0  0  0  0  0  0  0  0
    8.3995  -15.9195   20.2659 C   0  0  1  0  0  0  0  0  0  0  0  0
    8.9818  -15.4687   21.5452 C   0  0  0  0  0  0  0  0  0  0  0  0
   10.2011  -15.1870   21.5730 O   0  0  0  0  0  0  0  0  0  0  0  0
    5.7301  -13.0193   27.5881 C   0  0  0  0  0  0  0  0  0  0  0  0
    6.8284  -12.1522   26.4292 S   0  0  0  0  0  0  0  0  0  0  0  0
    8.0756  -13.3666   25.8752 C   0  0  0  0  0  0  0  0  0  0  0  0
    7.7281  -13.8992   24.5190 C   0  0  0  0  0  0  0  0  0  0  0  0
    8.7974  -14.8360   23.9962 C   0  0  2  0  0  0  0  0  0  0  0  0
    8.2200  -15.3436   22.7336 N   0  0  0  0  0  0  0  0  0  0  0  0
    9.1002  -15.9606   24.8942 C   0  0  0  0  0  0  0  0  0  0  0  0
    8.1648  -16.7472   25.2817 O   0  0  0  0  0  0  0  0  0  0  0  0
   12.0192  -18.0706   25.7549 C   0  0  0  0  0  0  0  0  0  0  0  0
   10.6468  -17.5360   26.1068 C   0  0  2  0  0  0  0  0  0  0  0  0
   10.3885  -16.2762   25.3921 N   0  0  0  0  0  0  0  0  0  0  0  0
   10.5650  -17.3569   27.5583 C   0  0  0  0  0  0  0  0  0  0  0  0
   10.7753  -18.3401   28.3096 O   0  0  0  0  0  0  0  0  0  0  0  0
   10.2635  -16.1411   28.1508 O   0  0  0  0  0  0  0  0  0  0  0  0
  2  1  1  0
  3  2  1  0
  4  3  1  0
  4  5  1  0
  5  1  1  0
  6 13  1  0
  5  6  1  1
  7  6  2  0
  9  8  1  0
 10  9  1  0
 12 11  1  1
 11 10  1  0
 12 14  1  0
 12 13  1  0
 14 18  1  0
 15 14  2  0
 17 19  1  0
 17 16  1  1
 18 17  1  0
 19 21  1  0
 20 19  2  0
M  END
$$$$
