PMA.pdb
     RDKit          3D

 21 21  0  0  1  0  0  0  0  0999 V2000
    7.3443  -14.9188   19.9784 N   0  0  0  0  0  0  0  0  0  0  0  0
    6.9795  -14.4728   18.6473 C   0  0  0  0  0  0  0  0  0  0  0  0
    7.5747  -13.1210   18.4316 C   0  0  0  0  0  0  0  0  0  0  0  0
    8.1538  -12.7794   19.8082 C   0  0  0  0  0  0  0  0  0  0  0  0
    8.5174  -14.1796   20.2768 C   0  0  1  0  0  0  0  0  0  0  0  0
    8.8976  -14.1810   21.7031 C   0  0  0  0  0  0  0  0  0  0  0  0
   10.0728  -13.8706   22.0020 O   0  0  0  0  0  0  0  0  0  0  0  0
    6.9145  -10.9859   26.8549 C   0  0  0  0  0  0  0  0  0  0  0  0
    6.1258  -12.6117   27.0447 S   0  0  0  0  0  0  0  0  0  0  0  0
    7.2668  -13.8398   26.3186 C   0  0  0  0  0  0  0  0  0  0  0  0
    7.1359  -13.8648   24.8266 C   0  0  0  0  0  0  0  0  0  0  0  0
    8.3629  -14.4608   24.1683 C   0  0  2  0  0  0  0  0  0  0  0  0
    7.9908  -14.5175   22.7389 N   0  0  0  0  0  0  0  0  0  0  0  0
    8.7062  -15.8078   24.6486 C   0  0  0  0  0  0  0  0  0  0  0  0
    7.8248  -16.7390   24.6434 O   0  0  0  0  0  0  0  0  0  0  0  0
   11.6241  -18.0110   25.0535 C   0  0  0  0  0  0  0  0  0  0  0  0
   10.2558  -17.5822   25.5400 C   0  0  2  0  0  0  0  0  0  0  0  0
    9.9791  -16.1951   25.1352 N   0  0  0  0  0  0  0  0  0  0  0  0
   10.1988  -17.7390   26.9952 C   0  0  0  0  0  0  0  0  0  0  0  0
   10.4001  -18.8714   27.4977 O   0  0  0  0  0  0  0  0  0  0  0  0
    9.9305  -16.6864   27.8557 O   0  0  0  0  0  0  0  0  0  0  0  0
  2  1  1  0
  3  2  1  0
  4  3  1  0
  4  5  1  0
  5  1  1  0
  6 13  1  0
  5  6  1  1
  7  6  2  0
  9  8  1  0
 10  9  1  0
 12 11  1  1
 11 10  1  0
 12 14  1  0
 12 13  1  0
 14 18  1  0
 15 14  2  0
 17 19  1  0
 17 16  1  1
 18 17  1  0
 19 21  1  0
 20 19  2  0
M  END
$$$$
