PMA.pdb
     RDKit          3D

 21 21  0  0  1  0  0  0  0  0999 V2000
    7.5886  -15.4656   20.2572 N   0  0  0  0  0  0  0  0  0  0  0  0
    7.2172  -15.1900   18.8826 C   0  0  0  0  0  0  0  0  0  0  0  0
    7.5829  -13.7752   18.5780 C   0  0  0  0  0  0  0  0  0  0  0  0
    8.0288  -13.2368   19.9412 C   0  0  0  0  0  0  0  0  0  0  0  0
    8.6030  -14.5137   20.5344 C   0  0  1  0  0  0  0  0  0  0  0  0
    8.9092  -14.3431   21.9683 C   0  0  0  0  0  0  0  0  0  0  0  0
    9.9718  -13.7598   22.2805 O   0  0  0  0  0  0  0  0  0  0  0  0
    6.8241  -11.4356   28.0424 C   0  0  0  0  0  0  0  0  0  0  0  0
    7.0005  -11.9710   26.3152 S   0  0  0  0  0  0  0  0  0  0  0  0
    6.6679  -13.7670   26.2827 C   0  0  0  0  0  0  0  0  0  0  0  0
    6.7534  -14.2947   24.8835 C   0  0  0  0  0  0  0  0  0  0  0  0
    8.1873  -14.3691   24.4014 C   0  0  2  0  0  0  0  0  0  0  0  0
    8.0537  -14.8103   22.9969 N   0  0  0  0  0  0  0  0  0  0  0  0
    9.0217  -15.3234   25.1470 C   0  0  0  0  0  0  0  0  0  0  0  0
    8.8155  -16.5841   25.0374 O   0  0  0  0  0  0  0  0  0  0  0  0
   12.0113  -15.3392   27.4827 C   0  0  0  0  0  0  0  0  0  0  0  0
   10.8867  -15.9885   26.7039 C   0  0  2  0  0  0  0  0  0  0  0  0
   10.0852  -14.9667   26.0125 N   0  0  0  0  0  0  0  0  0  0  0  0
   10.0683  -16.7816   27.6241 C   0  0  0  0  0  0  0  0  0  0  0  0
   10.5771  -17.7781   28.1928 O   0  0  0  0  0  0  0  0  0  0  0  0
    8.7439  -16.4829   27.9017 O   0  0  0  0  0  0  0  0  0  0  0  0
  2  1  1  0
  3  2  1  0
  4  3  1  0
  4  5  1  0
  5  1  1  0
  6 13  1  0
  5  6  1  1
  7  6  2  0
  9  8  1  0
 10  9  1  0
 12 11  1  1
 11 10  1  0
 12 14  1  0
 12 13  1  0
 14 18  1  0
 15 14  2  0
 17 19  1  0
 17 16  1  1
 18 17  1  0
 19 21  1  0
 20 19  2  0
M  END
$$$$
