PMA.pdb
     RDKit          3D

 21 21  0  0  1  0  0  0  0  0999 V2000
    7.7266  -15.7970   20.6707 N   0  0  0  0  0  0  0  0  0  0  0  0
    7.3841  -15.7525   19.2620 C   0  0  0  0  0  0  0  0  0  0  0  0
    7.7456  -14.4018   18.7392 C   0  0  0  0  0  0  0  0  0  0  0  0
    8.1564  -13.6442   20.0058 C   0  0  0  0  0  0  0  0  0  0  0  0
    8.7269  -14.8013   20.8107 C   0  0  1  0  0  0  0  0  0  0  0  0
    8.9993  -14.3966   22.2039 C   0  0  0  0  0  0  0  0  0  0  0  0
    9.9366  -13.5939   22.4138 O   0  0  0  0  0  0  0  0  0  0  0  0
    6.4367  -10.8401   27.7720 C   0  0  0  0  0  0  0  0  0  0  0  0
    6.2653  -11.6431   26.1512 S   0  0  0  0  0  0  0  0  0  0  0  0
    6.7694  -13.3854   26.3697 C   0  0  0  0  0  0  0  0  0  0  0  0
    6.8905  -14.0704   25.0431 C   0  0  0  0  0  0  0  0  0  0  0  0
    8.3390  -14.2772   24.6516 C   0  0  2  0  0  0  0  0  0  0  0  0
    8.2469  -14.8779   23.3041 N   0  0  0  0  0  0  0  0  0  0  0  0
    9.0801  -15.1760   25.5493 C   0  0  0  0  0  0  0  0  0  0  0  0
    8.5444  -16.2676   25.9561 O   0  0  0  0  0  0  0  0  0  0  0  0
   10.0555  -14.2322   28.3486 C   0  0  0  0  0  0  0  0  0  0  0  0
   10.7583  -15.2070   27.4273 C   0  0  2  0  0  0  0  0  0  0  0  0
   10.3935  -14.9429   26.0267 N   0  0  0  0  0  0  0  0  0  0  0  0
   10.4088  -16.5726   27.8254 C   0  0  0  0  0  0  0  0  0  0  0  0
   10.7310  -16.9788   28.9684 O   0  0  0  0  0  0  0  0  0  0  0  0
    9.7316  -17.4492   26.9928 O   0  0  0  0  0  0  0  0  0  0  0  0
  2  1  1  0
  3  2  1  0
  4  3  1  0
  4  5  1  0
  5  1  1  0
  6 13  1  0
  5  6  1  1
  7  6  2  0
  9  8  1  0
 10  9  1  0
 12 11  1  1
 11 10  1  0
 12 14  1  0
 12 13  1  0
 14 18  1  0
 15 14  2  0
 17 19  1  0
 17 16  1  1
 18 17  1  0
 19 21  1  0
 20 19  2  0
M  END
$$$$
