PMA.pdb
     RDKit          3D

 21 21  0  0  1  0  0  0  0  0999 V2000
    8.8293  -15.5470   19.2630 N   0  0  0  0  0  0  0  0  0  0  0  0
    8.3091  -16.3213   18.1524 C   0  0  0  0  0  0  0  0  0  0  0  0
    7.3945  -17.3649   18.7026 C   0  0  0  0  0  0  0  0  0  0  0  0
    7.5810  -17.2187   20.2162 C   0  0  0  0  0  0  0  0  0  0  0  0
    7.8637  -15.7263   20.2864 C   0  0  1  0  0  0  0  0  0  0  0  0
    8.3186  -15.3341   21.6348 C   0  0  0  0  0  0  0  0  0  0  0  0
    9.5494  -15.3197   21.8626 O   0  0  0  0  0  0  0  0  0  0  0  0
    7.8335  -11.6377   27.9949 C   0  0  0  0  0  0  0  0  0  0  0  0
    7.6909  -12.0285   26.2263 S   0  0  0  0  0  0  0  0  0  0  0  0
    6.8931  -13.6679   26.1107 C   0  0  0  0  0  0  0  0  0  0  0  0
    6.6460  -14.0353   24.6798 C   0  0  0  0  0  0  0  0  0  0  0  0
    7.8854  -14.6145   24.0298 C   0  0  2  0  0  0  0  0  0  0  0  0
    7.4231  -14.9762   22.6732 N   0  0  0  0  0  0  0  0  0  0  0  0
    8.4181  -15.8048   24.7096 C   0  0  0  0  0  0  0  0  0  0  0  0
    7.6589  -16.8131   24.9353 O   0  0  0  0  0  0  0  0  0  0  0  0
   11.6754  -17.4683   25.3163 C   0  0  0  0  0  0  0  0  0  0  0  0
   10.2371  -17.2230   25.7216 C   0  0  2  0  0  0  0  0  0  0  0  0
    9.7544  -15.9535   25.1560 N   0  0  0  0  0  0  0  0  0  0  0  0
   10.1486  -17.2282   27.1837 C   0  0  0  0  0  0  0  0  0  0  0  0
    9.7682  -16.1902   27.7780 O   0  0  0  0  0  0  0  0  0  0  0  0
   10.4677  -18.3357   27.9531 O   0  0  0  0  0  0  0  0  0  0  0  0
  2  1  1  0
  3  2  1  0
  4  3  1  0
  4  5  1  0
  5  1  1  0
  6 13  1  0
  5  6  1  1
  7  6  2  0
  9  8  1  0
 10  9  1  0
 12 11  1  1
 11 10  1  0
 12 14  1  0
 12 13  1  0
 14 18  1  0
 15 14  2  0
 17 19  1  0
 17 16  1  1
 18 17  1  0
 19 21  1  0
 20 19  2  0
M  END
$$$$
