PMA.pdb
     RDKit          3D

 21 21  0  0  1  0  0  0  0  0999 V2000
    7.4797  -15.0874   19.6305 N   0  0  0  0  0  0  0  0  0  0  0  0
    7.0782  -14.5231   18.3562 C   0  0  0  0  0  0  0  0  0  0  0  0
    7.5489  -13.1074   18.3067 C   0  0  0  0  0  0  0  0  0  0  0  0
    8.0924  -12.8789   19.7207 C   0  0  0  0  0  0  0  0  0  0  0  0
    8.5806  -14.2860   20.0273 C   0  0  1  0  0  0  0  0  0  0  0  0
    8.9569  -14.4204   21.4483 C   0  0  0  0  0  0  0  0  0  0  0  0
   10.1745  -14.4349   21.7386 O   0  0  0  0  0  0  0  0  0  0  0  0
    7.6052  -11.3473   27.7323 C   0  0  0  0  0  0  0  0  0  0  0  0
    6.4466  -12.1911   26.6157 S   0  0  0  0  0  0  0  0  0  0  0  0
    7.2802  -13.7117   26.0410 C   0  0  0  0  0  0  0  0  0  0  0  0
    7.1128  -13.8790   24.5620 C   0  0  0  0  0  0  0  0  0  0  0  0
    8.3672  -14.4309   23.9169 C   0  0  2  0  0  0  0  0  0  0  0  0
    8.0009  -14.5326   22.4884 N   0  0  0  0  0  0  0  0  0  0  0  0
    8.7708  -15.7511   24.4239 C   0  0  0  0  0  0  0  0  0  0  0  0
    7.9552  -16.7391   24.3731 O   0  0  0  0  0  0  0  0  0  0  0  0
   11.7701  -17.7848   24.9588 C   0  0  0  0  0  0  0  0  0  0  0  0
   10.3771  -17.4144   25.4228 C   0  0  2  0  0  0  0  0  0  0  0  0
   10.0364  -16.0516   24.9854 N   0  0  0  0  0  0  0  0  0  0  0  0
   10.3126  -17.5429   26.8805 C   0  0  0  0  0  0  0  0  0  0  0  0
   10.0307  -16.5344   27.5725 O   0  0  0  0  0  0  0  0  0  0  0  0
   10.5503  -18.7371   27.5420 O   0  0  0  0  0  0  0  0  0  0  0  0
  2  1  1  0
  3  2  1  0
  4  3  1  0
  4  5  1  0
  5  1  1  0
  6 13  1  0
  5  6  1  1
  7  6  2  0
  9  8  1  0
 10  9  1  0
 12 11  1  1
 11 10  1  0
 12 14  1  0
 12 13  1  0
 14 18  1  0
 15 14  2  0
 17 19  1  0
 17 16  1  1
 18 17  1  0
 19 21  1  0
 20 19  2  0
M  END
$$$$
