PMA.pdb
     RDKit          3D

 21 21  0  0  1  0  0  0  0  0999 V2000
    8.4470  -15.1643   19.4444 N   0  0  0  0  0  0  0  0  0  0  0  0
    7.8954  -15.8859   18.3136 C   0  0  0  0  0  0  0  0  0  0  0  0
    7.0399  -16.9898   18.8403 C   0  0  0  0  0  0  0  0  0  0  0  0
    7.2964  -16.9301   20.3495 C   0  0  0  0  0  0  0  0  0  0  0  0
    7.5386  -15.4365   20.4992 C   0  0  1  0  0  0  0  0  0  0  0  0
    8.0478  -15.1128   21.8464 C   0  0  0  0  0  0  0  0  0  0  0  0
    9.2781  -15.2142   22.0535 O   0  0  0  0  0  0  0  0  0  0  0  0
    8.0990  -11.8506   28.3938 C   0  0  0  0  0  0  0  0  0  0  0  0
    7.9035  -12.1415   26.6109 S   0  0  0  0  0  0  0  0  0  0  0  0
    6.8025  -13.5880   26.4298 C   0  0  0  0  0  0  0  0  0  0  0  0
    6.5098  -13.8512   24.9846 C   0  0  0  0  0  0  0  0  0  0  0  0
    7.7157  -14.4188   24.2650 C   0  0  2  0  0  0  0  0  0  0  0  0
    7.2044  -14.6950   22.9059 N   0  0  0  0  0  0  0  0  0  0  0  0
    8.2423  -15.6557   24.8613 C   0  0  0  0  0  0  0  0  0  0  0  0
    7.4648  -16.6539   25.0691 O   0  0  0  0  0  0  0  0  0  0  0  0
   11.4634  -17.4441   25.2873 C   0  0  0  0  0  0  0  0  0  0  0  0
   10.0525  -17.1602   25.7579 C   0  0  2  0  0  0  0  0  0  0  0  0
    9.5913  -15.8619   25.2418 N   0  0  0  0  0  0  0  0  0  0  0  0
   10.0240  -17.1974   27.2219 C   0  0  0  0  0  0  0  0  0  0  0  0
    9.7643  -16.1461   27.8565 O   0  0  0  0  0  0  0  0  0  0  0  0
   10.2725  -18.3497   27.9505 O   0  0  0  0  0  0  0  0  0  0  0  0
  2  1  1  0
  3  2  1  0
  4  3  1  0
  4  5  1  0
  5  1  1  0
  6 13  1  0
  5  6  1  1
  7  6  2  0
  9  8  1  0
 10  9  1  0
 12 11  1  1
 11 10  1  0
 12 14  1  0
 12 13  1  0
 14 18  1  0
 15 14  2  0
 17 19  1  0
 17 16  1  1
 18 17  1  0
 19 21  1  0
 20 19  2  0
M  END
$$$$
