PMA.pdb
     RDKit          3D

 21 21  0  0  1  0  0  0  0  0999 V2000
    8.7312  -16.3374   19.9976 N   0  0  0  0  0  0  0  0  0  0  0  0
    8.0411  -17.1253   18.9943 C   0  0  0  0  0  0  0  0  0  0  0  0
    6.8243  -17.7167   19.6251 C   0  0  0  0  0  0  0  0  0  0  0  0
    6.9848  -17.3352   21.1002 C   0  0  0  0  0  0  0  0  0  0  0  0
    7.7168  -16.0127   20.9343 C   0  0  1  0  0  0  0  0  0  0  0  0
    8.2156  -15.5147   22.2312 C   0  0  0  0  0  0  0  0  0  0  0  0
    9.4209  -15.7023   22.5125 O   0  0  0  0  0  0  0  0  0  0  0  0
    6.2608  -10.9634   28.3677 C   0  0  0  0  0  0  0  0  0  0  0  0
    5.8130  -11.5764   26.7170 S   0  0  0  0  0  0  0  0  0  0  0  0
    7.1724  -12.6689   26.1731 C   0  0  0  0  0  0  0  0  0  0  0  0
    6.8399  -13.3131   24.8623 C   0  0  0  0  0  0  0  0  0  0  0  0
    7.9080  -14.2998   24.4382 C   0  0  2  0  0  0  0  0  0  0  0  0
    7.3896  -14.8380   23.1628 N   0  0  0  0  0  0  0  0  0  0  0  0
    8.1226  -15.3978   25.3928 C   0  0  0  0  0  0  0  0  0  0  0  0
    8.5786  -15.1533   26.5660 O   0  0  0  0  0  0  0  0  0  0  0  0
    7.5778  -19.1307   25.7066 C   0  0  0  0  0  0  0  0  0  0  0  0
    8.2212  -17.8154   26.0926 C   0  0  2  0  0  0  0  0  0  0  0  0
    7.8569  -16.7643   25.1298 N   0  0  0  0  0  0  0  0  0  0  0  0
    9.6725  -17.9997   26.1635 C   0  0  0  0  0  0  0  0  0  0  0  0
   10.1454  -18.8318   26.9755 O   0  0  0  0  0  0  0  0  0  0  0  0
   10.5607  -17.2925   25.3690 O   0  0  0  0  0  0  0  0  0  0  0  0
  2  1  1  0
  3  2  1  0
  4  3  1  0
  4  5  1  0
  5  1  1  0
  6 13  1  0
  5  6  1  1
  7  6  2  0
  9  8  1  0
 10  9  1  0
 12 11  1  1
 11 10  1  0
 12 14  1  0
 12 13  1  0
 14 18  1  0
 15 14  2  0
 17 19  1  0
 17 16  1  6
 18 17  1  0
 19 21  1  0
 20 19  2  0
M  END
$$$$
