PMA.pdb
     RDKit          3D

 21 21  0  0  1  0  0  0  0  0999 V2000
    7.3437  -15.1147   19.9412 N   0  0  0  0  0  0  0  0  0  0  0  0
    6.9801  -14.7496   18.5855 C   0  0  0  0  0  0  0  0  0  0  0  0
    7.5847  -13.4181   18.2856 C   0  0  0  0  0  0  0  0  0  0  0  0
    8.1684  -12.9960   19.6377 C   0  0  0  0  0  0  0  0  0  0  0  0
    8.5227  -14.3670   20.1918 C   0  0  1  0  0  0  0  0  0  0  0  0
    8.9051  -14.2827   21.6150 C   0  0  0  0  0  0  0  0  0  0  0  0
   10.0665  -13.9084   21.8939 O   0  0  0  0  0  0  0  0  0  0  0  0
    6.9387  -11.0103   27.1706 C   0  0  0  0  0  0  0  0  0  0  0  0
    6.0768  -12.5852   26.8912 S   0  0  0  0  0  0  0  0  0  0  0  0
    7.3116  -13.7500   26.2161 C   0  0  0  0  0  0  0  0  0  0  0  0
    7.1572  -13.8818   24.7320 C   0  0  0  0  0  0  0  0  0  0  0  0
    8.3931  -14.4805   24.0930 C   0  0  2  0  0  0  0  0  0  0  0  0
    8.0153  -14.6065   22.6694 N   0  0  0  0  0  0  0  0  0  0  0  0
    8.7664  -15.7982   24.6289 C   0  0  0  0  0  0  0  0  0  0  0  0
    7.8786  -16.7123   24.7711 O   0  0  0  0  0  0  0  0  0  0  0  0
   11.8304  -17.8835   25.1208 C   0  0  0  0  0  0  0  0  0  0  0  0
   10.3868  -17.5504   25.4342 C   0  0  2  0  0  0  0  0  0  0  0  0
   10.0760  -16.1741   25.0171 N   0  0  0  0  0  0  0  0  0  0  0  0
   10.1558  -17.7427   26.8677 C   0  0  0  0  0  0  0  0  0  0  0  0
   10.3373  -18.8783   27.3705 O   0  0  0  0  0  0  0  0  0  0  0  0
    9.7417  -16.7207   27.7071 O   0  0  0  0  0  0  0  0  0  0  0  0
  2  1  1  0
  3  2  1  0
  4  3  1  0
  4  5  1  0
  5  1  1  0
  6 13  1  0
  5  6  1  1
  7  6  2  0
  9  8  1  0
 10  9  1  0
 12 11  1  1
 11 10  1  0
 12 14  1  0
 12 13  1  0
 14 18  1  0
 15 14  2  0
 17 19  1  0
 17 16  1  1
 18 17  1  0
 19 21  1  0
 20 19  2  0
M  END
$$$$
