QFY.pdb
     RDKit          3D

 33 34  0  0  1  0  0  0  0  0999 V2000
   24.0015  -37.1556  -16.2498 N   0  0  0  0  0  0  0  0  0  0  0  0
   24.0849  -35.8708  -16.8862 C   0  0  0  0  0  0  0  0  0  0  0  0
   24.0718  -35.8664  -18.1276 O   0  0  0  0  0  0  0  0  0  0  0  0
   24.1791  -34.7046  -16.0091 C   0  0  0  0  0  0  0  0  0  0  0  0
   24.2625  -34.9841  -14.5429 C   0  0  0  0  0  0  0  0  0  0  0  0
   25.6251  -34.9030  -13.9613 C   0  0  2  0  0  0  0  0  0  0  0  0
   26.5905  -35.8428  -14.4563 N   0  0  0  0  0  0  0  0  0  0  0  0
   25.5908  -34.9908  -12.4555 C   0  0  0  0  0  0  0  0  0  0  0  0
   25.4296  -36.1067  -11.9107 O   0  0  0  0  0  0  0  0  0  0  0  0
   25.7387  -33.8258  -11.6526 N   0  0  0  0  0  0  0  0  0  0  0  0
   25.8020  -33.8765  -10.2056 C   0  0  1  0  0  0  0  0  0  0  0  0
   26.5436  -32.6537   -9.7267 C   0  0  0  0  0  0  0  0  0  0  0  0
   26.6555  -32.5751   -8.2680 C   0  0  0  0  0  0  0  0  0  0  0  0
   25.7088  -31.8716   -7.5572 C   0  0  0  0  0  0  0  0  0  0  0  0
   25.7780  -31.7723   -6.1714 C   0  0  0  0  0  0  0  0  0  0  0  0
   26.8102  -32.3861   -5.4845 C   0  0  0  0  0  0  0  0  0  0  0  0
   27.7745  -33.1005   -6.1869 C   0  0  0  0  0  0  0  0  0  0  0  0
   27.6747  -33.1788   -7.5665 C   0  0  0  0  0  0  0  0  0  0  0  0
   24.4520  -33.9973   -9.5927 C   0  0  0  0  0  0  0  0  0  0  0  0
   23.4718  -33.3126   -9.9747 O   0  0  0  0  0  0  0  0  0  0  0  0
   19.3211  -35.9332  -13.0324 O   0  0  0  0  0  0  0  0  0  0  0  0
   20.0659  -36.0573  -11.8709 C   0  0  0  0  0  0  0  0  0  0  0  0
   19.5769  -35.5691  -10.6836 C   0  0  0  0  0  0  0  0  0  0  0  0
   20.3312  -35.7027   -9.5455 C   0  0  0  0  0  0  0  0  0  0  0  0
   21.5645  -36.3053   -9.5273 C   0  0  0  0  0  0  0  0  0  0  0  0
   22.3910  -36.4513   -8.3114 C   0  0  0  0  0  0  0  0  0  0  0  0
   22.9659  -35.1489   -7.9055 C   0  0  2  0  0  0  0  0  0  0  0  0
   24.2726  -34.9140   -8.5469 N   0  0  0  0  0  0  0  0  0  0  0  0
   23.0874  -34.9980   -6.4384 C   0  0  0  0  0  0  0  0  0  0  0  0
   24.1726  -35.0410   -5.8094 O   0  0  0  0  0  0  0  0  0  0  0  0
   22.0481  -36.7973  -10.7452 C   0  0  0  0  0  0  0  0  0  0  0  0
   21.2923  -36.6637  -11.8863 C   0  0  0  0  0  0  0  0  0  0  0  0
   21.9077  -34.7947   -5.7063 O   0  0  0  0  0  0  0  0  0  0  0  0
  2  1  1  0
  3  2  2  0
  4  2  1  0
  5  4  1  0
  6  5  1  0
  6  7  1  6
  8  6  1  0
  8  9  2  0
 10  8  1  0
 11 10  1  0
 11 12  1  1
 12 13  1  0
 13 18  1  0
 13 14  2  0
 14 15  1  0
 15 16  2  0
 17 16  1  0
 18 17  2  0
 19 11  1  0
 20 19  2  0
 22 21  1  0
 22 32  2  0
 23 22  1  0
 24 23  2  0
 24 25  1  0
 25 31  2  0
 26 25  1  0
 27 26  1  1
 27 28  1  0
 28 19  1  0
 29 33  1  0
 29 27  1  0
 30 29  2  0
 31 32  1  0
M  END
$$$$
