QFY.pdb
     RDKit          3D

 33 34  0  0  1  0  0  0  0  0999 V2000
   27.2127  -19.6393  -17.5569 N   0  0  0  0  0  0  0  0  0  0  0  0
   28.1666  -18.6740  -17.0867 C   0  0  0  0  0  0  0  0  0  0  0  0
   28.9135  -18.1722  -17.9420 O   0  0  0  0  0  0  0  0  0  0  0  0
   28.1613  -18.3850  -15.6533 C   0  0  0  0  0  0  0  0  0  0  0  0
   27.1252  -19.0914  -14.8394 C   0  0  0  0  0  0  0  0  0  0  0  0
   27.6337  -20.1999  -13.9945 C   0  0  2  0  0  0  0  0  0  0  0  0
   28.3684  -21.2335  -14.6669 N   0  0  0  0  0  0  0  0  0  0  0  0
   26.5269  -20.8363  -13.1906 C   0  0  0  0  0  0  0  0  0  0  0  0
   25.9991  -21.8935  -13.6051 O   0  0  0  0  0  0  0  0  0  0  0  0
   26.0792  -20.2514  -11.9736 N   0  0  0  0  0  0  0  0  0  0  0  0
   24.9760  -20.7928  -11.2054 C   0  0  1  0  0  0  0  0  0  0  0  0
   25.1967  -20.4385   -9.7562 C   0  0  0  0  0  0  0  0  0  0  0  0
   26.5744  -20.6552   -9.3073 C   0  0  0  0  0  0  0  0  0  0  0  0
   26.9820  -20.1231   -8.1044 C   0  0  0  0  0  0  0  0  0  0  0  0
   28.2811  -20.3053   -7.6416 C   0  0  0  0  0  0  0  0  0  0  0  0
   29.1878  -21.0311   -8.3931 C   0  0  0  0  0  0  0  0  0  0  0  0
   28.7927  -21.5753   -9.6102 C   0  0  0  0  0  0  0  0  0  0  0  0
   27.4912  -21.3742  -10.0407 C   0  0  0  0  0  0  0  0  0  0  0  0
   23.6595  -20.3193  -11.7110 C   0  0  0  0  0  0  0  0  0  0  0  0
   23.3070  -19.1158  -11.6563 O   0  0  0  0  0  0  0  0  0  0  0  0
   24.7287  -22.2622  -18.2168 O   0  0  0  0  0  0  0  0  0  0  0  0
   23.9898  -21.6970  -17.1904 C   0  0  0  0  0  0  0  0  0  0  0  0
   22.7896  -22.2526  -16.8187 C   0  0  0  0  0  0  0  0  0  0  0  0
   22.0742  -21.6766  -15.7997 C   0  0  0  0  0  0  0  0  0  0  0  0
   22.4970  -20.5603  -15.1216 C   0  0  0  0  0  0  0  0  0  0  0  0
   21.7352  -19.9251  -14.0266 C   0  0  0  0  0  0  0  0  0  0  0  0
   21.5120  -20.8796  -12.9173 C   0  0  2  0  0  0  0  0  0  0  0  0
   22.7812  -21.2587  -12.2699 N   0  0  0  0  0  0  0  0  0  0  0  0
   20.7732  -22.0926  -13.3328 C   0  0  0  0  0  0  0  0  0  0  0  0
   21.2211  -23.2612  -13.2399 O   0  0  0  0  0  0  0  0  0  0  0  0
   23.7218  -20.0067  -15.5125 C   0  0  0  0  0  0  0  0  0  0  0  0
   24.4393  -20.5838  -16.5339 C   0  0  0  0  0  0  0  0  0  0  0  0
   19.4871  -21.9191  -13.8665 O   0  0  0  0  0  0  0  0  0  0  0  0
  2  1  1  0
  3  2  2  0
  4  2  1  0
  5  4  1  0
  6  5  1  0
  6  7  1  6
  8  6  1  0
  8  9  2  0
 10  8  1  0
 11 10  1  0
 11 12  1  1
 12 13  1  0
 13 18  1  0
 13 14  2  0
 14 15  1  0
 15 16  2  0
 17 16  1  0
 18 17  2  0
 19 11  1  0
 20 19  2  0
 22 21  1  0
 22 32  2  0
 23 22  1  0
 24 23  2  0
 24 25  1  0
 25 31  2  0
 26 25  1  0
 27 26  1  6
 27 28  1  0
 28 19  1  0
 29 33  1  0
 29 27  1  0
 30 29  2  0
 31 32  1  0
M  END
$$$$
