QFY.pdb
     RDKit          3D

 33 34  0  0  1  0  0  0  0  0999 V2000
   27.3520  -19.7939   -8.3352 N   0  0  0  0  0  0  0  0  0  0  0  0
   26.3217  -20.1314   -7.3933 C   0  0  0  0  0  0  0  0  0  0  0  0
   26.6878  -20.3489   -6.2271 O   0  0  0  0  0  0  0  0  0  0  0  0
   24.9527  -20.1866   -7.9040 C   0  0  0  0  0  0  0  0  0  0  0  0
   24.7494  -19.7088   -9.3059 C   0  0  0  0  0  0  0  0  0  0  0  0
   24.8253  -20.7612  -10.3489 C   0  0  2  0  0  0  0  0  0  0  0  0
   25.2632  -22.0590   -9.9196 N   0  0  0  0  0  0  0  0  0  0  0  0
   25.6757  -20.3241  -11.5160 C   0  0  0  0  0  0  0  0  0  0  0  0
   25.8548  -19.1015  -11.7191 O   0  0  0  0  0  0  0  0  0  0  0  0
   26.2728  -21.2807  -12.3832 N   0  0  0  0  0  0  0  0  0  0  0  0
   27.0493  -20.9034  -13.5472 C   0  0  1  0  0  0  0  0  0  0  0  0
   28.3602  -21.6475  -13.4964 C   0  0  0  0  0  0  0  0  0  0  0  0
   29.1763  -21.3095  -12.3275 C   0  0  0  0  0  0  0  0  0  0  0  0
   29.9551  -20.1741  -12.3558 C   0  0  0  0  0  0  0  0  0  0  0  0
   30.7445  -19.8171  -11.2675 C   0  0  0  0  0  0  0  0  0  0  0  0
   30.7559  -20.6075  -10.1322 C   0  0  0  0  0  0  0  0  0  0  0  0
   29.9754  -21.7575  -10.0869 C   0  0  0  0  0  0  0  0  0  0  0  0
   29.2012  -22.0830  -11.1889 C   0  0  0  0  0  0  0  0  0  0  0  0
   26.3083  -21.1460  -14.8140 C   0  0  0  0  0  0  0  0  0  0  0  0
   25.9754  -22.2952  -15.1937 O   0  0  0  0  0  0  0  0  0  0  0  0
   18.4235  -18.1594  -15.5809 O   0  0  0  0  0  0  0  0  0  0  0  0
   19.7541  -18.4576  -15.3361 C   0  0  0  0  0  0  0  0  0  0  0  0
   20.6879  -17.4512  -15.2872 C   0  0  0  0  0  0  0  0  0  0  0  0
   22.0000  -17.7690  -15.0434 C   0  0  0  0  0  0  0  0  0  0  0  0
   22.4375  -19.0547  -14.8431 C   0  0  0  0  0  0  0  0  0  0  0  0
   23.8474  -19.4133  -14.5856 C   0  0  0  0  0  0  0  0  0  0  0  0
   24.5763  -19.6306  -15.8556 C   0  0  2  0  0  0  0  0  0  0  0  0
   25.9706  -20.0436  -15.6122 N   0  0  0  0  0  0  0  0  0  0  0  0
   24.5458  -18.4542  -16.7529 C   0  0  0  0  0  0  0  0  0  0  0  0
   25.1109  -17.3610  -16.5069 O   0  0  0  0  0  0  0  0  0  0  0  0
   21.4735  -20.0683  -14.8961 C   0  0  0  0  0  0  0  0  0  0  0  0
   20.1581  -19.7501  -15.1403 C   0  0  0  0  0  0  0  0  0  0  0  0
   23.8356  -18.5739  -17.9571 O   0  0  0  0  0  0  0  0  0  0  0  0
  2  1  1  0
  3  2  2  0
  4  2  1  0
  5  4  1  0
  6  5  1  0
  6  7  1  1
  8  6  1  0
  8  9  2  0
 10  8  1  0
 11 10  1  0
 11 12  1  6
 12 13  1  0
 13 18  1  0
 13 14  2  0
 14 15  1  0
 15 16  2  0
 17 16  1  0
 18 17  2  0
 19 11  1  0
 20 19  2  0
 22 21  1  0
 22 32  2  0
 23 22  1  0
 24 23  2  0
 24 25  1  0
 25 31  2  0
 26 25  1  0
 27 26  1  1
 27 28  1  0
 28 19  1  0
 29 33  1  0
 29 27  1  0
 30 29  2  0
 31 32  1  0
M  END
$$$$
