QFY.pdb
     RDKit          3D

 33 34  0  0  1  0  0  0  0  0999 V2000
   25.9239  -34.9931  -10.5444 N   0  0  0  0  0  0  0  0  0  0  0  0
   24.7000  -35.7289  -10.6968 C   0  0  0  0  0  0  0  0  0  0  0  0
   24.0285  -35.4818  -11.7113 O   0  0  0  0  0  0  0  0  0  0  0  0
   24.3709  -36.6881   -9.6434 C   0  0  0  0  0  0  0  0  0  0  0  0
   25.3740  -36.8348   -8.5447 C   0  0  0  0  0  0  0  0  0  0  0  0
   24.8127  -36.8211   -7.1713 C   0  0  2  0  0  0  0  0  0  0  0  0
   23.5671  -36.1302   -6.9946 N   0  0  0  0  0  0  0  0  0  0  0  0
   25.8088  -36.2885   -6.1711 C   0  0  0  0  0  0  0  0  0  0  0  0
   26.9197  -36.8542   -6.0525 O   0  0  0  0  0  0  0  0  0  0  0  0
   25.5011  -35.1569   -5.3658 N   0  0  0  0  0  0  0  0  0  0  0  0
   26.4794  -34.5183   -4.5084 C   0  0  1  0  0  0  0  0  0  0  0  0
   26.4848  -33.0432   -4.8225 C   0  0  0  0  0  0  0  0  0  0  0  0
   26.5242  -32.7541   -6.2583 C   0  0  0  0  0  0  0  0  0  0  0  0
   25.4021  -32.2453   -6.8735 C   0  0  0  0  0  0  0  0  0  0  0  0
   25.3973  -31.9571   -8.2343 C   0  0  0  0  0  0  0  0  0  0  0  0
   26.5322  -32.1809   -8.9930 C   0  0  0  0  0  0  0  0  0  0  0  0
   27.6739  -32.6943   -8.3875 C   0  0  0  0  0  0  0  0  0  0  0  0
   27.6436  -32.9699   -7.0301 C   0  0  0  0  0  0  0  0  0  0  0  0
   26.2211  -34.7906   -3.0689 C   0  0  0  0  0  0  0  0  0  0  0  0
   25.0905  -35.1213   -2.6352 O   0  0  0  0  0  0  0  0  0  0  0  0
   23.1977  -40.0003    0.5992 O   0  0  0  0  0  0  0  0  0  0  0  0
   24.2594  -39.2605    0.1046 C   0  0  0  0  0  0  0  0  0  0  0  0
   24.8475  -38.2937    0.8836 C   0  0  0  0  0  0  0  0  0  0  0  0
   25.8975  -37.5729    0.3738 C   0  0  0  0  0  0  0  0  0  0  0  0
   26.3999  -37.7668   -0.8890 C   0  0  0  0  0  0  0  0  0  0  0  0
   27.5257  -36.9948   -1.4540 C   0  0  0  0  0  0  0  0  0  0  0  0
   27.4666  -35.5813   -1.0184 C   0  0  2  0  0  0  0  0  0  0  0  0
   27.2863  -34.6718   -2.1648 N   0  0  0  0  0  0  0  0  0  0  0  0
   28.6443  -35.1673   -0.2237 C   0  0  0  0  0  0  0  0  0  0  0  0
   29.8207  -35.1445   -0.6601 O   0  0  0  0  0  0  0  0  0  0  0  0
   25.7896  -38.7555   -1.6695 C   0  0  0  0  0  0  0  0  0  0  0  0
   24.7370  -39.4784   -1.1589 C   0  0  0  0  0  0  0  0  0  0  0  0
   28.4258  -34.7760    1.1060 O   0  0  0  0  0  0  0  0  0  0  0  0
  2  1  1  0
  3  2  2  0
  4  2  1  0
  5  4  1  0
  6  5  1  0
  6  7  1  6
  8  6  1  0
  8  9  2  0
 10  8  1  0
 11 10  1  0
 11 12  1  1
 12 13  1  0
 13 18  1  0
 13 14  2  0
 14 15  1  0
 15 16  2  0
 17 16  1  0
 18 17  2  0
 19 11  1  0
 20 19  2  0
 22 21  1  0
 22 32  2  0
 23 22  1  0
 24 23  2  0
 24 25  1  0
 25 31  2  0
 26 25  1  0
 27 26  1  6
 27 28  1  0
 28 19  1  0
 29 33  1  0
 29 27  1  0
 30 29  2  0
 31 32  1  0
M  END
$$$$
