QFY.pdb
     RDKit          3D

 33 34  0  0  1  0  0  0  0  0999 V2000
   26.9143  -17.5156  -17.1017 N   0  0  0  0  0  0  0  0  0  0  0  0
   28.3318  -17.7436  -17.1384 C   0  0  0  0  0  0  0  0  0  0  0  0
   28.9861  -17.0352  -17.9203 O   0  0  0  0  0  0  0  0  0  0  0  0
   28.8560  -18.7851  -16.2561 C   0  0  0  0  0  0  0  0  0  0  0  0
   27.8580  -19.4801  -15.3865 C   0  0  0  0  0  0  0  0  0  0  0  0
   28.4352  -20.3812  -14.3588 C   0  0  2  0  0  0  0  0  0  0  0  0
   29.3036  -21.4212  -14.8328 N   0  0  0  0  0  0  0  0  0  0  0  0
   27.3612  -21.0006  -13.4990 C   0  0  0  0  0  0  0  0  0  0  0  0
   26.8859  -22.1137  -13.8202 O   0  0  0  0  0  0  0  0  0  0  0  0
   26.8856  -20.3373  -12.3339 N   0  0  0  0  0  0  0  0  0  0  0  0
   25.7603  -20.8243  -11.5615 C   0  0  1  0  0  0  0  0  0  0  0  0
   25.7142  -20.0544  -10.2655 C   0  0  0  0  0  0  0  0  0  0  0  0
   26.8004  -20.3991   -9.3448 C   0  0  0  0  0  0  0  0  0  0  0  0
   26.9089  -19.7247   -8.1491 C   0  0  0  0  0  0  0  0  0  0  0  0
   27.9253  -20.0210   -7.2468 C   0  0  0  0  0  0  0  0  0  0  0  0
   28.8485  -21.0074   -7.5441 C   0  0  0  0  0  0  0  0  0  0  0  0
   28.7535  -21.6982   -8.7472 C   0  0  0  0  0  0  0  0  0  0  0  0
   27.7286  -21.3772   -9.6225 C   0  0  0  0  0  0  0  0  0  0  0  0
   24.4836  -20.7353  -12.3198 C   0  0  0  0  0  0  0  0  0  0  0  0
   24.2196  -19.7803  -13.0905 O   0  0  0  0  0  0  0  0  0  0  0  0
   16.4349  -22.8575  -15.1314 O   0  0  0  0  0  0  0  0  0  0  0  0
   17.6890  -22.9088  -14.5450 C   0  0  0  0  0  0  0  0  0  0  0  0
   17.8231  -22.7335  -13.1891 C   0  0  0  0  0  0  0  0  0  0  0  0
   19.0744  -22.7884  -12.6293 C   0  0  0  0  0  0  0  0  0  0  0  0
   20.2155  -23.0116  -13.3592 C   0  0  0  0  0  0  0  0  0  0  0  0
   21.5701  -23.0673  -12.7719 C   0  0  0  0  0  0  0  0  0  0  0  0
   22.2178  -21.7369  -12.8141 C   0  0  2  0  0  0  0  0  0  0  0  0
   23.5410  -21.7617  -12.1639 N   0  0  0  0  0  0  0  0  0  0  0  0
   21.3845  -20.6648  -12.2260 C   0  0  0  0  0  0  0  0  0  0  0  0
   21.3306  -20.4016  -11.0001 O   0  0  0  0  0  0  0  0  0  0  0  0
   20.0614  -23.1882  -14.7392 C   0  0  0  0  0  0  0  0  0  0  0  0
   18.8072  -23.1334  -15.3007 C   0  0  0  0  0  0  0  0  0  0  0  0
   20.6038  -19.8947  -13.1014 O   0  0  0  0  0  0  0  0  0  0  0  0
  2  1  1  0
  3  2  2  0
  4  2  1  0
  5  4  1  0
  6  5  1  0
  6  7  1  6
  8  6  1  0
  8  9  2  0
 10  8  1  0
 11 10  1  0
 11 12  1  1
 12 13  1  0
 13 18  1  0
 13 14  2  0
 14 15  1  0
 15 16  2  0
 17 16  1  0
 18 17  2  0
 19 11  1  0
 20 19  2  0
 22 21  1  0
 22 32  2  0
 23 22  1  0
 24 23  2  0
 24 25  1  0
 25 31  2  0
 26 25  1  0
 27 26  1  1
 27 28  1  0
 28 19  1  0
 29 33  1  0
 29 27  1  0
 30 29  2  0
 31 32  1  0
M  END
$$$$
