QFY.pdb
     RDKit          3D

 33 34  0  0  1  0  0  0  0  0999 V2000
   28.7802  -21.6876  -19.9712 N   0  0  0  0  0  0  0  0  0  0  0  0
   27.6494  -20.8123  -20.1042 C   0  0  0  0  0  0  0  0  0  0  0  0
   27.7376  -19.9212  -20.9641 O   0  0  0  0  0  0  0  0  0  0  0  0
   26.5157  -21.0585  -19.2142 C   0  0  0  0  0  0  0  0  0  0  0  0
   26.7090  -22.1129  -18.1721 C   0  0  0  0  0  0  0  0  0  0  0  0
   27.3875  -21.6591  -16.9332 C   0  0  2  0  0  0  0  0  0  0  0  0
   28.6159  -22.3205  -16.5958 N   0  0  0  0  0  0  0  0  0  0  0  0
   26.4628  -21.7169  -15.7423 C   0  0  0  0  0  0  0  0  0  0  0  0
   26.1996  -22.8264  -15.2247 O   0  0  0  0  0  0  0  0  0  0  0  0
   25.8900  -20.5311  -15.2043 N   0  0  0  0  0  0  0  0  0  0  0  0
   25.0723  -20.5311  -14.0079 C   0  0  1  0  0  0  0  0  0  0  0  0
   25.6888  -19.5727  -13.0199 C   0  0  0  0  0  0  0  0  0  0  0  0
   27.0009  -20.0044  -12.5316 C   0  0  0  0  0  0  0  0  0  0  0  0
   28.1360  -19.5746  -13.1821 C   0  0  0  0  0  0  0  0  0  0  0  0
   29.4009  -19.9610  -12.7511 C   0  0  0  0  0  0  0  0  0  0  0  0
   29.5338  -20.7905  -11.6519 C   0  0  0  0  0  0  0  0  0  0  0  0
   28.3979  -21.2336  -10.9834 C   0  0  0  0  0  0  0  0  0  0  0  0
   27.1538  -20.8292  -11.4399 C   0  0  0  0  0  0  0  0  0  0  0  0
   23.6516  -20.2044  -14.3039 C   0  0  0  0  0  0  0  0  0  0  0  0
   23.2992  -19.1075  -14.8022 O   0  0  0  0  0  0  0  0  0  0  0  0
   21.8286  -22.0601  -20.3321 O   0  0  0  0  0  0  0  0  0  0  0  0
   21.5164  -22.0519  -18.9825 C   0  0  0  0  0  0  0  0  0  0  0  0
   22.0509  -23.0016  -18.1460 C   0  0  0  0  0  0  0  0  0  0  0  0
   21.7283  -22.9747  -16.8128 C   0  0  0  0  0  0  0  0  0  0  0  0
   20.8893  -22.0387  -16.2609 C   0  0  0  0  0  0  0  0  0  0  0  0
   20.5278  -22.0004  -14.8289 C   0  0  0  0  0  0  0  0  0  0  0  0
   21.2268  -20.8932  -14.1384 C   0  0  2  0  0  0  0  0  0  0  0  0
   22.6708  -21.1635  -14.0130 N   0  0  0  0  0  0  0  0  0  0  0  0
   20.6528  -20.5805  -12.8107 C   0  0  0  0  0  0  0  0  0  0  0  0
   21.2923  -20.6343  -11.7322 O   0  0  0  0  0  0  0  0  0  0  0  0
   20.3534  -21.0783  -17.1268 C   0  0  0  0  0  0  0  0  0  0  0  0
   20.6766  -21.1047  -18.4632 C   0  0  0  0  0  0  0  0  0  0  0  0
   19.3032  -20.2000  -12.7597 O   0  0  0  0  0  0  0  0  0  0  0  0
  2  1  1  0
  3  2  2  0
  4  2  1  0
  5  4  1  0
  6  5  1  0
  6  7  1  1
  8  6  1  0
  8  9  2  0
 10  8  1  0
 11 10  1  0
 11 12  1  1
 12 13  1  0
 13 18  1  0
 13 14  2  0
 14 15  1  0
 15 16  2  0
 17 16  1  0
 18 17  2  0
 19 11  1  0
 20 19  2  0
 22 21  1  0
 22 32  2  0
 23 22  1  0
 24 23  2  0
 24 25  1  0
 25 31  2  0
 26 25  1  0
 27 26  1  1
 27 28  1  0
 28 19  1  0
 29 33  1  0
 29 27  1  0
 30 29  2  0
 31 32  1  0
M  END
$$$$
