QFY.pdb
     RDKit          3D

 33 34  0  0  1  0  0  0  0  0999 V2000
   30.8022  -23.9430  -19.5333 N   0  0  0  0  0  0  0  0  0  0  0  0
   32.1194  -24.1007  -20.0834 C   0  0  0  0  0  0  0  0  0  0  0  0
   32.9115  -23.1624  -19.9005 O   0  0  0  0  0  0  0  0  0  0  0  0
   32.3899  -25.3450  -20.8022 C   0  0  0  0  0  0  0  0  0  0  0  0
   31.3284  -26.3953  -20.7302 C   0  0  0  0  0  0  0  0  0  0  0  0
   31.5833  -27.6075  -21.5468 C   0  0  2  0  0  0  0  0  0  0  0  0
   31.5056  -27.4490  -22.9713 N   0  0  0  0  0  0  0  0  0  0  0  0
   30.6875  -28.7502  -21.1365 C   0  0  0  0  0  0  0  0  0  0  0  0
   29.7355  -29.0794  -21.8805 O   0  0  0  0  0  0  0  0  0  0  0  0
   30.9117  -29.4535  -19.9205 N   0  0  0  0  0  0  0  0  0  0  0  0
   30.0648  -30.5441  -19.4806 C   0  0  1  0  0  0  0  0  0  0  0  0
   30.8928  -31.8047  -19.4706 C   0  0  0  0  0  0  0  0  0  0  0  0
   31.7919  -31.9195  -20.6216 C   0  0  0  0  0  0  0  0  0  0  0  0
   31.3435  -32.5390  -21.7669 C   0  0  0  0  0  0  0  0  0  0  0  0
   32.1649  -32.6690  -22.8820 C   0  0  0  0  0  0  0  0  0  0  0  0
   33.4555  -32.1718  -22.8523 C   0  0  0  0  0  0  0  0  0  0  0  0
   33.9242  -31.5434  -21.7038 C   0  0  0  0  0  0  0  0  0  0  0  0
   33.0791  -31.4314  -20.6116 C   0  0  0  0  0  0  0  0  0  0  0  0
   29.4390  -30.2661  -18.1600 C   0  0  0  0  0  0  0  0  0  0  0  0
   30.0359  -29.6474  -17.2454 O   0  0  0  0  0  0  0  0  0  0  0  0
   23.1393  -34.2531  -19.4126 O   0  0  0  0  0  0  0  0  0  0  0  0
   23.8323  -33.2002  -18.8379 C   0  0  0  0  0  0  0  0  0  0  0  0
   23.9232  -33.0997  -17.4709 C   0  0  0  0  0  0  0  0  0  0  0  0
   24.6144  -32.0489  -16.9230 C   0  0  0  0  0  0  0  0  0  0  0  0
   25.2284  -31.0788  -17.6757 C   0  0  0  0  0  0  0  0  0  0  0  0
   25.9710  -29.9383  -17.1005 C   0  0  0  0  0  0  0  0  0  0  0  0
   27.3507  -30.3356  -16.7404 C   0  0  2  0  0  0  0  0  0  0  0  0
   28.1302  -30.7152  -17.9330 N   0  0  0  0  0  0  0  0  0  0  0  0
   27.4005  -31.4213  -15.7361 C   0  0  0  0  0  0  0  0  0  0  0  0
   26.8986  -31.3478  -14.5881 O   0  0  0  0  0  0  0  0  0  0  0  0
   25.1265  -31.1959  -19.0668 C   0  0  0  0  0  0  0  0  0  0  0  0
   24.4338  -32.2492  -19.6164 C   0  0  0  0  0  0  0  0  0  0  0  0
   28.0544  -32.6095  -16.0957 O   0  0  0  0  0  0  0  0  0  0  0  0
  2  1  1  0
  3  2  2  0
  4  2  1  0
  5  4  1  0
  6  5  1  0
  6  7  1  6
  8  6  1  0
  8  9  2  0
 10  8  1  0
 11 10  1  0
 11 12  1  1
 12 13  1  0
 13 18  1  0
 13 14  2  0
 14 15  1  0
 15 16  2  0
 17 16  1  0
 18 17  2  0
 19 11  1  0
 20 19  2  0
 22 21  1  0
 22 32  2  0
 23 22  1  0
 24 23  2  0
 24 25  1  0
 25 31  2  0
 26 25  1  0
 27 26  1  6
 27 28  1  0
 28 19  1  0
 29 33  1  0
 29 27  1  0
 30 29  2  0
 31 32  1  0
M  END
$$$$
