QFY.pdb
     RDKit          3D

 33 34  0  0  1  0  0  0  0  0999 V2000
   28.1653  -21.2650  -15.5875 N   0  0  0  0  0  0  0  0  0  0  0  0
   28.9238  -20.0483  -15.5052 C   0  0  0  0  0  0  0  0  0  0  0  0
   29.5082  -19.6895  -16.5401 O   0  0  0  0  0  0  0  0  0  0  0  0
   28.9317  -19.3613  -14.2144 C   0  0  0  0  0  0  0  0  0  0  0  0
   28.1410  -20.0014  -13.1190 C   0  0  0  0  0  0  0  0  0  0  0  0
   28.9305  -20.4313  -11.9387 C   0  0  2  0  0  0  0  0  0  0  0  0
   30.0100  -21.3441  -12.1872 N   0  0  0  0  0  0  0  0  0  0  0  0
   28.0462  -21.0080  -10.8608 C   0  0  0  0  0  0  0  0  0  0  0  0
   27.7072  -22.2117  -10.9260 O   0  0  0  0  0  0  0  0  0  0  0  0
   27.5960  -20.2034   -9.7775 N   0  0  0  0  0  0  0  0  0  0  0  0
   26.2576  -20.3057   -9.2312 C   0  0  1  0  0  0  0  0  0  0  0  0
   26.1937  -19.4549   -7.9875 C   0  0  0  0  0  0  0  0  0  0  0  0
   27.2131  -19.7999   -6.9934 C   0  0  0  0  0  0  0  0  0  0  0  0
   27.0858  -20.9687   -6.2764 C   0  0  0  0  0  0  0  0  0  0  0  0
   28.0311  -21.3334   -5.3234 C   0  0  0  0  0  0  0  0  0  0  0  0
   29.1216  -20.5169   -5.0827 C   0  0  0  0  0  0  0  0  0  0  0  0
   29.2654  -19.3330   -5.7979 C   0  0  0  0  0  0  0  0  0  0  0  0
   28.3050  -19.0007   -6.7396 C   0  0  0  0  0  0  0  0  0  0  0  0
   25.2187  -19.9319  -10.2281 C   0  0  0  0  0  0  0  0  0  0  0  0
   25.4946  -19.3586  -11.3102 O   0  0  0  0  0  0  0  0  0  0  0  0
   19.4342  -22.2387  -16.0338 O   0  0  0  0  0  0  0  0  0  0  0  0
   20.3754  -22.0390  -15.0371 C   0  0  0  0  0  0  0  0  0  0  0  0
   20.5499  -20.7888  -14.4950 C   0  0  0  0  0  0  0  0  0  0  0  0
   21.4875  -20.6134  -13.5090 C   0  0  0  0  0  0  0  0  0  0  0  0
   22.2720  -21.6321  -13.0277 C   0  0  0  0  0  0  0  0  0  0  0  0
   23.2898  -21.4579  -11.9710 C   0  0  0  0  0  0  0  0  0  0  0  0
   22.8636  -20.4315  -10.9931 C   0  0  2  0  0  0  0  0  0  0  0  0
   23.8795  -20.2342   -9.9428 N   0  0  0  0  0  0  0  0  0  0  0  0
   21.5495  -20.7231  -10.3783 C   0  0  0  0  0  0  0  0  0  0  0  0
   20.4738  -20.1679  -10.7095 O   0  0  0  0  0  0  0  0  0  0  0  0
   22.0816  -22.8995  -13.5905 C   0  0  0  0  0  0  0  0  0  0  0  0
   21.1417  -23.0757  -14.5789 C   0  0  0  0  0  0  0  0  0  0  0  0
   21.5091  -21.6844   -9.3570 O   0  0  0  0  0  0  0  0  0  0  0  0
  2  1  1  0
  3  2  2  0
  4  2  1  0
  5  4  1  0
  6  5  1  0
  6  7  1  6
  8  6  1  0
  8  9  2  0
 10  8  1  0
 11 10  1  0
 11 12  1  1
 12 13  1  0
 13 18  1  0
 13 14  2  0
 14 15  1  0
 15 16  2  0
 17 16  1  0
 18 17  2  0
 19 11  1  0
 20 19  2  0
 22 21  1  0
 22 32  2  0
 23 22  1  0
 24 23  2  0
 24 25  1  0
 25 31  2  0
 26 25  1  0
 27 26  1  6
 27 28  1  0
 28 19  1  0
 29 33  1  0
 29 27  1  0
 30 29  2  0
 31 32  1  0
M  END
$$$$
