QFY.pdb
     RDKit          3D

 33 34  0  0  1  0  0  0  0  0999 V2000
   26.4240  -24.0050  -20.3936 N   0  0  0  0  0  0  0  0  0  0  0  0
   26.4956  -22.9988  -21.4159 C   0  0  0  0  0  0  0  0  0  0  0  0
   26.3872  -23.3925  -22.5883 O   0  0  0  0  0  0  0  0  0  0  0  0
   26.6910  -21.6195  -20.9719 C   0  0  0  0  0  0  0  0  0  0  0  0
   26.7069  -21.3958  -19.4938 C   0  0  0  0  0  0  0  0  0  0  0  0
   26.8417  -19.9800  -19.0709 C   0  0  2  0  0  0  0  0  0  0  0  0
   28.0897  -19.3374  -19.3704 N   0  0  0  0  0  0  0  0  0  0  0  0
   26.5499  -19.8110  -17.6003 C   0  0  0  0  0  0  0  0  0  0  0  0
   27.4665  -20.0008  -16.7685 O   0  0  0  0  0  0  0  0  0  0  0  0
   25.2519  -19.4405  -17.1512 N   0  0  0  0  0  0  0  0  0  0  0  0
   24.9315  -19.2607  -15.7494 C   0  0  1  0  0  0  0  0  0  0  0  0
   24.4367  -17.8486  -15.5600 C   0  0  0  0  0  0  0  0  0  0  0  0
   25.5022  -16.8451  -15.6248 C   0  0  0  0  0  0  0  0  0  0  0  0
   25.8533  -16.3141  -16.8459 C   0  0  0  0  0  0  0  0  0  0  0  0
   26.8592  -15.3591  -16.9516 C   0  0  0  0  0  0  0  0  0  0  0  0
   27.5254  -14.9276  -15.8185 C   0  0  0  0  0  0  0  0  0  0  0  0
   27.1832  -15.4536  -14.5775 C   0  0  0  0  0  0  0  0  0  0  0  0
   26.1765  -16.4030  -14.5090 C   0  0  0  0  0  0  0  0  0  0  0  0
   23.9546  -20.2735  -15.2667 C   0  0  0  0  0  0  0  0  0  0  0  0
   22.9478  -20.6142  -15.9343 O   0  0  0  0  0  0  0  0  0  0  0  0
   26.6244  -19.9020   -8.4744 O   0  0  0  0  0  0  0  0  0  0  0  0
   25.9965  -20.6193   -9.4796 C   0  0  0  0  0  0  0  0  0  0  0  0
   26.7019  -21.0072  -10.5928 C   0  0  0  0  0  0  0  0  0  0  0  0
   26.0604  -21.7168  -11.5761 C   0  0  0  0  0  0  0  0  0  0  0  0
   24.7342  -22.0652  -11.5084 C   0  0  0  0  0  0  0  0  0  0  0  0
   24.0280  -22.8236  -12.5615 C   0  0  0  0  0  0  0  0  0  0  0  0
   23.2884  -21.9107  -13.4621 C   0  0  2  0  0  0  0  0  0  0  0  0
   24.1719  -20.8681  -14.0155 N   0  0  0  0  0  0  0  0  0  0  0  0
   22.1100  -21.2875  -12.8195 C   0  0  0  0  0  0  0  0  0  0  0  0
   21.0813  -21.9141  -12.4673 O   0  0  0  0  0  0  0  0  0  0  0  0
   24.0300  -21.6625  -10.3677 C   0  0  0  0  0  0  0  0  0  0  0  0
   24.6728  -20.9512   -9.3817 C   0  0  0  0  0  0  0  0  0  0  0  0
   22.1502  -19.9035  -12.5921 O   0  0  0  0  0  0  0  0  0  0  0  0
  2  1  1  0
  3  2  2  0
  4  2  1  0
  5  4  1  0
  6  5  1  0
  6  7  1  1
  8  6  1  0
  8  9  2  0
 10  8  1  0
 11 10  1  0
 11 12  1  6
 12 13  1  0
 13 18  1  0
 13 14  2  0
 14 15  1  0
 15 16  2  0
 17 16  1  0
 18 17  2  0
 19 11  1  0
 20 19  2  0
 22 21  1  0
 22 32  2  0
 23 22  1  0
 24 23  2  0
 24 25  1  0
 25 31  2  0
 26 25  1  0
 27 26  1  1
 27 28  1  0
 28 19  1  0
 29 33  1  0
 29 27  1  0
 30 29  2  0
 31 32  1  0
M  END
$$$$
