QFY.pdb
     RDKit          3D

 33 34  0  0  1  0  0  0  0  0999 V2000
   26.4316  -18.1039  -16.4935 N   0  0  0  0  0  0  0  0  0  0  0  0
   27.6102  -18.6882  -17.0699 C   0  0  0  0  0  0  0  0  0  0  0  0
   28.3300  -17.9327  -17.7424 O   0  0  0  0  0  0  0  0  0  0  0  0
   27.8384  -20.1086  -16.8082 C   0  0  0  0  0  0  0  0  0  0  0  0
   26.8775  -20.7725  -15.8750 C   0  0  0  0  0  0  0  0  0  0  0  0
   27.1283  -20.5302  -14.4329 C   0  0  2  0  0  0  0  0  0  0  0  0
   28.3671  -21.0272  -13.9051 N   0  0  0  0  0  0  0  0  0  0  0  0
   25.9959  -21.0458  -13.5794 C   0  0  0  0  0  0  0  0  0  0  0  0
   25.6520  -22.2458  -13.6784 O   0  0  0  0  0  0  0  0  0  0  0  0
   25.3188  -20.1880  -12.6687 N   0  0  0  0  0  0  0  0  0  0  0  0
   24.1767  -20.6211  -11.8889 C   0  0  1  0  0  0  0  0  0  0  0  0
   24.0987  -19.7581  -10.6545 C   0  0  0  0  0  0  0  0  0  0  0  0
   25.2097  -19.9720   -9.7237 C   0  0  0  0  0  0  0  0  0  0  0  0
   24.9949  -20.7011   -8.5754 C   0  0  0  0  0  0  0  0  0  0  0  0
   26.0223  -20.9274   -7.6654 C   0  0  0  0  0  0  0  0  0  0  0  0
   27.2852  -20.4168   -7.9067 C   0  0  0  0  0  0  0  0  0  0  0  0
   27.5193  -19.6783   -9.0615 C   0  0  0  0  0  0  0  0  0  0  0  0
   26.4731  -19.4723   -9.9461 C   0  0  0  0  0  0  0  0  0  0  0  0
   22.9180  -20.5928  -12.6812 C   0  0  0  0  0  0  0  0  0  0  0  0
   22.6251  -19.6467  -13.4523 O   0  0  0  0  0  0  0  0  0  0  0  0
   15.2856  -23.0012  -16.2044 O   0  0  0  0  0  0  0  0  0  0  0  0
   16.5472  -22.9970  -15.6320 C   0  0  0  0  0  0  0  0  0  0  0  0
   16.7287  -23.4867  -14.3613 C   0  0  0  0  0  0  0  0  0  0  0  0
   17.9865  -23.4729  -13.8138 C   0  0  0  0  0  0  0  0  0  0  0  0
   19.0889  -22.9902  -14.4745 C   0  0  0  0  0  0  0  0  0  0  0  0
   20.4482  -22.9631  -13.8962 C   0  0  0  0  0  0  0  0  0  0  0  0
   20.6981  -21.6823  -13.1973 C   0  0  2  0  0  0  0  0  0  0  0  0
   22.0266  -21.6683  -12.5581 N   0  0  0  0  0  0  0  0  0  0  0  0
   19.6541  -21.3481  -12.2032 C   0  0  0  0  0  0  0  0  0  0  0  0
   19.6940  -21.6831  -10.9944 O   0  0  0  0  0  0  0  0  0  0  0  0
   18.8867  -22.4951  -15.7681 C   0  0  0  0  0  0  0  0  0  0  0  0
   17.6260  -22.5088  -16.3173 C   0  0  0  0  0  0  0  0  0  0  0  0
   18.5475  -20.6083  -12.6470 O   0  0  0  0  0  0  0  0  0  0  0  0
  2  1  1  0
  3  2  2  0
  4  2  1  0
  5  4  1  0
  6  5  1  0
  6  7  1  1
  8  6  1  0
  8  9  2  0
 10  8  1  0
 11 10  1  0
 11 12  1  1
 12 13  1  0
 13 18  1  0
 13 14  2  0
 14 15  1  0
 15 16  2  0
 17 16  1  0
 18 17  2  0
 19 11  1  0
 20 19  2  0
 22 21  1  0
 22 32  2  0
 23 22  1  0
 24 23  2  0
 24 25  1  0
 25 31  2  0
 26 25  1  0
 27 26  1  1
 27 28  1  0
 28 19  1  0
 29 33  1  0
 29 27  1  0
 30 29  2  0
 31 32  1  0
M  END
$$$$
