QFY.pdb
     RDKit          3D

 33 34  0  0  1  0  0  0  0  0999 V2000
   27.9982  -19.9092  -18.2929 N   0  0  0  0  0  0  0  0  0  0  0  0
   28.0163  -20.8867  -19.3449 C   0  0  0  0  0  0  0  0  0  0  0  0
   28.8089  -20.6809  -20.2779 O   0  0  0  0  0  0  0  0  0  0  0  0
   27.1001  -22.0183  -19.2103 C   0  0  0  0  0  0  0  0  0  0  0  0
   26.3435  -22.1081  -17.9240 C   0  0  0  0  0  0  0  0  0  0  0  0
   27.1821  -22.1970  -16.7032 C   0  0  2  0  0  0  0  0  0  0  0  0
   28.0622  -23.3271  -16.6108 N   0  0  0  0  0  0  0  0  0  0  0  0
   26.3446  -22.1309  -15.4499 C   0  0  0  0  0  0  0  0  0  0  0  0
   25.1665  -22.5543  -15.4777 O   0  0  0  0  0  0  0  0  0  0  0  0
   26.8763  -21.5957  -14.2439 N   0  0  0  0  0  0  0  0  0  0  0  0
   26.0729  -21.4029  -13.0532 C   0  0  1  0  0  0  0  0  0  0  0  0
   26.9641  -20.8425  -11.9732 C   0  0  0  0  0  0  0  0  0  0  0  0
   26.2526  -20.5456  -10.7274 C   0  0  0  0  0  0  0  0  0  0  0  0
   25.8820  -21.5825   -9.9004 C   0  0  0  0  0  0  0  0  0  0  0  0
   25.2051  -21.3442   -8.7088 C   0  0  0  0  0  0  0  0  0  0  0  0
   24.8934  -20.0485   -8.3373 C   0  0  0  0  0  0  0  0  0  0  0  0
   25.2603  -18.9899   -9.1608 C   0  0  0  0  0  0  0  0  0  0  0  0
   25.9335  -19.2635  -10.3405 C   0  0  0  0  0  0  0  0  0  0  0  0
   24.8879  -20.5424  -13.3139 C   0  0  0  0  0  0  0  0  0  0  0  0
   24.9851  -19.3774  -13.7710 O   0  0  0  0  0  0  0  0  0  0  0  0
   17.4452  -16.7180  -14.9369 O   0  0  0  0  0  0  0  0  0  0  0  0
   18.5684  -17.5243  -14.8493 C   0  0  0  0  0  0  0  0  0  0  0  0
   18.4407  -18.8912  -14.8989 C   0  0  0  0  0  0  0  0  0  0  0  0
   19.5662  -19.6706  -14.8103 C   0  0  0  0  0  0  0  0  0  0  0  0
   20.8302  -19.1531  -14.6726 C   0  0  0  0  0  0  0  0  0  0  0  0
   22.0508  -19.9792  -14.5698 C   0  0  0  0  0  0  0  0  0  0  0  0
   22.3834  -20.2540  -13.1537 C   0  0  2  0  0  0  0  0  0  0  0  0
   23.6137  -21.0579  -13.0361 N   0  0  0  0  0  0  0  0  0  0  0  0
   21.2803  -20.9047  -12.4124 C   0  0  0  0  0  0  0  0  0  0  0  0
   21.0316  -22.1343  -12.4479 O   0  0  0  0  0  0  0  0  0  0  0  0
   20.9429  -17.7587  -14.6238 C   0  0  0  0  0  0  0  0  0  0  0  0
   19.8149  -16.9770  -14.7127 C   0  0  0  0  0  0  0  0  0  0  0  0
   20.4601  -20.0880  -11.6192 O   0  0  0  0  0  0  0  0  0  0  0  0
  2  1  1  0
  3  2  2  0
  4  2  1  0
  5  4  1  0
  6  5  1  0
  6  7  1  6
  8  6  1  0
  8  9  2  0
 10  8  1  0
 11 10  1  0
 11 12  1  1
 12 13  1  0
 13 18  1  0
 13 14  2  0
 14 15  1  0
 15 16  2  0
 17 16  1  0
 18 17  2  0
 19 11  1  0
 20 19  2  0
 22 21  1  0
 22 32  2  0
 23 22  1  0
 24 23  2  0
 24 25  1  0
 25 31  2  0
 26 25  1  0
 27 26  1  6
 27 28  1  0
 28 19  1  0
 29 33  1  0
 29 27  1  0
 30 29  2  0
 31 32  1  0
M  END
$$$$
