QFY.pdb
     RDKit          3D

 33 34  0  0  1  0  0  0  0  0999 V2000
   33.8114  -40.2224   -1.7802 N   0  0  0  0  0  0  0  0  0  0  0  0
   33.2561  -39.8279   -3.0446 C   0  0  0  0  0  0  0  0  0  0  0  0
   32.8019  -40.7372   -3.7573 O   0  0  0  0  0  0  0  0  0  0  0  0
   33.2854  -38.4008   -3.3619 C   0  0  0  0  0  0  0  0  0  0  0  0
   33.8402  -37.4992   -2.3063 C   0  0  0  0  0  0  0  0  0  0  0  0
   32.8647  -36.5573   -1.7041 C   0  0  2  0  0  0  0  0  0  0  0  0
   32.2068  -35.6532   -2.6041 N   0  0  0  0  0  0  0  0  0  0  0  0
   33.4841  -35.7602   -0.5827 C   0  0  0  0  0  0  0  0  0  0  0  0
   34.1499  -36.3544    0.2957 O   0  0  0  0  0  0  0  0  0  0  0  0
   33.3206  -34.3488   -0.5133 N   0  0  0  0  0  0  0  0  0  0  0  0
   33.8564  -33.5523    0.5724 C   0  0  1  0  0  0  0  0  0  0  0  0
   34.6571  -32.4232   -0.0265 C   0  0  0  0  0  0  0  0  0  0  0  0
   36.0277  -32.8040   -0.3774 C   0  0  0  0  0  0  0  0  0  0  0  0
   36.3146  -33.1659   -1.6747 C   0  0  0  0  0  0  0  0  0  0  0  0
   37.6025  -33.5341   -2.0497 C   0  0  0  0  0  0  0  0  0  0  0  0
   38.6206  -33.5409   -1.1131 C   0  0  0  0  0  0  0  0  0  0  0  0
   38.3480  -33.1782    0.2014 C   0  0  0  0  0  0  0  0  0  0  0  0
   37.0541  -32.8170    0.5401 C   0  0  0  0  0  0  0  0  0  0  0  0
   32.7884  -33.0671    1.4873 C   0  0  0  0  0  0  0  0  0  0  0  0
   31.7355  -32.5253    1.0709 O   0  0  0  0  0  0  0  0  0  0  0  0
   25.7262  -31.8243    3.2103 O   0  0  0  0  0  0  0  0  0  0  0  0
   26.9745  -32.4244    3.2365 C   0  0  0  0  0  0  0  0  0  0  0  0
   27.5397  -32.8897    2.0741 C   0  0  0  0  0  0  0  0  0  0  0  0
   28.7768  -33.4806    2.1230 C   0  0  0  0  0  0  0  0  0  0  0  0
   29.4909  -33.6350    3.2852 C   0  0  0  0  0  0  0  0  0  0  0  0
   30.8210  -34.2744    3.3549 C   0  0  0  0  0  0  0  0  0  0  0  0
   31.8452  -33.3110    3.8179 C   0  0  2  0  0  0  0  0  0  0  0  0
   32.9702  -33.2238    2.8689 N   0  0  0  0  0  0  0  0  0  0  0  0
   32.3508  -33.6071    5.1769 C   0  0  0  0  0  0  0  0  0  0  0  0
   33.0540  -34.6046    5.4692 O   0  0  0  0  0  0  0  0  0  0  0  0
   28.9010  -33.1555    4.4606 C   0  0  0  0  0  0  0  0  0  0  0  0
   27.6609  -32.5630    4.4120 C   0  0  0  0  0  0  0  0  0  0  0  0
   32.0181  -32.7103    6.2035 O   0  0  0  0  0  0  0  0  0  0  0  0
  2  1  1  0
  3  2  2  0
  4  2  1  0
  5  4  1  0
  6  5  1  0
  6  7  1  6
  8  6  1  0
  8  9  2  0
 10  8  1  0
 11 10  1  0
 11 12  1  6
 12 13  1  0
 13 18  1  0
 13 14  2  0
 14 15  1  0
 15 16  2  0
 17 16  1  0
 18 17  2  0
 19 11  1  0
 20 19  2  0
 22 21  1  0
 22 32  2  0
 23 22  1  0
 24 23  2  0
 24 25  1  0
 25 31  2  0
 26 25  1  0
 27 26  1  6
 27 28  1  0
 28 19  1  0
 29 33  1  0
 29 27  1  0
 30 29  2  0
 31 32  1  0
M  END
$$$$
