QFY.pdb
     RDKit          3D

 33 34  0  0  1  0  0  0  0  0999 V2000
   29.8089  -19.5040  -14.6235 N   0  0  0  0  0  0  0  0  0  0  0  0
   28.8652  -19.8856  -15.6367 C   0  0  0  0  0  0  0  0  0  0  0  0
   29.0267  -19.3835  -16.7605 O   0  0  0  0  0  0  0  0  0  0  0  0
   27.8135  -20.8210  -15.2405 C   0  0  0  0  0  0  0  0  0  0  0  0
   27.8646  -21.3162  -13.8308 C   0  0  0  0  0  0  0  0  0  0  0  0
   26.8629  -20.7174  -12.9146 C   0  0  2  0  0  0  0  0  0  0  0  0
   26.7537  -19.2863  -12.9309 N   0  0  0  0  0  0  0  0  0  0  0  0
   27.0729  -21.1715  -11.4912 C   0  0  0  0  0  0  0  0  0  0  0  0
   26.7671  -22.3428  -11.1707 O   0  0  0  0  0  0  0  0  0  0  0  0
   27.6116  -20.2881  -10.5149 N   0  0  0  0  0  0  0  0  0  0  0  0
   27.5158  -20.5438   -9.0916 C   0  0  1  0  0  0  0  0  0  0  0  0
   28.7579  -19.9974   -8.4335 C   0  0  0  0  0  0  0  0  0  0  0  0
   28.7003  -20.0232   -6.9698 C   0  0  0  0  0  0  0  0  0  0  0  0
   28.4203  -18.8608   -6.2866 C   0  0  0  0  0  0  0  0  0  0  0  0
   28.3563  -18.8418   -4.8971 C   0  0  0  0  0  0  0  0  0  0  0  0
   28.5757  -20.0034   -4.1784 C   0  0  0  0  0  0  0  0  0  0  0  0
   28.8596  -21.1859   -4.8527 C   0  0  0  0  0  0  0  0  0  0  0  0
   28.9156  -21.1686   -6.2369 C   0  0  0  0  0  0  0  0  0  0  0  0
   26.2694  -19.9803   -8.5069 C   0  0  0  0  0  0  0  0  0  0  0  0
   26.1282  -18.7564   -8.2665 O   0  0  0  0  0  0  0  0  0  0  0  0
   21.9237  -22.2372  -13.4674 O   0  0  0  0  0  0  0  0  0  0  0  0
   22.2428  -21.5673  -12.2976 C   0  0  0  0  0  0  0  0  0  0  0  0
   21.3921  -21.6192  -11.2201 C   0  0  0  0  0  0  0  0  0  0  0  0
   21.7278  -20.9483  -10.0715 C   0  0  0  0  0  0  0  0  0  0  0  0
   22.8824  -20.2179   -9.9374 C   0  0  0  0  0  0  0  0  0  0  0  0
   23.2547  -19.4854   -8.7096 C   0  0  0  0  0  0  0  0  0  0  0  0
   23.9004  -20.3899   -7.7317 C   0  0  2  0  0  0  0  0  0  0  0  0
   25.2135  -20.8553   -8.2145 N   0  0  0  0  0  0  0  0  0  0  0  0
   23.0560  -21.5484   -7.3645 C   0  0  0  0  0  0  0  0  0  0  0  0
   23.3929  -22.7475   -7.5186 O   0  0  0  0  0  0  0  0  0  0  0  0
   23.7381  -20.1753  -11.0443 C   0  0  0  0  0  0  0  0  0  0  0  0
   23.4021  -20.8477  -12.1959 C   0  0  0  0  0  0  0  0  0  0  0  0
   21.7954  -21.2832   -6.8082 O   0  0  0  0  0  0  0  0  0  0  0  0
  2  1  1  0
  3  2  2  0
  4  2  1  0
  5  4  1  0
  6  5  1  0
  6  7  1  1
  8  6  1  0
  8  9  2  0
 10  8  1  0
 11 10  1  0
 11 12  1  1
 12 13  1  0
 13 18  1  0
 13 14  2  0
 14 15  1  0
 15 16  2  0
 17 16  1  0
 18 17  2  0
 19 11  1  0
 20 19  2  0
 22 21  1  0
 22 32  2  0
 23 22  1  0
 24 23  2  0
 24 25  1  0
 25 31  2  0
 26 25  1  0
 27 26  1  6
 27 28  1  0
 28 19  1  0
 29 33  1  0
 29 27  1  0
 30 29  2  0
 31 32  1  0
M  END
$$$$
