QFY.pdb
     RDKit          3D

 33 34  0  0  1  0  0  0  0  0999 V2000
   25.5228  -17.5129  -17.1649 N   0  0  0  0  0  0  0  0  0  0  0  0
   25.5692  -17.9844  -18.5207 C   0  0  0  0  0  0  0  0  0  0  0  0
   25.5014  -17.1203  -19.4095 O   0  0  0  0  0  0  0  0  0  0  0  0
   25.6883  -19.4289  -18.7136 C   0  0  0  0  0  0  0  0  0  0  0  0
   25.8390  -20.2520  -17.4747 C   0  0  0  0  0  0  0  0  0  0  0  0
   27.2340  -20.6163  -17.1246 C   0  0  2  0  0  0  0  0  0  0  0  0
   27.8825  -21.5678  -17.9815 N   0  0  0  0  0  0  0  0  0  0  0  0
   27.3396  -21.0973  -15.6984 C   0  0  0  0  0  0  0  0  0  0  0  0
   26.8799  -22.2222  -15.3960 O   0  0  0  0  0  0  0  0  0  0  0  0
   27.9523  -20.2910  -14.6994 N   0  0  0  0  0  0  0  0  0  0  0  0
   27.8520  -20.5886  -13.2846 C   0  0  1  0  0  0  0  0  0  0  0  0
   28.9857  -19.8888  -12.5778 C   0  0  0  0  0  0  0  0  0  0  0  0
   29.0393  -20.1721  -11.1414 C   0  0  0  0  0  0  0  0  0  0  0  0
   28.3473  -19.3616  -10.2692 C   0  0  0  0  0  0  0  0  0  0  0  0
   28.3716  -19.5956   -8.8982 C   0  0  0  0  0  0  0  0  0  0  0  0
   29.0993  -20.6569   -8.3902 C   0  0  0  0  0  0  0  0  0  0  0  0
   29.8038  -21.4851   -9.2571 C   0  0  0  0  0  0  0  0  0  0  0  0
   29.7575  -21.2229  -10.6167 C   0  0  0  0  0  0  0  0  0  0  0  0
   26.5226  -20.2172  -12.7300 C   0  0  0  0  0  0  0  0  0  0  0  0
   25.9711  -19.1164  -12.9744 O   0  0  0  0  0  0  0  0  0  0  0  0
   21.1228  -19.1397  -16.1908 O   0  0  0  0  0  0  0  0  0  0  0  0
   21.7061  -19.7492  -15.0921 C   0  0  0  0  0  0  0  0  0  0  0  0
   22.6445  -20.7367  -15.2695 C   0  0  0  0  0  0  0  0  0  0  0  0
   23.2094  -21.3269  -14.1674 C   0  0  0  0  0  0  0  0  0  0  0  0
   22.8841  -20.9807  -12.8794 C   0  0  0  0  0  0  0  0  0  0  0  0
   23.4790  -21.6110  -11.6828 C   0  0  0  0  0  0  0  0  0  0  0  0
   24.6197  -20.8133  -11.1791 C   0  0  2  0  0  0  0  0  0  0  0  0
   25.8635  -21.1370  -11.9017 N   0  0  0  0  0  0  0  0  0  0  0  0
   24.8297  -20.9540   -9.7211 C   0  0  0  0  0  0  0  0  0  0  0  0
   25.8906  -21.3699   -9.1952 O   0  0  0  0  0  0  0  0  0  0  0  0
   21.9265  -19.9729  -12.7160 C   0  0  0  0  0  0  0  0  0  0  0  0
   21.3600  -19.3810  -13.8206 C   0  0  0  0  0  0  0  0  0  0  0  0
   23.7687  -20.5983   -8.8745 O   0  0  0  0  0  0  0  0  0  0  0  0
  2  1  1  0
  3  2  2  0
  4  2  1  0
  5  4  1  0
  6  5  1  0
  6  7  1  6
  8  6  1  0
  8  9  2  0
 10  8  1  0
 11 10  1  0
 11 12  1  1
 12 13  1  0
 13 18  1  0
 13 14  2  0
 14 15  1  0
 15 16  2  0
 17 16  1  0
 18 17  2  0
 19 11  1  0
 20 19  2  0
 22 21  1  0
 22 32  2  0
 23 22  1  0
 24 23  2  0
 24 25  1  0
 25 31  2  0
 26 25  1  0
 27 26  1  6
 27 28  1  0
 28 19  1  0
 29 33  1  0
 29 27  1  0
 30 29  2  0
 31 32  1  0
M  END
$$$$
