QFY.pdb
     RDKit          3D

 33 34  0  0  1  0  0  0  0  0999 V2000
   24.0531  -18.7622  -21.7187 N   0  0  0  0  0  0  0  0  0  0  0  0
   23.5050  -17.4461  -21.5455 C   0  0  0  0  0  0  0  0  0  0  0  0
   23.0020  -16.9194  -22.5509 O   0  0  0  0  0  0  0  0  0  0  0  0
   23.5981  -16.8631  -20.2078 C   0  0  0  0  0  0  0  0  0  0  0  0
   24.2120  -17.7246  -19.1514 C   0  0  0  0  0  0  0  0  0  0  0  0
   23.2641  -18.2586  -18.1427 C   0  0  2  0  0  0  0  0  0  0  0  0
   22.4653  -17.2950  -17.4401 N   0  0  0  0  0  0  0  0  0  0  0  0
   23.9644  -19.1357  -17.1342 C   0  0  0  0  0  0  0  0  0  0  0  0
   24.6983  -20.0667  -17.5375 O   0  0  0  0  0  0  0  0  0  0  0  0
   23.8007  -18.9173  -15.7381 N   0  0  0  0  0  0  0  0  0  0  0  0
   24.5009  -19.6974  -14.7375 C   0  0  1  0  0  0  0  0  0  0  0  0
   25.3393  -18.7543  -13.9114 C   0  0  0  0  0  0  0  0  0  0  0  0
   26.2620  -17.9439  -14.7105 C   0  0  0  0  0  0  0  0  0  0  0  0
   26.0667  -16.5831  -14.7901 C   0  0  0  0  0  0  0  0  0  0  0  0
   26.9193  -15.7775  -15.5377 C   0  0  0  0  0  0  0  0  0  0  0  0
   27.9847  -16.3409  -16.2170 C   0  0  0  0  0  0  0  0  0  0  0  0
   28.1963  -17.7135  -16.1473 C   0  0  0  0  0  0  0  0  0  0  0  0
   27.3275  -18.4857  -15.3934 C   0  0  0  0  0  0  0  0  0  0  0  0
   23.5675  -20.5033  -13.9055 C   0  0  0  0  0  0  0  0  0  0  0  0
   23.9351  -21.1068  -12.8681 O   0  0  0  0  0  0  0  0  0  0  0  0
   17.1008  -23.8810   -9.4493 O   0  0  0  0  0  0  0  0  0  0  0  0
   18.0753  -23.1574  -10.1170 C   0  0  0  0  0  0  0  0  0  0  0  0
   19.3822  -23.5804  -10.0972 C   0  0  0  0  0  0  0  0  0  0  0  0
   20.3310  -22.8486  -10.7652 C   0  0  0  0  0  0  0  0  0  0  0  0
   20.0429  -21.7013  -11.4618 C   0  0  0  0  0  0  0  0  0  0  0  0
   21.0542  -20.8994  -12.1808 C   0  0  0  0  0  0  0  0  0  0  0  0
   21.2258  -21.3883  -13.5675 C   0  0  2  0  0  0  0  0  0  0  0  0
   22.2247  -20.5889  -14.3003 N   0  0  0  0  0  0  0  0  0  0  0  0
   19.9579  -21.4363  -14.3290 C   0  0  0  0  0  0  0  0  0  0  0  0
   19.2948  -22.4816  -14.5355 O   0  0  0  0  0  0  0  0  0  0  0  0
   18.7068  -21.2841  -11.4721 C   0  0  0  0  0  0  0  0  0  0  0  0
   17.7553  -22.0174  -10.8026 C   0  0  0  0  0  0  0  0  0  0  0  0
   19.4692  -20.2302  -14.8538 O   0  0  0  0  0  0  0  0  0  0  0  0
  2  1  1  0
  3  2  2  0
  4  2  1  0
  5  4  1  0
  6  5  1  0
  6  7  1  1
  8  6  1  0
  8  9  2  0
 10  8  1  0
 11 10  1  0
 11 12  1  1
 12 13  1  0
 13 18  1  0
 13 14  2  0
 14 15  1  0
 15 16  2  0
 17 16  1  0
 18 17  2  0
 19 11  1  0
 20 19  2  0
 22 21  1  0
 22 32  2  0
 23 22  1  0
 24 23  2  0
 24 25  1  0
 25 31  2  0
 26 25  1  0
 27 26  1  1
 27 28  1  0
 28 19  1  0
 29 33  1  0
 29 27  1  0
 30 29  2  0
 31 32  1  0
M  END
$$$$
