SHE.pdb
     RDKit          3D

 26 26  0  0  1  0  0  0  0  0999 V2000
    8.6306  -18.2137   20.2969 O   0  0  0  0  0  0  0  0  0  0  0  0
    7.8089  -17.2487   19.7419 C   0  0  0  0  0  0  0  0  0  0  0  0
    8.4935  -15.8745   19.7361 C   0  0  2  0  0  0  0  0  0  0  0  0
    9.7419  -16.0532   19.0361 N   0  0  0  0  0  0  0  0  0  0  0  0
    8.6841  -15.5173   21.1666 C   0  0  0  0  0  0  0  0  0  0  0  0
    9.7747  -15.8271   21.6933 O   0  0  0  0  0  0  0  0  0  0  0  0
    7.7158  -14.8565   21.9536 N   0  0  0  0  0  0  0  0  0  0  0  0
    7.9366  -14.5336   23.3643 C   0  0  1  0  0  0  0  0  0  0  0  0
    6.6778  -13.8698   23.8965 C   0  0  0  0  0  0  0  0  0  0  0  0
    6.8385  -13.3553   25.2644 C   0  0  0  0  0  0  0  0  0  0  0  0
    7.9490  -13.5366   26.0599 C   0  0  0  0  0  0  0  0  0  0  0  0
    7.7420  -12.9249   27.2500 N   0  0  0  0  0  0  0  0  0  0  0  0
    6.5032  -12.3593   27.2042 C   0  0  0  0  0  0  0  0  0  0  0  0
    5.9699  -12.6330   25.9869 N   0  0  0  0  0  0  0  0  0  0  0  0
    8.1904  -15.7744   24.1517 C   0  0  0  0  0  0  0  0  0  0  0  0
    7.4267  -16.7615   23.9990 O   0  0  0  0  0  0  0  0  0  0  0  0
    9.2531  -15.9020   25.0690 N   0  0  0  0  0  0  0  0  0  0  0  0
    9.5145  -17.1306   25.8405 C   0  0  1  0  0  0  0  0  0  0  0  0
   10.5309  -17.9215   25.0802 C   0  0  0  0  0  0  0  0  0  0  0  0
   11.8005  -17.1914   24.7647 C   0  0  0  0  0  0  0  0  0  0  0  0
   12.7213  -18.0897   23.9757 C   0  0  0  0  0  0  0  0  0  0  0  0
   12.5724  -19.3299   23.9293 O   0  0  0  0  0  0  0  0  0  0  0  0
    9.9976  -16.7026   27.1632 C   0  0  0  0  0  0  0  0  0  0  0  0
   10.2642  -17.5529   28.0386 O   0  0  0  0  0  0  0  0  0  0  0  0
   13.7718  -17.5140   23.2767 O   0  0  0  0  0  0  0  0  0  0  0  0
   10.1688  -15.3677   27.4704 O   0  0  0  0  0  0  0  0  0  0  0  0
  1  2  1  0
  2  3  1  0
  3  5  1  0
  3  4  1  6
  5  6  2  0
  7  8  1  0
  7  5  1  0
  8  9  1  1
  9 10  1  0
 10 11  2  0
 11 12  1  0
 13 12  1  0
 14 10  1  0
 14 13  2  0
 15 16  2  0
 15  8  1  0
 17 15  1  0
 18 17  1  0
 18 23  1  0
 18 19  1  6
 20 21  1  0
 20 19  1  0
 21 25  1  0
 22 21  2  0
 23 26  1  0
 24 23  2  0
M  END
$$$$
