SHE.pdb
     RDKit          3D

 26 26  0  0  1  0  0  0  0  0999 V2000
    8.9021  -19.8703   15.1587 O   0  0  0  0  0  0  0  0  0  0  0  0
   10.2069  -19.7993   14.7038 C   0  0  0  0  0  0  0  0  0  0  0  0
   11.0074  -18.7436   15.4794 C   0  0  2  0  0  0  0  0  0  0  0  0
   12.2918  -18.6583   14.8285 N   0  0  0  0  0  0  0  0  0  0  0  0
   11.1029  -19.2576   16.8712 C   0  0  0  0  0  0  0  0  0  0  0  0
   10.0792  -19.1739   17.5836 O   0  0  0  0  0  0  0  0  0  0  0  0
   12.2693  -19.8276   17.4264 N   0  0  0  0  0  0  0  0  0  0  0  0
   12.2961  -20.4129   18.7680 C   0  0  1  0  0  0  0  0  0  0  0  0
   12.6739  -21.8784   18.6334 C   0  0  0  0  0  0  0  0  0  0  0  0
   11.5501  -22.7197   18.1964 C   0  0  0  0  0  0  0  0  0  0  0  0
   11.4767  -23.3932   16.9965 C   0  0  0  0  0  0  0  0  0  0  0  0
   10.3011  -24.0624   16.9390 N   0  0  0  0  0  0  0  0  0  0  0  0
    9.6350  -23.8108   18.1008 C   0  0  0  0  0  0  0  0  0  0  0  0
   10.4125  -22.9914   18.8524 N   0  0  0  0  0  0  0  0  0  0  0  0
   13.3179  -19.7332   19.6151 C   0  0  0  0  0  0  0  0  0  0  0  0
   14.4550  -19.5003   19.1318 O   0  0  0  0  0  0  0  0  0  0  0  0
   13.0750  -19.3328   20.9448 N   0  0  0  0  0  0  0  0  0  0  0  0
   14.0350  -18.5493   21.7434 C   0  0  1  0  0  0  0  0  0  0  0  0
   13.2523  -17.5073   22.4769 C   0  0  0  0  0  0  0  0  0  0  0  0
   12.0667  -18.0184   23.2370 C   0  0  0  0  0  0  0  0  0  0  0  0
   11.3679  -16.8697   23.9222 C   0  0  0  0  0  0  0  0  0  0  0  0
   11.8069  -15.6998   23.8880 O   0  0  0  0  0  0  0  0  0  0  0  0
   14.7063  -19.4989   22.6455 C   0  0  0  0  0  0  0  0  0  0  0  0
   14.2547  -20.6549   22.7875 O   0  0  0  0  0  0  0  0  0  0  0  0
   10.1941  -17.1253   24.6153 O   0  0  0  0  0  0  0  0  0  0  0  0
   15.8392  -19.1450   23.3504 O   0  0  0  0  0  0  0  0  0  0  0  0
  1  2  1  0
  2  3  1  0
  3  5  1  0
  3  4  1  6
  5  6  2  0
  7  8  1  0
  7  5  1  0
  8  9  1  6
  9 10  1  0
 10 11  2  0
 11 12  1  0
 13 12  1  0
 14 10  1  0
 14 13  2  0
 15 16  2  0
 15  8  1  0
 17 15  1  0
 18 17  1  0
 18 23  1  0
 18 19  1  1
 20 21  1  0
 20 19  1  0
 21 25  1  0
 22 21  2  0
 23 26  1  0
 24 23  2  0
M  END
$$$$
