SHE.pdb
     RDKit          3D

 26 26  0  0  1  0  0  0  0  0999 V2000
   11.7232  -20.2394   19.6787 O   0  0  0  0  0  0  0  0  0  0  0  0
   10.5163  -20.1775   19.0047 C   0  0  0  0  0  0  0  0  0  0  0  0
   10.3091  -18.7974   18.3648 C   0  0  2  0  0  0  0  0  0  0  0  0
   11.2255  -18.7310   17.2529 N   0  0  0  0  0  0  0  0  0  0  0  0
   10.6280  -17.8111   19.4305 C   0  0  0  0  0  0  0  0  0  0  0  0
   11.8294  -17.5005   19.5817 O   0  0  0  0  0  0  0  0  0  0  0  0
    9.6633  -17.2132   20.2704 N   0  0  0  0  0  0  0  0  0  0  0  0
   10.0179  -16.2448   21.3095 C   0  0  1  0  0  0  0  0  0  0  0  0
    8.7424  -15.5549   21.7631 C   0  0  0  0  0  0  0  0  0  0  0  0
    8.2349  -14.5886   20.7780 C   0  0  0  0  0  0  0  0  0  0  0  0
    8.8409  -14.2770   19.5803 C   0  0  0  0  0  0  0  0  0  0  0  0
    8.0918  -13.3510   18.9364 N   0  0  0  0  0  0  0  0  0  0  0  0
    7.0157  -13.0798   19.7271 C   0  0  0  0  0  0  0  0  0  0  0  0
    7.1217  -13.8437   20.8435 N   0  0  0  0  0  0  0  0  0  0  0  0
   10.6290  -16.9352   22.4816 C   0  0  0  0  0  0  0  0  0  0  0  0
   10.2047  -18.0723   22.8101 O   0  0  0  0  0  0  0  0  0  0  0  0
   11.6692  -16.3750   23.2506 N   0  0  0  0  0  0  0  0  0  0  0  0
   12.3395  -17.0912   24.3510 C   0  0  1  0  0  0  0  0  0  0  0  0
   13.7549  -16.6100   24.3935 C   0  0  0  0  0  0  0  0  0  0  0  0
   14.5883  -16.9762   23.2035 C   0  0  0  0  0  0  0  0  0  0  0  0
   15.9872  -16.4373   23.3769 C   0  0  0  0  0  0  0  0  0  0  0  0
   17.0017  -17.1624   23.2917 O   0  0  0  0  0  0  0  0  0  0  0  0
   11.5917  -16.7729   25.5780 C   0  0  0  0  0  0  0  0  0  0  0  0
   10.7114  -15.8867   25.5636 O   0  0  0  0  0  0  0  0  0  0  0  0
   16.1496  -15.0853   23.6407 O   0  0  0  0  0  0  0  0  0  0  0  0
   11.8371  -17.4358   26.7637 O   0  0  0  0  0  0  0  0  0  0  0  0
  1  2  1  0
  2  3  1  0
  3  5  1  0
  3  4  1  6
  5  6  2  0
  7  8  1  0
  7  5  1  0
  8  9  1  1
  9 10  1  0
 10 11  2  0
 11 12  1  0
 13 12  1  0
 14 10  1  0
 14 13  2  0
 15 16  2  0
 15  8  1  0
 17 15  1  0
 18 17  1  0
 18 23  1  0
 18 19  1  1
 20 21  1  0
 20 19  1  0
 21 25  1  0
 22 21  2  0
 23 26  1  0
 24 23  2  0
M  END
$$$$
