SHE.pdb
     RDKit          3D

 26 26  0  0  1  0  0  0  0  0999 V2000
   14.7438  -16.6003   16.7173 O   0  0  0  0  0  0  0  0  0  0  0  0
   13.9887  -16.4194   17.8626 C   0  0  0  0  0  0  0  0  0  0  0  0
   13.1618  -15.1284   17.7829 C   0  0  2  0  0  0  0  0  0  0  0  0
   14.1055  -14.0633   17.5474 N   0  0  0  0  0  0  0  0  0  0  0  0
   12.4794  -15.0094   19.0984 C   0  0  0  0  0  0  0  0  0  0  0  0
   13.1112  -14.4530   20.0225 O   0  0  0  0  0  0  0  0  0  0  0  0
   11.1751  -15.4831   19.3595 N   0  0  0  0  0  0  0  0  0  0  0  0
   10.5121  -15.2888   20.6502 C   0  0  1  0  0  0  0  0  0  0  0  0
    9.0123  -15.2647   20.4085 C   0  0  0  0  0  0  0  0  0  0  0  0
    8.5992  -14.1928   19.4908 C   0  0  0  0  0  0  0  0  0  0  0  0
    8.3627  -12.8832   19.8482 C   0  0  0  0  0  0  0  0  0  0  0  0
    8.0022  -12.1848   18.7457 N   0  0  0  0  0  0  0  0  0  0  0  0
    8.0116  -13.0530   17.6956 C   0  0  0  0  0  0  0  0  0  0  0  0
    8.3777  -14.2702   18.1704 N   0  0  0  0  0  0  0  0  0  0  0  0
   10.8277  -16.4149   21.5754 C   0  0  0  0  0  0  0  0  0  0  0  0
   11.0750  -17.5498   21.0940 O   0  0  0  0  0  0  0  0  0  0  0  0
   10.8641  -16.2742   22.9776 N   0  0  0  0  0  0  0  0  0  0  0  0
   11.8003  -17.0151   23.8423 C   0  0  1  0  0  0  0  0  0  0  0  0
   13.1828  -16.5880   23.4640 C   0  0  0  0  0  0  0  0  0  0  0  0
   14.2752  -17.1136   24.3444 C   0  0  0  0  0  0  0  0  0  0  0  0
   15.6133  -16.6390   23.8329 C   0  0  0  0  0  0  0  0  0  0  0  0
   15.8517  -15.4361   23.5908 O   0  0  0  0  0  0  0  0  0  0  0  0
   11.4558  -16.6683   25.2305 C   0  0  0  0  0  0  0  0  0  0  0  0
   12.0224  -17.2484   26.1807 O   0  0  0  0  0  0  0  0  0  0  0  0
   16.6145  -17.5760   23.6245 O   0  0  0  0  0  0  0  0  0  0  0  0
   10.5106  -15.7046   25.5189 O   0  0  0  0  0  0  0  0  0  0  0  0
  1  2  1  0
  2  3  1  0
  3  5  1  0
  3  4  1  1
  5  6  2  0
  7  8  1  0
  7  5  1  0
  8  9  1  6
  9 10  1  0
 10 11  2  0
 11 12  1  0
 13 12  1  0
 14 10  1  0
 14 13  2  0
 15 16  2  0
 15  8  1  0
 17 15  1  0
 18 17  1  0
 18 23  1  0
 18 19  1  6
 20 21  1  0
 20 19  1  0
 21 25  1  0
 22 21  2  0
 23 26  1  0
 24 23  2  0
M  END
$$$$
