SHE.pdb
     RDKit          3D

 26 26  0  0  1  0  0  0  0  0999 V2000
    9.6287  -15.6095   17.2767 O   0  0  0  0  0  0  0  0  0  0  0  0
    8.2553  -15.4736   17.1776 C   0  0  0  0  0  0  0  0  0  0  0  0
    7.7953  -14.1033   17.6947 C   0  0  2  0  0  0  0  0  0  0  0  0
    8.4790  -13.1220   16.8883 N   0  0  0  0  0  0  0  0  0  0  0  0
    8.2046  -14.0574   19.1232 C   0  0  0  0  0  0  0  0  0  0  0  0
    9.3269  -13.5714   19.3816 O   0  0  0  0  0  0  0  0  0  0  0  0
    7.4076  -14.5256   20.1906 N   0  0  0  0  0  0  0  0  0  0  0  0
    7.9050  -14.6095   21.5649 C   0  0  1  0  0  0  0  0  0  0  0  0
    6.7196  -14.8744   22.4778 C   0  0  0  0  0  0  0  0  0  0  0  0
    7.0896  -14.9004   23.9005 C   0  0  0  0  0  0  0  0  0  0  0  0
    7.5790  -13.8303   24.6176 C   0  0  0  0  0  0  0  0  0  0  0  0
    7.8073  -14.2232   25.8931 N   0  0  0  0  0  0  0  0  0  0  0  0
    7.4622  -15.5385   25.9793 C   0  0  0  0  0  0  0  0  0  0  0  0
    7.0278  -15.9317   24.7555 N   0  0  0  0  0  0  0  0  0  0  0  0
    8.8737  -15.7348   21.7031 C   0  0  0  0  0  0  0  0  0  0  0  0
    8.6956  -16.7804   21.0278 O   0  0  0  0  0  0  0  0  0  0  0  0
    9.9919  -15.6891   22.5602 N   0  0  0  0  0  0  0  0  0  0  0  0
   10.9709  -16.7854   22.6741 C   0  0  1  0  0  0  0  0  0  0  0  0
   12.3276  -16.1881   22.4763 C   0  0  0  0  0  0  0  0  0  0  0  0
   13.4731  -17.1392   22.6437 C   0  0  0  0  0  0  0  0  0  0  0  0
   14.7696  -16.4345   22.3279 C   0  0  0  0  0  0  0  0  0  0  0  0
   15.4294  -16.6734   21.2934 O   0  0  0  0  0  0  0  0  0  0  0  0
   10.7946  -17.3700   24.0133 C   0  0  0  0  0  0  0  0  0  0  0  0
   10.1487  -16.7531   24.8866 O   0  0  0  0  0  0  0  0  0  0  0  0
   15.2444  -15.4862   23.2218 O   0  0  0  0  0  0  0  0  0  0  0  0
   11.3296  -18.6003   24.3384 O   0  0  0  0  0  0  0  0  0  0  0  0
  1  2  1  0
  2  3  1  0
  3  5  1  0
  3  4  1  6
  5  6  2  0
  7  8  1  0
  7  5  1  0
  8  9  1  1
  9 10  1  0
 10 11  2  0
 11 12  1  0
 13 12  1  0
 14 10  1  0
 14 13  2  0
 15 16  2  0
 15  8  1  0
 17 15  1  0
 18 17  1  0
 18 23  1  0
 18 19  1  1
 20 21  1  0
 20 19  1  0
 21 25  1  0
 22 21  2  0
 23 26  1  0
 24 23  2  0
M  END
$$$$
