SHE.pdb
     RDKit          3D

 26 26  0  0  1  0  0  0  0  0999 V2000
   10.9908  -20.3938   18.1525 O   0  0  0  0  0  0  0  0  0  0  0  0
   10.1998  -19.6054   18.9693 C   0  0  0  0  0  0  0  0  0  0  0  0
    9.8900  -18.2561   18.3058 C   0  0  2  0  0  0  0  0  0  0  0  0
   10.7854  -18.1496   17.1800 N   0  0  0  0  0  0  0  0  0  0  0  0
   10.1539  -17.2287   19.3476 C   0  0  0  0  0  0  0  0  0  0  0  0
   11.3100  -16.7570   19.4061 O   0  0  0  0  0  0  0  0  0  0  0  0
    9.1851  -16.7619   20.2625 N   0  0  0  0  0  0  0  0  0  0  0  0
    9.4700  -15.7105   21.2405 C   0  0  1  0  0  0  0  0  0  0  0  0
    8.2684  -14.7823   21.2955 C   0  0  0  0  0  0  0  0  0  0  0  0
    7.9917  -14.1299   20.0072 C   0  0  0  0  0  0  0  0  0  0  0  0
    8.4735  -12.8996   19.6160 C   0  0  0  0  0  0  0  0  0  0  0  0
    8.0137  -12.6224   18.3730 N   0  0  0  0  0  0  0  0  0  0  0  0
    7.2436  -13.6763   17.9820 C   0  0  0  0  0  0  0  0  0  0  0  0
    7.2431  -14.5833   18.9911 N   0  0  0  0  0  0  0  0  0  0  0  0
    9.6803  -16.2985   22.5947 C   0  0  0  0  0  0  0  0  0  0  0  0
    8.7593  -16.9780   23.1152 O   0  0  0  0  0  0  0  0  0  0  0  0
   10.8703  -16.1317   23.3318 N   0  0  0  0  0  0  0  0  0  0  0  0
   11.1966  -16.9208   24.5335 C   0  0  1  0  0  0  0  0  0  0  0  0
   11.2830  -18.3529   24.1111 C   0  0  0  0  0  0  0  0  0  0  0  0
   12.5031  -18.7109   23.3188 C   0  0  0  0  0  0  0  0  0  0  0  0
   12.5169  -20.1957   23.0491 C   0  0  0  0  0  0  0  0  0  0  0  0
   12.4226  -21.0450   23.9613 O   0  0  0  0  0  0  0  0  0  0  0  0
   12.4738  -16.3991   25.0460 C   0  0  0  0  0  0  0  0  0  0  0  0
   12.9333  -16.8194   26.1289 O   0  0  0  0  0  0  0  0  0  0  0  0
   12.6390  -20.6309   21.7378 O   0  0  0  0  0  0  0  0  0  0  0  0
   13.1916  -15.4443   24.3542 O   0  0  0  0  0  0  0  0  0  0  0  0
  1  2  1  0
  2  3  1  0
  3  5  1  0
  3  4  1  6
  5  6  2  0
  7  8  1  0
  7  5  1  0
  8  9  1  1
  9 10  1  0
 10 11  2  0
 11 12  1  0
 13 12  1  0
 14 10  1  0
 14 13  2  0
 15 16  2  0
 15  8  1  0
 17 15  1  0
 18 17  1  0
 18 23  1  0
 18 19  1  6
 20 21  1  0
 20 19  1  0
 21 25  1  0
 22 21  2  0
 23 26  1  0
 24 23  2  0
M  END
$$$$
