SHE.pdb
     RDKit          3D

 26 26  0  0  1  0  0  0  0  0999 V2000
    4.3223  -18.6253   23.1392 O   0  0  0  0  0  0  0  0  0  0  0  0
    5.6190  -18.5734   22.6594 C   0  0  0  0  0  0  0  0  0  0  0  0
    5.6785  -17.8652   21.2986 C   0  0  2  0  0  0  0  0  0  0  0  0
    5.4462  -18.8862   20.3065 N   0  0  0  0  0  0  0  0  0  0  0  0
    7.0428  -17.2809   21.2116 C   0  0  0  0  0  0  0  0  0  0  0  0
    7.9577  -18.0234   20.7941 O   0  0  0  0  0  0  0  0  0  0  0  0
    7.3593  -15.9522   21.5693 N   0  0  0  0  0  0  0  0  0  0  0  0
    8.7009  -15.3912   21.4005 C   0  0  1  0  0  0  0  0  0  0  0  0
    8.5529  -13.9436   20.9633 C   0  0  0  0  0  0  0  0  0  0  0  0
    8.1671  -13.8106   19.5507 C   0  0  0  0  0  0  0  0  0  0  0  0
    7.0644  -13.1277   19.0854 C   0  0  0  0  0  0  0  0  0  0  0  0
    7.0286  -13.2185   17.7350 N   0  0  0  0  0  0  0  0  0  0  0  0
    8.1069  -13.9574   17.3503 C   0  0  0  0  0  0  0  0  0  0  0  0
    8.7871  -14.3082   18.4707 N   0  0  0  0  0  0  0  0  0  0  0  0
    9.4486  -15.4254   22.6903 C   0  0  0  0  0  0  0  0  0  0  0  0
    8.9308  -14.9035   23.7103 O   0  0  0  0  0  0  0  0  0  0  0  0
   10.7199  -16.0183   22.8295 N   0  0  0  0  0  0  0  0  0  0  0  0
   11.4358  -16.1080   24.1151 C   0  0  1  0  0  0  0  0  0  0  0  0
   10.9313  -17.3284   24.8171 C   0  0  0  0  0  0  0  0  0  0  0  0
   11.6666  -17.6920   26.0708 C   0  0  0  0  0  0  0  0  0  0  0  0
   11.1164  -18.9824   26.6272 C   0  0  0  0  0  0  0  0  0  0  0  0
   10.1951  -19.6160   26.0684 O   0  0  0  0  0  0  0  0  0  0  0  0
   12.8699  -16.1864   23.7940 C   0  0  0  0  0  0  0  0  0  0  0  0
   13.7202  -16.1458   24.7082 O   0  0  0  0  0  0  0  0  0  0  0  0
   11.6559  -19.4815   27.8034 O   0  0  0  0  0  0  0  0  0  0  0  0
   13.3110  -16.3065   22.4915 O   0  0  0  0  0  0  0  0  0  0  0  0
  1  2  1  0
  2  3  1  0
  3  5  1  0
  3  4  1  6
  5  6  2  0
  7  8  1  0
  7  5  1  0
  8  9  1  1
  9 10  1  0
 10 11  2  0
 11 12  1  0
 13 12  1  0
 14 10  1  0
 14 13  2  0
 15 16  2  0
 15  8  1  0
 17 15  1  0
 18 17  1  0
 18 23  1  0
 18 19  1  6
 20 21  1  0
 20 19  1  0
 21 25  1  0
 22 21  2  0
 23 26  1  0
 24 23  2  0
M  END
$$$$
