SHE.pdb
     RDKit          3D

 26 26  0  0  1  0  0  0  0  0999 V2000
   14.2191  -18.2074   14.1528 O   0  0  0  0  0  0  0  0  0  0  0  0
   13.9349  -17.3961   15.2370 C   0  0  0  0  0  0  0  0  0  0  0  0
   13.3880  -16.0354   14.7827 C   0  0  2  0  0  0  0  0  0  0  0  0
   14.5249  -15.2870   14.3054 N   0  0  0  0  0  0  0  0  0  0  0  0
   12.7693  -15.4300   15.9914 C   0  0  0  0  0  0  0  0  0  0  0  0
   13.5405  -14.9412   16.8451 O   0  0  0  0  0  0  0  0  0  0  0  0
   11.3780  -15.3765   16.2263 N   0  0  0  0  0  0  0  0  0  0  0  0
   10.8042  -14.7207   17.4027 C   0  0  1  0  0  0  0  0  0  0  0  0
    9.2913  -14.7500   17.2653 C   0  0  0  0  0  0  0  0  0  0  0  0
    8.6064  -14.0157   18.3393 C   0  0  0  0  0  0  0  0  0  0  0  0
    9.2252  -13.4003   19.4058 C   0  0  0  0  0  0  0  0  0  0  0  0
    8.2823  -12.8257   20.1894 N   0  0  0  0  0  0  0  0  0  0  0  0
    7.0716  -13.0787   19.6175 C   0  0  0  0  0  0  0  0  0  0  0  0
    7.2910  -13.8045   18.4923 N   0  0  0  0  0  0  0  0  0  0  0  0
   11.1840  -15.4509   18.6462 C   0  0  0  0  0  0  0  0  0  0  0  0
   11.1125  -16.7061   18.6634 O   0  0  0  0  0  0  0  0  0  0  0  0
   11.6242  -14.8022   19.8178 N   0  0  0  0  0  0  0  0  0  0  0  0
   12.0967  -15.5224   21.0142 C   0  0  1  0  0  0  0  0  0  0  0  0
   13.3295  -14.8235   21.4921 C   0  0  0  0  0  0  0  0  0  0  0  0
   14.5674  -15.6667   21.5259 C   0  0  0  0  0  0  0  0  0  0  0  0
   15.7783  -14.8030   21.2710 C   0  0  0  0  0  0  0  0  0  0  0  0
   15.8934  -14.0922   20.2493 O   0  0  0  0  0  0  0  0  0  0  0  0
   10.9992  -15.4772   21.9938 C   0  0  0  0  0  0  0  0  0  0  0  0
   10.0346  -14.7030   21.8192 O   0  0  0  0  0  0  0  0  0  0  0  0
   16.8007  -14.8002   22.2083 O   0  0  0  0  0  0  0  0  0  0  0  0
   11.0033  -16.2786   23.1177 O   0  0  0  0  0  0  0  0  0  0  0  0
  1  2  1  0
  2  3  1  0
  3  5  1  0
  3  4  1  1
  5  6  2  0
  7  8  1  0
  7  5  1  0
  8  9  1  6
  9 10  1  0
 10 11  2  0
 11 12  1  0
 13 12  1  0
 14 10  1  0
 14 13  2  0
 15 16  2  0
 15  8  1  0
 17 15  1  0
 18 17  1  0
 18 23  1  0
 18 19  1  1
 20 21  1  0
 20 19  1  0
 21 25  1  0
 22 21  2  0
 23 26  1  0
 24 23  2  0
M  END
$$$$
