SHE.pdb
     RDKit          3D

 26 26  0  0  1  0  0  0  0  0999 V2000
   14.8775  -17.3227   16.4219 O   0  0  0  0  0  0  0  0  0  0  0  0
   13.9048  -17.1095   15.4612 C   0  0  0  0  0  0  0  0  0  0  0  0
   13.6888  -15.6097   15.2145 C   0  0  2  0  0  0  0  0  0  0  0  0
   15.0040  -15.0345   15.0744 N   0  0  0  0  0  0  0  0  0  0  0  0
   12.9680  -15.1074   16.4139 C   0  0  0  0  0  0  0  0  0  0  0  0
   13.6626  -14.7168   17.3770 O   0  0  0  0  0  0  0  0  0  0  0  0
   11.5617  -15.0475   16.5252 N   0  0  0  0  0  0  0  0  0  0  0  0
   10.8892  -14.5125   17.7103 C   0  0  1  0  0  0  0  0  0  0  0  0
    9.3975  -14.4695   17.4243 C   0  0  0  0  0  0  0  0  0  0  0  0
    8.6186  -13.9099   18.5388 C   0  0  0  0  0  0  0  0  0  0  0  0
    7.7881  -14.6277   19.3716 C   0  0  0  0  0  0  0  0  0  0  0  0
    7.2393  -13.7850   20.2782 N   0  0  0  0  0  0  0  0  0  0  0  0
    7.7235  -12.5384   20.0169 C   0  0  0  0  0  0  0  0  0  0  0  0
    8.5614  -12.6361   18.9542 N   0  0  0  0  0  0  0  0  0  0  0  0
   11.1232  -15.3962   18.8885 C   0  0  0  0  0  0  0  0  0  0  0  0
   11.1799  -16.6405   18.7169 O   0  0  0  0  0  0  0  0  0  0  0  0
   11.2863  -14.9060   20.2001 N   0  0  0  0  0  0  0  0  0  0  0  0
   11.6414  -15.7619   21.3467 C   0  0  1  0  0  0  0  0  0  0  0  0
   13.0046  -15.3476   21.8014 C   0  0  0  0  0  0  0  0  0  0  0  0
   13.4990  -16.0324   23.0388 C   0  0  0  0  0  0  0  0  0  0  0  0
   14.9276  -15.6275   23.3080 C   0  0  0  0  0  0  0  0  0  0  0  0
   15.5675  -14.8736   22.5433 O   0  0  0  0  0  0  0  0  0  0  0  0
   10.6075  -15.5438   22.3712 C   0  0  0  0  0  0  0  0  0  0  0  0
    9.8365  -14.5647   22.2853 O   0  0  0  0  0  0  0  0  0  0  0  0
   15.5511  -16.1119   24.4482 O   0  0  0  0  0  0  0  0  0  0  0  0
   10.4609  -16.4034   23.4413 O   0  0  0  0  0  0  0  0  0  0  0  0
  1  2  1  0
  2  3  1  0
  3  5  1  0
  3  4  1  1
  5  6  2  0
  7  8  1  0
  7  5  1  0
  8  9  1  6
  9 10  1  0
 10 11  2  0
 11 12  1  0
 13 12  1  0
 14 10  1  0
 14 13  2  0
 15 16  2  0
 15  8  1  0
 17 15  1  0
 18 17  1  0
 18 23  1  0
 18 19  1  1
 20 21  1  0
 20 19  1  0
 21 25  1  0
 22 21  2  0
 23 26  1  0
 24 23  2  0
M  END
$$$$
