SHE.pdb
     RDKit          3D

 26 26  0  0  1  0  0  0  0  0999 V2000
    8.7451  -14.6403   19.7565 O   0  0  0  0  0  0  0  0  0  0  0  0
    9.1518  -13.3880   19.3311 C   0  0  0  0  0  0  0  0  0  0  0  0
    9.8787  -13.4703   17.9814 C   0  0  2  0  0  0  0  0  0  0  0  0
    8.8737  -13.8178   17.0069 N   0  0  0  0  0  0  0  0  0  0  0  0
   10.9084  -14.5300   18.1462 C   0  0  0  0  0  0  0  0  0  0  0  0
   10.8771  -15.4879   17.3438 O   0  0  0  0  0  0  0  0  0  0  0  0
   11.9065  -14.5157   19.1448 N   0  0  0  0  0  0  0  0  0  0  0  0
   13.2623  -15.0145   18.9081 C   0  0  1  0  0  0  0  0  0  0  0  0
   13.8185  -14.3010   17.6874 C   0  0  0  0  0  0  0  0  0  0  0  0
   14.4105  -15.2236   16.7075 C   0  0  0  0  0  0  0  0  0  0  0  0
   14.3866  -16.5989   16.7904 C   0  0  0  0  0  0  0  0  0  0  0  0
   15.0271  -17.1154   15.7152 N   0  0  0  0  0  0  0  0  0  0  0  0
   15.4537  -16.0673   14.9561 C   0  0  0  0  0  0  0  0  0  0  0  0
   15.0682  -14.9245   15.5777 N   0  0  0  0  0  0  0  0  0  0  0  0
   14.1409  -14.7166   20.0756 C   0  0  0  0  0  0  0  0  0  0  0  0
   14.4120  -13.5190   20.3460 O   0  0  0  0  0  0  0  0  0  0  0  0
   14.6904  -15.7172   20.9027 N   0  0  0  0  0  0  0  0  0  0  0  0
   15.4920  -15.4249   22.1048 C   0  0  1  0  0  0  0  0  0  0  0  0
   15.4193  -16.6299   22.9877 C   0  0  0  0  0  0  0  0  0  0  0  0
   14.0762  -16.8931   23.5971 C   0  0  0  0  0  0  0  0  0  0  0  0
   14.1198  -18.1767   24.3894 C   0  0  0  0  0  0  0  0  0  0  0  0
   14.6241  -19.2277   23.9382 O   0  0  0  0  0  0  0  0  0  0  0  0
   16.8592  -15.1397   21.6404 C   0  0  0  0  0  0  0  0  0  0  0  0
   17.1930  -15.4135   20.4682 O   0  0  0  0  0  0  0  0  0  0  0  0
   13.5788  -18.1872   25.6664 O   0  0  0  0  0  0  0  0  0  0  0  0
   17.7989  -14.5682   22.4746 O   0  0  0  0  0  0  0  0  0  0  0  0
  1  2  1  0
  2  3  1  0
  3  5  1  0
  3  4  1  6
  5  6  2  0
  7  8  1  0
  7  5  1  0
  8  9  1  6
  9 10  1  0
 10 11  2  0
 11 12  1  0
 13 12  1  0
 14 10  1  0
 14 13  2  0
 15 16  2  0
 15  8  1  0
 17 15  1  0
 18 17  1  0
 18 23  1  0
 18 19  1  1
 20 21  1  0
 20 19  1  0
 21 25  1  0
 22 21  2  0
 23 26  1  0
 24 23  2  0
M  END
$$$$
