SHE.pdb
     RDKit          3D

 26 26  0  0  1  0  0  0  0  0999 V2000
   13.8218  -23.5503   19.1720 O   0  0  0  0  0  0  0  0  0  0  0  0
   12.4746  -23.8624   19.1242 C   0  0  0  0  0  0  0  0  0  0  0  0
   11.7014  -22.8502   18.2671 C   0  0  2  0  0  0  0  0  0  0  0  0
   12.3533  -22.8357   16.9805 N   0  0  0  0  0  0  0  0  0  0  0  0
   11.8153  -21.5518   18.9823 C   0  0  0  0  0  0  0  0  0  0  0  0
   12.5924  -20.6994   18.5005 O   0  0  0  0  0  0  0  0  0  0  0  0
   11.1047  -21.2313   20.1596 N   0  0  0  0  0  0  0  0  0  0  0  0
   11.2280  -19.9322   20.8230 C   0  0  1  0  0  0  0  0  0  0  0  0
    9.8276  -19.4084   21.0934 C   0  0  0  0  0  0  0  0  0  0  0  0
    9.1355  -18.9724   19.8717 C   0  0  0  0  0  0  0  0  0  0  0  0
    9.5731  -17.9853   19.0156 C   0  0  0  0  0  0  0  0  0  0  0  0
    8.6844  -17.8564   18.0023 N   0  0  0  0  0  0  0  0  0  0  0  0
    7.6886  -18.7607   18.2198 C   0  0  0  0  0  0  0  0  0  0  0  0
    7.9822  -19.4300   19.3629 N   0  0  0  0  0  0  0  0  0  0  0  0
   11.9430  -20.0747   22.1239 C   0  0  0  0  0  0  0  0  0  0  0  0
   11.6612  -21.0447   22.8726 O   0  0  0  0  0  0  0  0  0  0  0  0
   12.9297  -19.1696   22.5649 N   0  0  0  0  0  0  0  0  0  0  0  0
   13.5383  -19.2248   23.9065 C   0  0  1  0  0  0  0  0  0  0  0  0
   14.7194  -18.3074   23.8934 C   0  0  0  0  0  0  0  0  0  0  0  0
   15.8435  -18.7287   22.9971 C   0  0  0  0  0  0  0  0  0  0  0  0
   16.9437  -17.6967   23.0415 C   0  0  0  0  0  0  0  0  0  0  0  0
   18.0849  -17.9500   23.4841 O   0  0  0  0  0  0  0  0  0  0  0  0
   12.4984  -18.8024   24.8584 C   0  0  0  0  0  0  0  0  0  0  0  0
   11.4978  -18.1727   24.4552 O   0  0  0  0  0  0  0  0  0  0  0  0
   16.6748  -16.4194   22.5724 O   0  0  0  0  0  0  0  0  0  0  0  0
   12.5965  -19.0869   26.2056 O   0  0  0  0  0  0  0  0  0  0  0  0
  1  2  1  0
  2  3  1  0
  3  5  1  0
  3  4  1  6
  5  6  2  0
  7  8  1  0
  7  5  1  0
  8  9  1  1
  9 10  1  0
 10 11  2  0
 11 12  1  0
 13 12  1  0
 14 10  1  0
 14 13  2  0
 15 16  2  0
 15  8  1  0
 17 15  1  0
 18 17  1  0
 18 23  1  0
 18 19  1  6
 20 21  1  0
 20 19  1  0
 21 25  1  0
 22 21  2  0
 23 26  1  0
 24 23  2  0
M  END
$$$$
