HWL.pdb
     RDKit          3D

 33 35  0  0  1  0  0  0  0  0999 V2000
   28.2576  -21.4680  -15.1452 N   0  0  0  0  0  0  0  0  0  0  0  0
   27.7122  -20.3872  -14.3676 C   0  0  1  0  0  0  0  0  0  0  0  0
   26.9582  -19.3949  -15.2362 C   0  0  0  0  0  0  0  0  0  0  0  0
   27.8662  -18.6328  -16.1111 C   0  0  0  0  0  0  0  0  0  0  0  0
   28.3330  -18.9035  -17.3663 C   0  0  0  0  0  0  0  0  0  0  0  0
   29.1343  -17.9102  -17.7434 N   0  0  0  0  0  0  0  0  0  0  0  0
   29.1852  -17.0111  -16.7473 C   0  0  0  0  0  0  0  0  0  0  0  0
   28.4055  -17.4513  -15.7396 N   0  0  0  0  0  0  0  0  0  0  0  0
   26.7407  -20.9305  -13.3923 C   0  0  0  0  0  0  0  0  0  0  0  0
   26.0724  -21.9563  -13.7177 O   0  0  0  0  0  0  0  0  0  0  0  0
   26.5591  -20.3330  -12.1428 N   0  0  0  0  0  0  0  0  0  0  0  0
   25.5240  -20.8043  -11.2536 C   0  0  1  0  0  0  0  0  0  0  0  0
   25.8533  -20.4928   -9.8499 C   0  0  0  0  0  0  0  0  0  0  0  0
   27.1480  -20.8390   -9.3318 C   0  0  0  0  0  0  0  0  0  0  0  0
   28.1010  -21.6739   -9.8447 C   0  0  0  0  0  0  0  0  0  0  0  0
   29.1770  -21.6748   -8.9958 N   0  0  0  0  0  0  0  0  0  0  0  0
   28.9127  -20.8568   -7.9648 C   0  0  0  0  0  0  0  0  0  0  0  0
   29.6541  -20.5079   -6.8541 C   0  0  0  0  0  0  0  0  0  0  0  0
   29.1519  -19.6167   -5.9040 C   0  0  0  0  0  0  0  0  0  0  0  0
   27.8967  -19.0862   -6.0918 C   0  0  0  0  0  0  0  0  0  0  0  0
   27.1848  -19.4486   -7.1996 C   0  0  0  0  0  0  0  0  0  0  0  0
   27.6734  -20.3338   -8.1517 C   0  0  0  0  0  0  0  0  0  0  0  0
   24.2282  -20.3288  -11.7270 C   0  0  0  0  0  0  0  0  0  0  0  0
   24.1174  -19.1957  -12.2318 O   0  0  0  0  0  0  0  0  0  0  0  0
   19.4698  -21.9953  -13.9409 C   0  0  0  0  0  0  0  0  0  0  0  0
   20.8174  -21.7303  -14.5806 C   0  0  2  0  0  0  0  0  0  0  0  0
   20.9456  -22.3860  -15.8978 C   0  0  0  0  0  0  0  0  0  0  0  0
   21.9737  -21.7859  -13.6618 C   0  0  0  0  0  0  0  0  0  0  0  0
   21.8870  -21.0280  -12.4025 C   0  0  2  0  0  0  0  0  0  0  0  0
   23.1060  -21.1653  -11.6052 N   0  0  0  0  0  0  0  0  0  0  0  0
   20.7526  -21.2232  -11.5202 C   0  0  0  0  0  0  0  0  0  0  0  0
   20.6990  -22.3109  -10.8401 O   0  0  0  0  0  0  0  0  0  0  0  0
   19.6887  -20.3692  -11.3000 O   0  0  0  0  0  0  0  0  0  0  0  0
  2  1  1  6
  2  3  1  0
  3  4  1  0
  4  5  2  0
  4  8  1  0
  5  6  1  0
  6  7  1  0
  8  7  2  0
  9 10  2  0
  9  2  1  0
 11  9  1  0
 12 13  1  1
 12 11  1  0
 13 14  1  0
 14 15  2  0
 14 22  1  0
 15 16  1  0
 16 17  1  0
 17 18  2  0
 19 18  1  0
 20 19  2  0
 21 22  2  0
 21 20  1  0
 22 17  1  0
 23 12  1  0
 24 23  2  0
 26 25  1  1
 26 28  1  0
 27 26  1  0
 29 28  1  6
 29 30  1  0
 30 23  1  0
 31 33  1  0
 31 29  1  0
 32 31  2  0
M  END
$$$$
