HWL.pdb
     RDKit          3D

 33 35  0  0  1  0  0  0  0  0999 V2000
   27.7664  -24.2567  -16.6831 N   0  0  0  0  0  0  0  0  0  0  0  0
   27.5868  -22.8541  -16.4170 C   0  0  1  0  0  0  0  0  0  0  0  0
   26.7382  -22.1840  -17.4839 C   0  0  0  0  0  0  0  0  0  0  0  0
   27.4832  -22.0031  -18.7421 C   0  0  0  0  0  0  0  0  0  0  0  0
   27.1118  -22.2201  -20.0389 C   0  0  0  0  0  0  0  0  0  0  0  0
   28.1363  -21.9115  -20.8301 N   0  0  0  0  0  0  0  0  0  0  0  0
   29.1547  -21.5014  -20.0568 C   0  0  0  0  0  0  0  0  0  0  0  0
   28.7574  -21.5557  -18.7698 N   0  0  0  0  0  0  0  0  0  0  0  0
   26.8713  -22.6897  -15.1319 C   0  0  0  0  0  0  0  0  0  0  0  0
   25.9132  -23.4768  -14.8728 O   0  0  0  0  0  0  0  0  0  0  0  0
   27.2368  -21.6943  -14.2227 N   0  0  0  0  0  0  0  0  0  0  0  0
   26.4838  -21.5078  -13.0052 C   0  0  1  0  0  0  0  0  0  0  0  0
   27.2714  -20.7582  -12.0083 C   0  0  0  0  0  0  0  0  0  0  0  0
   26.6913  -20.4543  -10.7294 C   0  0  0  0  0  0  0  0  0  0  0  0
   25.4070  -20.1120  -10.4103 C   0  0  0  0  0  0  0  0  0  0  0  0
   25.3329  -19.9286   -9.0540 N   0  0  0  0  0  0  0  0  0  0  0  0
   26.5455  -20.1504   -8.5227 C   0  0  0  0  0  0  0  0  0  0  0  0
   27.0023  -20.1015   -7.2210 C   0  0  0  0  0  0  0  0  0  0  0  0
   28.3353  -20.3813   -6.9147 C   0  0  0  0  0  0  0  0  0  0  0  0
   29.1951  -20.7095   -7.9371 C   0  0  0  0  0  0  0  0  0  0  0  0
   28.7166  -20.7505   -9.2157 C   0  0  0  0  0  0  0  0  0  0  0  0
   27.3930  -20.4745   -9.5331 C   0  0  0  0  0  0  0  0  0  0  0  0
   25.1721  -20.9569  -13.3290 C   0  0  0  0  0  0  0  0  0  0  0  0
   25.0738  -19.8580  -13.9066 O   0  0  0  0  0  0  0  0  0  0  0  0
   21.7744  -21.0176  -16.0954 C   0  0  0  0  0  0  0  0  0  0  0  0
   21.9089  -22.3406  -15.3694 C   0  0  2  0  0  0  0  0  0  0  0  0
   21.1552  -23.4204  -16.0381 C   0  0  0  0  0  0  0  0  0  0  0  0
   21.8464  -22.2603  -13.8950 C   0  0  0  0  0  0  0  0  0  0  0  0
   22.6531  -21.2240  -13.2290 C   0  0  2  0  0  0  0  0  0  0  0  0
   24.0201  -21.6817  -12.9800 N   0  0  0  0  0  0  0  0  0  0  0  0
   22.1639  -20.5989  -12.0152 C   0  0  0  0  0  0  0  0  0  0  0  0
   22.4618  -21.1475  -10.8933 O   0  0  0  0  0  0  0  0  0  0  0  0
   21.3999  -19.4536  -11.8960 O   0  0  0  0  0  0  0  0  0  0  0  0
  2  1  1  6
  2  3  1  0
  3  4  1  0
  4  5  2  0
  4  8  1  0
  5  6  1  0
  6  7  1  0
  8  7  2  0
  9 10  2  0
  9  2  1  0
 11  9  1  0
 12 13  1  1
 12 11  1  0
 13 14  1  0
 14 15  2  0
 14 22  1  0
 15 16  1  0
 16 17  1  0
 17 18  2  0
 19 18  1  0
 20 19  2  0
 21 22  2  0
 21 20  1  0
 22 17  1  0
 23 12  1  0
 24 23  2  0
 26 25  1  6
 26 28  1  0
 27 26  1  0
 29 28  1  1
 29 30  1  0
 30 23  1  0
 31 33  1  0
 31 29  1  0
 32 31  2  0
M  END
$$$$
