HWL.pdb
     RDKit          3D

 33 35  0  0  1  0  0  0  0  0999 V2000
   38.9320  -25.6095    4.8071 N   0  0  0  0  0  0  0  0  0  0  0  0
   37.9550  -26.1297    5.7265 C   0  0  1  0  0  0  0  0  0  0  0  0
   38.5968  -26.9920    6.7998 C   0  0  0  0  0  0  0  0  0  0  0  0
   38.6081  -28.4163    6.4234 C   0  0  0  0  0  0  0  0  0  0  0  0
   37.7376  -29.4261    6.7227 C   0  0  0  0  0  0  0  0  0  0  0  0
   38.1757  -30.5458    6.1524 N   0  0  0  0  0  0  0  0  0  0  0  0
   39.3120  -30.2646    5.4946 C   0  0  0  0  0  0  0  0  0  0  0  0
   39.5826  -28.9542    5.6580 N   0  0  0  0  0  0  0  0  0  0  0  0
   37.2901  -25.0037    6.4196 C   0  0  0  0  0  0  0  0  0  0  0  0
   37.9741  -23.9691    6.6778 O   0  0  0  0  0  0  0  0  0  0  0  0
   35.9433  -25.0722    6.7834 N   0  0  0  0  0  0  0  0  0  0  0  0
   35.3060  -23.9507    7.4319 C   0  0  1  0  0  0  0  0  0  0  0  0
   33.8972  -23.8302    7.0116 C   0  0  0  0  0  0  0  0  0  0  0  0
   33.5822  -23.1983    5.7602 C   0  0  0  0  0  0  0  0  0  0  0  0
   34.0565  -23.4584    4.5049 C   0  0  0  0  0  0  0  0  0  0  0  0
   33.4506  -22.5978    3.6270 N   0  0  0  0  0  0  0  0  0  0  0  0
   32.6082  -21.8075    4.3111 C   0  0  0  0  0  0  0  0  0  0  0  0
   31.7678  -20.7903    3.9058 C   0  0  0  0  0  0  0  0  0  0  0  0
   30.9718  -20.1047    4.8252 C   0  0  0  0  0  0  0  0  0  0  0  0
   31.0370  -20.4600    6.1525 C   0  0  0  0  0  0  0  0  0  0  0  0
   31.8771  -21.4700    6.5259 C   0  0  0  0  0  0  0  0  0  0  0  0
   32.6736  -22.1596    5.6210 C   0  0  0  0  0  0  0  0  0  0  0  0
   35.5398  -24.0286    8.8700 C   0  0  0  0  0  0  0  0  0  0  0  0
   36.0862  -25.0311    9.3675 O   0  0  0  0  0  0  0  0  0  0  0  0
   37.6385  -24.4097   12.3727 C   0  0  0  0  0  0  0  0  0  0  0  0
   38.0594  -23.7311   11.0852 C   0  0  2  0  0  0  0  0  0  0  0  0
   39.5279  -23.6886   10.9340 C   0  0  0  0  0  0  0  0  0  0  0  0
   37.2894  -22.5210   10.7289 C   0  0  0  0  0  0  0  0  0  0  0  0
   35.8291  -22.5572   10.9140 C   0  0  2  0  0  0  0  0  0  0  0  0
   35.1396  -22.9583    9.6875 N   0  0  0  0  0  0  0  0  0  0  0  0
   35.1418  -21.3998   11.4538 C   0  0  0  0  0  0  0  0  0  0  0  0
   35.3787  -21.0732   12.6727 O   0  0  0  0  0  0  0  0  0  0  0  0
   34.2408  -20.5700   10.8141 O   0  0  0  0  0  0  0  0  0  0  0  0
  2  1  1  6
  2  3  1  0
  3  4  1  0
  4  5  2  0
  4  8  1  0
  5  6  1  0
  6  7  1  0
  8  7  2  0
  9 10  2  0
  9  2  1  0
 11  9  1  0
 12 13  1  1
 12 11  1  0
 13 14  1  0
 14 15  2  0
 14 22  1  0
 15 16  1  0
 16 17  1  0
 17 18  2  0
 19 18  1  0
 20 19  2  0
 21 22  2  0
 21 20  1  0
 22 17  1  0
 23 12  1  0
 24 23  2  0
 26 25  1  1
 26 28  1  0
 27 26  1  0
 29 28  1  6
 29 30  1  0
 30 23  1  0
 31 33  1  0
 31 29  1  0
 32 31  2  0
M  END
$$$$
