HWL.pdb
     RDKit          3D

 33 35  0  0  1  0  0  0  0  0999 V2000
   16.8726  -19.6318    4.3953 N   0  0  0  0  0  0  0  0  0  0  0  0
   16.8155  -19.5044    5.8274 C   0  0  1  0  0  0  0  0  0  0  0  0
   17.2624  -20.7788    6.5229 C   0  0  0  0  0  0  0  0  0  0  0  0
   16.3633  -21.9079    6.2272 C   0  0  0  0  0  0  0  0  0  0  0  0
   16.5805  -23.0642    5.5325 C   0  0  0  0  0  0  0  0  0  0  0  0
   15.4568  -23.7771    5.5350 N   0  0  0  0  0  0  0  0  0  0  0  0
   14.5272  -23.0923    6.2205 C   0  0  0  0  0  0  0  0  0  0  0  0
   15.0806  -21.9403    6.6493 N   0  0  0  0  0  0  0  0  0  0  0  0
   17.7400  -18.4320    6.2584 C   0  0  0  0  0  0  0  0  0  0  0  0
   18.7705  -18.2090    5.5562 O   0  0  0  0  0  0  0  0  0  0  0  0
   17.4899  -17.6807    7.4091 N   0  0  0  0  0  0  0  0  0  0  0  0
   18.3645  -16.5910    7.7718 C   0  0  1  0  0  0  0  0  0  0  0  0
   17.6379  -15.3072    7.7637 C   0  0  0  0  0  0  0  0  0  0  0  0
   17.6201  -14.5102    6.5683 C   0  0  0  0  0  0  0  0  0  0  0  0
   16.8193  -14.6058    5.4648 C   0  0  0  0  0  0  0  0  0  0  0  0
   17.1722  -13.6138    4.5873 N   0  0  0  0  0  0  0  0  0  0  0  0
   18.1766  -12.9025    5.1231 C   0  0  0  0  0  0  0  0  0  0  0  0
   18.8825  -11.8120    4.6563 C   0  0  0  0  0  0  0  0  0  0  0  0
   19.9027  -11.2360    5.4155 C   0  0  0  0  0  0  0  0  0  0  0  0
   20.1976  -11.7750    6.6463 C   0  0  0  0  0  0  0  0  0  0  0  0
   19.4834  -12.8540    7.0837 C   0  0  0  0  0  0  0  0  0  0  0  0
   18.4664  -13.4356    6.3380 C   0  0  0  0  0  0  0  0  0  0  0  0
   19.0613  -16.9234    9.0099 C   0  0  0  0  0  0  0  0  0  0  0  0
   18.5940  -17.7761    9.7881 O   0  0  0  0  0  0  0  0  0  0  0  0
   23.0753  -18.7855   10.6114 C   0  0  0  0  0  0  0  0  0  0  0  0
   23.1398  -17.5198    9.7814 C   0  0  2  0  0  0  0  0  0  0  0  0
   24.4739  -17.3162    9.1814 C   0  0  0  0  0  0  0  0  0  0  0  0
   22.4545  -16.3474   10.3646 C   0  0  0  0  0  0  0  0  0  0  0  0
   20.9990  -16.4347   10.5698 C   0  0  2  0  0  0  0  0  0  0  0  0
   20.2664  -16.2684    9.3143 N   0  0  0  0  0  0  0  0  0  0  0  0
   20.3611  -15.6030   11.5720 C   0  0  0  0  0  0  0  0  0  0  0  0
   19.6934  -14.5822   11.1711 O   0  0  0  0  0  0  0  0  0  0  0  0
   20.3693  -15.7661   12.9442 O   0  0  0  0  0  0  0  0  0  0  0  0
  2  1  1  6
  2  3  1  0
  3  4  1  0
  4  5  2  0
  4  8  1  0
  5  6  1  0
  6  7  1  0
  8  7  2  0
  9 10  2  0
  9  2  1  0
 11  9  1  0
 12 13  1  1
 12 11  1  0
 13 14  1  0
 14 15  2  0
 14 22  1  0
 15 16  1  0
 16 17  1  0
 17 18  2  0
 19 18  1  0
 20 19  2  0
 21 22  2  0
 21 20  1  0
 22 17  1  0
 23 12  1  0
 24 23  2  0
 26 25  1  1
 26 28  1  0
 27 26  1  0
 29 28  1  6
 29 30  1  0
 30 23  1  0
 31 33  1  0
 31 29  1  0
 32 31  2  0
M  END
$$$$
