HWL.pdb
     RDKit          3D

 33 35  0  0  1  0  0  0  0  0999 V2000
   26.5680  -20.6158  -18.5095 N   0  0  0  0  0  0  0  0  0  0  0  0
   25.7351  -19.6692  -17.8161 C   0  0  1  0  0  0  0  0  0  0  0  0
   24.3829  -19.5116  -18.4899 C   0  0  0  0  0  0  0  0  0  0  0  0
   24.4947  -18.8216  -19.7869 C   0  0  0  0  0  0  0  0  0  0  0  0
   24.3279  -19.2840  -21.0617 C   0  0  0  0  0  0  0  0  0  0  0  0
   24.5377  -18.2784  -21.9077 N   0  0  0  0  0  0  0  0  0  0  0  0
   24.8357  -17.1826  -21.1911 C   0  0  0  0  0  0  0  0  0  0  0  0
   24.8103  -17.5118  -19.8841 N   0  0  0  0  0  0  0  0  0  0  0  0
   25.4776  -20.1603  -16.4439 C   0  0  0  0  0  0  0  0  0  0  0  0
   25.2106  -21.3885  -16.2856 O   0  0  0  0  0  0  0  0  0  0  0  0
   25.5254  -19.2978  -15.3462 N   0  0  0  0  0  0  0  0  0  0  0  0
   25.2428  -19.7915  -14.0193 C   0  0  1  0  0  0  0  0  0  0  0  0
   26.2116  -19.2599  -13.0421 C   0  0  0  0  0  0  0  0  0  0  0  0
   26.9296  -20.1673  -12.1902 C   0  0  0  0  0  0  0  0  0  0  0  0
   27.9447  -21.0319  -12.4909 C   0  0  0  0  0  0  0  0  0  0  0  0
   28.3148  -21.6803  -11.3415 N   0  0  0  0  0  0  0  0  0  0  0  0
   27.5504  -21.2361  -10.3314 C   0  0  0  0  0  0  0  0  0  0  0  0
   27.5200  -21.5597   -8.9899 C   0  0  0  0  0  0  0  0  0  0  0  0
   26.6159  -20.9454   -8.1214 C   0  0  0  0  0  0  0  0  0  0  0  0
   25.7481  -20.0046   -8.6253 C   0  0  0  0  0  0  0  0  0  0  0  0
   25.7998  -19.7036   -9.9566 C   0  0  0  0  0  0  0  0  0  0  0  0
   26.6944  -20.3074  -10.8305 C   0  0  0  0  0  0  0  0  0  0  0  0
   23.8346  -19.5663  -13.7107 C   0  0  0  0  0  0  0  0  0  0  0  0
   23.3295  -18.4370  -13.8541 O   0  0  0  0  0  0  0  0  0  0  0  0
   21.9550  -22.3043  -15.2165 C   0  0  0  0  0  0  0  0  0  0  0  0
   20.6597  -21.5657  -14.9480 C   0  0  2  0  0  0  0  0  0  0  0  0
   19.8402  -21.4198  -16.1679 C   0  0  0  0  0  0  0  0  0  0  0  0
   20.7730  -20.4018  -14.0443 C   0  0  0  0  0  0  0  0  0  0  0  0
   21.6470  -20.5297  -12.8663 C   0  0  2  0  0  0  0  0  0  0  0  0
   23.0549  -20.6399  -13.2486 N   0  0  0  0  0  0  0  0  0  0  0  0
   21.3734  -21.5504  -11.8730 C   0  0  0  0  0  0  0  0  0  0  0  0
   22.2595  -22.4602  -11.6847 O   0  0  0  0  0  0  0  0  0  0  0  0
   20.2552  -21.6800  -11.0714 O   0  0  0  0  0  0  0  0  0  0  0  0
  2  1  1  6
  2  3  1  0
  3  4  1  0
  4  5  2  0
  4  8  1  0
  5  6  1  0
  6  7  1  0
  8  7  2  0
  9 10  2  0
  9  2  1  0
 11  9  1  0
 12 13  1  1
 12 11  1  0
 13 14  1  0
 14 15  2  0
 14 22  1  0
 15 16  1  0
 16 17  1  0
 17 18  2  0
 19 18  1  0
 20 19  2  0
 21 22  2  0
 21 20  1  0
 22 17  1  0
 23 12  1  0
 24 23  2  0
 26 25  1  6
 26 28  1  0
 27 26  1  0
 29 28  1  6
 29 30  1  0
 30 23  1  0
 31 33  1  0
 31 29  1  0
 32 31  2  0
M  END
$$$$
