HWL.pdb
     RDKit          3D

 33 35  0  0  1  0  0  0  0  0999 V2000
   27.7849  -20.0744  -14.5709 N   0  0  0  0  0  0  0  0  0  0  0  0
   27.0705  -21.2819  -14.8903 C   0  0  1  0  0  0  0  0  0  0  0  0
   28.0087  -22.4674  -15.0377 C   0  0  0  0  0  0  0  0  0  0  0  0
   28.9967  -22.2535  -16.1096 C   0  0  0  0  0  0  0  0  0  0  0  0
   29.1704  -21.2045  -16.9676 C   0  0  0  0  0  0  0  0  0  0  0  0
   30.2023  -21.4748  -17.7633 N   0  0  0  0  0  0  0  0  0  0  0  0
   30.6884  -22.6799  -17.4251 C   0  0  0  0  0  0  0  0  0  0  0  0
   29.9495  -23.1638  -16.4067 N   0  0  0  0  0  0  0  0  0  0  0  0
   26.1399  -21.6042  -13.7855 C   0  0  0  0  0  0  0  0  0  0  0  0
   25.5525  -22.7265  -13.8030 O   0  0  0  0  0  0  0  0  0  0  0  0
   25.9096  -20.6995  -12.7466 N   0  0  0  0  0  0  0  0  0  0  0  0
   24.9073  -20.9792  -11.7460 C   0  0  1  0  0  0  0  0  0  0  0  0
   25.3824  -20.5964  -10.4029 C   0  0  0  0  0  0  0  0  0  0  0  0
   26.7191  -20.9365  -10.0002 C   0  0  0  0  0  0  0  0  0  0  0  0
   27.6963  -21.6032  -10.6849 C   0  0  0  0  0  0  0  0  0  0  0  0
   28.8094  -21.6758   -9.8885 N   0  0  0  0  0  0  0  0  0  0  0  0
   28.5444  -21.0671   -8.7218 C   0  0  0  0  0  0  0  0  0  0  0  0
   29.3148  -20.8638   -7.5947 C   0  0  0  0  0  0  0  0  0  0  0  0
   28.8042  -20.1857   -6.4863 C   0  0  0  0  0  0  0  0  0  0  0  0
   27.5112  -19.7186   -6.5332 C   0  0  0  0  0  0  0  0  0  0  0  0
   26.7713  -19.9336   -7.6609 C   0  0  0  0  0  0  0  0  0  0  0  0
   27.2677  -20.6064   -8.7698 C   0  0  0  0  0  0  0  0  0  0  0  0
   23.6347  -20.4000  -12.1630 C   0  0  0  0  0  0  0  0  0  0  0  0
   23.6082  -19.3561  -12.8417 O   0  0  0  0  0  0  0  0  0  0  0  0
   20.6962  -22.0814  -16.2308 C   0  0  0  0  0  0  0  0  0  0  0  0
   21.2156  -21.1981  -15.1149 C   0  0  2  0  0  0  0  0  0  0  0  0
   22.3067  -20.3126  -15.5695 C   0  0  0  0  0  0  0  0  0  0  0  0
   21.3603  -21.8604  -13.8016 C   0  0  0  0  0  0  0  0  0  0  0  0
   21.2172  -21.0297  -12.5943 C   0  0  2  0  0  0  0  0  0  0  0  0
   22.4383  -21.0344  -11.7885 N   0  0  0  0  0  0  0  0  0  0  0  0
   20.0934  -21.2417  -11.7024 C   0  0  0  0  0  0  0  0  0  0  0  0
   18.9103  -21.1544  -12.1933 O   0  0  0  0  0  0  0  0  0  0  0  0
   20.1220  -21.5392  -10.3532 O   0  0  0  0  0  0  0  0  0  0  0  0
  2  1  1  1
  2  3  1  0
  3  4  1  0
  4  5  2  0
  4  8  1  0
  5  6  1  0
  6  7  1  0
  8  7  2  0
  9 10  2  0
  9  2  1  0
 11  9  1  0
 12 13  1  1
 12 11  1  0
 13 14  1  0
 14 15  2  0
 14 22  1  0
 15 16  1  0
 16 17  1  0
 17 18  2  0
 19 18  1  0
 20 19  2  0
 21 22  2  0
 21 20  1  0
 22 17  1  0
 23 12  1  0
 24 23  2  0
 26 25  1  6
 26 28  1  0
 27 26  1  0
 29 28  1  6
 29 30  1  0
 30 23  1  0
 31 33  1  0
 31 29  1  0
 32 31  2  0
M  END
$$$$
