HWL.pdb
     RDKit          3D

 33 35  0  0  1  0  0  0  0  0999 V2000
   25.9793  -19.2211  -16.5569 N   0  0  0  0  0  0  0  0  0  0  0  0
   25.1679  -18.5921  -15.5488 C   0  0  1  0  0  0  0  0  0  0  0  0
   23.8302  -18.1378  -16.1073 C   0  0  0  0  0  0  0  0  0  0  0  0
   23.9799  -16.9943  -17.0242 C   0  0  0  0  0  0  0  0  0  0  0  0
   24.0992  -16.9502  -18.3846 C   0  0  0  0  0  0  0  0  0  0  0  0
   24.2123  -15.6781  -18.7587 N   0  0  0  0  0  0  0  0  0  0  0  0
   24.1671  -14.9114  -17.6572 C   0  0  0  0  0  0  0  0  0  0  0  0
   24.0237  -15.7173  -16.5862 N   0  0  0  0  0  0  0  0  0  0  0  0
   24.8768  -19.5705  -14.4771 C   0  0  0  0  0  0  0  0  0  0  0  0
   24.7085  -20.7837  -14.8007 O   0  0  0  0  0  0  0  0  0  0  0  0
   24.7881  -19.1743  -13.1407 N   0  0  0  0  0  0  0  0  0  0  0  0
   24.5682  -20.1542  -12.1035 C   0  0  1  0  0  0  0  0  0  0  0  0
   25.2170  -19.7430  -10.8442 C   0  0  0  0  0  0  0  0  0  0  0  0
   26.4847  -20.3133  -10.4807 C   0  0  0  0  0  0  0  0  0  0  0  0
   27.3387  -21.0877  -11.2151 C   0  0  0  0  0  0  0  0  0  0  0  0
   28.4308  -21.3807  -10.4406 N   0  0  0  0  0  0  0  0  0  0  0  0
   28.2737  -20.8037   -9.2388 C   0  0  0  0  0  0  0  0  0  0  0  0
   29.0738  -20.7887   -8.1141 C   0  0  0  0  0  0  0  0  0  0  0  0
   28.6850  -20.1009   -6.9631 C   0  0  0  0  0  0  0  0  0  0  0  0
   27.4829  -19.4322   -6.9652 C   0  0  0  0  0  0  0  0  0  0  0  0
   26.7110  -19.4636   -8.0916 C   0  0  0  0  0  0  0  0  0  0  0  0
   27.0867  -20.1439   -9.2426 C   0  0  0  0  0  0  0  0  0  0  0  0
   23.1432  -20.4562  -12.0196 C   0  0  0  0  0  0  0  0  0  0  0  0
   22.3082  -19.5380  -11.9159 O   0  0  0  0  0  0  0  0  0  0  0  0
   20.4090  -22.1200  -14.8727 C   0  0  0  0  0  0  0  0  0  0  0  0
   21.1854  -23.2783  -14.2802 C   0  0  2  0  0  0  0  0  0  0  0  0
   21.0775  -24.4989  -15.1045 C   0  0  0  0  0  0  0  0  0  0  0  0
   21.0844  -23.4204  -12.8126 C   0  0  0  0  0  0  0  0  0  0  0  0
   21.3267  -22.2243  -11.9887 C   0  0  2  0  0  0  0  0  0  0  0  0
   22.7242  -21.7968  -12.0563 N   0  0  0  0  0  0  0  0  0  0  0  0
   20.9243  -22.2150  -10.5954 C   0  0  0  0  0  0  0  0  0  0  0  0
   21.8466  -22.1961   -9.7025 O   0  0  0  0  0  0  0  0  0  0  0  0
   19.6422  -22.2190  -10.0797 O   0  0  0  0  0  0  0  0  0  0  0  0
  2  1  1  6
  2  3  1  0
  3  4  1  0
  4  5  2  0
  4  8  1  0
  5  6  1  0
  6  7  1  0
  8  7  2  0
  9 10  2  0
  9  2  1  0
 11  9  1  0
 12 13  1  1
 12 11  1  0
 13 14  1  0
 14 15  2  0
 14 22  1  0
 15 16  1  0
 16 17  1  0
 17 18  2  0
 19 18  1  0
 20 19  2  0
 21 22  2  0
 21 20  1  0
 22 17  1  0
 23 12  1  0
 24 23  2  0
 26 25  1  6
 26 28  1  0
 27 26  1  0
 29 28  1  1
 29 30  1  0
 30 23  1  0
 31 33  1  0
 31 29  1  0
 32 31  2  0
M  END
$$$$
