HWL.pdb
     RDKit          3D

 33 35  0  0  1  0  0  0  0  0999 V2000
   28.6063  -21.3124  -14.5575 N   0  0  0  0  0  0  0  0  0  0  0  0
   28.0997  -20.4055  -13.5620 C   0  0  1  0  0  0  0  0  0  0  0  0
   27.2536  -19.3067  -14.1817 C   0  0  0  0  0  0  0  0  0  0  0  0
   28.0356  -18.4713  -15.1097 C   0  0  0  0  0  0  0  0  0  0  0  0
   28.0164  -18.3935  -16.4737 C   0  0  0  0  0  0  0  0  0  0  0  0
   28.9120  -17.4877  -16.8588 N   0  0  0  0  0  0  0  0  0  0  0  0
   29.5013  -16.9874  -15.7609 C   0  0  0  0  0  0  0  0  0  0  0  0
   28.9649  -17.5897  -14.6808 N   0  0  0  0  0  0  0  0  0  0  0  0
   27.2242  -21.1475  -12.6274 C   0  0  0  0  0  0  0  0  0  0  0  0
   26.5978  -22.1579  -13.0651 O   0  0  0  0  0  0  0  0  0  0  0  0
   27.0865  -20.7501  -11.2954 N   0  0  0  0  0  0  0  0  0  0  0  0
   26.0630  -21.3359  -10.4627 C   0  0  1  0  0  0  0  0  0  0  0  0
   26.5214  -21.4480   -9.0650 C   0  0  0  0  0  0  0  0  0  0  0  0
   26.8209  -20.2568   -8.3195 C   0  0  0  0  0  0  0  0  0  0  0  0
   26.5101  -18.9536   -8.5905 C   0  0  0  0  0  0  0  0  0  0  0  0
   27.0009  -18.1724   -7.5770 N   0  0  0  0  0  0  0  0  0  0  0  0
   27.6108  -18.9636   -6.6803 C   0  0  0  0  0  0  0  0  0  0  0  0
   28.2577  -18.6811   -5.4941 C   0  0  0  0  0  0  0  0  0  0  0  0
   28.8209  -19.6982   -4.7212 C   0  0  0  0  0  0  0  0  0  0  0  0
   28.7213  -20.9975   -5.1619 C   0  0  0  0  0  0  0  0  0  0  0  0
   28.0759  -21.2486   -6.3391 C   0  0  0  0  0  0  0  0  0  0  0  0
   27.5115  -20.2458   -7.1167 C   0  0  0  0  0  0  0  0  0  0  0  0
   24.8070  -20.6225  -10.6683 C   0  0  0  0  0  0  0  0  0  0  0  0
   24.7700  -19.3791  -10.6087 O   0  0  0  0  0  0  0  0  0  0  0  0
   22.8339  -19.0385  -13.9110 C   0  0  0  0  0  0  0  0  0  0  0  0
   22.8709  -20.5531  -13.9129 C   0  0  2  0  0  0  0  0  0  0  0  0
   22.7395  -21.1103  -15.2743 C   0  0  0  0  0  0  0  0  0  0  0  0
   22.1175  -21.2039  -12.8205 C   0  0  0  0  0  0  0  0  0  0  0  0
   22.3971  -20.7714  -11.4411 C   0  0  2  0  0  0  0  0  0  0  0  0
   23.6385  -21.3562  -10.9337 N   0  0  0  0  0  0  0  0  0  0  0  0
   21.3811  -20.9244  -10.4176 C   0  0  0  0  0  0  0  0  0  0  0  0
   20.2738  -20.2926  -10.5693 O   0  0  0  0  0  0  0  0  0  0  0  0
   21.4411  -21.6856   -9.2658 O   0  0  0  0  0  0  0  0  0  0  0  0
  2  1  1  6
  2  3  1  0
  3  4  1  0
  4  5  2  0
  4  8  1  0
  5  6  1  0
  6  7  1  0
  8  7  2  0
  9 10  2  0
  9  2  1  0
 11  9  1  0
 12 13  1  1
 12 11  1  0
 13 14  1  0
 14 15  2  0
 14 22  1  0
 15 16  1  0
 16 17  1  0
 17 18  2  0
 19 18  1  0
 20 19  2  0
 21 22  2  0
 21 20  1  0
 22 17  1  0
 23 12  1  0
 24 23  2  0
 26 25  1  6
 26 28  1  0
 27 26  1  0
 29 28  1  6
 29 30  1  0
 30 23  1  0
 31 33  1  0
 31 29  1  0
 32 31  2  0
M  END
$$$$
