HWL.pdb
     RDKit          3D

 33 35  0  0  1  0  0  0  0  0999 V2000
   28.2989  -19.8955  -16.5744 N   0  0  0  0  0  0  0  0  0  0  0  0
   27.3567  -20.9353  -16.8926 C   0  0  1  0  0  0  0  0  0  0  0  0
   28.0534  -22.1975  -17.3711 C   0  0  0  0  0  0  0  0  0  0  0  0
   28.6880  -22.0070  -18.6870 C   0  0  0  0  0  0  0  0  0  0  0  0
   28.2847  -22.3862  -19.9362 C   0  0  0  0  0  0  0  0  0  0  0  0
   29.2003  -21.9875  -20.8159 N   0  0  0  0  0  0  0  0  0  0  0  0
   30.1805  -21.3604  -20.1460 C   0  0  0  0  0  0  0  0  0  0  0  0
   29.8697  -21.3693  -18.8343 N   0  0  0  0  0  0  0  0  0  0  0  0
   26.6002  -21.2972  -15.6731 C   0  0  0  0  0  0  0  0  0  0  0  0
   25.9231  -22.3679  -15.6819 O   0  0  0  0  0  0  0  0  0  0  0  0
   26.6266  -20.4842  -14.5376 N   0  0  0  0  0  0  0  0  0  0  0  0
   25.8426  -20.8302  -13.3758 C   0  0  1  0  0  0  0  0  0  0  0  0
   26.5747  -20.5170  -12.1340 C   0  0  0  0  0  0  0  0  0  0  0  0
   25.9990  -20.8656  -10.8645 C   0  0  0  0  0  0  0  0  0  0  0  0
   25.1384  -21.8774  -10.5423 C   0  0  0  0  0  0  0  0  0  0  0  0
   24.8796  -21.8130   -9.1979 N   0  0  0  0  0  0  0  0  0  0  0  0
   25.5623  -20.7813   -8.6770 C   0  0  0  0  0  0  0  0  0  0  0  0
   25.6492  -20.2925   -7.3890 C   0  0  0  0  0  0  0  0  0  0  0  0
   26.4450  -19.1847   -7.0916 C   0  0  0  0  0  0  0  0  0  0  0  0
   27.1477  -18.5815   -8.1087 C   0  0  0  0  0  0  0  0  0  0  0  0
   27.0435  -19.0858   -9.3738 C   0  0  0  0  0  0  0  0  0  0  0  0
   26.2556  -20.1871   -9.6823 C   0  0  0  0  0  0  0  0  0  0  0  0
   24.5126  -20.2430  -13.4992 C   0  0  0  0  0  0  0  0  0  0  0  0
   24.3783  -19.0371  -13.7800 O   0  0  0  0  0  0  0  0  0  0  0  0
   21.1694  -20.1846  -16.1676 C   0  0  0  0  0  0  0  0  0  0  0  0
   21.1893  -21.5284  -15.4684 C   0  0  2  0  0  0  0  0  0  0  0  0
   20.3755  -22.5361  -16.1781 C   0  0  0  0  0  0  0  0  0  0  0  0
   21.0964  -21.4739  -13.9943 C   0  0  0  0  0  0  0  0  0  0  0  0
   22.0070  -20.5618  -13.2823 C   0  0  2  0  0  0  0  0  0  0  0  0
   23.3842  -21.0552  -13.2961 N   0  0  0  0  0  0  0  0  0  0  0  0
   21.6963  -20.1446  -11.9286 C   0  0  0  0  0  0  0  0  0  0  0  0
   22.4051  -20.6261  -10.9725 O   0  0  0  0  0  0  0  0  0  0  0  0
   20.7126  -19.2675  -11.5128 O   0  0  0  0  0  0  0  0  0  0  0  0
  2  1  1  1
  2  3  1  0
  3  4  1  0
  4  5  2  0
  4  8  1  0
  5  6  1  0
  6  7  1  0
  8  7  2  0
  9 10  2  0
  9  2  1  0
 11  9  1  0
 12 13  1  1
 12 11  1  0
 13 14  1  0
 14 15  2  0
 14 22  1  0
 15 16  1  0
 16 17  1  0
 17 18  2  0
 19 18  1  0
 20 19  2  0
 21 22  2  0
 21 20  1  0
 22 17  1  0
 23 12  1  0
 24 23  2  0
 26 25  1  6
 26 28  1  0
 27 26  1  0
 29 28  1  1
 29 30  1  0
 30 23  1  0
 31 33  1  0
 31 29  1  0
 32 31  2  0
M  END
$$$$
