HWL.pdb
     RDKit          3D

 33 35  0  0  1  0  0  0  0  0999 V2000
   27.9688  -20.1466  -17.4062 N   0  0  0  0  0  0  0  0  0  0  0  0
   27.7446  -19.2283  -16.3214 C   0  0  1  0  0  0  0  0  0  0  0  0
   27.0487  -17.9626  -16.7917 C   0  0  0  0  0  0  0  0  0  0  0  0
   27.9161  -17.1535  -17.6657 C   0  0  0  0  0  0  0  0  0  0  0  0
   28.7143  -16.0805  -17.3856 C   0  0  0  0  0  0  0  0  0  0  0  0
   29.3050  -15.6870  -18.5113 N   0  0  0  0  0  0  0  0  0  0  0  0
   28.8951  -16.4930  -19.5040 C   0  0  0  0  0  0  0  0  0  0  0  0
   28.0396  -17.3983  -18.9883 N   0  0  0  0  0  0  0  0  0  0  0  0
   26.8558  -19.8622  -15.3221 C   0  0  0  0  0  0  0  0  0  0  0  0
   25.7798  -20.3942  -15.7270 O   0  0  0  0  0  0  0  0  0  0  0  0
   27.1876  -19.8774  -13.9654 N   0  0  0  0  0  0  0  0  0  0  0  0
   26.2793  -20.4491  -12.9998 C   0  0  1  0  0  0  0  0  0  0  0  0
   26.9400  -20.6202  -11.6920 C   0  0  0  0  0  0  0  0  0  0  0  0
   26.1527  -20.9597  -10.5391 C   0  0  0  0  0  0  0  0  0  0  0  0
   25.0560  -21.7690  -10.4358 C   0  0  0  0  0  0  0  0  0  0  0  0
   24.6582  -21.7926   -9.1245 N   0  0  0  0  0  0  0  0  0  0  0  0
   25.4858  -21.0143   -8.4094 C   0  0  0  0  0  0  0  0  0  0  0  0
   25.5238  -20.7036   -7.0651 C   0  0  0  0  0  0  0  0  0  0  0  0
   26.5046  -19.8541   -6.5499 C   0  0  0  0  0  0  0  0  0  0  0  0
   27.4411  -19.3263   -7.4081 C   0  0  0  0  0  0  0  0  0  0  0  0
   27.3801  -19.6504   -8.7335 C   0  0  0  0  0  0  0  0  0  0  0  0
   26.4098  -20.4942   -9.2580 C   0  0  0  0  0  0  0  0  0  0  0  0
   25.0375  -19.6830  -12.9934 C   0  0  0  0  0  0  0  0  0  0  0  0
   25.0600  -18.4449  -12.8607 O   0  0  0  0  0  0  0  0  0  0  0  0
   21.4675  -21.5310  -15.0271 C   0  0  0  0  0  0  0  0  0  0  0  0
   21.8471  -20.1266  -15.4500 C   0  0  2  0  0  0  0  0  0  0  0  0
   22.8063  -20.1246  -16.5730 C   0  0  0  0  0  0  0  0  0  0  0  0
   22.0721  -19.1736  -14.3429 C   0  0  0  0  0  0  0  0  0  0  0  0
   22.5032  -19.7186  -13.0448 C   0  0  2  0  0  0  0  0  0  0  0  0
   23.8148  -20.3600  -13.1378 N   0  0  0  0  0  0  0  0  0  0  0  0
   21.6242  -20.6059  -12.3076 C   0  0  0  0  0  0  0  0  0  0  0  0
   20.4974  -20.1398  -11.9057 O   0  0  0  0  0  0  0  0  0  0  0  0
   21.8376  -21.9291  -11.9713 O   0  0  0  0  0  0  0  0  0  0  0  0
  2  1  1  6
  2  3  1  0
  3  4  1  0
  4  5  2  0
  4  8  1  0
  5  6  1  0
  6  7  1  0
  8  7  2  0
  9 10  2  0
  9  2  1  0
 11  9  1  0
 12 13  1  1
 12 11  1  0
 13 14  1  0
 14 15  2  0
 14 22  1  0
 15 16  1  0
 16 17  1  0
 17 18  2  0
 19 18  1  0
 20 19  2  0
 21 22  2  0
 21 20  1  0
 22 17  1  0
 23 12  1  0
 24 23  2  0
 26 25  1  1
 26 28  1  0
 27 26  1  0
 29 28  1  6
 29 30  1  0
 30 23  1  0
 31 33  1  0
 31 29  1  0
 32 31  2  0
M  END
$$$$
