HWL.pdb
     RDKit          3D

 33 35  0  0  1  0  0  0  0  0999 V2000
   21.1001  -12.7064  -18.8638 N   0  0  0  0  0  0  0  0  0  0  0  0
   20.4387  -11.4296  -18.9140 C   0  0  1  0  0  0  0  0  0  0  0  0
   19.0056  -11.5195  -18.4182 C   0  0  0  0  0  0  0  0  0  0  0  0
   18.1651  -12.3289  -19.3176 C   0  0  0  0  0  0  0  0  0  0  0  0
   17.2476  -13.3042  -19.0454 C   0  0  0  0  0  0  0  0  0  0  0  0
   16.7453  -13.7459  -20.1958 N   0  0  0  0  0  0  0  0  0  0  0  0
   17.3288  -13.0669  -21.1966 C   0  0  0  0  0  0  0  0  0  0  0  0
   18.2040  -12.1926  -20.6610 N   0  0  0  0  0  0  0  0  0  0  0  0
   21.1434  -10.4804  -18.0236 C   0  0  0  0  0  0  0  0  0  0  0  0
   21.5279  -10.8932  -16.8894 O   0  0  0  0  0  0  0  0  0  0  0  0
   21.3820   -9.1614  -18.4164 N   0  0  0  0  0  0  0  0  0  0  0  0
   22.0376   -8.2411  -17.5178 C   0  0  1  0  0  0  0  0  0  0  0  0
   23.0399   -7.4295  -18.2339 C   0  0  0  0  0  0  0  0  0  0  0  0
   23.7619   -6.4084  -17.5265 C   0  0  0  0  0  0  0  0  0  0  0  0
   24.8401   -6.5167  -16.6934 C   0  0  0  0  0  0  0  0  0  0  0  0
   25.1842   -5.2607  -16.2662 N   0  0  0  0  0  0  0  0  0  0  0  0
   24.3416   -4.3727  -16.8172 C   0  0  0  0  0  0  0  0  0  0  0  0
   24.2572   -2.9988  -16.7146 C   0  0  0  0  0  0  0  0  0  0  0  0
   23.2733   -2.2847  -17.4009 C   0  0  0  0  0  0  0  0  0  0  0  0
   22.3811   -2.9752  -18.1879 C   0  0  0  0  0  0  0  0  0  0  0  0
   22.4875   -4.3343  -18.2714 C   0  0  0  0  0  0  0  0  0  0  0  0
   23.4617   -5.0559  -17.5939 C   0  0  0  0  0  0  0  0  0  0  0  0
   21.0298   -7.4978  -16.7689 C   0  0  0  0  0  0  0  0  0  0  0  0
   19.9676   -7.1471  -17.3163 O   0  0  0  0  0  0  0  0  0  0  0  0
   17.8794   -8.1637  -14.0801 C   0  0  0  0  0  0  0  0  0  0  0  0
   19.1898   -8.3792  -13.3511 C   0  0  2  0  0  0  0  0  0  0  0  0
   19.0148   -9.1688  -12.1153 C   0  0  0  0  0  0  0  0  0  0  0  0
   20.0858   -7.2048  -13.3036 C   0  0  0  0  0  0  0  0  0  0  0  0
   20.3269   -6.4739  -14.5589 C   0  0  2  0  0  0  0  0  0  0  0  0
   21.2731   -7.1815  -15.4218 N   0  0  0  0  0  0  0  0  0  0  0  0
   20.7194   -5.0784  -14.5167 C   0  0  0  0  0  0  0  0  0  0  0  0
   21.9707   -4.8075  -14.4212 O   0  0  0  0  0  0  0  0  0  0  0  0
   19.9051   -3.9633  -14.5717 O   0  0  0  0  0  0  0  0  0  0  0  0
  2  1  1  1
  2  3  1  0
  3  4  1  0
  4  5  2  0
  4  8  1  0
  5  6  1  0
  6  7  1  0
  8  7  2  0
  9 10  2  0
  9  2  1  0
 11  9  1  0
 12 13  1  6
 12 11  1  0
 13 14  1  0
 14 15  2  0
 14 22  1  0
 15 16  1  0
 16 17  1  0
 17 18  2  0
 19 18  1  0
 20 19  2  0
 21 22  2  0
 21 20  1  0
 22 17  1  0
 23 12  1  0
 24 23  2  0
 26 25  1  1
 26 28  1  0
 27 26  1  0
 29 28  1  1
 29 30  1  0
 30 23  1  0
 31 33  1  0
 31 29  1  0
 32 31  2  0
M  END
$$$$
