HWL.pdb
     RDKit          3D

 33 35  0  0  1  0  0  0  0  0999 V2000
   27.6458  -21.7341  -15.0977 N   0  0  0  0  0  0  0  0  0  0  0  0
   27.7825  -20.7060  -14.1004 C   0  0  1  0  0  0  0  0  0  0  0  0
   27.2246  -19.3779  -14.5827 C   0  0  0  0  0  0  0  0  0  0  0  0
   28.0604  -18.7853  -15.6415 C   0  0  0  0  0  0  0  0  0  0  0  0
   27.8486  -18.6693  -16.9864 C   0  0  0  0  0  0  0  0  0  0  0  0
   28.8983  -18.0572  -17.5290 N   0  0  0  0  0  0  0  0  0  0  0  0
   29.7754  -17.7817  -16.5503 C   0  0  0  0  0  0  0  0  0  0  0  0
   29.2639  -18.2278  -15.3856 N   0  0  0  0  0  0  0  0  0  0  0  0
   27.0077  -21.0871  -12.8984 C   0  0  0  0  0  0  0  0  0  0  0  0
   25.9148  -21.7070  -13.0597 O   0  0  0  0  0  0  0  0  0  0  0  0
   27.4631  -20.7747  -11.6154 N   0  0  0  0  0  0  0  0  0  0  0  0
   26.6096  -20.9808  -10.4694 C   0  0  1  0  0  0  0  0  0  0  0  0
   27.3723  -20.8474   -9.2138 C   0  0  0  0  0  0  0  0  0  0  0  0
   26.6714  -20.7952   -7.9606 C   0  0  0  0  0  0  0  0  0  0  0  0
   25.4043  -21.2023   -7.6491 C   0  0  0  0  0  0  0  0  0  0  0  0
   25.1865  -20.9574   -6.3183 N   0  0  0  0  0  0  0  0  0  0  0  0
   26.2931  -20.4063   -5.7952 C   0  0  0  0  0  0  0  0  0  0  0  0
   26.5920  -19.9795   -4.5170 C   0  0  0  0  0  0  0  0  0  0  0  0
   27.8396  -19.4310   -4.2144 C   0  0  0  0  0  0  0  0  0  0  0  0
   28.7755  -19.3208   -5.2166 C   0  0  0  0  0  0  0  0  0  0  0  0
   28.4532  -19.7508   -6.4722 C   0  0  0  0  0  0  0  0  0  0  0  0
   27.2159  -20.2983   -6.7857 C   0  0  0  0  0  0  0  0  0  0  0  0
   25.4261  -20.1362  -10.5913 C   0  0  0  0  0  0  0  0  0  0  0  0
   25.5407  -18.9014  -10.7060 O   0  0  0  0  0  0  0  0  0  0  0  0
   23.6140  -19.1506  -14.3952 C   0  0  0  0  0  0  0  0  0  0  0  0
   23.0801  -19.9777  -13.2436 C   0  0  2  0  0  0  0  0  0  0  0  0
   22.0394  -20.9306  -13.6797 C   0  0  0  0  0  0  0  0  0  0  0  0
   22.8594  -19.2369  -11.9839 C   0  0  0  0  0  0  0  0  0  0  0  0
   22.8983  -19.9980  -10.7240 C   0  0  2  0  0  0  0  0  0  0  0  0
   24.1544  -20.7334  -10.5766 N   0  0  0  0  0  0  0  0  0  0  0  0
   21.8120  -20.9000  -10.3929 C   0  0  0  0  0  0  0  0  0  0  0  0
   20.6176  -20.4290  -10.3913 O   0  0  0  0  0  0  0  0  0  0  0  0
   21.8877  -22.2422  -10.0727 O   0  0  0  0  0  0  0  0  0  0  0  0
  2  1  1  6
  2  3  1  0
  3  4  1  0
  4  5  2  0
  4  8  1  0
  5  6  1  0
  6  7  1  0
  8  7  2  0
  9 10  2  0
  9  2  1  0
 11  9  1  0
 12 13  1  1
 12 11  1  0
 13 14  1  0
 14 15  2  0
 14 22  1  0
 15 16  1  0
 16 17  1  0
 17 18  2  0
 19 18  1  0
 20 19  2  0
 21 22  2  0
 21 20  1  0
 22 17  1  0
 23 12  1  0
 24 23  2  0
 26 25  1  6
 26 28  1  0
 27 26  1  0
 29 28  1  6
 29 30  1  0
 30 23  1  0
 31 33  1  0
 31 29  1  0
 32 31  2  0
M  END
$$$$
