HWL.pdb
     RDKit          3D

 33 35  0  0  1  0  0  0  0  0999 V2000
   27.2861  -23.8972  -15.5707 N   0  0  0  0  0  0  0  0  0  0  0  0
   26.8355  -22.5349  -15.4645 C   0  0  1  0  0  0  0  0  0  0  0  0
   26.0194  -22.1172  -16.6757 C   0  0  0  0  0  0  0  0  0  0  0  0
   26.7067  -21.0829  -17.4686 C   0  0  0  0  0  0  0  0  0  0  0  0
   27.7192  -21.1827  -18.3806 C   0  0  0  0  0  0  0  0  0  0  0  0
   28.0046  -19.9636  -18.8315 N   0  0  0  0  0  0  0  0  0  0  0  0
   27.1893  -19.0889  -18.2206 C   0  0  0  0  0  0  0  0  0  0  0  0
   26.3877  -19.7733  -17.3803 N   0  0  0  0  0  0  0  0  0  0  0  0
   25.9519  -22.4044  -14.2845 C   0  0  0  0  0  0  0  0  0  0  0  0
   25.1877  -23.3728  -13.9962 O   0  0  0  0  0  0  0  0  0  0  0  0
   25.9543  -21.2463  -13.5035 N   0  0  0  0  0  0  0  0  0  0  0  0
   25.1419  -21.1692  -12.3127 C   0  0  1  0  0  0  0  0  0  0  0  0
   25.7943  -20.3387  -11.2828 C   0  0  0  0  0  0  0  0  0  0  0  0
   27.0572  -20.7506  -10.7353 C   0  0  0  0  0  0  0  0  0  0  0  0
   28.1112  -21.3760  -11.3407 C   0  0  0  0  0  0  0  0  0  0  0  0
   29.1016  -21.5526  -10.4099 N   0  0  0  0  0  0  0  0  0  0  0  0
   28.6851  -21.0493   -9.2373 C   0  0  0  0  0  0  0  0  0  0  0  0
   29.2939  -20.9733   -8.0008 C   0  0  0  0  0  0  0  0  0  0  0  0
   28.6434  -20.3888   -6.9126 C   0  0  0  0  0  0  0  0  0  0  0  0
   27.3759  -19.8851   -7.0911 C   0  0  0  0  0  0  0  0  0  0  0  0
   26.7971  -19.9735   -8.3251 C   0  0  0  0  0  0  0  0  0  0  0  0
   27.4338  -20.5523   -9.4152 C   0  0  0  0  0  0  0  0  0  0  0  0
   23.7836  -20.7825  -12.6797 C   0  0  0  0  0  0  0  0  0  0  0  0
   23.5756  -19.7285  -13.3096 O   0  0  0  0  0  0  0  0  0  0  0  0
   18.2611  -23.6017  -12.4441 C   0  0  0  0  0  0  0  0  0  0  0  0
   19.1319  -22.5703  -13.1320 C   0  0  2  0  0  0  0  0  0  0  0  0
   18.7428  -22.3661  -14.5420 C   0  0  0  0  0  0  0  0  0  0  0  0
   20.5731  -22.6484  -12.8137 C   0  0  0  0  0  0  0  0  0  0  0  0
   21.3213  -21.3849  -12.7037 C   0  0  2  0  0  0  0  0  0  0  0  0
   22.7123  -21.6141  -12.3126 N   0  0  0  0  0  0  0  0  0  0  0  0
   20.7997  -20.3071  -11.8856 C   0  0  0  0  0  0  0  0  0  0  0  0
   21.0541  -20.3290  -10.6273 O   0  0  0  0  0  0  0  0  0  0  0  0
   20.0456  -19.2213  -12.2881 O   0  0  0  0  0  0  0  0  0  0  0  0
  2  1  1  6
  2  3  1  0
  3  4  1  0
  4  5  2  0
  4  8  1  0
  5  6  1  0
  6  7  1  0
  8  7  2  0
  9 10  2  0
  9  2  1  0
 11  9  1  0
 12 13  1  1
 12 11  1  0
 13 14  1  0
 14 15  2  0
 14 22  1  0
 15 16  1  0
 16 17  1  0
 17 18  2  0
 19 18  1  0
 20 19  2  0
 21 22  2  0
 21 20  1  0
 22 17  1  0
 23 12  1  0
 24 23  2  0
 26 25  1  6
 26 28  1  0
 27 26  1  0
 29 28  1  1
 29 30  1  0
 30 23  1  0
 31 33  1  0
 31 29  1  0
 32 31  2  0
M  END
$$$$
