HWL.pdb
     RDKit          3D

 33 35  0  0  1  0  0  0  0  0999 V2000
   20.1132  -12.9195  -19.7959 N   0  0  0  0  0  0  0  0  0  0  0  0
   19.6652  -12.4172  -18.5242 C   0  0  1  0  0  0  0  0  0  0  0  0
   20.3383  -13.1362  -17.3676 C   0  0  0  0  0  0  0  0  0  0  0  0
   19.8996  -14.5390  -17.2655 C   0  0  0  0  0  0  0  0  0  0  0  0
   20.5651  -15.7039  -17.5243 C   0  0  0  0  0  0  0  0  0  0  0  0
   19.7437  -16.7230  -17.2844 N   0  0  0  0  0  0  0  0  0  0  0  0
   18.5651  -16.2250  -16.8770 C   0  0  0  0  0  0  0  0  0  0  0  0
   18.6560  -14.8801  -16.8633 N   0  0  0  0  0  0  0  0  0  0  0  0
   20.0268  -10.9866  -18.4105 C   0  0  0  0  0  0  0  0  0  0  0  0
   21.2273  -10.6507  -18.6357 O   0  0  0  0  0  0  0  0  0  0  0  0
   19.0746  -10.0252  -18.0640 N   0  0  0  0  0  0  0  0  0  0  0  0
   19.4296   -8.6261  -18.0344 C   0  0  1  0  0  0  0  0  0  0  0  0
   18.4667   -7.8218  -18.8104 C   0  0  0  0  0  0  0  0  0  0  0  0
   18.5101   -7.8549  -20.2462 C   0  0  0  0  0  0  0  0  0  0  0  0
   18.1529   -8.8524  -21.1097 C   0  0  0  0  0  0  0  0  0  0  0  0
   18.3632   -8.4115  -22.3902 N   0  0  0  0  0  0  0  0  0  0  0  0
   18.8439   -7.1591  -22.3409 C   0  0  0  0  0  0  0  0  0  0  0  0
   19.2132   -6.2759  -23.3353 C   0  0  0  0  0  0  0  0  0  0  0  0
   19.6920   -5.0017  -23.0251 C   0  0  0  0  0  0  0  0  0  0  0  0
   19.7914   -4.6351  -21.7030 C   0  0  0  0  0  0  0  0  0  0  0  0
   19.4191   -5.5287  -20.7394 C   0  0  0  0  0  0  0  0  0  0  0  0
   18.9413   -6.7987  -21.0352 C   0  0  0  0  0  0  0  0  0  0  0  0
   19.6411   -8.2113  -16.6516 C   0  0  0  0  0  0  0  0  0  0  0  0
   18.7412   -8.3590  -15.8034 O   0  0  0  0  0  0  0  0  0  0  0  0
   21.1161   -9.6181  -12.9946 C   0  0  0  0  0  0  0  0  0  0  0  0
   22.2095   -9.3913  -14.0184 C   0  0  2  0  0  0  0  0  0  0  0  0
   23.4108  -10.2033  -13.7374 C   0  0  0  0  0  0  0  0  0  0  0  0
   22.4028   -7.9863  -14.4342 C   0  0  0  0  0  0  0  0  0  0  0  0
   21.2274   -7.2476  -14.9249 C   0  0  2  0  0  0  0  0  0  0  0  0
   20.8731   -7.6420  -16.2885 N   0  0  0  0  0  0  0  0  0  0  0  0
   21.2077   -5.7989  -14.8602 C   0  0  0  0  0  0  0  0  0  0  0  0
   21.1930   -5.1470  -15.9662 O   0  0  0  0  0  0  0  0  0  0  0  0
   21.1975   -4.9973  -13.7346 O   0  0  0  0  0  0  0  0  0  0  0  0
  2  1  1  6
  2  3  1  0
  3  4  1  0
  4  5  2  0
  4  8  1  0
  5  6  1  0
  6  7  1  0
  8  7  2  0
  9 10  2  0
  9  2  1  0
 11  9  1  0
 12 13  1  1
 12 11  1  0
 13 14  1  0
 14 15  2  0
 14 22  1  0
 15 16  1  0
 16 17  1  0
 17 18  2  0
 19 18  1  0
 20 19  2  0
 21 22  2  0
 21 20  1  0
 22 17  1  0
 23 12  1  0
 24 23  2  0
 26 25  1  1
 26 28  1  0
 27 26  1  0
 29 28  1  6
 29 30  1  0
 30 23  1  0
 31 33  1  0
 31 29  1  0
 32 31  2  0
M  END
$$$$
