HWL.pdb
     RDKit          3D

 33 35  0  0  1  0  0  0  0  0999 V2000
   25.7820  -20.3503  -17.1024 N   0  0  0  0  0  0  0  0  0  0  0  0
   25.8486  -19.7073  -15.8169 C   0  0  1  0  0  0  0  0  0  0  0  0
   24.4682  -19.3383  -15.3013 C   0  0  0  0  0  0  0  0  0  0  0  0
   23.8352  -18.2967  -16.1290 C   0  0  0  0  0  0  0  0  0  0  0  0
   24.2753  -17.6614  -17.2557 C   0  0  0  0  0  0  0  0  0  0  0  0
   23.3453  -16.7913  -17.6419 N   0  0  0  0  0  0  0  0  0  0  0  0
   22.3197  -16.8628  -16.7781 C   0  0  0  0  0  0  0  0  0  0  0  0
   22.6163  -17.7888  -15.8445 N   0  0  0  0  0  0  0  0  0  0  0  0
   26.4392  -20.6429  -14.8340 C   0  0  0  0  0  0  0  0  0  0  0  0
   26.3052  -21.8868  -15.0330 O   0  0  0  0  0  0  0  0  0  0  0  0
   27.1281  -20.1744  -13.7129 N   0  0  0  0  0  0  0  0  0  0  0  0
   27.7597  -21.1029  -12.8056 C   0  0  1  0  0  0  0  0  0  0  0  0
   29.1240  -20.6588  -12.4627 C   0  0  0  0  0  0  0  0  0  0  0  0
   29.5543  -20.6839  -11.0921 C   0  0  0  0  0  0  0  0  0  0  0  0
   29.0010  -20.0937   -9.9903 C   0  0  0  0  0  0  0  0  0  0  0  0
   29.7651  -20.4143   -8.8986 N   0  0  0  0  0  0  0  0  0  0  0  0
   30.7828  -21.1927   -9.2990 C   0  0  0  0  0  0  0  0  0  0  0  0
   31.8204  -21.7799   -8.6035 C   0  0  0  0  0  0  0  0  0  0  0  0
   32.7729  -22.5637   -9.2573 C   0  0  0  0  0  0  0  0  0  0  0  0
   32.6620  -22.7446  -10.6164 C   0  0  0  0  0  0  0  0  0  0  0  0
   31.6255  -22.1521  -11.2798 C   0  0  0  0  0  0  0  0  0  0  0  0
   30.6718  -21.3705  -10.6408 C   0  0  0  0  0  0  0  0  0  0  0  0
   26.8684  -21.3581  -11.6789 C   0  0  0  0  0  0  0  0  0  0  0  0
   27.0308  -22.3621  -10.9601 O   0  0  0  0  0  0  0  0  0  0  0  0
   26.2299  -21.0784   -7.6531 C   0  0  0  0  0  0  0  0  0  0  0  0
   26.1522  -19.7309   -8.3411 C   0  0  2  0  0  0  0  0  0  0  0  0
   26.4355  -18.6166   -7.4140 C   0  0  0  0  0  0  0  0  0  0  0  0
   25.0346  -19.5732   -9.2952 C   0  0  0  0  0  0  0  0  0  0  0  0
   24.8595  -20.6109  -10.3251 C   0  0  2  0  0  0  0  0  0  0  0  0
   25.8232  -20.4571  -11.4151 N   0  0  0  0  0  0  0  0  0  0  0  0
   23.5521  -20.8297  -10.9132 C   0  0  0  0  0  0  0  0  0  0  0  0
   22.5919  -21.1763  -10.1345 O   0  0  0  0  0  0  0  0  0  0  0  0
   23.1842  -20.7077  -12.2397 O   0  0  0  0  0  0  0  0  0  0  0  0
  2  1  1  6
  2  3  1  0
  3  4  1  0
  4  5  2  0
  4  8  1  0
  5  6  1  0
  6  7  1  0
  8  7  2  0
  9 10  2  0
  9  2  1  0
 11  9  1  0
 12 13  1  1
 12 11  1  0
 13 14  1  0
 14 15  2  0
 14 22  1  0
 15 16  1  0
 16 17  1  0
 17 18  2  0
 19 18  1  0
 20 19  2  0
 21 22  2  0
 21 20  1  0
 22 17  1  0
 23 12  1  0
 24 23  2  0
 26 25  1  1
 26 28  1  0
 27 26  1  0
 29 28  1  6
 29 30  1  0
 30 23  1  0
 31 33  1  0
 31 29  1  0
 32 31  2  0
M  END
$$$$
