HWL.pdb
     RDKit          3D

 33 35  0  0  1  0  0  0  0  0999 V2000
   26.4302  -17.2097  -18.1707 N   0  0  0  0  0  0  0  0  0  0  0  0
   26.3648  -17.2857  -16.7353 C   0  0  1  0  0  0  0  0  0  0  0  0
   25.9827  -15.9509  -16.1189 C   0  0  0  0  0  0  0  0  0  0  0  0
   27.0453  -14.9448  -16.2904 C   0  0  0  0  0  0  0  0  0  0  0  0
   28.2593  -15.0251  -16.9121 C   0  0  0  0  0  0  0  0  0  0  0  0
   28.8704  -13.8482  -16.8013 N   0  0  0  0  0  0  0  0  0  0  0  0
   28.0641  -13.0195  -16.1184 C   0  0  0  0  0  0  0  0  0  0  0  0
   26.9384  -13.6900  -15.8016 N   0  0  0  0  0  0  0  0  0  0  0  0
   25.3165  -18.2553  -16.3461 C   0  0  0  0  0  0  0  0  0  0  0  0
   24.1049  -17.8939  -16.4248 O   0  0  0  0  0  0  0  0  0  0  0  0
   25.6465  -19.5378  -15.9019 N   0  0  0  0  0  0  0  0  0  0  0  0
   24.6093  -20.4610  -15.5066 C   0  0  1  0  0  0  0  0  0  0  0  0
   24.3931  -21.4863  -16.5449 C   0  0  0  0  0  0  0  0  0  0  0  0
   23.9140  -21.0928  -17.8410 C   0  0  0  0  0  0  0  0  0  0  0  0
   24.6108  -20.6971  -18.9484 C   0  0  0  0  0  0  0  0  0  0  0  0
   23.7149  -20.4333  -19.9514 N   0  0  0  0  0  0  0  0  0  0  0  0
   22.4742  -20.6573  -19.4904 C   0  0  0  0  0  0  0  0  0  0  0  0
   21.2360  -20.5454  -20.0901 C   0  0  0  0  0  0  0  0  0  0  0  0
   20.0666  -20.8436  -19.3884 C   0  0  0  0  0  0  0  0  0  0  0  0
   20.1660  -21.2543  -18.0793 C   0  0  0  0  0  0  0  0  0  0  0  0
   21.4036  -21.3563  -17.5107 C   0  0  0  0  0  0  0  0  0  0  0  0
   22.5741  -21.0627  -18.1981 C   0  0  0  0  0  0  0  0  0  0  0  0
   24.8930  -20.9595  -14.1650 C   0  0  0  0  0  0  0  0  0  0  0  0
   25.9977  -21.4708  -13.9019 O   0  0  0  0  0  0  0  0  0  0  0  0
   26.3212  -19.7952   -9.0889 C   0  0  0  0  0  0  0  0  0  0  0  0
   25.6372  -20.9455   -9.7991 C   0  0  2  0  0  0  0  0  0  0  0  0
   26.1854  -22.2549   -9.3915 C   0  0  0  0  0  0  0  0  0  0  0  0
   25.3593  -20.7253  -11.2339 C   0  0  0  0  0  0  0  0  0  0  0  0
   24.0944  -21.2484  -11.7764 C   0  0  2  0  0  0  0  0  0  0  0  0
   23.9034  -20.8565  -13.1730 N   0  0  0  0  0  0  0  0  0  0  0  0
   22.8513  -21.0038  -11.0706 C   0  0  0  0  0  0  0  0  0  0  0  0
   22.7721  -21.3754   -9.8442 O   0  0  0  0  0  0  0  0  0  0  0  0
   21.7040  -20.4017  -11.5511 O   0  0  0  0  0  0  0  0  0  0  0  0
  2  1  1  6
  2  3  1  0
  3  4  1  0
  4  5  2  0
  4  8  1  0
  5  6  1  0
  6  7  1  0
  8  7  2  0
  9 10  2  0
  9  2  1  0
 11  9  1  0
 12 13  1  6
 12 11  1  0
 13 14  1  0
 14 15  2  0
 14 22  1  0
 15 16  1  0
 16 17  1  0
 17 18  2  0
 19 18  1  0
 20 19  2  0
 21 22  2  0
 21 20  1  0
 22 17  1  0
 23 12  1  0
 24 23  2  0
 26 25  1  6
 26 28  1  0
 27 26  1  0
 29 28  1  1
 29 30  1  0
 30 23  1  0
 31 33  1  0
 31 29  1  0
 32 31  2  0
M  END
$$$$
