FGT.pdb
     RDKit          3D

 23 23  0  0  1  0  0  0  0  0999 V2000
   25.8845  -19.8398   -7.4568 N   0  0  0  0  0  0  0  0  0  0  0  0
   27.0288  -20.0132   -8.3000 C   0  0  1  0  0  0  0  0  0  0  0  0
   28.0019  -20.9231   -7.5374 C   0  0  0  0  0  0  0  0  0  0  0  0
   28.4411  -20.2794   -6.2861 C   0  0  0  0  0  0  0  0  0  0  0  0
   29.2187  -19.1443   -6.3594 C   0  0  0  0  0  0  0  0  0  0  0  0
   29.6392  -18.5284   -5.1866 C   0  0  0  0  0  0  0  0  0  0  0  0
   29.2871  -19.0403   -3.9458 C   0  0  0  0  0  0  0  0  0  0  0  0
   28.4978  -20.1925   -3.9017 C   0  0  0  0  0  0  0  0  0  0  0  0
   28.0773  -20.8086   -5.0641 C   0  0  0  0  0  0  0  0  0  0  0  0
   26.7176  -20.7174   -9.5630 C   0  0  0  0  0  0  0  0  0  0  0  0
   27.6644  -21.0202  -10.3252 O   0  0  0  0  0  0  0  0  0  0  0  0
   25.3679  -21.0223   -9.8634 N   0  0  0  0  0  0  0  0  0  0  0  0
   24.9869  -21.5994  -11.1632 C   0  0  0  0  0  0  0  0  0  0  0  0
   23.9820  -20.7053  -11.7820 C   0  0  0  0  0  0  0  0  0  0  0  0
   23.4492  -19.7648  -11.1359 O   0  0  0  0  0  0  0  0  0  0  0  0
   24.3425  -19.1422  -15.2824 C   0  0  0  0  0  0  0  0  0  0  0  0
   23.0099  -19.8460  -15.1668 C   0  0  1  0  0  0  0  0  0  0  0  0
   23.1318  -21.0713  -15.8192 O   0  0  0  0  0  0  0  0  0  0  0  0
   22.5966  -20.0344  -13.7209 C   0  0  2  0  0  0  0  0  0  0  0  0
   23.5975  -20.8894  -13.1172 N   0  0  0  0  0  0  0  0  0  0  0  0
   21.2394  -20.5701  -13.5883 C   0  0  0  0  0  0  0  0  0  0  0  0
   20.2224  -19.8780  -13.8375 O   0  0  0  0  0  0  0  0  0  0  0  0
   21.0400  -21.8773  -13.1774 O   0  0  0  0  0  0  0  0  0  0  0  0
  2  1  1  1
  2 10  1  0
  3  2  1  0
  4  5  2  0
  4  3  1  0
  6  5  1  0
  7  6  2  0
  8  7  1  0
  8  9  2  0
  9  4  1  0
 10 11  2  0
 10 12  1  0
 12 13  1  0
 13 14  1  0
 14 15  2  0
 17 16  1  1
 18 17  1  0
 19 17  1  0
 20 14  1  0
 19 20  1  6
 21 23  1  0
 21 19  1  0
 22 21  2  0
M  END
$$$$
