FGT.pdb
     RDKit          3D

 23 23  0  0  1  0  0  0  0  0999 V2000
   25.7492  -20.0024   -7.5973 N   0  0  0  0  0  0  0  0  0  0  0  0
   26.9341  -20.0122   -8.4013 C   0  0  1  0  0  0  0  0  0  0  0  0
   27.9624  -20.8751   -7.6569 C   0  0  0  0  0  0  0  0  0  0  0  0
   28.3511  -20.2378   -6.3858 C   0  0  0  0  0  0  0  0  0  0  0  0
   27.7061  -20.6149   -5.2281 C   0  0  0  0  0  0  0  0  0  0  0  0
   28.0636  -20.0211   -4.0234 C   0  0  0  0  0  0  0  0  0  0  0  0
   29.0591  -19.0559   -3.9713 C   0  0  0  0  0  0  0  0  0  0  0  0
   29.6963  -18.6930   -5.1608 C   0  0  0  0  0  0  0  0  0  0  0  0
   29.3449  -19.2799   -6.3607 C   0  0  0  0  0  0  0  0  0  0  0  0
   26.7369  -20.6579   -9.7174 C   0  0  0  0  0  0  0  0  0  0  0  0
   27.7476  -20.9230  -10.4083 O   0  0  0  0  0  0  0  0  0  0  0  0
   25.4200  -20.9516  -10.1467 N   0  0  0  0  0  0  0  0  0  0  0  0
   25.1546  -21.4584  -11.5033 C   0  0  0  0  0  0  0  0  0  0  0  0
   23.9419  -20.7798  -12.0142 C   0  0  0  0  0  0  0  0  0  0  0  0
   23.3795  -19.8578  -11.3664 O   0  0  0  0  0  0  0  0  0  0  0  0
   23.3859  -20.1952  -15.9426 C   0  0  0  0  0  0  0  0  0  0  0  0
   22.1692  -20.7582  -15.2444 C   0  0  1  0  0  0  0  0  0  0  0  0
   22.1355  -22.1255  -15.5112 O   0  0  0  0  0  0  0  0  0  0  0  0
   22.2030  -20.4923  -13.7527 C   0  0  2  0  0  0  0  0  0  0  0  0
   23.3870  -21.1543  -13.2456 N   0  0  0  0  0  0  0  0  0  0  0  0
   20.9781  -20.9253  -13.0756 C   0  0  0  0  0  0  0  0  0  0  0  0
   19.9125  -20.2649  -13.1388 O   0  0  0  0  0  0  0  0  0  0  0  0
   20.9639  -22.0953  -12.3351 O   0  0  0  0  0  0  0  0  0  0  0  0
  2  1  1  1
  2 10  1  0
  3  2  1  0
  4  5  2  0
  4  3  1  0
  6  5  1  0
  7  6  2  0
  8  7  1  0
  8  9  2  0
  9  4  1  0
 10 11  2  0
 10 12  1  0
 12 13  1  0
 13 14  1  0
 14 15  2  0
 17 16  1  6
 18 17  1  0
 19 17  1  0
 20 14  1  0
 19 20  1  1
 21 23  1  0
 21 19  1  0
 22 21  2  0
M  END
$$$$
