FGT.pdb
     RDKit          3D

 23 23  0  0  1  0  0  0  0  0999 V2000
   24.8858  -19.2442  -16.5229 N   0  0  0  0  0  0  0  0  0  0  0  0
   23.4965  -19.5736  -16.6331 C   0  0  1  0  0  0  0  0  0  0  0  0
   23.1722  -19.6115  -18.1329 C   0  0  0  0  0  0  0  0  0  0  0  0
   23.4205  -18.2962  -18.7505 C   0  0  0  0  0  0  0  0  0  0  0  0
   24.3793  -18.1939  -19.7347 C   0  0  0  0  0  0  0  0  0  0  0  0
   24.6226  -16.9591  -20.3245 C   0  0  0  0  0  0  0  0  0  0  0  0
   23.9143  -15.8309  -19.9363 C   0  0  0  0  0  0  0  0  0  0  0  0
   22.9479  -15.9642  -18.9359 C   0  0  0  0  0  0  0  0  0  0  0  0
   22.7021  -17.1887  -18.3464 C   0  0  0  0  0  0  0  0  0  0  0  0
   23.1767  -20.9209  -16.1130 C   0  0  0  0  0  0  0  0  0  0  0  0
   22.0094  -21.3525  -16.2547 O   0  0  0  0  0  0  0  0  0  0  0  0
   24.1960  -21.6702  -15.4771 N   0  0  0  0  0  0  0  0  0  0  0  0
   23.9249  -23.0032  -14.9137 C   0  0  0  0  0  0  0  0  0  0  0  0
   23.8768  -22.8739  -13.4396 C   0  0  0  0  0  0  0  0  0  0  0  0
   23.3730  -23.7720  -12.7147 O   0  0  0  0  0  0  0  0  0  0  0  0
   26.7286  -21.3714  -11.1934 C   0  0  0  0  0  0  0  0  0  0  0  0
   25.4055  -20.6882  -10.9341 C   0  0  1  0  0  0  0  0  0  0  0  0
   25.4313  -19.4685  -11.6076 O   0  0  0  0  0  0  0  0  0  0  0  0
   24.2351  -21.5384  -11.3861 C   0  0  2  0  0  0  0  0  0  0  0  0
   24.3978  -21.7342  -12.8117 N   0  0  0  0  0  0  0  0  0  0  0  0
   22.9411  -20.9449  -11.0399 C   0  0  0  0  0  0  0  0  0  0  0  0
   22.0955  -20.6335  -11.9138 O   0  0  0  0  0  0  0  0  0  0  0  0
   22.6116  -20.7078   -9.7161 O   0  0  0  0  0  0  0  0  0  0  0  0
  2  1  1  6
  2 10  1  0
  3  2  1  0
  4  5  2  0
  4  3  1  0
  6  5  1  0
  7  6  2  0
  8  7  1  0
  8  9  2  0
  9  4  1  0
 10 11  2  0
 10 12  1  0
 12 13  1  0
 13 14  1  0
 14 15  2  0
 17 16  1  6
 18 17  1  0
 19 17  1  0
 20 14  1  0
 19 20  1  6
 21 23  1  0
 21 19  1  0
 22 21  2  0
M  END
$$$$
