FGT.pdb
     RDKit          3D

 23 23  0  0  1  0  0  0  0  0999 V2000
   26.3903  -16.7676  -19.0840 N   0  0  0  0  0  0  0  0  0  0  0  0
   24.9885  -16.9567  -18.8607 C   0  0  1  0  0  0  0  0  0  0  0  0
   24.4360  -17.6580  -20.1093 C   0  0  0  0  0  0  0  0  0  0  0  0
   24.2400  -16.6902  -21.2038 C   0  0  0  0  0  0  0  0  0  0  0  0
   22.9830  -16.1652  -21.4102 C   0  0  0  0  0  0  0  0  0  0  0  0
   22.7855  -15.2519  -22.4391 C   0  0  0  0  0  0  0  0  0  0  0  0
   23.8351  -14.8626  -23.2590 C   0  0  0  0  0  0  0  0  0  0  0  0
   25.0991  -15.4112  -23.0265 C   0  0  0  0  0  0  0  0  0  0  0  0
   25.3008  -16.3192  -22.0056 C   0  0  0  0  0  0  0  0  0  0  0  0
   24.6984  -17.8586  -17.7248 C   0  0  0  0  0  0  0  0  0  0  0  0
   25.6593  -18.2939  -17.0493 O   0  0  0  0  0  0  0  0  0  0  0  0
   23.3523  -18.1957  -17.4435 N   0  0  0  0  0  0  0  0  0  0  0  0
   23.0029  -19.0471  -16.2942 C   0  0  0  0  0  0  0  0  0  0  0  0
   21.5267  -19.1410  -16.2286 C   0  0  0  0  0  0  0  0  0  0  0  0
   20.7888  -18.4880  -17.0128 O   0  0  0  0  0  0  0  0  0  0  0  0
   19.5803  -21.9732  -16.8588 C   0  0  0  0  0  0  0  0  0  0  0  0
   19.1385  -21.5347  -15.4814 C   0  0  1  0  0  0  0  0  0  0  0  0
   19.7716  -22.3668  -14.5601 O   0  0  0  0  0  0  0  0  0  0  0  0
   19.4688  -20.0787  -15.2214 C   0  0  2  0  0  0  0  0  0  0  0  0
   20.9117  -19.9695  -15.2800 N   0  0  0  0  0  0  0  0  0  0  0  0
   18.9150  -19.5930  -13.9550 C   0  0  0  0  0  0  0  0  0  0  0  0
   19.6386  -19.3642  -12.9552 O   0  0  0  0  0  0  0  0  0  0  0  0
   17.5545  -19.3698  -13.8259 O   0  0  0  0  0  0  0  0  0  0  0  0
  2  1  1  6
  2 10  1  0
  3  2  1  0
  4  5  2  0
  4  3  1  0
  6  5  1  0
  7  6  2  0
  8  7  1  0
  8  9  2  0
  9  4  1  0
 10 11  2  0
 10 12  1  0
 12 13  1  0
 13 14  1  0
 14 15  2  0
 17 16  1  6
 18 17  1  0
 19 17  1  0
 20 14  1  0
 19 20  1  1
 21 23  1  0
 21 19  1  0
 22 21  2  0
M  END
$$$$
