FGT.pdb
     RDKit          3D

 23 23  0  0  1  0  0  0  0  0999 V2000
   24.3975  -11.0212  -16.5660 N   0  0  0  0  0  0  0  0  0  0  0  0
   25.0222  -10.1936  -15.5784 C   0  0  1  0  0  0  0  0  0  0  0  0
   25.8972   -9.1875  -16.3387 C   0  0  0  0  0  0  0  0  0  0  0  0
   26.9648   -9.8842  -17.0790 C   0  0  0  0  0  0  0  0  0  0  0  0
   28.1733  -10.1030  -16.4545 C   0  0  0  0  0  0  0  0  0  0  0  0
   29.1877  -10.7587  -17.1421 C   0  0  0  0  0  0  0  0  0  0  0  0
   28.9998  -11.1948  -18.4460 C   0  0  0  0  0  0  0  0  0  0  0  0
   27.7641  -10.9592  -19.0542 C   0  0  0  0  0  0  0  0  0  0  0  0
   26.7527  -10.3081  -18.3756 C   0  0  0  0  0  0  0  0  0  0  0  0
   24.0557   -9.3874  -14.8013 C   0  0  0  0  0  0  0  0  0  0  0  0
   24.4944   -8.6408  -13.8962 O   0  0  0  0  0  0  0  0  0  0  0  0
   22.6768   -9.4879  -15.1069 N   0  0  0  0  0  0  0  0  0  0  0  0
   21.6794   -8.6524  -14.4177 C   0  0  0  0  0  0  0  0  0  0  0  0
   21.3728   -7.4958  -15.2897 C   0  0  0  0  0  0  0  0  0  0  0  0
   22.1154   -7.1847  -16.2581 O   0  0  0  0  0  0  0  0  0  0  0  0
   18.4515   -7.4205  -17.1949 C   0  0  0  0  0  0  0  0  0  0  0  0
   19.5739   -6.4150  -17.3130 C   0  0  1  0  0  0  0  0  0  0  0  0
   19.2200   -5.5168  -18.3178 O   0  0  0  0  0  0  0  0  0  0  0  0
   19.8272   -5.6980  -16.0020 C   0  0  2  0  0  0  0  0  0  0  0  0
   20.2350   -6.7125  -15.0526 N   0  0  0  0  0  0  0  0  0  0  0  0
   18.6655   -4.9301  -15.5466 C   0  0  0  0  0  0  0  0  0  0  0  0
   17.9112   -5.3421  -14.6317 O   0  0  0  0  0  0  0  0  0  0  0  0
   18.3642   -3.7081  -16.1239 O   0  0  0  0  0  0  0  0  0  0  0  0
  2  1  1  6
  2 10  1  0
  3  2  1  0
  4  5  2  0
  4  3  1  0
  6  5  1  0
  7  6  2  0
  8  7  1  0
  8  9  2  0
  9  4  1  0
 10 11  2  0
 10 12  1  0
 12 13  1  0
 13 14  1  0
 14 15  2  0
 17 16  1  1
 18 17  1  0
 19 17  1  0
 20 14  1  0
 19 20  1  1
 21 23  1  0
 21 19  1  0
 22 21  2  0
M  END
$$$$
