FGT.pdb
     RDKit          3D

 23 23  0  0  1  0  0  0  0  0999 V2000
   12.8665  -20.9840   -5.2805 N   0  0  0  0  0  0  0  0  0  0  0  0
   13.1450  -22.3881   -5.2433 C   0  0  1  0  0  0  0  0  0  0  0  0
   13.9298  -22.7138   -6.5217 C   0  0  0  0  0  0  0  0  0  0  0  0
   13.1054  -22.4555   -7.7162 C   0  0  0  0  0  0  0  0  0  0  0  0
   11.9668  -23.2060   -7.9134 C   0  0  0  0  0  0  0  0  0  0  0  0
   11.1814  -22.9720   -9.0360 C   0  0  0  0  0  0  0  0  0  0  0  0
   11.5280  -21.9950   -9.9583 C   0  0  0  0  0  0  0  0  0  0  0  0
   12.6879  -21.2492   -9.7328 C   0  0  0  0  0  0  0  0  0  0  0  0
   13.4720  -21.4776   -8.6190 C   0  0  0  0  0  0  0  0  0  0  0  0
   14.0219  -22.7762   -4.1171 C   0  0  0  0  0  0  0  0  0  0  0  0
   14.8485  -23.7001   -4.2965 O   0  0  0  0  0  0  0  0  0  0  0  0
   13.8961  -22.0930   -2.8833 N   0  0  0  0  0  0  0  0  0  0  0  0
   14.6697  -22.5052   -1.7002 C   0  0  0  0  0  0  0  0  0  0  0  0
   14.3643  -21.5586   -0.6035 C   0  0  0  0  0  0  0  0  0  0  0  0
   13.5410  -20.6176   -0.7544 O   0  0  0  0  0  0  0  0  0  0  0  0
   14.3073  -22.8602    3.1931 C   0  0  0  0  0  0  0  0  0  0  0  0
   13.6555  -21.6313    2.6019 C   0  0  1  0  0  0  0  0  0  0  0  0
   13.1742  -20.8677    3.6635 O   0  0  0  0  0  0  0  0  0  0  0  0
   14.6238  -20.8355    1.7499 C   0  0  2  0  0  0  0  0  0  0  0  0
   14.9933  -21.6917    0.6419 N   0  0  0  0  0  0  0  0  0  0  0  0
   15.7828  -20.3601    2.5095 C   0  0  0  0  0  0  0  0  0  0  0  0
   16.9003  -20.9283    2.4456 O   0  0  0  0  0  0  0  0  0  0  0  0
   15.6736  -19.2518    3.3325 O   0  0  0  0  0  0  0  0  0  0  0  0
  2  1  1  1
  2 10  1  0
  3  2  1  0
  4  5  2  0
  4  3  1  0
  6  5  1  0
  7  6  2  0
  8  7  1  0
  8  9  2  0
  9  4  1  0
 10 11  2  0
 10 12  1  0
 12 13  1  0
 13 14  1  0
 14 15  2  0
 17 16  1  1
 18 17  1  0
 19 17  1  0
 20 14  1  0
 19 20  1  6
 21 23  1  0
 21 19  1  0
 22 21  2  0
M  END
$$$$
