FGT.pdb
     RDKit          3D

 23 23  0  0  1  0  0  0  0  0999 V2000
   23.6670  -18.3267  -16.2003 N   0  0  0  0  0  0  0  0  0  0  0  0
   23.2897  -19.6998  -16.3516 C   0  0  1  0  0  0  0  0  0  0  0  0
   23.4659  -20.0422  -17.8375 C   0  0  0  0  0  0  0  0  0  0  0  0
   22.5716  -19.2168  -18.6694 C   0  0  0  0  0  0  0  0  0  0  0  0
   21.2496  -19.5853  -18.7923 C   0  0  0  0  0  0  0  0  0  0  0  0
   20.3965  -18.8153  -19.5740 C   0  0  0  0  0  0  0  0  0  0  0  0
   20.8575  -17.6831  -20.2305 C   0  0  0  0  0  0  0  0  0  0  0  0
   22.2028  -17.3332  -20.0879 C   0  0  0  0  0  0  0  0  0  0  0  0
   23.0548  -18.0949  -19.3124 C   0  0  0  0  0  0  0  0  0  0  0  0
   24.1720  -20.6287  -15.6121 C   0  0  0  0  0  0  0  0  0  0  0  0
   23.9605  -21.8592  -15.7140 O   0  0  0  0  0  0  0  0  0  0  0  0
   25.2180  -20.0966  -14.8201 N   0  0  0  0  0  0  0  0  0  0  0  0
   26.0694  -20.9688  -13.9941 C   0  0  0  0  0  0  0  0  0  0  0  0
   25.4152  -21.1279  -12.6754 C   0  0  0  0  0  0  0  0  0  0  0  0
   24.1898  -21.4004  -12.5756 O   0  0  0  0  0  0  0  0  0  0  0  0
   26.0517  -21.0132   -7.7590 C   0  0  0  0  0  0  0  0  0  0  0  0
   26.5972  -20.8992   -9.1640 C   0  0  1  0  0  0  0  0  0  0  0  0
   27.5442  -21.9091   -9.3228 O   0  0  0  0  0  0  0  0  0  0  0  0
   25.5004  -21.0087  -10.2041 C   0  0  2  0  0  0  0  0  0  0  0  0
   26.1558  -20.9765  -11.4951 N   0  0  0  0  0  0  0  0  0  0  0  0
   24.4815  -19.9659  -10.0600 C   0  0  0  0  0  0  0  0  0  0  0  0
   24.7033  -18.7699  -10.3696 O   0  0  0  0  0  0  0  0  0  0  0  0
   23.2247  -20.2783   -9.5696 O   0  0  0  0  0  0  0  0  0  0  0  0
  2  1  1  6
  2 10  1  0
  3  2  1  0
  4  5  2  0
  4  3  1  0
  6  5  1  0
  7  6  2  0
  8  7  1  0
  8  9  2  0
  9  4  1  0
 10 11  2  0
 10 12  1  0
 12 13  1  0
 13 14  1  0
 14 15  2  0
 17 16  1  1
 18 17  1  0
 19 17  1  0
 20 14  1  0
 19 20  1  6
 21 23  1  0
 21 19  1  0
 22 21  2  0
M  END
$$$$
