FGT.pdb
     RDKit          3D

 23 23  0  0  1  0  0  0  0  0999 V2000
   25.7195  -21.4634   -8.5126 N   0  0  0  0  0  0  0  0  0  0  0  0
   26.5627  -20.4010   -8.9717 C   0  0  1  0  0  0  0  0  0  0  0  0
   27.9552  -20.6587   -8.3795 C   0  0  0  0  0  0  0  0  0  0  0  0
   27.9948  -20.2678   -6.9586 C   0  0  0  0  0  0  0  0  0  0  0  0
   27.3715  -19.1015   -6.5721 C   0  0  0  0  0  0  0  0  0  0  0  0
   27.4021  -18.7222   -5.2353 C   0  0  0  0  0  0  0  0  0  0  0  0
   28.0504  -19.5009   -4.2872 C   0  0  0  0  0  0  0  0  0  0  0  0
   28.6739  -20.6785   -4.7078 C   0  0  0  0  0  0  0  0  0  0  0  0
   28.6466  -21.0601   -6.0349 C   0  0  0  0  0  0  0  0  0  0  0  0
   26.7396  -20.3940  -10.4403 C   0  0  0  0  0  0  0  0  0  0  0  0
   27.2153  -19.3676  -10.9781 O   0  0  0  0  0  0  0  0  0  0  0  0
   26.3668  -21.5415  -11.1812 N   0  0  0  0  0  0  0  0  0  0  0  0
   26.5222  -21.5889  -12.6446 C   0  0  0  0  0  0  0  0  0  0  0  0
   25.1783  -21.7661  -13.2402 C   0  0  0  0  0  0  0  0  0  0  0  0
   24.9561  -22.6414  -14.1180 O   0  0  0  0  0  0  0  0  0  0  0  0
   22.4204  -23.1493  -12.0693 C   0  0  0  0  0  0  0  0  0  0  0  0
   21.9206  -21.7660  -12.4175 C   0  0  1  0  0  0  0  0  0  0  0  0
   21.8744  -21.0331  -11.2332 O   0  0  0  0  0  0  0  0  0  0  0  0
   22.8057  -21.0900  -13.4453 C   0  0  2  0  0  0  0  0  0  0  0  0
   24.1114  -20.9529  -12.8343 N   0  0  0  0  0  0  0  0  0  0  0  0
   22.2586  -19.8113  -13.9059 C   0  0  0  0  0  0  0  0  0  0  0  0
   21.1580  -19.7341  -14.5044 O   0  0  0  0  0  0  0  0  0  0  0  0
   22.9541  -18.6337  -13.6889 O   0  0  0  0  0  0  0  0  0  0  0  0
  2  1  1  6
  2 10  1  0
  3  2  1  0
  4  5  2  0
  4  3  1  0
  6  5  1  0
  7  6  2  0
  8  7  1  0
  8  9  2  0
  9  4  1  0
 10 11  2  0
 10 12  1  0
 12 13  1  0
 13 14  1  0
 14 15  2  0
 17 16  1  1
 18 17  1  0
 19 17  1  0
 20 14  1  0
 19 20  1  1
 21 23  1  0
 21 19  1  0
 22 21  2  0
M  END
$$$$
