FGT.pdb
     RDKit          3D

 23 23  0  0  1  0  0  0  0  0999 V2000
   20.6720  -10.8172  -19.8264 N   0  0  0  0  0  0  0  0  0  0  0  0
   22.0745  -10.6753  -19.5742 C   0  0  1  0  0  0  0  0  0  0  0  0
   22.7799  -10.8068  -20.9310 C   0  0  0  0  0  0  0  0  0  0  0  0
   22.6540  -12.1809  -21.4499 C   0  0  0  0  0  0  0  0  0  0  0  0
   23.5690  -13.1297  -21.0487 C   0  0  0  0  0  0  0  0  0  0  0  0
   23.4609  -14.4287  -21.5311 C   0  0  0  0  0  0  0  0  0  0  0  0
   22.4461  -14.7817  -22.4092 C   0  0  0  0  0  0  0  0  0  0  0  0
   21.5324  -13.7990  -22.7990 C   0  0  0  0  0  0  0  0  0  0  0  0
   21.6352  -12.5067  -22.3227 C   0  0  0  0  0  0  0  0  0  0  0  0
   22.4381   -9.3393  -19.0538 C   0  0  0  0  0  0  0  0  0  0  0  0
   23.6431   -9.1046  -18.8051 O   0  0  0  0  0  0  0  0  0  0  0  0
   21.4165   -8.3789  -18.8566 N   0  0  0  0  0  0  0  0  0  0  0  0
   21.7032   -7.0769  -18.2317 C   0  0  0  0  0  0  0  0  0  0  0  0
   21.0165   -7.0396  -16.9205 C   0  0  0  0  0  0  0  0  0  0  0  0
   19.8160   -7.3986  -16.7942 O   0  0  0  0  0  0  0  0  0  0  0  0
   20.9406   -7.4554  -12.2185 C   0  0  0  0  0  0  0  0  0  0  0  0
   21.6317   -7.4500  -13.5628 C   0  0  1  0  0  0  0  0  0  0  0  0
   21.5594   -8.7460  -14.0698 O   0  0  0  0  0  0  0  0  0  0  0  0
   21.0018   -6.4536  -14.5153 C   0  0  2  0  0  0  0  0  0  0  0  0
   21.6969   -6.5981  -15.7775 N   0  0  0  0  0  0  0  0  0  0  0  0
   21.0396   -5.0821  -14.0016 C   0  0  0  0  0  0  0  0  0  0  0  0
   22.0776   -4.3783  -14.0559 O   0  0  0  0  0  0  0  0  0  0  0  0
   19.9109   -4.5164  -13.4327 O   0  0  0  0  0  0  0  0  0  0  0  0
  2  1  1  6
  2 10  1  0
  3  2  1  0
  4  5  2  0
  4  3  1  0
  6  5  1  0
  7  6  2  0
  8  7  1  0
  8  9  2  0
  9  4  1  0
 10 11  2  0
 10 12  1  0
 12 13  1  0
 13 14  1  0
 14 15  2  0
 17 16  1  1
 18 17  1  0
 19 17  1  0
 20 14  1  0
 19 20  1  6
 21 23  1  0
 21 19  1  0
 22 21  2  0
M  END
$$$$
