FGT.pdb
     RDKit          3D

 23 23  0  0  1  0  0  0  0  0999 V2000
   21.8876  -12.8946  -18.2320 N   0  0  0  0  0  0  0  0  0  0  0  0
   21.5057  -11.5167  -18.3106 C   0  0  1  0  0  0  0  0  0  0  0  0
   20.2234  -11.4641  -19.1526 C   0  0  0  0  0  0  0  0  0  0  0  0
   20.4850  -11.9332  -20.5255 C   0  0  0  0  0  0  0  0  0  0  0  0
   20.2187  -13.2476  -20.8413 C   0  0  0  0  0  0  0  0  0  0  0  0
   20.4612  -13.7018  -22.1323 C   0  0  0  0  0  0  0  0  0  0  0  0
   20.9667  -12.8510  -23.1049 C   0  0  0  0  0  0  0  0  0  0  0  0
   21.2274  -11.5231  -22.7563 C   0  0  0  0  0  0  0  0  0  0  0  0
   20.9882  -11.0666  -21.4750 C   0  0  0  0  0  0  0  0  0  0  0  0
   21.1540  -10.9362  -16.9963 C   0  0  0  0  0  0  0  0  0  0  0  0
   20.6444  -11.6854  -16.1313 O   0  0  0  0  0  0  0  0  0  0  0  0
   21.4048   -9.5622  -16.7644 N   0  0  0  0  0  0  0  0  0  0  0  0
   20.9980   -8.9136  -15.5067 C   0  0  0  0  0  0  0  0  0  0  0  0
   21.4863   -7.5162  -15.5356 C   0  0  0  0  0  0  0  0  0  0  0  0
   22.2336   -7.0976  -16.4589 O   0  0  0  0  0  0  0  0  0  0  0  0
   19.8196   -4.6158  -16.1395 C   0  0  0  0  0  0  0  0  0  0  0  0
   20.4327   -4.3616  -14.7815 C   0  0  1  0  0  0  0  0  0  0  0  0
   19.4339   -4.5685  -13.8320 O   0  0  0  0  0  0  0  0  0  0  0  0
   21.6259   -5.2603  -14.5256 C   0  0  2  0  0  0  0  0  0  0  0  0
   21.1225   -6.6182  -14.5229 N   0  0  0  0  0  0  0  0  0  0  0  0
   22.3351   -4.9167  -13.2905 C   0  0  0  0  0  0  0  0  0  0  0  0
   22.2348   -5.6104  -12.2492 O   0  0  0  0  0  0  0  0  0  0  0  0
   23.1490   -3.7976  -13.2391 O   0  0  0  0  0  0  0  0  0  0  0  0
  2  1  1  1
  2 10  1  0
  3  2  1  0
  4  5  2  0
  4  3  1  0
  6  5  1  0
  7  6  2  0
  8  7  1  0
  8  9  2  0
  9  4  1  0
 10 11  2  0
 10 12  1  0
 12 13  1  0
 13 14  1  0
 14 15  2  0
 17 16  1  6
 18 17  1  0
 19 17  1  0
 20 14  1  0
 19 20  1  1
 21 23  1  0
 21 19  1  0
 22 21  2  0
M  END
$$$$
