FGT.pdb
     RDKit          3D

 23 23  0  0  1  0  0  0  0  0999 V2000
   17.4236  -13.3132  -16.1095 N   0  0  0  0  0  0  0  0  0  0  0  0
   17.7639  -12.2805  -17.0413 C   0  0  1  0  0  0  0  0  0  0  0  0
   16.4763  -11.9335  -17.8014 C   0  0  0  0  0  0  0  0  0  0  0  0
   16.0027  -13.0947  -18.5764 C   0  0  0  0  0  0  0  0  0  0  0  0
   16.6325  -13.4046  -19.7619 C   0  0  0  0  0  0  0  0  0  0  0  0
   16.1951  -14.4969  -20.5017 C   0  0  0  0  0  0  0  0  0  0  0  0
   15.1350  -15.2775  -20.0630 C   0  0  0  0  0  0  0  0  0  0  0  0
   14.5151  -14.9398  -18.8571 C   0  0  0  0  0  0  0  0  0  0  0  0
   14.9458  -13.8554  -18.1181 C   0  0  0  0  0  0  0  0  0  0  0  0
   18.2001  -11.0283  -16.3858 C   0  0  0  0  0  0  0  0  0  0  0  0
   17.9615  -10.8805  -15.1650 O   0  0  0  0  0  0  0  0  0  0  0  0
   18.8679  -10.0469  -17.1577 N   0  0  0  0  0  0  0  0  0  0  0  0
   19.3845   -8.8132  -16.5422 C   0  0  0  0  0  0  0  0  0  0  0  0
   18.4584   -7.7102  -16.8856 C   0  0  0  0  0  0  0  0  0  0  0  0
   17.4016   -7.9155  -17.5389 O   0  0  0  0  0  0  0  0  0  0  0  0
   15.9696   -6.9866  -16.5552 C   0  0  0  0  0  0  0  0  0  0  0  0
   16.5209   -5.6556  -16.0979 C   0  0  1  0  0  0  0  0  0  0  0  0
   16.6898   -5.7309  -14.7167 O   0  0  0  0  0  0  0  0  0  0  0  0
   17.8256   -5.3187  -16.7914 C   0  0  2  0  0  0  0  0  0  0  0  0
   18.7422   -6.3972  -16.4854 N   0  0  0  0  0  0  0  0  0  0  0  0
   18.3466   -4.0054  -16.4037 C   0  0  0  0  0  0  0  0  0  0  0  0
   17.8365   -2.9366  -16.8199 O   0  0  0  0  0  0  0  0  0  0  0  0
   19.4347   -3.9074  -15.5529 O   0  0  0  0  0  0  0  0  0  0  0  0
  2  1  1  1
  2 10  1  0
  3  2  1  0
  4  5  2  0
  4  3  1  0
  6  5  1  0
  7  6  2  0
  8  7  1  0
  8  9  2  0
  9  4  1  0
 10 11  2  0
 10 12  1  0
 12 13  1  0
 13 14  1  0
 14 15  2  0
 17 16  1  6
 18 17  1  0
 19 17  1  0
 20 14  1  0
 19 20  1  1
 21 23  1  0
 21 19  1  0
 22 21  2  0
M  END
$$$$
