FGT.pdb
     RDKit          3D

 23 23  0  0  1  0  0  0  0  0999 V2000
   23.2170  -11.9978  -18.5393 N   0  0  0  0  0  0  0  0  0  0  0  0
   22.3875  -10.8467  -18.3456 C   0  0  1  0  0  0  0  0  0  0  0  0
   21.1322  -11.3298  -17.6060 C   0  0  0  0  0  0  0  0  0  0  0  0
   20.3197  -12.1989  -18.4765 C   0  0  0  0  0  0  0  0  0  0  0  0
   20.3891  -13.5642  -18.3045 C   0  0  0  0  0  0  0  0  0  0  0  0
   19.6279  -14.3941  -19.1192 C   0  0  0  0  0  0  0  0  0  0  0  0
   18.8011  -13.8670  -20.1010 C   0  0  0  0  0  0  0  0  0  0  0  0
   18.7507  -12.4789  -20.2530 C   0  0  0  0  0  0  0  0  0  0  0  0
   19.5050  -11.6496  -19.4462 C   0  0  0  0  0  0  0  0  0  0  0  0
   23.0067   -9.8255  -17.4728 C   0  0  0  0  0  0  0  0  0  0  0  0
   24.1148  -10.0828  -16.9483 O   0  0  0  0  0  0  0  0  0  0  0  0
   22.3284   -8.6006  -17.2627 N   0  0  0  0  0  0  0  0  0  0  0  0
   22.9199   -7.5318  -16.4407 C   0  0  0  0  0  0  0  0  0  0  0  0
   22.0028   -6.3699  -16.4751 C   0  0  0  0  0  0  0  0  0  0  0  0
   20.8774   -6.4342  -17.0367 O   0  0  0  0  0  0  0  0  0  0  0  0
   19.6527   -5.8436  -15.5129 C   0  0  0  0  0  0  0  0  0  0  0  0
   20.2795   -4.6133  -14.8979 C   0  0  1  0  0  0  0  0  0  0  0  0
   20.7228   -4.9678  -13.6252 O   0  0  0  0  0  0  0  0  0  0  0  0
   21.4169   -4.0783  -15.7445 C   0  0  2  0  0  0  0  0  0  0  0  0
   22.3728   -5.1582  -15.8756 N   0  0  0  0  0  0  0  0  0  0  0  0
   22.0106   -2.8610  -15.1856 C   0  0  0  0  0  0  0  0  0  0  0  0
   23.1240   -2.8679  -14.6060 O   0  0  0  0  0  0  0  0  0  0  0  0
   21.3469   -1.6497  -15.2841 O   0  0  0  0  0  0  0  0  0  0  0  0
  2  1  1  1
  2 10  1  0
  3  2  1  0
  4  5  2  0
  4  3  1  0
  6  5  1  0
  7  6  2  0
  8  7  1  0
  8  9  2  0
  9  4  1  0
 10 11  2  0
 10 12  1  0
 12 13  1  0
 13 14  1  0
 14 15  2  0
 17 16  1  6
 18 17  1  0
 19 17  1  0
 20 14  1  0
 19 20  1  1
 21 23  1  0
 21 19  1  0
 22 21  2  0
M  END
$$$$
