FGT.pdb
     RDKit          3D

 23 23  0  0  1  0  0  0  0  0999 V2000
   28.0142  -21.5235   -8.6692 N   0  0  0  0  0  0  0  0  0  0  0  0
   26.7818  -20.8746   -9.0020 C   0  0  1  0  0  0  0  0  0  0  0  0
   26.8137  -19.4979   -8.3239 C   0  0  0  0  0  0  0  0  0  0  0  0
   27.1898  -19.6276   -6.9044 C   0  0  0  0  0  0  0  0  0  0  0  0
   28.3639  -19.0505   -6.4721 C   0  0  0  0  0  0  0  0  0  0  0  0
   28.7294  -19.1660   -5.1361 C   0  0  0  0  0  0  0  0  0  0  0  0
   27.9295  -19.8532   -4.2343 C   0  0  0  0  0  0  0  0  0  0  0  0
   26.7445  -20.4283   -4.7006 C   0  0  0  0  0  0  0  0  0  0  0  0
   26.3765  -20.3166   -6.0271 C   0  0  0  0  0  0  0  0  0  0  0  0
   26.6370  -20.6119  -10.4504 C   0  0  0  0  0  0  0  0  0  0  0  0
   27.6583  -20.2968  -11.1037 O   0  0  0  0  0  0  0  0  0  0  0  0
   25.3563  -20.7257  -11.0432 N   0  0  0  0  0  0  0  0  0  0  0  0
   25.1942  -20.7812  -12.5056 C   0  0  0  0  0  0  0  0  0  0  0  0
   23.7469  -20.8848  -12.8002 C   0  0  0  0  0  0  0  0  0  0  0  0
   23.3128  -20.8852  -13.9824 O   0  0  0  0  0  0  0  0  0  0  0  0
   21.2607  -23.2205  -10.9084 C   0  0  0  0  0  0  0  0  0  0  0  0
   20.7453  -21.7998  -10.9325 C   0  0  1  0  0  0  0  0  0  0  0  0
   20.9982  -21.2472   -9.6784 O   0  0  0  0  0  0  0  0  0  0  0  0
   21.3958  -20.9837  -12.0315 C   0  0  2  0  0  0  0  0  0  0  0  0
   22.8175  -20.9858  -11.7560 N   0  0  0  0  0  0  0  0  0  0  0  0
   20.8404  -19.6318  -12.1329 C   0  0  0  0  0  0  0  0  0  0  0  0
   21.4142  -18.6359  -11.6283 O   0  0  0  0  0  0  0  0  0  0  0  0
   19.6468  -19.4137  -12.8001 O   0  0  0  0  0  0  0  0  0  0  0  0
  2  1  1  6
  2 10  1  0
  3  2  1  0
  4  5  2  0
  4  3  1  0
  6  5  1  0
  7  6  2  0
  8  7  1  0
  8  9  2  0
  9  4  1  0
 10 11  2  0
 10 12  1  0
 12 13  1  0
 13 14  1  0
 14 15  2  0
 17 16  1  1
 18 17  1  0
 19 17  1  0
 20 14  1  0
 19 20  1  1
 21 23  1  0
 21 19  1  0
 22 21  2  0
M  END
$$$$
