FGT.pdb
     RDKit          3D

 23 23  0  0  1  0  0  0  0  0999 V2000
   18.0466  -18.2450    1.3555 N   0  0  0  0  0  0  0  0  0  0  0  0
   18.2854  -18.7418    2.6772 C   0  0  1  0  0  0  0  0  0  0  0  0
   19.3739  -17.8504    3.2909 C   0  0  0  0  0  0  0  0  0  0  0  0
   20.0296  -17.0402    2.2483 C   0  0  0  0  0  0  0  0  0  0  0  0
   19.5954  -15.7497    2.0379 C   0  0  0  0  0  0  0  0  0  0  0  0
   20.2055  -14.9758    1.0577 C   0  0  0  0  0  0  0  0  0  0  0  0
   21.2435  -15.4847    0.2902 C   0  0  0  0  0  0  0  0  0  0  0  0
   21.6632  -16.7966    0.5255 C   0  0  0  0  0  0  0  0  0  0  0  0
   21.0604  -17.5699    1.4982 C   0  0  0  0  0  0  0  0  0  0  0  0
   17.1089  -18.6178    3.5651 C   0  0  0  0  0  0  0  0  0  0  0  0
   15.9796  -18.4773    3.0415 O   0  0  0  0  0  0  0  0  0  0  0  0
   17.3003  -18.6621    4.9672 N   0  0  0  0  0  0  0  0  0  0  0  0
   16.1561  -18.6967    5.8932 C   0  0  0  0  0  0  0  0  0  0  0  0
   16.6883  -18.7654    7.2731 C   0  0  0  0  0  0  0  0  0  0  0  0
   17.8991  -19.0264    7.5009 O   0  0  0  0  0  0  0  0  0  0  0  0
   15.8087  -17.8384   12.0293 C   0  0  0  0  0  0  0  0  0  0  0  0
   15.2906  -18.0517   10.6254 C   0  0  1  0  0  0  0  0  0  0  0  0
   14.8717  -16.8119   10.1467 O   0  0  0  0  0  0  0  0  0  0  0  0
   16.3456  -18.6591    9.7226 C   0  0  2  0  0  0  0  0  0  0  0  0
   15.8447  -18.5386    8.3691 N   0  0  0  0  0  0  0  0  0  0  0  0
   16.6698  -20.0409   10.0857 C   0  0  0  0  0  0  0  0  0  0  0  0
   17.6222  -20.3224   10.8534 O   0  0  0  0  0  0  0  0  0  0  0  0
   15.9206  -21.0910    9.5824 O   0  0  0  0  0  0  0  0  0  0  0  0
  2  1  1  6
  2 10  1  0
  3  2  1  0
  4  5  2  0
  4  3  1  0
  6  5  1  0
  7  6  2  0
  8  7  1  0
  8  9  2  0
  9  4  1  0
 10 11  2  0
 10 12  1  0
 12 13  1  0
 13 14  1  0
 14 15  2  0
 17 16  1  1
 18 17  1  0
 19 17  1  0
 20 14  1  0
 19 20  1  6
 21 23  1  0
 21 19  1  0
 22 21  2  0
M  END
$$$$
