FGT.pdb
     RDKit          3D

 23 23  0  0  1  0  0  0  0  0999 V2000
   25.1093  -18.6528  -16.0898 N   0  0  0  0  0  0  0  0  0  0  0  0
   24.1407  -18.0880  -16.9805 C   0  0  1  0  0  0  0  0  0  0  0  0
   24.6466  -18.3544  -18.4050 C   0  0  0  0  0  0  0  0  0  0  0  0
   25.8553  -17.5577  -18.6834 C   0  0  0  0  0  0  0  0  0  0  0  0
   27.0770  -18.1938  -18.7212 C   0  0  0  0  0  0  0  0  0  0  0  0
   28.2238  -17.4534  -18.9827 C   0  0  0  0  0  0  0  0  0  0  0  0
   28.1549  -16.0856  -19.2056 C   0  0  0  0  0  0  0  0  0  0  0  0
   26.9027  -15.4670  -19.1613 C   0  0  0  0  0  0  0  0  0  0  0  0
   25.7599  -16.1979  -18.9019 C   0  0  0  0  0  0  0  0  0  0  0  0
   22.8173  -18.7425  -16.8892 C   0  0  0  0  0  0  0  0  0  0  0  0
   21.9468  -18.4474  -17.7401 O   0  0  0  0  0  0  0  0  0  0  0  0
   22.5834  -19.6740  -15.8488 N   0  0  0  0  0  0  0  0  0  0  0  0
   21.2617  -20.2958  -15.6639 C   0  0  0  0  0  0  0  0  0  0  0  0
   21.0708  -20.5389  -14.2160 C   0  0  0  0  0  0  0  0  0  0  0  0
   22.0238  -20.4379  -13.3989 O   0  0  0  0  0  0  0  0  0  0  0  0
   21.5319  -19.5244  -12.0167 C   0  0  0  0  0  0  0  0  0  0  0  0
   20.1196  -19.8652  -11.5997 C   0  0  1  0  0  0  0  0  0  0  0  0
   19.3235  -18.7602  -11.8950 O   0  0  0  0  0  0  0  0  0  0  0  0
   19.6107  -21.1092  -12.2999 C   0  0  2  0  0  0  0  0  0  0  0  0
   19.8090  -20.8910  -13.7177 N   0  0  0  0  0  0  0  0  0  0  0  0
   18.2180  -21.4151  -11.9631 C   0  0  0  0  0  0  0  0  0  0  0  0
   17.2753  -21.1951  -12.7622 O   0  0  0  0  0  0  0  0  0  0  0  0
   17.9000  -21.9647  -10.7326 O   0  0  0  0  0  0  0  0  0  0  0  0
  2  1  1  1
  2 10  1  0
  3  2  1  0
  4  5  2  0
  4  3  1  0
  6  5  1  0
  7  6  2  0
  8  7  1  0
  8  9  2  0
  9  4  1  0
 10 11  2  0
 10 12  1  0
 12 13  1  0
 13 14  1  0
 14 15  2  0
 17 16  1  6
 18 17  1  0
 19 17  1  0
 20 14  1  0
 19 20  1  6
 21 23  1  0
 21 19  1  0
 22 21  2  0
M  END
$$$$
