EWY.pdb
     RDKit          3D

 36 38  0  0  1  0  0  0  0  0999 V2000
    8.9102  -18.9524   19.2706 N   0  0  0  0  0  0  0  0  0  0  0  0
   10.2380  -18.4122   19.4185 C   0  0  1  0  0  0  0  0  0  0  0  0
   10.7166  -18.0046   18.0344 C   0  0  0  0  0  0  0  0  0  0  0  0
   10.5821  -19.1848   17.1223 C   0  0  0  0  0  0  0  0  0  0  0  0
   11.1274  -18.8844   15.7878 C   0  0  0  0  0  0  0  0  0  0  0  0
   11.8596  -17.9018   15.6019 O   0  0  0  0  0  0  0  0  0  0  0  0
   10.1537  -17.1741   20.2399 C   0  0  0  0  0  0  0  0  0  0  0  0
   11.1225  -16.3359   20.2130 O   0  0  0  0  0  0  0  0  0  0  0  0
   10.8219  -19.7144   14.7057 O   0  0  0  0  0  0  0  0  0  0  0  0
    9.0061  -16.9563   21.0295 N   0  0  0  0  0  0  0  0  0  0  0  0
    9.0585  -15.8641   22.0205 C   0  0  1  0  0  0  0  0  0  0  0  0
    7.6510  -15.3550   22.1414 C   0  0  0  0  0  0  0  0  0  0  0  0
    7.6285  -14.1014   22.9154 C   0  0  0  0  0  0  0  0  0  0  0  0
    8.0000  -12.8485   22.4819 C   0  0  0  0  0  0  0  0  0  0  0  0
    7.8342  -12.0075   23.5124 N   0  0  0  0  0  0  0  0  0  0  0  0
    7.3758  -12.6525   24.5859 C   0  0  0  0  0  0  0  0  0  0  0  0
    7.0500  -12.2242   25.8749 C   0  0  0  0  0  0  0  0  0  0  0  0
    6.5901  -13.1683   26.7714 C   0  0  0  0  0  0  0  0  0  0  0  0
    6.4546  -14.4897   26.4147 C   0  0  0  0  0  0  0  0  0  0  0  0
    6.7715  -14.9132   25.1572 C   0  0  0  0  0  0  0  0  0  0  0  0
    7.2406  -13.9656   24.2321 C   0  0  0  0  0  0  0  0  0  0  0  0
    9.6806  -16.4017   23.2073 C   0  0  0  0  0  0  0  0  0  0  0  0
    8.9503  -17.0912   24.0063 O   0  0  0  0  0  0  0  0  0  0  0  0
   10.9080  -15.0403   31.1461 O   0  0  0  0  0  0  0  0  0  0  0  0
   10.7344  -15.1375   29.7801 C   0  0  0  0  0  0  0  0  0  0  0  0
   10.2534  -16.3554   29.2992 C   0  0  0  0  0  0  0  0  0  0  0  0
   10.0711  -16.4783   27.9453 C   0  0  0  0  0  0  0  0  0  0  0  0
   10.3514  -15.4345   27.0716 C   0  0  0  0  0  0  0  0  0  0  0  0
   10.1406  -15.6314   25.6364 C   0  0  0  0  0  0  0  0  0  0  0  0
   11.4305  -15.9748   24.8917 C   0  0  2  0  0  0  0  0  0  0  0  0
   11.0338  -16.2147   23.5298 N   0  0  0  0  0  0  0  0  0  0  0  0
   12.1607  -17.0709   25.5195 C   0  0  0  0  0  0  0  0  0  0  0  0
   11.8006  -18.3929   25.3127 O   0  0  0  0  0  0  0  0  0  0  0  0
   10.8250  -14.2458   27.5806 C   0  0  0  0  0  0  0  0  0  0  0  0
   11.0160  -14.1008   28.9421 C   0  0  0  0  0  0  0  0  0  0  0  0
   13.1480  -16.8851   26.2776 O   0  0  0  0  0  0  0  0  0  0  0  0
  2  1  1  6
  3  2  1  0
  4  3  1  0
  5  9  1  0
  5  4  1  0
  6  5  2  0
  7  8  2  0
  7  2  1  0
 10  7  1  0
 11 10  1  0
 11 12  1  1
 13 12  1  0
 13 14  2  0
 15 14  1  0
 16 15  1  0
 17 16  2  0
 18 17  1  0
 19 18  2  0
 19 20  1  0
 20 21  2  0
 21 16  1  0
 21 13  1  0
 22 11  1  0
 23 22  2  0
 24 25  1  0
 25 35  2  0
 26 25  1  0
 26 27  2  0
 27 28  1  0
 28 34  2  0
 28 29  1  0
 30 29  1  1
 30 31  1  0
 31 22  1  0
 32 30  1  0
 33 32  1  0
 35 34  1  0
 36 32  2  0
M  END
$$$$
