EWY.pdb
     RDKit          3D

 36 38  0  0  1  0  0  0  0  0999 V2000
    7.2834  -17.2370   21.2083 N   0  0  0  0  0  0  0  0  0  0  0  0
    8.6489  -17.4174   21.6321 C   0  0  1  0  0  0  0  0  0  0  0  0
    9.5349  -17.1574   20.4245 C   0  0  0  0  0  0  0  0  0  0  0  0
    9.6343  -18.4237   19.6310 C   0  0  0  0  0  0  0  0  0  0  0  0
   10.5327  -18.2534   18.4768 C   0  0  0  0  0  0  0  0  0  0  0  0
   11.6370  -18.8149   18.4371 O   0  0  0  0  0  0  0  0  0  0  0  0
    8.9681  -16.3769   22.6472 C   0  0  0  0  0  0  0  0  0  0  0  0
    9.2418  -15.1863   22.2608 O   0  0  0  0  0  0  0  0  0  0  0  0
   10.1443  -17.4486   17.4024 O   0  0  0  0  0  0  0  0  0  0  0  0
    8.9618  -16.7310   24.0119 N   0  0  0  0  0  0  0  0  0  0  0  0
    9.4003  -15.7096   24.9826 C   0  0  1  0  0  0  0  0  0  0  0  0
    8.3965  -15.7499   26.0988 C   0  0  0  0  0  0  0  0  0  0  0  0
    7.1919  -14.9871   25.7271 C   0  0  0  0  0  0  0  0  0  0  0  0
    5.9723  -15.4942   25.3384 C   0  0  0  0  0  0  0  0  0  0  0  0
    5.1729  -14.4495   25.0811 N   0  0  0  0  0  0  0  0  0  0  0  0
    5.8131  -13.2972   25.2835 C   0  0  0  0  0  0  0  0  0  0  0  0
    5.4168  -11.9639   25.1558 C   0  0  0  0  0  0  0  0  0  0  0  0
    6.3440  -10.9842   25.4511 C   0  0  0  0  0  0  0  0  0  0  0  0
    7.6186  -11.3027   25.8584 C   0  0  0  0  0  0  0  0  0  0  0  0
    8.0106  -12.6033   25.9846 C   0  0  0  0  0  0  0  0  0  0  0  0
    7.0796  -13.6129   25.6885 C   0  0  0  0  0  0  0  0  0  0  0  0
   10.7762  -16.0011   25.3082 C   0  0  0  0  0  0  0  0  0  0  0  0
   11.0553  -16.2868   26.5279 O   0  0  0  0  0  0  0  0  0  0  0  0
   10.3355  -17.2479   30.3347 O   0  0  0  0  0  0  0  0  0  0  0  0
   11.0961  -17.1575   29.1863 C   0  0  0  0  0  0  0  0  0  0  0  0
   11.5792  -18.3574   28.6640 C   0  0  0  0  0  0  0  0  0  0  0  0
   12.3374  -18.2957   27.5226 C   0  0  0  0  0  0  0  0  0  0  0  0
   12.6219  -17.0874   26.8976 C   0  0  0  0  0  0  0  0  0  0  0  0
   13.4417  -17.0890   25.6848 C   0  0  0  0  0  0  0  0  0  0  0  0
   13.1853  -15.8715   24.7970 C   0  0  2  0  0  0  0  0  0  0  0  0
   11.8177  -15.9926   24.3673 N   0  0  0  0  0  0  0  0  0  0  0  0
   14.1592  -15.7552   23.7169 C   0  0  0  0  0  0  0  0  0  0  0  0
   13.7669  -15.7306   22.3881 O   0  0  0  0  0  0  0  0  0  0  0  0
   12.1289  -15.9218   27.4404 C   0  0  0  0  0  0  0  0  0  0  0  0
   11.3626  -15.9615   28.5905 C   0  0  0  0  0  0  0  0  0  0  0  0
   15.3979  -15.6722   23.9231 O   0  0  0  0  0  0  0  0  0  0  0  0
  2  1  1  6
  3  2  1  0
  4  3  1  0
  5  9  1  0
  5  4  1  0
  6  5  2  0
  7  8  2  0
  7  2  1  0
 10  7  1  0
 11 10  1  0
 11 12  1  1
 13 12  1  0
 13 14  2  0
 15 14  1  0
 16 15  1  0
 17 16  2  0
 18 17  1  0
 19 18  2  0
 19 20  1  0
 20 21  2  0
 21 16  1  0
 21 13  1  0
 22 11  1  0
 23 22  2  0
 24 25  1  0
 25 35  2  0
 26 25  1  0
 26 27  2  0
 27 28  1  0
 28 34  2  0
 28 29  1  0
 30 29  1  6
 30 31  1  0
 31 22  1  0
 32 30  1  0
 33 32  1  0
 35 34  1  0
 36 32  2  0
M  END
$$$$
