EWY.pdb
     RDKit          3D

 36 38  0  0  1  0  0  0  0  0999 V2000
    9.0720  -16.5347   18.0660 N   0  0  0  0  0  0  0  0  0  0  0  0
    9.9681  -17.1359   19.0211 C   0  0  1  0  0  0  0  0  0  0  0  0
   11.3747  -17.0189   18.4568 C   0  0  0  0  0  0  0  0  0  0  0  0
   11.6473  -18.2274   17.6152 C   0  0  0  0  0  0  0  0  0  0  0  0
   13.0078  -18.7388   17.8521 C   0  0  0  0  0  0  0  0  0  0  0  0
   13.3006  -19.9174   17.6043 O   0  0  0  0  0  0  0  0  0  0  0  0
    9.9263  -16.3349   20.2748 C   0  0  0  0  0  0  0  0  0  0  0  0
   10.0420  -15.0605   20.2094 O   0  0  0  0  0  0  0  0  0  0  0  0
   13.9934  -17.8903   18.3638 O   0  0  0  0  0  0  0  0  0  0  0  0
    9.7610  -17.0027   21.5055 N   0  0  0  0  0  0  0  0  0  0  0  0
    9.6409  -16.1728   22.7198 C   0  0  1  0  0  0  0  0  0  0  0  0
    8.2761  -16.4597   23.2767 C   0  0  0  0  0  0  0  0  0  0  0  0
    7.4806  -15.2208   23.3362 C   0  0  0  0  0  0  0  0  0  0  0  0
    6.6812  -14.6963   22.3456 C   0  0  0  0  0  0  0  0  0  0  0  0
    6.1595  -13.5563   22.8197 N   0  0  0  0  0  0  0  0  0  0  0  0
    6.5806  -13.3193   24.0627 C   0  0  0  0  0  0  0  0  0  0  0  0
    6.3226  -12.2836   24.9637 C   0  0  0  0  0  0  0  0  0  0  0  0
    6.9308  -12.3395   26.2022 C   0  0  0  0  0  0  0  0  0  0  0  0
    7.7650  -13.3779   26.5450 C   0  0  0  0  0  0  0  0  0  0  0  0
    8.0204  -14.3917   25.6687 C   0  0  0  0  0  0  0  0  0  0  0  0
    7.4095  -14.3509   24.4043 C   0  0  0  0  0  0  0  0  0  0  0  0
   10.7811  -16.4762   23.5518 C   0  0  0  0  0  0  0  0  0  0  0  0
   11.0997  -17.7100   23.7044 O   0  0  0  0  0  0  0  0  0  0  0  0
   10.1620  -16.8984   31.3816 O   0  0  0  0  0  0  0  0  0  0  0  0
   10.4694  -16.3127   30.1700 C   0  0  0  0  0  0  0  0  0  0  0  0
   11.1957  -17.0915   29.2690 C   0  0  0  0  0  0  0  0  0  0  0  0
   11.5136  -16.5335   28.0570 C   0  0  0  0  0  0  0  0  0  0  0  0
   11.1320  -15.2391   27.7247 C   0  0  0  0  0  0  0  0  0  0  0  0
   11.5077  -14.6999   26.4166 C   0  0  0  0  0  0  0  0  0  0  0  0
   12.1174  -15.7562   25.4954 C   0  0  2  0  0  0  0  0  0  0  0  0
   11.5571  -15.4996   24.1954 N   0  0  0  0  0  0  0  0  0  0  0  0
   11.9150  -17.1126   25.9932 C   0  0  0  0  0  0  0  0  0  0  0  0
   10.6808  -17.7372   25.9110 O   0  0  0  0  0  0  0  0  0  0  0  0
   10.4157  -14.4983   28.6381 C   0  0  0  0  0  0  0  0  0  0  0  0
   10.0848  -15.0415   29.8657 C   0  0  0  0  0  0  0  0  0  0  0  0
   12.8360  -17.7885   26.5213 O   0  0  0  0  0  0  0  0  0  0  0  0
  2  1  1  6
  3  2  1  0
  4  3  1  0
  5  9  1  0
  5  4  1  0
  6  5  2  0
  7  8  2  0
  7  2  1  0
 10  7  1  0
 11 10  1  0
 11 12  1  1
 13 12  1  0
 13 14  2  0
 15 14  1  0
 16 15  1  0
 17 16  2  0
 18 17  1  0
 19 18  2  0
 19 20  1  0
 20 21  2  0
 21 16  1  0
 21 13  1  0
 22 11  1  0
 23 22  2  0
 24 25  1  0
 25 35  2  0
 26 25  1  0
 26 27  2  0
 27 28  1  0
 28 34  2  0
 28 29  1  0
 30 29  1  1
 30 31  1  0
 31 22  1  0
 32 30  1  0
 33 32  1  0
 35 34  1  0
 36 32  2  0
M  END
$$$$
