EWY.pdb
     RDKit          3D

 36 38  0  0  1  0  0  0  0  0999 V2000
    8.7977  -16.3195   18.7409 N   0  0  0  0  0  0  0  0  0  0  0  0
    9.6778  -17.0803   19.5913 C   0  0  1  0  0  0  0  0  0  0  0  0
   11.0594  -17.0455   18.9581 C   0  0  0  0  0  0  0  0  0  0  0  0
   11.2274  -18.2784   18.1246 C   0  0  0  0  0  0  0  0  0  0  0  0
   12.5681  -18.3254   17.5173 C   0  0  0  0  0  0  0  0  0  0  0  0
   12.7777  -17.8511   16.3915 O   0  0  0  0  0  0  0  0  0  0  0  0
    9.7760  -16.3891   20.9057 C   0  0  0  0  0  0  0  0  0  0  0  0
   10.1430  -15.1621   20.9436 O   0  0  0  0  0  0  0  0  0  0  0  0
   13.6294  -18.9113   18.2125 O   0  0  0  0  0  0  0  0  0  0  0  0
    9.4624  -17.1063   22.0784 N   0  0  0  0  0  0  0  0  0  0  0  0
    9.5005  -16.3708   23.3572 C   0  0  1  0  0  0  0  0  0  0  0  0
    8.2867  -16.8167   24.1207 C   0  0  0  0  0  0  0  0  0  0  0  0
    7.3712  -15.6810   24.3284 C   0  0  0  0  0  0  0  0  0  0  0  0
    6.1675  -15.4561   23.6991 C   0  0  0  0  0  0  0  0  0  0  0  0
    5.6794  -14.3033   24.1783 N   0  0  0  0  0  0  0  0  0  0  0  0
    6.5049  -13.7745   25.0824 C   0  0  0  0  0  0  0  0  0  0  0  0
    6.4410  -12.6087   25.8490 C   0  0  0  0  0  0  0  0  0  0  0  0
    7.4858  -12.3465   26.7129 C   0  0  0  0  0  0  0  0  0  0  0  0
    8.5584  -13.2007   26.8209 C   0  0  0  0  0  0  0  0  0  0  0  0
    8.6258  -14.3405   26.0743 C   0  0  0  0  0  0  0  0  0  0  0  0
    7.5710  -14.6229   25.1904 C   0  0  0  0  0  0  0  0  0  0  0  0
   10.7934  -16.6214   23.9488 C   0  0  0  0  0  0  0  0  0  0  0  0
   11.4564  -17.6377   23.5308 O   0  0  0  0  0  0  0  0  0  0  0  0
    9.5819  -16.0889   31.1048 O   0  0  0  0  0  0  0  0  0  0  0  0
   10.3554  -15.8217   29.9932 C   0  0  0  0  0  0  0  0  0  0  0  0
   11.4940  -16.6097   29.8235 C   0  0  0  0  0  0  0  0  0  0  0  0
   12.2799  -16.3654   28.7263 C   0  0  0  0  0  0  0  0  0  0  0  0
   11.9651  -15.3713   27.8075 C   0  0  0  0  0  0  0  0  0  0  0  0
   12.8484  -15.1570   26.6600 C   0  0  0  0  0  0  0  0  0  0  0  0
   12.6218  -16.1745   25.5422 C   0  0  2  0  0  0  0  0  0  0  0  0
   11.3619  -15.8157   24.9477 N   0  0  0  0  0  0  0  0  0  0  0  0
   12.7052  -17.5514   26.0176 C   0  0  0  0  0  0  0  0  0  0  0  0
   13.9240  -18.1467   26.3010 O   0  0  0  0  0  0  0  0  0  0  0  0
   10.8335  -14.6120   28.0058 C   0  0  0  0  0  0  0  0  0  0  0  0
   10.0275  -14.8417   29.1053 C   0  0  0  0  0  0  0  0  0  0  0  0
   11.6895  -18.2728   26.1958 O   0  0  0  0  0  0  0  0  0  0  0  0
  2  1  1  6
  3  2  1  0
  4  3  1  0
  5  9  1  0
  5  4  1  0
  6  5  2  0
  7  8  2  0
  7  2  1  0
 10  7  1  0
 11 10  1  0
 11 12  1  1
 13 12  1  0
 13 14  2  0
 15 14  1  0
 16 15  1  0
 17 16  2  0
 18 17  1  0
 19 18  2  0
 19 20  1  0
 20 21  2  0
 21 16  1  0
 21 13  1  0
 22 11  1  0
 23 22  2  0
 24 25  1  0
 25 35  2  0
 26 25  1  0
 26 27  2  0
 27 28  1  0
 28 34  2  0
 28 29  1  0
 30 29  1  1
 30 31  1  0
 31 22  1  0
 32 30  1  0
 33 32  1  0
 35 34  1  0
 36 32  2  0
M  END
$$$$
