EWY.pdb
     RDKit          3D

 36 38  0  0  1  0  0  0  0  0999 V2000
    8.1784  -15.8058   17.5739 N   0  0  0  0  0  0  0  0  0  0  0  0
    9.0090  -16.4986   18.5261 C   0  0  1  0  0  0  0  0  0  0  0  0
   10.4434  -16.3960   18.0332 C   0  0  0  0  0  0  0  0  0  0  0  0
   10.5155  -16.9966   16.6631 C   0  0  0  0  0  0  0  0  0  0  0  0
   11.8908  -16.9498   16.1388 C   0  0  0  0  0  0  0  0  0  0  0  0
   12.8354  -16.5819   16.8519 O   0  0  0  0  0  0  0  0  0  0  0  0
    8.9355  -15.7787   19.8266 C   0  0  0  0  0  0  0  0  0  0  0  0
    9.2278  -14.5320   19.8711 O   0  0  0  0  0  0  0  0  0  0  0  0
   12.1473  -17.3247   14.8171 O   0  0  0  0  0  0  0  0  0  0  0  0
    8.5458  -16.4910   20.9792 N   0  0  0  0  0  0  0  0  0  0  0  0
    8.3993  -15.7283   22.2340 C   0  0  1  0  0  0  0  0  0  0  0  0
    6.9899  -15.9665   22.6942 C   0  0  0  0  0  0  0  0  0  0  0  0
    6.7817  -15.3691   24.0249 C   0  0  0  0  0  0  0  0  0  0  0  0
    6.4890  -16.0289   25.1973 C   0  0  0  0  0  0  0  0  0  0  0  0
    6.3697  -15.0995   26.1558 N   0  0  0  0  0  0  0  0  0  0  0  0
    6.5700  -13.8768   25.6626 C   0  0  0  0  0  0  0  0  0  0  0  0
    6.5551  -12.6096   26.2500 C   0  0  0  0  0  0  0  0  0  0  0  0
    6.8099  -11.5203   25.4405 C   0  0  0  0  0  0  0  0  0  0  0  0
    7.0707  -11.6697   24.0984 C   0  0  0  0  0  0  0  0  0  0  0  0
    7.0862  -12.9051   23.5198 C   0  0  0  0  0  0  0  0  0  0  0  0
    6.8294  -14.0245   24.3289 C   0  0  0  0  0  0  0  0  0  0  0  0
    9.4692  -16.1467   23.1085 C   0  0  0  0  0  0  0  0  0  0  0  0
    9.9353  -17.3331   22.9593 O   0  0  0  0  0  0  0  0  0  0  0  0
    9.6049  -16.8329   31.0660 O   0  0  0  0  0  0  0  0  0  0  0  0
    9.9633  -16.2905   29.8483 C   0  0  0  0  0  0  0  0  0  0  0  0
   10.8384  -17.0435   29.0653 C   0  0  0  0  0  0  0  0  0  0  0  0
   11.2100  -16.5276   27.8499 C   0  0  0  0  0  0  0  0  0  0  0  0
   10.7390  -15.2993   27.4015 C   0  0  0  0  0  0  0  0  0  0  0  0
   11.1782  -14.8017   26.0967 C   0  0  0  0  0  0  0  0  0  0  0  0
   11.0363  -15.8450   24.9886 C   0  0  2  0  0  0  0  0  0  0  0  0
   10.0257  -15.3289   24.1044 N   0  0  0  0  0  0  0  0  0  0  0  0
   10.7689  -17.1803   25.5122 C   0  0  0  0  0  0  0  0  0  0  0  0
   11.7964  -18.0224   25.9061 O   0  0  0  0  0  0  0  0  0  0  0  0
    9.8762  -14.5823   28.2003 C   0  0  0  0  0  0  0  0  0  0  0  0
    9.4891  -15.0840   29.4290 C   0  0  0  0  0  0  0  0  0  0  0  0
    9.6049  -17.6428   25.6353 O   0  0  0  0  0  0  0  0  0  0  0  0
  2  1  1  6
  3  2  1  0
  4  3  1  0
  5  9  1  0
  5  4  1  0
  6  5  2  0
  7  8  2  0
  7  2  1  0
 10  7  1  0
 11 10  1  0
 11 12  1  1
 13 12  1  0
 13 14  2  0
 15 14  1  0
 16 15  1  0
 17 16  2  0
 18 17  1  0
 19 18  2  0
 19 20  1  0
 20 21  2  0
 21 16  1  0
 21 13  1  0
 22 11  1  0
 23 22  2  0
 24 25  1  0
 25 35  2  0
 26 25  1  0
 26 27  2  0
 27 28  1  0
 28 34  2  0
 28 29  1  0
 30 29  1  1
 30 31  1  0
 31 22  1  0
 32 30  1  0
 33 32  1  0
 35 34  1  0
 36 32  2  0
M  END
$$$$
