EWY.pdb
     RDKit          3D

 36 38  0  0  1  0  0  0  0  0999 V2000
    9.5848  -19.2964   20.3561 N   0  0  0  0  0  0  0  0  0  0  0  0
   10.6761  -18.4224   20.0070 C   0  0  1  0  0  0  0  0  0  0  0  0
   10.6250  -18.2148   18.5019 C   0  0  0  0  0  0  0  0  0  0  0  0
   11.1803  -19.4371   17.8381 C   0  0  0  0  0  0  0  0  0  0  0  0
   10.5874  -19.6277   16.5037 C   0  0  0  0  0  0  0  0  0  0  0  0
    9.7580  -20.5245   16.2941 O   0  0  0  0  0  0  0  0  0  0  0  0
   10.4411  -17.0982   20.6444 C   0  0  0  0  0  0  0  0  0  0  0  0
   11.2174  -16.1189   20.3613 O   0  0  0  0  0  0  0  0  0  0  0  0
   10.9578  -18.7891   15.4489 O   0  0  0  0  0  0  0  0  0  0  0  0
    9.3672  -16.9567   21.5469 N   0  0  0  0  0  0  0  0  0  0  0  0
    9.1911  -15.6429   22.1953 C   0  0  1  0  0  0  0  0  0  0  0  0
    7.7150  -15.4982   22.4301 C   0  0  0  0  0  0  0  0  0  0  0  0
    7.4268  -14.2037   23.0721 C   0  0  0  0  0  0  0  0  0  0  0  0
    7.4056  -12.9639   22.4736 C   0  0  0  0  0  0  0  0  0  0  0  0
    7.1146  -12.0685   23.4277 N   0  0  0  0  0  0  0  0  0  0  0  0
    6.9474  -12.6661   24.6082 C   0  0  0  0  0  0  0  0  0  0  0  0
    6.6379  -12.1738   25.8782 C   0  0  0  0  0  0  0  0  0  0  0  0
    6.5335  -13.0810   26.9139 C   0  0  0  0  0  0  0  0  0  0  0  0
    6.7268  -14.4274   26.7099 C   0  0  0  0  0  0  0  0  0  0  0  0
    7.0294  -14.9133   25.4716 C   0  0  0  0  0  0  0  0  0  0  0  0
    7.1390  -14.0041   24.4063 C   0  0  0  0  0  0  0  0  0  0  0  0
   10.0580  -15.6234   23.3497 C   0  0  0  0  0  0  0  0  0  0  0  0
   10.2650  -14.4945   23.9241 O   0  0  0  0  0  0  0  0  0  0  0  0
   10.1017  -13.9511   30.4893 O   0  0  0  0  0  0  0  0  0  0  0  0
   10.2852  -14.8376   29.4472 C   0  0  0  0  0  0  0  0  0  0  0  0
   10.7206  -14.2949   28.2381 C   0  0  0  0  0  0  0  0  0  0  0  0
   10.9116  -15.1544   27.1864 C   0  0  0  0  0  0  0  0  0  0  0  0
   10.6837  -16.5201   27.3068 C   0  0  0  0  0  0  0  0  0  0  0  0
   10.9011  -17.3832   26.1446 C   0  0  0  0  0  0  0  0  0  0  0  0
   11.5855  -16.6551   24.9880 C   0  0  2  0  0  0  0  0  0  0  0  0
   10.6795  -16.7665   23.8761 N   0  0  0  0  0  0  0  0  0  0  0  0
   12.9321  -17.1559   24.7339 C   0  0  0  0  0  0  0  0  0  0  0  0
   13.2623  -17.7691   23.5360 O   0  0  0  0  0  0  0  0  0  0  0  0
   10.2544  -17.0220   28.5151 C   0  0  0  0  0  0  0  0  0  0  0  0
   10.0554  -16.1732   29.5880 C   0  0  0  0  0  0  0  0  0  0  0  0
   13.8629  -17.0637   25.5760 O   0  0  0  0  0  0  0  0  0  0  0  0
  2  1  1  1
  3  2  1  0
  4  3  1  0
  5  9  1  0
  5  4  1  0
  6  5  2  0
  7  8  2  0
  7  2  1  0
 10  7  1  0
 11 10  1  0
 11 12  1  1
 13 12  1  0
 13 14  2  0
 15 14  1  0
 16 15  1  0
 17 16  2  0
 18 17  1  0
 19 18  2  0
 19 20  1  0
 20 21  2  0
 21 16  1  0
 21 13  1  0
 22 11  1  0
 23 22  2  0
 24 25  1  0
 25 35  2  0
 26 25  1  0
 26 27  2  0
 27 28  1  0
 28 34  2  0
 28 29  1  0
 30 29  1  1
 30 31  1  0
 31 22  1  0
 32 30  1  0
 33 32  1  0
 35 34  1  0
 36 32  2  0
M  END
$$$$
