EWY.pdb
     RDKit          3D

 36 38  0  0  1  0  0  0  0  0999 V2000
   10.3348  -19.2163   20.6708 N   0  0  0  0  0  0  0  0  0  0  0  0
   11.3951  -18.3507   21.1215 C   0  0  1  0  0  0  0  0  0  0  0  0
   11.8482  -17.5303   19.9247 C   0  0  0  0  0  0  0  0  0  0  0  0
   10.7448  -17.5240   18.9121 C   0  0  0  0  0  0  0  0  0  0  0  0
   11.1540  -16.8100   17.6910 C   0  0  0  0  0  0  0  0  0  0  0  0
   10.3305  -16.5266   16.8090 O   0  0  0  0  0  0  0  0  0  0  0  0
   10.8349  -17.4018   22.1219 C   0  0  0  0  0  0  0  0  0  0  0  0
   11.5920  -16.4963   22.6206 O   0  0  0  0  0  0  0  0  0  0  0  0
   12.4898  -16.4402   17.5129 O   0  0  0  0  0  0  0  0  0  0  0  0
    9.4813  -17.5259   22.4963 N   0  0  0  0  0  0  0  0  0  0  0  0
    9.0216  -16.7423   23.6591 C   0  0  1  0  0  0  0  0  0  0  0  0
    7.5513  -16.5221   23.4475 C   0  0  0  0  0  0  0  0  0  0  0  0
    7.3344  -15.5248   22.3847 C   0  0  0  0  0  0  0  0  0  0  0  0
    7.0364  -15.7683   21.0628 C   0  0  0  0  0  0  0  0  0  0  0  0
    6.9391  -14.5785   20.4531 N   0  0  0  0  0  0  0  0  0  0  0  0
    7.1586  -13.5825   21.3124 C   0  0  0  0  0  0  0  0  0  0  0  0
    7.1673  -12.1937   21.1630 C   0  0  0  0  0  0  0  0  0  0  0  0
    7.4353  -11.4265   22.2793 C   0  0  0  0  0  0  0  0  0  0  0  0
    7.6867  -12.0034   23.5023 C   0  0  0  0  0  0  0  0  0  0  0  0
    7.6796  -13.3592   23.6535 C   0  0  0  0  0  0  0  0  0  0  0  0
    7.4083  -14.1549   22.5280 C   0  0  0  0  0  0  0  0  0  0  0  0
    9.4273  -17.4652   24.8412 C   0  0  0  0  0  0  0  0  0  0  0  0
   10.5535  -17.1575   25.3742 O   0  0  0  0  0  0  0  0  0  0  0  0
   10.9986  -13.1307   29.0034 O   0  0  0  0  0  0  0  0  0  0  0  0
   10.1547  -14.1156   28.5309 C   0  0  0  0  0  0  0  0  0  0  0  0
   10.3542  -15.4006   29.0357 C   0  0  0  0  0  0  0  0  0  0  0  0
    9.5284  -16.3979   28.5831 C   0  0  0  0  0  0  0  0  0  0  0  0
    8.5240  -16.1513   27.6547 C   0  0  0  0  0  0  0  0  0  0  0  0
    7.6799  -17.2606   27.2077 C   0  0  0  0  0  0  0  0  0  0  0  0
    8.4846  -18.5139   26.8643 C   0  0  2  0  0  0  0  0  0  0  0  0
    8.6589  -18.4775   25.4367 N   0  0  0  0  0  0  0  0  0  0  0  0
    7.8636  -19.7314   27.3751 C   0  0  0  0  0  0  0  0  0  0  0  0
    7.3313  -20.6851   26.5224 O   0  0  0  0  0  0  0  0  0  0  0  0
    8.3550  -14.8707   27.1772 C   0  0  0  0  0  0  0  0  0  0  0  0
    9.1766  -13.8508   27.6201 C   0  0  0  0  0  0  0  0  0  0  0  0
    7.7739  -19.9857   28.6045 O   0  0  0  0  0  0  0  0  0  0  0  0
  2  1  1  6
  3  2  1  0
  4  3  1  0
  5  9  1  0
  5  4  1  0
  6  5  2  0
  7  8  2  0
  7  2  1  0
 10  7  1  0
 11 10  1  0
 11 12  1  6
 13 12  1  0
 13 14  2  0
 15 14  1  0
 16 15  1  0
 17 16  2  0
 18 17  1  0
 19 18  2  0
 19 20  1  0
 20 21  2  0
 21 16  1  0
 21 13  1  0
 22 11  1  0
 23 22  2  0
 24 25  1  0
 25 35  2  0
 26 25  1  0
 26 27  2  0
 27 28  1  0
 28 34  2  0
 28 29  1  0
 30 29  1  6
 30 31  1  0
 31 22  1  0
 32 30  1  0
 33 32  1  0
 35 34  1  0
 36 32  2  0
M  END
$$$$
