EWY.pdb
     RDKit          3D

 36 38  0  0  1  0  0  0  0  0999 V2000
    9.3895  -18.3153   20.0376 N   0  0  0  0  0  0  0  0  0  0  0  0
   10.3127  -18.3955   21.1412 C   0  0  1  0  0  0  0  0  0  0  0  0
   11.7144  -18.2607   20.5685 C   0  0  0  0  0  0  0  0  0  0  0  0
   12.0544  -19.5299   19.8500 C   0  0  0  0  0  0  0  0  0  0  0  0
   13.4361  -19.4941   19.3419 C   0  0  0  0  0  0  0  0  0  0  0  0
   13.7061  -19.8766   18.1942 O   0  0  0  0  0  0  0  0  0  0  0  0
   10.0844  -17.2254   22.0320 C   0  0  0  0  0  0  0  0  0  0  0  0
   10.7545  -16.1502   21.8401 O   0  0  0  0  0  0  0  0  0  0  0  0
   14.4681  -19.0225   20.1578 O   0  0  0  0  0  0  0  0  0  0  0  0
    9.1338  -17.3320   23.0678 N   0  0  0  0  0  0  0  0  0  0  0  0
    9.0012  -16.1884   23.9910 C   0  0  1  0  0  0  0  0  0  0  0  0
    7.5479  -15.8113   23.9675 C   0  0  0  0  0  0  0  0  0  0  0  0
    7.4036  -14.3513   23.8317 C   0  0  0  0  0  0  0  0  0  0  0  0
    7.5238  -13.6063   22.6801 C   0  0  0  0  0  0  0  0  0  0  0  0
    7.3309  -12.3232   23.0165 N   0  0  0  0  0  0  0  0  0  0  0  0
    7.0929  -12.2029   24.3231 C   0  0  0  0  0  0  0  0  0  0  0  0
    6.8351  -11.0967   25.1361 C   0  0  0  0  0  0  0  0  0  0  0  0
    6.6255  -11.3205   26.4825 C   0  0  0  0  0  0  0  0  0  0  0  0
    6.6677  -12.5885   27.0136 C   0  0  0  0  0  0  0  0  0  0  0  0
    6.9193  -13.6721   26.2240 C   0  0  0  0  0  0  0  0  0  0  0  0
    7.1345  -13.4625   24.8516 C   0  0  0  0  0  0  0  0  0  0  0  0
    9.5662  -16.5994   25.2545 C   0  0  0  0  0  0  0  0  0  0  0  0
    8.7693  -16.7334   26.2515 O   0  0  0  0  0  0  0  0  0  0  0  0
   12.0462  -20.8397   31.9703 O   0  0  0  0  0  0  0  0  0  0  0  0
   11.6630  -20.1868   30.8160 C   0  0  0  0  0  0  0  0  0  0  0  0
   11.3491  -20.9919   29.7209 C   0  0  0  0  0  0  0  0  0  0  0  0
   10.9645  -20.3682   28.5614 C   0  0  0  0  0  0  0  0  0  0  0  0
   10.8857  -18.9839   28.4666 C   0  0  0  0  0  0  0  0  0  0  0  0
   10.4737  -18.3796   27.1985 C   0  0  0  0  0  0  0  0  0  0  0  0
   11.4177  -17.2683   26.7398 C   0  0  2  0  0  0  0  0  0  0  0  0
   10.9313  -16.8620   25.4483 N   0  0  0  0  0  0  0  0  0  0  0  0
   12.8170  -17.6805   26.7659 C   0  0  0  0  0  0  0  0  0  0  0  0
   13.6934  -17.2064   27.7289 O   0  0  0  0  0  0  0  0  0  0  0  0
   11.2028  -18.2195   29.5673 C   0  0  0  0  0  0  0  0  0  0  0  0
   11.5929  -18.8279   30.7458 C   0  0  0  0  0  0  0  0  0  0  0  0
   13.3070  -18.4800   25.9265 O   0  0  0  0  0  0  0  0  0  0  0  0
  2  1  1  6
  3  2  1  0
  4  3  1  0
  5  9  1  0
  5  4  1  0
  6  5  2  0
  7  8  2  0
  7  2  1  0
 10  7  1  0
 11 10  1  0
 11 12  1  1
 13 12  1  0
 13 14  2  0
 15 14  1  0
 16 15  1  0
 17 16  2  0
 18 17  1  0
 19 18  2  0
 19 20  1  0
 20 21  2  0
 21 16  1  0
 21 13  1  0
 22 11  1  0
 23 22  2  0
 24 25  1  0
 25 35  2  0
 26 25  1  0
 26 27  2  0
 27 28  1  0
 28 34  2  0
 28 29  1  0
 30 29  1  6
 30 31  1  0
 31 22  1  0
 32 30  1  0
 33 32  1  0
 35 34  1  0
 36 32  2  0
M  END
$$$$
