EWY.pdb
     RDKit          3D

 36 38  0  0  1  0  0  0  0  0999 V2000
    9.0931  -16.7687   17.7739 N   0  0  0  0  0  0  0  0  0  0  0  0
    9.8356  -17.4491   18.8046 C   0  0  1  0  0  0  0  0  0  0  0  0
   11.3041  -17.3928   18.4156 C   0  0  0  0  0  0  0  0  0  0  0  0
   11.5905  -18.5339   17.4888 C   0  0  0  0  0  0  0  0  0  0  0  0
   12.9891  -18.5013   17.0292 C   0  0  0  0  0  0  0  0  0  0  0  0
   13.8636  -19.1758   17.5919 O   0  0  0  0  0  0  0  0  0  0  0  0
    9.6848  -16.6874   20.0743 C   0  0  0  0  0  0  0  0  0  0  0  0
   10.2936  -15.5682   20.2108 O   0  0  0  0  0  0  0  0  0  0  0  0
   13.3480  -17.7011   15.9411 O   0  0  0  0  0  0  0  0  0  0  0  0
    8.8738  -17.2204   21.0971 N   0  0  0  0  0  0  0  0  0  0  0  0
    8.6597  -16.3906   22.2985 C   0  0  1  0  0  0  0  0  0  0  0  0
    7.3374  -16.8238   22.8631 C   0  0  0  0  0  0  0  0  0  0  0  0
    6.9878  -15.9965   24.0312 C   0  0  0  0  0  0  0  0  0  0  0  0
    6.5911  -16.4362   25.2742 C   0  0  0  0  0  0  0  0  0  0  0  0
    6.3614  -15.3492   26.0241 N   0  0  0  0  0  0  0  0  0  0  0  0
    6.5891  -14.2335   25.3299 C   0  0  0  0  0  0  0  0  0  0  0  0
    6.4945  -12.8804   25.6632 C   0  0  0  0  0  0  0  0  0  0  0  0
    6.8101  -11.9527   24.6903 C   0  0  0  0  0  0  0  0  0  0  0  0
    7.2056  -12.3405   23.4314 C   0  0  0  0  0  0  0  0  0  0  0  0
    7.2994  -13.6607   23.1007 C   0  0  0  0  0  0  0  0  0  0  0  0
    6.9824  -14.6180   24.0788 C   0  0  0  0  0  0  0  0  0  0  0  0
    9.8278  -16.5474   23.1323 C   0  0  0  0  0  0  0  0  0  0  0  0
   10.2621  -17.7375   23.3369 O   0  0  0  0  0  0  0  0  0  0  0  0
    9.9331  -16.5189   31.1862 O   0  0  0  0  0  0  0  0  0  0  0  0
   10.1085  -16.0911   29.8856 C   0  0  0  0  0  0  0  0  0  0  0  0
    9.2276  -15.1106   29.4290 C   0  0  0  0  0  0  0  0  0  0  0  0
    9.3807  -14.6672   28.1400 C   0  0  0  0  0  0  0  0  0  0  0  0
   10.3740  -15.1681   27.3071 C   0  0  0  0  0  0  0  0  0  0  0  0
   10.4810  -14.6569   25.9395 C   0  0  0  0  0  0  0  0  0  0  0  0
   11.1683  -15.6410   24.9933 C   0  0  2  0  0  0  0  0  0  0  0  0
   10.5115  -15.4740   23.7243 N   0  0  0  0  0  0  0  0  0  0  0  0
   11.1647  -17.0054   25.5104 C   0  0  0  0  0  0  0  0  0  0  0  0
   10.0586  -17.8286   25.3728 O   0  0  0  0  0  0  0  0  0  0  0  0
   11.2265  -16.1356   27.7904 C   0  0  0  0  0  0  0  0  0  0  0  0
   11.0896  -16.5966   29.0866 C   0  0  0  0  0  0  0  0  0  0  0  0
   12.1518  -17.5105   26.1057 O   0  0  0  0  0  0  0  0  0  0  0  0
  2  1  1  6
  3  2  1  0
  4  3  1  0
  5  9  1  0
  5  4  1  0
  6  5  2  0
  7  8  2  0
  7  2  1  0
 10  7  1  0
 11 10  1  0
 11 12  1  1
 13 12  1  0
 13 14  2  0
 15 14  1  0
 16 15  1  0
 17 16  2  0
 18 17  1  0
 19 18  2  0
 19 20  1  0
 20 21  2  0
 21 16  1  0
 21 13  1  0
 22 11  1  0
 23 22  2  0
 24 25  1  0
 25 35  2  0
 26 25  1  0
 26 27  2  0
 27 28  1  0
 28 34  2  0
 28 29  1  0
 30 29  1  1
 30 31  1  0
 31 22  1  0
 32 30  1  0
 33 32  1  0
 35 34  1  0
 36 32  2  0
M  END
$$$$
