EWY.pdb
     RDKit          3D

 36 38  0  0  1  0  0  0  0  0999 V2000
   10.0594  -17.5407   17.9068 N   0  0  0  0  0  0  0  0  0  0  0  0
   10.0494  -18.2194   19.1780 C   0  0  1  0  0  0  0  0  0  0  0  0
   11.3579  -18.9847   19.2918 C   0  0  0  0  0  0  0  0  0  0  0  0
   11.4498  -19.9360   18.1387 C   0  0  0  0  0  0  0  0  0  0  0  0
   12.7030  -20.7075   18.1904 C   0  0  0  0  0  0  0  0  0  0  0  0
   13.5333  -20.5200   19.0914 O   0  0  0  0  0  0  0  0  0  0  0  0
   10.0403  -17.1956   20.2582 C   0  0  0  0  0  0  0  0  0  0  0  0
   11.1203  -16.5628   20.5322 O   0  0  0  0  0  0  0  0  0  0  0  0
   12.9711  -21.6701   17.2134 O   0  0  0  0  0  0  0  0  0  0  0  0
    8.8392  -16.9493   20.9542 N   0  0  0  0  0  0  0  0  0  0  0  0
    8.8332  -15.8445   21.9325 C   0  0  1  0  0  0  0  0  0  0  0  0
    7.4524  -15.2568   21.8759 C   0  0  0  0  0  0  0  0  0  0  0  0
    7.3936  -14.0192   22.6733 C   0  0  0  0  0  0  0  0  0  0  0  0
    7.8427  -12.7704   22.3068 C   0  0  0  0  0  0  0  0  0  0  0  0
    7.6040  -11.9458   23.3362 N   0  0  0  0  0  0  0  0  0  0  0  0
    7.0253  -12.5974   24.3456 C   0  0  0  0  0  0  0  0  0  0  0  0
    6.5901  -12.1853   25.6073 C   0  0  0  0  0  0  0  0  0  0  0  0
    6.0178  -13.1321   26.4334 C   0  0  0  0  0  0  0  0  0  0  0  0
    5.8772  -14.4409   26.0344 C   0  0  0  0  0  0  0  0  0  0  0  0
    6.3008  -14.8486   24.8034 C   0  0  0  0  0  0  0  0  0  0  0  0
    6.8851  -13.8980   23.9498 C   0  0  0  0  0  0  0  0  0  0  0  0
    9.2758  -16.3946   23.1918 C   0  0  0  0  0  0  0  0  0  0  0  0
    8.8446  -17.5574   23.5220 O   0  0  0  0  0  0  0  0  0  0  0  0
   11.7787  -16.1846   31.5970 O   0  0  0  0  0  0  0  0  0  0  0  0
   11.6142  -15.9429   30.2479 C   0  0  0  0  0  0  0  0  0  0  0  0
   10.6996  -14.9485   29.9010 C   0  0  0  0  0  0  0  0  0  0  0  0
   10.5177  -14.6878   28.5667 C   0  0  0  0  0  0  0  0  0  0  0  0
   11.2136  -15.3820   27.5841 C   0  0  0  0  0  0  0  0  0  0  0  0
   10.9699  -15.0599   26.1771 C   0  0  0  0  0  0  0  0  0  0  0  0
   10.3569  -16.2259   25.4019 C   0  0  2  0  0  0  0  0  0  0  0  0
   10.1500  -15.7313   24.0669 N   0  0  0  0  0  0  0  0  0  0  0  0
    9.1632  -16.7589   26.0499 C   0  0  0  0  0  0  0  0  0  0  0  0
    9.2060  -17.9220   26.8019 O   0  0  0  0  0  0  0  0  0  0  0  0
   12.1091  -16.3575   27.9621 C   0  0  0  0  0  0  0  0  0  0  0  0
   12.3074  -16.6362   29.3017 C   0  0  0  0  0  0  0  0  0  0  0  0
    8.0372  -16.2030   25.9658 O   0  0  0  0  0  0  0  0  0  0  0  0
  2  1  1  6
  3  2  1  0
  4  3  1  0
  5  9  1  0
  5  4  1  0
  6  5  2  0
  7  8  2  0
  7  2  1  0
 10  7  1  0
 11 10  1  0
 11 12  1  1
 13 12  1  0
 13 14  2  0
 15 14  1  0
 16 15  1  0
 17 16  2  0
 18 17  1  0
 19 18  2  0
 19 20  1  0
 20 21  2  0
 21 16  1  0
 21 13  1  0
 22 11  1  0
 23 22  2  0
 24 25  1  0
 25 35  2  0
 26 25  1  0
 26 27  2  0
 27 28  1  0
 28 34  2  0
 28 29  1  0
 30 29  1  1
 30 31  1  0
 31 22  1  0
 32 30  1  0
 33 32  1  0
 35 34  1  0
 36 32  2  0
M  END
$$$$
