EWY.pdb
     RDKit          3D

 36 38  0  0  1  0  0  0  0  0999 V2000
   10.4743  -18.3035   18.6442 N   0  0  0  0  0  0  0  0  0  0  0  0
   10.7761  -18.6740   20.0038 C   0  0  1  0  0  0  0  0  0  0  0  0
   12.2819  -18.8607   20.0976 C   0  0  0  0  0  0  0  0  0  0  0  0
   12.7018  -19.8419   19.0470 C   0  0  0  0  0  0  0  0  0  0  0  0
   14.1430  -20.1296   19.1403 C   0  0  0  0  0  0  0  0  0  0  0  0
   14.8893  -19.9844   18.1614 O   0  0  0  0  0  0  0  0  0  0  0  0
   10.4151  -17.5363   20.8929 C   0  0  0  0  0  0  0  0  0  0  0  0
   11.0711  -16.4391   20.8057 O   0  0  0  0  0  0  0  0  0  0  0  0
   14.6897  -20.5733   20.3475 O   0  0  0  0  0  0  0  0  0  0  0  0
    9.3577  -17.6976   21.8114 N   0  0  0  0  0  0  0  0  0  0  0  0
    8.9589  -16.5188   22.6046 C   0  0  1  0  0  0  0  0  0  0  0  0
    7.4876  -16.3423   22.3617 C   0  0  0  0  0  0  0  0  0  0  0  0
    7.2659  -15.5102   21.1661 C   0  0  0  0  0  0  0  0  0  0  0  0
    6.8732  -15.9354   19.9169 C   0  0  0  0  0  0  0  0  0  0  0  0
    6.8101  -14.8512   19.1312 N   0  0  0  0  0  0  0  0  0  0  0  0
    7.1414  -13.7511   19.8082 C   0  0  0  0  0  0  0  0  0  0  0  0
    7.2242  -12.4065   19.4391 C   0  0  0  0  0  0  0  0  0  0  0  0
    7.6058  -11.4951   20.4036 C   0  0  0  0  0  0  0  0  0  0  0  0
    7.8969  -11.8904   21.6885 C   0  0  0  0  0  0  0  0  0  0  0  0
    7.8178  -13.2023   22.0540 C   0  0  0  0  0  0  0  0  0  0  0  0
    7.4305  -14.1431   21.0852 C   0  0  0  0  0  0  0  0  0  0  0  0
    9.3897  -16.7589   23.9615 C   0  0  0  0  0  0  0  0  0  0  0  0
    9.6699  -17.9658   24.2962 O   0  0  0  0  0  0  0  0  0  0  0  0
   12.3312  -21.3714   28.8366 O   0  0  0  0  0  0  0  0  0  0  0  0
   12.1308  -20.1823   28.1648 C   0  0  0  0  0  0  0  0  0  0  0  0
   11.5610  -20.2737   26.8948 C   0  0  0  0  0  0  0  0  0  0  0  0
   11.3504  -19.1065   26.2058 C   0  0  0  0  0  0  0  0  0  0  0  0
   11.6877  -17.8694   26.7418 C   0  0  0  0  0  0  0  0  0  0  0  0
   11.4423  -16.6609   25.9528 C   0  0  0  0  0  0  0  0  0  0  0  0
   10.0685  -16.0479   26.2233 C   0  0  2  0  0  0  0  0  0  0  0  0
    9.5212  -15.7485   24.9270 N   0  0  0  0  0  0  0  0  0  0  0  0
   10.1357  -14.9127   27.1373 C   0  0  0  0  0  0  0  0  0  0  0  0
    9.7495  -13.6418   26.7426 O   0  0  0  0  0  0  0  0  0  0  0  0
   12.2485  -17.8159   27.9984 C   0  0  0  0  0  0  0  0  0  0  0  0
   12.4695  -18.9804   28.7099 C   0  0  0  0  0  0  0  0  0  0  0  0
   10.5438  -15.0167   28.3233 O   0  0  0  0  0  0  0  0  0  0  0  0
  2  1  1  6
  3  2  1  0
  4  3  1  0
  5  9  1  0
  5  4  1  0
  6  5  2  0
  7  8  2  0
  7  2  1  0
 10  7  1  0
 11 10  1  0
 11 12  1  1
 13 12  1  0
 13 14  2  0
 15 14  1  0
 16 15  1  0
 17 16  2  0
 18 17  1  0
 19 18  2  0
 19 20  1  0
 20 21  2  0
 21 16  1  0
 21 13  1  0
 22 11  1  0
 23 22  2  0
 24 25  1  0
 25 35  2  0
 26 25  1  0
 26 27  2  0
 27 28  1  0
 28 34  2  0
 28 29  1  0
 30 29  1  6
 30 31  1  0
 31 22  1  0
 32 30  1  0
 33 32  1  0
 35 34  1  0
 36 32  2  0
M  END
$$$$
