EWY.pdb
     RDKit          3D

 36 38  0  0  1  0  0  0  0  0999 V2000
    8.0900  -19.2956   19.8513 N   0  0  0  0  0  0  0  0  0  0  0  0
    9.4655  -18.8775   19.9506 C   0  0  1  0  0  0  0  0  0  0  0  0
    9.9854  -18.6945   18.5339 C   0  0  0  0  0  0  0  0  0  0  0  0
    8.8353  -18.3092   17.6554 C   0  0  0  0  0  0  0  0  0  0  0  0
    9.2872  -18.0527   16.2776 C   0  0  0  0  0  0  0  0  0  0  0  0
    8.9746  -17.0098   15.6852 O   0  0  0  0  0  0  0  0  0  0  0  0
    9.5059  -17.5450   20.6122 C   0  0  0  0  0  0  0  0  0  0  0  0
   10.6141  -16.9039   20.6651 O   0  0  0  0  0  0  0  0  0  0  0  0
   10.0827  -18.9930   15.6172 O   0  0  0  0  0  0  0  0  0  0  0  0
    8.3194  -17.0223   21.1661 N   0  0  0  0  0  0  0  0  0  0  0  0
    8.4332  -15.8097   21.9994 C   0  0  1  0  0  0  0  0  0  0  0  0
    7.1575  -15.0467   21.7860 C   0  0  0  0  0  0  0  0  0  0  0  0
    7.2441  -13.7225   22.4262 C   0  0  0  0  0  0  0  0  0  0  0  0
    7.6449  -12.5409   21.8442 C   0  0  0  0  0  0  0  0  0  0  0  0
    7.5858  -11.5933   22.7904 N   0  0  0  0  0  0  0  0  0  0  0  0
    7.1683  -12.1021   23.9502 C   0  0  0  0  0  0  0  0  0  0  0  0
    6.9471  -11.5301   25.2051 C   0  0  0  0  0  0  0  0  0  0  0  0
    6.5025  -12.3538   26.2203 C   0  0  0  0  0  0  0  0  0  0  0  0
    6.2823  -13.6952   26.0107 C   0  0  0  0  0  0  0  0  0  0  0  0
    6.4970  -14.2588   24.7870 C   0  0  0  0  0  0  0  0  0  0  0  0
    6.9490  -13.4350   23.7427 C   0  0  0  0  0  0  0  0  0  0  0  0
    8.7352  -16.2478   23.3415 C   0  0  0  0  0  0  0  0  0  0  0  0
    7.7890  -16.2187   24.2081 O   0  0  0  0  0  0  0  0  0  0  0  0
   11.7278  -15.0437   31.0565 O   0  0  0  0  0  0  0  0  0  0  0  0
   11.2079  -15.3806   29.8229 C   0  0  0  0  0  0  0  0  0  0  0  0
   10.8197  -14.3223   29.0013 C   0  0  0  0  0  0  0  0  0  0  0  0
   10.3004  -14.6295   27.7695 C   0  0  0  0  0  0  0  0  0  0  0  0
   10.1604  -15.9444   27.3418 C   0  0  0  0  0  0  0  0  0  0  0  0
    9.5937  -16.2057   26.0176 C   0  0  0  0  0  0  0  0  0  0  0  0
   10.6396  -16.1424   24.9047 C   0  0  2  0  0  0  0  0  0  0  0  0
    9.9994  -16.7046   23.7455 N   0  0  0  0  0  0  0  0  0  0  0  0
   11.8945  -16.7833   25.2831 C   0  0  0  0  0  0  0  0  0  0  0  0
   12.8076  -16.1531   26.1133 O   0  0  0  0  0  0  0  0  0  0  0  0
   10.5539  -16.9649   28.1786 C   0  0  0  0  0  0  0  0  0  0  0  0
   11.0797  -16.6772   29.4244 C   0  0  0  0  0  0  0  0  0  0  0  0
   12.2203  -17.9313   24.8833 O   0  0  0  0  0  0  0  0  0  0  0  0
  2  1  1  6
  3  2  1  0
  4  3  1  0
  5  9  1  0
  5  4  1  0
  6  5  2  0
  7  8  2  0
  7  2  1  0
 10  7  1  0
 11 10  1  0
 11 12  1  1
 13 12  1  0
 13 14  2  0
 15 14  1  0
 16 15  1  0
 17 16  2  0
 18 17  1  0
 19 18  2  0
 19 20  1  0
 20 21  2  0
 21 16  1  0
 21 13  1  0
 22 11  1  0
 23 22  2  0
 24 25  1  0
 25 35  2  0
 26 25  1  0
 26 27  2  0
 27 28  1  0
 28 34  2  0
 28 29  1  0
 30 29  1  1
 30 31  1  0
 31 22  1  0
 32 30  1  0
 33 32  1  0
 35 34  1  0
 36 32  2  0
M  END
$$$$
