EWY.pdb
     RDKit          3D

 36 38  0  0  1  0  0  0  0  0999 V2000
   10.1386  -19.1916   18.8597 N   0  0  0  0  0  0  0  0  0  0  0  0
   10.5018  -19.1405   20.2533 C   0  0  1  0  0  0  0  0  0  0  0  0
   11.9775  -19.4927   20.3489 C   0  0  0  0  0  0  0  0  0  0  0  0
   12.1258  -20.9665   20.1279 C   0  0  0  0  0  0  0  0  0  0  0  0
   13.5288  -21.3848   20.2869 C   0  0  0  0  0  0  0  0  0  0  0  0
   13.9921  -21.6594   21.4033 O   0  0  0  0  0  0  0  0  0  0  0  0
   10.3500  -17.7382   20.7282 C   0  0  0  0  0  0  0  0  0  0  0  0
   11.2709  -16.8852   20.4706 O   0  0  0  0  0  0  0  0  0  0  0  0
   14.3607  -21.4781   19.1679 O   0  0  0  0  0  0  0  0  0  0  0  0
    9.1931  -17.3848   21.4525 N   0  0  0  0  0  0  0  0  0  0  0  0
    9.0542  -15.9760   21.8692 C   0  0  1  0  0  0  0  0  0  0  0  0
    7.5849  -15.7588   22.0902 C   0  0  0  0  0  0  0  0  0  0  0  0
    7.3343  -14.3700   22.5137 C   0  0  0  0  0  0  0  0  0  0  0  0
    7.3830  -13.2389   21.7302 C   0  0  0  0  0  0  0  0  0  0  0  0
    7.1038  -12.1952   22.5236 N   0  0  0  0  0  0  0  0  0  0  0  0
    6.8782  -12.5944   23.7758 C   0  0  0  0  0  0  0  0  0  0  0  0
    6.5545  -11.8985   24.9429 C   0  0  0  0  0  0  0  0  0  0  0  0
    6.3824  -12.6283   26.1024 C   0  0  0  0  0  0  0  0  0  0  0  0
    6.5236  -13.9964   26.1161 C   0  0  0  0  0  0  0  0  0  0  0  0
    6.8398  -14.6808   24.9791 C   0  0  0  0  0  0  0  0  0  0  0  0
    7.0181  -13.9538   23.7902 C   0  0  0  0  0  0  0  0  0  0  0  0
    9.9369  -15.7808   22.9949 C   0  0  0  0  0  0  0  0  0  0  0  0
   10.2769  -14.5785   23.2877 O   0  0  0  0  0  0  0  0  0  0  0  0
   10.9948  -15.0890   31.2563 O   0  0  0  0  0  0  0  0  0  0  0  0
   10.7042  -15.2312   29.9143 C   0  0  0  0  0  0  0  0  0  0  0  0
   10.4688  -16.5300   29.4630 C   0  0  0  0  0  0  0  0  0  0  0  0
   10.1770  -16.6992   28.1335 C   0  0  0  0  0  0  0  0  0  0  0  0
   10.1143  -15.6237   27.2556 C   0  0  0  0  0  0  0  0  0  0  0  0
    9.8033  -15.8720   25.8468 C   0  0  0  0  0  0  0  0  0  0  0  0
   10.9436  -16.5679   25.1041 C   0  0  2  0  0  0  0  0  0  0  0  0
   10.4368  -16.8290   23.7832 N   0  0  0  0  0  0  0  0  0  0  0  0
   11.4357  -17.7430   25.8152 C   0  0  0  0  0  0  0  0  0  0  0  0
   10.7909  -18.9663   25.7250 O   0  0  0  0  0  0  0  0  0  0  0  0
   10.3521  -14.3548   27.7350 C   0  0  0  0  0  0  0  0  0  0  0  0
   10.6482  -14.1621   29.0716 C   0  0  0  0  0  0  0  0  0  0  0  0
   12.4611  -17.7176   26.5445 O   0  0  0  0  0  0  0  0  0  0  0  0
  2  1  1  6
  3  2  1  0
  4  3  1  0
  5  9  1  0
  5  4  1  0
  6  5  2  0
  7  8  2  0
  7  2  1  0
 10  7  1  0
 11 10  1  0
 11 12  1  1
 13 12  1  0
 13 14  2  0
 15 14  1  0
 16 15  1  0
 17 16  2  0
 18 17  1  0
 19 18  2  0
 19 20  1  0
 20 21  2  0
 21 16  1  0
 21 13  1  0
 22 11  1  0
 23 22  2  0
 24 25  1  0
 25 35  2  0
 26 25  1  0
 26 27  2  0
 27 28  1  0
 28 34  2  0
 28 29  1  0
 30 29  1  1
 30 31  1  0
 31 22  1  0
 32 30  1  0
 33 32  1  0
 35 34  1  0
 36 32  2  0
M  END
$$$$
