AVG.pdb
     RDKit          3D

 17 16  0  0  1  0  0  0  0  0999 V2000
    8.3870  -18.8014   17.8230 C   0  0  0  0  0  0  0  0  0  0  0  0
    8.5915  -17.3947   17.2659 C   0  0  2  0  0  0  0  0  0  0  0  0
    9.7559  -17.5220   16.3773 N   0  0  0  0  0  0  0  0  0  0  0  0
    9.0027  -16.4625   18.3697 C   0  0  0  0  0  0  0  0  0  0  0  0
   10.2095  -16.3128   18.6904 O   0  0  0  0  0  0  0  0  0  0  0  0
    7.5600  -12.7353   19.0676 C   0  0  0  0  0  0  0  0  0  0  0  0
    7.4822  -13.6373   20.3087 C   0  0  2  0  0  0  0  0  0  0  0  0
    7.9997  -12.7997   21.4473 C   0  0  0  0  0  0  0  0  0  0  0  0
    8.4230  -14.8159   20.1471 C   0  0  2  0  0  0  0  0  0  0  0  0
    8.0315  -15.7029   19.1003 N   0  0  0  0  0  0  0  0  0  0  0  0
    8.6376  -15.5314   21.4112 C   0  0  0  0  0  0  0  0  0  0  0  0
    7.6927  -16.1603   21.9807 O   0  0  0  0  0  0  0  0  0  0  0  0
    9.8935  -15.5820   22.0883 N   0  0  0  0  0  0  0  0  0  0  0  0
   10.1619  -16.4142   23.2426 C   0  0  0  0  0  0  0  0  0  0  0  0
   11.5773  -16.1979   23.6282 C   0  0  0  0  0  0  0  0  0  0  0  0
   12.5190  -16.2789   22.7973 O   0  0  0  0  0  0  0  0  0  0  0  0
   11.9480  -15.8924   24.9467 O   0  0  0  0  0  0  0  0  0  0  0  0
  2  4  1  0
  2  1  1  1
  3  2  1  0
  4  5  2  0
  7  6  1  6
  7  8  1  0
  7  9  1  0
  9 10  1  6
 10  4  1  0
 11  9  1  0
 12 11  2  0
 13 11  1  0
 14 13  1  0
 14 15  1  0
 15 17  1  0
 16 15  2  0
M  END
$$$$
