AVG.pdb
     RDKit          3D

 17 16  0  0  1  0  0  0  0  0999 V2000
    6.3072  -19.4215   21.4892 C   0  0  0  0  0  0  0  0  0  0  0  0
    6.1505  -18.2411   20.5337 C   0  0  2  0  0  0  0  0  0  0  0  0
    6.1877  -18.8497   19.1958 N   0  0  0  0  0  0  0  0  0  0  0  0
    7.3540  -17.3468   20.6244 C   0  0  0  0  0  0  0  0  0  0  0  0
    8.4133  -17.6019   19.9964 O   0  0  0  0  0  0  0  0  0  0  0  0
    7.3136  -13.4005   22.6285 C   0  0  0  0  0  0  0  0  0  0  0  0
    8.1138  -13.8324   21.3904 C   0  0  2  0  0  0  0  0  0  0  0  0
    7.1675  -13.6855   20.2289 C   0  0  0  0  0  0  0  0  0  0  0  0
    8.4755  -15.3014   21.4990 C   0  0  2  0  0  0  0  0  0  0  0  0
    7.3397  -16.1623   21.4310 N   0  0  0  0  0  0  0  0  0  0  0  0
    9.2988  -15.5836   22.6815 C   0  0  0  0  0  0  0  0  0  0  0  0
    8.7810  -15.6785   23.8372 O   0  0  0  0  0  0  0  0  0  0  0  0
   10.7131  -15.7729   22.6341 N   0  0  0  0  0  0  0  0  0  0  0  0
   11.5411  -16.0111   23.7980 C   0  0  0  0  0  0  0  0  0  0  0  0
   12.9316  -16.2092   23.3225 C   0  0  0  0  0  0  0  0  0  0  0  0
   13.2253  -16.2338   22.0990 O   0  0  0  0  0  0  0  0  0  0  0  0
   14.0018  -16.3839   24.2133 O   0  0  0  0  0  0  0  0  0  0  0  0
  2  4  1  0
  2  1  1  1
  3  2  1  0
  4  5  2  0
  7  6  1  1
  7  8  1  0
  7  9  1  0
  9 10  1  1
 10  4  1  0
 11  9  1  0
 12 11  2  0
 13 11  1  0
 14 13  1  0
 14 15  1  0
 15 17  1  0
 16 15  2  0
M  END
$$$$
