AVG.pdb
     RDKit          3D

 17 16  0  0  1  0  0  0  0  0999 V2000
    8.1564  -19.0739   18.5648 C   0  0  0  0  0  0  0  0  0  0  0  0
    8.1722  -17.7273   17.8458 C   0  0  2  0  0  0  0  0  0  0  0  0
    9.1844  -17.8904   16.7919 N   0  0  0  0  0  0  0  0  0  0  0  0
    8.6912  -16.6614   18.7683 C   0  0  0  0  0  0  0  0  0  0  0  0
    9.9239  -16.4878   18.9472 O   0  0  0  0  0  0  0  0  0  0  0  0
    7.4972  -12.7832   19.3307 C   0  0  0  0  0  0  0  0  0  0  0  0
    7.4015  -13.6462   20.5980 C   0  0  2  0  0  0  0  0  0  0  0  0
    7.9796  -12.8031   21.7029 C   0  0  0  0  0  0  0  0  0  0  0  0
    8.2831  -14.8719   20.4528 C   0  0  2  0  0  0  0  0  0  0  0  0
    7.7977  -15.7962   19.4802 N   0  0  0  0  0  0  0  0  0  0  0  0
    8.5390  -15.5267   21.7418 C   0  0  0  0  0  0  0  0  0  0  0  0
    7.5987  -16.0612   22.4071 O   0  0  0  0  0  0  0  0  0  0  0  0
    9.8321  -15.6180   22.3399 N   0  0  0  0  0  0  0  0  0  0  0  0
   10.0938  -16.2431   23.6196 C   0  0  0  0  0  0  0  0  0  0  0  0
   11.5546  -16.1665   23.8624 C   0  0  0  0  0  0  0  0  0  0  0  0
   12.3566  -15.7290   22.9969 O   0  0  0  0  0  0  0  0  0  0  0  0
   12.1273  -16.5818   25.0743 O   0  0  0  0  0  0  0  0  0  0  0  0
  2  4  1  0
  2  1  1  1
  3  2  1  0
  4  5  2  0
  7  6  1  6
  7  8  1  0
  7  9  1  0
  9 10  1  6
 10  4  1  0
 11  9  1  0
 12 11  2  0
 13 11  1  0
 14 13  1  0
 14 15  1  0
 15 17  1  0
 16 15  2  0
M  END
$$$$
