AVG.pdb
     RDKit          3D

 17 16  0  0  1  0  0  0  0  0999 V2000
    9.4075  -18.9377   19.4600 C   0  0  0  0  0  0  0  0  0  0  0  0
    9.1222  -17.8356   18.4427 C   0  0  2  0  0  0  0  0  0  0  0  0
   10.1338  -18.0379   17.3952 N   0  0  0  0  0  0  0  0  0  0  0  0
    9.4073  -16.4921   19.0512 C   0  0  0  0  0  0  0  0  0  0  0  0
   10.5757  -16.0310   19.1124 O   0  0  0  0  0  0  0  0  0  0  0  0
    7.3813  -12.8855   18.7601 C   0  0  0  0  0  0  0  0  0  0  0  0
    7.4860  -13.4616   20.1803 C   0  0  2  0  0  0  0  0  0  0  0  0
    7.8404  -12.2945   21.0624 C   0  0  0  0  0  0  0  0  0  0  0  0
    8.6346  -14.4498   20.2505 C   0  0  2  0  0  0  0  0  0  0  0  0
    8.3538  -15.6800   19.5845 N   0  0  0  0  0  0  0  0  0  0  0  0
    9.0915  -14.6719   21.6281 C   0  0  0  0  0  0  0  0  0  0  0  0
    9.5948  -13.7298   22.3150 O   0  0  0  0  0  0  0  0  0  0  0  0
    9.0088  -15.9311   22.2958 N   0  0  0  0  0  0  0  0  0  0  0  0
    9.2991  -16.1270   23.7009 C   0  0  0  0  0  0  0  0  0  0  0  0
   10.7238  -16.5230   23.8105 C   0  0  0  0  0  0  0  0  0  0  0  0
   11.4480  -16.7101   22.7984 O   0  0  0  0  0  0  0  0  0  0  0  0
   11.3464  -16.7149   25.0534 O   0  0  0  0  0  0  0  0  0  0  0  0
  2  4  1  0
  2  1  1  1
  3  2  1  0
  4  5  2  0
  7  6  1  6
  7  8  1  0
  7  9  1  0
  9 10  1  1
 10  4  1  0
 11  9  1  0
 12 11  2  0
 13 11  1  0
 14 13  1  0
 14 15  1  0
 15 17  1  0
 16 15  2  0
M  END
$$$$
