AVG.pdb
     RDKit          3D

 17 16  0  0  1  0  0  0  0  0999 V2000
    6.3297  -18.6376   18.8948 C   0  0  0  0  0  0  0  0  0  0  0  0
    6.8203  -17.3793   18.1830 C   0  0  2  0  0  0  0  0  0  0  0  0
    7.5277  -17.8852   16.9976 N   0  0  0  0  0  0  0  0  0  0  0  0
    7.8518  -16.6846   19.0257 C   0  0  0  0  0  0  0  0  0  0  0  0
    9.0368  -17.1006   19.0927 O   0  0  0  0  0  0  0  0  0  0  0  0
    7.0509  -13.0610   21.5288 C   0  0  0  0  0  0  0  0  0  0  0  0
    8.2339  -13.3021   20.5790 C   0  0  2  0  0  0  0  0  0  0  0  0
    7.7576  -12.8560   19.2225 C   0  0  0  0  0  0  0  0  0  0  0  0
    8.5284  -14.7874   20.4917 C   0  0  2  0  0  0  0  0  0  0  0  0
    7.5241  -15.5148   19.7860 N   0  0  0  0  0  0  0  0  0  0  0  0
    8.7995  -15.3772   21.8087 C   0  0  0  0  0  0  0  0  0  0  0  0
    7.8540  -15.7187   22.5846 O   0  0  0  0  0  0  0  0  0  0  0  0
   10.1135  -15.6132   22.3146 N   0  0  0  0  0  0  0  0  0  0  0  0
   10.3955  -16.1073   23.6463 C   0  0  0  0  0  0  0  0  0  0  0  0
   11.8689  -16.1279   23.8110 C   0  0  0  0  0  0  0  0  0  0  0  0
   12.6534  -15.8364   22.8711 O   0  0  0  0  0  0  0  0  0  0  0  0
   12.4739  -16.4776   25.0280 O   0  0  0  0  0  0  0  0  0  0  0  0
  2  4  1  0
  2  1  1  1
  3  2  1  0
  4  5  2  0
  7  6  1  1
  7  8  1  0
  7  9  1  0
  9 10  1  1
 10  4  1  0
 11  9  1  0
 12 11  2  0
 13 11  1  0
 14 13  1  0
 14 15  1  0
 15 17  1  0
 16 15  2  0
M  END
$$$$
