AVG.pdb
     RDKit          3D

 17 16  0  0  1  0  0  0  0  0999 V2000
    7.0624  -18.9281   18.0544 C   0  0  0  0  0  0  0  0  0  0  0  0
    7.3938  -17.6465   17.2938 C   0  0  2  0  0  0  0  0  0  0  0  0
    8.2828  -18.0877   16.2091 N   0  0  0  0  0  0  0  0  0  0  0  0
    8.2098  -16.7327   18.1632 C   0  0  0  0  0  0  0  0  0  0  0  0
    9.4492  -16.8915   18.3053 O   0  0  0  0  0  0  0  0  0  0  0  0
    8.6501  -12.5262   20.7514 C   0  0  0  0  0  0  0  0  0  0  0  0
    7.7766  -13.3859   19.8252 C   0  0  2  0  0  0  0  0  0  0  0  0
    6.4603  -13.5364   20.5397 C   0  0  0  0  0  0  0  0  0  0  0  0
    8.3806  -14.7704   19.6885 C   0  0  2  0  0  0  0  0  0  0  0  0
    7.6048  -15.6388   18.8640 N   0  0  0  0  0  0  0  0  0  0  0  0
    8.6722  -15.3793   20.9924 C   0  0  0  0  0  0  0  0  0  0  0  0
    7.7466  -15.8611   21.7161 O   0  0  0  0  0  0  0  0  0  0  0  0
    9.9860  -15.4813   21.5420 N   0  0  0  0  0  0  0  0  0  0  0  0
   10.2822  -16.0491   22.8407 C   0  0  0  0  0  0  0  0  0  0  0  0
   11.7499  -15.9708   23.0368 C   0  0  0  0  0  0  0  0  0  0  0  0
   12.5285  -15.5813   22.1280 O   0  0  0  0  0  0  0  0  0  0  0  0
   12.3559  -16.3306   24.2504 O   0  0  0  0  0  0  0  0  0  0  0  0
  2  4  1  0
  2  1  1  1
  3  2  1  0
  4  5  2  0
  7  6  1  1
  7  8  1  0
  7  9  1  0
  9 10  1  1
 10  4  1  0
 11  9  1  0
 12 11  2  0
 13 11  1  0
 14 13  1  0
 14 15  1  0
 15 17  1  0
 16 15  2  0
M  END
$$$$
