AVG.pdb
     RDKit          3D

 17 16  0  0  1  0  0  0  0  0999 V2000
    6.5550  -14.6185   20.9748 C   0  0  0  0  0  0  0  0  0  0  0  0
    6.8821  -15.5850   22.1105 C   0  0  2  0  0  0  0  0  0  0  0  0
    5.5684  -15.9936   22.6290 N   0  0  0  0  0  0  0  0  0  0  0  0
    7.5664  -14.8488   23.2269 C   0  0  0  0  0  0  0  0  0  0  0  0
    8.7421  -14.4184   23.1091 O   0  0  0  0  0  0  0  0  0  0  0  0
    6.4812  -11.7493   25.2370 C   0  0  0  0  0  0  0  0  0  0  0  0
    6.7428  -12.8945   26.2269 C   0  0  2  0  0  0  0  0  0  0  0  0
    7.5790  -12.2936   27.3249 C   0  0  0  0  0  0  0  0  0  0  0  0
    7.5760  -13.9713   25.5585 C   0  0  2  0  0  0  0  0  0  0  0  0
    6.9014  -14.6053   24.4728 N   0  0  0  0  0  0  0  0  0  0  0  0
    8.0916  -14.9516   26.5223 C   0  0  0  0  0  0  0  0  0  0  0  0
    7.3140  -15.5671   27.3156 O   0  0  0  0  0  0  0  0  0  0  0  0
    9.4733  -15.2894   26.6450 N   0  0  0  0  0  0  0  0  0  0  0  0
    9.9822  -16.3282   27.5161 C   0  0  0  0  0  0  0  0  0  0  0  0
   11.4467  -16.4129   27.3000 C   0  0  0  0  0  0  0  0  0  0  0  0
   12.0309  -15.7583   26.3978 O   0  0  0  0  0  0  0  0  0  0  0  0
   12.2664  -17.2330   28.0904 O   0  0  0  0  0  0  0  0  0  0  0  0
  2  4  1  0
  2  1  1  6
  3  2  1  0
  4  5  2  0
  7  6  1  6
  7  8  1  0
  7  9  1  0
  9 10  1  6
 10  4  1  0
 11  9  1  0
 12 11  2  0
 13 11  1  0
 14 13  1  0
 14 15  1  0
 15 17  1  0
 16 15  2  0
M  END
$$$$
