AVG.pdb
     RDKit          3D

 17 16  0  0  1  0  0  0  0  0999 V2000
    7.4298  -18.3707   17.6961 C   0  0  0  0  0  0  0  0  0  0  0  0
    7.6262  -16.9098   17.2987 C   0  0  2  0  0  0  0  0  0  0  0  0
    8.3668  -16.9751   16.0303 N   0  0  0  0  0  0  0  0  0  0  0  0
    8.5345  -16.2300   18.2834 C   0  0  0  0  0  0  0  0  0  0  0  0
    9.7856  -16.2701   18.1623 O   0  0  0  0  0  0  0  0  0  0  0  0
    6.9696  -13.6798   21.5004 C   0  0  0  0  0  0  0  0  0  0  0  0
    8.2327  -13.4130   20.6680 C   0  0  2  0  0  0  0  0  0  0  0  0
    7.7532  -12.7200   19.4207 C   0  0  0  0  0  0  0  0  0  0  0  0
    8.8571  -14.7290   20.2454 C   0  0  2  0  0  0  0  0  0  0  0  0
    8.0074  -15.5042   19.4010 N   0  0  0  0  0  0  0  0  0  0  0  0
    9.3372  -15.5088   21.3931 C   0  0  0  0  0  0  0  0  0  0  0  0
    8.5407  -16.2046   22.0961 O   0  0  0  0  0  0  0  0  0  0  0  0
   10.7037  -15.5522   21.8042 N   0  0  0  0  0  0  0  0  0  0  0  0
   11.1924  -16.3336   22.9212 C   0  0  0  0  0  0  0  0  0  0  0  0
   12.6547  -16.1077   23.0170 C   0  0  0  0  0  0  0  0  0  0  0  0
   13.2864  -15.4306   22.1647 O   0  0  0  0  0  0  0  0  0  0  0  0
   13.4200  -16.6404   24.0658 O   0  0  0  0  0  0  0  0  0  0  0  0
  2  4  1  0
  2  1  1  1
  3  2  1  0
  4  5  2  0
  7  6  1  1
  7  8  1  0
  7  9  1  0
  9 10  1  1
 10  4  1  0
 11  9  1  0
 12 11  2  0
 13 11  1  0
 14 13  1  0
 14 15  1  0
 15 17  1  0
 16 15  2  0
M  END
$$$$
