AVG.pdb
     RDKit          3D

 17 16  0  0  1  0  0  0  0  0999 V2000
    7.1584  -16.4466   21.6842 C   0  0  0  0  0  0  0  0  0  0  0  0
    7.1905  -14.9207   21.7201 C   0  0  2  0  0  0  0  0  0  0  0  0
    8.0957  -14.5507   20.6223 N   0  0  0  0  0  0  0  0  0  0  0  0
    7.8494  -14.4530   22.9865 C   0  0  0  0  0  0  0  0  0  0  0  0
    9.0996  -14.3551   23.0814 O   0  0  0  0  0  0  0  0  0  0  0  0
    6.4520  -11.6349   25.6142 C   0  0  0  0  0  0  0  0  0  0  0  0
    6.8205  -12.9593   26.2997 C   0  0  2  0  0  0  0  0  0  0  0  0
    7.6497  -12.5755   27.4960 C   0  0  0  0  0  0  0  0  0  0  0  0
    7.7014  -13.7853   25.3820 C   0  0  2  0  0  0  0  0  0  0  0  0
    7.0750  -14.0962   24.1384 N   0  0  0  0  0  0  0  0  0  0  0  0
    8.2170  -14.9898   26.0447 C   0  0  0  0  0  0  0  0  0  0  0  0
    7.4638  -15.9841   26.2827 O   0  0  0  0  0  0  0  0  0  0  0  0
    9.5730  -15.1429   26.4645 N   0  0  0  0  0  0  0  0  0  0  0  0
   10.1258  -16.3711   26.9964 C   0  0  0  0  0  0  0  0  0  0  0  0
   10.3470  -16.1680   28.4484 C   0  0  0  0  0  0  0  0  0  0  0  0
   10.0608  -15.0871   29.0261 O   0  0  0  0  0  0  0  0  0  0  0  0
   10.8925  -17.1722   29.2628 O   0  0  0  0  0  0  0  0  0  0  0  0
  2  4  1  0
  2  1  1  1
  3  2  1  0
  4  5  2  0
  7  6  1  6
  7  8  1  0
  7  9  1  0
  9 10  1  6
 10  4  1  0
 11  9  1  0
 12 11  2  0
 13 11  1  0
 14 13  1  0
 14 15  1  0
 15 17  1  0
 16 15  2  0
M  END
$$$$
