AVG.pdb
     RDKit          3D

 17 16  0  0  1  0  0  0  0  0999 V2000
    7.6211  -18.5657   17.9235 C   0  0  0  0  0  0  0  0  0  0  0  0
    7.6272  -17.1023   17.4886 C   0  0  2  0  0  0  0  0  0  0  0  0
    8.2893  -17.1165   16.1759 N   0  0  0  0  0  0  0  0  0  0  0  0
    8.5135  -16.3020   18.3999 C   0  0  0  0  0  0  0  0  0  0  0  0
    9.7587  -16.2516   18.2307 O   0  0  0  0  0  0  0  0  0  0  0  0
    6.9620  -13.9462   21.8054 C   0  0  0  0  0  0  0  0  0  0  0  0
    8.1966  -13.5989   20.9599 C   0  0  2  0  0  0  0  0  0  0  0  0
    7.6727  -12.8146   19.7868 C   0  0  0  0  0  0  0  0  0  0  0  0
    8.8203  -14.8697   20.4150 C   0  0  2  0  0  0  0  0  0  0  0  0
    7.9712  -15.5599   19.4994 N   0  0  0  0  0  0  0  0  0  0  0  0
    9.2975  -15.7557   21.4842 C   0  0  0  0  0  0  0  0  0  0  0  0
    8.5619  -16.6794   21.9515 O   0  0  0  0  0  0  0  0  0  0  0  0
   10.5949  -15.6587   22.0721 N   0  0  0  0  0  0  0  0  0  0  0  0
   11.0917  -16.5520   23.0979 C   0  0  0  0  0  0  0  0  0  0  0  0
   10.7378  -15.9624   24.4115 C   0  0  0  0  0  0  0  0  0  0  0  0
    9.5642  -15.6052   24.6925 O   0  0  0  0  0  0  0  0  0  0  0  0
   11.6957  -15.7661   25.4182 O   0  0  0  0  0  0  0  0  0  0  0  0
  2  4  1  0
  2  1  1  1
  3  2  1  0
  4  5  2  0
  7  6  1  1
  7  8  1  0
  7  9  1  0
  9 10  1  1
 10  4  1  0
 11  9  1  0
 12 11  2  0
 13 11  1  0
 14 13  1  0
 14 15  1  0
 15 17  1  0
 16 15  2  0
M  END
$$$$
