VGN.pdb
     RDKit          3D

 20 19  0  0  1  0  0  0  0  0999 V2000
   26.8302  -19.6423   -6.1575 C   0  0  0  0  0  0  0  0  0  0  0  0
   26.2255  -20.0528   -7.4632 C   0  0  1  0  0  0  0  0  0  0  0  0
   25.8805  -18.8099   -8.2671 C   0  0  0  0  0  0  0  0  0  0  0  0
   27.1726  -20.8817   -8.2970 C   0  0  2  0  0  0  0  0  0  0  0  0
   28.3743  -20.0895   -8.5150 N   0  0  0  0  0  0  0  0  0  0  0  0
   26.5522  -21.2740   -9.5968 C   0  0  0  0  0  0  0  0  0  0  0  0
   25.6805  -22.1549   -9.5997 O   0  0  0  0  0  0  0  0  0  0  0  0
   26.9279  -20.6720  -10.8258 N   0  0  0  0  0  0  0  0  0  0  0  0
   26.4375  -21.1223  -12.1099 C   0  0  0  0  0  0  0  0  0  0  0  0
   25.1986  -20.3874  -12.5068 C   0  0  0  0  0  0  0  0  0  0  0  0
   24.7717  -19.4422  -11.7831 O   0  0  0  0  0  0  0  0  0  0  0  0
   24.9449  -18.0569  -15.0933 N   0  0  0  0  0  0  0  0  0  0  0  0
   24.2323  -18.7904  -16.0832 C   0  0  0  0  0  0  0  0  0  0  0  0
   24.4160  -18.5288  -17.3016 O   0  0  0  0  0  0  0  0  0  0  0  0
   23.2963  -19.8398  -15.6292 C   0  0  0  0  0  0  0  0  0  0  0  0
   23.3209  -19.9788  -14.1407 C   0  0  2  0  0  0  0  0  0  0  0  0
   24.4841  -20.7280  -13.6856 N   0  0  0  0  0  0  0  0  0  0  0  0
   22.0697  -20.5586  -13.6345 C   0  0  0  0  0  0  0  0  0  0  0  0
   20.9242  -19.8418  -13.3493 O   0  0  0  0  0  0  0  0  0  0  0  0
   21.9795  -21.8169  -13.4230 O   0  0  0  0  0  0  0  0  0  0  0  0
  2  1  1  1
  3  2  1  0
  4  2  1  0
  4  5  1  6
  6  8  1  0
  6  4  1  0
  7  6  2  0
  9  8  1  0
 10  9  1  0
 11 10  2  0
 13 12  1  0
 14 13  2  0
 15 13  1  0
 16 15  1  6
 16 17  1  0
 17 10  1  0
 18 19  1  0
 18 16  1  0
 20 18  2  0
M  END
$$$$
