VGN.pdb
     RDKit          3D

 20 19  0  0  1  0  0  0  0  0999 V2000
   16.8664  -12.6538  -17.4112 C   0  0  0  0  0  0  0  0  0  0  0  0
   16.4622  -11.4746  -16.5833 C   0  0  1  0  0  0  0  0  0  0  0  0
   15.6475  -11.9548  -15.3935 C   0  0  0  0  0  0  0  0  0  0  0  0
   17.6528  -10.7210  -16.0410 C   0  0  2  0  0  0  0  0  0  0  0  0
   18.4938  -11.6773  -15.3357 N   0  0  0  0  0  0  0  0  0  0  0  0
   17.2290   -9.6152  -15.1324 C   0  0  0  0  0  0  0  0  0  0  0  0
   17.3595   -9.7653  -13.9091 O   0  0  0  0  0  0  0  0  0  0  0  0
   16.6831   -8.4008  -15.6234 N   0  0  0  0  0  0  0  0  0  0  0  0
   16.2671   -7.3152  -14.7627 C   0  0  0  0  0  0  0  0  0  0  0  0
   17.4122   -6.4142  -14.4320 C   0  0  0  0  0  0  0  0  0  0  0  0
   17.1992   -5.3310  -13.8149 O   0  0  0  0  0  0  0  0  0  0  0  0
   22.2851   -4.7742  -12.8683 N   0  0  0  0  0  0  0  0  0  0  0  0
   22.2397   -5.7089  -13.9406 C   0  0  0  0  0  0  0  0  0  0  0  0
   23.1905   -5.7534  -14.7658 O   0  0  0  0  0  0  0  0  0  0  0  0
   21.0623   -6.5964  -14.0381 C   0  0  0  0  0  0  0  0  0  0  0  0
   19.8691   -5.8567  -14.5527 C   0  0  2  0  0  0  0  0  0  0  0  0
   18.7432   -6.7477  -14.7971 N   0  0  0  0  0  0  0  0  0  0  0  0
   20.2017   -5.0629  -15.7433 C   0  0  0  0  0  0  0  0  0  0  0  0
   20.7818   -3.8099  -15.7219 O   0  0  0  0  0  0  0  0  0  0  0  0
   19.9557   -5.5183  -16.9131 O   0  0  0  0  0  0  0  0  0  0  0  0
  2  1  1  1
  3  2  1  0
  4  2  1  0
  4  5  1  1
  6  8  1  0
  6  4  1  0
  7  6  2  0
  9  8  1  0
 10  9  1  0
 11 10  2  0
 13 12  1  0
 14 13  2  0
 15 13  1  0
 16 15  1  6
 16 17  1  0
 17 10  1  0
 18 19  1  0
 18 16  1  0
 20 18  2  0
M  END
$$$$
