VGN.pdb
     RDKit          3D

 20 19  0  0  1  0  0  0  0  0999 V2000
   18.5812  -13.8437  -16.1291 C   0  0  0  0  0  0  0  0  0  0  0  0
   18.4368  -12.4635  -16.6889 C   0  0  1  0  0  0  0  0  0  0  0  0
   18.3347  -11.4682  -15.5448 C   0  0  0  0  0  0  0  0  0  0  0  0
   19.6220  -12.0614  -17.5332 C   0  0  2  0  0  0  0  0  0  0  0  0
   20.8262  -12.3795  -16.7796 N   0  0  0  0  0  0  0  0  0  0  0  0
   19.5783  -10.6093  -17.8760 C   0  0  0  0  0  0  0  0  0  0  0  0
   18.7249  -10.2123  -18.6823 O   0  0  0  0  0  0  0  0  0  0  0  0
   20.4803   -9.6715  -17.3096 N   0  0  0  0  0  0  0  0  0  0  0  0
   20.4037   -8.2490  -17.5605 C   0  0  0  0  0  0  0  0  0  0  0  0
   19.9303   -7.5085  -16.3522 C   0  0  0  0  0  0  0  0  0  0  0  0
   19.2338   -8.1076  -15.4831 O   0  0  0  0  0  0  0  0  0  0  0  0
   21.5975   -7.0180  -13.6774 N   0  0  0  0  0  0  0  0  0  0  0  0
   21.9173   -5.6318  -13.6379 C   0  0  0  0  0  0  0  0  0  0  0  0
   22.9414   -5.2487  -13.0125 O   0  0  0  0  0  0  0  0  0  0  0  0
   21.0201   -4.6924  -14.3423 C   0  0  0  0  0  0  0  0  0  0  0  0
   19.8600   -5.4098  -14.9549 C   0  0  2  0  0  0  0  0  0  0  0  0
   20.2462   -6.1382  -16.1556 N   0  0  0  0  0  0  0  0  0  0  0  0
   18.7383   -4.4965  -15.2112 C   0  0  0  0  0  0  0  0  0  0  0  0
   17.8417   -4.0575  -14.2570 O   0  0  0  0  0  0  0  0  0  0  0  0
   18.5292   -4.0442  -16.3894 O   0  0  0  0  0  0  0  0  0  0  0  0
  2  1  1  1
  3  2  1  0
  4  2  1  0
  4  5  1  1
  6  8  1  0
  6  4  1  0
  7  6  2  0
  9  8  1  0
 10  9  1  0
 11 10  2  0
 13 12  1  0
 14 13  2  0
 15 13  1  0
 16 15  1  6
 16 17  1  0
 17 10  1  0
 18 19  1  0
 18 16  1  0
 20 18  2  0
M  END
$$$$
