VGN.pdb
     RDKit          3D

 20 19  0  0  1  0  0  0  0  0999 V2000
   26.7979  -24.5818  -16.8587 C   0  0  0  0  0  0  0  0  0  0  0  0
   25.6161  -23.6949  -16.6227 C   0  0  1  0  0  0  0  0  0  0  0  0
   24.9672  -24.0680  -15.2999 C   0  0  0  0  0  0  0  0  0  0  0  0
   26.0015  -22.2374  -16.5417 C   0  0  2  0  0  0  0  0  0  0  0  0
   27.0555  -22.1166  -15.5449 N   0  0  0  0  0  0  0  0  0  0  0  0
   24.8306  -21.3841  -16.1824 C   0  0  0  0  0  0  0  0  0  0  0  0
   23.9021  -21.2725  -16.9956 O   0  0  0  0  0  0  0  0  0  0  0  0
   24.7471  -20.6987  -14.9426 N   0  0  0  0  0  0  0  0  0  0  0  0
   23.5965  -19.9164  -14.5470 C   0  0  0  0  0  0  0  0  0  0  0  0
   22.4795  -20.7910  -14.0783 C   0  0  0  0  0  0  0  0  0  0  0  0
   22.7095  -21.7008  -13.2305 O   0  0  0  0  0  0  0  0  0  0  0  0
   18.1173  -23.1060  -13.2322 N   0  0  0  0  0  0  0  0  0  0  0  0
   18.7519  -22.3117  -12.2362 C   0  0  0  0  0  0  0  0  0  0  0  0
   18.3736  -22.3999  -11.0380 O   0  0  0  0  0  0  0  0  0  0  0  0
   19.8407  -21.4070  -12.6600 C   0  0  0  0  0  0  0  0  0  0  0  0
   20.0512  -21.4706  -14.1390 C   0  0  2  0  0  0  0  0  0  0  0  0
   21.1565  -20.6235  -14.5659 N   0  0  0  0  0  0  0  0  0  0  0  0
   18.8159  -21.1611  -14.8712 C   0  0  0  0  0  0  0  0  0  0  0  0
   17.9383  -22.1009  -15.3750 O   0  0  0  0  0  0  0  0  0  0  0  0
   18.4800  -19.9459  -15.0877 O   0  0  0  0  0  0  0  0  0  0  0  0
  2  1  1  1
  3  2  1  0
  4  2  1  0
  4  5  1  1
  6  8  1  0
  6  4  1  0
  7  6  2  0
  9  8  1  0
 10  9  1  0
 11 10  2  0
 13 12  1  0
 14 13  2  0
 15 13  1  0
 16 15  1  1
 16 17  1  0
 17 10  1  0
 18 19  1  0
 18 16  1  0
 20 18  2  0
M  END
$$$$
