VGN.pdb
     RDKit          3D

 20 19  0  0  1  0  0  0  0  0999 V2000
   17.1773  -12.5085  -15.9347 C   0  0  0  0  0  0  0  0  0  0  0  0
   18.0813  -13.6989  -15.8654 C   0  0  1  0  0  0  0  0  0  0  0  0
   17.2471  -14.9662  -15.9551 C   0  0  0  0  0  0  0  0  0  0  0  0
   19.0744  -13.7303  -17.0022 C   0  0  2  0  0  0  0  0  0  0  0  0
   19.7222  -15.0338  -16.9836 N   0  0  0  0  0  0  0  0  0  0  0  0
   20.0809  -12.6352  -16.8759 C   0  0  0  0  0  0  0  0  0  0  0  0
   21.1022  -12.8385  -16.2040 O   0  0  0  0  0  0  0  0  0  0  0  0
   19.9060  -11.3723  -17.4991 N   0  0  0  0  0  0  0  0  0  0  0  0
   20.8935  -10.3171  -17.4396 C   0  0  0  0  0  0  0  0  0  0  0  0
   20.6522   -9.4116  -16.2759 C   0  0  0  0  0  0  0  0  0  0  0  0
   19.5999   -9.5436  -15.5870 O   0  0  0  0  0  0  0  0  0  0  0  0
   22.5413   -4.5224  -13.4492 N   0  0  0  0  0  0  0  0  0  0  0  0
   22.3893   -5.9200  -13.2276 C   0  0  0  0  0  0  0  0  0  0  0  0
   22.0591   -6.3350  -12.0850 O   0  0  0  0  0  0  0  0  0  0  0  0
   22.6295   -6.8329  -14.3645 C   0  0  0  0  0  0  0  0  0  0  0  0
   21.3596   -7.4816  -14.8143 C   0  0  2  0  0  0  0  0  0  0  0  0
   21.5831   -8.3992  -15.9230 N   0  0  0  0  0  0  0  0  0  0  0  0
   20.3307   -6.4832  -15.1348 C   0  0  0  0  0  0  0  0  0  0  0  0
   19.5161   -5.8615  -14.2090 O   0  0  0  0  0  0  0  0  0  0  0  0
   20.1313   -6.1269  -16.3471 O   0  0  0  0  0  0  0  0  0  0  0  0
  2  1  1  6
  3  2  1  0
  4  2  1  0
  4  5  1  1
  6  8  1  0
  6  4  1  0
  7  6  2  0
  9  8  1  0
 10  9  1  0
 11 10  2  0
 13 12  1  0
 14 13  2  0
 15 13  1  0
 16 15  1  6
 16 17  1  0
 17 10  1  0
 18 19  1  0
 18 16  1  0
 20 18  2  0
M  END
$$$$
