VGN.pdb
     RDKit          3D

 20 19  0  0  1  0  0  0  0  0999 V2000
   19.5624  -10.8277    9.4698 C   0  0  0  0  0  0  0  0  0  0  0  0
   20.4583  -10.2218    8.4357 C   0  0  1  0  0  0  0  0  0  0  0  0
   20.7730   -8.7869    8.8256 C   0  0  0  0  0  0  0  0  0  0  0  0
   21.7721  -10.9559    8.3157 C   0  0  2  0  0  0  0  0  0  0  0  0
   22.5589  -10.2837    7.2919 N   0  0  0  0  0  0  0  0  0  0  0  0
   21.5630  -12.3922    7.9670 C   0  0  0  0  0  0  0  0  0  0  0  0
   21.3740  -12.6964    6.7806 O   0  0  0  0  0  0  0  0  0  0  0  0
   21.5740  -13.4175    8.9482 N   0  0  0  0  0  0  0  0  0  0  0  0
   21.3792  -14.8158    8.6335 C   0  0  0  0  0  0  0  0  0  0  0  0
   19.9271  -15.1616    8.5696 C   0  0  0  0  0  0  0  0  0  0  0  0
   19.0690  -14.3487    9.0194 O   0  0  0  0  0  0  0  0  0  0  0  0
   15.4278  -17.1997    7.8369 N   0  0  0  0  0  0  0  0  0  0  0  0
   16.0743  -16.9932    6.5858 C   0  0  0  0  0  0  0  0  0  0  0  0
   15.3925  -16.9984    5.5266 O   0  0  0  0  0  0  0  0  0  0  0  0
   17.5364  -16.7795    6.5873 C   0  0  0  0  0  0  0  0  0  0  0  0
   18.0805  -16.7754    7.9801 C   0  0  2  0  0  0  0  0  0  0  0  0
   19.4848  -16.3902    8.0121 N   0  0  0  0  0  0  0  0  0  0  0  0
   17.8557  -18.0642    8.6483 C   0  0  0  0  0  0  0  0  0  0  0  0
   16.6790  -18.4407    9.2654 O   0  0  0  0  0  0  0  0  0  0  0  0
   18.7867  -18.9404    8.6925 O   0  0  0  0  0  0  0  0  0  0  0  0
  2  1  1  1
  3  2  1  0
  4  2  1  0
  4  5  1  6
  6  8  1  0
  6  4  1  0
  7  6  2  0
  9  8  1  0
 10  9  1  0
 11 10  2  0
 13 12  1  0
 14 13  2  0
 15 13  1  0
 16 15  1  6
 16 17  1  0
 17 10  1  0
 18 19  1  0
 18 16  1  0
 20 18  2  0
M  END
$$$$
