VGN.pdb
     RDKit          3D

 20 19  0  0  1  0  0  0  0  0999 V2000
   17.0083  -15.7543  -15.8674 C   0  0  0  0  0  0  0  0  0  0  0  0
   16.4893  -14.3592  -15.7146 C   0  0  1  0  0  0  0  0  0  0  0  0
   16.7180  -13.8944  -14.2857 C   0  0  0  0  0  0  0  0  0  0  0  0
   17.1944  -13.3833  -16.6255 C   0  0  2  0  0  0  0  0  0  0  0  0
   18.6267  -13.5791  -16.4546 N   0  0  0  0  0  0  0  0  0  0  0  0
   16.8104  -11.9746  -16.3154 C   0  0  0  0  0  0  0  0  0  0  0  0
   15.6416  -11.6163  -16.5194 O   0  0  0  0  0  0  0  0  0  0  0  0
   17.7384  -11.0351  -15.7956 N   0  0  0  0  0  0  0  0  0  0  0  0
   17.3568   -9.7187  -15.3334 C   0  0  0  0  0  0  0  0  0  0  0  0
   18.5386   -8.9554  -14.8303 C   0  0  0  0  0  0  0  0  0  0  0  0
   19.5838   -9.5765  -14.4823 O   0  0  0  0  0  0  0  0  0  0  0  0
   23.0387   -6.0356  -15.8130 N   0  0  0  0  0  0  0  0  0  0  0  0
   22.0913   -6.4251  -14.8248 C   0  0  0  0  0  0  0  0  0  0  0  0
   22.3249   -6.1820  -13.6111 O   0  0  0  0  0  0  0  0  0  0  0  0
   20.8599   -7.1068  -15.2748 C   0  0  0  0  0  0  0  0  0  0  0  0
   19.6985   -6.7573  -14.4004 C   0  0  2  0  0  0  0  0  0  0  0  0
   18.5154   -7.5391  -14.7328 N   0  0  0  0  0  0  0  0  0  0  0  0
   19.4211   -5.3149  -14.4267 C   0  0  0  0  0  0  0  0  0  0  0  0
   20.0025   -4.3822  -13.5906 O   0  0  0  0  0  0  0  0  0  0  0  0
   18.5855   -4.8327  -15.2667 O   0  0  0  0  0  0  0  0  0  0  0  0
  2  1  1  1
  3  2  1  0
  4  2  1  0
  4  5  1  1
  6  8  1  0
  6  4  1  0
  7  6  2  0
  9  8  1  0
 10  9  1  0
 11 10  2  0
 13 12  1  0
 14 13  2  0
 15 13  1  0
 16 15  1  6
 16 17  1  0
 17 10  1  0
 18 19  1  0
 18 16  1  0
 20 18  2  0
M  END
$$$$
