VGN.pdb
     RDKit          3D

 20 19  0  0  1  0  0  0  0  0999 V2000
   22.1475  -17.3460  -20.5313 C   0  0  0  0  0  0  0  0  0  0  0  0
   23.3094  -17.3418  -19.5884 C   0  0  1  0  0  0  0  0  0  0  0  0
   22.9649  -16.4951  -18.3742 C   0  0  0  0  0  0  0  0  0  0  0  0
   23.6486  -18.7267  -19.0920 C   0  0  2  0  0  0  0  0  0  0  0  0
   22.4579  -19.2681  -18.4530 N   0  0  0  0  0  0  0  0  0  0  0  0
   24.7963  -18.6969  -18.1380 C   0  0  0  0  0  0  0  0  0  0  0  0
   25.9493  -18.7382  -18.5906 O   0  0  0  0  0  0  0  0  0  0  0  0
   24.6096  -18.6228  -16.7332 N   0  0  0  0  0  0  0  0  0  0  0  0
   25.7032  -18.6521  -15.7870 C   0  0  0  0  0  0  0  0  0  0  0  0
   25.5350  -19.7573  -14.7956 C   0  0  0  0  0  0  0  0  0  0  0  0
   25.5840  -20.9599  -15.1836 O   0  0  0  0  0  0  0  0  0  0  0  0
   26.5779  -21.8346   -9.6965 N   0  0  0  0  0  0  0  0  0  0  0  0
   25.4093  -21.0947  -10.0322 C   0  0  0  0  0  0  0  0  0  0  0  0
   24.3174  -21.3691   -9.4671 O   0  0  0  0  0  0  0  0  0  0  0  0
   25.5326  -20.0238  -11.0428 C   0  0  0  0  0  0  0  0  0  0  0  0
   25.2438  -20.5406  -12.4158 C   0  0  2  0  0  0  0  0  0  0  0  0
   25.3196  -19.4869  -13.4185 N   0  0  0  0  0  0  0  0  0  0  0  0
   23.9555  -21.2448  -12.4647 C   0  0  0  0  0  0  0  0  0  0  0  0
   23.7884  -22.6024  -12.2747 O   0  0  0  0  0  0  0  0  0  0  0  0
   22.8753  -20.6007  -12.6984 O   0  0  0  0  0  0  0  0  0  0  0  0
  2  1  1  6
  3  2  1  0
  4  2  1  0
  4  5  1  1
  6  8  1  0
  6  4  1  0
  7  6  2  0
  9  8  1  0
 10  9  1  0
 11 10  2  0
 13 12  1  0
 14 13  2  0
 15 13  1  0
 16 15  1  1
 16 17  1  0
 17 10  1  0
 18 19  1  0
 18 16  1  0
 20 18  2  0
M  END
$$$$
