VGN.pdb
     RDKit          3D

 20 19  0  0  1  0  0  0  0  0999 V2000
   26.5954  -14.9560  -17.2016 C   0  0  0  0  0  0  0  0  0  0  0  0
   26.4825  -16.1619  -16.3228 C   0  0  1  0  0  0  0  0  0  0  0  0
   25.0368  -16.6301  -16.2996 C   0  0  0  0  0  0  0  0  0  0  0  0
   27.3224  -17.3135  -16.8207 C   0  0  2  0  0  0  0  0  0  0  0  0
   26.8344  -17.6730  -18.1442 N   0  0  0  0  0  0  0  0  0  0  0  0
   27.2503  -18.4806  -15.8930 C   0  0  0  0  0  0  0  0  0  0  0  0
   26.3607  -19.3259  -16.0661 O   0  0  0  0  0  0  0  0  0  0  0  0
   28.1655  -18.6526  -14.8222 N   0  0  0  0  0  0  0  0  0  0  0  0
   28.0853  -19.7480  -13.8810 C   0  0  0  0  0  0  0  0  0  0  0  0
   26.9121  -19.5959  -12.9684 C   0  0  0  0  0  0  0  0  0  0  0  0
   26.3694  -18.4621  -12.8293 O   0  0  0  0  0  0  0  0  0  0  0  0
   21.9495  -19.6506  -11.4337 N   0  0  0  0  0  0  0  0  0  0  0  0
   22.7398  -20.8336  -11.3948 C   0  0  0  0  0  0  0  0  0  0  0  0
   22.3908  -21.7890  -10.6517 O   0  0  0  0  0  0  0  0  0  0  0  0
   23.9508  -20.8871  -12.2399 C   0  0  0  0  0  0  0  0  0  0  0  0
   25.1819  -20.6092  -11.4381 C   0  0  2  0  0  0  0  0  0  0  0  0
   26.3886  -20.7021  -12.2484 N   0  0  0  0  0  0  0  0  0  0  0  0
   25.2567  -21.4727  -10.2520 C   0  0  0  0  0  0  0  0  0  0  0  0
   24.7374  -21.1592   -9.0114 O   0  0  0  0  0  0  0  0  0  0  0  0
   25.8363  -22.6112  -10.3169 O   0  0  0  0  0  0  0  0  0  0  0  0
  2  1  1  6
  3  2  1  0
  4  2  1  0
  4  5  1  6
  6  8  1  0
  6  4  1  0
  7  6  2  0
  9  8  1  0
 10  9  1  0
 11 10  2  0
 13 12  1  0
 14 13  2  0
 15 13  1  0
 16 15  1  6
 16 17  1  0
 17 10  1  0
 18 19  1  0
 18 16  1  0
 20 18  2  0
M  END
$$$$
