VGN.pdb
     RDKit          3D

 20 19  0  0  1  0  0  0  0  0999 V2000
   15.8828  -14.2762  -15.9021 C   0  0  0  0  0  0  0  0  0  0  0  0
   16.4644  -13.6405  -14.6787 C   0  0  1  0  0  0  0  0  0  0  0  0
   16.9627  -12.2477  -15.0277 C   0  0  0  0  0  0  0  0  0  0  0  0
   15.4479  -13.4927  -13.5723 C   0  0  2  0  0  0  0  0  0  0  0  0
   14.3410  -12.7049  -14.0952 N   0  0  0  0  0  0  0  0  0  0  0  0
   16.0435  -12.8389  -12.3699 C   0  0  0  0  0  0  0  0  0  0  0  0
   16.8114  -13.4960  -11.6526 O   0  0  0  0  0  0  0  0  0  0  0  0
   15.7594  -11.4924  -12.0230 N   0  0  0  0  0  0  0  0  0  0  0  0
   16.3888  -10.8117  -10.9127 C   0  0  0  0  0  0  0  0  0  0  0  0
   15.9082   -9.4018  -10.7964 C   0  0  0  0  0  0  0  0  0  0  0  0
   15.4309   -8.8168  -11.8109 O   0  0  0  0  0  0  0  0  0  0  0  0
   14.6215   -5.0339   -6.5665 N   0  0  0  0  0  0  0  0  0  0  0  0
   14.6368   -5.6492   -7.8498 C   0  0  0  0  0  0  0  0  0  0  0  0
   14.0996   -5.0619   -8.8261 O   0  0  0  0  0  0  0  0  0  0  0  0
   15.2913   -6.9676   -7.9793 C   0  0  0  0  0  0  0  0  0  0  0  0
   15.4918   -7.3327   -9.4154 C   0  0  2  0  0  0  0  0  0  0  0  0
   15.9755   -8.6983   -9.5648 N   0  0  0  0  0  0  0  0  0  0  0  0
   16.3663   -6.3693  -10.0974 C   0  0  0  0  0  0  0  0  0  0  0  0
   15.9285   -5.3283  -10.8922 O   0  0  0  0  0  0  0  0  0  0  0  0
   17.6374   -6.4555   -9.9816 O   0  0  0  0  0  0  0  0  0  0  0  0
  2  1  1  6
  3  2  1  0
  4  2  1  0
  4  5  1  6
  6  8  1  0
  6  4  1  0
  7  6  2  0
  9  8  1  0
 10  9  1  0
 11 10  2  0
 13 12  1  0
 14 13  2  0
 15 13  1  0
 16 15  1  1
 16 17  1  0
 17 10  1  0
 18 19  1  0
 18 16  1  0
 20 18  2  0
M  END
$$$$
