VGN.pdb
     RDKit          3D

 20 19  0  0  1  0  0  0  0  0999 V2000
   24.2146  -14.3573  -15.2858 C   0  0  0  0  0  0  0  0  0  0  0  0
   23.1992  -13.2694  -15.1292 C   0  0  1  0  0  0  0  0  0  0  0  0
   23.8993  -11.9212  -15.1782 C   0  0  0  0  0  0  0  0  0  0  0  0
   22.1698  -13.2842  -16.2335 C   0  0  2  0  0  0  0  0  0  0  0  0
   22.8745  -13.0981  -17.4935 N   0  0  0  0  0  0  0  0  0  0  0  0
   21.1445  -12.2174  -16.0359 C   0  0  0  0  0  0  0  0  0  0  0  0
   20.3023  -12.3586  -15.1378 O   0  0  0  0  0  0  0  0  0  0  0  0
   21.1038  -11.0498  -16.8416 N   0  0  0  0  0  0  0  0  0  0  0  0
   20.0821  -10.0343  -16.7118 C   0  0  0  0  0  0  0  0  0  0  0  0
   20.4986   -8.9627  -15.7575 C   0  0  0  0  0  0  0  0  0  0  0  0
   21.2705   -9.2451  -14.7964 O   0  0  0  0  0  0  0  0  0  0  0  0
   21.3024   -4.8301  -13.1235 N   0  0  0  0  0  0  0  0  0  0  0  0
   22.2640   -5.2069  -14.1027 C   0  0  0  0  0  0  0  0  0  0  0  0
   23.4328   -4.7419  -14.0359 O   0  0  0  0  0  0  0  0  0  0  0  0
   21.8407   -6.1394  -15.1679 C   0  0  0  0  0  0  0  0  0  0  0  0
   20.4193   -6.5644  -14.9807 C   0  0  2  0  0  0  0  0  0  0  0  0
   20.0447   -7.6255  -15.9054 N   0  0  0  0  0  0  0  0  0  0  0  0
   19.5012   -5.4208  -15.0659 C   0  0  0  0  0  0  0  0  0  0  0  0
   18.5073   -5.2732  -16.0133 O   0  0  0  0  0  0  0  0  0  0  0  0
   19.5852   -4.4604  -14.2250 O   0  0  0  0  0  0  0  0  0  0  0  0
  2  1  1  6
  3  2  1  0
  4  2  1  0
  4  5  1  6
  6  8  1  0
  6  4  1  0
  7  6  2  0
  9  8  1  0
 10  9  1  0
 11 10  2  0
 13 12  1  0
 14 13  2  0
 15 13  1  0
 16 15  1  6
 16 17  1  0
 17 10  1  0
 18 19  1  0
 18 16  1  0
 20 18  2  0
M  END
$$$$
