VGN.pdb
     RDKit          3D

 20 19  0  0  1  0  0  0  0  0999 V2000
   25.6714  -18.1917  -21.4501 C   0  0  0  0  0  0  0  0  0  0  0  0
   25.6621  -18.0350  -19.9620 C   0  0  1  0  0  0  0  0  0  0  0  0
   24.7819  -16.8533  -19.5892 C   0  0  0  0  0  0  0  0  0  0  0  0
   25.1056  -19.2514  -19.2619 C   0  0  2  0  0  0  0  0  0  0  0  0
   23.7064  -19.3762  -19.6437 N   0  0  0  0  0  0  0  0  0  0  0  0
   25.2435  -19.1370  -17.7800 C   0  0  0  0  0  0  0  0  0  0  0  0
   26.3730  -19.2251  -17.2776 O   0  0  0  0  0  0  0  0  0  0  0  0
   24.1255  -18.9310  -16.9306 N   0  0  0  0  0  0  0  0  0  0  0  0
   24.2401  -18.7653  -15.4983 C   0  0  0  0  0  0  0  0  0  0  0  0
   23.5139  -19.8464  -14.7660 C   0  0  0  0  0  0  0  0  0  0  0  0
   22.5810  -20.4762  -15.3426 O   0  0  0  0  0  0  0  0  0  0  0  0
   24.6908  -20.9432   -9.2722 N   0  0  0  0  0  0  0  0  0  0  0  0
   24.0990  -20.6573  -10.5345 C   0  0  0  0  0  0  0  0  0  0  0  0
   23.6194  -19.5127  -10.7502 O   0  0  0  0  0  0  0  0  0  0  0  0
   24.0738  -21.7321  -11.5483 C   0  0  0  0  0  0  0  0  0  0  0  0
   23.2671  -21.3306  -12.7416 C   0  0  2  0  0  0  0  0  0  0  0  0
   23.8488  -20.1856  -13.4285 N   0  0  0  0  0  0  0  0  0  0  0  0
   21.8620  -21.0932  -12.3848 C   0  0  0  0  0  0  0  0  0  0  0  0
   20.9471  -22.0800  -12.0745 O   0  0  0  0  0  0  0  0  0  0  0  0
   21.3978  -19.9019  -12.3443 O   0  0  0  0  0  0  0  0  0  0  0  0
  2  1  1  6
  3  2  1  0
  4  2  1  0
  4  5  1  1
  6  8  1  0
  6  4  1  0
  7  6  2  0
  9  8  1  0
 10  9  1  0
 11 10  2  0
 13 12  1  0
 14 13  2  0
 15 13  1  0
 16 15  1  1
 16 17  1  0
 17 10  1  0
 18 19  1  0
 18 16  1  0
 20 18  2  0
M  END
$$$$
