VGN.pdb
     RDKit          3D

 20 19  0  0  1  0  0  0  0  0999 V2000
   14.6211  -12.2361  -13.7319 C   0  0  0  0  0  0  0  0  0  0  0  0
   13.4512  -13.0365  -13.2525 C   0  0  1  0  0  0  0  0  0  0  0  0
   13.6734  -14.5007  -13.5942 C   0  0  0  0  0  0  0  0  0  0  0  0
   13.2690  -12.9443  -11.7566 C   0  0  2  0  0  0  0  0  0  0  0  0
   12.1687  -13.8253  -11.3930 N   0  0  0  0  0  0  0  0  0  0  0  0
   12.9904  -11.5419  -11.3278 C   0  0  0  0  0  0  0  0  0  0  0  0
   11.8872  -11.0445  -11.5952 O   0  0  0  0  0  0  0  0  0  0  0  0
   13.9459  -10.7624  -10.6255 N   0  0  0  0  0  0  0  0  0  0  0  0
   13.7210   -9.3833  -10.2515 C   0  0  0  0  0  0  0  0  0  0  0  0
   14.9811   -8.5848  -10.3355 C   0  0  0  0  0  0  0  0  0  0  0  0
   16.0817   -9.1713  -10.5453 O   0  0  0  0  0  0  0  0  0  0  0  0
   15.6277   -5.6659  -12.7110 N   0  0  0  0  0  0  0  0  0  0  0  0
   15.5591   -4.6115  -11.7575 C   0  0  0  0  0  0  0  0  0  0  0  0
   15.2089   -3.4601  -12.1295 O   0  0  0  0  0  0  0  0  0  0  0  0
   15.9072   -4.9207  -10.3551 C   0  0  0  0  0  0  0  0  0  0  0  0
   16.1920   -6.3778  -10.1776 C   0  0  2  0  0  0  0  0  0  0  0  0
   14.9718   -7.1730  -10.1840 N   0  0  0  0  0  0  0  0  0  0  0  0
   16.9950   -6.6253   -8.9726 C   0  0  0  0  0  0  0  0  0  0  0  0
   18.3752   -6.6444   -8.9320 O   0  0  0  0  0  0  0  0  0  0  0  0
   16.4239   -6.8467   -7.8496 O   0  0  0  0  0  0  0  0  0  0  0  0
  2  1  1  1
  3  2  1  0
  4  2  1  0
  4  5  1  6
  6  8  1  0
  6  4  1  0
  7  6  2  0
  9  8  1  0
 10  9  1  0
 11 10  2  0
 13 12  1  0
 14 13  2  0
 15 13  1  0
 16 15  1  1
 16 17  1  0
 17 10  1  0
 18 19  1  0
 18 16  1  0
 20 18  2  0
M  END
$$$$
