GWR.pdb
     RDKit          3D

 30 31  0  0  1  0  0  0  0  0999 V2000
   17.3415  -21.5295  -10.6154 N   0  0  0  0  0  0  0  0  0  0  0  0
   18.3857  -22.0684   -9.7864 C   0  0  0  0  0  0  0  0  0  0  0  0
   17.9861  -23.3670   -9.1690 C   0  0  0  0  0  0  0  0  0  0  0  0
   16.7618  -23.6511   -9.1184 O   0  0  0  0  0  0  0  0  0  0  0  0
   18.9111  -24.2891   -8.6406 N   0  0  0  0  0  0  0  0  0  0  0  0
   18.5327  -25.5621   -8.0401 C   0  0  1  0  0  0  0  0  0  0  0  0
   19.3818  -26.6801   -8.5042 C   0  0  0  0  0  0  0  0  0  0  0  0
   19.4533  -26.9232   -9.9406 C   0  0  0  0  0  0  0  0  0  0  0  0
   18.5309  -26.4089  -10.8707 C   0  0  0  0  0  0  0  0  0  0  0  0
   18.9114  -26.8089  -12.0801 N   0  0  0  0  0  0  0  0  0  0  0  0
   20.0390  -27.5656  -12.0243 C   0  0  0  0  0  0  0  0  0  0  0  0
   20.7887  -28.1915  -12.9894 C   0  0  0  0  0  0  0  0  0  0  0  0
   21.8965  -28.9063  -12.6381 C   0  0  0  0  0  0  0  0  0  0  0  0
   22.2549  -28.9954  -11.3185 C   0  0  0  0  0  0  0  0  0  0  0  0
   21.4924  -28.3627  -10.3720 C   0  0  0  0  0  0  0  0  0  0  0  0
   20.3585  -27.6221  -10.6664 C   0  0  0  0  0  0  0  0  0  0  0  0
   18.3816  -25.4100   -6.5944 C   0  0  0  0  0  0  0  0  0  0  0  0
   19.3488  -24.8854   -5.9380 O   0  0  0  0  0  0  0  0  0  0  0  0
   13.0467  -21.6584   -1.8750 N   0  0  0  0  0  0  0  0  0  0  0  0
   12.6636  -21.8368   -3.2441 C   0  0  0  0  0  0  0  0  0  0  0  0
   11.6008  -21.2345   -3.7039 N   0  0  0  0  0  0  0  0  0  0  0  0
   13.4812  -22.6726   -4.0240 N   0  0  0  0  0  0  0  0  0  0  0  0
   14.1500  -23.8093   -3.3273 C   0  0  0  0  0  0  0  0  0  0  0  0
   14.8930  -24.5307   -4.3972 C   0  0  0  0  0  0  0  0  0  0  0  0
   15.7691  -25.6404   -4.0446 C   0  0  0  0  0  0  0  0  0  0  0  0
   17.2176  -25.6224   -4.3847 C   0  0  2  0  0  0  0  0  0  0  0  0
   17.2277  -25.8019   -5.8861 N   0  0  0  0  0  0  0  0  0  0  0  0
   17.9112  -26.8327   -3.9268 C   0  0  0  0  0  0  0  0  0  0  0  0
   18.5303  -26.8052   -2.6509 O   0  0  0  0  0  0  0  0  0  0  0  0
   17.9889  -27.8644   -4.5846 O   0  0  0  0  0  0  0  0  0  0  0  0
  1  2  1  0
  2  3  1  0
  3  4  2  0
  5  6  1  0
  5  3  1  0
  6  7  1  1
  7  8  1  0
  8 16  1  0
  9 10  1  0
  9  8  2  0
 10 11  1  0
 11 16  2  0
 11 12  1  0
 12 13  2  0
 13 14  1  0
 15 14  2  0
 16 15  1  0
 17  6  1  0
 17 18  2  0
 20 19  1  0
 21 20  2  0
 22 20  1  0
 23 22  1  0
 24 23  1  0
 24 25  1  0
 26 27  1  0
 26 25  1  1
 27 17  1  0
 28 26  1  0
 29 28  1  0
 30 28  2  0
M  END
$$$$
