GWR.pdb
     RDKit          3D

 30 31  0  0  1  0  0  0  0  0999 V2000
   28.9789  -18.1797  -14.4363 N   0  0  0  0  0  0  0  0  0  0  0  0
   27.9649  -18.0677  -13.4228 C   0  0  0  0  0  0  0  0  0  0  0  0
   27.3230  -19.3840  -13.1358 C   0  0  0  0  0  0  0  0  0  0  0  0
   27.4951  -20.3223  -13.9555 O   0  0  0  0  0  0  0  0  0  0  0  0
   26.5347  -19.6272  -11.9936 N   0  0  0  0  0  0  0  0  0  0  0  0
   25.8911  -20.9039  -11.7107 C   0  0  1  0  0  0  0  0  0  0  0  0
   25.8262  -21.1951  -10.2624 C   0  0  0  0  0  0  0  0  0  0  0  0
   26.9894  -20.8528   -9.4516 C   0  0  0  0  0  0  0  0  0  0  0  0
   26.9430  -20.0012   -8.3322 C   0  0  0  0  0  0  0  0  0  0  0  0
   28.1709  -19.9312   -7.8271 N   0  0  0  0  0  0  0  0  0  0  0  0
   29.0481  -20.6861   -8.5396 C   0  0  0  0  0  0  0  0  0  0  0  0
   30.3945  -20.9212   -8.4084 C   0  0  0  0  0  0  0  0  0  0  0  0
   31.0352  -21.7389   -9.2929 C   0  0  0  0  0  0  0  0  0  0  0  0
   30.3276  -22.3223  -10.3110 C   0  0  0  0  0  0  0  0  0  0  0  0
   28.9847  -22.0741  -10.4231 C   0  0  0  0  0  0  0  0  0  0  0  0
   28.2787  -21.2547   -9.5564 C   0  0  0  0  0  0  0  0  0  0  0  0
   24.6395  -21.0118  -12.4576 C   0  0  0  0  0  0  0  0  0  0  0  0
   23.8747  -19.9850  -12.5057 O   0  0  0  0  0  0  0  0  0  0  0  0
   22.8753  -17.9237  -17.9214 N   0  0  0  0  0  0  0  0  0  0  0  0
   21.6696  -18.0232  -17.1536 C   0  0  0  0  0  0  0  0  0  0  0  0
   20.5565  -17.5333  -17.6276 N   0  0  0  0  0  0  0  0  0  0  0  0
   21.7681  -18.6604  -15.9047 N   0  0  0  0  0  0  0  0  0  0  0  0
   23.1261  -19.1012  -15.4733 C   0  0  0  0  0  0  0  0  0  0  0  0
   23.3299  -20.4188  -16.1361 C   0  0  0  0  0  0  0  0  0  0  0  0
   23.8544  -21.5400  -15.3671 C   0  0  0  0  0  0  0  0  0  0  0  0
   23.1397  -22.0606  -14.1703 C   0  0  2  0  0  0  0  0  0  0  0  0
   24.2335  -22.1804  -13.1331 N   0  0  0  0  0  0  0  0  0  0  0  0
   22.7212  -23.4579  -14.3369 C   0  0  0  0  0  0  0  0  0  0  0  0
   21.3786  -23.7120  -14.7175 O   0  0  0  0  0  0  0  0  0  0  0  0
   23.4640  -24.4177  -14.1632 O   0  0  0  0  0  0  0  0  0  0  0  0
  1  2  1  0
  2  3  1  0
  3  4  2  0
  5  6  1  0
  5  3  1  0
  6  7  1  1
  7  8  1  0
  8 16  1  0
  9 10  1  0
  9  8  2  0
 10 11  1  0
 11 16  2  0
 11 12  1  0
 12 13  2  0
 13 14  1  0
 15 14  2  0
 16 15  1  0
 17  6  1  0
 17 18  2  0
 20 19  1  0
 21 20  2  0
 22 20  1  0
 23 22  1  0
 24 23  1  0
 24 25  1  0
 26 27  1  0
 26 25  1  6
 27 17  1  0
 28 26  1  0
 29 28  1  0
 30 28  2  0
M  END
$$$$
