GWR.pdb
     RDKit          3D

 30 31  0  0  1  0  0  0  0  0999 V2000
   27.2084  -22.6489  -14.1040 N   0  0  0  0  0  0  0  0  0  0  0  0
   26.8259  -21.3940  -13.5151 C   0  0  0  0  0  0  0  0  0  0  0  0
   26.3529  -21.5645  -12.1099 C   0  0  0  0  0  0  0  0  0  0  0  0
   26.1473  -22.7314  -11.6879 O   0  0  0  0  0  0  0  0  0  0  0  0
   26.1256  -20.4846  -11.2341 N   0  0  0  0  0  0  0  0  0  0  0  0
   25.6418  -20.6379   -9.8678 C   0  0  1  0  0  0  0  0  0  0  0  0
   26.2658  -19.6740   -8.9361 C   0  0  0  0  0  0  0  0  0  0  0  0
   27.5553  -20.0325   -8.3563 C   0  0  0  0  0  0  0  0  0  0  0  0
   28.5974  -20.6444   -9.0774 C   0  0  0  0  0  0  0  0  0  0  0  0
   29.6229  -20.8052   -8.2467 N   0  0  0  0  0  0  0  0  0  0  0  0
   29.3365  -20.3379   -7.0030 C   0  0  0  0  0  0  0  0  0  0  0  0
   30.0603  -20.2899   -5.8372 C   0  0  0  0  0  0  0  0  0  0  0  0
   29.5061  -19.7577   -4.7098 C   0  0  0  0  0  0  0  0  0  0  0  0
   28.2251  -19.2727   -4.7486 C   0  0  0  0  0  0  0  0  0  0  0  0
   27.5210  -19.3305   -5.9227 C   0  0  0  0  0  0  0  0  0  0  0  0
   28.0291  -19.8577   -7.0995 C   0  0  0  0  0  0  0  0  0  0  0  0
   24.1821  -20.7090   -9.8570 C   0  0  0  0  0  0  0  0  0  0  0  0
   23.5462  -20.2169  -10.8545 O   0  0  0  0  0  0  0  0  0  0  0  0
   18.7853  -24.7401   -5.8935 N   0  0  0  0  0  0  0  0  0  0  0  0
   17.7307  -24.1573   -6.6688 C   0  0  0  0  0  0  0  0  0  0  0  0
   16.5039  -24.1912   -6.2243 N   0  0  0  0  0  0  0  0  0  0  0  0
   18.0975  -23.5706   -7.8921 N   0  0  0  0  0  0  0  0  0  0  0  0
   19.5509  -23.5520   -8.2268 C   0  0  0  0  0  0  0  0  0  0  0  0
   20.1013  -22.3873   -7.4801 C   0  0  0  0  0  0  0  0  0  0  0  0
   21.4851  -21.9829   -7.6920 C   0  0  0  0  0  0  0  0  0  0  0  0
   21.9482  -21.4649   -9.0078 C   0  0  2  0  0  0  0  0  0  0  0  0
   23.4383  -21.2959   -8.8134 N   0  0  0  0  0  0  0  0  0  0  0  0
   21.5118  -20.0836   -9.2462 C   0  0  0  0  0  0  0  0  0  0  0  0
   20.4524  -19.8671  -10.1641 O   0  0  0  0  0  0  0  0  0  0  0  0
   22.0121  -19.1064   -8.7003 O   0  0  0  0  0  0  0  0  0  0  0  0
  1  2  1  0
  2  3  1  0
  3  4  2  0
  5  6  1  0
  5  3  1  0
  6  7  1  1
  7  8  1  0
  8 16  1  0
  9 10  1  0
  9  8  2  0
 10 11  1  0
 11 16  2  0
 11 12  1  0
 12 13  2  0
 13 14  1  0
 15 14  2  0
 16 15  1  0
 17  6  1  0
 17 18  2  0
 20 19  1  0
 21 20  2  0
 22 20  1  0
 23 22  1  0
 24 23  1  0
 24 25  1  0
 26 27  1  0
 26 25  1  1
 27 17  1  0
 28 26  1  0
 29 28  1  0
 30 28  2  0
M  END
$$$$
