GWR.pdb
     RDKit          3D

 30 31  0  0  1  0  0  0  0  0999 V2000
   28.1865  -19.5187  -16.4704 N   0  0  0  0  0  0  0  0  0  0  0  0
   28.3875  -19.1687  -15.0903 C   0  0  0  0  0  0  0  0  0  0  0  0
   27.6674  -20.1004  -14.1735 C   0  0  0  0  0  0  0  0  0  0  0  0
   26.7552  -20.8216  -14.6529 O   0  0  0  0  0  0  0  0  0  0  0  0
   27.9583  -20.2119  -12.7994 N   0  0  0  0  0  0  0  0  0  0  0  0
   27.0914  -20.8843  -11.8400 C   0  0  1  0  0  0  0  0  0  0  0  0
   27.7710  -21.1495  -10.5538 C   0  0  0  0  0  0  0  0  0  0  0  0
   27.0351  -20.8593   -9.3283 C   0  0  0  0  0  0  0  0  0  0  0  0
   25.6471  -21.0415   -9.1842 C   0  0  0  0  0  0  0  0  0  0  0  0
   25.3221  -20.7005   -7.9410 N   0  0  0  0  0  0  0  0  0  0  0  0
   26.4097  -20.2968   -7.2331 C   0  0  0  0  0  0  0  0  0  0  0  0
   26.5693  -19.8566   -5.9423 C   0  0  0  0  0  0  0  0  0  0  0  0
   27.8066  -19.5034   -5.4884 C   0  0  0  0  0  0  0  0  0  0  0  0
   28.8863  -19.5904   -6.3276 C   0  0  0  0  0  0  0  0  0  0  0  0
   28.7042  -20.0324   -7.6118 C   0  0  0  0  0  0  0  0  0  0  0  0
   27.4742  -20.4060   -8.1298 C   0  0  0  0  0  0  0  0  0  0  0  0
   25.7984  -20.2067  -11.7706 C   0  0  0  0  0  0  0  0  0  0  0  0
   25.7898  -18.9414  -11.5695 O   0  0  0  0  0  0  0  0  0  0  0  0
   25.2972  -21.2075  -17.7956 N   0  0  0  0  0  0  0  0  0  0  0  0
   24.0174  -21.8354  -17.6512 C   0  0  0  0  0  0  0  0  0  0  0  0
   23.5928  -22.6610  -18.5687 N   0  0  0  0  0  0  0  0  0  0  0  0
   23.2827  -21.5115  -16.4977 N   0  0  0  0  0  0  0  0  0  0  0  0
   23.9174  -20.5692  -15.5314 C   0  0  0  0  0  0  0  0  0  0  0  0
   22.9309  -20.4331  -14.4245 C   0  0  0  0  0  0  0  0  0  0  0  0
   23.2127  -19.5335  -13.3133 C   0  0  0  0  0  0  0  0  0  0  0  0
   23.3020  -20.0338  -11.9148 C   0  0  2  0  0  0  0  0  0  0  0  0
   24.5629  -20.8684  -11.9207 N   0  0  0  0  0  0  0  0  0  0  0  0
   22.2722  -21.0367  -11.6164 C   0  0  0  0  0  0  0  0  0  0  0  0
   21.0193  -20.5831  -11.1303 O   0  0  0  0  0  0  0  0  0  0  0  0
   22.4336  -22.2436  -11.7601 O   0  0  0  0  0  0  0  0  0  0  0  0
  1  2  1  0
  2  3  1  0
  3  4  2  0
  5  6  1  0
  5  3  1  0
  6  7  1  1
  7  8  1  0
  8 16  1  0
  9 10  1  0
  9  8  2  0
 10 11  1  0
 11 16  2  0
 11 12  1  0
 12 13  2  0
 13 14  1  0
 15 14  2  0
 16 15  1  0
 17  6  1  0
 17 18  2  0
 20 19  1  0
 21 20  2  0
 22 20  1  0
 23 22  1  0
 24 23  1  0
 24 25  1  0
 26 27  1  0
 26 25  1  6
 27 17  1  0
 28 26  1  0
 29 28  1  0
 30 28  2  0
M  END
$$$$
