GWR.pdb
     RDKit          3D

 30 31  0  0  1  0  0  0  0  0999 V2000
   28.8104  -23.5148  -16.8467 N   0  0  0  0  0  0  0  0  0  0  0  0
   27.7008  -22.7000  -17.2623 C   0  0  0  0  0  0  0  0  0  0  0  0
   27.2725  -21.7591  -16.1859 C   0  0  0  0  0  0  0  0  0  0  0  0
   27.8699  -21.8072  -15.0801 O   0  0  0  0  0  0  0  0  0  0  0  0
   26.2337  -20.8211  -16.3471 N   0  0  0  0  0  0  0  0  0  0  0  0
   25.8129  -19.8919  -15.3060 C   0  0  1  0  0  0  0  0  0  0  0  0
   25.7880  -18.4902  -15.7763 C   0  0  0  0  0  0  0  0  0  0  0  0
   27.0394  -17.9172  -16.2593 C   0  0  0  0  0  0  0  0  0  0  0  0
   28.3073  -18.4711  -16.0020 C   0  0  0  0  0  0  0  0  0  0  0  0
   29.2117  -17.7075  -16.6074 N   0  0  0  0  0  0  0  0  0  0  0  0
   28.6306  -16.6668  -17.2604 C   0  0  0  0  0  0  0  0  0  0  0  0
   29.1418  -15.6341  -18.0069 C   0  0  0  0  0  0  0  0  0  0  0  0
   28.3047  -14.7054  -18.5531 C   0  0  0  0  0  0  0  0  0  0  0  0
   26.9533  -14.8100  -18.3519 C   0  0  0  0  0  0  0  0  0  0  0  0
   26.4647  -15.8489  -17.6038 C   0  0  0  0  0  0  0  0  0  0  0  0
   27.2633  -16.8224  -17.0247 C   0  0  0  0  0  0  0  0  0  0  0  0
   24.6028  -20.3853  -14.6517 C   0  0  0  0  0  0  0  0  0  0  0  0
   23.7206  -20.9690  -15.3748 O   0  0  0  0  0  0  0  0  0  0  0  0
   19.6593  -23.9447  -10.6959 N   0  0  0  0  0  0  0  0  0  0  0  0
   19.3452  -23.0364   -9.6332 C   0  0  0  0  0  0  0  0  0  0  0  0
   18.4404  -23.3597   -8.7498 N   0  0  0  0  0  0  0  0  0  0  0  0
   20.0527  -21.8222   -9.6117 N   0  0  0  0  0  0  0  0  0  0  0  0
   20.8418  -21.4752  -10.8289 C   0  0  0  0  0  0  0  0  0  0  0  0
   22.2084  -21.1669  -10.3246 C   0  0  0  0  0  0  0  0  0  0  0  0
   23.2258  -20.6816  -11.2481 C   0  0  0  0  0  0  0  0  0  0  0  0
   23.0642  -20.8184  -12.7210 C   0  0  2  0  0  0  0  0  0  0  0  0
   24.3583  -20.2605  -13.2692 N   0  0  0  0  0  0  0  0  0  0  0  0
   22.0729  -19.8797  -13.2609 C   0  0  0  0  0  0  0  0  0  0  0  0
   20.8999  -20.4144  -13.8526 O   0  0  0  0  0  0  0  0  0  0  0  0
   22.2017  -18.6607  -13.2328 O   0  0  0  0  0  0  0  0  0  0  0  0
  1  2  1  0
  2  3  1  0
  3  4  2  0
  5  6  1  0
  5  3  1  0
  6  7  1  6
  7  8  1  0
  8 16  1  0
  9 10  1  0
  9  8  2  0
 10 11  1  0
 11 16  2  0
 11 12  1  0
 12 13  2  0
 13 14  1  0
 15 14  2  0
 16 15  1  0
 17  6  1  0
 17 18  2  0
 20 19  1  0
 21 20  2  0
 22 20  1  0
 23 22  1  0
 24 23  1  0
 24 25  1  0
 26 27  1  0
 26 25  1  1
 27 17  1  0
 28 26  1  0
 29 28  1  0
 30 28  2  0
M  END
$$$$
