GWR.pdb
     RDKit          3D

 30 31  0  0  1  0  0  0  0  0999 V2000
   27.5303  -26.7378  -16.8404 N   0  0  0  0  0  0  0  0  0  0  0  0
   27.2431  -25.5634  -17.6190 C   0  0  0  0  0  0  0  0  0  0  0  0
   27.1281  -24.3470  -16.7621 C   0  0  0  0  0  0  0  0  0  0  0  0
   27.1539  -24.4933  -15.5131 O   0  0  0  0  0  0  0  0  0  0  0  0
   26.9922  -23.0447  -17.2822 N   0  0  0  0  0  0  0  0  0  0  0  0
   26.8547  -21.8525  -16.4551 C   0  0  1  0  0  0  0  0  0  0  0  0
   27.4909  -20.6653  -17.0652 C   0  0  0  0  0  0  0  0  0  0  0  0
   27.4191  -19.4075  -16.3301 C   0  0  0  0  0  0  0  0  0  0  0  0
   28.0904  -19.1679  -15.1167 C   0  0  0  0  0  0  0  0  0  0  0  0
   27.8192  -17.9207  -14.7447 N   0  0  0  0  0  0  0  0  0  0  0  0
   27.0020  -17.3000  -15.6358 C   0  0  0  0  0  0  0  0  0  0  0  0
   26.4576  -16.0402  -15.6788 C   0  0  0  0  0  0  0  0  0  0  0  0
   25.6474  -15.6805  -16.7159 C   0  0  0  0  0  0  0  0  0  0  0  0
   25.3809  -16.5830  -17.7120 C   0  0  0  0  0  0  0  0  0  0  0  0
   25.9349  -17.8347  -17.6491 C   0  0  0  0  0  0  0  0  0  0  0  0
   26.7652  -18.2581  -16.6233 C   0  0  0  0  0  0  0  0  0  0  0  0
   25.4681  -21.7015  -16.0185 C   0  0  0  0  0  0  0  0  0  0  0  0
   24.5381  -21.9893  -16.8514 O   0  0  0  0  0  0  0  0  0  0  0  0
   23.1697  -21.0406   -8.1155 N   0  0  0  0  0  0  0  0  0  0  0  0
   24.2057  -20.6508   -9.0254 C   0  0  0  0  0  0  0  0  0  0  0  0
   25.4291  -20.5092   -8.5930 N   0  0  0  0  0  0  0  0  0  0  0  0
   23.8251  -20.4405  -10.3619 N   0  0  0  0  0  0  0  0  0  0  0  0
   22.3955  -20.6892  -10.7072 C   0  0  0  0  0  0  0  0  0  0  0  0
   22.3720  -20.7898  -12.1926 C   0  0  0  0  0  0  0  0  0  0  0  0
   23.6147  -21.0120  -12.9205 C   0  0  0  0  0  0  0  0  0  0  0  0
   23.6270  -21.1826  -14.3987 C   0  0  2  0  0  0  0  0  0  0  0  0
   25.1002  -21.2643  -14.7300 N   0  0  0  0  0  0  0  0  0  0  0  0
   23.2220  -19.9597  -15.1028 C   0  0  0  0  0  0  0  0  0  0  0  0
   21.8676  -19.8389  -15.5062 O   0  0  0  0  0  0  0  0  0  0  0  0
   23.9874  -19.0384  -15.3650 O   0  0  0  0  0  0  0  0  0  0  0  0
  1  2  1  0
  2  3  1  0
  3  4  2  0
  5  6  1  0
  5  3  1  0
  6  7  1  6
  7  8  1  0
  8 16  1  0
  9 10  1  0
  9  8  2  0
 10 11  1  0
 11 16  2  0
 11 12  1  0
 12 13  2  0
 13 14  1  0
 15 14  2  0
 16 15  1  0
 17  6  1  0
 17 18  2  0
 20 19  1  0
 21 20  2  0
 22 20  1  0
 23 22  1  0
 24 23  1  0
 24 25  1  0
 26 27  1  0
 26 25  1  1
 27 17  1  0
 28 26  1  0
 29 28  1  0
 30 28  2  0
M  END
$$$$
