GWR.pdb
     RDKit          3D

 30 31  0  0  1  0  0  0  0  0999 V2000
   28.8226  -22.2635  -15.4918 N   0  0  0  0  0  0  0  0  0  0  0  0
   28.2416  -21.1054  -14.8681 C   0  0  0  0  0  0  0  0  0  0  0  0
   27.3164  -21.4810  -13.7590 C   0  0  0  0  0  0  0  0  0  0  0  0
   26.9232  -22.6737  -13.6891 O   0  0  0  0  0  0  0  0  0  0  0  0
   26.8622  -20.5669  -12.7878 N   0  0  0  0  0  0  0  0  0  0  0  0
   25.8741  -20.8937  -11.7674 C   0  0  1  0  0  0  0  0  0  0  0  0
   26.1481  -20.2205  -10.4797 C   0  0  0  0  0  0  0  0  0  0  0  0
   27.3691  -20.5880   -9.7714 C   0  0  0  0  0  0  0  0  0  0  0  0
   28.4070  -21.3500  -10.3394 C   0  0  0  0  0  0  0  0  0  0  0  0
   29.3640  -21.4737   -9.4248 N   0  0  0  0  0  0  0  0  0  0  0  0
   29.0350  -20.8398   -8.2685 C   0  0  0  0  0  0  0  0  0  0  0  0
   29.6858  -20.6961   -7.0681 C   0  0  0  0  0  0  0  0  0  0  0  0
   29.1023  -19.9947   -6.0536 C   0  0  0  0  0  0  0  0  0  0  0  0
   27.8650  -19.4362   -6.2403 C   0  0  0  0  0  0  0  0  0  0  0  0
   27.2336  -19.5919   -7.4464 C   0  0  0  0  0  0  0  0  0  0  0  0
   27.7747  -20.2913   -8.5136 C   0  0  0  0  0  0  0  0  0  0  0  0
   24.5249  -20.7471  -12.3097 C   0  0  0  0  0  0  0  0  0  0  0  0
   24.1595  -19.5876  -12.7143 O   0  0  0  0  0  0  0  0  0  0  0  0
   17.6432  -24.1565  -12.0083 N   0  0  0  0  0  0  0  0  0  0  0  0
   17.2780  -24.0760  -13.3914 C   0  0  0  0  0  0  0  0  0  0  0  0
   16.0251  -23.9224  -13.7236 N   0  0  0  0  0  0  0  0  0  0  0  0
   18.3234  -24.1704  -14.3261 N   0  0  0  0  0  0  0  0  0  0  0  0
   19.6966  -24.3923  -13.7880 C   0  0  0  0  0  0  0  0  0  0  0  0
   20.2348  -23.0270  -13.5364 C   0  0  0  0  0  0  0  0  0  0  0  0
   21.6206  -22.8637  -13.1165 C   0  0  0  0  0  0  0  0  0  0  0  0
   22.2307  -21.5150  -12.9651 C   0  0  2  0  0  0  0  0  0  0  0  0
   23.6087  -21.8127  -12.4184 N   0  0  0  0  0  0  0  0  0  0  0  0
   21.6244  -20.7506  -11.8681 C   0  0  0  0  0  0  0  0  0  0  0  0
   20.6007  -19.8221  -12.1871 O   0  0  0  0  0  0  0  0  0  0  0  0
   21.9539  -20.8662  -10.6927 O   0  0  0  0  0  0  0  0  0  0  0  0
  1  2  1  0
  2  3  1  0
  3  4  2  0
  5  6  1  0
  5  3  1  0
  6  7  1  1
  7  8  1  0
  8 16  1  0
  9 10  1  0
  9  8  2  0
 10 11  1  0
 11 16  2  0
 11 12  1  0
 12 13  2  0
 13 14  1  0
 15 14  2  0
 16 15  1  0
 17  6  1  0
 17 18  2  0
 20 19  1  0
 21 20  2  0
 22 20  1  0
 23 22  1  0
 24 23  1  0
 24 25  1  0
 26 27  1  0
 26 25  1  1
 27 17  1  0
 28 26  1  0
 29 28  1  0
 30 28  2  0
M  END
$$$$
