GWR.pdb
     RDKit          3D

 30 31  0  0  1  0  0  0  0  0999 V2000
   28.3777  -22.1843  -15.0337 N   0  0  0  0  0  0  0  0  0  0  0  0
   28.5693  -21.0896  -14.1212 C   0  0  0  0  0  0  0  0  0  0  0  0
   27.7898  -21.2766  -12.8624 C   0  0  0  0  0  0  0  0  0  0  0  0
   26.7036  -21.9080  -12.9224 O   0  0  0  0  0  0  0  0  0  0  0  0
   28.2099  -20.7817  -11.6120 N   0  0  0  0  0  0  0  0  0  0  0  0
   27.3969  -20.8389  -10.4037 C   0  0  1  0  0  0  0  0  0  0  0  0
   28.1632  -20.4842   -9.1899 C   0  0  0  0  0  0  0  0  0  0  0  0
   27.4318  -20.3945   -7.9311 C   0  0  0  0  0  0  0  0  0  0  0  0
   26.0792  -20.7532   -7.7818 C   0  0  0  0  0  0  0  0  0  0  0  0
   25.7501  -20.5658   -6.5074 N   0  0  0  0  0  0  0  0  0  0  0  0
   26.8016  -20.1000   -5.7832 C   0  0  0  0  0  0  0  0  0  0  0  0
   26.9433  -19.7610   -4.4602 C   0  0  0  0  0  0  0  0  0  0  0  0
   28.1424  -19.3046   -3.9960 C   0  0  0  0  0  0  0  0  0  0  0  0
   29.2018  -19.1868   -4.8570 C   0  0  0  0  0  0  0  0  0  0  0  0
   29.0381  -19.5309   -6.1733 C   0  0  0  0  0  0  0  0  0  0  0  0
   27.8469  -20.0009   -6.7034 C   0  0  0  0  0  0  0  0  0  0  0  0
   26.1358  -20.1305  -10.6130 C   0  0  0  0  0  0  0  0  0  0  0  0
   26.1836  -18.8773  -10.8756 O   0  0  0  0  0  0  0  0  0  0  0  0
   23.7483  -24.4826  -16.2931 N   0  0  0  0  0  0  0  0  0  0  0  0
   23.0941  -24.6725  -15.0325 C   0  0  0  0  0  0  0  0  0  0  0  0
   22.5857  -25.8371  -14.7346 N   0  0  0  0  0  0  0  0  0  0  0  0
   23.0416  -23.5599  -14.1754 N   0  0  0  0  0  0  0  0  0  0  0  0
   23.0022  -22.2126  -14.8142 C   0  0  0  0  0  0  0  0  0  0  0  0
   22.8669  -21.2554  -13.6818 C   0  0  0  0  0  0  0  0  0  0  0  0
   23.8574  -21.2574  -12.6130 C   0  0  0  0  0  0  0  0  0  0  0  0
   23.7946  -20.2759  -11.4963 C   0  0  2  0  0  0  0  0  0  0  0  0
   24.8727  -20.7527  -10.5492 N   0  0  0  0  0  0  0  0  0  0  0  0
   22.5816  -20.4344  -10.6845 C   0  0  0  0  0  0  0  0  0  0  0  0
   21.4148  -19.7335  -11.0834 O   0  0  0  0  0  0  0  0  0  0  0  0
   22.5198  -21.1351   -9.6803 O   0  0  0  0  0  0  0  0  0  0  0  0
  1  2  1  0
  2  3  1  0
  3  4  2  0
  5  6  1  0
  5  3  1  0
  6  7  1  1
  7  8  1  0
  8 16  1  0
  9 10  1  0
  9  8  2  0
 10 11  1  0
 11 16  2  0
 11 12  1  0
 12 13  2  0
 13 14  1  0
 15 14  2  0
 16 15  1  0
 17  6  1  0
 17 18  2  0
 20 19  1  0
 21 20  2  0
 22 20  1  0
 23 22  1  0
 24 23  1  0
 24 25  1  0
 26 27  1  0
 26 25  1  6
 27 17  1  0
 28 26  1  0
 29 28  1  0
 30 28  2  0
M  END
$$$$
