GWR.pdb
     RDKit          3D

 30 31  0  0  1  0  0  0  0  0999 V2000
   28.8380  -21.0343  -15.0140 N   0  0  0  0  0  0  0  0  0  0  0  0
   28.3447  -20.0883  -14.0499 C   0  0  0  0  0  0  0  0  0  0  0  0
   27.4245  -20.7308  -13.0662 C   0  0  0  0  0  0  0  0  0  0  0  0
   27.0659  -21.9185  -13.2734 O   0  0  0  0  0  0  0  0  0  0  0  0
   26.9383  -20.0737  -11.9187 N   0  0  0  0  0  0  0  0  0  0  0  0
   25.9774  -20.6624  -10.9944 C   0  0  1  0  0  0  0  0  0  0  0  0
   26.2272  -20.2664   -9.5918 C   0  0  0  0  0  0  0  0  0  0  0  0
   27.5031  -20.6503   -8.9984 C   0  0  0  0  0  0  0  0  0  0  0  0
   28.5254  -21.3177   -9.6984 C   0  0  0  0  0  0  0  0  0  0  0  0
   29.5437  -21.4878   -8.8607 N   0  0  0  0  0  0  0  0  0  0  0  0
   29.2712  -20.9746   -7.6321 C   0  0  0  0  0  0  0  0  0  0  0  0
   29.9943  -20.9161   -6.4665 C   0  0  0  0  0  0  0  0  0  0  0  0
   29.4565  -20.3324   -5.3567 C   0  0  0  0  0  0  0  0  0  0  0  0
   28.1924  -19.8065   -5.4130 C   0  0  0  0  0  0  0  0  0  0  0  0
   27.4886  -19.8756   -6.5867 C   0  0  0  0  0  0  0  0  0  0  0  0
   27.9807  -20.4541   -7.7461 C   0  0  0  0  0  0  0  0  0  0  0  0
   24.6177  -20.4744  -11.4963 C   0  0  0  0  0  0  0  0  0  0  0  0
   24.2198  -19.2788  -11.7286 O   0  0  0  0  0  0  0  0  0  0  0  0
   25.6118  -24.6203  -14.5187 N   0  0  0  0  0  0  0  0  0  0  0  0
   24.4602  -25.1383  -15.1958 C   0  0  0  0  0  0  0  0  0  0  0  0
   24.3045  -26.4287  -15.3161 N   0  0  0  0  0  0  0  0  0  0  0  0
   23.5480  -24.1956  -15.7001 N   0  0  0  0  0  0  0  0  0  0  0  0
   23.4202  -22.9095  -14.9554 C   0  0  0  0  0  0  0  0  0  0  0  0
   22.0885  -22.9809  -14.2932 C   0  0  0  0  0  0  0  0  0  0  0  0
   21.9492  -22.5587  -12.9054 C   0  0  0  0  0  0  0  0  0  0  0  0
   22.4243  -21.2241  -12.4501 C   0  0  2  0  0  0  0  0  0  0  0  0
   23.7252  -21.5365  -11.7454 N   0  0  0  0  0  0  0  0  0  0  0  0
   21.6054  -20.6858  -11.3569 C   0  0  0  0  0  0  0  0  0  0  0  0
   20.6528  -19.6820  -11.6680 O   0  0  0  0  0  0  0  0  0  0  0  0
   21.6995  -21.0515  -10.1904 O   0  0  0  0  0  0  0  0  0  0  0  0
  1  2  1  0
  2  3  1  0
  3  4  2  0
  5  6  1  0
  5  3  1  0
  6  7  1  1
  7  8  1  0
  8 16  1  0
  9 10  1  0
  9  8  2  0
 10 11  1  0
 11 16  2  0
 11 12  1  0
 12 13  2  0
 13 14  1  0
 15 14  2  0
 16 15  1  0
 17  6  1  0
 17 18  2  0
 20 19  1  0
 21 20  2  0
 22 20  1  0
 23 22  1  0
 24 23  1  0
 24 25  1  0
 26 27  1  0
 26 25  1  1
 27 17  1  0
 28 26  1  0
 29 28  1  0
 30 28  2  0
M  END
$$$$
