GWR.pdb
     RDKit          3D

 30 31  0  0  1  0  0  0  0  0999 V2000
   31.0771  -22.3993  -11.6602 N   0  0  0  0  0  0  0  0  0  0  0  0
   30.3313  -21.1698  -11.6527 C   0  0  0  0  0  0  0  0  0  0  0  0
   29.0136  -21.3272  -10.9699 C   0  0  0  0  0  0  0  0  0  0  0  0
   28.4235  -22.4342  -11.0613 O   0  0  0  0  0  0  0  0  0  0  0  0
   28.3988  -20.2984  -10.2292 N   0  0  0  0  0  0  0  0  0  0  0  0
   27.0967  -20.4294   -9.5875 C   0  0  1  0  0  0  0  0  0  0  0  0
   27.0292  -19.7135   -8.2955 C   0  0  0  0  0  0  0  0  0  0  0  0
   28.1020  -19.9488   -7.3357 C   0  0  0  0  0  0  0  0  0  0  0  0
   29.4173  -20.2944   -7.6976 C   0  0  0  0  0  0  0  0  0  0  0  0
   30.1268  -20.4094   -6.5791 N   0  0  0  0  0  0  0  0  0  0  0  0
   29.3684  -20.1622   -5.4787 C   0  0  0  0  0  0  0  0  0  0  0  0
   29.6498  -20.1633   -4.1349 C   0  0  0  0  0  0  0  0  0  0  0  0
   28.6690  -19.8770   -3.2306 C   0  0  0  0  0  0  0  0  0  0  0  0
   27.4040  -19.5894   -3.6717 C   0  0  0  0  0  0  0  0  0  0  0  0
   27.1453  -19.5938   -5.0173 C   0  0  0  0  0  0  0  0  0  0  0  0
   28.0985  -19.8754   -5.9832 C   0  0  0  0  0  0  0  0  0  0  0  0
   26.0325  -20.1485  -10.5490 C   0  0  0  0  0  0  0  0  0  0  0  0
   26.1602  -19.1249  -11.3091 O   0  0  0  0  0  0  0  0  0  0  0  0
   19.6437  -24.1674  -13.7518 N   0  0  0  0  0  0  0  0  0  0  0  0
   20.8795  -24.7090  -14.2341 C   0  0  0  0  0  0  0  0  0  0  0  0
   20.9237  -25.9404  -14.6646 N   0  0  0  0  0  0  0  0  0  0  0  0
   21.9945  -23.8537  -14.2110 N   0  0  0  0  0  0  0  0  0  0  0  0
   21.7602  -22.4452  -13.7800 C   0  0  0  0  0  0  0  0  0  0  0  0
   23.0911  -21.7858  -13.8854 C   0  0  0  0  0  0  0  0  0  0  0  0
   23.9563  -21.7155  -12.7150 C   0  0  0  0  0  0  0  0  0  0  0  0
   23.8815  -20.5739  -11.7635 C   0  0  2  0  0  0  0  0  0  0  0  0
   24.8791  -20.9463  -10.6898 N   0  0  0  0  0  0  0  0  0  0  0  0
   22.6185  -20.5557  -11.0152 C   0  0  0  0  0  0  0  0  0  0  0  0
   22.5586  -21.2663   -9.7891 O   0  0  0  0  0  0  0  0  0  0  0  0
   21.6120  -19.9646  -11.3903 O   0  0  0  0  0  0  0  0  0  0  0  0
  1  2  1  0
  2  3  1  0
  3  4  2  0
  5  6  1  0
  5  3  1  0
  6  7  1  1
  7  8  1  0
  8 16  1  0
  9 10  1  0
  9  8  2  0
 10 11  1  0
 11 16  2  0
 11 12  1  0
 12 13  2  0
 13 14  1  0
 15 14  2  0
 16 15  1  0
 17  6  1  0
 17 18  2  0
 20 19  1  0
 21 20  2  0
 22 20  1  0
 23 22  1  0
 24 23  1  0
 24 25  1  0
 26 27  1  0
 26 25  1  6
 27 17  1  0
 28 26  1  0
 29 28  1  0
 30 28  2  0
M  END
$$$$
