GWR.pdb
     RDKit          3D

 30 31  0  0  1  0  0  0  0  0999 V2000
   26.9748  -23.5226  -15.4927 N   0  0  0  0  0  0  0  0  0  0  0  0
   27.1136  -22.2418  -14.8538 C   0  0  0  0  0  0  0  0  0  0  0  0
   26.3385  -22.1728  -13.5804 C   0  0  0  0  0  0  0  0  0  0  0  0
   25.6200  -23.1561  -13.2660 O   0  0  0  0  0  0  0  0  0  0  0  0
   26.3718  -21.0621  -12.7141 N   0  0  0  0  0  0  0  0  0  0  0  0
   25.5506  -20.9449  -11.5157 C   0  0  1  0  0  0  0  0  0  0  0  0
   26.1554  -20.0548  -10.5015 C   0  0  0  0  0  0  0  0  0  0  0  0
   27.3548  -20.5259   -9.8181 C   0  0  0  0  0  0  0  0  0  0  0  0
   28.3828  -21.2521  -10.4475 C   0  0  0  0  0  0  0  0  0  0  0  0
   29.3210  -21.4952   -9.5373 N   0  0  0  0  0  0  0  0  0  0  0  0
   28.9885  -20.9761   -8.3261 C   0  0  0  0  0  0  0  0  0  0  0  0
   29.6224  -20.9748   -7.1081 C   0  0  0  0  0  0  0  0  0  0  0  0
   29.0395  -20.3672   -6.0345 C   0  0  0  0  0  0  0  0  0  0  0  0
   27.8198  -19.7598   -6.1796 C   0  0  0  0  0  0  0  0  0  0  0  0
   27.2051  -19.7729   -7.4042 C   0  0  0  0  0  0  0  0  0  0  0  0
   27.7465  -20.3720   -8.5306 C   0  0  0  0  0  0  0  0  0  0  0  0
   24.1625  -20.6724  -11.8828 C   0  0  0  0  0  0  0  0  0  0  0  0
   23.9417  -19.9833  -12.9401 O   0  0  0  0  0  0  0  0  0  0  0  0
   17.5383  -25.4050   -9.4752 N   0  0  0  0  0  0  0  0  0  0  0  0
   18.3711  -25.5815  -10.6276 C   0  0  0  0  0  0  0  0  0  0  0  0
   18.4523  -26.7539  -11.1957 N   0  0  0  0  0  0  0  0  0  0  0  0
   19.0657  -24.4479  -11.0835 N   0  0  0  0  0  0  0  0  0  0  0  0
   18.6422  -23.1270  -10.5353 C   0  0  0  0  0  0  0  0  0  0  0  0
   19.4346  -22.1235  -11.2982 C   0  0  0  0  0  0  0  0  0  0  0  0
   20.8589  -21.9734  -11.0296 C   0  0  0  0  0  0  0  0  0  0  0  0
   21.6756  -20.9456  -11.7302 C   0  0  2  0  0  0  0  0  0  0  0  0
   23.0557  -21.1330  -11.1414 N   0  0  0  0  0  0  0  0  0  0  0  0
   21.3415  -19.5822  -11.3001 C   0  0  0  0  0  0  0  0  0  0  0  0
   20.4787  -18.8147  -12.1237 O   0  0  0  0  0  0  0  0  0  0  0  0
   21.7676  -19.0678  -10.2719 O   0  0  0  0  0  0  0  0  0  0  0  0
  1  2  1  0
  2  3  1  0
  3  4  2  0
  5  6  1  0
  5  3  1  0
  6  7  1  1
  7  8  1  0
  8 16  1  0
  9 10  1  0
  9  8  2  0
 10 11  1  0
 11 16  2  0
 11 12  1  0
 12 13  2  0
 13 14  1  0
 15 14  2  0
 16 15  1  0
 17  6  1  0
 17 18  2  0
 20 19  1  0
 21 20  2  0
 22 20  1  0
 23 22  1  0
 24 23  1  0
 24 25  1  0
 26 27  1  0
 26 25  1  1
 27 17  1  0
 28 26  1  0
 29 28  1  0
 30 28  2  0
M  END
$$$$
