GWR.pdb
     RDKit          3D

 30 31  0  0  1  0  0  0  0  0999 V2000
   29.0694  -22.5566  -14.6043 N   0  0  0  0  0  0  0  0  0  0  0  0
   28.7723  -21.2998  -13.9717 C   0  0  0  0  0  0  0  0  0  0  0  0
   27.7116  -21.4419  -12.9315 C   0  0  0  0  0  0  0  0  0  0  0  0
   27.0985  -22.5372  -12.8515 O   0  0  0  0  0  0  0  0  0  0  0  0
   27.3636  -20.4113  -12.0362 N   0  0  0  0  0  0  0  0  0  0  0  0
   26.3373  -20.5426  -11.0096 C   0  0  1  0  0  0  0  0  0  0  0  0
   26.6488  -19.7574   -9.7959 C   0  0  0  0  0  0  0  0  0  0  0  0
   27.7586  -20.2100   -8.9647 C   0  0  0  0  0  0  0  0  0  0  0  0
   28.9170  -20.8286   -9.4705 C   0  0  0  0  0  0  0  0  0  0  0  0
   29.7192  -21.0858   -8.4420 N   0  0  0  0  0  0  0  0  0  0  0  0
   29.1717  -20.6776   -7.2670 C   0  0  0  0  0  0  0  0  0  0  0  0
   29.6106  -20.7314   -5.9671 C   0  0  0  0  0  0  0  0  0  0  0  0
   28.8313  -20.2389   -4.9613 C   0  0  0  0  0  0  0  0  0  0  0  0
   27.6101  -19.6918   -5.2564 C   0  0  0  0  0  0  0  0  0  0  0  0
   27.1919  -19.6482   -6.5606 C   0  0  0  0  0  0  0  0  0  0  0  0
   27.9379  -20.1306   -7.6244 C   0  0  0  0  0  0  0  0  0  0  0  0
   25.0130  -20.3460  -11.5955 C   0  0  0  0  0  0  0  0  0  0  0  0
   24.8325  -19.3279  -12.3521 O   0  0  0  0  0  0  0  0  0  0  0  0
   17.6732  -22.6308  -11.3069 N   0  0  0  0  0  0  0  0  0  0  0  0
   17.5324  -22.9910  -12.6865 C   0  0  0  0  0  0  0  0  0  0  0  0
   16.3986  -22.7824  -13.2988 N   0  0  0  0  0  0  0  0  0  0  0  0
   18.6568  -23.5616  -13.3073 N   0  0  0  0  0  0  0  0  0  0  0  0
   19.8848  -23.7180  -12.4752 C   0  0  0  0  0  0  0  0  0  0  0  0
   20.5481  -22.3857  -12.5168 C   0  0  0  0  0  0  0  0  0  0  0  0
   21.9311  -22.2541  -12.0768 C   0  0  0  0  0  0  0  0  0  0  0  0
   22.6337  -20.9429  -12.1110 C   0  0  2  0  0  0  0  0  0  0  0  0
   23.9279  -21.2193  -11.3793 N   0  0  0  0  0  0  0  0  0  0  0  0
   21.9961  -19.9476  -11.2402 C   0  0  0  0  0  0  0  0  0  0  0  0
   21.0953  -19.0240  -11.8296 O   0  0  0  0  0  0  0  0  0  0  0  0
   22.1995  -19.8668  -10.0338 O   0  0  0  0  0  0  0  0  0  0  0  0
  1  2  1  0
  2  3  1  0
  3  4  2  0
  5  6  1  0
  5  3  1  0
  6  7  1  1
  7  8  1  0
  8 16  1  0
  9 10  1  0
  9  8  2  0
 10 11  1  0
 11 16  2  0
 11 12  1  0
 12 13  2  0
 13 14  1  0
 15 14  2  0
 16 15  1  0
 17  6  1  0
 17 18  2  0
 20 19  1  0
 21 20  2  0
 22 20  1  0
 23 22  1  0
 24 23  1  0
 24 25  1  0
 26 27  1  0
 26 25  1  1
 27 17  1  0
 28 26  1  0
 29 28  1  0
 30 28  2  0
M  END
$$$$
