GWR.pdb
     RDKit          3D

 30 31  0  0  1  0  0  0  0  0999 V2000
   29.1750  -21.9349  -14.8228 N   0  0  0  0  0  0  0  0  0  0  0  0
   28.7738  -20.7437  -14.1244 C   0  0  0  0  0  0  0  0  0  0  0  0
   27.8280  -21.0481  -13.0109 C   0  0  0  0  0  0  0  0  0  0  0  0
   27.2863  -22.1830  -12.9826 O   0  0  0  0  0  0  0  0  0  0  0  0
   27.5122  -20.1285  -11.9913 N   0  0  0  0  0  0  0  0  0  0  0  0
   26.6252  -20.4302  -10.8748 C   0  0  1  0  0  0  0  0  0  0  0  0
   26.9180  -19.6063   -9.6823 C   0  0  0  0  0  0  0  0  0  0  0  0
   27.9306  -20.0970   -8.7541 C   0  0  0  0  0  0  0  0  0  0  0  0
   28.9859  -20.9516   -9.1234 C   0  0  0  0  0  0  0  0  0  0  0  0
   29.7222  -21.1756   -8.0393 N   0  0  0  0  0  0  0  0  0  0  0  0
   29.2269  -20.5225   -6.9553 C   0  0  0  0  0  0  0  0  0  0  0  0
   29.6320  -20.4530   -5.6452 C   0  0  0  0  0  0  0  0  0  0  0  0
   28.9236  -19.7068   -4.7491 C   0  0  0  0  0  0  0  0  0  0  0  0
   27.8076  -19.0289   -5.1645 C   0  0  0  0  0  0  0  0  0  0  0  0
   27.4215  -19.1121   -6.4766 C   0  0  0  0  0  0  0  0  0  0  0  0
   28.0993  -19.8519   -7.4327 C   0  0  0  0  0  0  0  0  0  0  0  0
   25.2364  -20.4552  -11.3294 C   0  0  0  0  0  0  0  0  0  0  0  0
   24.7481  -19.3852  -11.8375 O   0  0  0  0  0  0  0  0  0  0  0  0
   21.8286  -25.5074  -15.2766 N   0  0  0  0  0  0  0  0  0  0  0  0
   20.6646  -24.7487  -15.6267 C   0  0  0  0  0  0  0  0  0  0  0  0
   19.7739  -25.2617  -16.4312 N   0  0  0  0  0  0  0  0  0  0  0  0
   20.5557  -23.4653  -15.0643 N   0  0  0  0  0  0  0  0  0  0  0  0
   21.7640  -22.9192  -14.3812 C   0  0  0  0  0  0  0  0  0  0  0  0
   21.6486  -23.3817  -12.9706 C   0  0  0  0  0  0  0  0  0  0  0  0
   22.6329  -22.9497  -11.9868 C   0  0  0  0  0  0  0  0  0  0  0  0
   23.0323  -21.5214  -11.8659 C   0  0  2  0  0  0  0  0  0  0  0  0
   24.4096  -21.5936  -11.2458 N   0  0  0  0  0  0  0  0  0  0  0  0
   22.2670  -20.8159  -10.8305 C   0  0  0  0  0  0  0  0  0  0  0  0
   21.1816  -20.0006  -11.2416 O   0  0  0  0  0  0  0  0  0  0  0  0
   22.5136  -20.8883   -9.6317 O   0  0  0  0  0  0  0  0  0  0  0  0
  1  2  1  0
  2  3  1  0
  3  4  2  0
  5  6  1  0
  5  3  1  0
  6  7  1  1
  7  8  1  0
  8 16  1  0
  9 10  1  0
  9  8  2  0
 10 11  1  0
 11 16  2  0
 11 12  1  0
 12 13  2  0
 13 14  1  0
 15 14  2  0
 16 15  1  0
 17  6  1  0
 17 18  2  0
 20 19  1  0
 21 20  2  0
 22 20  1  0
 23 22  1  0
 24 23  1  0
 24 25  1  0
 26 27  1  0
 26 25  1  1
 27 17  1  0
 28 26  1  0
 29 28  1  0
 30 28  2  0
M  END
$$$$
