GWR.pdb
     RDKit          3D

 30 31  0  0  1  0  0  0  0  0999 V2000
   20.7596  -18.4602  -14.7353 N   0  0  0  0  0  0  0  0  0  0  0  0
   21.2791  -19.7275  -14.2973 C   0  0  0  0  0  0  0  0  0  0  0  0
   22.6602  -19.5981  -13.7470 C   0  0  0  0  0  0  0  0  0  0  0  0
   23.0645  -18.4543  -13.4147 O   0  0  0  0  0  0  0  0  0  0  0  0
   23.5324  -20.6921  -13.5817 N   0  0  0  0  0  0  0  0  0  0  0  0
   24.8550  -20.5894  -12.9779 C   0  0  1  0  0  0  0  0  0  0  0  0
   25.0430  -21.5433  -11.8638 C   0  0  0  0  0  0  0  0  0  0  0  0
   25.0248  -21.0092  -10.5066 C   0  0  0  0  0  0  0  0  0  0  0  0
   23.8497  -20.7968   -9.7622 C   0  0  0  0  0  0  0  0  0  0  0  0
   24.2059  -20.3259   -8.5710 N   0  0  0  0  0  0  0  0  0  0  0  0
   25.5555  -20.2061   -8.4643 C   0  0  0  0  0  0  0  0  0  0  0  0
   26.3742  -19.7712   -7.4515 C   0  0  0  0  0  0  0  0  0  0  0  0
   27.7272  -19.7520   -7.6265 C   0  0  0  0  0  0  0  0  0  0  0  0
   28.2623  -20.1685   -8.8172 C   0  0  0  0  0  0  0  0  0  0  0  0
   27.4266  -20.5989   -9.8143 C   0  0  0  0  0  0  0  0  0  0  0  0
   26.0464  -20.6424   -9.6964 C   0  0  0  0  0  0  0  0  0  0  0  0
   25.8824  -20.5848  -14.0173 C   0  0  0  0  0  0  0  0  0  0  0  0
   25.5613  -21.0011  -15.1857 O   0  0  0  0  0  0  0  0  0  0  0  0
   33.2785  -23.0346  -12.8434 N   0  0  0  0  0  0  0  0  0  0  0  0
   32.5837  -22.5434  -11.6907 C   0  0  0  0  0  0  0  0  0  0  0  0
   33.1224  -22.6649  -10.5080 N   0  0  0  0  0  0  0  0  0  0  0  0
   31.3317  -21.9459  -11.9162 N   0  0  0  0  0  0  0  0  0  0  0  0
   31.0075  -21.5590  -13.3197 C   0  0  0  0  0  0  0  0  0  0  0  0
   29.9095  -20.5608  -13.1983 C   0  0  0  0  0  0  0  0  0  0  0  0
   29.4659  -19.8289  -14.3777 C   0  0  0  0  0  0  0  0  0  0  0  0
   28.1361  -20.0854  -14.9941 C   0  0  2  0  0  0  0  0  0  0  0  0
   27.2032  -20.1404  -13.8054 N   0  0  0  0  0  0  0  0  0  0  0  0
   28.0264  -21.4467  -15.5329 C   0  0  0  0  0  0  0  0  0  0  0  0
   28.5733  -21.7029  -16.8163 O   0  0  0  0  0  0  0  0  0  0  0  0
   27.4868  -22.3738  -14.9391 O   0  0  0  0  0  0  0  0  0  0  0  0
  1  2  1  0
  2  3  1  0
  3  4  2  0
  5  6  1  0
  5  3  1  0
  6  7  1  1
  7  8  1  0
  8 16  1  0
  9 10  1  0
  9  8  2  0
 10 11  1  0
 11 16  2  0
 11 12  1  0
 12 13  2  0
 13 14  1  0
 15 14  2  0
 16 15  1  0
 17  6  1  0
 17 18  2  0
 20 19  1  0
 21 20  2  0
 22 20  1  0
 23 22  1  0
 24 23  1  0
 24 25  1  0
 26 27  1  0
 26 25  1  1
 27 17  1  0
 28 26  1  0
 29 28  1  0
 30 28  2  0
M  END
$$$$
