GWR.pdb
     RDKit          3D

 30 31  0  0  1  0  0  0  0  0999 V2000
   29.7040  -20.8547  -13.5858 N   0  0  0  0  0  0  0  0  0  0  0  0
   29.2883  -20.1271  -12.4172 C   0  0  0  0  0  0  0  0  0  0  0  0
   28.0611  -20.7173  -11.8065 C   0  0  0  0  0  0  0  0  0  0  0  0
   27.8770  -21.9565  -11.9178 O   0  0  0  0  0  0  0  0  0  0  0  0
   27.0999  -19.9559  -11.1125 N   0  0  0  0  0  0  0  0  0  0  0  0
   25.9278  -20.5291  -10.4630 C   0  0  1  0  0  0  0  0  0  0  0  0
   25.5627  -19.8126   -9.2221 C   0  0  0  0  0  0  0  0  0  0  0  0
   26.6236  -19.5514   -8.2557 C   0  0  0  0  0  0  0  0  0  0  0  0
   27.5777  -18.5264   -8.3952 C   0  0  0  0  0  0  0  0  0  0  0  0
   28.3709  -18.5654   -7.3290 N   0  0  0  0  0  0  0  0  0  0  0  0
   28.0102  -19.5582   -6.4738 C   0  0  0  0  0  0  0  0  0  0  0  0
   28.5190  -19.9810   -5.2707 C   0  0  0  0  0  0  0  0  0  0  0  0
   27.9464  -21.0336   -4.6181 C   0  0  0  0  0  0  0  0  0  0  0  0
   26.8628  -21.6647   -5.1705 C   0  0  0  0  0  0  0  0  0  0  0  0
   26.3713  -21.2261   -6.3720 C   0  0  0  0  0  0  0  0  0  0  0  0
   26.9083  -20.1633   -7.0813 C   0  0  0  0  0  0  0  0  0  0  0  0
   24.8607  -20.7320  -11.4408 C   0  0  0  0  0  0  0  0  0  0  0  0
   24.6935  -19.8405  -12.3458 O   0  0  0  0  0  0  0  0  0  0  0  0
   21.2154  -26.3958  -16.0506 N   0  0  0  0  0  0  0  0  0  0  0  0
   22.4994  -26.5645  -15.4375 C   0  0  0  0  0  0  0  0  0  0  0  0
   23.4649  -27.1392  -16.1017 N   0  0  0  0  0  0  0  0  0  0  0  0
   22.6384  -26.0860  -14.1233 N   0  0  0  0  0  0  0  0  0  0  0  0
   21.4371  -25.4606  -13.4984 C   0  0  0  0  0  0  0  0  0  0  0  0
   21.7163  -23.9981  -13.5106 C   0  0  0  0  0  0  0  0  0  0  0  0
   22.6932  -23.4423  -12.5832 C   0  0  0  0  0  0  0  0  0  0  0  0
   23.0081  -21.9880  -12.5690 C   0  0  2  0  0  0  0  0  0  0  0  0
   24.0124  -21.8576  -11.4461 N   0  0  0  0  0  0  0  0  0  0  0  0
   21.8866  -21.1812  -12.0723 C   0  0  0  0  0  0  0  0  0  0  0  0
   21.0489  -20.5448  -13.0237 O   0  0  0  0  0  0  0  0  0  0  0  0
   21.6342  -21.0232  -10.8829 O   0  0  0  0  0  0  0  0  0  0  0  0
  1  2  1  0
  2  3  1  0
  3  4  2  0
  5  6  1  0
  5  3  1  0
  6  7  1  1
  7  8  1  0
  8 16  1  0
  9 10  1  0
  9  8  2  0
 10 11  1  0
 11 16  2  0
 11 12  1  0
 12 13  2  0
 13 14  1  0
 15 14  2  0
 16 15  1  0
 17  6  1  0
 17 18  2  0
 20 19  1  0
 21 20  2  0
 22 20  1  0
 23 22  1  0
 24 23  1  0
 24 25  1  0
 26 27  1  0
 26 25  1  1
 27 17  1  0
 28 26  1  0
 29 28  1  0
 30 28  2  0
M  END
$$$$
