LGM.pdb
     RDKit          3D

 21 20  0  0  1  0  0  0  0  0999 V2000
   29.1465  -20.0802  -11.9291 C   0  0  0  0  0  0  0  0  0  0  0  0
   28.1902  -21.0499  -12.6530 C   0  0  2  0  0  0  0  0  0  0  0  0
   28.9605  -21.6865  -13.7525 C   0  0  0  0  0  0  0  0  0  0  0  0
   26.9930  -20.2625  -13.0133 C   0  0  0  0  0  0  0  0  0  0  0  0
   26.0204  -19.9965  -11.9014 C   0  0  2  0  0  0  0  0  0  0  0  0
   25.9752  -21.0857  -10.9453 N   0  0  0  0  0  0  0  0  0  0  0  0
   24.6832  -19.7079  -12.3865 C   0  0  0  0  0  0  0  0  0  0  0  0
   24.4856  -18.9188  -13.3742 O   0  0  0  0  0  0  0  0  0  0  0  0
   23.5411  -20.3212  -11.7503 N   0  0  0  0  0  0  0  0  0  0  0  0
   22.2632  -20.0249  -12.2848 C   0  0  0  0  0  0  0  0  0  0  0  0
   21.6452  -21.0657  -13.1230 C   0  0  0  0  0  0  0  0  0  0  0  0
   20.6955  -20.6930  -13.9028 O   0  0  0  0  0  0  0  0  0  0  0  0
   24.8448  -26.1056  -15.9570 C   0  0  0  0  0  0  0  0  0  0  0  0
   23.1434  -26.6243  -16.0010 S   0  0  0  0  0  0  0  0  0  0  0  0
   21.9629  -25.4381  -15.4494 C   0  0  0  0  0  0  0  0  0  0  0  0
   22.3700  -24.3485  -14.5603 C   0  0  0  0  0  0  0  0  0  0  0  0
   21.3512  -23.3203  -14.1891 C   0  0  2  0  0  0  0  0  0  0  0  0
   21.9788  -22.4190  -13.1643 N   0  0  0  0  0  0  0  0  0  0  0  0
   20.1791  -23.8655  -13.5210 C   0  0  0  0  0  0  0  0  0  0  0  0
   19.2356  -24.6096  -14.1794 O   0  0  0  0  0  0  0  0  0  0  0  0
   19.9908  -23.6627  -12.3025 O   0  0  0  0  0  0  0  0  0  0  0  0
  2  3  1  6
  2  1  1  0
  4  2  1  0
  5  4  1  0
  5  6  1  1
  7  5  1  0
  7  8  2  0
  9  7  1  0
 10  9  1  0
 10 11  1  0
 11 18  1  0
 12 11  2  0
 14 13  1  0
 15 14  1  0
 16 15  1  0
 17 16  1  1
 18 17  1  0
 19 20  1  0
 19 17  1  0
 21 19  2  0
M  END
$$$$
