LGM.pdb
     RDKit          3D

 21 20  0  0  1  0  0  0  0  0999 V2000
   22.7756  -21.8561  -14.1317 C   0  0  0  0  0  0  0  0  0  0  0  0
   22.9913  -20.5223  -13.3879 C   0  0  2  0  0  0  0  0  0  0  0  0
   21.6680  -20.0906  -12.8683 C   0  0  0  0  0  0  0  0  0  0  0  0
   23.6887  -19.6263  -14.3334 C   0  0  0  0  0  0  0  0  0  0  0  0
   25.0790  -20.0350  -14.7245 C   0  0  2  0  0  0  0  0  0  0  0  0
   25.1164  -21.3721  -15.2843 N   0  0  0  0  0  0  0  0  0  0  0  0
   26.0212  -19.9321  -13.6253 C   0  0  0  0  0  0  0  0  0  0  0  0
   26.2547  -18.8150  -13.0465 O   0  0  0  0  0  0  0  0  0  0  0  0
   26.7158  -21.1106  -13.1627 N   0  0  0  0  0  0  0  0  0  0  0  0
   27.6262  -20.9486  -12.0897 C   0  0  0  0  0  0  0  0  0  0  0  0
   27.1141  -21.2525  -10.7432 C   0  0  0  0  0  0  0  0  0  0  0  0
   26.6614  -22.4385  -10.5496 O   0  0  0  0  0  0  0  0  0  0  0  0
   28.3189  -18.6258   -4.3465 C   0  0  0  0  0  0  0  0  0  0  0  0
   29.3302  -19.3534   -5.6167 S   0  0  0  0  0  0  0  0  0  0  0  0
   28.4923  -20.3938   -6.7658 C   0  0  0  0  0  0  0  0  0  0  0  0
   27.1657  -20.0262   -7.2645 C   0  0  0  0  0  0  0  0  0  0  0  0
   26.5478  -20.8781   -8.3254 C   0  0  2  0  0  0  0  0  0  0  0  0
   27.0658  -20.3902   -9.6483 N   0  0  0  0  0  0  0  0  0  0  0  0
   25.1033  -20.7366   -8.4288 C   0  0  0  0  0  0  0  0  0  0  0  0
   24.2342  -21.4960   -7.6904 O   0  0  0  0  0  0  0  0  0  0  0  0
   24.6013  -19.9046   -9.2144 O   0  0  0  0  0  0  0  0  0  0  0  0
  2  3  1  6
  2  1  1  0
  4  2  1  0
  5  4  1  0
  5  6  1  1
  7  5  1  0
  7  8  2  0
  9  7  1  0
 10  9  1  0
 10 11  1  0
 11 18  1  0
 12 11  2  0
 14 13  1  0
 15 14  1  0
 16 15  1  0
 17 16  1  1
 18 17  1  0
 19 20  1  0
 19 17  1  0
 21 19  2  0
M  END
$$$$
