LGM.pdb
     RDKit          3D

 21 20  0  0  1  0  0  0  0  0999 V2000
   16.6346  -14.2513  -16.7598 C   0  0  0  0  0  0  0  0  0  0  0  0
   18.1266  -14.2748  -16.3697 C   0  0  2  0  0  0  0  0  0  0  0  0
   18.4182  -15.6287  -15.8315 C   0  0  0  0  0  0  0  0  0  0  0  0
   18.3425  -13.1156  -15.4793 C   0  0  0  0  0  0  0  0  0  0  0  0
   18.0309  -11.7688  -16.0641 C   0  0  2  0  0  0  0  0  0  0  0  0
   18.8755  -11.4606  -17.2019 N   0  0  0  0  0  0  0  0  0  0  0  0
   18.1129  -10.7019  -15.0835 C   0  0  0  0  0  0  0  0  0  0  0  0
   17.3887  -10.7056  -14.0286 O   0  0  0  0  0  0  0  0  0  0  0  0
   19.0309   -9.6064  -15.2898 N   0  0  0  0  0  0  0  0  0  0  0  0
   19.2053   -8.6948  -14.2197 C   0  0  0  0  0  0  0  0  0  0  0  0
   20.2088   -7.6358  -14.4169 C   0  0  0  0  0  0  0  0  0  0  0  0
   20.3333   -6.7731  -13.4739 O   0  0  0  0  0  0  0  0  0  0  0  0
   26.9194   -5.2180  -17.9543 C   0  0  0  0  0  0  0  0  0  0  0  0
   25.7244   -6.4756  -17.5589 S   0  0  0  0  0  0  0  0  0  0  0  0
   24.3252   -5.9426  -16.6300 C   0  0  0  0  0  0  0  0  0  0  0  0
   23.2494   -6.8824  -16.3093 C   0  0  0  0  0  0  0  0  0  0  0  0
   22.0845   -6.3812  -15.5188 C   0  0  2  0  0  0  0  0  0  0  0  0
   21.0441   -7.4647  -15.5203 N   0  0  0  0  0  0  0  0  0  0  0  0
   21.4145   -5.2363  -16.1168 C   0  0  0  0  0  0  0  0  0  0  0  0
   21.7927   -3.9447  -15.8599 O   0  0  0  0  0  0  0  0  0  0  0  0
   20.4502   -5.3997  -16.8947 O   0  0  0  0  0  0  0  0  0  0  0  0
  2  3  1  1
  2  1  1  0
  4  2  1  0
  5  4  1  0
  5  6  1  6
  7  5  1  0
  7  8  2  0
  9  7  1  0
 10  9  1  0
 10 11  1  0
 11 18  1  0
 12 11  2  0
 14 13  1  0
 15 14  1  0
 16 15  1  0
 17 16  1  6
 18 17  1  0
 19 20  1  0
 19 17  1  0
 21 19  2  0
M  END
$$$$
