LGM.pdb
     RDKit          3D

 21 20  0  0  1  0  0  0  0  0999 V2000
   20.9559  -16.0099  -19.0719 C   0  0  0  0  0  0  0  0  0  0  0  0
   20.5529  -14.5563  -19.3935 C   0  0  2  0  0  0  0  0  0  0  0  0
   20.3083  -14.4824  -20.8571 C   0  0  0  0  0  0  0  0  0  0  0  0
   21.6106  -13.6955  -18.8249 C   0  0  0  0  0  0  0  0  0  0  0  0
   21.6178  -13.5612  -17.3300 C   0  0  2  0  0  0  0  0  0  0  0  0
   20.2767  -13.4904  -16.7831 N   0  0  0  0  0  0  0  0  0  0  0  0
   22.3982  -12.4251  -16.8752 C   0  0  0  0  0  0  0  0  0  0  0  0
   23.6495  -12.3297  -17.1255 O   0  0  0  0  0  0  0  0  0  0  0  0
   21.7594  -11.3697  -16.1246 N   0  0  0  0  0  0  0  0  0  0  0  0
   22.5143  -10.1957  -15.8832 C   0  0  0  0  0  0  0  0  0  0  0  0
   21.8216   -9.1031  -15.1805 C   0  0  0  0  0  0  0  0  0  0  0  0
   20.9189   -9.4407  -14.3319 O   0  0  0  0  0  0  0  0  0  0  0  0
   23.6006   -2.4431  -14.4858 C   0  0  0  0  0  0  0  0  0  0  0  0
   21.8318   -2.6177  -14.4051 S   0  0  0  0  0  0  0  0  0  0  0  0
   21.2326   -4.2455  -14.0952 C   0  0  0  0  0  0  0  0  0  0  0  0
   21.8178   -5.3933  -14.7906 C   0  0  0  0  0  0  0  0  0  0  0  0
   21.2473   -6.7483  -14.5234 C   0  0  2  0  0  0  0  0  0  0  0  0
   22.0384   -7.7342  -15.3349 N   0  0  0  0  0  0  0  0  0  0  0  0
   19.8784   -6.9143  -14.9879 C   0  0  0  0  0  0  0  0  0  0  0  0
   19.5736   -7.2124  -16.2901 O   0  0  0  0  0  0  0  0  0  0  0  0
   18.9191   -6.7817  -14.1982 O   0  0  0  0  0  0  0  0  0  0  0  0
  2  3  1  6
  2  1  1  0
  4  2  1  0
  5  4  1  0
  5  6  1  6
  7  5  1  0
  7  8  2  0
  9  7  1  0
 10  9  1  0
 10 11  1  0
 11 18  1  0
 12 11  2  0
 14 13  1  0
 15 14  1  0
 16 15  1  0
 17 16  1  6
 18 17  1  0
 19 20  1  0
 19 17  1  0
 21 19  2  0
M  END
$$$$
