LGM.pdb
     RDKit          3D

 21 20  0  0  1  0  0  0  0  0999 V2000
   17.5912  -13.1669  -16.8598 C   0  0  0  0  0  0  0  0  0  0  0  0
   16.6159  -11.9905  -16.6508 C   0  0  2  0  0  0  0  0  0  0  0  0
   15.9870  -11.7030  -17.9658 C   0  0  0  0  0  0  0  0  0  0  0  0
   17.3951  -10.9131  -16.0066 C   0  0  0  0  0  0  0  0  0  0  0  0
   17.8881  -11.1967  -14.6176 C   0  0  2  0  0  0  0  0  0  0  0  0
   16.8835  -11.8580  -13.8076 N   0  0  0  0  0  0  0  0  0  0  0  0
   18.3643  -10.0048  -13.9399 C   0  0  0  0  0  0  0  0  0  0  0  0
   19.1805   -9.1960  -14.5030 O   0  0  0  0  0  0  0  0  0  0  0  0
   17.9120   -9.7119  -12.6001 N   0  0  0  0  0  0  0  0  0  0  0  0
   18.2268   -8.4354  -12.0730 C   0  0  0  0  0  0  0  0  0  0  0  0
   17.0960   -7.6328  -11.5783 C   0  0  0  0  0  0  0  0  0  0  0  0
   16.0328   -7.6243  -12.2984 O   0  0  0  0  0  0  0  0  0  0  0  0
   12.7252   -5.2152   -5.4976 C   0  0  0  0  0  0  0  0  0  0  0  0
   14.1276   -6.0682   -6.1841 S   0  0  0  0  0  0  0  0  0  0  0  0
   14.4041   -5.8311   -7.9081 C   0  0  0  0  0  0  0  0  0  0  0  0
   15.5337   -6.4843   -8.5722 C   0  0  0  0  0  0  0  0  0  0  0  0
   15.7846   -6.1722  -10.0119 C   0  0  2  0  0  0  0  0  0  0  0  0
   17.0510   -6.8764  -10.4076 N   0  0  0  0  0  0  0  0  0  0  0  0
   16.0565   -4.7667  -10.2722 C   0  0  0  0  0  0  0  0  0  0  0  0
   15.0609   -3.8553  -10.5079 O   0  0  0  0  0  0  0  0  0  0  0  0
   17.2309   -4.3405  -10.2946 O   0  0  0  0  0  0  0  0  0  0  0  0
  2  3  1  6
  2  1  1  0
  4  2  1  0
  5  4  1  0
  5  6  1  1
  7  5  1  0
  7  8  2  0
  9  7  1  0
 10  9  1  0
 10 11  1  0
 11 18  1  0
 12 11  2  0
 14 13  1  0
 15 14  1  0
 16 15  1  0
 17 16  1  1
 18 17  1  0
 19 20  1  0
 19 17  1  0
 21 19  2  0
M  END
$$$$
