LGM.pdb
     RDKit          3D

 21 20  0  0  1  0  0  0  0  0999 V2000
   29.0129  -20.2377  -14.2415 C   0  0  0  0  0  0  0  0  0  0  0  0
   27.7437  -19.4907  -14.7000 C   0  0  2  0  0  0  0  0  0  0  0  0
   28.1794  -18.1789  -15.2448 C   0  0  0  0  0  0  0  0  0  0  0  0
   26.8222  -19.4881  -13.5451 C   0  0  0  0  0  0  0  0  0  0  0  0
   26.3418  -20.8328  -13.0825 C   0  0  2  0  0  0  0  0  0  0  0  0
   26.2406  -21.7804  -14.1755 N   0  0  0  0  0  0  0  0  0  0  0  0
   25.0784  -20.7603  -12.3719 C   0  0  0  0  0  0  0  0  0  0  0  0
   23.9804  -20.5166  -12.9823 O   0  0  0  0  0  0  0  0  0  0  0  0
   25.0454  -20.9687  -10.9433 N   0  0  0  0  0  0  0  0  0  0  0  0
   23.8528  -20.6195  -10.2634 C   0  0  0  0  0  0  0  0  0  0  0  0
   22.6201  -20.6008  -11.0682 C   0  0  0  0  0  0  0  0  0  0  0  0
   22.3042  -19.4842  -11.6179 O   0  0  0  0  0  0  0  0  0  0  0  0
   21.4492  -24.5766  -15.8403 C   0  0  0  0  0  0  0  0  0  0  0  0
   20.0788  -23.4432  -15.8968 S   0  0  0  0  0  0  0  0  0  0  0  0
   19.7989  -22.5007  -14.4345 C   0  0  0  0  0  0  0  0  0  0  0  0
   20.8591  -22.3543  -13.4355 C   0  0  0  0  0  0  0  0  0  0  0  0
   20.5890  -21.5036  -12.2370 C   0  0  2  0  0  0  0  0  0  0  0  0
   21.7526  -21.6675  -11.3013 N   0  0  0  0  0  0  0  0  0  0  0  0
   19.4364  -21.9305  -11.4581 C   0  0  0  0  0  0  0  0  0  0  0  0
   18.1505  -21.6206  -11.8152 O   0  0  0  0  0  0  0  0  0  0  0  0
   19.5880  -22.6020  -10.4152 O   0  0  0  0  0  0  0  0  0  0  0  0
  2  3  1  1
  2  1  1  0
  4  2  1  0
  5  4  1  0
  5  6  1  6
  7  5  1  0
  7  8  2  0
  9  7  1  0
 10  9  1  0
 10 11  1  0
 11 18  1  0
 12 11  2  0
 14 13  1  0
 15 14  1  0
 16 15  1  0
 17 16  1  6
 18 17  1  0
 19 20  1  0
 19 17  1  0
 21 19  2  0
M  END
$$$$
