LGM.pdb
     RDKit          3D

 21 20  0  0  1  0  0  0  0  0999 V2000
   23.2836  -19.8006  -16.9713 C   0  0  0  0  0  0  0  0  0  0  0  0
   24.5432  -18.9200  -16.8424 C   0  0  2  0  0  0  0  0  0  0  0  0
   24.9546  -18.5385  -18.2181 C   0  0  0  0  0  0  0  0  0  0  0  0
   25.5037  -19.6850  -16.0206 C   0  0  0  0  0  0  0  0  0  0  0  0
   25.0395  -20.0608  -14.6435 C   0  0  2  0  0  0  0  0  0  0  0  0
   24.5977  -18.9072  -13.8841 N   0  0  0  0  0  0  0  0  0  0  0  0
   26.0464  -20.7902  -13.8947 C   0  0  0  0  0  0  0  0  0  0  0  0
   26.3219  -22.0117  -14.1581 O   0  0  0  0  0  0  0  0  0  0  0  0
   26.7630  -20.1331  -12.8270 N   0  0  0  0  0  0  0  0  0  0  0  0
   27.7643  -20.8810  -12.1603 C   0  0  0  0  0  0  0  0  0  0  0  0
   27.5553  -21.1226  -10.7232 C   0  0  0  0  0  0  0  0  0  0  0  0
   28.1192  -22.1619  -10.2224 O   0  0  0  0  0  0  0  0  0  0  0  0
   29.5310  -18.3674   -5.6533 C   0  0  0  0  0  0  0  0  0  0  0  0
   28.2164  -19.3360   -4.9466 S   0  0  0  0  0  0  0  0  0  0  0  0
   27.0131  -19.9442   -6.0811 C   0  0  0  0  0  0  0  0  0  0  0  0
   27.2214  -19.8062   -7.5237 C   0  0  0  0  0  0  0  0  0  0  0  0
   26.5818  -20.8078   -8.4297 C   0  0  2  0  0  0  0  0  0  0  0  0
   26.8085  -20.3433   -9.8401 N   0  0  0  0  0  0  0  0  0  0  0  0
   25.1342  -20.8797   -8.3014 C   0  0  0  0  0  0  0  0  0  0  0  0
   24.5182  -21.5039   -7.2487 O   0  0  0  0  0  0  0  0  0  0  0  0
   24.3935  -20.3686   -9.1684 O   0  0  0  0  0  0  0  0  0  0  0  0
  2  3  1  6
  2  1  1  0
  4  2  1  0
  5  4  1  0
  5  6  1  1
  7  5  1  0
  7  8  2  0
  9  7  1  0
 10  9  1  0
 10 11  1  0
 11 18  1  0
 12 11  2  0
 14 13  1  0
 15 14  1  0
 16 15  1  0
 17 16  1  1
 18 17  1  0
 19 20  1  0
 19 17  1  0
 21 19  2  0
M  END
$$$$
