LGM.pdb
     RDKit          3D

 21 20  0  0  1  0  0  0  0  0999 V2000
   30.4820  -19.4986  -12.4518 C   0  0  0  0  0  0  0  0  0  0  0  0
   29.8435  -20.8732  -12.1658 C   0  0  2  0  0  0  0  0  0  0  0  0
   30.8303  -21.6610  -11.3829 C   0  0  0  0  0  0  0  0  0  0  0  0
   29.4097  -21.4106  -13.4720 C   0  0  0  0  0  0  0  0  0  0  0  0
   28.3500  -20.6252  -14.1883 C   0  0  2  0  0  0  0  0  0  0  0  0
   28.5799  -19.1960  -14.1026 N   0  0  0  0  0  0  0  0  0  0  0  0
   27.0116  -20.9398  -13.7231 C   0  0  0  0  0  0  0  0  0  0  0  0
   26.5736  -22.1420  -13.7090 O   0  0  0  0  0  0  0  0  0  0  0  0
   26.1453  -19.8813  -13.2602 N   0  0  0  0  0  0  0  0  0  0  0  0
   24.8857  -20.2570  -12.7321 C   0  0  0  0  0  0  0  0  0  0  0  0
   24.8749  -20.7393  -11.3411 C   0  0  0  0  0  0  0  0  0  0  0  0
   24.1536  -21.7720  -11.0917 O   0  0  0  0  0  0  0  0  0  0  0  0
   29.0298  -19.1228   -6.0334 C   0  0  0  0  0  0  0  0  0  0  0  0
   27.4019  -19.5310   -5.4425 S   0  0  0  0  0  0  0  0  0  0  0  0
   26.3733  -20.4131   -6.5689 C   0  0  0  0  0  0  0  0  0  0  0  0
   26.4136  -20.1086   -8.0004 C   0  0  0  0  0  0  0  0  0  0  0  0
   25.4847  -20.8484   -8.9074 C   0  0  2  0  0  0  0  0  0  0  0  0
   25.5650  -20.1959  -10.2580 N   0  0  0  0  0  0  0  0  0  0  0  0
   24.0825  -20.7361   -8.5350 C   0  0  0  0  0  0  0  0  0  0  0  0
   23.5096  -21.5290   -7.5757 O   0  0  0  0  0  0  0  0  0  0  0  0
   23.3418  -19.8995   -9.0944 O   0  0  0  0  0  0  0  0  0  0  0  0
  2  3  1  6
  2  1  1  0
  4  2  1  0
  5  4  1  0
  5  6  1  1
  7  5  1  0
  7  8  2  0
  9  7  1  0
 10  9  1  0
 10 11  1  0
 11 18  1  0
 12 11  2  0
 14 13  1  0
 15 14  1  0
 16 15  1  0
 17 16  1  1
 18 17  1  0
 19 20  1  0
 19 17  1  0
 21 19  2  0
M  END
$$$$
