LGM.pdb
     RDKit          3D

 21 20  0  0  1  0  0  0  0  0999 V2000
   25.2717  -15.5822  -16.0115 C   0  0  0  0  0  0  0  0  0  0  0  0
   26.6167  -16.3226  -16.1588 C   0  0  2  0  0  0  0  0  0  0  0  0
   27.0837  -16.1109  -17.5533 C   0  0  0  0  0  0  0  0  0  0  0  0
   26.3788  -17.7109  -15.7126 C   0  0  0  0  0  0  0  0  0  0  0  0
   26.1525  -17.9001  -14.2409 C   0  0  2  0  0  0  0  0  0  0  0  0
   26.9201  -16.9606  -13.4467 N   0  0  0  0  0  0  0  0  0  0  0  0
   26.4261  -19.2569  -13.8039 C   0  0  0  0  0  0  0  0  0  0  0  0
   25.6761  -20.2348  -14.1483 O   0  0  0  0  0  0  0  0  0  0  0  0
   27.5694  -19.5233  -12.9629 N   0  0  0  0  0  0  0  0  0  0  0  0
   27.7638  -20.8597  -12.5354 C   0  0  0  0  0  0  0  0  0  0  0  0
   27.3907  -21.1643  -11.1442 C   0  0  0  0  0  0  0  0  0  0  0  0
   27.5354  -22.3806  -10.7587 O   0  0  0  0  0  0  0  0  0  0  0  0
   29.5973  -19.4358   -5.4913 C   0  0  0  0  0  0  0  0  0  0  0  0
   27.8570  -19.5230   -5.1315 S   0  0  0  0  0  0  0  0  0  0  0  0
   26.8384  -20.1767   -6.4121 C   0  0  0  0  0  0  0  0  0  0  0  0
   27.2298  -20.0301   -7.8152 C   0  0  0  0  0  0  0  0  0  0  0  0
   26.4489  -20.7748   -8.8489 C   0  0  2  0  0  0  0  0  0  0  0  0
   26.8948  -20.2733  -10.1929 N   0  0  0  0  0  0  0  0  0  0  0  0
   25.0198  -20.5029   -8.8181 C   0  0  0  0  0  0  0  0  0  0  0  0
   24.2010  -20.9781   -7.8276 O   0  0  0  0  0  0  0  0  0  0  0  0
   24.4839  -19.8182   -9.7156 O   0  0  0  0  0  0  0  0  0  0  0  0
  2  3  1  6
  2  1  1  0
  4  2  1  0
  5  4  1  0
  5  6  1  1
  7  5  1  0
  7  8  2  0
  9  7  1  0
 10  9  1  0
 10 11  1  0
 11 18  1  0
 12 11  2  0
 14 13  1  0
 15 14  1  0
 16 15  1  0
 17 16  1  1
 18 17  1  0
 19 20  1  0
 19 17  1  0
 21 19  2  0
M  END
$$$$
