LGM.pdb
     RDKit          3D

 21 20  0  0  1  0  0  0  0  0999 V2000
   25.2202  -23.7543  -18.4459 C   0  0  0  0  0  0  0  0  0  0  0  0
   24.0998  -23.7222  -17.3865 C   0  0  2  0  0  0  0  0  0  0  0  0
   22.8121  -23.5794  -18.1138 C   0  0  0  0  0  0  0  0  0  0  0  0
   24.4695  -22.6663  -16.4213 C   0  0  0  0  0  0  0  0  0  0  0  0
   25.7439  -22.8870  -15.6597 C   0  0  2  0  0  0  0  0  0  0  0  0
   25.7615  -24.1721  -14.9883 N   0  0  0  0  0  0  0  0  0  0  0  0
   26.0153  -21.8268  -14.7063 C   0  0  0  0  0  0  0  0  0  0  0  0
   26.2085  -20.6198  -15.0849 O   0  0  0  0  0  0  0  0  0  0  0  0
   26.0684  -22.1271  -13.2948 N   0  0  0  0  0  0  0  0  0  0  0  0
   26.1284  -21.0311  -12.3994 C   0  0  0  0  0  0  0  0  0  0  0  0
   26.1250  -21.3560  -10.9635 C   0  0  0  0  0  0  0  0  0  0  0  0
   25.8277  -22.5636  -10.6436 O   0  0  0  0  0  0  0  0  0  0  0  0
   29.0902  -18.0827   -5.9267 C   0  0  0  0  0  0  0  0  0  0  0  0
   28.1154  -19.3378   -5.1266 S   0  0  0  0  0  0  0  0  0  0  0  0
   27.0976  -20.3124   -6.1844 C   0  0  0  0  0  0  0  0  0  0  0  0
   27.1154  -20.0958   -7.6322 C   0  0  0  0  0  0  0  0  0  0  0  0
   26.2423  -20.9560   -8.4870 C   0  0  2  0  0  0  0  0  0  0  0  0
   26.4105  -20.4929   -9.9060 N   0  0  0  0  0  0  0  0  0  0  0  0
   24.8199  -20.8000   -8.2225 C   0  0  0  0  0  0  0  0  0  0  0  0
   24.1861  -21.4500   -7.1963 O   0  0  0  0  0  0  0  0  0  0  0  0
   24.1178  -20.0574   -8.9416 O   0  0  0  0  0  0  0  0  0  0  0  0
  2  3  1  6
  2  1  1  0
  4  2  1  0
  5  4  1  0
  5  6  1  1
  7  5  1  0
  7  8  2  0
  9  7  1  0
 10  9  1  0
 10 11  1  0
 11 18  1  0
 12 11  2  0
 14 13  1  0
 15 14  1  0
 16 15  1  0
 17 16  1  1
 18 17  1  0
 19 20  1  0
 19 17  1  0
 21 19  2  0
M  END
$$$$
