LGM.pdb
     RDKit          3D

 21 20  0  0  1  0  0  0  0  0999 V2000
   21.8842  -20.7110  -17.4045 C   0  0  0  0  0  0  0  0  0  0  0  0
   22.0280  -20.6959  -15.8690 C   0  0  2  0  0  0  0  0  0  0  0  0
   20.6557  -20.6786  -15.2999 C   0  0  0  0  0  0  0  0  0  0  0  0
   22.9248  -19.5669  -15.5460 C   0  0  0  0  0  0  0  0  0  0  0  0
   24.3944  -19.8726  -15.5443 C   0  0  2  0  0  0  0  0  0  0  0  0
   24.6567  -21.2863  -15.7328 N   0  0  0  0  0  0  0  0  0  0  0  0
   25.0613  -19.4013  -14.3444 C   0  0  0  0  0  0  0  0  0  0  0  0
   24.8552  -18.2259  -13.8823 O   0  0  0  0  0  0  0  0  0  0  0  0
   25.9787  -20.2697  -13.6449 N   0  0  0  0  0  0  0  0  0  0  0  0
   26.5395  -19.7850  -12.4378 C   0  0  0  0  0  0  0  0  0  0  0  0
   26.1220  -20.4653  -11.2007 C   0  0  0  0  0  0  0  0  0  0  0  0
   25.6380  -21.6482  -11.3252 O   0  0  0  0  0  0  0  0  0  0  0  0
   30.0309  -19.7403   -5.3432 C   0  0  0  0  0  0  0  0  0  0  0  0
   28.3303  -19.4068   -5.7463 S   0  0  0  0  0  0  0  0  0  0  0  0
   27.6624  -20.3309   -7.0897 C   0  0  0  0  0  0  0  0  0  0  0  0
   26.2683  -20.1428   -7.4954 C   0  0  0  0  0  0  0  0  0  0  0  0
   25.7947  -20.8260   -8.7371 C   0  0  2  0  0  0  0  0  0  0  0  0
   26.1944  -19.9648   -9.9012 N   0  0  0  0  0  0  0  0  0  0  0  0
   24.3466  -20.9239   -8.8409 C   0  0  0  0  0  0  0  0  0  0  0  0
   23.6254  -21.8910   -8.1914 O   0  0  0  0  0  0  0  0  0  0  0  0
   23.7041  -20.1155   -9.5445 O   0  0  0  0  0  0  0  0  0  0  0  0
  2  3  1  1
  2  1  1  0
  4  2  1  0
  5  4  1  0
  5  6  1  1
  7  5  1  0
  7  8  2  0
  9  7  1  0
 10  9  1  0
 10 11  1  0
 11 18  1  0
 12 11  2  0
 14 13  1  0
 15 14  1  0
 16 15  1  0
 17 16  1  1
 18 17  1  0
 19 20  1  0
 19 17  1  0
 21 19  2  0
M  END
$$$$
