LGM.pdb
     RDKit          3D

 21 20  0  0  1  0  0  0  0  0999 V2000
   29.1718  -16.7783  -17.8577 C   0  0  0  0  0  0  0  0  0  0  0  0
   28.0607  -16.2885  -18.8088 C   0  0  2  0  0  0  0  0  0  0  0  0
   28.4145  -14.9058  -19.2216 C   0  0  0  0  0  0  0  0  0  0  0  0
   26.7828  -16.4916  -18.0956 C   0  0  0  0  0  0  0  0  0  0  0  0
   26.5398  -17.8724  -17.5595 C   0  0  2  0  0  0  0  0  0  0  0  0
   26.7394  -18.8921  -18.5709 N   0  0  0  0  0  0  0  0  0  0  0  0
   25.2239  -18.0166  -16.9643 C   0  0  0  0  0  0  0  0  0  0  0  0
   24.8411  -17.2701  -15.9980 O   0  0  0  0  0  0  0  0  0  0  0  0
   24.3149  -19.0199  -17.4667 N   0  0  0  0  0  0  0  0  0  0  0  0
   23.0307  -19.0886  -16.8729 C   0  0  0  0  0  0  0  0  0  0  0  0
   22.9211  -19.8800  -15.6363 C   0  0  0  0  0  0  0  0  0  0  0  0
   22.5486  -21.1024  -15.7621 O   0  0  0  0  0  0  0  0  0  0  0  0
   26.8382  -21.1135  -11.2394 C   0  0  0  0  0  0  0  0  0  0  0  0
   25.3727  -21.3755  -10.2651 S   0  0  0  0  0  0  0  0  0  0  0  0
   23.9398  -20.4865  -10.7764 C   0  0  0  0  0  0  0  0  0  0  0  0
   23.9210  -19.7935  -12.0659 C   0  0  0  0  0  0  0  0  0  0  0  0
   23.1854  -20.4300  -13.2003 C   0  0  2  0  0  0  0  0  0  0  0  0
   23.1785  -19.4469  -14.3360 N   0  0  0  0  0  0  0  0  0  0  0  0
   21.7775  -20.6756  -12.9267 C   0  0  0  0  0  0  0  0  0  0  0  0
   20.8285  -19.6907  -13.0089 O   0  0  0  0  0  0  0  0  0  0  0  0
   21.3839  -21.8147  -12.5964 O   0  0  0  0  0  0  0  0  0  0  0  0
  2  3  1  1
  2  1  1  0
  4  2  1  0
  5  4  1  0
  5  6  1  6
  7  5  1  0
  7  8  2  0
  9  7  1  0
 10  9  1  0
 10 11  1  0
 11 18  1  0
 12 11  2  0
 14 13  1  0
 15 14  1  0
 16 15  1  0
 17 16  1  1
 18 17  1  0
 19 20  1  0
 19 17  1  0
 21 19  2  0
M  END
$$$$
