LGM.pdb
     RDKit          3D

 21 20  0  0  1  0  0  0  0  0999 V2000
   12.9928  -21.0127   -0.2207 C   0  0  0  0  0  0  0  0  0  0  0  0
   13.2060  -22.1202    0.8312 C   0  0  2  0  0  0  0  0  0  0  0  0
   11.9830  -22.9639    0.8342 C   0  0  0  0  0  0  0  0  0  0  0  0
   13.5769  -21.4358    2.0871 C   0  0  0  0  0  0  0  0  0  0  0  0
   14.8479  -20.6382    2.0520 C   0  0  2  0  0  0  0  0  0  0  0  0
   15.9039  -21.3276    1.3362 N   0  0  0  0  0  0  0  0  0  0  0  0
   15.3097  -20.2652    3.3765 C   0  0  0  0  0  0  0  0  0  0  0  0
   14.5967  -19.5412    4.1543 O   0  0  0  0  0  0  0  0  0  0  0  0
   16.6003  -20.7173    3.8404 N   0  0  0  0  0  0  0  0  0  0  0  0
   16.9626  -20.3925    5.1707 C   0  0  0  0  0  0  0  0  0  0  0  0
   18.1391  -19.5231    5.3367 C   0  0  0  0  0  0  0  0  0  0  0  0
   18.8369  -19.2858    4.2852 O   0  0  0  0  0  0  0  0  0  0  0  0
   22.4851  -14.2754    9.4706 C   0  0  0  0  0  0  0  0  0  0  0  0
   20.9457  -15.1026    9.1365 S   0  0  0  0  0  0  0  0  0  0  0  0
   21.0091  -16.3909    7.9359 C   0  0  0  0  0  0  0  0  0  0  0  0
   19.7990  -17.1385    7.5896 C   0  0  0  0  0  0  0  0  0  0  0  0
   19.9005  -18.2058    6.5485 C   0  0  2  0  0  0  0  0  0  0  0  0
   18.5822  -18.9251    6.5159 N   0  0  0  0  0  0  0  0  0  0  0  0
   20.8708  -19.2442    6.8608 C   0  0  0  0  0  0  0  0  0  0  0  0
   22.1672  -19.1975    6.4197 O   0  0  0  0  0  0  0  0  0  0  0  0
   20.5429  -20.2333    7.5505 O   0  0  0  0  0  0  0  0  0  0  0  0
  2  3  1  1
  2  1  1  0
  4  2  1  0
  5  4  1  0
  5  6  1  1
  7  5  1  0
  7  8  2  0
  9  7  1  0
 10  9  1  0
 10 11  1  0
 11 18  1  0
 12 11  2  0
 14 13  1  0
 15 14  1  0
 16 15  1  0
 17 16  1  1
 18 17  1  0
 19 20  1  0
 19 17  1  0
 21 19  2  0
M  END
$$$$
