MED.pdb
     RDKit          3D

 26 25  0  0  1  0  0  0  0  0999 V2000
   27.4753  -12.4191  -14.5234 C   0  0  0  0  0  0  0  0  0  0  0  0
   27.6964  -12.8292  -16.2807 S   0  0  0  0  0  0  0  0  0  0  0  0
   27.7516  -11.3111  -17.2106 C   0  0  0  0  0  0  0  0  0  0  0  0
   26.4832  -10.5840  -17.4043 C   0  0  0  0  0  0  0  0  0  0  0  0
   25.2885  -11.3113  -17.8873 C   0  0  2  0  0  0  0  0  0  0  0  0
   25.6155  -11.6603  -19.3024 N   0  0  0  0  0  0  0  0  0  0  0  0
   24.0482  -10.5201  -17.8582 C   0  0  0  0  0  0  0  0  0  0  0  0
   23.7310   -9.6895  -18.7383 O   0  0  0  0  0  0  0  0  0  0  0  0
   23.0897  -10.6517  -16.7857 N   0  0  0  0  0  0  0  0  0  0  0  0
   21.8484   -9.8768  -16.7696 C   0  0  1  0  0  0  0  0  0  0  0  0
   20.7514  -10.8651  -16.4913 C   0  0  0  0  0  0  0  0  0  0  0  0
   19.3754  -10.2982  -16.4646 C   0  0  0  0  0  0  0  0  0  0  0  0
   18.4071  -11.4006  -16.2360 C   0  0  0  0  0  0  0  0  0  0  0  0
   17.9093  -11.6220  -15.1013 O   0  0  0  0  0  0  0  0  0  0  0  0
   21.9255   -8.7622  -15.8181 C   0  0  0  0  0  0  0  0  0  0  0  0
   22.7572   -8.8124  -14.8919 O   0  0  0  0  0  0  0  0  0  0  0  0
   18.0261  -12.2208  -17.2845 O   0  0  0  0  0  0  0  0  0  0  0  0
   21.0759   -7.6386  -15.9346 N   0  0  0  0  0  0  0  0  0  0  0  0
   21.1364   -6.4552  -15.0925 C   0  0  1  0  0  0  0  0  0  0  0  0
   22.5397   -5.9977  -14.8726 C   0  0  0  0  0  0  0  0  0  0  0  0
   22.7050   -4.7828  -14.0844 C   0  0  0  0  0  0  0  0  0  0  0  0
   23.2782   -3.7235  -14.4606 O   0  0  0  0  0  0  0  0  0  0  0  0
   20.2018   -5.3958  -15.4916 C   0  0  0  0  0  0  0  0  0  0  0  0
   19.3953   -4.8005  -14.5449 O   0  0  0  0  0  0  0  0  0  0  0  0
   22.1960   -4.7314  -12.7713 O   0  0  0  0  0  0  0  0  0  0  0  0
   20.1230   -5.0238  -16.6743 O   0  0  0  0  0  0  0  0  0  0  0  0
  2  1  1  0
  3  4  1  0
  3  2  1  0
  4  5  1  0
  5  7  1  0
  5  6  1  6
  7  8  2  0
  9  7  1  0
 10  9  1  0
 10 11  1  1
 11 12  1  0
 12 13  1  0
 13 14  2  0
 13 17  1  0
 15 10  1  0
 16 15  2  0
 18 15  1  0
 19 20  1  6
 19 18  1  0
 20 21  1  0
 21 22  2  0
 21 25  1  0
 23 19  1  0
 24 23  1  0
 26 23  2  0
M  END
$$$$
