MED.pdb
     RDKit          3D

 26 25  0  0  1  0  0  0  0  0999 V2000
   34.3482  -39.6648   -8.7658 C   0  0  0  0  0  0  0  0  0  0  0  0
   33.4304  -38.7795   -7.4699 S   0  0  0  0  0  0  0  0  0  0  0  0
   34.4480  -37.4463   -6.8701 C   0  0  0  0  0  0  0  0  0  0  0  0
   33.9159  -36.6262   -5.7659 C   0  0  0  0  0  0  0  0  0  0  0  0
   32.7722  -35.7202   -6.0119 C   0  0  2  0  0  0  0  0  0  0  0  0
   33.3249  -34.6634   -6.9113 N   0  0  0  0  0  0  0  0  0  0  0  0
   32.2316  -35.0883   -4.7979 C   0  0  0  0  0  0  0  0  0  0  0  0
   32.8706  -34.2778   -4.0908 O   0  0  0  0  0  0  0  0  0  0  0  0
   30.8944  -35.3676   -4.3287 N   0  0  0  0  0  0  0  0  0  0  0  0
   30.3938  -34.8136   -3.0702 C   0  0  1  0  0  0  0  0  0  0  0  0
   28.9299  -34.5550   -3.2892 C   0  0  0  0  0  0  0  0  0  0  0  0
   28.6114  -33.3586   -4.1153 C   0  0  0  0  0  0  0  0  0  0  0  0
   27.1365  -33.1961   -4.1752 C   0  0  0  0  0  0  0  0  0  0  0  0
   26.4264  -33.1937   -3.1359 O   0  0  0  0  0  0  0  0  0  0  0  0
   30.6978  -35.6965   -1.9382 C   0  0  0  0  0  0  0  0  0  0  0  0
   31.5472  -36.5964   -2.0825 O   0  0  0  0  0  0  0  0  0  0  0  0
   26.5025  -33.0415   -5.3963 O   0  0  0  0  0  0  0  0  0  0  0  0
   30.0461  -35.5435   -0.6933 N   0  0  0  0  0  0  0  0  0  0  0  0
   30.3062  -36.3474    0.4897 C   0  0  1  0  0  0  0  0  0  0  0  0
   31.7635  -36.4268    0.8012 C   0  0  0  0  0  0  0  0  0  0  0  0
   32.1199  -37.0873    2.0508 C   0  0  0  0  0  0  0  0  0  0  0  0
   31.3142  -37.5523    2.9033 O   0  0  0  0  0  0  0  0  0  0  0  0
   29.4522  -36.0095    1.6349 C   0  0  0  0  0  0  0  0  0  0  0  0
   29.2888  -34.6908    2.0029 O   0  0  0  0  0  0  0  0  0  0  0  0
   33.4784  -37.2486    2.3890 O   0  0  0  0  0  0  0  0  0  0  0  0
   28.8708  -36.8954    2.2835 O   0  0  0  0  0  0  0  0  0  0  0  0
  2  1  1  0
  3  4  1  0
  3  2  1  0
  4  5  1  0
  5  7  1  0
  5  6  1  6
  7  8  2  0
  9  7  1  0
 10  9  1  0
 10 11  1  6
 11 12  1  0
 12 13  1  0
 13 14  2  0
 13 17  1  0
 15 10  1  0
 16 15  2  0
 18 15  1  0
 19 20  1  1
 19 18  1  0
 20 21  1  0
 21 22  2  0
 21 25  1  0
 23 19  1  0
 24 23  1  0
 26 23  2  0
M  END
$$$$
