MED.pdb
     RDKit          3D

 26 25  0  0  1  0  0  0  0  0999 V2000
   26.4070  -15.3138  -14.7827 C   0  0  0  0  0  0  0  0  0  0  0  0
   24.8957  -14.3210  -14.9713 S   0  0  0  0  0  0  0  0  0  0  0  0
   25.2973  -12.8547  -15.8995 C   0  0  0  0  0  0  0  0  0  0  0  0
   24.2348  -11.8475  -16.0762 C   0  0  0  0  0  0  0  0  0  0  0  0
   22.9134  -12.2609  -16.5985 C   0  0  2  0  0  0  0  0  0  0  0  0
   23.1914  -12.7039  -17.9977 N   0  0  0  0  0  0  0  0  0  0  0  0
   21.9107  -11.1843  -16.6219 C   0  0  0  0  0  0  0  0  0  0  0  0
   21.9011  -10.2594  -17.4643 O   0  0  0  0  0  0  0  0  0  0  0  0
   20.8435  -11.1206  -15.6507 N   0  0  0  0  0  0  0  0  0  0  0  0
   19.8669  -10.0307  -15.6572 C   0  0  1  0  0  0  0  0  0  0  0  0
   18.5776  -10.6322  -15.1738 C   0  0  0  0  0  0  0  0  0  0  0  0
   17.8400  -11.4476  -16.1770 C   0  0  0  0  0  0  0  0  0  0  0  0
   16.6337  -12.0252  -15.5317 C   0  0  0  0  0  0  0  0  0  0  0  0
   16.7010  -13.0337  -14.7814 O   0  0  0  0  0  0  0  0  0  0  0  0
   20.3400   -8.8834  -14.8740 C   0  0  0  0  0  0  0  0  0  0  0  0
   21.0741   -9.0842  -13.8876 O   0  0  0  0  0  0  0  0  0  0  0  0
   15.3898  -11.4562  -15.7462 O   0  0  0  0  0  0  0  0  0  0  0  0
   19.9782   -7.5613  -15.2186 N   0  0  0  0  0  0  0  0  0  0  0  0
   20.4496   -6.3635  -14.5428 C   0  0  1  0  0  0  0  0  0  0  0  0
   21.9335   -6.3594  -14.3844 C   0  0  0  0  0  0  0  0  0  0  0  0
   22.5152   -5.1587  -13.7974 C   0  0  0  0  0  0  0  0  0  0  0  0
   22.6212   -4.9087  -12.5652 O   0  0  0  0  0  0  0  0  0  0  0  0
   19.8873   -5.1192  -15.0817 C   0  0  0  0  0  0  0  0  0  0  0  0
   19.9965   -3.9488  -14.3610 O   0  0  0  0  0  0  0  0  0  0  0  0
   23.0225   -4.1489  -14.6394 O   0  0  0  0  0  0  0  0  0  0  0  0
   19.3104   -5.1010  -16.1818 O   0  0  0  0  0  0  0  0  0  0  0  0
  2  1  1  0
  3  4  1  0
  3  2  1  0
  4  5  1  0
  5  7  1  0
  5  6  1  6
  7  8  2  0
  9  7  1  0
 10  9  1  0
 10 11  1  1
 11 12  1  0
 12 13  1  0
 13 14  2  0
 13 17  1  0
 15 10  1  0
 16 15  2  0
 18 15  1  0
 19 20  1  6
 19 18  1  0
 20 21  1  0
 21 22  2  0
 21 25  1  0
 23 19  1  0
 24 23  1  0
 26 23  2  0
M  END
$$$$
