MED.pdb
     RDKit          3D

 26 25  0  0  1  0  0  0  0  0999 V2000
   15.1795  -12.5538  -19.3443 C   0  0  0  0  0  0  0  0  0  0  0  0
   16.0347  -14.1473  -19.5306 S   0  0  0  0  0  0  0  0  0  0  0  0
   17.7889  -13.8622  -19.4116 C   0  0  0  0  0  0  0  0  0  0  0  0
   18.2647  -12.9838  -18.3269 C   0  0  0  0  0  0  0  0  0  0  0  0
   19.7126  -12.7132  -18.1854 C   0  0  2  0  0  0  0  0  0  0  0  0
   20.2877  -14.0123  -17.7240 N   0  0  0  0  0  0  0  0  0  0  0  0
   20.0372  -11.6649  -17.2052 C   0  0  0  0  0  0  0  0  0  0  0  0
   19.9482  -11.8175  -15.9667 O   0  0  0  0  0  0  0  0  0  0  0  0
   20.4916  -10.3568  -17.6162 N   0  0  0  0  0  0  0  0  0  0  0  0
   20.6910   -9.2772  -16.6486 C   0  0  1  0  0  0  0  0  0  0  0  0
   21.5413   -8.2533  -17.3459 C   0  0  0  0  0  0  0  0  0  0  0  0
   21.8100   -7.0128  -16.5686 C   0  0  0  0  0  0  0  0  0  0  0  0
   22.6334   -6.0964  -17.3976 C   0  0  0  0  0  0  0  0  0  0  0  0
   22.9675   -4.9530  -16.9907 O   0  0  0  0  0  0  0  0  0  0  0  0
   19.4109   -8.7691  -16.1420 C   0  0  0  0  0  0  0  0  0  0  0  0
   18.4541   -8.6438  -16.9299 O   0  0  0  0  0  0  0  0  0  0  0  0
   23.0574   -6.4882  -18.6561 O   0  0  0  0  0  0  0  0  0  0  0  0
   19.2467   -8.4214  -14.7819 N   0  0  0  0  0  0  0  0  0  0  0  0
   18.0289   -7.8822  -14.1991 C   0  0  1  0  0  0  0  0  0  0  0  0
   17.6297   -8.6158  -12.9623 C   0  0  0  0  0  0  0  0  0  0  0  0
   16.4555   -8.1086  -12.2634 C   0  0  0  0  0  0  0  0  0  0  0  0
   15.6226   -7.2751  -12.7148 O   0  0  0  0  0  0  0  0  0  0  0  0
   18.0307   -6.4199  -14.0706 C   0  0  0  0  0  0  0  0  0  0  0  0
   16.8525   -5.7531  -13.8087 O   0  0  0  0  0  0  0  0  0  0  0  0
   16.1759   -8.5578  -10.9572 O   0  0  0  0  0  0  0  0  0  0  0  0
   19.0806   -5.7675  -14.1952 O   0  0  0  0  0  0  0  0  0  0  0  0
  2  1  1  0
  3  4  1  0
  3  2  1  0
  4  5  1  0
  5  7  1  0
  5  6  1  1
  7  8  2  0
  9  7  1  0
 10  9  1  0
 10 11  1  6
 11 12  1  0
 12 13  1  0
 13 14  2  0
 13 17  1  0
 15 10  1  0
 16 15  2  0
 18 15  1  0
 19 20  1  1
 19 18  1  0
 20 21  1  0
 21 22  2  0
 21 25  1  0
 23 19  1  0
 24 23  1  0
 26 23  2  0
M  END
$$$$
