MED.pdb
     RDKit          3D

 26 25  0  0  1  0  0  0  0  0999 V2000
   24.5582  -19.8630   -7.9480 C   0  0  0  0  0  0  0  0  0  0  0  0
   26.2438  -20.5432   -7.9094 S   0  0  0  0  0  0  0  0  0  0  0  0
   27.0199  -20.2140   -9.4784 C   0  0  0  0  0  0  0  0  0  0  0  0
   26.1560  -20.1841  -10.6732 C   0  0  0  0  0  0  0  0  0  0  0  0
   25.5357  -21.4362  -11.1600 C   0  0  2  0  0  0  0  0  0  0  0  0
   26.6893  -22.2631  -11.6258 N   0  0  0  0  0  0  0  0  0  0  0  0
   24.5935  -21.2487  -12.2746 C   0  0  0  0  0  0  0  0  0  0  0  0
   24.9353  -21.2147  -13.4776 O   0  0  0  0  0  0  0  0  0  0  0  0
   23.1757  -21.0874  -12.0502 N   0  0  0  0  0  0  0  0  0  0  0  0
   22.2145  -21.1521  -13.1517 C   0  0  1  0  0  0  0  0  0  0  0  0
   20.9643  -21.7498  -12.5706 C   0  0  0  0  0  0  0  0  0  0  0  0
   19.8461  -21.9470  -13.5329 C   0  0  0  0  0  0  0  0  0  0  0  0
   18.7308  -22.6375  -12.8369 C   0  0  0  0  0  0  0  0  0  0  0  0
   18.8213  -22.9991  -11.6347 O   0  0  0  0  0  0  0  0  0  0  0  0
   22.0315  -19.8387  -13.7802 C   0  0  0  0  0  0  0  0  0  0  0  0
   21.8991  -18.8335  -13.0563 O   0  0  0  0  0  0  0  0  0  0  0  0
   17.5490  -22.9017  -13.5082 O   0  0  0  0  0  0  0  0  0  0  0  0
   22.0031  -19.6964  -15.1862 N   0  0  0  0  0  0  0  0  0  0  0  0
   21.7745  -18.4476  -15.8946 C   0  0  1  0  0  0  0  0  0  0  0  0
   22.3405  -18.4774  -17.2751 C   0  0  0  0  0  0  0  0  0  0  0  0
   23.7772  -18.2585  -17.3869 C   0  0  0  0  0  0  0  0  0  0  0  0
   24.4682  -18.3731  -18.4365 O   0  0  0  0  0  0  0  0  0  0  0  0
   20.3914  -17.9630  -15.8095 C   0  0  0  0  0  0  0  0  0  0  0  0
   20.1382  -16.6076  -15.8154 O   0  0  0  0  0  0  0  0  0  0  0  0
   24.5140  -17.8820  -16.2462 O   0  0  0  0  0  0  0  0  0  0  0  0
   19.4387  -18.7564  -15.7311 O   0  0  0  0  0  0  0  0  0  0  0  0
  2  1  1  0
  3  4  1  0
  3  2  1  0
  4  5  1  0
  5  7  1  0
  5  6  1  6
  7  8  2  0
  9  7  1  0
 10  9  1  0
 10 11  1  1
 11 12  1  0
 12 13  1  0
 13 14  2  0
 13 17  1  0
 15 10  1  0
 16 15  2  0
 18 15  1  0
 19 20  1  6
 19 18  1  0
 20 21  1  0
 21 22  2  0
 21 25  1  0
 23 19  1  0
 24 23  1  0
 26 23  2  0
M  END
$$$$
