MED.pdb
     RDKit          3D

 26 25  0  0  1  0  0  0  0  0999 V2000
   29.0652  -11.7500  -18.4328 C   0  0  0  0  0  0  0  0  0  0  0  0
   29.2416  -12.5896  -16.8299 S   0  0  0  0  0  0  0  0  0  0  0  0
   27.7305  -12.3741  -15.9120 C   0  0  0  0  0  0  0  0  0  0  0  0
   26.8454  -11.2627  -16.3073 C   0  0  0  0  0  0  0  0  0  0  0  0
   25.9234  -10.6712  -15.3125 C   0  0  2  0  0  0  0  0  0  0  0  0
   25.1367  -11.8336  -14.8012 N   0  0  0  0  0  0  0  0  0  0  0  0
   25.0003   -9.6686  -15.8673 C   0  0  0  0  0  0  0  0  0  0  0  0
   25.3723   -8.6332  -16.4628 O   0  0  0  0  0  0  0  0  0  0  0  0
   23.5674   -9.8152  -15.7595 N   0  0  0  0  0  0  0  0  0  0  0  0
   22.6512   -8.8994  -16.4401 C   0  0  1  0  0  0  0  0  0  0  0  0
   21.6498   -9.7698  -17.1453 C   0  0  0  0  0  0  0  0  0  0  0  0
   20.7208  -10.5199  -16.2567 C   0  0  0  0  0  0  0  0  0  0  0  0
   19.7484  -11.2631  -17.0977 C   0  0  0  0  0  0  0  0  0  0  0  0
   18.6701  -10.7410  -17.4841 O   0  0  0  0  0  0  0  0  0  0  0  0
   22.0698   -7.9301  -15.5042 C   0  0  0  0  0  0  0  0  0  0  0  0
   21.9160   -8.2563  -14.3117 O   0  0  0  0  0  0  0  0  0  0  0  0
   20.0130  -12.5672  -17.4800 O   0  0  0  0  0  0  0  0  0  0  0  0
   21.6833   -6.6394  -15.9314 N   0  0  0  0  0  0  0  0  0  0  0  0
   21.1829   -5.5871  -15.0621 C   0  0  1  0  0  0  0  0  0  0  0  0
   21.6451   -4.2366  -15.4974 C   0  0  0  0  0  0  0  0  0  0  0  0
   23.0855   -4.0139  -15.4851 C   0  0  0  0  0  0  0  0  0  0  0  0
   23.9057   -4.4923  -14.6541 O   0  0  0  0  0  0  0  0  0  0  0  0
   19.7447   -5.6825  -14.7839 C   0  0  0  0  0  0  0  0  0  0  0  0
   19.1940   -4.9424  -13.7592 O   0  0  0  0  0  0  0  0  0  0  0  0
   23.6709   -3.1950  -16.4713 O   0  0  0  0  0  0  0  0  0  0  0  0
   19.0099   -6.4230  -15.4585 O   0  0  0  0  0  0  0  0  0  0  0  0
  2  1  1  0
  3  4  1  0
  3  2  1  0
  4  5  1  0
  5  7  1  0
  5  6  1  6
  7  8  2  0
  9  7  1  0
 10  9  1  0
 10 11  1  1
 11 12  1  0
 12 13  1  0
 13 14  2  0
 13 17  1  0
 15 10  1  0
 16 15  2  0
 18 15  1  0
 19 20  1  6
 19 18  1  0
 20 21  1  0
 21 22  2  0
 21 25  1  0
 23 19  1  0
 24 23  1  0
 26 23  2  0
M  END
$$$$
