MED.pdb
     RDKit          3D

 26 25  0  0  1  0  0  0  0  0999 V2000
   15.1364   -9.9475  -19.2740 C   0  0  0  0  0  0  0  0  0  0  0  0
   15.5218  -11.5444  -18.4951 S   0  0  0  0  0  0  0  0  0  0  0  0
   15.4295  -11.3456  -16.7274 C   0  0  0  0  0  0  0  0  0  0  0  0
   16.5668  -10.6905  -16.0549 C   0  0  0  0  0  0  0  0  0  0  0  0
   17.9323  -11.2331  -16.2296 C   0  0  2  0  0  0  0  0  0  0  0  0
   17.8566  -12.6131  -15.6630 N   0  0  0  0  0  0  0  0  0  0  0  0
   18.9770  -10.4761  -15.5221 C   0  0  0  0  0  0  0  0  0  0  0  0
   18.9202  -10.1778  -14.3085 O   0  0  0  0  0  0  0  0  0  0  0  0
   20.1679  -10.0148  -16.1969 N   0  0  0  0  0  0  0  0  0  0  0  0
   21.2159   -9.2826  -15.4847 C   0  0  1  0  0  0  0  0  0  0  0  0
   22.5182   -9.8479  -15.9768 C   0  0  0  0  0  0  0  0  0  0  0  0
   22.8830  -11.1808  -15.4239 C   0  0  0  0  0  0  0  0  0  0  0  0
   24.1090  -11.6644  -16.1081 C   0  0  0  0  0  0  0  0  0  0  0  0
   24.0576  -12.2846  -17.2022 O   0  0  0  0  0  0  0  0  0  0  0  0
   21.0707   -7.8331  -15.6617 C   0  0  0  0  0  0  0  0  0  0  0  0
   20.5245   -7.4002  -16.6944 O   0  0  0  0  0  0  0  0  0  0  0  0
   25.3543  -11.4387  -15.5466 O   0  0  0  0  0  0  0  0  0  0  0  0
   21.5382   -6.9248  -14.6848 N   0  0  0  0  0  0  0  0  0  0  0  0
   21.4351   -5.4774  -14.7731 C   0  0  1  0  0  0  0  0  0  0  0  0
   20.0691   -5.0392  -15.1845 C   0  0  0  0  0  0  0  0  0  0  0  0
   19.8377   -3.6005  -15.2199 C   0  0  0  0  0  0  0  0  0  0  0  0
   20.5060   -2.7549  -15.8761 O   0  0  0  0  0  0  0  0  0  0  0  0
   21.9793   -4.7724  -13.6062 C   0  0  0  0  0  0  0  0  0  0  0  0
   22.0773   -3.3971  -13.6200 O   0  0  0  0  0  0  0  0  0  0  0  0
   18.7811   -3.0476  -14.4690 O   0  0  0  0  0  0  0  0  0  0  0  0
   22.3566   -5.3960  -12.6000 O   0  0  0  0  0  0  0  0  0  0  0  0
  2  1  1  0
  3  4  1  0
  3  2  1  0
  4  5  1  0
  5  7  1  0
  5  6  1  1
  7  8  2  0
  9  7  1  0
 10  9  1  0
 10 11  1  6
 11 12  1  0
 12 13  1  0
 13 14  2  0
 13 17  1  0
 15 10  1  0
 16 15  2  0
 18 15  1  0
 19 20  1  1
 19 18  1  0
 20 21  1  0
 21 22  2  0
 21 25  1  0
 23 19  1  0
 24 23  1  0
 26 23  2  0
M  END
$$$$
