MED.pdb
     RDKit          3D

 26 25  0  0  1  0  0  0  0  0999 V2000
   28.8267  -17.2140  -16.4762 C   0  0  0  0  0  0  0  0  0  0  0  0
   27.0422  -17.0419  -16.7784 S   0  0  0  0  0  0  0  0  0  0  0  0
   26.1716  -18.0621  -15.6063 C   0  0  0  0  0  0  0  0  0  0  0  0
   24.6981  -18.0647  -15.6673 C   0  0  0  0  0  0  0  0  0  0  0  0
   23.9919  -19.2210  -16.2622 C   0  0  2  0  0  0  0  0  0  0  0  0
   24.6128  -19.3786  -17.6116 N   0  0  0  0  0  0  0  0  0  0  0  0
   22.5414  -19.0272  -16.4166 C   0  0  0  0  0  0  0  0  0  0  0  0
   21.9982  -18.6490  -17.4782 O   0  0  0  0  0  0  0  0  0  0  0  0
   21.6241  -19.2662  -15.3267 N   0  0  0  0  0  0  0  0  0  0  0  0
   20.1774  -19.1317  -15.5008 C   0  0  1  0  0  0  0  0  0  0  0  0
   19.5619  -20.2342  -14.6863 C   0  0  0  0  0  0  0  0  0  0  0  0
   19.2896  -21.4965  -15.4262 C   0  0  0  0  0  0  0  0  0  0  0  0
   18.6512  -22.4666  -14.5007 C   0  0  0  0  0  0  0  0  0  0  0  0
   17.4143  -22.4466  -14.2680 O   0  0  0  0  0  0  0  0  0  0  0  0
   19.7193  -17.7820  -15.1513 C   0  0  0  0  0  0  0  0  0  0  0  0
   20.2363  -17.1994  -14.1790 O   0  0  0  0  0  0  0  0  0  0  0  0
   19.4170  -23.4288  -13.8645 O   0  0  0  0  0  0  0  0  0  0  0  0
   18.7065  -17.1358  -15.8959 N   0  0  0  0  0  0  0  0  0  0  0  0
   18.1839  -15.8081  -15.6177 C   0  0  1  0  0  0  0  0  0  0  0  0
   19.0400  -14.7367  -16.2059 C   0  0  0  0  0  0  0  0  0  0  0  0
   18.5756  -13.3674  -16.0217 C   0  0  0  0  0  0  0  0  0  0  0  0
   18.5516  -12.7295  -14.9332 O   0  0  0  0  0  0  0  0  0  0  0  0
   16.7490  -15.6666  -15.8935 C   0  0  0  0  0  0  0  0  0  0  0  0
   15.9906  -14.7895  -15.1473 O   0  0  0  0  0  0  0  0  0  0  0  0
   18.0974  -12.6403  -17.1302 O   0  0  0  0  0  0  0  0  0  0  0  0
   16.2015  -16.3271  -16.7920 O   0  0  0  0  0  0  0  0  0  0  0  0
  2  1  1  0
  3  4  1  0
  3  2  1  0
  4  5  1  0
  5  7  1  0
  5  6  1  6
  7  8  2  0
  9  7  1  0
 10  9  1  0
 10 11  1  1
 11 12  1  0
 12 13  1  0
 13 14  2  0
 13 17  1  0
 15 10  1  0
 16 15  2  0
 18 15  1  0
 19 20  1  6
 19 18  1  0
 20 21  1  0
 21 22  2  0
 21 25  1  0
 23 19  1  0
 24 23  1  0
 26 23  2  0
M  END
$$$$
