TLL.pdb
     RDKit          3D

 24 23  0  0  1  0  0  0  0  0999 V2000
   30.8936  -24.1552  -18.6930 C   0  0  0  0  0  0  0  0  0  0  0  0
   30.4471  -22.8809  -17.9779 C   0  0  1  0  0  0  0  0  0  0  0  0
   30.4774  -21.8233  -18.8729 O   0  0  0  0  0  0  0  0  0  0  0  0
   29.0397  -23.1146  -17.4901 C   0  0  2  0  0  0  0  0  0  0  0  0
   28.0969  -23.2838  -18.5564 N   0  0  0  0  0  0  0  0  0  0  0  0
   28.6236  -21.9670  -16.6267 C   0  0  0  0  0  0  0  0  0  0  0  0
   29.2431  -21.6781  -15.5749 O   0  0  0  0  0  0  0  0  0  0  0  0
   28.1598  -17.2160  -16.8954 C   0  0  0  0  0  0  0  0  0  0  0  0
   27.1931  -18.0284  -17.6563 C   0  0  2  0  0  0  0  0  0  0  0  0
   26.3446  -17.0984  -18.5323 C   0  0  0  0  0  0  0  0  0  0  0  0
   26.3779  -19.0451  -16.9886 C   0  0  0  0  0  0  0  0  0  0  0  0
   26.9851  -20.0878  -16.1225 C   0  0  2  0  0  0  0  0  0  0  0  0
   27.5048  -21.1773  -16.9915 N   0  0  0  0  0  0  0  0  0  0  0  0
   26.0841  -20.6626  -15.1191 C   0  0  0  0  0  0  0  0  0  0  0  0
   25.1631  -21.4757  -15.3664 O   0  0  0  0  0  0  0  0  0  0  0  0
   25.3099  -20.3000   -8.9232 C   0  0  0  0  0  0  0  0  0  0  0  0
   24.8073  -20.9184  -10.2336 C   0  0  2  0  0  0  0  0  0  0  0  0
   24.6712  -22.4170  -10.0905 C   0  0  0  0  0  0  0  0  0  0  0  0
   25.7496  -20.5350  -11.3306 C   0  0  0  0  0  0  0  0  0  0  0  0
   25.2643  -20.8408  -12.7191 C   0  0  2  0  0  0  0  0  0  0  0  0
   26.1883  -20.3278  -13.7212 N   0  0  0  0  0  0  0  0  0  0  0  0
   23.9519  -20.2147  -12.9641 C   0  0  0  0  0  0  0  0  0  0  0  0
   23.8985  -18.9978  -13.2556 O   0  0  0  0  0  0  0  0  0  0  0  0
   22.7482  -20.8909  -12.8944 O   0  0  0  0  0  0  0  0  0  0  0  0
  2  4  1  0
  2  1  1  6
  3  2  1  0
  4  5  1  6
  6  4  1  0
  6 13  1  0
  7  6  2  0
  9  8  1  1
  9 11  1  0
  9 10  1  0
 12 11  1  6
 12 13  1  0
 14 12  1  0
 15 14  2  0
 17 16  1  1
 17 19  1  0
 18 17  1  0
 20 19  1  1
 20 21  1  0
 20 22  1  0
 21 14  1  0
 22 24  1  0
 23 22  2  0
M  END
$$$$
