TLL.pdb
     RDKit          3D

 24 23  0  0  1  0  0  0  0  0999 V2000
   16.2109  -11.6217  -17.5774 C   0  0  0  0  0  0  0  0  0  0  0  0
   17.3743  -10.8726  -16.9292 C   0  0  1  0  0  0  0  0  0  0  0  0
   16.8716   -9.8788  -16.1046 O   0  0  0  0  0  0  0  0  0  0  0  0
   18.1558  -11.8780  -16.1218 C   0  0  2  0  0  0  0  0  0  0  0  0
   17.3709  -12.5126  -15.1041 N   0  0  0  0  0  0  0  0  0  0  0  0
   19.3332  -11.1979  -15.4998 C   0  0  0  0  0  0  0  0  0  0  0  0
   19.3835  -10.9682  -14.2676 O   0  0  0  0  0  0  0  0  0  0  0  0
   24.0917  -11.6780  -14.6205 C   0  0  0  0  0  0  0  0  0  0  0  0
   23.5613  -11.6088  -15.9944 C   0  0  2  0  0  0  0  0  0  0  0  0
   24.6765  -11.9887  -16.9764 C   0  0  0  0  0  0  0  0  0  0  0  0
   22.8070  -10.4391  -16.4493 C   0  0  0  0  0  0  0  0  0  0  0  0
   21.5612  -10.0007  -15.7698 C   0  0  2  0  0  0  0  0  0  0  0  0
   20.4262  -10.7972  -16.3079 N   0  0  0  0  0  0  0  0  0  0  0  0
   21.2517   -8.5740  -15.9020 C   0  0  0  0  0  0  0  0  0  0  0  0
   22.0050   -7.6414  -15.5368 O   0  0  0  0  0  0  0  0  0  0  0  0
   20.4276   -5.8232  -19.4341 C   0  0  0  0  0  0  0  0  0  0  0  0
   19.2700   -6.7894  -19.1540 C   0  0  2  0  0  0  0  0  0  0  0  0
   18.2112   -6.6675  -20.2259 C   0  0  0  0  0  0  0  0  0  0  0  0
   18.7323   -6.5014  -17.7879 C   0  0  0  0  0  0  0  0  0  0  0  0
   19.7115   -6.7010  -16.6660 C   0  0  2  0  0  0  0  0  0  0  0  0
   20.0151   -8.1134  -16.4817 N   0  0  0  0  0  0  0  0  0  0  0  0
   19.1604   -6.1962  -15.3949 C   0  0  0  0  0  0  0  0  0  0  0  0
   18.7550   -7.0125  -14.5357 O   0  0  0  0  0  0  0  0  0  0  0  0
   19.0577   -4.8551  -15.0757 O   0  0  0  0  0  0  0  0  0  0  0  0
  2  4  1  0
  2  1  1  1
  3  2  1  0
  4  5  1  1
  6  4  1  0
  6 13  1  0
  7  6  2  0
  9  8  1  1
  9 11  1  0
  9 10  1  0
 12 11  1  6
 12 13  1  0
 14 12  1  0
 15 14  2  0
 17 16  1  6
 17 19  1  0
 18 17  1  0
 20 19  1  6
 20 21  1  0
 20 22  1  0
 21 14  1  0
 22 24  1  0
 23 22  2  0
M  END
$$$$
