TLL.pdb
     RDKit          3D

 24 23  0  0  1  0  0  0  0  0999 V2000
   19.8622   -9.5642  -19.5258 C   0  0  0  0  0  0  0  0  0  0  0  0
   19.1066  -10.6603  -18.7759 C   0  0  1  0  0  0  0  0  0  0  0  0
   18.5185  -11.5160  -19.6936 O   0  0  0  0  0  0  0  0  0  0  0  0
   20.1165  -11.4035  -17.9386 C   0  0  2  0  0  0  0  0  0  0  0  0
   19.6368  -12.6722  -17.4754 N   0  0  0  0  0  0  0  0  0  0  0  0
   20.5046  -10.5543  -16.7708 C   0  0  0  0  0  0  0  0  0  0  0  0
   19.7793  -10.4691  -15.7509 O   0  0  0  0  0  0  0  0  0  0  0  0
   23.9950  -10.7877  -13.6515 C   0  0  0  0  0  0  0  0  0  0  0  0
   24.3159  -10.3108  -15.0092 C   0  0  2  0  0  0  0  0  0  0  0  0
   25.8404  -10.2527  -15.1671 C   0  0  0  0  0  0  0  0  0  0  0  0
   23.6632   -9.1216  -15.5603 C   0  0  0  0  0  0  0  0  0  0  0  0
   22.1845   -9.0111  -15.6453 C   0  0  2  0  0  0  0  0  0  0  0  0
   21.7175   -9.8221  -16.8014 N   0  0  0  0  0  0  0  0  0  0  0  0
   21.6713   -7.6445  -15.7792 C   0  0  0  0  0  0  0  0  0  0  0  0
   21.7629   -6.7564  -14.8999 O   0  0  0  0  0  0  0  0  0  0  0  0
   17.7697   -4.5492  -19.5162 C   0  0  0  0  0  0  0  0  0  0  0  0
   18.9460   -4.4130  -18.5416 C   0  0  2  0  0  0  0  0  0  0  0  0
   19.9923   -3.4796  -19.1062 C   0  0  0  0  0  0  0  0  0  0  0  0
   19.4917   -5.7780  -18.2637 C   0  0  0  0  0  0  0  0  0  0  0  0
   20.4509   -5.8546  -17.1099 C   0  0  2  0  0  0  0  0  0  0  0  0
   20.9977   -7.1974  -16.9723 N   0  0  0  0  0  0  0  0  0  0  0  0
   19.7735   -5.5196  -15.8437 C   0  0  0  0  0  0  0  0  0  0  0  0
   18.8185   -6.2299  -15.4531 O   0  0  0  0  0  0  0  0  0  0  0  0
   20.1259   -4.4535  -15.0373 O   0  0  0  0  0  0  0  0  0  0  0  0
  2  4  1  0
  2  1  1  6
  3  2  1  0
  4  5  1  1
  6  4  1  0
  6 13  1  0
  7  6  2  0
  9  8  1  1
  9 11  1  0
  9 10  1  0
 12 11  1  6
 12 13  1  0
 14 12  1  0
 15 14  2  0
 17 16  1  6
 17 19  1  0
 18 17  1  0
 20 19  1  6
 20 21  1  0
 20 22  1  0
 21 14  1  0
 22 24  1  0
 23 22  2  0
M  END
$$$$
