TLL.pdb
     RDKit          3D

 24 23  0  0  1  0  0  0  0  0999 V2000
   17.4960   -7.2825  -17.7432 C   0  0  0  0  0  0  0  0  0  0  0  0
   16.4633   -8.3822  -17.5008 C   0  0  1  0  0  0  0  0  0  0  0  0
   15.6614   -8.5079  -18.6239 O   0  0  0  0  0  0  0  0  0  0  0  0
   17.2243   -9.6603  -17.2544 C   0  0  2  0  0  0  0  0  0  0  0  0
   16.3877  -10.8240  -17.2725 N   0  0  0  0  0  0  0  0  0  0  0  0
   17.9280   -9.5656  -15.9386 C   0  0  0  0  0  0  0  0  0  0  0  0
   17.3233   -9.7524  -14.8555 O   0  0  0  0  0  0  0  0  0  0  0  0
   23.8120   -9.7961  -13.9103 C   0  0  0  0  0  0  0  0  0  0  0  0
   22.3923   -9.4763  -13.6743 C   0  0  2  0  0  0  0  0  0  0  0  0
   21.9267  -10.1952  -12.4020 C   0  0  0  0  0  0  0  0  0  0  0  0
   21.4094   -9.5842  -14.7543 C   0  0  0  0  0  0  0  0  0  0  0  0
   20.0363   -9.0348  -14.6181 C   0  0  2  0  0  0  0  0  0  0  0  0
   19.3108   -9.2584  -15.8971 N   0  0  0  0  0  0  0  0  0  0  0  0
   19.9690   -7.6123  -14.2705 C   0  0  0  0  0  0  0  0  0  0  0  0
   20.1040   -7.1513  -13.1130 O   0  0  0  0  0  0  0  0  0  0  0  0
   22.6144   -4.2054  -14.9934 C   0  0  0  0  0  0  0  0  0  0  0  0
   21.8576   -4.6662  -16.2453 C   0  0  2  0  0  0  0  0  0  0  0  0
   22.4138   -3.9879  -17.4763 C   0  0  0  0  0  0  0  0  0  0  0  0
   20.4015   -4.3845  -16.0494 C   0  0  0  0  0  0  0  0  0  0  0  0
   19.7450   -5.1732  -14.9521 C   0  0  2  0  0  0  0  0  0  0  0  0
   19.7341   -6.5956  -15.2646 N   0  0  0  0  0  0  0  0  0  0  0  0
   18.3449   -4.7486  -14.7685 C   0  0  0  0  0  0  0  0  0  0  0  0
   18.1044   -3.5843  -14.3745 O   0  0  0  0  0  0  0  0  0  0  0  0
   17.2532   -5.5624  -15.0070 O   0  0  0  0  0  0  0  0  0  0  0  0
  2  4  1  0
  2  1  1  6
  3  2  1  0
  4  5  1  1
  6  4  1  0
  6 13  1  0
  7  6  2  0
  9  8  1  6
  9 11  1  0
  9 10  1  0
 12 11  1  6
 12 13  1  0
 14 12  1  0
 15 14  2  0
 17 16  1  1
 17 19  1  0
 18 17  1  0
 20 19  1  6
 20 21  1  0
 20 22  1  0
 21 14  1  0
 22 24  1  0
 23 22  2  0
M  END
$$$$
