TLL.pdb
     RDKit          3D

 24 23  0  0  1  0  0  0  0  0999 V2000
   23.9928   -8.3922  -18.5422 C   0  0  0  0  0  0  0  0  0  0  0  0
   23.6651   -9.4328  -19.6120 C   0  0  1  0  0  0  0  0  0  0  0  0
   24.8449   -9.8924  -20.1753 O   0  0  0  0  0  0  0  0  0  0  0  0
   22.9372  -10.5613  -18.9264 C   0  0  2  0  0  0  0  0  0  0  0  0
   22.7024  -11.6829  -19.7874 N   0  0  0  0  0  0  0  0  0  0  0  0
   21.6357  -10.0531  -18.3943 C   0  0  0  0  0  0  0  0  0  0  0  0
   20.6707   -9.7969  -19.1538 O   0  0  0  0  0  0  0  0  0  0  0  0
   17.6935  -11.3193  -14.1659 C   0  0  0  0  0  0  0  0  0  0  0  0
   18.2184  -10.2842  -15.0750 C   0  0  2  0  0  0  0  0  0  0  0  0
   17.1030   -9.8568  -16.0369 C   0  0  0  0  0  0  0  0  0  0  0  0
   19.4955  -10.4707  -15.7667 C   0  0  0  0  0  0  0  0  0  0  0  0
   20.2040   -9.3388  -16.4168 C   0  0  2  0  0  0  0  0  0  0  0  0
   21.4723   -9.8506  -17.0012 N   0  0  0  0  0  0  0  0  0  0  0  0
   20.5042   -8.2065  -15.5354 C   0  0  0  0  0  0  0  0  0  0  0  0
   21.2709   -8.2540  -14.5453 O   0  0  0  0  0  0  0  0  0  0  0  0
   22.9610   -4.7144  -15.5185 C   0  0  0  0  0  0  0  0  0  0  0  0
   21.7997   -4.5796  -16.5112 C   0  0  2  0  0  0  0  0  0  0  0  0
   21.9874   -3.3555  -17.3780 C   0  0  0  0  0  0  0  0  0  0  0  0
   20.5187   -4.5392  -15.7395 C   0  0  0  0  0  0  0  0  0  0  0  0
   20.2426   -5.7575  -14.9048 C   0  0  2  0  0  0  0  0  0  0  0  0
   19.9223   -6.9044  -15.7433 N   0  0  0  0  0  0  0  0  0  0  0  0
   19.0941   -5.5283  -14.0090 C   0  0  0  0  0  0  0  0  0  0  0  0
   17.9458   -5.8532  -14.3896 O   0  0  0  0  0  0  0  0  0  0  0  0
   19.1965   -4.9685  -12.7491 O   0  0  0  0  0  0  0  0  0  0  0  0
  2  4  1  0
  2  1  1  1
  3  2  1  0
  4  5  1  6
  6  4  1  0
  6 13  1  0
  7  6  2  0
  9  8  1  6
  9 11  1  0
  9 10  1  0
 12 11  1  1
 12 13  1  0
 14 12  1  0
 15 14  2  0
 17 16  1  1
 17 19  1  0
 18 17  1  0
 20 19  1  6
 20 21  1  0
 20 22  1  0
 21 14  1  0
 22 24  1  0
 23 22  2  0
M  END
$$$$
