TLL.pdb
     RDKit          3D

 24 23  0  0  1  0  0  0  0  0999 V2000
   15.3552  -10.4481  -14.6637 C   0  0  0  0  0  0  0  0  0  0  0  0
   15.6348  -11.9484  -14.5901 C   0  0  1  0  0  0  0  0  0  0  0  0
   14.4897  -12.6037  -14.1664 O   0  0  0  0  0  0  0  0  0  0  0  0
   16.0131  -12.3988  -15.9784 C   0  0  2  0  0  0  0  0  0  0  0  0
   16.1716  -13.8195  -16.0839 N   0  0  0  0  0  0  0  0  0  0  0  0
   17.2807  -11.7185  -16.3858 C   0  0  0  0  0  0  0  0  0  0  0  0
   18.4042  -12.2028  -16.1087 O   0  0  0  0  0  0  0  0  0  0  0  0
   20.0613   -7.3789  -18.8975 C   0  0  0  0  0  0  0  0  0  0  0  0
   19.2609   -8.4239  -19.5615 C   0  0  2  0  0  0  0  0  0  0  0  0
   18.7667   -7.8879  -20.9108 C   0  0  0  0  0  0  0  0  0  0  0  0
   18.2064   -9.1354  -18.8362 C   0  0  0  0  0  0  0  0  0  0  0  0
   18.4562   -9.7656  -17.5147 C   0  0  2  0  0  0  0  0  0  0  0  0
   17.2285  -10.4971  -17.1024 N   0  0  0  0  0  0  0  0  0  0  0  0
   18.8429   -8.8374  -16.4480 C   0  0  0  0  0  0  0  0  0  0  0  0
   18.0582   -8.0592  -15.8573 O   0  0  0  0  0  0  0  0  0  0  0  0
   20.7446   -9.5005  -12.2292 C   0  0  0  0  0  0  0  0  0  0  0  0
   21.6361   -9.7475  -13.4524 C   0  0  2  0  0  0  0  0  0  0  0  0
   22.9515  -10.3610  -13.0301 C   0  0  0  0  0  0  0  0  0  0  0  0
   21.8194   -8.4503  -14.1749 C   0  0  0  0  0  0  0  0  0  0  0  0
   20.5834   -7.9151  -14.8406 C   0  0  2  0  0  0  0  0  0  0  0  0
   20.2017   -8.7418  -15.9772 N   0  0  0  0  0  0  0  0  0  0  0  0
   20.8106   -6.5476  -15.3431 C   0  0  0  0  0  0  0  0  0  0  0  0
   21.0157   -5.6207  -14.5259 O   0  0  0  0  0  0  0  0  0  0  0  0
   20.8146   -6.2075  -16.6830 O   0  0  0  0  0  0  0  0  0  0  0  0
  2  4  1  0
  2  1  1  6
  3  2  1  0
  4  5  1  1
  6  4  1  0
  6 13  1  0
  7  6  2  0
  9  8  1  1
  9 11  1  0
  9 10  1  0
 12 11  1  6
 12 13  1  0
 14 12  1  0
 15 14  2  0
 17 16  1  1
 17 19  1  0
 18 17  1  0
 20 19  1  6
 20 21  1  0
 20 22  1  0
 21 14  1  0
 22 24  1  0
 23 22  2  0
M  END
$$$$
