TLL.pdb
     RDKit          3D

 24 23  0  0  1  0  0  0  0  0999 V2000
   19.1728   -8.4364  -19.8348 C   0  0  0  0  0  0  0  0  0  0  0  0
   18.6516   -9.8695  -19.7382 C   0  0  1  0  0  0  0  0  0  0  0  0
   18.4512  -10.3671  -21.0160 O   0  0  0  0  0  0  0  0  0  0  0  0
   19.7027  -10.6774  -19.0201 C   0  0  2  0  0  0  0  0  0  0  0  0
   19.3956  -12.0764  -18.9660 N   0  0  0  0  0  0  0  0  0  0  0  0
   19.8682  -10.1436  -17.6333 C   0  0  0  0  0  0  0  0  0  0  0  0
   19.0410  -10.4031  -16.7266 O   0  0  0  0  0  0  0  0  0  0  0  0
   24.2360  -11.2511  -15.4059 C   0  0  0  0  0  0  0  0  0  0  0  0
   23.3563  -10.2447  -16.0278 C   0  0  2  0  0  0  0  0  0  0  0  0
   24.2248   -9.1611  -16.6789 C   0  0  0  0  0  0  0  0  0  0  0  0
   22.2309   -9.6716  -15.2868 C   0  0  0  0  0  0  0  0  0  0  0  0
   21.2219   -8.8043  -15.9470 C   0  0  2  0  0  0  0  0  0  0  0  0
   20.9806   -9.3236  -17.3196 N   0  0  0  0  0  0  0  0  0  0  0  0
   21.5810   -7.3852  -16.0269 C   0  0  0  0  0  0  0  0  0  0  0  0
   22.3051   -6.8793  -16.9158 O   0  0  0  0  0  0  0  0  0  0  0  0
   20.0482   -3.5135  -17.4634 C   0  0  0  0  0  0  0  0  0  0  0  0
   19.3273   -4.2481  -16.3263 C   0  0  2  0  0  0  0  0  0  0  0  0
   17.9520   -3.6600  -16.1081 C   0  0  0  0  0  0  0  0  0  0  0  0
   20.1793   -4.1736  -15.0988 C   0  0  0  0  0  0  0  0  0  0  0  0
   21.4289   -5.0063  -15.1428 C   0  0  2  0  0  0  0  0  0  0  0  0
   21.1149   -6.4259  -15.0575 N   0  0  0  0  0  0  0  0  0  0  0  0
   22.3153   -4.6794  -14.0107 C   0  0  0  0  0  0  0  0  0  0  0  0
   22.3905   -5.4709  -13.0429 O   0  0  0  0  0  0  0  0  0  0  0  0
   23.0883   -3.5355  -13.9400 O   0  0  0  0  0  0  0  0  0  0  0  0
  2  4  1  0
  2  1  1  6
  3  2  1  0
  4  5  1  1
  6  4  1  0
  6 13  1  0
  7  6  2  0
  9  8  1  1
  9 11  1  0
  9 10  1  0
 12 11  1  6
 12 13  1  0
 14 12  1  0
 15 14  2  0
 17 16  1  6
 17 19  1  0
 18 17  1  0
 20 19  1  1
 20 21  1  0
 20 22  1  0
 21 14  1  0
 22 24  1  0
 23 22  2  0
M  END
$$$$
