TLL.pdb
     RDKit          3D

 24 23  0  0  1  0  0  0  0  0999 V2000
   16.0145  -11.1704  -17.5865 C   0  0  0  0  0  0  0  0  0  0  0  0
   17.0943  -11.5036  -18.6149 C   0  0  1  0  0  0  0  0  0  0  0  0
   17.4907  -10.3382  -19.2513 O   0  0  0  0  0  0  0  0  0  0  0  0
   18.2520  -12.1103  -17.8634 C   0  0  2  0  0  0  0  0  0  0  0  0
   17.9198  -13.3509  -17.2270 N   0  0  0  0  0  0  0  0  0  0  0  0
   18.7382  -11.1336  -16.8411 C   0  0  0  0  0  0  0  0  0  0  0  0
   18.0850  -10.8962  -15.7968 O   0  0  0  0  0  0  0  0  0  0  0  0
   21.8349   -9.2786  -13.2238 C   0  0  0  0  0  0  0  0  0  0  0  0
   22.2290  -10.1026  -14.3811 C   0  0  2  0  0  0  0  0  0  0  0  0
   23.7225  -10.4333  -14.2689 C   0  0  0  0  0  0  0  0  0  0  0  0
   21.8561   -9.7118  -15.7421 C   0  0  0  0  0  0  0  0  0  0  0  0
   20.4505   -9.4013  -16.1078 C   0  0  2  0  0  0  0  0  0  0  0  0
   19.9641  -10.4517  -17.0419 N   0  0  0  0  0  0  0  0  0  0  0  0
   20.2446   -8.0842  -16.7175 C   0  0  0  0  0  0  0  0  0  0  0  0
   20.5639   -7.7809  -17.8908 O   0  0  0  0  0  0  0  0  0  0  0  0
   17.2139   -3.3808  -16.8228 C   0  0  0  0  0  0  0  0  0  0  0  0
   17.6334   -4.3913  -17.8975 C   0  0  2  0  0  0  0  0  0  0  0  0
   16.5287   -4.5679  -18.9140 C   0  0  0  0  0  0  0  0  0  0  0  0
   17.9970   -5.6764  -17.2234 C   0  0  0  0  0  0  0  0  0  0  0  0
   19.3647   -5.7017  -16.6021 C   0  0  2  0  0  0  0  0  0  0  0  0
   19.6386   -6.9958  -15.9927 N   0  0  0  0  0  0  0  0  0  0  0  0
   19.4774   -4.6805  -15.5444 C   0  0  0  0  0  0  0  0  0  0  0  0
   19.1222   -4.9652  -14.3775 O   0  0  0  0  0  0  0  0  0  0  0  0
   19.9596   -3.4019  -15.7532 O   0  0  0  0  0  0  0  0  0  0  0  0
  2  4  1  0
  2  1  1  1
  3  2  1  0
  4  5  1  1
  6  4  1  0
  6 13  1  0
  7  6  2  0
  9  8  1  1
  9 11  1  0
  9 10  1  0
 12 11  1  6
 12 13  1  0
 14 12  1  0
 15 14  2  0
 17 16  1  1
 17 19  1  0
 18 17  1  0
 20 19  1  1
 20 21  1  0
 20 22  1  0
 21 14  1  0
 22 24  1  0
 23 22  2  0
M  END
$$$$
