TLL.pdb
     RDKit          3D

 24 23  0  0  1  0  0  0  0  0999 V2000
   20.1133   -9.4095  -19.8310 C   0  0  0  0  0  0  0  0  0  0  0  0
   19.1639  -10.2343  -18.9632 C   0  0  1  0  0  0  0  0  0  0  0  0
   18.2205  -10.8439  -19.7748 O   0  0  0  0  0  0  0  0  0  0  0  0
   19.9970  -11.2733  -18.2563 C   0  0  2  0  0  0  0  0  0  0  0  0
   19.2081  -12.2730  -17.5986 N   0  0  0  0  0  0  0  0  0  0  0  0
   20.8841  -10.5960  -17.2614 C   0  0  0  0  0  0  0  0  0  0  0  0
   20.4211  -10.0632  -16.2243 O   0  0  0  0  0  0  0  0  0  0  0  0
   27.1090  -10.2524  -16.4149 C   0  0  0  0  0  0  0  0  0  0  0  0
   25.7393   -9.8472  -16.0499 C   0  0  2  0  0  0  0  0  0  0  0  0
   25.5757   -9.9648  -14.5295 C   0  0  0  0  0  0  0  0  0  0  0  0
   24.5816  -10.3845  -16.7677 C   0  0  0  0  0  0  0  0  0  0  0  0
   23.2102   -9.8615  -16.5402 C   0  0  2  0  0  0  0  0  0  0  0  0
   22.2833  -10.5462  -17.4806 N   0  0  0  0  0  0  0  0  0  0  0  0
   23.0659   -8.4109  -16.6950 C   0  0  0  0  0  0  0  0  0  0  0  0
   23.2173   -7.7876  -17.7716 O   0  0  0  0  0  0  0  0  0  0  0  0
   19.2905   -4.2483  -16.6221 C   0  0  0  0  0  0  0  0  0  0  0  0
   20.7955   -4.3786  -16.3575 C   0  0  2  0  0  0  0  0  0  0  0  0
   21.5835   -3.6917  -17.4494 C   0  0  0  0  0  0  0  0  0  0  0  0
   21.1322   -5.8316  -16.2411 C   0  0  0  0  0  0  0  0  0  0  0  0
   22.5154   -6.1231  -15.7323 C   0  0  2  0  0  0  0  0  0  0  0  0
   22.7273   -7.5565  -15.5849 N   0  0  0  0  0  0  0  0  0  0  0  0
   22.7274   -5.5051  -14.4104 C   0  0  0  0  0  0  0  0  0  0  0  0
   22.4790   -6.1681  -13.3772 O   0  0  0  0  0  0  0  0  0  0  0  0
   23.1928   -4.2166  -14.2256 O   0  0  0  0  0  0  0  0  0  0  0  0
  2  4  1  0
  2  1  1  6
  3  2  1  0
  4  5  1  1
  6  4  1  0
  6 13  1  0
  7  6  2  0
  9  8  1  6
  9 11  1  0
  9 10  1  0
 12 11  1  6
 12 13  1  0
 14 12  1  0
 15 14  2  0
 17 16  1  6
 17 19  1  0
 18 17  1  0
 20 19  1  1
 20 21  1  0
 20 22  1  0
 21 14  1  0
 22 24  1  0
 23 22  2  0
M  END
$$$$
