TLL.pdb
     RDKit          3D

 24 23  0  0  1  0  0  0  0  0999 V2000
   23.0721  -16.8171  -18.8041 C   0  0  0  0  0  0  0  0  0  0  0  0
   23.0829  -17.9726  -17.8043 C   0  0  1  0  0  0  0  0  0  0  0  0
   21.9626  -18.7618  -18.0100 O   0  0  0  0  0  0  0  0  0  0  0  0
   24.3383  -18.7683  -18.0579 C   0  0  2  0  0  0  0  0  0  0  0  0
   24.4121  -19.2907  -19.3906 N   0  0  0  0  0  0  0  0  0  0  0  0
   24.4151  -19.8896  -17.0719 C   0  0  0  0  0  0  0  0  0  0  0  0
   24.3646  -21.0889  -17.4361 O   0  0  0  0  0  0  0  0  0  0  0  0
   27.7212  -21.7065  -14.6455 C   0  0  0  0  0  0  0  0  0  0  0  0
   27.1723  -20.4353  -14.1393 C   0  0  2  0  0  0  0  0  0  0  0  0
   28.1167  -19.8795  -13.0662 C   0  0  0  0  0  0  0  0  0  0  0  0
   25.7678  -20.3312  -13.7388 C   0  0  0  0  0  0  0  0  0  0  0  0
   24.6629  -20.6818  -14.6675 C   0  0  2  0  0  0  0  0  0  0  0  0
   24.5482  -19.6074  -15.6895 N   0  0  0  0  0  0  0  0  0  0  0  0
   23.3573  -20.8805  -14.0312 C   0  0  0  0  0  0  0  0  0  0  0  0
   23.1458  -21.6324  -13.0512 O   0  0  0  0  0  0  0  0  0  0  0  0
   20.1608  -19.2356  -11.3431 C   0  0  0  0  0  0  0  0  0  0  0  0
   20.3952  -18.3661  -12.5845 C   0  0  2  0  0  0  0  0  0  0  0  0
   19.5727  -17.1004  -12.5039 C   0  0  0  0  0  0  0  0  0  0  0  0
   20.0729  -19.1776  -13.7993 C   0  0  0  0  0  0  0  0  0  0  0  0
   20.8527  -20.4547  -13.9340 C   0  0  2  0  0  0  0  0  0  0  0  0
   22.1725  -20.2048  -14.4969 N   0  0  0  0  0  0  0  0  0  0  0  0
   20.1597  -21.3985  -14.8301 C   0  0  0  0  0  0  0  0  0  0  0  0
   18.9944  -21.7642  -14.5520 O   0  0  0  0  0  0  0  0  0  0  0  0
   20.7166  -21.9200  -15.9829 O   0  0  0  0  0  0  0  0  0  0  0  0
  2  4  1  0
  2  1  1  6
  3  2  1  0
  4  5  1  6
  6  4  1  0
  6 13  1  0
  7  6  2  0
  9  8  1  1
  9 11  1  0
  9 10  1  0
 12 11  1  1
 12 13  1  0
 14 12  1  0
 15 14  2  0
 17 16  1  1
 17 19  1  0
 18 17  1  0
 20 19  1  6
 20 21  1  0
 20 22  1  0
 21 14  1  0
 22 24  1  0
 23 22  2  0
M  END
$$$$
