TLL.pdb
     RDKit          3D

 24 23  0  0  1  0  0  0  0  0999 V2000
   11.9146  -18.1812    7.3065 C   0  0  0  0  0  0  0  0  0  0  0  0
   13.3757  -17.9543    6.9215 C   0  0  1  0  0  0  0  0  0  0  0  0
   14.1909  -18.3993    7.9499 O   0  0  0  0  0  0  0  0  0  0  0  0
   13.6335  -18.7496    5.6667 C   0  0  2  0  0  0  0  0  0  0  0  0
   13.4615  -20.1606    5.8512 N   0  0  0  0  0  0  0  0  0  0  0  0
   15.0212  -18.4695    5.1857 C   0  0  0  0  0  0  0  0  0  0  0  0
   15.9088  -19.3559    5.1891 O   0  0  0  0  0  0  0  0  0  0  0  0
   19.0339  -16.1973    2.3951 C   0  0  0  0  0  0  0  0  0  0  0  0
   17.6752  -15.6848    2.1403 C   0  0  2  0  0  0  0  0  0  0  0  0
   17.7757  -14.2349    1.6503 C   0  0  0  0  0  0  0  0  0  0  0  0
   16.6112  -15.8544    3.1319 C   0  0  0  0  0  0  0  0  0  0  0  0
   16.7265  -16.8357    4.2409 C   0  0  2  0  0  0  0  0  0  0  0  0
   15.3576  -17.1771    4.7116 N   0  0  0  0  0  0  0  0  0  0  0  0
   17.5295  -16.3893    5.3832 C   0  0  0  0  0  0  0  0  0  0  0  0
   18.6123  -16.9074    5.7429 O   0  0  0  0  0  0  0  0  0  0  0  0
   19.7580  -11.1727    6.4442 C   0  0  0  0  0  0  0  0  0  0  0  0
   19.4598  -12.4614    7.2203 C   0  0  2  0  0  0  0  0  0  0  0  0
   20.7468  -13.1585    7.5979 C   0  0  0  0  0  0  0  0  0  0  0  0
   18.5702  -13.3243    6.3822 C   0  0  0  0  0  0  0  0  0  0  0  0
   18.0561  -14.5587    7.0671 C   0  0  2  0  0  0  0  0  0  0  0  0
   17.1249  -15.2819    6.2121 N   0  0  0  0  0  0  0  0  0  0  0  0
   17.3393  -14.2085    8.3072 C   0  0  0  0  0  0  0  0  0  0  0  0
   16.0874  -14.2479    8.3233 O   0  0  0  0  0  0  0  0  0  0  0  0
   17.9647  -13.8321    9.4811 O   0  0  0  0  0  0  0  0  0  0  0  0
  2  4  1  0
  2  1  1  1
  3  2  1  0
  4  5  1  1
  6  4  1  0
  6 13  1  0
  7  6  2  0
  9  8  1  1
  9 11  1  0
  9 10  1  0
 12 11  1  6
 12 13  1  0
 14 12  1  0
 15 14  2  0
 17 16  1  6
 17 19  1  0
 18 17  1  0
 20 19  1  6
 20 21  1  0
 20 22  1  0
 21 14  1  0
 22 24  1  0
 23 22  2  0
M  END
$$$$
