TLL.pdb
     RDKit          3D

 24 23  0  0  1  0  0  0  0  0999 V2000
   22.5629  -22.4514  -16.5327 C   0  0  0  0  0  0  0  0  0  0  0  0
   21.1106  -22.7020  -16.1296 C   0  0  1  0  0  0  0  0  0  0  0  0
   20.5634  -23.6564  -16.9723 O   0  0  0  0  0  0  0  0  0  0  0  0
   21.1240  -23.2039  -14.7079 C   0  0  2  0  0  0  0  0  0  0  0  0
   19.8319  -23.6196  -14.2472 N   0  0  0  0  0  0  0  0  0  0  0  0
   21.6563  -22.1299  -13.8142 C   0  0  0  0  0  0  0  0  0  0  0  0
   20.9452  -21.1600  -13.4575 O   0  0  0  0  0  0  0  0  0  0  0  0
   26.7328  -21.3782  -10.2057 C   0  0  0  0  0  0  0  0  0  0  0  0
   25.4141  -20.9391  -10.6975 C   0  0  2  0  0  0  0  0  0  0  0  0
   24.5253  -20.5965   -9.4955 C   0  0  0  0  0  0  0  0  0  0  0  0
   24.6928  -21.7169  -11.7069 C   0  0  0  0  0  0  0  0  0  0  0  0
   23.5970  -21.1227  -12.5145 C   0  0  2  0  0  0  0  0  0  0  0  0
   22.9939  -22.1947  -13.3506 N   0  0  0  0  0  0  0  0  0  0  0  0
   23.9974  -20.0081  -13.3784 C   0  0  0  0  0  0  0  0  0  0  0  0
   23.9805  -18.8008  -13.0429 O   0  0  0  0  0  0  0  0  0  0  0  0
   27.6259  -18.2176  -14.0944 C   0  0  0  0  0  0  0  0  0  0  0  0
   27.4410  -19.6263  -14.6718 C   0  0  2  0  0  0  0  0  0  0  0  0
   28.7798  -20.2256  -15.0369 C   0  0  0  0  0  0  0  0  0  0  0  0
   26.5173  -19.5399  -15.8455 C   0  0  0  0  0  0  0  0  0  0  0  0
   25.0998  -19.1712  -15.5110 C   0  0  2  0  0  0  0  0  0  0  0  0
   24.4578  -20.2179  -14.7279 N   0  0  0  0  0  0  0  0  0  0  0  0
   24.3045  -18.9845  -16.7386 C   0  0  0  0  0  0  0  0  0  0  0  0
   24.6532  -18.1130  -17.5679 O   0  0  0  0  0  0  0  0  0  0  0  0
   23.1758  -19.7206  -17.0473 O   0  0  0  0  0  0  0  0  0  0  0  0
  2  4  1  0
  2  1  1  6
  3  2  1  0
  4  5  1  1
  6  4  1  0
  6 13  1  0
  7  6  2  0
  9  8  1  1
  9 11  1  0
  9 10  1  0
 12 11  1  6
 12 13  1  0
 14 12  1  0
 15 14  2  0
 17 16  1  6
 17 19  1  0
 18 17  1  0
 20 19  1  6
 20 21  1  0
 20 22  1  0
 21 14  1  0
 22 24  1  0
 23 22  2  0
M  END
$$$$
