TLL.pdb
     RDKit          3D

 24 23  0  0  1  0  0  0  0  0999 V2000
   19.2331  -25.2000  -10.6245 C   0  0  0  0  0  0  0  0  0  0  0  0
   18.1613  -24.8361   -9.5980 C   0  0  1  0  0  0  0  0  0  0  0  0
   17.5637  -25.9972   -9.1342 O   0  0  0  0  0  0  0  0  0  0  0  0
   18.8535  -24.1158   -8.4687 C   0  0  2  0  0  0  0  0  0  0  0  0
   17.9713  -23.7881   -7.3876 N   0  0  0  0  0  0  0  0  0  0  0  0
   19.4871  -22.8692   -8.9981 C   0  0  0  0  0  0  0  0  0  0  0  0
   18.8066  -21.8508   -9.2690 O   0  0  0  0  0  0  0  0  0  0  0  0
   25.3552  -20.7328   -9.4738 C   0  0  0  0  0  0  0  0  0  0  0  0
   23.9205  -20.6012   -9.7866 C   0  0  2  0  0  0  0  0  0  0  0  0
   23.4842  -19.1561   -9.5154 C   0  0  0  0  0  0  0  0  0  0  0  0
   22.9493  -21.5707   -9.2760 C   0  0  0  0  0  0  0  0  0  0  0  0
   21.5624  -21.6383   -9.8031 C   0  0  2  0  0  0  0  0  0  0  0  0
   20.8883  -22.8211   -9.2042 N   0  0  0  0  0  0  0  0  0  0  0  0
   21.4567  -21.7139  -11.2632 C   0  0  0  0  0  0  0  0  0  0  0  0
   21.7342  -22.7251  -11.9494 O   0  0  0  0  0  0  0  0  0  0  0  0
   18.4901  -21.9782  -14.3853 C   0  0  0  0  0  0  0  0  0  0  0  0
   18.4113  -20.5709  -13.7808 C   0  0  2  0  0  0  0  0  0  0  0  0
   17.2552  -19.8040  -14.3808 C   0  0  0  0  0  0  0  0  0  0  0  0
   19.7233  -19.8864  -14.0008 C   0  0  0  0  0  0  0  0  0  0  0  0
   20.9237  -20.6426  -13.5065 C   0  0  2  0  0  0  0  0  0  0  0  0
   21.0107  -20.5942  -12.0535 N   0  0  0  0  0  0  0  0  0  0  0  0
   22.1667  -20.0603  -14.0450 C   0  0  0  0  0  0  0  0  0  0  0  0
   22.8879  -19.3585  -13.2991 O   0  0  0  0  0  0  0  0  0  0  0  0
   22.6039  -20.2386  -15.3443 O   0  0  0  0  0  0  0  0  0  0  0  0
  2  4  1  0
  2  1  1  6
  3  2  1  0
  4  5  1  1
  6  4  1  0
  6 13  1  0
  7  6  2  0
  9  8  1  1
  9 11  1  0
  9 10  1  0
 12 11  1  6
 12 13  1  0
 14 12  1  0
 15 14  2  0
 17 16  1  6
 17 19  1  0
 18 17  1  0
 20 19  1  6
 20 21  1  0
 20 22  1  0
 21 14  1  0
 22 24  1  0
 23 22  2  0
M  END
$$$$
