LGN.pdb
     RDKit          3D

 21 20  0  0  1  0  0  0  0  0999 V2000
   30.9474  -24.4234  -16.5543 C   0  0  0  0  0  0  0  0  0  0  0  0
   29.8015  -24.2746  -17.5087 C   0  0  2  0  0  0  0  0  0  0  0  0
   30.1934  -24.4761  -18.9417 C   0  0  0  0  0  0  0  0  0  0  0  0
   29.1697  -22.8926  -17.3506 C   0  0  0  0  0  0  0  0  0  0  0  0
   28.2364  -23.0129  -16.1387 C   0  0  2  0  0  0  0  0  0  0  0  0
   27.6485  -24.3121  -16.1907 N   0  0  0  0  0  0  0  0  0  0  0  0
   27.2437  -21.9198  -16.2617 C   0  0  0  0  0  0  0  0  0  0  0  0
   27.3284  -21.0263  -17.1391 O   0  0  0  0  0  0  0  0  0  0  0  0
   26.1074  -21.8202  -15.3661 N   0  0  0  0  0  0  0  0  0  0  0  0
   25.1649  -20.7422  -15.5257 C   0  0  0  0  0  0  0  0  0  0  0  0
   23.7823  -21.1800  -15.6159 C   0  0  0  0  0  0  0  0  0  0  0  0
   23.5454  -22.4296  -15.5916 O   0  0  0  0  0  0  0  0  0  0  0  0
   18.6826  -21.6678  -15.6819 N   0  0  0  0  0  0  0  0  0  0  0  0
   18.9345  -20.2560  -15.6191 C   0  0  0  0  0  0  0  0  0  0  0  0
   17.9766  -19.4492  -15.5271 O   0  0  0  0  0  0  0  0  0  0  0  0
   20.3288  -19.7672  -15.6640 C   0  0  0  0  0  0  0  0  0  0  0  0
   21.3366  -20.8788  -15.7785 C   0  0  2  0  0  0  0  0  0  0  0  0
   22.6930  -20.3143  -15.7278 N   0  0  0  0  0  0  0  0  0  0  0  0
   21.1982  -21.6281  -17.0406 C   0  0  0  0  0  0  0  0  0  0  0  0
   20.3507  -22.5494  -17.2037 O   0  0  0  0  0  0  0  0  0  0  0  0
   22.0277  -21.3198  -18.1053 O   0  0  0  0  0  0  0  0  0  0  0  0
  2  3  1  6
  2  4  1  0
  2  1  1  0
  5  4  1  0
  5  7  1  0
  5  6  1  6
  7  8  2  0
  9 10  1  0
  9  7  1  0
 10 11  1  0
 11 18  1  0
 11 12  2  0
 13 14  1  0
 14 15  2  0
 17 16  1  6
 16 14  1  0
 17 19  1  0
 18 17  1  0
 19 21  1  0
 20 19  2  0
M  END
$$$$
