LGN.pdb
     RDKit          3D

 21 20  0  0  1  0  0  0  0  0999 V2000
   16.2622  -15.8593  -17.1485 C   0  0  0  0  0  0  0  0  0  0  0  0
   15.5138  -14.5773  -16.9427 C   0  0  2  0  0  0  0  0  0  0  0  0
   14.2905  -14.4604  -17.8014 C   0  0  0  0  0  0  0  0  0  0  0  0
   16.4343  -13.3888  -17.2156 C   0  0  0  0  0  0  0  0  0  0  0  0
   17.5581  -13.5032  -16.1773 C   0  0  2  0  0  0  0  0  0  0  0  0
   16.9796  -13.2265  -14.9025 N   0  0  0  0  0  0  0  0  0  0  0  0
   18.5961  -12.5218  -16.5705 C   0  0  0  0  0  0  0  0  0  0  0  0
   19.3191  -12.6736  -17.5852 O   0  0  0  0  0  0  0  0  0  0  0  0
   18.8372  -11.3188  -15.7974 N   0  0  0  0  0  0  0  0  0  0  0  0
   19.7652  -10.3305  -16.2850 C   0  0  0  0  0  0  0  0  0  0  0  0
   19.7998   -9.1149  -15.4897 C   0  0  0  0  0  0  0  0  0  0  0  0
   18.9110   -8.9585  -14.5933 O   0  0  0  0  0  0  0  0  0  0  0  0
   20.8630   -4.6908  -13.1438 N   0  0  0  0  0  0  0  0  0  0  0  0
   22.0383   -5.0372  -13.8917 C   0  0  0  0  0  0  0  0  0  0  0  0
   23.0803   -4.3448  -13.7829 O   0  0  0  0  0  0  0  0  0  0  0  0
   22.0059   -6.2132  -14.7866 C   0  0  0  0  0  0  0  0  0  0  0  0
   20.6758   -6.9171  -14.7821 C   0  0  2  0  0  0  0  0  0  0  0  0
   20.7494   -8.1038  -15.6466 N   0  0  0  0  0  0  0  0  0  0  0  0
   19.5878   -6.0547  -15.2781 C   0  0  0  0  0  0  0  0  0  0  0  0
   19.3284   -5.9127  -16.5054 O   0  0  0  0  0  0  0  0  0  0  0  0
   18.8055   -5.3621  -14.3698 O   0  0  0  0  0  0  0  0  0  0  0  0
  2  3  1  6
  2  4  1  0
  2  1  1  0
  5  4  1  0
  5  7  1  0
  5  6  1  1
  7  8  2  0
  9 10  1  0
  9  7  1  0
 10 11  1  0
 11 18  1  0
 11 12  2  0
 13 14  1  0
 14 15  2  0
 17 16  1  6
 16 14  1  0
 17 19  1  0
 18 17  1  0
 19 21  1  0
 20 19  2  0
M  END
$$$$
