LGN.pdb
     RDKit          3D

 21 20  0  0  1  0  0  0  0  0999 V2000
   19.7270  -16.5353  -16.8897 C   0  0  0  0  0  0  0  0  0  0  0  0
   18.8354  -15.7976  -17.8419 C   0  0  2  0  0  0  0  0  0  0  0  0
   18.6769  -16.4892  -19.1625 C   0  0  0  0  0  0  0  0  0  0  0  0
   19.3771  -14.3883  -18.0750 C   0  0  0  0  0  0  0  0  0  0  0  0
   19.4300  -13.7421  -16.6843 C   0  0  2  0  0  0  0  0  0  0  0  0
   18.0827  -13.6089  -16.2334 N   0  0  0  0  0  0  0  0  0  0  0  0
   20.1192  -12.4411  -16.8505 C   0  0  0  0  0  0  0  0  0  0  0  0
   21.2930  -12.3495  -17.2855 O   0  0  0  0  0  0  0  0  0  0  0  0
   19.4697  -11.1883  -16.5164 N   0  0  0  0  0  0  0  0  0  0  0  0
   20.1700   -9.9452  -16.7168 C   0  0  0  0  0  0  0  0  0  0  0  0
   19.6912   -8.8599  -15.8777 C   0  0  0  0  0  0  0  0  0  0  0  0
   18.6496   -9.0589  -15.1751 O   0  0  0  0  0  0  0  0  0  0  0  0
   23.0371   -5.1214  -13.6818 N   0  0  0  0  0  0  0  0  0  0  0  0
   21.8352   -5.9045  -13.7330 C   0  0  0  0  0  0  0  0  0  0  0  0
   21.7097   -6.9139  -12.9965 O   0  0  0  0  0  0  0  0  0  0  0  0
   20.7530   -5.5092  -14.6592 C   0  0  0  0  0  0  0  0  0  0  0  0
   19.7418   -6.6015  -14.8799 C   0  0  2  0  0  0  0  0  0  0  0  0
   20.3028   -7.6080  -15.7927 N   0  0  0  0  0  0  0  0  0  0  0  0
   18.4914   -6.0915  -15.4716 C   0  0  0  0  0  0  0  0  0  0  0  0
   17.6793   -5.3611  -14.8387 O   0  0  0  0  0  0  0  0  0  0  0  0
   18.1787   -6.4193  -16.7798 O   0  0  0  0  0  0  0  0  0  0  0  0
  2  3  1  6
  2  4  1  0
  2  1  1  0
  5  4  1  0
  5  7  1  0
  5  6  1  6
  7  8  2  0
  9 10  1  0
  9  7  1  0
 10 11  1  0
 11 18  1  0
 11 12  2  0
 13 14  1  0
 14 15  2  0
 17 16  1  6
 16 14  1  0
 17 19  1  0
 18 17  1  0
 19 21  1  0
 20 19  2  0
M  END
$$$$
