LGN.pdb
     RDKit          3D

 21 20  0  0  1  0  0  0  0  0999 V2000
   20.0639  -14.9926  -17.2416 C   0  0  0  0  0  0  0  0  0  0  0  0
   19.8781  -13.8303  -18.1694 C   0  0  2  0  0  0  0  0  0  0  0  0
   19.9372  -14.2125  -19.6178 C   0  0  0  0  0  0  0  0  0  0  0  0
   20.9373  -12.7660  -17.8874 C   0  0  0  0  0  0  0  0  0  0  0  0
   20.6262  -12.2526  -16.4753 C   0  0  2  0  0  0  0  0  0  0  0  0
   19.2412  -11.9100  -16.4504 N   0  0  0  0  0  0  0  0  0  0  0  0
   21.5170  -11.0916  -16.2436 C   0  0  0  0  0  0  0  0  0  0  0  0
   22.7683  -11.1906  -16.2401 O   0  0  0  0  0  0  0  0  0  0  0  0
   20.9878   -9.7625  -16.0056 N   0  0  0  0  0  0  0  0  0  0  0  0
   21.8916   -8.6665  -15.7655 C   0  0  0  0  0  0  0  0  0  0  0  0
   21.2294   -7.3820  -15.6146 C   0  0  0  0  0  0  0  0  0  0  0  0
   19.9693   -7.3329  -15.7812 O   0  0  0  0  0  0  0  0  0  0  0  0
   19.7779   -2.6734  -14.2915 N   0  0  0  0  0  0  0  0  0  0  0  0
   21.1871   -2.7307  -14.0246 C   0  0  0  0  0  0  0  0  0  0  0  0
   21.7564   -1.7761  -13.4400 O   0  0  0  0  0  0  0  0  0  0  0  0
   21.9553   -3.9218  -14.4447 C   0  0  0  0  0  0  0  0  0  0  0  0
   21.0991   -4.9695  -15.1032 C   0  0  2  0  0  0  0  0  0  0  0  0
   21.8895   -6.1936  -15.2973 N   0  0  0  0  0  0  0  0  0  0  0  0
   20.5985   -4.5329  -16.4194 C   0  0  0  0  0  0  0  0  0  0  0  0
   19.7402   -3.6179  -16.5594 O   0  0  0  0  0  0  0  0  0  0  0  0
   21.0814   -5.1440  -17.5640 O   0  0  0  0  0  0  0  0  0  0  0  0
  2  3  1  6
  2  4  1  0
  2  1  1  0
  5  4  1  0
  5  7  1  0
  5  6  1  6
  7  8  2  0
  9 10  1  0
  9  7  1  0
 10 11  1  0
 11 18  1  0
 11 12  2  0
 13 14  1  0
 14 15  2  0
 17 16  1  6
 16 14  1  0
 17 19  1  0
 18 17  1  0
 19 21  1  0
 20 19  2  0
M  END
$$$$
