LGN.pdb
     RDKit          3D

 21 20  0  0  1  0  0  0  0  0999 V2000
   19.2539  -12.8775  -20.0999 C   0  0  0  0  0  0  0  0  0  0  0  0
   19.3456  -13.9921  -19.1023 C   0  0  2  0  0  0  0  0  0  0  0  0
   18.4360  -15.1425  -19.4133 C   0  0  0  0  0  0  0  0  0  0  0  0
   19.0285  -13.4651  -17.7038 C   0  0  0  0  0  0  0  0  0  0  0  0
   19.9395  -12.2445  -17.5174 C   0  0  2  0  0  0  0  0  0  0  0  0
   21.1977  -12.7291  -17.0499 N   0  0  0  0  0  0  0  0  0  0  0  0
   19.2602  -11.3568  -16.5449 C   0  0  0  0  0  0  0  0  0  0  0  0
   18.6524  -11.7970  -15.5388 O   0  0  0  0  0  0  0  0  0  0  0  0
   19.2595   -9.9152  -16.7027 N   0  0  0  0  0  0  0  0  0  0  0  0
   18.5894   -9.0907  -15.7296 C   0  0  0  0  0  0  0  0  0  0  0  0
   19.4659   -8.1474  -15.0563 C   0  0  0  0  0  0  0  0  0  0  0  0
   20.4932   -8.6027  -14.4601 O   0  0  0  0  0  0  0  0  0  0  0  0
   22.3050   -4.3976  -13.2906 N   0  0  0  0  0  0  0  0  0  0  0  0
   22.6023   -5.1458  -14.4790 C   0  0  0  0  0  0  0  0  0  0  0  0
   23.7443   -5.0772  -14.9968 O   0  0  0  0  0  0  0  0  0  0  0  0
   21.5520   -5.9934  -15.0820 C   0  0  0  0  0  0  0  0  0  0  0  0
   20.2399   -5.9114  -14.3496 C   0  0  2  0  0  0  0  0  0  0  0  0
   19.2523   -6.7684  -15.0214 N   0  0  0  0  0  0  0  0  0  0  0  0
   19.7068   -4.5373  -14.3144 C   0  0  0  0  0  0  0  0  0  0  0  0
   20.3071   -3.5813  -13.7493 O   0  0  0  0  0  0  0  0  0  0  0  0
   18.4939   -4.2660  -14.9242 O   0  0  0  0  0  0  0  0  0  0  0  0
  2  3  1  6
  2  4  1  0
  2  1  1  0
  5  4  1  0
  5  7  1  0
  5  6  1  1
  7  8  2  0
  9 10  1  0
  9  7  1  0
 10 11  1  0
 11 18  1  0
 11 12  2  0
 13 14  1  0
 14 15  2  0
 17 16  1  6
 16 14  1  0
 17 19  1  0
 18 17  1  0
 19 21  1  0
 20 19  2  0
M  END
$$$$
