LGN.pdb
     RDKit          3D

 21 20  0  0  1  0  0  0  0  0999 V2000
   27.1307  -17.7196  -18.3106 C   0  0  0  0  0  0  0  0  0  0  0  0
   27.9512  -18.9624  -18.4789 C   0  0  2  0  0  0  0  0  0  0  0  0
   28.3436  -19.2256  -19.9017 C   0  0  0  0  0  0  0  0  0  0  0  0
   27.1846  -20.1682  -17.9381 C   0  0  0  0  0  0  0  0  0  0  0  0
   26.8210  -19.7994  -16.4938 C   0  0  2  0  0  0  0  0  0  0  0  0
   28.0380  -19.7764  -15.7489 N   0  0  0  0  0  0  0  0  0  0  0  0
   25.8698  -20.8328  -16.0221 C   0  0  0  0  0  0  0  0  0  0  0  0
   24.7376  -20.9948  -16.5393 O   0  0  0  0  0  0  0  0  0  0  0  0
   26.1968  -21.7238  -14.9256 N   0  0  0  0  0  0  0  0  0  0  0  0
   25.2513  -22.7317  -14.5183 C   0  0  0  0  0  0  0  0  0  0  0  0
   24.1412  -22.2134  -13.7369 C   0  0  0  0  0  0  0  0  0  0  0  0
   24.3697  -21.8424  -12.5419 O   0  0  0  0  0  0  0  0  0  0  0  0
   21.2368  -19.1926  -10.9211 N   0  0  0  0  0  0  0  0  0  0  0  0
   21.1947  -19.2739  -12.3536 C   0  0  0  0  0  0  0  0  0  0  0  0
   20.2798  -18.6954  -12.9903 O   0  0  0  0  0  0  0  0  0  0  0  0
   22.2368  -20.0434  -13.0656 C   0  0  0  0  0  0  0  0  0  0  0  0
   21.8197  -21.4580  -13.3649 C   0  0  2  0  0  0  0  0  0  0  0  0
   22.8350  -22.0960  -14.2152 N   0  0  0  0  0  0  0  0  0  0  0  0
   20.5262  -21.5198  -14.0695 C   0  0  0  0  0  0  0  0  0  0  0  0
   19.4153  -21.5003  -13.4702 O   0  0  0  0  0  0  0  0  0  0  0  0
   20.5114  -21.6032  -15.4514 O   0  0  0  0  0  0  0  0  0  0  0  0
  2  3  1  6
  2  4  1  0
  2  1  1  0
  5  4  1  0
  5  7  1  0
  5  6  1  1
  7  8  2  0
  9 10  1  0
  9  7  1  0
 10 11  1  0
 11 18  1  0
 11 12  2  0
 13 14  1  0
 14 15  2  0
 17 16  1  6
 16 14  1  0
 17 19  1  0
 18 17  1  0
 19 21  1  0
 20 19  2  0
M  END
$$$$
