LGN.pdb
     RDKit          3D

 21 20  0  0  1  0  0  0  0  0999 V2000
   19.1351  -14.8672  -20.9435 C   0  0  0  0  0  0  0  0  0  0  0  0
   18.2373  -13.9289  -20.1953 C   0  0  2  0  0  0  0  0  0  0  0  0
   16.9144  -13.7125  -20.8665 C   0  0  0  0  0  0  0  0  0  0  0  0
   18.9328  -12.5813  -20.0101 C   0  0  0  0  0  0  0  0  0  0  0  0
   19.7843  -12.7383  -18.7433 C   0  0  2  0  0  0  0  0  0  0  0  0
   18.9201  -13.2218  -17.7157 N   0  0  0  0  0  0  0  0  0  0  0  0
   20.3490  -11.4010  -18.4472 C   0  0  0  0  0  0  0  0  0  0  0  0
   21.3011  -10.9101  -19.1013 O   0  0  0  0  0  0  0  0  0  0  0  0
   19.8281  -10.5761  -17.3742 N   0  0  0  0  0  0  0  0  0  0  0  0
   20.4133   -9.2847  -17.1178 C   0  0  0  0  0  0  0  0  0  0  0  0
   19.4619   -8.1878  -17.1730 C   0  0  0  0  0  0  0  0  0  0  0  0
   18.3260   -8.4045  -17.7029 O   0  0  0  0  0  0  0  0  0  0  0  0
   16.7246   -3.9108  -16.5333 N   0  0  0  0  0  0  0  0  0  0  0  0
   17.0685   -4.6033  -15.3239 C   0  0  0  0  0  0  0  0  0  0  0  0
   16.4673   -4.3379  -14.2538 O   0  0  0  0  0  0  0  0  0  0  0  0
   18.1340   -5.6275  -15.3547 C   0  0  0  0  0  0  0  0  0  0  0  0
   18.6497   -5.8958  -16.7428 C   0  0  2  0  0  0  0  0  0  0  0  0
   19.7151   -6.9066  -16.6801 N   0  0  0  0  0  0  0  0  0  0  0  0
   19.2030   -4.6843  -17.3750 C   0  0  0  0  0  0  0  0  0  0  0  0
   20.4395   -4.5087  -17.5593 O   0  0  0  0  0  0  0  0  0  0  0  0
   18.3410   -3.6841  -17.7913 O   0  0  0  0  0  0  0  0  0  0  0  0
  2  3  1  6
  2  4  1  0
  2  1  1  0
  5  4  1  0
  5  7  1  0
  5  6  1  1
  7  8  2  0
  9 10  1  0
  9  7  1  0
 10 11  1  0
 11 18  1  0
 11 12  2  0
 13 14  1  0
 14 15  2  0
 17 16  1  1
 16 14  1  0
 17 19  1  0
 18 17  1  0
 19 21  1  0
 20 19  2  0
M  END
$$$$
