LGN.pdb
     RDKit          3D

 21 20  0  0  1  0  0  0  0  0999 V2000
   15.2242  -14.8523  -16.2105 C   0  0  0  0  0  0  0  0  0  0  0  0
   14.3500  -13.7578  -15.6779 C   0  0  2  0  0  0  0  0  0  0  0  0
   12.9501  -13.8040  -16.2123 C   0  0  0  0  0  0  0  0  0  0  0  0
   14.9660  -12.3974  -16.0006 C   0  0  0  0  0  0  0  0  0  0  0  0
   16.3707  -12.4351  -15.3844 C   0  0  2  0  0  0  0  0  0  0  0  0
   16.2191  -12.2101  -13.9834 N   0  0  0  0  0  0  0  0  0  0  0  0
   17.1562  -11.3772  -16.0620 C   0  0  0  0  0  0  0  0  0  0  0  0
   17.4657  -11.4394  -17.2768 O   0  0  0  0  0  0  0  0  0  0  0  0
   17.6159  -10.1990  -15.3524 N   0  0  0  0  0  0  0  0  0  0  0  0
   18.1791   -9.0963  -16.0890 C   0  0  0  0  0  0  0  0  0  0  0  0
   18.5600   -7.9679  -15.2565 C   0  0  0  0  0  0  0  0  0  0  0  0
   18.1505   -7.9449  -14.0524 O   0  0  0  0  0  0  0  0  0  0  0  0
   21.2531   -4.4116  -12.8513 N   0  0  0  0  0  0  0  0  0  0  0  0
   22.0392   -4.9688  -13.9153 C   0  0  0  0  0  0  0  0  0  0  0  0
   23.2677   -4.7183  -13.9880 O   0  0  0  0  0  0  0  0  0  0  0  0
   21.3871   -5.8366  -14.9187 C   0  0  0  0  0  0  0  0  0  0  0  0
   19.9042   -5.9719  -14.7018 C   0  0  2  0  0  0  0  0  0  0  0  0
   19.3493   -6.9032  -15.6947 N   0  0  0  0  0  0  0  0  0  0  0  0
   19.2015   -4.6831  -14.8386 C   0  0  0  0  0  0  0  0  0  0  0  0
   19.3703   -3.7200  -14.0401 O   0  0  0  0  0  0  0  0  0  0  0  0
   18.3127   -4.5044  -15.8849 O   0  0  0  0  0  0  0  0  0  0  0  0
  2  3  1  6
  2  4  1  0
  2  1  1  0
  5  4  1  0
  5  7  1  0
  5  6  1  1
  7  8  2  0
  9 10  1  0
  9  7  1  0
 10 11  1  0
 11 18  1  0
 11 12  2  0
 13 14  1  0
 14 15  2  0
 17 16  1  6
 16 14  1  0
 17 19  1  0
 18 17  1  0
 19 21  1  0
 20 19  2  0
M  END
$$$$
