LGN.pdb
     RDKit          3D

 21 20  0  0  1  0  0  0  0  0999 V2000
   16.8445  -13.9450  -17.3495 C   0  0  0  0  0  0  0  0  0  0  0  0
   16.9454  -13.6491  -15.8838 C   0  0  2  0  0  0  0  0  0  0  0  0
   15.8562  -14.2858  -15.0740 C   0  0  0  0  0  0  0  0  0  0  0  0
   16.9230  -12.1385  -15.6560 C   0  0  0  0  0  0  0  0  0  0  0  0
   18.2593  -11.6277  -16.2106 C   0  0  2  0  0  0  0  0  0  0  0  0
   19.2915  -12.2025  -15.4101 N   0  0  0  0  0  0  0  0  0  0  0  0
   18.2126  -10.1493  -16.1261 C   0  0  0  0  0  0  0  0  0  0  0  0
   17.1922   -9.4871  -16.4354 O   0  0  0  0  0  0  0  0  0  0  0  0
   19.3548   -9.3768  -15.6769 N   0  0  0  0  0  0  0  0  0  0  0  0
   19.2730   -7.9389  -15.6362 C   0  0  0  0  0  0  0  0  0  0  0  0
   20.4654   -7.2979  -15.1083 C   0  0  0  0  0  0  0  0  0  0  0  0
   21.3898   -8.0384  -14.6446 O   0  0  0  0  0  0  0  0  0  0  0  0
   21.6306   -2.6782  -17.0862 N   0  0  0  0  0  0  0  0  0  0  0  0
   22.2185   -3.8165  -16.4389 C   0  0  0  0  0  0  0  0  0  0  0  0
   22.8305   -4.6792  -17.1160 O   0  0  0  0  0  0  0  0  0  0  0  0
   22.0947   -3.9591  -14.9728 C   0  0  0  0  0  0  0  0  0  0  0  0
   21.9229   -5.3886  -14.5351 C   0  0  2  0  0  0  0  0  0  0  0  0
   20.6625   -5.9163  -15.0771 N   0  0  0  0  0  0  0  0  0  0  0  0
   21.8822   -5.5204  -13.0672 C   0  0  0  0  0  0  0  0  0  0  0  0
   20.8680   -5.9384  -12.4425 O   0  0  0  0  0  0  0  0  0  0  0  0
   22.9986   -5.1743  -12.3253 O   0  0  0  0  0  0  0  0  0  0  0  0
  2  3  1  1
  2  4  1  0
  2  1  1  0
  5  4  1  0
  5  7  1  0
  5  6  1  1
  7  8  2  0
  9 10  1  0
  9  7  1  0
 10 11  1  0
 11 18  1  0
 11 12  2  0
 13 14  1  0
 14 15  2  0
 17 16  1  1
 16 14  1  0
 17 19  1  0
 18 17  1  0
 19 21  1  0
 20 19  2  0
M  END
$$$$
