LGN.pdb
     RDKit          3D

 21 20  0  0  1  0  0  0  0  0999 V2000
   27.8869  -20.3533   -9.4880 C   0  0  0  0  0  0  0  0  0  0  0  0
   28.5677  -21.3097  -10.4196 C   0  0  2  0  0  0  0  0  0  0  0  0
   30.0561  -21.3494  -10.2450 C   0  0  0  0  0  0  0  0  0  0  0  0
   28.2415  -20.9459  -11.8672 C   0  0  0  0  0  0  0  0  0  0  0  0
   26.7104  -20.8643  -11.9266 C   0  0  2  0  0  0  0  0  0  0  0  0
   26.2080  -22.1415  -11.5358 N   0  0  0  0  0  0  0  0  0  0  0  0
   26.3618  -20.5038  -13.3208 C   0  0  0  0  0  0  0  0  0  0  0  0
   26.4494  -21.3190  -14.2711 O   0  0  0  0  0  0  0  0  0  0  0  0
   25.8952  -19.1755  -13.6688 N   0  0  0  0  0  0  0  0  0  0  0  0
   25.4589  -18.9017  -15.0143 C   0  0  0  0  0  0  0  0  0  0  0  0
   24.1446  -19.4375  -15.3257 C   0  0  0  0  0  0  0  0  0  0  0  0
   24.0676  -20.3869  -16.1687 O   0  0  0  0  0  0  0  0  0  0  0  0
   22.3461  -22.0121  -13.7697 N   0  0  0  0  0  0  0  0  0  0  0  0
   21.3147  -21.2095  -13.1759 C   0  0  0  0  0  0  0  0  0  0  0  0
   20.7452  -21.5934  -12.1246 O   0  0  0  0  0  0  0  0  0  0  0  0
   20.9340  -19.9320  -13.8149 C   0  0  0  0  0  0  0  0  0  0  0  0
   21.6972  -19.6603  -15.0831 C   0  0  2  0  0  0  0  0  0  0  0  0
   22.9564  -18.9755  -14.7570 N   0  0  0  0  0  0  0  0  0  0  0  0
   20.9395  -18.8076  -16.0171 C   0  0  0  0  0  0  0  0  0  0  0  0
   21.1828  -17.5795  -16.1782 O   0  0  0  0  0  0  0  0  0  0  0  0
   19.9112  -19.3635  -16.7589 O   0  0  0  0  0  0  0  0  0  0  0  0
  2  3  1  6
  2  4  1  0
  2  1  1  0
  5  4  1  0
  5  7  1  0
  5  6  1  6
  7  8  2  0
  9 10  1  0
  9  7  1  0
 10 11  1  0
 11 18  1  0
 11 12  2  0
 13 14  1  0
 14 15  2  0
 17 16  1  1
 16 14  1  0
 17 19  1  0
 18 17  1  0
 19 21  1  0
 20 19  2  0
M  END
$$$$
