LGN.pdb
     RDKit          3D

 21 20  0  0  1  0  0  0  0  0999 V2000
   24.8780  -16.6536  -18.0809 C   0  0  0  0  0  0  0  0  0  0  0  0
   26.1063  -17.2910  -18.6562 C   0  0  2  0  0  0  0  0  0  0  0  0
   26.1560  -17.2379  -20.1537 C   0  0  0  0  0  0  0  0  0  0  0  0
   26.1974  -18.7469  -18.2022 C   0  0  0  0  0  0  0  0  0  0  0  0
   25.8703  -18.7224  -16.7033 C   0  0  2  0  0  0  0  0  0  0  0  0
   27.0773  -18.3931  -16.0169 N   0  0  0  0  0  0  0  0  0  0  0  0
   25.3562  -20.0695  -16.3625 C   0  0  0  0  0  0  0  0  0  0  0  0
   24.2363  -20.4830  -16.7503 O   0  0  0  0  0  0  0  0  0  0  0  0
   26.1258  -20.9950  -15.5536 N   0  0  0  0  0  0  0  0  0  0  0  0
   25.5502  -22.2597  -15.1727 C   0  0  0  0  0  0  0  0  0  0  0  0
   24.7955  -22.2112  -13.9319 C   0  0  0  0  0  0  0  0  0  0  0  0
   24.2069  -23.2705  -13.5455 O   0  0  0  0  0  0  0  0  0  0  0  0
   26.2186  -22.1829  -10.7812 N   0  0  0  0  0  0  0  0  0  0  0  0
   25.8026  -20.8905  -10.3153 C   0  0  0  0  0  0  0  0  0  0  0  0
   26.4998  -20.2699   -9.4751 O   0  0  0  0  0  0  0  0  0  0  0  0
   24.5496  -20.3029  -10.8347 C   0  0  0  0  0  0  0  0  0  0  0  0
   23.8958  -21.1543  -11.8894 C   0  0  2  0  0  0  0  0  0  0  0  0
   24.6744  -21.0725  -13.1336 N   0  0  0  0  0  0  0  0  0  0  0  0
   22.5177  -20.7190  -12.1809 C   0  0  0  0  0  0  0  0  0  0  0  0
   22.2175  -20.0119  -13.1826 O   0  0  0  0  0  0  0  0  0  0  0  0
   21.4945  -21.0943  -11.3272 O   0  0  0  0  0  0  0  0  0  0  0  0
  2  3  1  6
  2  4  1  0
  2  1  1  0
  5  4  1  0
  5  7  1  0
  5  6  1  1
  7  8  2  0
  9 10  1  0
  9  7  1  0
 10 11  1  0
 11 18  1  0
 11 12  2  0
 13 14  1  0
 14 15  2  0
 17 16  1  1
 16 14  1  0
 17 19  1  0
 18 17  1  0
 19 21  1  0
 20 19  2  0
M  END
$$$$
