LGN.pdb
     RDKit          3D

 21 20  0  0  1  0  0  0  0  0999 V2000
   22.1754  -13.7950  -21.4502 C   0  0  0  0  0  0  0  0  0  0  0  0
   22.4470  -14.6391  -20.2420 C   0  0  2  0  0  0  0  0  0  0  0  0
   21.8480  -16.0107  -20.3301 C   0  0  0  0  0  0  0  0  0  0  0  0
   21.9188  -13.9401  -18.9905 C   0  0  0  0  0  0  0  0  0  0  0  0
   22.9934  -12.9089  -18.6215 C   0  0  2  0  0  0  0  0  0  0  0  0
   24.2139  -13.6247  -18.4358 N   0  0  0  0  0  0  0  0  0  0  0  0
   22.5227  -12.2324  -17.3902 C   0  0  0  0  0  0  0  0  0  0  0  0
   22.6180  -12.7560  -16.2535 O   0  0  0  0  0  0  0  0  0  0  0  0
   21.9194  -10.9142  -17.4300 N   0  0  0  0  0  0  0  0  0  0  0  0
   21.3738  -10.3420  -16.2255 C   0  0  0  0  0  0  0  0  0  0  0  0
   20.7715   -9.0337  -16.4178 C   0  0  0  0  0  0  0  0  0  0  0  0
   20.8713   -8.4893  -17.5631 O   0  0  0  0  0  0  0  0  0  0  0  0
   16.3759   -5.3661  -15.5657 N   0  0  0  0  0  0  0  0  0  0  0  0
   17.7174   -5.4354  -15.0595 C   0  0  0  0  0  0  0  0  0  0  0  0
   18.3528   -4.3805  -14.8138 O   0  0  0  0  0  0  0  0  0  0  0  0
   18.3375   -6.7580  -14.8325 C   0  0  0  0  0  0  0  0  0  0  0  0
   19.5023   -7.0242  -15.7473 C   0  0  2  0  0  0  0  0  0  0  0  0
   20.0878   -8.3330  -15.4228 N   0  0  0  0  0  0  0  0  0  0  0  0
   20.5583   -6.0037  -15.6158 C   0  0  0  0  0  0  0  0  0  0  0  0
   21.5433   -6.1303  -14.8366 O   0  0  0  0  0  0  0  0  0  0  0  0
   20.4810   -4.8482  -16.3744 O   0  0  0  0  0  0  0  0  0  0  0  0
  2  3  1  6
  2  4  1  0
  2  1  1  0
  5  4  1  0
  5  7  1  0
  5  6  1  1
  7  8  2  0
  9 10  1  0
  9  7  1  0
 10 11  1  0
 11 18  1  0
 11 12  2  0
 13 14  1  0
 14 15  2  0
 17 16  1  1
 16 14  1  0
 17 19  1  0
 18 17  1  0
 19 21  1  0
 20 19  2  0
M  END
$$$$
