IHM.pdb
     RDKit          3D

 27 27  0  0  1  0  0  0  0  0999 V2000
   23.4064  -15.3021  -16.7159 C   0  0  0  0  0  0  0  0  0  0  0  0
   23.4062  -16.7880  -16.8178 C   0  0  0  0  0  0  0  0  0  0  0  0
   23.5371  -17.5195  -15.5039 C   0  0  2  0  0  0  0  0  0  0  0  0
   24.7123  -16.9497  -14.7824 C   0  0  0  0  0  0  0  0  0  0  0  0
   23.5212  -18.9882  -15.7099 C   0  0  2  0  0  0  0  0  0  0  0  0
   22.2166  -19.2972  -16.3480 N   0  0  0  0  0  0  0  0  0  0  0  0
   23.7049  -19.8214  -14.5160 C   0  0  0  0  0  0  0  0  0  0  0  0
   22.7224  -20.0204  -13.7719 O   0  0  0  0  0  0  0  0  0  0  0  0
   24.9522  -20.3997  -14.1923 N   0  0  0  0  0  0  0  0  0  0  0  0
   25.2640  -21.2507  -13.0998 C   0  0  1  0  0  0  0  0  0  0  0  0
   25.6570  -22.6453  -13.4134 C   0  0  0  0  0  0  0  0  0  0  0  0
   24.6248  -23.3724  -14.1995 C   0  0  0  0  0  0  0  0  0  0  0  0
   23.6658  -24.2489  -13.7163 C   0  0  0  0  0  0  0  0  0  0  0  0
   22.9406  -24.6784  -14.7494 N   0  0  0  0  0  0  0  0  0  0  0  0
   23.4221  -24.0920  -15.8709 C   0  0  0  0  0  0  0  0  0  0  0  0
   24.4342  -23.3116  -15.5146 N   0  0  0  0  0  0  0  0  0  0  0  0
   26.1448  -20.5794  -12.0812 C   0  0  0  0  0  0  0  0  0  0  0  0
   27.1083  -19.8610  -12.4422 O   0  0  0  0  0  0  0  0  0  0  0  0
   27.8897  -18.4638   -5.2218 C   0  0  0  0  0  0  0  0  0  0  0  0
   28.2641  -19.4300   -6.6744 S   0  0  0  0  0  0  0  0  0  0  0  0
   27.0664  -20.6156   -7.1301 C   0  0  0  0  0  0  0  0  0  0  0  0
   26.4458  -20.6376   -8.4303 C   0  0  0  0  0  0  0  0  0  0  0  0
   27.0432  -20.3106   -9.7348 C   0  0  2  0  0  0  0  0  0  0  0  0
   25.9318  -20.7237  -10.7044 N   0  0  0  0  0  0  0  0  0  0  0  0
   28.1916  -21.1617  -10.1444 C   0  0  0  0  0  0  0  0  0  0  0  0
   29.4791  -20.8239  -10.2405 O   0  0  0  0  0  0  0  0  0  0  0  0
   27.9108  -22.3845  -10.4508 O   0  0  0  0  0  0  0  0  0  0  0  0
  1  2  1  0
  3  5  1  0
  3  2  1  0
  3  4  1  6
  5  6  1  1
  7  8  2  0
  7  5  1  0
  9  7  1  0
 10  9  1  0
 10 11  1  6
 12 16  1  0
 12 11  1  0
 13 12  2  0
 14 13  1  0
 14 15  1  0
 15 16  2  0
 17 10  1  0
 18 17  2  0
 19 20  1  0
 20 21  1  0
 22 21  1  0
 23 24  1  0
 23 22  1  1
 24 17  1  0
 25 23  1  0
 26 25  1  0
 27 25  2  0
M  END
$$$$
