IHM.pdb
     RDKit          3D

 27 27  0  0  1  0  0  0  0  0999 V2000
   18.2732  -11.6008  -15.6328 C   0  0  0  0  0  0  0  0  0  0  0  0
   18.5156  -10.7026  -14.4697 C   0  0  0  0  0  0  0  0  0  0  0  0
   17.5000   -9.6006  -14.2897 C   0  0  2  0  0  0  0  0  0  0  0  0
   17.3213   -8.9281  -15.6096 C   0  0  0  0  0  0  0  0  0  0  0  0
   17.8522   -8.7369  -13.1365 C   0  0  2  0  0  0  0  0  0  0  0  0
   17.9558   -9.6424  -11.9644 N   0  0  0  0  0  0  0  0  0  0  0  0
   16.9330   -7.6329  -12.8372 C   0  0  0  0  0  0  0  0  0  0  0  0
   16.7194   -6.7793  -13.7229 O   0  0  0  0  0  0  0  0  0  0  0  0
   16.2889   -7.5144  -11.5859 N   0  0  0  0  0  0  0  0  0  0  0  0
   15.3480   -6.5335  -11.1764 C   0  0  1  0  0  0  0  0  0  0  0  0
   13.9147   -6.9109  -11.2047 C   0  0  0  0  0  0  0  0  0  0  0  0
   13.6165   -8.1060  -10.3712 C   0  0  0  0  0  0  0  0  0  0  0  0
   14.5259   -8.9075   -9.6988 C   0  0  0  0  0  0  0  0  0  0  0  0
   13.8457   -9.8681   -9.0723 N   0  0  0  0  0  0  0  0  0  0  0  0
   12.5297   -9.6886   -9.3357 C   0  0  0  0  0  0  0  0  0  0  0  0
   12.4173   -8.6233  -10.1186 N   0  0  0  0  0  0  0  0  0  0  0  0
   15.7701   -5.8210   -9.9201 C   0  0  0  0  0  0  0  0  0  0  0  0
   16.3086   -6.4503   -8.9774 O   0  0  0  0  0  0  0  0  0  0  0  0
   18.8983    0.7400   -7.1855 C   0  0  0  0  0  0  0  0  0  0  0  0
   18.2325   -0.3492   -8.4320 S   0  0  0  0  0  0  0  0  0  0  0  0
   17.3057   -1.7059   -7.8417 C   0  0  0  0  0  0  0  0  0  0  0  0
   16.7644   -2.7187   -8.7122 C   0  0  0  0  0  0  0  0  0  0  0  0
   15.8534   -3.8238   -8.3744 C   0  0  2  0  0  0  0  0  0  0  0  0
   15.5840   -4.4434   -9.7490 N   0  0  0  0  0  0  0  0  0  0  0  0
   14.5008   -3.4186   -7.9082 C   0  0  0  0  0  0  0  0  0  0  0  0
   13.3849   -3.2798   -8.6268 O   0  0  0  0  0  0  0  0  0  0  0  0
   14.3881   -3.1638   -6.6470 O   0  0  0  0  0  0  0  0  0  0  0  0
  1  2  1  0
  3  5  1  0
  3  2  1  0
  3  4  1  6
  5  6  1  1
  7  8  2  0
  7  5  1  0
  9  7  1  0
 10  9  1  0
 10 11  1  1
 12 16  1  0
 12 11  1  0
 13 12  2  0
 14 13  1  0
 14 15  1  0
 15 16  2  0
 17 10  1  0
 18 17  2  0
 19 20  1  0
 20 21  1  0
 22 21  1  0
 23 24  1  0
 23 22  1  6
 24 17  1  0
 25 23  1  0
 26 25  1  0
 27 25  2  0
M  END
$$$$
