IHM.pdb
     RDKit          3D

 27 27  0  0  1  0  0  0  0  0999 V2000
   23.8557  -15.8353  -18.9424 C   0  0  0  0  0  0  0  0  0  0  0  0
   23.0314  -14.6060  -19.1098 C   0  0  0  0  0  0  0  0  0  0  0  0
   23.1775  -13.5830  -18.0096 C   0  0  2  0  0  0  0  0  0  0  0  0
   22.8777  -14.2624  -16.7154 C   0  0  0  0  0  0  0  0  0  0  0  0
   22.4053  -12.3554  -18.3199 C   0  0  2  0  0  0  0  0  0  0  0  0
   22.8711  -11.9066  -19.6564 N   0  0  0  0  0  0  0  0  0  0  0  0
   22.5085  -11.2528  -17.3570 C   0  0  0  0  0  0  0  0  0  0  0  0
   22.3336  -11.5016  -16.1461 O   0  0  0  0  0  0  0  0  0  0  0  0
   22.8001   -9.9315  -17.7615 N   0  0  0  0  0  0  0  0  0  0  0  0
   22.8159   -8.7567  -16.9648 C   0  0  1  0  0  0  0  0  0  0  0  0
   23.6769   -7.6381  -17.4178 C   0  0  0  0  0  0  0  0  0  0  0  0
   23.2571   -7.0831  -18.7322 C   0  0  0  0  0  0  0  0  0  0  0  0
   22.9947   -7.7896  -19.8956 C   0  0  0  0  0  0  0  0  0  0  0  0
   22.6482   -6.9153  -20.8408 N   0  0  0  0  0  0  0  0  0  0  0  0
   22.6871   -5.6754  -20.2979 C   0  0  0  0  0  0  0  0  0  0  0  0
   23.0559   -5.8023  -19.0297 N   0  0  0  0  0  0  0  0  0  0  0  0
   21.4370   -8.3345  -16.5355 C   0  0  0  0  0  0  0  0  0  0  0  0
   20.4306   -8.6465  -17.2173 O   0  0  0  0  0  0  0  0  0  0  0  0
   14.9308   -9.2512  -14.9484 C   0  0  0  0  0  0  0  0  0  0  0  0
   16.5778   -8.8936  -15.5343 S   0  0  0  0  0  0  0  0  0  0  0  0
   17.8005   -8.7057  -14.3024 C   0  0  0  0  0  0  0  0  0  0  0  0
   19.1811   -8.4299  -14.6093 C   0  0  0  0  0  0  0  0  0  0  0  0
   19.7890   -7.1561  -15.0254 C   0  0  2  0  0  0  0  0  0  0  0  0
   21.2176   -7.5855  -15.3724 N   0  0  0  0  0  0  0  0  0  0  0  0
   19.9834   -6.1557  -13.9426 C   0  0  0  0  0  0  0  0  0  0  0  0
   19.1874   -5.1405  -13.6012 O   0  0  0  0  0  0  0  0  0  0  0  0
   21.0617   -6.2795  -13.2426 O   0  0  0  0  0  0  0  0  0  0  0  0
  1  2  1  0
  3  5  1  0
  3  2  1  0
  3  4  1  1
  5  6  1  6
  7  8  2  0
  7  5  1  0
  9  7  1  0
 10  9  1  0
 10 11  1  6
 12 16  1  0
 12 11  1  0
 13 12  2  0
 14 13  1  0
 14 15  1  0
 15 16  2  0
 17 10  1  0
 18 17  2  0
 19 20  1  0
 20 21  1  0
 22 21  1  0
 23 24  1  0
 23 22  1  1
 24 17  1  0
 25 23  1  0
 26 25  1  0
 27 25  2  0
M  END
$$$$
