IHM.pdb
     RDKit          3D

 27 27  0  0  1  0  0  0  0  0999 V2000
   27.5888  -15.3037  -16.7829 C   0  0  0  0  0  0  0  0  0  0  0  0
   26.2430  -14.7540  -16.4589 C   0  0  0  0  0  0  0  0  0  0  0  0
   26.1195  -13.2541  -16.5751 C   0  0  2  0  0  0  0  0  0  0  0  0
   27.1595  -12.6437  -15.6964 C   0  0  0  0  0  0  0  0  0  0  0  0
   24.7179  -12.8185  -16.3616 C   0  0  2  0  0  0  0  0  0  0  0  0
   23.8691  -13.8154  -17.0617 N   0  0  0  0  0  0  0  0  0  0  0  0
   24.3748  -11.4643  -16.8109 C   0  0  0  0  0  0  0  0  0  0  0  0
   24.8743  -10.4923  -16.2073 O   0  0  0  0  0  0  0  0  0  0  0  0
   23.5043  -11.2357  -17.8994 N   0  0  0  0  0  0  0  0  0  0  0  0
   23.0052   -9.9944  -18.3738 C   0  0  1  0  0  0  0  0  0  0  0  0
   22.6323   -9.9129  -19.8063 C   0  0  0  0  0  0  0  0  0  0  0  0
   22.0996   -8.5779  -20.1885 C   0  0  0  0  0  0  0  0  0  0  0  0
   20.7689   -8.1991  -20.2740 C   0  0  0  0  0  0  0  0  0  0  0  0
   20.7267   -6.9200  -20.6480 N   0  0  0  0  0  0  0  0  0  0  0  0
   22.0005   -6.4863  -20.7995 C   0  0  0  0  0  0  0  0  0  0  0  0
   22.8077   -7.5010  -20.5178 N   0  0  0  0  0  0  0  0  0  0  0  0
   21.9927   -9.3874  -17.4409 C   0  0  0  0  0  0  0  0  0  0  0  0
   21.0348  -10.0701  -17.0038 O   0  0  0  0  0  0  0  0  0  0  0  0
   20.0968  -10.1674  -11.5974 C   0  0  0  0  0  0  0  0  0  0  0  0
   21.3309   -8.9859  -12.1119 S   0  0  0  0  0  0  0  0  0  0  0  0
   20.9001   -7.9769  -13.4699 C   0  0  0  0  0  0  0  0  0  0  0  0
   21.3569   -8.2377  -14.8113 C   0  0  0  0  0  0  0  0  0  0  0  0
   21.0208   -7.5158  -16.0488 C   0  0  2  0  0  0  0  0  0  0  0  0
   22.0728   -8.0526  -17.0241 N   0  0  0  0  0  0  0  0  0  0  0  0
   21.2848   -6.0527  -16.0283 C   0  0  0  0  0  0  0  0  0  0  0  0
   20.7229   -5.1212  -15.2552 O   0  0  0  0  0  0  0  0  0  0  0  0
   22.1679   -5.6236  -16.8674 O   0  0  0  0  0  0  0  0  0  0  0  0
  1  2  1  0
  3  5  1  0
  3  2  1  0
  3  4  1  1
  5  6  1  6
  7  8  2  0
  7  5  1  0
  9  7  1  0
 10  9  1  0
 10 11  1  6
 12 16  1  0
 12 11  1  0
 13 12  2  0
 14 13  1  0
 14 15  1  0
 15 16  2  0
 17 10  1  0
 18 17  2  0
 19 20  1  0
 20 21  1  0
 22 21  1  0
 23 24  1  0
 23 22  1  1
 24 17  1  0
 25 23  1  0
 26 25  1  0
 27 25  2  0
M  END
$$$$
