IHM.pdb
     RDKit          3D

 27 27  0  0  1  0  0  0  0  0999 V2000
   29.2540  -17.6020  -17.4361 C   0  0  0  0  0  0  0  0  0  0  0  0
   27.9289  -17.5503  -18.1143 C   0  0  0  0  0  0  0  0  0  0  0  0
   26.7355  -17.6446  -17.1949 C   0  0  2  0  0  0  0  0  0  0  0  0
   26.9401  -18.8247  -16.3051 C   0  0  0  0  0  0  0  0  0  0  0  0
   25.4678  -17.5928  -17.9632 C   0  0  2  0  0  0  0  0  0  0  0  0
   25.4911  -16.3060  -18.7037 N   0  0  0  0  0  0  0  0  0  0  0  0
   24.2255  -17.7036  -17.1899 C   0  0  0  0  0  0  0  0  0  0  0  0
   23.8617  -16.7256  -16.5045 O   0  0  0  0  0  0  0  0  0  0  0  0
   23.4382  -18.8760  -17.2035 N   0  0  0  0  0  0  0  0  0  0  0  0
   22.2746  -19.1566  -16.4404 C   0  0  1  0  0  0  0  0  0  0  0  0
   20.9998  -19.3229  -17.1784 C   0  0  0  0  0  0  0  0  0  0  0  0
   20.5409  -18.0658  -17.8274 C   0  0  0  0  0  0  0  0  0  0  0  0
   19.5905  -17.1754  -17.3525 C   0  0  0  0  0  0  0  0  0  0  0  0
   19.4774  -16.1823  -18.2350 N   0  0  0  0  0  0  0  0  0  0  0  0
   20.3348  -16.4284  -19.2537 C   0  0  0  0  0  0  0  0  0  0  0  0
   20.9626  -17.5662  -18.9858 N   0  0  0  0  0  0  0  0  0  0  0  0
   22.5159  -20.2051  -15.3885 C   0  0  0  0  0  0  0  0  0  0  0  0
   23.4772  -21.0052  -15.4908 O   0  0  0  0  0  0  0  0  0  0  0  0
   26.1256  -21.8797   -9.7654 C   0  0  0  0  0  0  0  0  0  0  0  0
   25.0139  -21.8624  -11.1610 S   0  0  0  0  0  0  0  0  0  0  0  0
   24.1660  -20.3622  -11.4409 C   0  0  0  0  0  0  0  0  0  0  0  0
   23.2588  -20.1731  -12.5443 C   0  0  0  0  0  0  0  0  0  0  0  0
   22.2175  -21.0874  -13.0396 C   0  0  2  0  0  0  0  0  0  0  0  0
   21.6905  -20.3333  -14.2642 N   0  0  0  0  0  0  0  0  0  0  0  0
   21.0164  -21.2191  -12.1730 C   0  0  0  0  0  0  0  0  0  0  0  0
   20.7044  -22.2108  -11.3362 O   0  0  0  0  0  0  0  0  0  0  0  0
   20.1608  -20.2537  -12.2383 O   0  0  0  0  0  0  0  0  0  0  0  0
  1  2  1  0
  3  5  1  0
  3  2  1  0
  3  4  1  6
  5  6  1  1
  7  8  2  0
  7  5  1  0
  9  7  1  0
 10  9  1  0
 10 11  1  6
 12 16  1  0
 12 11  1  0
 13 12  2  0
 14 13  1  0
 14 15  1  0
 15 16  2  0
 17 10  1  0
 18 17  2  0
 19 20  1  0
 20 21  1  0
 22 21  1  0
 23 24  1  0
 23 22  1  1
 24 17  1  0
 25 23  1  0
 26 25  1  0
 27 25  2  0
M  END
$$$$
