IHM.pdb
     RDKit          3D

 27 27  0  0  1  0  0  0  0  0999 V2000
   30.1147  -21.2922  -11.4964 C   0  0  0  0  0  0  0  0  0  0  0  0
   28.6895  -21.3710  -11.0710 C   0  0  0  0  0  0  0  0  0  0  0  0
   27.6959  -20.8006  -12.0539 C   0  0  2  0  0  0  0  0  0  0  0  0
   28.1956  -19.4603  -12.4782 C   0  0  0  0  0  0  0  0  0  0  0  0
   26.3167  -20.8640  -11.5120 C   0  0  2  0  0  0  0  0  0  0  0  0
   26.1332  -22.2539  -11.0231 N   0  0  0  0  0  0  0  0  0  0  0  0
   25.2313  -20.5097  -12.4339 C   0  0  0  0  0  0  0  0  0  0  0  0
   24.8649  -19.3176  -12.4920 O   0  0  0  0  0  0  0  0  0  0  0  0
   24.5990  -21.4732  -13.2502 N   0  0  0  0  0  0  0  0  0  0  0  0
   23.5796  -21.2671  -14.2163 C   0  0  1  0  0  0  0  0  0  0  0  0
   23.9344  -21.4881  -15.6386 C   0  0  0  0  0  0  0  0  0  0  0  0
   24.9195  -20.4970  -16.1479 C   0  0  0  0  0  0  0  0  0  0  0  0
   25.4108  -19.3848  -15.4822 C   0  0  0  0  0  0  0  0  0  0  0  0
   26.2713  -18.7659  -16.2911 N   0  0  0  0  0  0  0  0  0  0  0  0
   26.3318  -19.4636  -17.4500 C   0  0  0  0  0  0  0  0  0  0  0  0
   25.5103  -20.4997  -17.3397 N   0  0  0  0  0  0  0  0  0  0  0  0
   22.2681  -21.8818  -13.8085 C   0  0  0  0  0  0  0  0  0  0  0  0
   22.2345  -23.0007  -13.2413 O   0  0  0  0  0  0  0  0  0  0  0  0
   21.0575  -21.8058   -8.8078 C   0  0  0  0  0  0  0  0  0  0  0  0
   19.3478  -21.6561   -9.2959 S   0  0  0  0  0  0  0  0  0  0  0  0
   19.0040  -21.9817  -10.9762 C   0  0  0  0  0  0  0  0  0  0  0  0
   19.9323  -21.6776  -12.0355 C   0  0  0  0  0  0  0  0  0  0  0  0
   19.7622  -21.8703  -13.4844 C   0  0  2  0  0  0  0  0  0  0  0  0
   21.0438  -21.2421  -14.0399 N   0  0  0  0  0  0  0  0  0  0  0  0
   18.6826  -21.0654  -14.1149 C   0  0  0  0  0  0  0  0  0  0  0  0
   18.7029  -19.7747  -14.4535 O   0  0  0  0  0  0  0  0  0  0  0  0
   17.5808  -21.6911  -14.3653 O   0  0  0  0  0  0  0  0  0  0  0  0
  1  2  1  0
  3  5  1  0
  3  2  1  0
  3  4  1  1
  5  6  1  6
  7  8  2  0
  7  5  1  0
  9  7  1  0
 10  9  1  0
 10 11  1  6
 12 16  1  0
 12 11  1  0
 13 12  2  0
 14 13  1  0
 14 15  1  0
 15 16  2  0
 17 10  1  0
 18 17  2  0
 19 20  1  0
 20 21  1  0
 22 21  1  0
 23 24  1  0
 23 22  1  1
 24 17  1  0
 25 23  1  0
 26 25  1  0
 27 25  2  0
M  END
$$$$
