IHM.pdb
     RDKit          3D

 27 27  0  0  1  0  0  0  0  0999 V2000
   30.1537  -20.7576  -17.4829 C   0  0  0  0  0  0  0  0  0  0  0  0
   28.6779  -20.6154  -17.3415 C   0  0  0  0  0  0  0  0  0  0  0  0
   28.2040  -20.1947  -15.9715 C   0  0  2  0  0  0  0  0  0  0  0  0
   28.8769  -21.0716  -14.9693 C   0  0  0  0  0  0  0  0  0  0  0  0
   26.7233  -20.1264  -15.9195 C   0  0  2  0  0  0  0  0  0  0  0  0
   26.3206  -19.1728  -16.9840 N   0  0  0  0  0  0  0  0  0  0  0  0
   26.1282  -19.7281  -14.6386 C   0  0  0  0  0  0  0  0  0  0  0  0
   26.2485  -18.5415  -14.2696 O   0  0  0  0  0  0  0  0  0  0  0  0
   25.4280  -20.6437  -13.8224 N   0  0  0  0  0  0  0  0  0  0  0  0
   24.7716  -20.3911  -12.5894 C   0  0  1  0  0  0  0  0  0  0  0  0
   23.3045  -20.5991  -12.5437 C   0  0  0  0  0  0  0  0  0  0  0  0
   22.5686  -19.7281  -13.4986 C   0  0  0  0  0  0  0  0  0  0  0  0
   23.0984  -18.7334  -14.3057 C   0  0  0  0  0  0  0  0  0  0  0  0
   22.1006  -18.1965  -15.0085 N   0  0  0  0  0  0  0  0  0  0  0  0
   20.9559  -18.8309  -14.6614 C   0  0  0  0  0  0  0  0  0  0  0  0
   21.2629  -19.7472  -13.7522 N   0  0  0  0  0  0  0  0  0  0  0  0
   25.5105  -20.9728  -11.4148 C   0  0  0  0  0  0  0  0  0  0  0  0
   25.8715  -22.1747  -11.4170 O   0  0  0  0  0  0  0  0  0  0  0  0
   29.6181  -19.2182   -5.2483 C   0  0  0  0  0  0  0  0  0  0  0  0
   28.0979  -18.6997   -6.0253 S   0  0  0  0  0  0  0  0  0  0  0  0
   27.1604  -19.9625   -6.7831 C   0  0  0  0  0  0  0  0  0  0  0  0
   26.7642  -19.9159   -8.1677 C   0  0  0  0  0  0  0  0  0  0  0  0
   26.0159  -20.9207   -8.9395 C   0  0  2  0  0  0  0  0  0  0  0  0
   25.8246  -20.2101  -10.2828 N   0  0  0  0  0  0  0  0  0  0  0  0
   24.6238  -21.1730   -8.4819 C   0  0  0  0  0  0  0  0  0  0  0  0
   24.2087  -21.9697   -7.4950 O   0  0  0  0  0  0  0  0  0  0  0  0
   23.6937  -20.5453   -9.1214 O   0  0  0  0  0  0  0  0  0  0  0  0
  1  2  1  0
  3  5  1  0
  3  2  1  0
  3  4  1  1
  5  6  1  6
  7  8  2  0
  7  5  1  0
  9  7  1  0
 10  9  1  0
 10 11  1  6
 12 16  1  0
 12 11  1  0
 13 12  2  0
 14 13  1  0
 14 15  1  0
 15 16  2  0
 17 10  1  0
 18 17  2  0
 19 20  1  0
 20 21  1  0
 22 21  1  0
 23 24  1  0
 23 22  1  1
 24 17  1  0
 25 23  1  0
 26 25  1  0
 27 25  2  0
M  END
$$$$
