IHM.pdb
     RDKit          3D

 27 27  0  0  1  0  0  0  0  0999 V2000
   17.8712  -14.7793  -19.3035 C   0  0  0  0  0  0  0  0  0  0  0  0
   17.8116  -14.2321  -17.9195 C   0  0  0  0  0  0  0  0  0  0  0  0
   17.6969  -12.7297  -17.8298 C   0  0  2  0  0  0  0  0  0  0  0  0
   18.8132  -12.1410  -18.6258 C   0  0  0  0  0  0  0  0  0  0  0  0
   17.5716  -12.2899  -16.4189 C   0  0  2  0  0  0  0  0  0  0  0  0
   16.3955  -13.0106  -15.8693 N   0  0  0  0  0  0  0  0  0  0  0  0
   17.4272  -10.8475  -16.1903 C   0  0  0  0  0  0  0  0  0  0  0  0
   18.3363  -10.0883  -16.5850 O   0  0  0  0  0  0  0  0  0  0  0  0
   16.2961  -10.3023  -15.5437 N   0  0  0  0  0  0  0  0  0  0  0  0
   16.0155   -8.9367  -15.2766 C   0  0  1  0  0  0  0  0  0  0  0  0
   14.5911   -8.5468  -15.1466 C   0  0  0  0  0  0  0  0  0  0  0  0
   13.8698   -8.5559  -16.4473 C   0  0  0  0  0  0  0  0  0  0  0  0
   14.4284   -8.5629  -17.7159 C   0  0  0  0  0  0  0  0  0  0  0  0
   13.4346   -8.5711  -18.6049 N   0  0  0  0  0  0  0  0  0  0  0  0
   12.2643   -8.5693  -17.9238 C   0  0  0  0  0  0  0  0  0  0  0  0
   12.5520   -8.5600  -16.6286 N   0  0  0  0  0  0  0  0  0  0  0  0
   16.9080   -8.3645  -14.2089 C   0  0  0  0  0  0  0  0  0  0  0  0
   17.0076   -8.9241  -13.0901 O   0  0  0  0  0  0  0  0  0  0  0  0
   23.3169   -9.2740  -13.7001 C   0  0  0  0  0  0  0  0  0  0  0  0
   21.8884   -9.3105  -12.6315 S   0  0  0  0  0  0  0  0  0  0  0  0
   20.8864   -7.8810  -12.6501 C   0  0  0  0  0  0  0  0  0  0  0  0
   19.5890   -7.8459  -13.2760 C   0  0  0  0  0  0  0  0  0  0  0  0
   18.6229   -6.7367  -13.3173 C   0  0  2  0  0  0  0  0  0  0  0  0
   17.6572   -7.1987  -14.4128 N   0  0  0  0  0  0  0  0  0  0  0  0
   19.1488   -5.4489  -13.8425 C   0  0  0  0  0  0  0  0  0  0  0  0
   19.2507   -5.0531  -15.1129 O   0  0  0  0  0  0  0  0  0  0  0  0
   19.5649   -4.6035  -12.9592 O   0  0  0  0  0  0  0  0  0  0  0  0
  1  2  1  0
  3  5  1  0
  3  2  1  0
  3  4  1  1
  5  6  1  6
  7  8  2  0
  7  5  1  0
  9  7  1  0
 10  9  1  0
 10 11  1  1
 12 16  1  0
 12 11  1  0
 13 12  2  0
 14 13  1  0
 14 15  1  0
 15 16  2  0
 17 10  1  0
 18 17  2  0
 19 20  1  0
 20 21  1  0
 22 21  1  0
 23 24  1  0
 23 22  1  6
 24 17  1  0
 25 23  1  0
 26 25  1  0
 27 25  2  0
M  END
$$$$
