IHM.pdb
     RDKit          3D

 27 27  0  0  1  0  0  0  0  0999 V2000
   27.4886  -15.8166  -15.6044 C   0  0  0  0  0  0  0  0  0  0  0  0
   26.0314  -15.9747  -15.3398 C   0  0  0  0  0  0  0  0  0  0  0  0
   25.1618  -14.8553  -15.8586 C   0  0  2  0  0  0  0  0  0  0  0  0
   25.6886  -13.5755  -15.3011 C   0  0  0  0  0  0  0  0  0  0  0  0
   23.7260  -15.1485  -15.6297 C   0  0  2  0  0  0  0  0  0  0  0  0
   23.4975  -16.5143  -16.1655 N   0  0  0  0  0  0  0  0  0  0  0  0
   22.7618  -14.2116  -16.2179 C   0  0  0  0  0  0  0  0  0  0  0  0
   22.6026  -14.2204  -17.4562 O   0  0  0  0  0  0  0  0  0  0  0  0
   22.0157  -13.3110  -15.4261 N   0  0  0  0  0  0  0  0  0  0  0  0
   21.1319  -12.2892  -15.8619 C   0  0  1  0  0  0  0  0  0  0  0  0
   19.6775  -12.5462  -15.7337 C   0  0  0  0  0  0  0  0  0  0  0  0
   19.2736  -13.8643  -16.2917 C   0  0  0  0  0  0  0  0  0  0  0  0
   18.7275  -14.9353  -15.6015 C   0  0  0  0  0  0  0  0  0  0  0  0
   18.5105  -15.9210  -16.4729 N   0  0  0  0  0  0  0  0  0  0  0  0
   18.9080  -15.4939  -17.6948 C   0  0  0  0  0  0  0  0  0  0  0  0
   19.3630  -14.2548  -17.5601 N   0  0  0  0  0  0  0  0  0  0  0  0
   21.5571  -10.9235  -15.3947 C   0  0  0  0  0  0  0  0  0  0  0  0
   22.0639  -10.7649  -14.2577 O   0  0  0  0  0  0  0  0  0  0  0  0
   22.7358   -6.6314  -20.0884 C   0  0  0  0  0  0  0  0  0  0  0  0
   22.6214   -5.5475  -18.6757 S   0  0  0  0  0  0  0  0  0  0  0  0
   22.5624   -6.3314  -17.1169 C   0  0  0  0  0  0  0  0  0  0  0  0
   22.0581   -7.6689  -16.9350 C   0  0  0  0  0  0  0  0  0  0  0  0
   21.9520   -8.4452  -15.6894 C   0  0  2  0  0  0  0  0  0  0  0  0
   21.4089   -9.7845  -16.1963 N   0  0  0  0  0  0  0  0  0  0  0  0
   20.9059   -7.9874  -14.7370 C   0  0  0  0  0  0  0  0  0  0  0  0
   21.0366   -7.1574  -13.7003 O   0  0  0  0  0  0  0  0  0  0  0  0
   19.7174   -8.4537  -14.9326 O   0  0  0  0  0  0  0  0  0  0  0  0
  1  2  1  0
  3  5  1  0
  3  2  1  0
  3  4  1  1
  5  6  1  6
  7  8  2  0
  7  5  1  0
  9  7  1  0
 10  9  1  0
 10 11  1  1
 12 16  1  0
 12 11  1  0
 13 12  2  0
 14 13  1  0
 14 15  1  0
 15 16  2  0
 17 10  1  0
 18 17  2  0
 19 20  1  0
 20 21  1  0
 22 21  1  0
 23 24  1  0
 23 22  1  6
 24 17  1  0
 25 23  1  0
 26 25  1  0
 27 25  2  0
M  END
$$$$
