IHM.pdb
     RDKit          3D

 27 27  0  0  1  0  0  0  0  0999 V2000
   26.8734  -19.2164   -5.5017 C   0  0  0  0  0  0  0  0  0  0  0  0
   25.8567  -19.6872   -6.4831 C   0  0  0  0  0  0  0  0  0  0  0  0
   26.4018  -20.0577   -7.8411 C   0  0  2  0  0  0  0  0  0  0  0  0
   27.2721  -18.9368   -8.3021 C   0  0  0  0  0  0  0  0  0  0  0  0
   25.3119  -20.4824   -8.7530 C   0  0  2  0  0  0  0  0  0  0  0  0
   24.5435  -21.5179   -8.0170 N   0  0  0  0  0  0  0  0  0  0  0  0
   25.7168  -20.9976  -10.0661 C   0  0  0  0  0  0  0  0  0  0  0  0
   26.5280  -21.9456  -10.1093 O   0  0  0  0  0  0  0  0  0  0  0  0
   25.2150  -20.4548  -11.2696 N   0  0  0  0  0  0  0  0  0  0  0  0
   25.6443  -20.7236  -12.5957 C   0  0  1  0  0  0  0  0  0  0  0  0
   25.7790  -22.1456  -12.9928 C   0  0  0  0  0  0  0  0  0  0  0  0
   26.3315  -22.3115  -14.3636 C   0  0  0  0  0  0  0  0  0  0  0  0
   27.6083  -21.9907  -14.7977 C   0  0  0  0  0  0  0  0  0  0  0  0
   27.6935  -22.2968  -16.0927 N   0  0  0  0  0  0  0  0  0  0  0  0
   26.4994  -22.8026  -16.4823 C   0  0  0  0  0  0  0  0  0  0  0  0
   25.6972  -22.8012  -15.4254 N   0  0  0  0  0  0  0  0  0  0  0  0
   24.9405  -19.8667  -13.6127 C   0  0  0  0  0  0  0  0  0  0  0  0
   23.6975  -19.7024  -13.5612 O   0  0  0  0  0  0  0  0  0  0  0  0
   28.2075  -15.6394  -17.7349 C   0  0  0  0  0  0  0  0  0  0  0  0
   27.7409  -15.2528  -16.0567 S   0  0  0  0  0  0  0  0  0  0  0  0
   26.4528  -16.2193  -15.3823 C   0  0  0  0  0  0  0  0  0  0  0  0
   25.9175  -17.3795  -16.0483 C   0  0  0  0  0  0  0  0  0  0  0  0
   24.8591  -18.2919  -15.5872 C   0  0  2  0  0  0  0  0  0  0  0  0
   25.6310  -19.2229  -14.6474 N   0  0  0  0  0  0  0  0  0  0  0  0
   24.3165  -19.2159  -16.6181 C   0  0  0  0  0  0  0  0  0  0  0  0
   24.9442  -20.2076  -17.2533 O   0  0  0  0  0  0  0  0  0  0  0  0
   23.0803  -19.0366  -16.9466 O   0  0  0  0  0  0  0  0  0  0  0  0
  1  2  1  0
  3  5  1  0
  3  2  1  0
  3  4  1  6
  5  6  1  1
  7  8  2  0
  7  5  1  0
  9  7  1  0
 10  9  1  0
 10 11  1  6
 12 16  1  0
 12 11  1  0
 13 12  2  0
 14 13  1  0
 14 15  1  0
 15 16  2  0
 17 10  1  0
 18 17  2  0
 19 20  1  0
 20 21  1  0
 22 21  1  0
 23 24  1  0
 23 22  1  6
 24 17  1  0
 25 23  1  0
 26 25  1  0
 27 25  2  0
M  END
$$$$
