IHM.pdb
     RDKit          3D

 27 27  0  0  1  0  0  0  0  0999 V2000
   20.2177  -13.9692  -21.2480 C   0  0  0  0  0  0  0  0  0  0  0  0
   20.9697  -12.7051  -21.0133 C   0  0  0  0  0  0  0  0  0  0  0  0
   20.4928  -11.8856  -19.8388 C   0  0  2  0  0  0  0  0  0  0  0  0
   19.0126  -11.7405  -19.9578 C   0  0  0  0  0  0  0  0  0  0  0  0
   21.2829  -10.6374  -19.7064 C   0  0  2  0  0  0  0  0  0  0  0  0
   22.7058  -11.0581  -19.6538 N   0  0  0  0  0  0  0  0  0  0  0  0
   20.9708   -9.7807  -18.5566 C   0  0  0  0  0  0  0  0  0  0  0  0
   19.7830   -9.4448  -18.3694 O   0  0  0  0  0  0  0  0  0  0  0  0
   21.9700   -9.3332  -17.6643 N   0  0  0  0  0  0  0  0  0  0  0  0
   21.8174   -8.4900  -16.5326 C   0  0  1  0  0  0  0  0  0  0  0  0
   22.7766   -8.6680  -15.4164 C   0  0  0  0  0  0  0  0  0  0  0  0
   22.8197  -10.0659  -14.9106 C   0  0  0  0  0  0  0  0  0  0  0  0
   22.0378  -11.1326  -15.3259 C   0  0  0  0  0  0  0  0  0  0  0  0
   22.3951  -12.2061  -14.6205 N   0  0  0  0  0  0  0  0  0  0  0  0
   23.3836  -11.8385  -13.7713 C   0  0  0  0  0  0  0  0  0  0  0  0
   23.6211  -10.5475  -13.9643 N   0  0  0  0  0  0  0  0  0  0  0  0
   21.5790   -7.0540  -16.9135 C   0  0  0  0  0  0  0  0  0  0  0  0
   22.3611   -6.4608  -17.6953 O   0  0  0  0  0  0  0  0  0  0  0  0
   15.8915   -5.7077  -18.6572 C   0  0  0  0  0  0  0  0  0  0  0  0
   16.8005   -4.2731  -19.2043 S   0  0  0  0  0  0  0  0  0  0  0  0
   18.3231   -3.9840  -18.4006 C   0  0  0  0  0  0  0  0  0  0  0  0
   19.0099   -4.9986  -17.6423 C   0  0  0  0  0  0  0  0  0  0  0  0
   20.2780   -4.8878  -16.9042 C   0  0  2  0  0  0  0  0  0  0  0  0
   20.4892   -6.3255  -16.4201 N   0  0  0  0  0  0  0  0  0  0  0  0
   20.2175   -4.1046  -15.6417 C   0  0  0  0  0  0  0  0  0  0  0  0
   20.3975   -2.7932  -15.4719 O   0  0  0  0  0  0  0  0  0  0  0  0
   19.9618   -4.7766  -14.5687 O   0  0  0  0  0  0  0  0  0  0  0  0
  1  2  1  0
  3  5  1  0
  3  2  1  0
  3  4  1  6
  5  6  1  1
  7  8  2  0
  7  5  1  0
  9  7  1  0
 10  9  1  0
 10 11  1  1
 12 16  1  0
 12 11  1  0
 13 12  2  0
 14 13  1  0
 14 15  1  0
 15 16  2  0
 17 10  1  0
 18 17  2  0
 19 20  1  0
 20 21  1  0
 22 21  1  0
 23 24  1  0
 23 22  1  1
 24 17  1  0
 25 23  1  0
 26 25  1  0
 27 25  2  0
M  END
$$$$
