RMN.pdb
     RDKit          3D

 28 27  0  0  1  0  0  0  0  0999 V2000
    8.3541  -12.7094   15.9062 N   0  0  0  0  0  0  0  0  0  0  0  0
    8.8664  -13.8930   16.5078 C   0  0  0  0  0  0  0  0  0  0  0  0
    9.5087  -14.7428   15.7802 N   0  0  0  0  0  0  0  0  0  0  0  0
    8.6624  -14.1196   17.8998 N   0  0  0  0  0  0  0  0  0  0  0  0
    7.7215  -15.0780   18.3822 C   0  0  0  0  0  0  0  0  0  0  0  0
    6.8026  -14.5204   19.4441 C   0  0  0  0  0  0  0  0  0  0  0  0
    7.6824  -13.8835   20.5154 C   0  0  0  0  0  0  0  0  0  0  0  0
    8.4269  -15.0234   21.1920 C   0  0  2  0  0  0  0  0  0  0  0  0
    7.4415  -16.1079   21.2970 N   0  0  0  0  0  0  0  0  0  0  0  0
    8.8788  -14.6592   22.5590 C   0  0  0  0  0  0  0  0  0  0  0  0
    9.2748  -13.4698   22.7912 O   0  0  0  0  0  0  0  0  0  0  0  0
    9.7587  -15.6634   16.1586 C   0  0  0  0  0  0  0  0  0  0  0  0
    5.5705  -12.2033   27.0233 S   0  0  0  0  0  0  0  0  0  0  0  0
    7.2847  -12.0950   26.4161 C   0  0  0  0  0  0  0  0  0  0  0  0
    7.4300  -13.0942   24.8644 C   0  0  0  0  0  0  0  0  0  0  0  0
    7.4208  -14.5426   25.2312 C   0  0  2  0  0  0  0  0  0  0  0  0
    8.7841  -15.1624   25.0284 N   0  0  0  0  0  0  0  0  0  0  0  0
    8.8841  -15.5936   23.6194 C   0  0  0  0  0  0  0  0  0  0  0  0
    8.9101  -16.3490   25.8925 O   0  0  0  0  0  0  0  0  0  0  0  0
    8.8885  -16.1425   27.1533 N   0  0  0  0  0  0  0  0  0  0  0  0
   12.7593  -19.4493   23.9474 C   0  0  0  0  0  0  0  0  0  0  0  0
   12.6546  -18.1263   24.4957 O   0  0  0  0  0  0  0  0  0  0  0  0
   13.6978  -17.5950   24.8853 C   0  0  0  0  0  0  0  0  0  0  0  0
   11.3209  -17.5083   24.5511 C   0  0  1  0  0  0  0  0  0  0  0  0
   10.3700  -18.2924   25.3806 N   0  0  0  0  0  0  0  0  0  0  0  0
    9.0434  -17.6534   25.3809 C   0  0  0  0  0  0  0  0  0  0  0  0
   10.8070  -18.3753   26.8127 O   0  0  0  0  0  0  0  0  0  0  0  0
   11.2968  -19.3995   27.3146 O   0  0  0  0  0  0  0  0  0  0  0  0
  2  1  1  0
  3  2  2  0
  4  2  1  0
  5  4  1  0
  6  5  1  0
  7  8  1  0
  7  6  1  0
  8 10  1  0
  8  9  1  1
 10 11  2  0
 12 13  1  0
 13 14  1  0
 15 14  1  0
 16 15  1  6
 17 16  1  0
 17 10  1  0
 18 19  2  0
 18 16  1  0
 20 21  1  0
 21 23  1  0
 21 22  2  0
 24 23  1  6
 24 25  1  0
 24 26  1  0
 25 18  1  0
 26 27  2  0
 26 28  1  0
M  END
$$$$
