RMN.pdb
     RDKit          3D

 28 27  0  0  1  0  0  0  0  0999 V2000
    7.2401  -12.9806   14.9980 N   0  0  0  0  0  0  0  0  0  0  0  0
    7.9228  -13.8956   15.8476 C   0  0  0  0  0  0  0  0  0  0  0  0
    8.1300  -15.1014   15.4384 N   0  0  0  0  0  0  0  0  0  0  0  0
    8.3652  -13.4666   17.1324 N   0  0  0  0  0  0  0  0  0  0  0  0
    9.1467  -14.3037   17.9839 C   0  0  0  0  0  0  0  0  0  0  0  0
    8.3245  -15.0005   19.0428 C   0  0  0  0  0  0  0  0  0  0  0  0
    8.7951  -14.4797   20.3973 C   0  0  0  0  0  0  0  0  0  0  0  0
    8.9744  -15.6995   21.2867 C   0  0  2  0  0  0  0  0  0  0  0  0
    7.7162  -16.4472   21.1600 N   0  0  0  0  0  0  0  0  0  0  0  0
    9.1629  -15.3264   22.7118 C   0  0  0  0  0  0  0  0  0  0  0  0
   10.1948  -14.6601   23.0531 O   0  0  0  0  0  0  0  0  0  0  0  0
    8.6854  -15.7520   16.0053 C   0  0  0  0  0  0  0  0  0  0  0  0
    6.7542  -11.6233   27.5188 S   0  0  0  0  0  0  0  0  0  0  0  0
    6.2932  -11.9323   25.7836 C   0  0  0  0  0  0  0  0  0  0  0  0
    7.5516  -13.0588   25.0256 C   0  0  0  0  0  0  0  0  0  0  0  0
    7.3537  -14.4317   25.5809 C   0  0  2  0  0  0  0  0  0  0  0  0
    8.4567  -15.3625   25.1325 N   0  0  0  0  0  0  0  0  0  0  0  0
    8.2294  -15.6873   23.7098 C   0  0  0  0  0  0  0  0  0  0  0  0
    8.3868  -16.6086   25.9154 O   0  0  0  0  0  0  0  0  0  0  0  0
    7.3718  -17.3569   25.7092 N   0  0  0  0  0  0  0  0  0  0  0  0
   11.2646  -21.1659   25.5792 C   0  0  0  0  0  0  0  0  0  0  0  0
   10.0520  -20.5893   26.0880 O   0  0  0  0  0  0  0  0  0  0  0  0
    9.2795  -21.3421   26.6868 C   0  0  0  0  0  0  0  0  0  0  0  0
    9.8237  -19.1543   25.8585 C   0  0  2  0  0  0  0  0  0  0  0  0
    9.5977  -18.4097   27.1240 N   0  0  0  0  0  0  0  0  0  0  0  0
    9.3762  -16.9809   26.8448 C   0  0  0  0  0  0  0  0  0  0  0  0
   10.7796  -18.4893   28.0435 O   0  0  0  0  0  0  0  0  0  0  0  0
   11.7843  -17.7708   27.9213 O   0  0  0  0  0  0  0  0  0  0  0  0
  2  1  1  0
  3  2  2  0
  4  2  1  0
  5  4  1  0
  6  5  1  0
  7  8  1  0
  7  6  1  0
  8 10  1  0
  8  9  1  1
 10 11  2  0
 12 13  1  0
 13 14  1  0
 15 14  1  0
 16 15  1  6
 17 16  1  0
 17 10  1  0
 18 19  2  0
 18 16  1  0
 20 21  1  0
 21 23  1  0
 21 22  2  0
 24 23  1  6
 24 25  1  0
 24 26  1  0
 25 18  1  0
 26 27  2  0
 26 28  1  0
M  END
$$$$
