RMN.pdb
     RDKit          3D

 28 27  0  0  1  0  0  0  0  0999 V2000
    8.1078  -21.4197   19.1342 N   0  0  0  0  0  0  0  0  0  0  0  0
    6.8080  -21.5091   19.7068 C   0  0  0  0  0  0  0  0  0  0  0  0
    5.9624  -22.3541   19.2222 N   0  0  0  0  0  0  0  0  0  0  0  0
    6.4628  -20.6664   20.8029 N   0  0  0  0  0  0  0  0  0  0  0  0
    7.2956  -19.5852   21.2198 C   0  0  0  0  0  0  0  0  0  0  0  0
    7.4401  -18.5114   20.1667 C   0  0  0  0  0  0  0  0  0  0  0  0
    8.4509  -17.4960   20.6909 C   0  0  0  0  0  0  0  0  0  0  0  0
    7.6742  -16.2167   20.9579 C   0  0  2  0  0  0  0  0  0  0  0  0
    7.7133  -15.4795   19.6877 N   0  0  0  0  0  0  0  0  0  0  0  0
    8.3151  -15.3855   22.0085 C   0  0  0  0  0  0  0  0  0  0  0  0
    9.4488  -14.8498   21.7779 O   0  0  0  0  0  0  0  0  0  0  0  0
    5.0059  -22.3988   19.5914 C   0  0  0  0  0  0  0  0  0  0  0  0
    5.7167  -11.0370   26.4167 S   0  0  0  0  0  0  0  0  0  0  0  0
    6.5097  -12.3588   27.3877 C   0  0  0  0  0  0  0  0  0  0  0  0
    7.8863  -13.0874   26.3871 C   0  0  0  0  0  0  0  0  0  0  0  0
    7.2910  -13.8834   25.2715 C   0  0  1  0  0  0  0  0  0  0  0  0
    8.3575  -14.3462   24.3060 N   0  0  0  0  0  0  0  0  0  0  0  0
    7.7056  -15.1659   23.2647 C   0  0  0  0  0  0  0  0  0  0  0  0
    9.3299  -15.1875   25.0253 O   0  0  0  0  0  0  0  0  0  0  0  0
    9.9588  -14.6356   25.9909 N   0  0  0  0  0  0  0  0  0  0  0  0
   13.3733  -17.4744   23.5335 C   0  0  0  0  0  0  0  0  0  0  0  0
   12.9688  -17.5301   24.9101 O   0  0  0  0  0  0  0  0  0  0  0  0
   13.5468  -18.3456   25.6334 C   0  0  0  0  0  0  0  0  0  0  0  0
   11.9033  -16.6170   25.3514 C   0  0  2  0  0  0  0  0  0  0  0  0
   10.5828  -17.2919   25.4401 N   0  0  0  0  0  0  0  0  0  0  0  0
    9.5685  -16.5333   24.6891 C   0  0  0  0  0  0  0  0  0  0  0  0
   10.0908  -17.3841   26.8537 O   0  0  0  0  0  0  0  0  0  0  0  0
    9.0353  -16.8578   27.2406 O   0  0  0  0  0  0  0  0  0  0  0  0
  2  1  1  0
  3  2  2  0
  4  2  1  0
  5  4  1  0
  6  5  1  0
  7  8  1  0
  7  6  1  0
  8 10  1  0
  8  9  1  6
 10 11  2  0
 12 13  1  0
 13 14  1  0
 15 14  1  0
 16 15  1  6
 17 16  1  0
 17 10  1  0
 18 19  2  0
 18 16  1  0
 20 21  1  0
 21 23  1  0
 21 22  2  0
 24 23  1  6
 24 25  1  0
 24 26  1  0
 25 18  1  0
 26 27  2  0
 26 28  1  0
M  END
$$$$
