RMN.pdb
     RDKit          3D

 28 27  0  0  1  0  0  0  0  0999 V2000
    8.8615  -13.9331   16.6841 N   0  0  0  0  0  0  0  0  0  0  0  0
    8.2484  -13.2216   17.7533 C   0  0  0  0  0  0  0  0  0  0  0  0
    8.7281  -12.0772   18.1058 N   0  0  0  0  0  0  0  0  0  0  0  0
    7.1182  -13.7831   18.4151 N   0  0  0  0  0  0  0  0  0  0  0  0
    7.2468  -14.8161   19.3911 C   0  0  0  0  0  0  0  0  0  0  0  0
    8.5472  -15.5770   19.2774 C   0  0  0  0  0  0  0  0  0  0  0  0
    9.3574  -15.2798   20.5355 C   0  0  0  0  0  0  0  0  0  0  0  0
    9.0827  -16.4210   21.5017 C   0  0  2  0  0  0  0  0  0  0  0  0
    7.6209  -16.5674   21.5070 N   0  0  0  0  0  0  0  0  0  0  0  0
    9.5325  -16.1032   22.8809 C   0  0  0  0  0  0  0  0  0  0  0  0
   10.7702  -15.8925   23.1026 O   0  0  0  0  0  0  0  0  0  0  0  0
    8.2981  -11.5504   18.8745 C   0  0  0  0  0  0  0  0  0  0  0  0
    5.4020  -12.5887   26.7618 S   0  0  0  0  0  0  0  0  0  0  0  0
    7.2087  -12.3868   26.8802 C   0  0  0  0  0  0  0  0  0  0  0  0
    8.0085  -13.4007   25.5538 C   0  0  0  0  0  0  0  0  0  0  0  0
    7.9563  -14.8377   25.9598 C   0  0  2  0  0  0  0  0  0  0  0  0
    9.0731  -15.6249   25.3140 N   0  0  0  0  0  0  0  0  0  0  0  0
    8.6278  -16.0252   23.9640 C   0  0  0  0  0  0  0  0  0  0  0  0
    9.3277  -16.8419   26.1045 O   0  0  0  0  0  0  0  0  0  0  0  0
    8.3447  -17.6453   26.2490 N   0  0  0  0  0  0  0  0  0  0  0  0
   12.9073  -18.8142   24.7605 C   0  0  0  0  0  0  0  0  0  0  0  0
   11.9724  -19.4585   25.6394 O   0  0  0  0  0  0  0  0  0  0  0  0
   11.2171  -20.2966   25.1401 C   0  0  0  0  0  0  0  0  0  0  0  0
   11.9855  -19.0737   27.0591 C   0  0  2  0  0  0  0  0  0  0  0  0
   10.7440  -18.3647   27.4629 N   0  0  0  0  0  0  0  0  0  0  0  0
   10.5807  -17.1302   26.6770 C   0  0  0  0  0  0  0  0  0  0  0  0
   10.7725  -17.9551   28.9051 O   0  0  0  0  0  0  0  0  0  0  0  0
   10.7235  -16.7714   29.2756 O   0  0  0  0  0  0  0  0  0  0  0  0
  2  1  1  0
  3  2  2  0
  4  2  1  0
  5  4  1  0
  6  5  1  0
  7  8  1  0
  7  6  1  0
  8 10  1  0
  8  9  1  1
 10 11  2  0
 12 13  1  0
 13 14  1  0
 15 14  1  0
 16 15  1  6
 17 16  1  0
 17 10  1  0
 18 19  2  0
 18 16  1  0
 20 21  1  0
 21 23  1  0
 21 22  2  0
 24 23  1  6
 24 25  1  0
 24 26  1  0
 25 18  1  0
 26 27  2  0
 26 28  1  0
M  END
$$$$
