RMN.pdb
     RDKit          3D

 28 27  0  0  1  0  0  0  0  0999 V2000
    8.4820  -14.9430   16.0819 N   0  0  0  0  0  0  0  0  0  0  0  0
    8.3277  -13.5499   16.3285 C   0  0  0  0  0  0  0  0  0  0  0  0
    8.8576  -12.7028   15.5127 N   0  0  0  0  0  0  0  0  0  0  0  0
    7.5925  -13.1147   17.4690 N   0  0  0  0  0  0  0  0  0  0  0  0
    8.0381  -13.3688   18.8007 C   0  0  0  0  0  0  0  0  0  0  0  0
    8.5992  -14.7601   18.9800 C   0  0  0  0  0  0  0  0  0  0  0  0
    7.5724  -15.5640   19.7718 C   0  0  0  0  0  0  0  0  0  0  0  0
    8.3626  -16.4720   20.7005 C   0  0  2  0  0  0  0  0  0  0  0  0
    7.4360  -17.5592   21.0436 N   0  0  0  0  0  0  0  0  0  0  0  0
    8.7624  -15.7773   21.9508 C   0  0  0  0  0  0  0  0  0  0  0  0
    9.9003  -15.2057   22.0127 O   0  0  0  0  0  0  0  0  0  0  0  0
    8.7390  -11.6947   15.6641 C   0  0  0  0  0  0  0  0  0  0  0  0
    6.9927  -10.8749   26.2608 S   0  0  0  0  0  0  0  0  0  0  0  0
    6.5008  -12.5313   26.8379 C   0  0  0  0  0  0  0  0  0  0  0  0
    7.7683  -13.7577   26.2752 C   0  0  0  0  0  0  0  0  0  0  0  0
    7.3938  -14.2326   24.9089 C   0  0  1  0  0  0  0  0  0  0  0  0
    8.4017  -15.2299   24.3860 N   0  0  0  0  0  0  0  0  0  0  0  0
    7.9173  -15.7274   23.0825 C   0  0  0  0  0  0  0  0  0  0  0  0
    8.4878  -16.3663   25.3197 O   0  0  0  0  0  0  0  0  0  0  0  0
    7.7717  -17.3880   25.0438 N   0  0  0  0  0  0  0  0  0  0  0  0
   12.6520  -19.0159   27.1073 C   0  0  0  0  0  0  0  0  0  0  0  0
   11.9048  -18.9982   25.8813 O   0  0  0  0  0  0  0  0  0  0  0  0
   12.0392  -19.9653   25.1270 C   0  0  0  0  0  0  0  0  0  0  0  0
   11.0413  -17.8366   25.6188 C   0  0  2  0  0  0  0  0  0  0  0  0
   10.1401  -17.5342   26.7605 N   0  0  0  0  0  0  0  0  0  0  0  0
    9.3120  -16.3542   26.4606 C   0  0  0  0  0  0  0  0  0  0  0  0
   10.9030  -17.2166   28.0119 O   0  0  0  0  0  0  0  0  0  0  0  0
   11.6750  -18.0203   28.5585 O   0  0  0  0  0  0  0  0  0  0  0  0
  2  1  1  0
  3  2  2  0
  4  2  1  0
  5  4  1  0
  6  5  1  0
  7  8  1  0
  7  6  1  0
  8 10  1  0
  8  9  1  1
 10 11  2  0
 12 13  1  0
 13 14  1  0
 15 14  1  0
 16 15  1  6
 17 16  1  0
 17 10  1  0
 18 19  2  0
 18 16  1  0
 20 21  1  0
 21 23  1  0
 21 22  2  0
 24 23  1  6
 24 25  1  0
 24 26  1  0
 25 18  1  0
 26 27  2  0
 26 28  1  0
M  END
$$$$
