RMN.pdb
     RDKit          3D

 28 27  0  0  1  0  0  0  0  0999 V2000
    9.2511  -13.1403   19.2723 N   0  0  0  0  0  0  0  0  0  0  0  0
    8.9286  -13.3014   17.8956 C   0  0  0  0  0  0  0  0  0  0  0  0
    8.2417  -12.3875   17.2980 N   0  0  0  0  0  0  0  0  0  0  0  0
    9.3682  -14.4658   17.2017 N   0  0  0  0  0  0  0  0  0  0  0  0
    9.2592  -15.7717   17.7668 C   0  0  0  0  0  0  0  0  0  0  0  0
    8.5390  -15.7819   19.0950 C   0  0  0  0  0  0  0  0  0  0  0  0
    8.5270  -17.2240   19.5926 C   0  0  0  0  0  0  0  0  0  0  0  0
    7.7060  -17.2290   20.8722 C   0  0  2  0  0  0  0  0  0  0  0  0
    6.4484  -16.5583   20.5163 N   0  0  0  0  0  0  0  0  0  0  0  0
    8.3635  -16.4586   21.9583 C   0  0  0  0  0  0  0  0  0  0  0  0
    9.5917  -16.1367   21.8424 O   0  0  0  0  0  0  0  0  0  0  0  0
    8.0224  -12.4749   16.2993 C   0  0  0  0  0  0  0  0  0  0  0  0
    5.7792  -12.2372   27.3047 S   0  0  0  0  0  0  0  0  0  0  0  0
    7.0448  -11.8973   26.0392 C   0  0  0  0  0  0  0  0  0  0  0  0
    8.0468  -13.4311   25.7734 C   0  0  0  0  0  0  0  0  0  0  0  0
    7.4357  -14.2077   24.6529 C   0  0  1  0  0  0  0  0  0  0  0  0
    8.3427  -15.3349   24.2160 N   0  0  0  0  0  0  0  0  0  0  0  0
    7.6682  -16.0665   23.1247 C   0  0  0  0  0  0  0  0  0  0  0  0
    8.5454  -16.2589   25.3455 O   0  0  0  0  0  0  0  0  0  0  0  0
    7.4965  -16.7947   25.8407 N   0  0  0  0  0  0  0  0  0  0  0  0
   13.3263  -18.5687   26.5144 C   0  0  0  0  0  0  0  0  0  0  0  0
   12.1908  -18.1568   25.7379 O   0  0  0  0  0  0  0  0  0  0  0  0
   12.3941  -17.3447   24.8317 C   0  0  0  0  0  0  0  0  0  0  0  0
   10.8799  -18.7303   26.0790 C   0  0  1  0  0  0  0  0  0  0  0  0
    9.9826  -17.7400   26.7280 N   0  0  0  0  0  0  0  0  0  0  0  0
    9.8183  -16.5566   25.8672 C   0  0  0  0  0  0  0  0  0  0  0  0
   10.5352  -17.2487   28.0326 O   0  0  0  0  0  0  0  0  0  0  0  0
   10.7823  -16.0534   28.2579 O   0  0  0  0  0  0  0  0  0  0  0  0
  2  1  1  0
  3  2  2  0
  4  2  1  0
  5  4  1  0
  6  5  1  0
  7  8  1  0
  7  6  1  0
  8 10  1  0
  8  9  1  6
 10 11  2  0
 12 13  1  0
 13 14  1  0
 15 14  1  0
 16 15  1  6
 17 16  1  0
 17 10  1  0
 18 19  2  0
 18 16  1  0
 20 21  1  0
 21 23  1  0
 21 22  2  0
 24 23  1  6
 24 25  1  0
 24 26  1  0
 25 18  1  0
 26 27  2  0
 26 28  1  0
M  END
$$$$
