RMN.pdb
     RDKit          3D

 28 27  0  0  1  0  0  0  0  0999 V2000
    9.5734  -13.4988   17.5853 N   0  0  0  0  0  0  0  0  0  0  0  0
    8.7651  -12.8070   18.5304 C   0  0  0  0  0  0  0  0  0  0  0  0
    9.1558  -11.6607   18.9746 N   0  0  0  0  0  0  0  0  0  0  0  0
    7.5411  -13.3899   18.9694 N   0  0  0  0  0  0  0  0  0  0  0  0
    7.1810  -14.7320   18.6447 C   0  0  0  0  0  0  0  0  0  0  0  0
    7.1960  -15.6534   19.8421 C   0  0  0  0  0  0  0  0  0  0  0  0
    8.3883  -16.5909   19.6773 C   0  0  0  0  0  0  0  0  0  0  0  0
    8.4200  -17.4664   20.9197 C   0  0  2  0  0  0  0  0  0  0  0  0
    7.0128  -17.7916   21.1883 N   0  0  0  0  0  0  0  0  0  0  0  0
    8.9728  -16.7456   22.0947 C   0  0  0  0  0  0  0  0  0  0  0  0
   10.1976  -16.3917   22.0924 O   0  0  0  0  0  0  0  0  0  0  0  0
    8.5789  -11.1420   19.6465 C   0  0  0  0  0  0  0  0  0  0  0  0
    6.2023  -13.0358   28.0749 S   0  0  0  0  0  0  0  0  0  0  0  0
    6.8513  -12.6474   26.4175 C   0  0  0  0  0  0  0  0  0  0  0  0
    8.1543  -13.8886   25.9833 C   0  0  0  0  0  0  0  0  0  0  0  0
    7.6693  -14.6990   24.8255 C   0  0  2  0  0  0  0  0  0  0  0  0
    8.7277  -15.6743   24.3645 N   0  0  0  0  0  0  0  0  0  0  0  0
    8.1806  -16.4357   23.2234 C   0  0  0  0  0  0  0  0  0  0  0  0
    9.0271  -16.6162   25.4571 O   0  0  0  0  0  0  0  0  0  0  0  0
    8.0971  -17.4306   25.7803 N   0  0  0  0  0  0  0  0  0  0  0  0
   12.4953  -20.9469   26.1382 C   0  0  0  0  0  0  0  0  0  0  0  0
   11.5383  -20.0991   26.7919 O   0  0  0  0  0  0  0  0  0  0  0  0
   11.2248  -20.3926   27.9484 C   0  0  0  0  0  0  0  0  0  0  0  0
   11.0076  -18.9525   26.0386 C   0  0  2  0  0  0  0  0  0  0  0  0
   10.6271  -17.8226   26.9250 N   0  0  0  0  0  0  0  0  0  0  0  0
   10.2669  -16.6415   26.1229 C   0  0  0  0  0  0  0  0  0  0  0  0
   11.7544  -17.4054   27.8217 O   0  0  0  0  0  0  0  0  0  0  0  0
   12.7194  -16.7305   27.4294 O   0  0  0  0  0  0  0  0  0  0  0  0
  2  1  1  0
  3  2  2  0
  4  2  1  0
  5  4  1  0
  6  5  1  0
  7  8  1  0
  7  6  1  0
  8 10  1  0
  8  9  1  1
 10 11  2  0
 12 13  1  0
 13 14  1  0
 15 14  1  0
 16 15  1  6
 17 16  1  0
 17 10  1  0
 18 19  2  0
 18 16  1  0
 20 21  1  0
 21 23  1  0
 21 22  2  0
 24 23  1  6
 24 25  1  0
 24 26  1  0
 25 18  1  0
 26 27  2  0
 26 28  1  0
M  END
$$$$
