RMN.pdb
     RDKit          3D

 28 27  0  0  1  0  0  0  0  0999 V2000
    7.1410  -14.9527   14.4869 N   0  0  0  0  0  0  0  0  0  0  0  0
    7.8062  -13.7459   14.8426 C   0  0  0  0  0  0  0  0  0  0  0  0
    7.7020  -12.7176   14.0708 N   0  0  0  0  0  0  0  0  0  0  0  0
    8.5741  -13.6932   16.0419 N   0  0  0  0  0  0  0  0  0  0  0  0
    8.6521  -14.7981   16.9415 C   0  0  0  0  0  0  0  0  0  0  0  0
    9.5331  -14.5241   18.1380 C   0  0  0  0  0  0  0  0  0  0  0  0
    8.6161  -14.3424   19.3436 C   0  0  0  0  0  0  0  0  0  0  0  0
    8.9138  -15.4972   20.2865 C   0  0  2  0  0  0  0  0  0  0  0  0
    7.6710  -16.2792   20.3296 N   0  0  0  0  0  0  0  0  0  0  0  0
    9.2265  -15.0276   21.6603 C   0  0  0  0  0  0  0  0  0  0  0  0
   10.4005  -14.6074   21.9260 O   0  0  0  0  0  0  0  0  0  0  0  0
    8.2780  -11.8848   14.2377 C   0  0  0  0  0  0  0  0  0  0  0  0
    6.6296  -11.7919   28.3017 S   0  0  0  0  0  0  0  0  0  0  0  0
    6.3124  -12.3158   26.5860 C   0  0  0  0  0  0  0  0  0  0  0  0
    7.7124  -13.3884   26.0233 C   0  0  0  0  0  0  0  0  0  0  0  0
    7.4642  -13.7854   24.6045 C   0  0  1  0  0  0  0  0  0  0  0  0
    8.5998  -14.6273   24.0701 N   0  0  0  0  0  0  0  0  0  0  0  0
    8.2591  -15.0303   22.6906 C   0  0  0  0  0  0  0  0  0  0  0  0
    8.7323  -15.8412   24.8945 O   0  0  0  0  0  0  0  0  0  0  0  0
    7.7625  -16.6718   24.8486 N   0  0  0  0  0  0  0  0  0  0  0  0
   10.6595  -20.7211   25.8890 C   0  0  0  0  0  0  0  0  0  0  0  0
   11.2809  -19.5026   26.3259 O   0  0  0  0  0  0  0  0  0  0  0  0
   12.0527  -19.5777   27.2854 C   0  0  0  0  0  0  0  0  0  0  0  0
   10.9528  -18.2651   25.6014 C   0  0  1  0  0  0  0  0  0  0  0  0
    9.9933  -17.4117   26.3484 N   0  0  0  0  0  0  0  0  0  0  0  0
    9.8605  -16.0984   25.6958 C   0  0  0  0  0  0  0  0  0  0  0  0
   10.4476  -17.1493   27.7532 O   0  0  0  0  0  0  0  0  0  0  0  0
   11.0338  -16.1096   28.0939 O   0  0  0  0  0  0  0  0  0  0  0  0
  2  1  1  0
  3  2  2  0
  4  2  1  0
  5  4  1  0
  6  5  1  0
  7  8  1  0
  7  6  1  0
  8 10  1  0
  8  9  1  1
 10 11  2  0
 12 13  1  0
 13 14  1  0
 15 14  1  0
 16 15  1  6
 17 16  1  0
 17 10  1  0
 18 19  2  0
 18 16  1  0
 20 21  1  0
 21 23  1  0
 21 22  2  0
 24 23  1  6
 24 25  1  0
 24 26  1  0
 25 18  1  0
 26 27  2  0
 26 28  1  0
M  END
$$$$
