RMN.pdb
     RDKit          3D

 28 27  0  0  1  0  0  0  0  0999 V2000
    7.5935  -13.2361   17.4764 N   0  0  0  0  0  0  0  0  0  0  0  0
    8.2632  -14.1172   16.5817 C   0  0  0  0  0  0  0  0  0  0  0  0
    8.2077  -13.8895   15.3132 N   0  0  0  0  0  0  0  0  0  0  0  0
    8.9821  -15.2331   17.0999 N   0  0  0  0  0  0  0  0  0  0  0  0
    8.6536  -15.8310   18.3533 C   0  0  0  0  0  0  0  0  0  0  0  0
    9.1686  -15.0439   19.5358 C   0  0  0  0  0  0  0  0  0  0  0  0
    8.8511  -15.8516   20.7904 C   0  0  0  0  0  0  0  0  0  0  0  0
    7.6973  -15.1394   21.4781 C   0  0  2  0  0  0  0  0  0  0  0  0
    7.5546  -13.8680   20.7561 N   0  0  0  0  0  0  0  0  0  0  0  0
    7.9949  -14.8449   22.9029 C   0  0  0  0  0  0  0  0  0  0  0  0
    9.1294  -14.3553   23.2171 O   0  0  0  0  0  0  0  0  0  0  0  0
    8.6697  -14.5246   14.6527 C   0  0  0  0  0  0  0  0  0  0  0  0
    8.1151  -11.2702   27.0393 S   0  0  0  0  0  0  0  0  0  0  0  0
    6.3196  -11.5251   26.8663 C   0  0  0  0  0  0  0  0  0  0  0  0
    6.0149  -12.6548   25.4317 C   0  0  0  0  0  0  0  0  0  0  0  0
    6.1194  -14.0664   25.9100 C   0  0  2  0  0  0  0  0  0  0  0  0
    7.3425  -14.7444   25.3369 N   0  0  0  0  0  0  0  0  0  0  0  0
    7.0555  -15.0901   23.9300 C   0  0  0  0  0  0  0  0  0  0  0  0
    7.6008  -15.9884   26.0828 O   0  0  0  0  0  0  0  0  0  0  0  0
    6.6990  -16.3565   26.9097 N   0  0  0  0  0  0  0  0  0  0  0  0
    7.4534  -20.4829   26.8459 C   0  0  0  0  0  0  0  0  0  0  0  0
    7.0724  -19.9988   25.5489 O   0  0  0  0  0  0  0  0  0  0  0  0
    6.2315  -20.6549   24.9287 C   0  0  0  0  0  0  0  0  0  0  0  0
    7.7087  -18.7657   25.0608 C   0  0  2  0  0  0  0  0  0  0  0  0
    8.6941  -18.2182   26.0284 N   0  0  0  0  0  0  0  0  0  0  0  0
    8.7698  -16.7526   25.9082 C   0  0  0  0  0  0  0  0  0  0  0  0
   10.0775  -18.7415   25.7812 O   0  0  0  0  0  0  0  0  0  0  0  0
   10.4329  -19.8910   26.0862 O   0  0  0  0  0  0  0  0  0  0  0  0
  2  1  1  0
  3  2  2  0
  4  2  1  0
  5  4  1  0
  6  5  1  0
  7  8  1  0
  7  6  1  0
  8 10  1  0
  8  9  1  6
 10 11  2  0
 12 13  1  0
 13 14  1  0
 15 14  1  0
 16 15  1  6
 17 16  1  0
 17 10  1  0
 18 19  2  0
 18 16  1  0
 20 21  1  0
 21 23  1  0
 21 22  2  0
 24 23  1  1
 24 25  1  0
 24 26  1  0
 25 18  1  0
 26 27  2  0
 26 28  1  0
M  END
$$$$
