RMN.pdb
     RDKit          3D

 28 27  0  0  1  0  0  0  0  0999 V2000
    9.1013  -13.2506   18.4241 N   0  0  0  0  0  0  0  0  0  0  0  0
    8.6705  -13.6954   17.1427 C   0  0  0  0  0  0  0  0  0  0  0  0
    8.1006  -12.8583   16.3437 N   0  0  0  0  0  0  0  0  0  0  0  0
    8.8751  -15.0539   16.7643 N   0  0  0  0  0  0  0  0  0  0  0  0
    9.2821  -16.0493   17.7024 C   0  0  0  0  0  0  0  0  0  0  0  0
    8.3537  -16.1564   18.8896 C   0  0  0  0  0  0  0  0  0  0  0  0
    8.8830  -17.2772   19.7789 C   0  0  0  0  0  0  0  0  0  0  0  0
    8.0278  -17.2670   21.0359 C   0  0  2  0  0  0  0  0  0  0  0  0
    6.6886  -16.8735   20.5779 N   0  0  0  0  0  0  0  0  0  0  0  0
    8.5038  -16.2666   22.0249 C   0  0  0  0  0  0  0  0  0  0  0  0
    9.3928  -15.4201   21.6806 O   0  0  0  0  0  0  0  0  0  0  0  0
    7.7338  -13.1743   15.4388 C   0  0  0  0  0  0  0  0  0  0  0  0
    6.7525  -11.4153   27.8124 S   0  0  0  0  0  0  0  0  0  0  0  0
    6.2341  -12.6296   26.5572 C   0  0  0  0  0  0  0  0  0  0  0  0
    7.7225  -13.5760   25.9951 C   0  0  0  0  0  0  0  0  0  0  0  0
    7.3028  -14.5227   24.9181 C   0  0  1  0  0  0  0  0  0  0  0  0
    8.4970  -15.2351   24.3262 N   0  0  0  0  0  0  0  0  0  0  0  0
    8.0001  -16.2205   23.3446 C   0  0  0  0  0  0  0  0  0  0  0  0
    9.2098  -15.9559   25.3953 O   0  0  0  0  0  0  0  0  0  0  0  0
    9.6902  -15.2447   26.3419 N   0  0  0  0  0  0  0  0  0  0  0  0
   10.9645  -19.8219   23.6048 C   0  0  0  0  0  0  0  0  0  0  0  0
   10.3517  -19.8407   24.9032 O   0  0  0  0  0  0  0  0  0  0  0  0
    9.3248  -20.5125   25.0305 C   0  0  0  0  0  0  0  0  0  0  0  0
   10.9901  -19.0630   25.9763 C   0  0  2  0  0  0  0  0  0  0  0  0
   10.1035  -17.9927   26.5012 N   0  0  0  0  0  0  0  0  0  0  0  0
    9.3632  -17.3550   25.3996 C   0  0  0  0  0  0  0  0  0  0  0  0
   10.8770  -16.9051   27.1851 O   0  0  0  0  0  0  0  0  0  0  0  0
   11.6981  -16.1835   26.5970 O   0  0  0  0  0  0  0  0  0  0  0  0
  2  1  1  0
  3  2  2  0
  4  2  1  0
  5  4  1  0
  6  5  1  0
  7  8  1  0
  7  6  1  0
  8 10  1  0
  8  9  1  6
 10 11  2  0
 12 13  1  0
 13 14  1  0
 15 14  1  0
 16 15  1  6
 17 16  1  0
 17 10  1  0
 18 19  2  0
 18 16  1  0
 20 21  1  0
 21 23  1  0
 21 22  2  0
 24 23  1  1
 24 25  1  0
 24 26  1  0
 25 18  1  0
 26 27  2  0
 26 28  1  0
M  END
$$$$
