RMN.pdb
     RDKit          3D

 28 27  0  0  1  0  0  0  0  0999 V2000
    9.0541  -13.1957   18.7686 N   0  0  0  0  0  0  0  0  0  0  0  0
    8.4822  -13.7186   17.5750 C   0  0  0  0  0  0  0  0  0  0  0  0
    7.9800  -12.9061   16.7080 N   0  0  0  0  0  0  0  0  0  0  0  0
    8.4737  -15.1269   17.3574 N   0  0  0  0  0  0  0  0  0  0  0  0
    8.8320  -16.0545   18.3809 C   0  0  0  0  0  0  0  0  0  0  0  0
    7.8017  -16.1456   19.4822 C   0  0  0  0  0  0  0  0  0  0  0  0
    8.3123  -17.1637   20.4971 C   0  0  0  0  0  0  0  0  0  0  0  0
    7.2370  -17.2802   21.5655 C   0  0  2  0  0  0  0  0  0  0  0  0
    5.9781  -17.4163   20.8204 N   0  0  0  0  0  0  0  0  0  0  0  0
    7.1582  -16.0620   22.4112 C   0  0  0  0  0  0  0  0  0  0  0  0
    6.9576  -14.9297   21.8606 O   0  0  0  0  0  0  0  0  0  0  0  0
    7.5292  -13.2678   15.8601 C   0  0  0  0  0  0  0  0  0  0  0  0
    6.5366  -10.4828   26.7586 S   0  0  0  0  0  0  0  0  0  0  0  0
    6.2363  -12.2590   27.0304 C   0  0  0  0  0  0  0  0  0  0  0  0
    7.5769  -13.2235   26.1939 C   0  0  0  0  0  0  0  0  0  0  0  0
    6.9429  -14.2701   25.3366 C   0  0  1  0  0  0  0  0  0  0  0  0
    7.9863  -15.0448   24.5651 N   0  0  0  0  0  0  0  0  0  0  0  0
    7.2984  -16.1160   23.8165 C   0  0  0  0  0  0  0  0  0  0  0  0
    8.9283  -15.6649   25.5131 O   0  0  0  0  0  0  0  0  0  0  0  0
    9.6438  -14.8689   26.2110 N   0  0  0  0  0  0  0  0  0  0  0  0
   11.6211  -20.8824   26.9722 C   0  0  0  0  0  0  0  0  0  0  0  0
   11.0683  -19.6524   27.4655 O   0  0  0  0  0  0  0  0  0  0  0  0
   11.5708  -19.1806   28.4888 C   0  0  0  0  0  0  0  0  0  0  0  0
    9.9523  -19.0516   26.7188 C   0  0  2  0  0  0  0  0  0  0  0  0
   10.1529  -17.5997   26.4760 N   0  0  0  0  0  0  0  0  0  0  0  0
    9.0494  -17.0590   25.6648 C   0  0  0  0  0  0  0  0  0  0  0  0
   11.4176  -17.3243   25.7188 O   0  0  0  0  0  0  0  0  0  0  0  0
   11.5351  -17.5224   24.4990 O   0  0  0  0  0  0  0  0  0  0  0  0
  2  1  1  0
  3  2  2  0
  4  2  1  0
  5  4  1  0
  6  5  1  0
  7  8  1  0
  7  6  1  0
  8 10  1  0
  8  9  1  6
 10 11  2  0
 12 13  1  0
 13 14  1  0
 15 14  1  0
 16 15  1  6
 17 16  1  0
 17 10  1  0
 18 19  2  0
 18 16  1  0
 20 21  1  0
 21 23  1  0
 21 22  2  0
 24 23  1  1
 24 25  1  0
 24 26  1  0
 25 18  1  0
 26 27  2  0
 26 28  1  0
M  END
$$$$
