RMN.pdb
     RDKit          3D

 28 27  0  0  1  0  0  0  0  0999 V2000
    7.8505  -15.1480   14.8963 N   0  0  0  0  0  0  0  0  0  0  0  0
    8.2205  -16.4998   15.1433 C   0  0  0  0  0  0  0  0  0  0  0  0
    8.7006  -17.2084   14.1782 N   0  0  0  0  0  0  0  0  0  0  0  0
    8.0553  -17.0470   16.4487 N   0  0  0  0  0  0  0  0  0  0  0  0
    7.3917  -16.3338   17.4915 C   0  0  0  0  0  0  0  0  0  0  0  0
    7.9025  -14.9217   17.6584 C   0  0  0  0  0  0  0  0  0  0  0  0
    8.6090  -14.8522   19.0087 C   0  0  0  0  0  0  0  0  0  0  0  0
    7.8527  -13.8248   19.8357 C   0  0  2  0  0  0  0  0  0  0  0  0
    8.2207  -12.5271   19.2537 N   0  0  0  0  0  0  0  0  0  0  0  0
    8.2703  -13.8409   21.2608 C   0  0  0  0  0  0  0  0  0  0  0  0
    9.5100  -13.7736   21.5506 O   0  0  0  0  0  0  0  0  0  0  0  0
    8.9888  -18.1795   14.3428 C   0  0  0  0  0  0  0  0  0  0  0  0
    6.8761  -11.9019   28.5177 S   0  0  0  0  0  0  0  0  0  0  0  0
    6.3610  -11.9500   26.7710 C   0  0  0  0  0  0  0  0  0  0  0  0
    6.9241  -13.5497   26.0288 C   0  0  0  0  0  0  0  0  0  0  0  0
    6.5702  -13.5490   24.5772 C   0  0  1  0  0  0  0  0  0  0  0  0
    7.7592  -13.9361   23.7286 N   0  0  0  0  0  0  0  0  0  0  0  0
    7.3325  -13.9283   22.3147 C   0  0  0  0  0  0  0  0  0  0  0  0
    8.1834  -15.3017   24.0834 O   0  0  0  0  0  0  0  0  0  0  0  0
    7.2920  -16.2142   24.0097 N   0  0  0  0  0  0  0  0  0  0  0  0
   12.5518  -16.2619   22.6575 C   0  0  0  0  0  0  0  0  0  0  0  0
   11.5482  -17.1958   23.0846 O   0  0  0  0  0  0  0  0  0  0  0  0
   10.9941  -17.8653   22.2088 C   0  0  0  0  0  0  0  0  0  0  0  0
   11.2584  -17.2835   24.5241 C   0  0  2  0  0  0  0  0  0  0  0  0
    9.8320  -17.0030   24.8304 N   0  0  0  0  0  0  0  0  0  0  0  0
    9.4973  -15.6122   24.4812 C   0  0  0  0  0  0  0  0  0  0  0  0
    9.5265  -17.1648   26.2896 O   0  0  0  0  0  0  0  0  0  0  0  0
    9.1254  -16.2341   27.0063 O   0  0  0  0  0  0  0  0  0  0  0  0
  2  1  1  0
  3  2  2  0
  4  2  1  0
  5  4  1  0
  6  5  1  0
  7  8  1  0
  7  6  1  0
  8 10  1  0
  8  9  1  6
 10 11  2  0
 12 13  1  0
 13 14  1  0
 15 14  1  0
 16 15  1  6
 17 16  1  0
 17 10  1  0
 18 19  2  0
 18 16  1  0
 20 21  1  0
 21 23  1  0
 21 22  2  0
 24 23  1  6
 24 25  1  0
 24 26  1  0
 25 18  1  0
 26 27  2  0
 26 28  1  0
M  END
$$$$
