RMN.pdb
     RDKit          3D

 28 27  0  0  1  0  0  0  0  0999 V2000
    7.0173  -15.5057   16.0274 N   0  0  0  0  0  0  0  0  0  0  0  0
    8.2737  -15.4556   15.3609 C   0  0  0  0  0  0  0  0  0  0  0  0
    8.3500  -14.8970   14.2006 N   0  0  0  0  0  0  0  0  0  0  0  0
    9.4236  -16.0214   15.9840 N   0  0  0  0  0  0  0  0  0  0  0  0
    9.5950  -16.0228   17.4007 C   0  0  0  0  0  0  0  0  0  0  0  0
    8.9001  -14.8661   18.0804 C   0  0  0  0  0  0  0  0  0  0  0  0
    9.1761  -14.9875   19.5759 C   0  0  0  0  0  0  0  0  0  0  0  0
    8.1644  -14.0916   20.2725 C   0  0  2  0  0  0  0  0  0  0  0  0
    8.2450  -12.8080   19.5625 N   0  0  0  0  0  0  0  0  0  0  0  0
    8.5095  -13.8668   21.6994 C   0  0  0  0  0  0  0  0  0  0  0  0
    9.5849  -13.2483   21.9932 O   0  0  0  0  0  0  0  0  0  0  0  0
    9.2495  -14.8449   13.7094 C   0  0  0  0  0  0  0  0  0  0  0  0
    7.2849  -10.9552   25.9863 S   0  0  0  0  0  0  0  0  0  0  0  0
    6.5171  -12.2396   27.0253 C   0  0  0  0  0  0  0  0  0  0  0  0
    7.0834  -13.8999   26.4339 C   0  0  0  0  0  0  0  0  0  0  0  0
    6.7830  -14.0106   24.9745 C   0  0  1  0  0  0  0  0  0  0  0  0
    8.0545  -14.1279   24.1661 N   0  0  0  0  0  0  0  0  0  0  0  0
    7.6793  -14.3181   22.7504 C   0  0  0  0  0  0  0  0  0  0  0  0
    8.8065  -15.3124   24.6156 O   0  0  0  0  0  0  0  0  0  0  0  0
    9.1342  -15.3466   25.8501 N   0  0  0  0  0  0  0  0  0  0  0  0
   11.6754  -17.0118   21.2464 C   0  0  0  0  0  0  0  0  0  0  0  0
   10.7699  -17.7905   22.0436 O   0  0  0  0  0  0  0  0  0  0  0  0
    9.8279  -18.3310   21.4583 C   0  0  0  0  0  0  0  0  0  0  0  0
   11.0318  -17.8845   23.4880 C   0  0  2  0  0  0  0  0  0  0  0  0
    9.8338  -17.5522   24.3013 N   0  0  0  0  0  0  0  0  0  0  0  0
    9.1540  -16.3674   23.7512 C   0  0  0  0  0  0  0  0  0  0  0  0
   10.1895  -17.2228   25.7204 O   0  0  0  0  0  0  0  0  0  0  0  0
   10.7713  -16.1768   26.0490 O   0  0  0  0  0  0  0  0  0  0  0  0
  2  1  1  0
  3  2  2  0
  4  2  1  0
  5  4  1  0
  6  5  1  0
  7  8  1  0
  7  6  1  0
  8 10  1  0
  8  9  1  6
 10 11  2  0
 12 13  1  0
 13 14  1  0
 15 14  1  0
 16 15  1  6
 17 16  1  0
 17 10  1  0
 18 19  2  0
 18 16  1  0
 20 21  1  0
 21 23  1  0
 21 22  2  0
 24 23  1  6
 24 25  1  0
 24 26  1  0
 25 18  1  0
 26 27  2  0
 26 28  1  0
M  END
$$$$
