CSN.pdb
     RDKit          3D

 21 20  0  0  1  0  0  0  0  0999 V2000
    8.0580  -17.2914   17.0174 N   0  0  0  0  0  0  0  0  0  0  0  0
    7.3022  -17.1657   18.2434 C   0  0  1  0  0  0  0  0  0  0  0  0
    7.0433  -18.5758   18.7820 C   0  0  0  0  0  0  0  0  0  0  0  0
    5.9770  -18.4509   20.2496 S   0  0  0  0  0  0  0  0  0  0  0  0
    8.1309  -16.4798   19.2447 C   0  0  0  0  0  0  0  0  0  0  0  0
    9.3896  -16.5937   19.1851 O   0  0  0  0  0  0  0  0  0  0  0  0
    6.6181  -14.7947   22.7935 O   0  0  0  0  0  0  0  0  0  0  0  0
    7.5616  -14.1136   22.0584 C   0  0  0  0  0  0  0  0  0  0  0  0
    8.4071  -15.0601   21.2301 C   0  0  2  0  0  0  0  0  0  0  0  0
    7.5243  -15.7026   20.2610 N   0  0  0  0  0  0  0  0  0  0  0  0
    8.9222  -16.1055   22.1716 C   0  0  0  0  0  0  0  0  0  0  0  0
    8.5093  -17.2917   22.1082 O   0  0  0  0  0  0  0  0  0  0  0  0
   13.2056  -18.2626   24.1647 N   0  0  0  0  0  0  0  0  0  0  0  0
   13.3118  -17.3720   23.0756 C   0  0  0  0  0  0  0  0  0  0  0  0
   14.3784  -17.3322   22.4262 O   0  0  0  0  0  0  0  0  0  0  0  0
   12.1920  -16.5125   22.7161 C   0  0  0  0  0  0  0  0  0  0  0  0
   10.9438  -16.7298   23.5327 C   0  0  2  0  0  0  0  0  0  0  0  0
    9.8884  -15.8074   23.1661 N   0  0  0  0  0  0  0  0  0  0  0  0
   11.1781  -16.5878   24.9811 C   0  0  0  0  0  0  0  0  0  0  0  0
   11.8251  -17.5568   25.7339 O   0  0  0  0  0  0  0  0  0  0  0  0
   10.7896  -15.5602   25.5928 O   0  0  0  0  0  0  0  0  0  0  0  0
  2  5  1  0
  2  1  1  6
  3  2  1  0
  4  3  1  0
  5  6  2  0
  8  7  1  0
  9  8  1  1
 10  9  1  0
 10  5  1  0
 11  9  1  0
 11 12  2  0
 13 14  1  0
 14 16  1  0
 14 15  2  0
 17 16  1  6
 17 18  1  0
 17 19  1  0
 18 11  1  0
 19 21  2  0
 19 20  1  0
M  END
$$$$
