CSN.pdb
     RDKit          3D

 21 20  0  0  1  0  0  0  0  0999 V2000
    9.2476  -19.5798   17.3445 N   0  0  0  0  0  0  0  0  0  0  0  0
   10.3030  -20.3557   17.9563 C   0  0  1  0  0  0  0  0  0  0  0  0
   11.5483  -20.2329   17.0734 C   0  0  0  0  0  0  0  0  0  0  0  0
   11.4479  -21.4763   15.7505 S   0  0  0  0  0  0  0  0  0  0  0  0
   10.6462  -19.7530   19.2520 C   0  0  0  0  0  0  0  0  0  0  0  0
   10.5085  -18.5049   19.4065 O   0  0  0  0  0  0  0  0  0  0  0  0
    9.0765  -20.8336   22.0819 O   0  0  0  0  0  0  0  0  0  0  0  0
    9.8449  -19.6935   22.1449 C   0  0  0  0  0  0  0  0  0  0  0  0
   11.2471  -19.9416   21.6262 C   0  0  2  0  0  0  0  0  0  0  0  0
   11.1244  -20.5626   20.3106 N   0  0  0  0  0  0  0  0  0  0  0  0
   11.8786  -20.9272   22.5612 C   0  0  0  0  0  0  0  0  0  0  0  0
   12.4707  -21.9463   22.1221 O   0  0  0  0  0  0  0  0  0  0  0  0
   16.0017  -22.5394   24.7825 N   0  0  0  0  0  0  0  0  0  0  0  0
   15.0749  -21.7087   24.1179 C   0  0  0  0  0  0  0  0  0  0  0  0
   15.0978  -21.6510   22.8701 O   0  0  0  0  0  0  0  0  0  0  0  0
   14.1066  -20.9306   24.8787 C   0  0  0  0  0  0  0  0  0  0  0  0
   12.7056  -21.4870   24.8704 C   0  0  2  0  0  0  0  0  0  0  0  0
   11.8377  -20.7572   23.9687 N   0  0  0  0  0  0  0  0  0  0  0  0
   12.0783  -21.4722   26.2042 C   0  0  0  0  0  0  0  0  0  0  0  0
   12.3397  -22.4371   27.1658 O   0  0  0  0  0  0  0  0  0  0  0  0
   11.2681  -20.5634   26.5183 O   0  0  0  0  0  0  0  0  0  0  0  0
  2  5  1  0
  2  1  1  6
  3  2  1  0
  4  3  1  0
  5  6  2  0
  8  7  1  0
  9  8  1  1
 10  9  1  0
 10  5  1  0
 11  9  1  0
 11 12  2  0
 13 14  1  0
 14 16  1  0
 14 15  2  0
 17 16  1  1
 17 18  1  0
 17 19  1  0
 18 11  1  0
 19 21  2  0
 19 20  1  0
M  END
$$$$
