CSN.pdb
     RDKit          3D

 21 20  0  0  1  0  0  0  0  0999 V2000
    4.8241  -19.1308   22.1944 N   0  0  0  0  0  0  0  0  0  0  0  0
    5.4747  -18.0178   22.8486 C   0  0  1  0  0  0  0  0  0  0  0  0
    5.8984  -18.4774   24.2468 C   0  0  0  0  0  0  0  0  0  0  0  0
    6.1602  -17.0091   25.2869 S   0  0  0  0  0  0  0  0  0  0  0  0
    6.7100  -17.6945   22.1210 C   0  0  0  0  0  0  0  0  0  0  0  0
    7.3806  -18.6319   21.5990 O   0  0  0  0  0  0  0  0  0  0  0  0
    8.0785  -13.8046   21.8816 O   0  0  0  0  0  0  0  0  0  0  0  0
    8.4157  -14.6697   20.8656 C   0  0  0  0  0  0  0  0  0  0  0  0
    8.4160  -16.1087   21.3410 C   0  0  2  0  0  0  0  0  0  0  0  0
    7.1401  -16.3502   22.0082 N   0  0  0  0  0  0  0  0  0  0  0  0
    9.5128  -16.2218   22.3552 C   0  0  0  0  0  0  0  0  0  0  0  0
    9.3142  -15.9144   23.5584 O   0  0  0  0  0  0  0  0  0  0  0  0
   11.3624  -20.1945   22.3399 N   0  0  0  0  0  0  0  0  0  0  0  0
   11.7053  -19.2217   23.3026 C   0  0  0  0  0  0  0  0  0  0  0  0
   11.2585  -19.3337   24.4640 O   0  0  0  0  0  0  0  0  0  0  0  0
   12.5682  -18.1041   22.9445 C   0  0  0  0  0  0  0  0  0  0  0  0
   11.8941  -16.7560   22.9662 C   0  0  2  0  0  0  0  0  0  0  0  0
   10.8108  -16.6758   22.0077 N   0  0  0  0  0  0  0  0  0  0  0  0
   12.8247  -15.6486   22.6825 C   0  0  0  0  0  0  0  0  0  0  0  0
   12.7082  -14.8409   21.5608 O   0  0  0  0  0  0  0  0  0  0  0  0
   13.7747  -15.3963   23.4667 O   0  0  0  0  0  0  0  0  0  0  0  0
  2  5  1  0
  2  1  1  6
  3  2  1  0
  4  3  1  0
  5  6  2  0
  8  7  1  0
  9  8  1  1
 10  9  1  0
 10  5  1  0
 11  9  1  0
 11 12  2  0
 13 14  1  0
 14 16  1  0
 14 15  2  0
 17 16  1  6
 17 18  1  0
 17 19  1  0
 18 11  1  0
 19 21  2  0
 19 20  1  0
M  END
$$$$
