CSN.pdb
     RDKit          3D

 21 20  0  0  1  0  0  0  0  0999 V2000
    4.9035  -19.4830   20.8621 N   0  0  0  0  0  0  0  0  0  0  0  0
    4.9954  -18.0414   20.9225 C   0  0  1  0  0  0  0  0  0  0  0  0
    4.5762  -17.6028   22.3287 C   0  0  0  0  0  0  0  0  0  0  0  0
    5.6719  -18.4042   23.5385 S   0  0  0  0  0  0  0  0  0  0  0  0
    6.4021  -17.6474   20.7620 C   0  0  0  0  0  0  0  0  0  0  0  0
    7.3022  -18.5334   20.8368 O   0  0  0  0  0  0  0  0  0  0  0  0
    7.6292  -13.6551   20.6214 O   0  0  0  0  0  0  0  0  0  0  0  0
    8.2483  -14.5723   19.8031 C   0  0  0  0  0  0  0  0  0  0  0  0
    8.1571  -15.9734   20.3734 C   0  0  2  0  0  0  0  0  0  0  0  0
    6.7409  -16.2929   20.5270 N   0  0  0  0  0  0  0  0  0  0  0  0
    8.7838  -15.9211   21.7332 C   0  0  0  0  0  0  0  0  0  0  0  0
    8.0742  -15.9089   22.7715 O   0  0  0  0  0  0  0  0  0  0  0  0
   11.5618  -19.3797   24.9948 N   0  0  0  0  0  0  0  0  0  0  0  0
   11.0898  -18.0582   24.8483 C   0  0  0  0  0  0  0  0  0  0  0  0
   11.2148  -17.2603   25.8016 O   0  0  0  0  0  0  0  0  0  0  0  0
   10.4661  -17.6334   23.6024 C   0  0  0  0  0  0  0  0  0  0  0  0
   10.8330  -16.2407   23.1574 C   0  0  2  0  0  0  0  0  0  0  0  0
   10.1907  -15.8834   21.9089 N   0  0  0  0  0  0  0  0  0  0  0  0
   12.2854  -16.0629   22.9796 C   0  0  0  0  0  0  0  0  0  0  0  0
   12.9902  -15.0223   23.5666 O   0  0  0  0  0  0  0  0  0  0  0  0
   12.9453  -16.8677   22.2739 O   0  0  0  0  0  0  0  0  0  0  0  0
  2  5  1  0
  2  1  1  1
  3  2  1  0
  4  3  1  0
  5  6  2  0
  8  7  1  0
  9  8  1  1
 10  9  1  0
 10  5  1  0
 11  9  1  0
 11 12  2  0
 13 14  1  0
 14 16  1  0
 14 15  2  0
 17 16  1  6
 17 18  1  0
 17 19  1  0
 18 11  1  0
 19 21  2  0
 19 20  1  0
M  END
$$$$
