CSN.pdb
     RDKit          3D

 21 20  0  0  1  0  0  0  0  0999 V2000
    9.0740  -16.9074   15.9234 N   0  0  0  0  0  0  0  0  0  0  0  0
    8.0778  -16.9763   16.9689 C   0  0  1  0  0  0  0  0  0  0  0  0
    7.8468  -18.4535   17.3007 C   0  0  0  0  0  0  0  0  0  0  0  0
    6.9485  -19.2256   15.9210 S   0  0  0  0  0  0  0  0  0  0  0  0
    8.6202  -16.3532   18.1844 C   0  0  0  0  0  0  0  0  0  0  0  0
    9.8721  -16.2082   18.2961 O   0  0  0  0  0  0  0  0  0  0  0  0
    6.2795  -15.5195   21.4862 O   0  0  0  0  0  0  0  0  0  0  0  0
    7.2019  -14.5670   21.1170 C   0  0  0  0  0  0  0  0  0  0  0  0
    8.3392  -15.1766   20.3222 C   0  0  2  0  0  0  0  0  0  0  0  0
    7.7493  -15.9223   19.2142 N   0  0  0  0  0  0  0  0  0  0  0  0
    9.0261  -16.1449   21.2360 C   0  0  0  0  0  0  0  0  0  0  0  0
    8.7543  -17.3723   21.1986 O   0  0  0  0  0  0  0  0  0  0  0  0
   13.5461  -18.0020   21.8106 N   0  0  0  0  0  0  0  0  0  0  0  0
   12.8496  -16.7789   21.9076 C   0  0  0  0  0  0  0  0  0  0  0  0
   12.8456  -16.0037   20.9278 O   0  0  0  0  0  0  0  0  0  0  0  0
   12.1463  -16.4278   23.1339 C   0  0  0  0  0  0  0  0  0  0  0  0
   10.6549  -16.6419   23.0878 C   0  0  2  0  0  0  0  0  0  0  0  0
   10.0034  -15.7254   22.1742 N   0  0  0  0  0  0  0  0  0  0  0  0
   10.0156  -16.4874   24.4070 C   0  0  0  0  0  0  0  0  0  0  0  0
    9.0732  -15.5048   24.6725 O   0  0  0  0  0  0  0  0  0  0  0  0
   10.3118  -17.2597   25.3541 O   0  0  0  0  0  0  0  0  0  0  0  0
  2  5  1  0
  2  1  1  6
  3  2  1  0
  4  3  1  0
  5  6  2  0
  8  7  1  0
  9  8  1  1
 10  9  1  0
 10  5  1  0
 11  9  1  0
 11 12  2  0
 13 14  1  0
 14 16  1  0
 14 15  2  0
 17 16  1  1
 17 18  1  0
 17 19  1  0
 18 11  1  0
 19 21  2  0
 19 20  1  0
M  END
$$$$
