CSN.pdb
     RDKit          3D

 21 20  0  0  1  0  0  0  0  0999 V2000
    6.1941  -19.4135   19.9727 N   0  0  0  0  0  0  0  0  0  0  0  0
    6.3764  -18.5499   21.1178 C   0  0  1  0  0  0  0  0  0  0  0  0
    6.6276  -19.4377   22.3402 C   0  0  0  0  0  0  0  0  0  0  0  0
    5.0547  -19.6718   23.2218 S   0  0  0  0  0  0  0  0  0  0  0  0
    7.5945  -17.7513   20.9219 C   0  0  0  0  0  0  0  0  0  0  0  0
    8.6529  -18.3269   20.5355 O   0  0  0  0  0  0  0  0  0  0  0  0
    7.8025  -13.6307   21.7671 O   0  0  0  0  0  0  0  0  0  0  0  0
    8.4250  -14.1675   20.6631 C   0  0  0  0  0  0  0  0  0  0  0  0
    8.8078  -15.6157   20.8929 C   0  0  2  0  0  0  0  0  0  0  0  0
    7.5790  -16.3563   21.1636 N   0  0  0  0  0  0  0  0  0  0  0  0
    9.6601  -15.6405   22.1247 C   0  0  0  0  0  0  0  0  0  0  0  0
    9.1421  -15.7352   23.2668 O   0  0  0  0  0  0  0  0  0  0  0  0
   12.1341  -17.9578   26.0247 N   0  0  0  0  0  0  0  0  0  0  0  0
   12.5701  -17.7910   24.6932 C   0  0  0  0  0  0  0  0  0  0  0  0
   13.7559  -18.0589   24.4051 O   0  0  0  0  0  0  0  0  0  0  0  0
   11.6484  -17.3132   23.6715 C   0  0  0  0  0  0  0  0  0  0  0  0
   11.9313  -15.9200   23.1700 C   0  0  2  0  0  0  0  0  0  0  0  0
   11.0745  -15.5591   22.0589 N   0  0  0  0  0  0  0  0  0  0  0  0
   13.3280  -15.7441   22.7328 C   0  0  0  0  0  0  0  0  0  0  0  0
   14.3704  -15.5305   23.6227 O   0  0  0  0  0  0  0  0  0  0  0  0
   13.6241  -15.7831   21.5113 O   0  0  0  0  0  0  0  0  0  0  0  0
  2  5  1  0
  2  1  1  6
  3  2  1  0
  4  3  1  0
  5  6  2  0
  8  7  1  0
  9  8  1  1
 10  9  1  0
 10  5  1  0
 11  9  1  0
 11 12  2  0
 13 14  1  0
 14 16  1  0
 14 15  2  0
 17 16  1  6
 17 18  1  0
 17 19  1  0
 18 11  1  0
 19 21  2  0
 19 20  1  0
M  END
$$$$
