CSN.pdb
     RDKit          3D

 21 20  0  0  1  0  0  0  0  0999 V2000
    7.3680  -17.4386   17.0919 N   0  0  0  0  0  0  0  0  0  0  0  0
    6.7772  -17.1815   18.3861 C   0  0  1  0  0  0  0  0  0  0  0  0
    6.5363  -18.5313   19.0687 C   0  0  0  0  0  0  0  0  0  0  0  0
    5.7425  -18.2356   20.6776 S   0  0  0  0  0  0  0  0  0  0  0  0
    7.7496  -16.4585   19.2176 C   0  0  0  0  0  0  0  0  0  0  0  0
    8.9628  -16.8170   19.1991 O   0  0  0  0  0  0  0  0  0  0  0  0
    7.7908  -12.3875   20.4758 O   0  0  0  0  0  0  0  0  0  0  0  0
    7.7243  -13.4288   21.3732 C   0  0  0  0  0  0  0  0  0  0  0  0
    8.3527  -14.6871   20.8088 C   0  0  2  0  0  0  0  0  0  0  0  0
    7.3296  -15.3756   20.0273 N   0  0  0  0  0  0  0  0  0  0  0  0
    8.7141  -15.5457   21.9821 C   0  0  0  0  0  0  0  0  0  0  0  0
    7.8513  -16.2677   22.5443 O   0  0  0  0  0  0  0  0  0  0  0  0
   13.4244  -16.5894   21.7288 N   0  0  0  0  0  0  0  0  0  0  0  0
   12.3911  -17.2564   22.4201 C   0  0  0  0  0  0  0  0  0  0  0  0
   11.9313  -18.3175   21.9471 O   0  0  0  0  0  0  0  0  0  0  0  0
   11.8700  -16.7132   23.6671 C   0  0  0  0  0  0  0  0  0  0  0  0
   10.3966  -16.3953   23.6485 C   0  0  2  0  0  0  0  0  0  0  0  0
   10.0315  -15.5825   22.5061 N   0  0  0  0  0  0  0  0  0  0  0  0
    9.9507  -15.6868   24.8618 C   0  0  0  0  0  0  0  0  0  0  0  0
   10.0445  -16.2408   26.1300 O   0  0  0  0  0  0  0  0  0  0  0  0
    9.4603  -14.5317   24.7824 O   0  0  0  0  0  0  0  0  0  0  0  0
  2  5  1  0
  2  1  1  6
  3  2  1  0
  4  3  1  0
  5  6  2  0
  8  7  1  0
  9  8  1  1
 10  9  1  0
 10  5  1  0
 11  9  1  0
 11 12  2  0
 13 14  1  0
 14 16  1  0
 14 15  2  0
 17 16  1  1
 17 18  1  0
 17 19  1  0
 18 11  1  0
 19 21  2  0
 19 20  1  0
M  END
$$$$
