CSN.pdb
     RDKit          3D

 21 20  0  0  1  0  0  0  0  0999 V2000
   -0.6992  -21.5097   21.9154 N   0  0  0  0  0  0  0  0  0  0  0  0
    0.5181  -20.7789   22.1876 C   0  0  1  0  0  0  0  0  0  0  0  0
    0.4115  -20.1991   23.6012 C   0  0  0  0  0  0  0  0  0  0  0  0
   -0.7135  -18.7712   23.5605 S   0  0  0  0  0  0  0  0  0  0  0  0
    1.6451  -21.7219   22.2049 C   0  0  0  0  0  0  0  0  0  0  0  0
    1.4448  -22.9143   22.5774 O   0  0  0  0  0  0  0  0  0  0  0  0
    5.2860  -20.7211   20.5497 O   0  0  0  0  0  0  0  0  0  0  0  0
    4.8680  -22.0318   20.5898 C   0  0  0  0  0  0  0  0  0  0  0  0
    3.9985  -22.2988   21.8020 C   0  0  2  0  0  0  0  0  0  0  0  0
    2.9364  -21.2971   21.8089 N   0  0  0  0  0  0  0  0  0  0  0  0
    4.8658  -22.0818   23.0041 C   0  0  0  0  0  0  0  0  0  0  0  0
    4.8067  -21.0092   23.6582 O   0  0  0  0  0  0  0  0  0  0  0  0
    7.5933  -20.9214   26.3769 N   0  0  0  0  0  0  0  0  0  0  0  0
    6.3705  -21.5406   26.7116 C   0  0  0  0  0  0  0  0  0  0  0  0
    5.7751  -21.1853   27.7510 O   0  0  0  0  0  0  0  0  0  0  0  0
    5.8130  -22.5790   25.8556 C   0  0  0  0  0  0  0  0  0  0  0  0
    6.6224  -22.8781   24.6196 C   0  0  2  0  0  0  0  0  0  0  0  0
    5.7829  -23.0658   23.4539 N   0  0  0  0  0  0  0  0  0  0  0  0
    7.4611  -24.0815   24.7647 C   0  0  0  0  0  0  0  0  0  0  0  0
    7.4008  -25.1479   23.8796 O   0  0  0  0  0  0  0  0  0  0  0  0
    8.2758  -24.1806   25.7173 O   0  0  0  0  0  0  0  0  0  0  0  0
  2  5  1  0
  2  1  1  1
  3  2  1  0
  4  3  1  0
  5  6  2  0
  8  7  1  0
  9  8  1  6
 10  9  1  0
 10  5  1  0
 11  9  1  0
 11 12  2  0
 13 14  1  0
 14 16  1  0
 14 15  2  0
 17 16  1  1
 17 18  1  0
 17 19  1  0
 18 11  1  0
 19 21  2  0
 19 20  1  0
M  END
$$$$
