CSN.pdb
     RDKit          3D

 21 20  0  0  1  0  0  0  0  0999 V2000
    8.2683  -12.8525   17.6343 N   0  0  0  0  0  0  0  0  0  0  0  0
    7.8290  -13.9993   18.3972 C   0  0  1  0  0  0  0  0  0  0  0  0
    8.3433  -15.2576   17.6916 C   0  0  0  0  0  0  0  0  0  0  0  0
    7.1309  -15.7536   16.4306 S   0  0  0  0  0  0  0  0  0  0  0  0
    8.4723  -13.9665   19.7181 C   0  0  0  0  0  0  0  0  0  0  0  0
    9.7200  -13.7700   19.7908 O   0  0  0  0  0  0  0  0  0  0  0  0
    6.4839  -15.2280   23.1508 O   0  0  0  0  0  0  0  0  0  0  0  0
    7.3914  -14.2001   23.2701 C   0  0  0  0  0  0  0  0  0  0  0  0
    8.4211  -14.2390   22.1588 C   0  0  2  0  0  0  0  0  0  0  0  0
    7.7017  -14.1527   20.8913 N   0  0  0  0  0  0  0  0  0  0  0  0
    9.0844  -15.5799   22.2397 C   0  0  0  0  0  0  0  0  0  0  0  0
    9.1463  -16.3317   21.2334 O   0  0  0  0  0  0  0  0  0  0  0  0
   14.2995  -17.2033   22.9049 N   0  0  0  0  0  0  0  0  0  0  0  0
   12.9842  -17.6633   22.6835 C   0  0  0  0  0  0  0  0  0  0  0  0
   12.7853  -18.8891   22.5464 O   0  0  0  0  0  0  0  0  0  0  0  0
   11.8762  -16.7201   22.6163 C   0  0  0  0  0  0  0  0  0  0  0  0
   10.6847  -17.0868   23.4636 C   0  0  2  0  0  0  0  0  0  0  0  0
    9.6662  -16.0566   23.4421 N   0  0  0  0  0  0  0  0  0  0  0  0
   11.0411  -17.3335   24.8724 C   0  0  0  0  0  0  0  0  0  0  0  0
   11.6781  -16.3866   25.6610 O   0  0  0  0  0  0  0  0  0  0  0  0
   10.7723  -18.4355   25.4152 O   0  0  0  0  0  0  0  0  0  0  0  0
  2  5  1  0
  2  1  1  6
  3  2  1  0
  4  3  1  0
  5  6  2  0
  8  7  1  0
  9  8  1  1
 10  9  1  0
 10  5  1  0
 11  9  1  0
 11 12  2  0
 13 14  1  0
 14 16  1  0
 14 15  2  0
 17 16  1  6
 17 18  1  0
 17 19  1  0
 18 11  1  0
 19 21  2  0
 19 20  1  0
M  END
$$$$
