CSN.pdb
     RDKit          3D

 21 20  0  0  1  0  0  0  0  0999 V2000
    7.7327  -13.3179   16.3961 N   0  0  0  0  0  0  0  0  0  0  0  0
    7.9631  -14.4848   17.2180 C   0  0  1  0  0  0  0  0  0  0  0  0
    8.8231  -15.4636   16.4131 C   0  0  0  0  0  0  0  0  0  0  0  0
    9.1709  -16.9181   17.4473 S   0  0  0  0  0  0  0  0  0  0  0  0
    8.7594  -14.0918   18.3891 C   0  0  0  0  0  0  0  0  0  0  0  0
    9.7767  -13.3579   18.2241 O   0  0  0  0  0  0  0  0  0  0  0  0
    7.9502  -15.6987   22.0989 O   0  0  0  0  0  0  0  0  0  0  0  0
    8.5602  -14.4652   22.0755 C   0  0  0  0  0  0  0  0  0  0  0  0
    9.3111  -14.2434   20.7779 C   0  0  2  0  0  0  0  0  0  0  0  0
    8.3890  -14.5311   19.6832 N   0  0  0  0  0  0  0  0  0  0  0  0
   10.4166  -15.2541   20.7476 C   0  0  0  0  0  0  0  0  0  0  0  0
   10.2504  -16.3771   20.2063 O   0  0  0  0  0  0  0  0  0  0  0  0
   13.9569  -13.5049   19.0133 N   0  0  0  0  0  0  0  0  0  0  0  0
   13.8803  -14.8822   19.3090 C   0  0  0  0  0  0  0  0  0  0  0  0
   13.6869  -15.6928   18.3781 O   0  0  0  0  0  0  0  0  0  0  0  0
   14.0251  -15.3494   20.6811 C   0  0  0  0  0  0  0  0  0  0  0  0
   12.7764  -15.9464   21.2782 C   0  0  2  0  0  0  0  0  0  0  0  0
   11.6867  -14.9927   21.3221 N   0  0  0  0  0  0  0  0  0  0  0  0
   12.9839  -16.4510   22.6475 C   0  0  0  0  0  0  0  0  0  0  0  0
   12.2366  -16.0101   23.7298 O   0  0  0  0  0  0  0  0  0  0  0  0
   13.8654  -17.3166   22.8820 O   0  0  0  0  0  0  0  0  0  0  0  0
  2  5  1  0
  2  1  1  6
  3  2  1  0
  4  3  1  0
  5  6  2  0
  8  7  1  0
  9  8  1  1
 10  9  1  0
 10  5  1  0
 11  9  1  0
 11 12  2  0
 13 14  1  0
 14 16  1  0
 14 15  2  0
 17 16  1  1
 17 18  1  0
 17 19  1  0
 18 11  1  0
 19 21  2  0
 19 20  1  0
M  END
$$$$
