CSN.pdb
     RDKit          3D

 21 20  0  0  1  0  0  0  0  0999 V2000
   -4.1775  -22.7927   24.3296 N   0  0  0  0  0  0  0  0  0  0  0  0
   -4.2854  -24.1748   24.7399 C   0  0  1  0  0  0  0  0  0  0  0  0
   -2.9334  -24.8474   24.4841 C   0  0  0  0  0  0  0  0  0  0  0  0
   -2.7184  -25.0570   22.6907 S   0  0  0  0  0  0  0  0  0  0  0  0
   -4.5104  -24.2239   26.1913 C   0  0  0  0  0  0  0  0  0  0  0  0
   -4.6612  -25.3472   26.7536 O   0  0  0  0  0  0  0  0  0  0  0  0
   -4.1515  -20.8459   28.4502 O   0  0  0  0  0  0  0  0  0  0  0  0
   -3.9791  -22.0643   29.0669 C   0  0  0  0  0  0  0  0  0  0  0  0
   -4.7859  -23.1498   28.3831 C   0  0  2  0  0  0  0  0  0  0  0  0
   -4.5571  -23.0271   26.9465 N   0  0  0  0  0  0  0  0  0  0  0  0
   -6.2268  -22.8498   28.6634 C   0  0  0  0  0  0  0  0  0  0  0  0
   -6.9085  -22.1547   27.8673 O   0  0  0  0  0  0  0  0  0  0  0  0
  -11.1047  -23.0876   30.2003 N   0  0  0  0  0  0  0  0  0  0  0  0
  -10.5461  -23.6503   29.0333 C   0  0  0  0  0  0  0  0  0  0  0  0
  -11.3084  -24.1093   28.1563 O   0  0  0  0  0  0  0  0  0  0  0  0
   -9.1009  -23.6940   28.8565 C   0  0  0  0  0  0  0  0  0  0  0  0
   -8.3067  -23.1940   30.0362 C   0  0  2  0  0  0  0  0  0  0  0  0
   -6.8798  -23.3312   29.8267 N   0  0  0  0  0  0  0  0  0  0  0  0
   -8.6439  -23.8943   31.2887 C   0  0  0  0  0  0  0  0  0  0  0  0
   -7.7166  -24.6368   32.0049 O   0  0  0  0  0  0  0  0  0  0  0  0
   -9.8095  -23.8387   31.7571 O   0  0  0  0  0  0  0  0  0  0  0  0
  2  5  1  0
  2  1  1  1
  3  2  1  0
  4  3  1  0
  5  6  2  0
  8  7  1  0
  9  8  1  1
 10  9  1  0
 10  5  1  0
 11  9  1  0
 11 12  2  0
 13 14  1  0
 14 16  1  0
 14 15  2  0
 17 16  1  6
 17 18  1  0
 17 19  1  0
 18 11  1  0
 19 21  2  0
 19 20  1  0
M  END
$$$$
