CSN.pdb
     RDKit          3D

 21 20  0  0  1  0  0  0  0  0999 V2000
    6.9291  -14.8796   19.6565 N   0  0  0  0  0  0  0  0  0  0  0  0
    8.3238  -14.5050   19.7254 C   0  0  1  0  0  0  0  0  0  0  0  0
    8.3927  -12.9972   19.9848 C   0  0  0  0  0  0  0  0  0  0  0  0
    7.7221  -12.1269   18.5360 S   0  0  0  0  0  0  0  0  0  0  0  0
    8.9349  -15.1596   20.8907 C   0  0  0  0  0  0  0  0  0  0  0  0
    8.1938  -15.7775   21.7091 O   0  0  0  0  0  0  0  0  0  0  0  0
   11.1032  -17.5528   20.1613 O   0  0  0  0  0  0  0  0  0  0  0  0
   10.6656  -17.4443   21.4617 C   0  0  0  0  0  0  0  0  0  0  0  0
   10.9231  -16.0585   22.0187 C   0  0  2  0  0  0  0  0  0  0  0  0
   10.3352  -15.0969   21.0908 N   0  0  0  0  0  0  0  0  0  0  0  0
   12.4094  -15.8703   22.0216 C   0  0  0  0  0  0  0  0  0  0  0  0
   13.1151  -16.2869   21.0675 O   0  0  0  0  0  0  0  0  0  0  0  0
   15.5437  -17.6306   25.5604 N   0  0  0  0  0  0  0  0  0  0  0  0
   14.1551  -17.8778   25.5240 C   0  0  0  0  0  0  0  0  0  0  0  0
   13.6932  -18.8407   26.1724 O   0  0  0  0  0  0  0  0  0  0  0  0
   13.2754  -17.0208   24.7408 C   0  0  0  0  0  0  0  0  0  0  0  0
   13.9761  -15.9178   23.9894 C   0  0  2  0  0  0  0  0  0  0  0  0
   13.0803  -15.2208   23.0891 N   0  0  0  0  0  0  0  0  0  0  0  0
   15.1180  -16.4052   23.1949 C   0  0  0  0  0  0  0  0  0  0  0  0
   14.9756  -17.3183   22.1604 O   0  0  0  0  0  0  0  0  0  0  0  0
   16.2833  -15.9988   23.4362 O   0  0  0  0  0  0  0  0  0  0  0  0
  2  5  1  0
  2  1  1  1
  3  2  1  0
  4  3  1  0
  5  6  2  0
  8  7  1  0
  9  8  1  6
 10  9  1  0
 10  5  1  0
 11  9  1  0
 11 12  2  0
 13 14  1  0
 14 16  1  0
 14 15  2  0
 17 16  1  6
 17 18  1  0
 17 19  1  0
 18 11  1  0
 19 21  2  0
 19 20  1  0
M  END
$$$$
