CSN.pdb
     RDKit          3D

 21 20  0  0  1  0  0  0  0  0999 V2000
    0.2611  -21.6671   21.5056 N   0  0  0  0  0  0  0  0  0  0  0  0
    1.2113  -20.6036   21.7433 C   0  0  1  0  0  0  0  0  0  0  0  0
    1.0135  -20.1096   23.1794 C   0  0  0  0  0  0  0  0  0  0  0  0
   -0.4278  -19.0017   23.2197 S   0  0  0  0  0  0  0  0  0  0  0  0
    2.5711  -21.1565   21.6733 C   0  0  0  0  0  0  0  0  0  0  0  0
    2.7896  -22.3144   22.1340 O   0  0  0  0  0  0  0  0  0  0  0  0
    5.7206  -18.8413   20.4497 O   0  0  0  0  0  0  0  0  0  0  0  0
    5.7969  -20.1739   20.1140 C   0  0  0  0  0  0  0  0  0  0  0  0
    4.9372  -21.0248   21.0270 C   0  0  2  0  0  0  0  0  0  0  0  0
    3.6198  -20.3996   21.0970 N   0  0  0  0  0  0  0  0  0  0  0  0
    5.5670  -20.9622   22.3849 C   0  0  0  0  0  0  0  0  0  0  0  0
    5.2782  -20.0392   23.1889 O   0  0  0  0  0  0  0  0  0  0  0  0
    4.1234  -23.0228   25.4309 N   0  0  0  0  0  0  0  0  0  0  0  0
    5.3691  -22.4497   25.7631 C   0  0  0  0  0  0  0  0  0  0  0  0
    5.4155  -21.5714   26.6504 O   0  0  0  0  0  0  0  0  0  0  0  0
    6.5819  -22.8780   25.0793 C   0  0  0  0  0  0  0  0  0  0  0  0
    7.1518  -21.8681   24.1161 C   0  0  2  0  0  0  0  0  0  0  0  0
    6.5072  -21.9308   22.8202 N   0  0  0  0  0  0  0  0  0  0  0  0
    8.6005  -22.0377   23.9032 C   0  0  0  0  0  0  0  0  0  0  0  0
    9.1604  -22.1840   22.6426 O   0  0  0  0  0  0  0  0  0  0  0  0
    9.3915  -22.0552   24.8806 O   0  0  0  0  0  0  0  0  0  0  0  0
  2  5  1  0
  2  1  1  1
  3  2  1  0
  4  3  1  0
  5  6  2  0
  8  7  1  0
  9  8  1  6
 10  9  1  0
 10  5  1  0
 11  9  1  0
 11 12  2  0
 13 14  1  0
 14 16  1  0
 14 15  2  0
 17 16  1  1
 17 18  1  0
 17 19  1  0
 18 11  1  0
 19 21  2  0
 19 20  1  0
M  END
$$$$
