CSN.pdb
     RDKit          3D

 21 20  0  0  1  0  0  0  0  0999 V2000
    3.5139  -20.4006   22.6107 N   0  0  0  0  0  0  0  0  0  0  0  0
    4.8336  -20.9898   22.5756 C   0  0  1  0  0  0  0  0  0  0  0  0
    5.2926  -21.0269   21.1149 C   0  0  0  0  0  0  0  0  0  0  0  0
    6.9765  -21.7099   21.0519 S   0  0  0  0  0  0  0  0  0  0  0  0
    5.7680  -20.1059   23.2866 C   0  0  0  0  0  0  0  0  0  0  0  0
    5.6507  -18.8529   23.1560 O   0  0  0  0  0  0  0  0  0  0  0  0
    6.4975  -20.0430   26.8213 O   0  0  0  0  0  0  0  0  0  0  0  0
    6.9214  -19.0915   25.9217 C   0  0  0  0  0  0  0  0  0  0  0  0
    7.6852  -19.7179   24.7722 C   0  0  2  0  0  0  0  0  0  0  0  0
    6.7846  -20.6538   24.1058 N   0  0  0  0  0  0  0  0  0  0  0  0
    8.8122  -20.4937   25.3826 C   0  0  0  0  0  0  0  0  0  0  0  0
    8.6283  -21.6534   25.8334 O   0  0  0  0  0  0  0  0  0  0  0  0
   13.0476  -18.7953   23.5798 N   0  0  0  0  0  0  0  0  0  0  0  0
   12.7910  -20.0404   24.1918 C   0  0  0  0  0  0  0  0  0  0  0  0
   12.7615  -21.0696   23.4841 O   0  0  0  0  0  0  0  0  0  0  0  0
   12.5640  -20.1214   25.6284 C   0  0  0  0  0  0  0  0  0  0  0  0
   11.2351  -20.7129   26.0236 C   0  0  2  0  0  0  0  0  0  0  0  0
   10.1231  -19.9610   25.4784 N   0  0  0  0  0  0  0  0  0  0  0  0
   11.0538  -20.7823   27.4848 C   0  0  0  0  0  0  0  0  0  0  0  0
   11.8260  -21.5992   28.2976 O   0  0  0  0  0  0  0  0  0  0  0  0
   10.1731  -20.0871   28.0524 O   0  0  0  0  0  0  0  0  0  0  0  0
  2  5  1  0
  2  1  1  6
  3  2  1  0
  4  3  1  0
  5  6  2  0
  8  7  1  0
  9  8  1  1
 10  9  1  0
 10  5  1  0
 11  9  1  0
 11 12  2  0
 13 14  1  0
 14 16  1  0
 14 15  2  0
 17 16  1  1
 17 18  1  0
 17 19  1  0
 18 11  1  0
 19 21  2  0
 19 20  1  0
M  END
$$$$
