CSN.pdb
     RDKit          3D

 21 20  0  0  1  0  0  0  0  0999 V2000
    5.5301  -19.3855   21.6080 N   0  0  0  0  0  0  0  0  0  0  0  0
    5.7863  -18.3793   22.6140 C   0  0  1  0  0  0  0  0  0  0  0  0
    5.7946  -19.0723   23.9797 C   0  0  0  0  0  0  0  0  0  0  0  0
    5.8156  -17.7990   25.2776 S   0  0  0  0  0  0  0  0  0  0  0  0
    7.1369  -17.8368   22.4107 C   0  0  0  0  0  0  0  0  0  0  0  0
    8.0448  -18.5960   21.9635 O   0  0  0  0  0  0  0  0  0  0  0  0
    8.2088  -14.0275   23.7210 O   0  0  0  0  0  0  0  0  0  0  0  0
    8.7723  -14.5095   22.5615 C   0  0  0  0  0  0  0  0  0  0  0  0
    8.7901  -16.0248   22.5429 C   0  0  2  0  0  0  0  0  0  0  0  0
    7.4138  -16.4814   22.7127 N   0  0  0  0  0  0  0  0  0  0  0  0
    9.5858  -16.4559   23.7369 C   0  0  0  0  0  0  0  0  0  0  0  0
    9.0145  -16.8268   24.7942 O   0  0  0  0  0  0  0  0  0  0  0  0
    9.6518  -18.0150   26.5322 N   0  0  0  0  0  0  0  0  0  0  0  0
   10.6120  -18.9259   26.0436 C   0  0  0  0  0  0  0  0  0  0  0  0
   10.7847  -20.0067   26.6462 O   0  0  0  0  0  0  0  0  0  0  0  0
   11.3893  -18.6080   24.8534 C   0  0  0  0  0  0  0  0  0  0  0  0
   11.7877  -17.1594   24.7299 C   0  0  2  0  0  0  0  0  0  0  0  0
   11.0040  -16.4649   23.7287 N   0  0  0  0  0  0  0  0  0  0  0  0
   13.2099  -16.9867   24.3830 C   0  0  0  0  0  0  0  0  0  0  0  0
   14.1619  -16.5788   25.3057 O   0  0  0  0  0  0  0  0  0  0  0  0
   13.6130  -17.2091   23.2129 O   0  0  0  0  0  0  0  0  0  0  0  0
  2  5  1  0
  2  1  1  6
  3  2  1  0
  4  3  1  0
  5  6  2  0
  8  7  1  0
  9  8  1  1
 10  9  1  0
 10  5  1  0
 11  9  1  0
 11 12  2  0
 13 14  1  0
 14 16  1  0
 14 15  2  0
 17 16  1  6
 17 18  1  0
 17 19  1  0
 18 11  1  0
 19 21  2  0
 19 20  1  0
M  END
$$$$
