CSN.pdb
     RDKit          3D

 21 20  0  0  1  0  0  0  0  0999 V2000
    4.1538  -23.3794   15.0791 N   0  0  0  0  0  0  0  0  0  0  0  0
    5.2096  -23.8219   15.9622 C   0  0  1  0  0  0  0  0  0  0  0  0
    5.8325  -25.0822   15.3547 C   0  0  0  0  0  0  0  0  0  0  0  0
    4.6957  -26.4769   15.6171 S   0  0  0  0  0  0  0  0  0  0  0  0
    6.2671  -22.8017   15.9876 C   0  0  0  0  0  0  0  0  0  0  0  0
    7.2397  -22.9026   15.1848 O   0  0  0  0  0  0  0  0  0  0  0  0
    5.9402  -19.5166   18.4266 O   0  0  0  0  0  0  0  0  0  0  0  0
    6.6857  -19.4032   17.2752 C   0  0  0  0  0  0  0  0  0  0  0  0
    7.2724  -20.7381   16.8620 C   0  0  2  0  0  0  0  0  0  0  0  0
    6.1941  -21.7216   16.9003 N   0  0  0  0  0  0  0  0  0  0  0  0
    8.2844  -21.0998   17.9058 C   0  0  0  0  0  0  0  0  0  0  0  0
    9.3461  -20.4376   18.0330 O   0  0  0  0  0  0  0  0  0  0  0  0
   10.8533  -21.8106   22.4301 N   0  0  0  0  0  0  0  0  0  0  0  0
    9.6140  -22.4515   22.2211 C   0  0  0  0  0  0  0  0  0  0  0  0
    9.2860  -23.3969   22.9692 O   0  0  0  0  0  0  0  0  0  0  0  0
    8.7316  -22.0150   21.1474 C   0  0  0  0  0  0  0  0  0  0  0  0
    9.0699  -22.5723   19.7883 C   0  0  2  0  0  0  0  0  0  0  0  0
    8.0926  -22.1935   18.7882 N   0  0  0  0  0  0  0  0  0  0  0  0
    9.1673  -24.0431   19.7833 C   0  0  0  0  0  0  0  0  0  0  0  0
    8.2705  -24.8510   19.0997 O   0  0  0  0  0  0  0  0  0  0  0  0
   10.0877  -24.6240   20.4132 O   0  0  0  0  0  0  0  0  0  0  0  0
  2  5  1  0
  2  1  1  6
  3  2  1  0
  4  3  1  0
  5  6  2  0
  8  7  1  0
  9  8  1  1
 10  9  1  0
 10  5  1  0
 11  9  1  0
 11 12  2  0
 13 14  1  0
 14 16  1  0
 14 15  2  0
 17 16  1  1
 17 18  1  0
 17 19  1  0
 18 11  1  0
 19 21  2  0
 19 20  1  0
M  END
$$$$
