ANS.pdb
     RDKit          3D

 20 19  0  0  1  0  0  0  0  0999 V2000
   17.1850  -11.4659  -14.7909 C   0  0  0  0  0  0  0  0  0  0  0  0
   17.0695  -10.2183  -15.6365 C   0  0  2  0  0  0  0  0  0  0  0  0
   17.4358  -10.5889  -16.9804 N   0  0  0  0  0  0  0  0  0  0  0  0
   17.9141   -9.1216  -15.1607 C   0  0  0  0  0  0  0  0  0  0  0  0
   17.7352   -8.6641  -13.9876 O   0  0  0  0  0  0  0  0  0  0  0  0
   22.2561   -9.5352  -14.7296 N   0  0  0  0  0  0  0  0  0  0  0  0
   21.6662   -8.2677  -14.4850 C   0  0  0  0  0  0  0  0  0  0  0  0
   21.6313   -7.8644  -13.2883 O   0  0  0  0  0  0  0  0  0  0  0  0
   21.1069   -7.4131  -15.5366 C   0  0  0  0  0  0  0  0  0  0  0  0
   19.6018   -7.2772  -15.4382 C   0  0  2  0  0  0  0  0  0  0  0  0
   18.9562   -8.4883  -15.8988 N   0  0  0  0  0  0  0  0  0  0  0  0
   19.1423   -6.0836  -16.1885 C   0  0  0  0  0  0  0  0  0  0  0  0
   19.1074   -6.1210  -17.4442 O   0  0  0  0  0  0  0  0  0  0  0  0
   16.1711   -3.8736  -15.0392 O   0  0  0  0  0  0  0  0  0  0  0  0
   17.2388   -3.0181  -15.3131 C   0  0  0  0  0  0  0  0  0  0  0  0
   18.1909   -3.7309  -16.2542 C   0  0  2  0  0  0  0  0  0  0  0  0
   18.7332   -4.8780  -15.5569 N   0  0  0  0  0  0  0  0  0  0  0  0
   19.2837   -2.8490  -16.6992 C   0  0  0  0  0  0  0  0  0  0  0  0
   20.4540   -3.1098  -16.3738 O   0  0  0  0  0  0  0  0  0  0  0  0
   18.9975   -1.7473  -17.4700 O   0  0  0  0  0  0  0  0  0  0  0  0
  2  1  1  1
  2  4  1  0
  2  3  1  0
  4  5  2  0
  6  7  1  0
  7  9  1  0
  8  7  2  0
 10  9  1  6
 11  4  1  0
 11 10  1  0
 12 10  1  0
 12 13  2  0
 14 15  1  0
 16 15  1  1
 16 17  1  0
 16 18  1  0
 17 12  1  0
 18 20  1  0
 19 18  2  0
M  END
$$$$
