ANS.pdb
     RDKit          3D

 20 19  0  0  1  0  0  0  0  0999 V2000
   17.0424  -11.7278  -16.8992 C   0  0  0  0  0  0  0  0  0  0  0  0
   17.7933  -10.4470  -17.1831 C   0  0  2  0  0  0  0  0  0  0  0  0
   18.5315  -10.6570  -18.4032 N   0  0  0  0  0  0  0  0  0  0  0  0
   18.6973  -10.0588  -16.0994 C   0  0  0  0  0  0  0  0  0  0  0  0
   18.2191   -9.8338  -14.9425 O   0  0  0  0  0  0  0  0  0  0  0  0
   22.7469   -9.8180  -17.2511 N   0  0  0  0  0  0  0  0  0  0  0  0
   22.9877  -10.4065  -15.9823 C   0  0  0  0  0  0  0  0  0  0  0  0
   24.0458  -11.0835  -15.8473 O   0  0  0  0  0  0  0  0  0  0  0  0
   22.0855  -10.2669  -14.8353 C   0  0  0  0  0  0  0  0  0  0  0  0
   20.9088   -9.3589  -15.1266 C   0  0  2  0  0  0  0  0  0  0  0  0
   20.1100   -9.9012  -16.2052 N   0  0  0  0  0  0  0  0  0  0  0  0
   21.3797   -7.9842  -15.4216 C   0  0  0  0  0  0  0  0  0  0  0  0
   21.5598   -7.6378  -16.6162 O   0  0  0  0  0  0  0  0  0  0  0  0
   19.6625   -4.9425  -14.4828 O   0  0  0  0  0  0  0  0  0  0  0  0
   20.7188   -5.0350  -15.3896 C   0  0  0  0  0  0  0  0  0  0  0  0
   21.9168   -5.6206  -14.6670 C   0  0  2  0  0  0  0  0  0  0  0  0
   21.6450   -7.0197  -14.4121 N   0  0  0  0  0  0  0  0  0  0  0  0
   22.1874   -4.9210  -13.3991 C   0  0  0  0  0  0  0  0  0  0  0  0
   22.0604   -5.5292  -12.3232 O   0  0  0  0  0  0  0  0  0  0  0  0
   22.5779   -3.6030  -13.4195 O   0  0  0  0  0  0  0  0  0  0  0  0
  2  1  1  1
  2  4  1  0
  2  3  1  0
  4  5  2  0
  6  7  1  0
  7  9  1  0
  8  7  2  0
 10  9  1  6
 11  4  1  0
 11 10  1  0
 12 10  1  0
 12 13  2  0
 14 15  1  0
 16 15  1  1
 16 17  1  0
 16 18  1  0
 17 12  1  0
 18 20  1  0
 19 18  2  0
M  END
$$$$
