ANS.pdb
     RDKit          3D

 20 19  0  0  1  0  0  0  0  0999 V2000
   21.9391  -10.8973  -18.5831 C   0  0  0  0  0  0  0  0  0  0  0  0
   20.6781  -11.1996  -17.8064 C   0  0  2  0  0  0  0  0  0  0  0  0
   19.6531  -11.5002  -18.7741 N   0  0  0  0  0  0  0  0  0  0  0  0
   20.2571  -10.0958  -16.9422 C   0  0  0  0  0  0  0  0  0  0  0  0
   19.8376   -9.0181  -17.4715 O   0  0  0  0  0  0  0  0  0  0  0  0
   18.8589   -6.9270  -12.9959 N   0  0  0  0  0  0  0  0  0  0  0  0
   18.7907   -8.2869  -12.5954 C   0  0  0  0  0  0  0  0  0  0  0  0
   18.2185   -8.5414  -11.4983 O   0  0  0  0  0  0  0  0  0  0  0  0
   19.3392   -9.3959  -13.3818 C   0  0  0  0  0  0  0  0  0  0  0  0
   19.8445   -8.9538  -14.7393 C   0  0  2  0  0  0  0  0  0  0  0  0
   20.2657  -10.1000  -15.5168 N   0  0  0  0  0  0  0  0  0  0  0  0
   20.9322   -7.9580  -14.5847 C   0  0  0  0  0  0  0  0  0  0  0  0
   22.0691   -8.3407  -14.2104 O   0  0  0  0  0  0  0  0  0  0  0  0
   21.9724   -5.5225  -17.2089 O   0  0  0  0  0  0  0  0  0  0  0  0
   21.6705   -4.7411  -16.0932 C   0  0  0  0  0  0  0  0  0  0  0  0
   21.8318   -5.5993  -14.8531 C   0  0  2  0  0  0  0  0  0  0  0  0
   20.7582   -6.5706  -14.8391 N   0  0  0  0  0  0  0  0  0  0  0  0
   21.7975   -4.7929  -13.6207 C   0  0  0  0  0  0  0  0  0  0  0  0
   20.7199   -4.6283  -13.0247 O   0  0  0  0  0  0  0  0  0  0  0  0
   22.9579   -4.2316  -13.1428 O   0  0  0  0  0  0  0  0  0  0  0  0
  2  1  1  6
  2  4  1  0
  2  3  1  0
  4  5  2  0
  6  7  1  0
  7  9  1  0
  8  7  2  0
 10  9  1  1
 11  4  1  0
 11 10  1  0
 12 10  1  0
 12 13  2  0
 14 15  1  0
 16 15  1  6
 16 17  1  0
 16 18  1  0
 17 12  1  0
 18 20  1  0
 19 18  2  0
M  END
$$$$
