ANS.pdb
     RDKit          3D

 20 19  0  0  1  0  0  0  0  0999 V2000
   16.0392  -11.2039  -16.2194 C   0  0  0  0  0  0  0  0  0  0  0  0
   16.6095   -9.9891  -16.9152 C   0  0  2  0  0  0  0  0  0  0  0  0
   17.1174  -10.4364  -18.1878 N   0  0  0  0  0  0  0  0  0  0  0  0
   17.6663   -9.3301  -16.1463 C   0  0  0  0  0  0  0  0  0  0  0  0
   17.3804   -8.7989  -15.0266 O   0  0  0  0  0  0  0  0  0  0  0  0
   22.0833   -7.4180  -14.1193 N   0  0  0  0  0  0  0  0  0  0  0  0
   22.3611   -8.5178  -14.9723 C   0  0  0  0  0  0  0  0  0  0  0  0
   23.5319   -8.9916  -14.9466 O   0  0  0  0  0  0  0  0  0  0  0  0
   21.3708   -9.1257  -15.8661 C   0  0  0  0  0  0  0  0  0  0  0  0
   20.0020   -8.4906  -15.7373 C   0  0  2  0  0  0  0  0  0  0  0  0
   19.0339   -9.2167  -16.5319 N   0  0  0  0  0  0  0  0  0  0  0  0
   20.0623   -7.0567  -16.1100 C   0  0  0  0  0  0  0  0  0  0  0  0
   20.1938   -6.7394  -17.3188 O   0  0  0  0  0  0  0  0  0  0  0  0
   18.5769   -2.6817  -15.4255 O   0  0  0  0  0  0  0  0  0  0  0  0
   18.6221   -4.0279  -15.0614 C   0  0  0  0  0  0  0  0  0  0  0  0
   19.9590   -4.5948  -15.4991 C   0  0  2  0  0  0  0  0  0  0  0  0
   19.9799   -6.0024  -15.1606 N   0  0  0  0  0  0  0  0  0  0  0  0
   21.0862   -3.9038  -14.8494 C   0  0  0  0  0  0  0  0  0  0  0  0
   21.4821   -4.2879  -13.7361 O   0  0  0  0  0  0  0  0  0  0  0  0
   21.6883   -2.8419  -15.4815 O   0  0  0  0  0  0  0  0  0  0  0  0
  2  1  1  1
  2  4  1  0
  2  3  1  0
  4  5  2  0
  6  7  1  0
  7  9  1  0
  8  7  2  0
 10  9  1  6
 11  4  1  0
 11 10  1  0
 12 10  1  0
 12 13  2  0
 14 15  1  0
 16 15  1  1
 16 17  1  0
 16 18  1  0
 17 12  1  0
 18 20  1  0
 19 18  2  0
M  END
$$$$
