ANS.pdb
     RDKit          3D

 20 19  0  0  1  0  0  0  0  0999 V2000
   18.6378  -11.9669  -18.4711 C   0  0  0  0  0  0  0  0  0  0  0  0
   19.7691  -11.4227  -17.6292 C   0  0  2  0  0  0  0  0  0  0  0  0
   19.7528  -12.1516  -16.3858 N   0  0  0  0  0  0  0  0  0  0  0  0
   19.6594   -9.9845  -17.3798 C   0  0  0  0  0  0  0  0  0  0  0  0
   19.9688   -9.1686  -18.3051 O   0  0  0  0  0  0  0  0  0  0  0  0
   17.0445   -5.2560  -15.9880 N   0  0  0  0  0  0  0  0  0  0  0  0
   17.7169   -6.1249  -15.0896 C   0  0  0  0  0  0  0  0  0  0  0  0
   18.2227   -5.6102  -14.0527 O   0  0  0  0  0  0  0  0  0  0  0  0
   17.8485   -7.5699  -15.2990 C   0  0  0  0  0  0  0  0  0  0  0  0
   19.1326   -7.9410  -16.0110 C   0  0  2  0  0  0  0  0  0  0  0  0
   19.2249   -9.3774  -16.1656 N   0  0  0  0  0  0  0  0  0  0  0  0
   20.3016   -7.3843  -15.2885 C   0  0  0  0  0  0  0  0  0  0  0  0
   20.8200   -8.0453  -14.3538 O   0  0  0  0  0  0  0  0  0  0  0  0
   23.8696   -4.1046  -15.4349 O   0  0  0  0  0  0  0  0  0  0  0  0
   22.7591   -4.7000  -16.0340 C   0  0  0  0  0  0  0  0  0  0  0  0
   22.1066   -5.6196  -15.0195 C   0  0  2  0  0  0  0  0  0  0  0  0
   20.8782   -6.1227  -15.5976 N   0  0  0  0  0  0  0  0  0  0  0  0
   21.8193   -4.9228  -13.7539 C   0  0  0  0  0  0  0  0  0  0  0  0
   20.8896   -4.1001  -13.7034 O   0  0  0  0  0  0  0  0  0  0  0  0
   22.5821   -5.1903  -12.6419 O   0  0  0  0  0  0  0  0  0  0  0  0
  2  1  1  6
  2  4  1  0
  2  3  1  0
  4  5  2  0
  6  7  1  0
  7  9  1  0
  8  7  2  0
 10  9  1  1
 11  4  1  0
 11 10  1  0
 12 10  1  0
 12 13  2  0
 14 15  1  0
 16 15  1  6
 16 17  1  0
 16 18  1  0
 17 12  1  0
 18 20  1  0
 19 18  2  0
M  END
$$$$
