ANS.pdb
     RDKit          3D

 20 19  0  0  1  0  0  0  0  0999 V2000
   14.4867   -8.8059   -9.1302 C   0  0  0  0  0  0  0  0  0  0  0  0
   13.8967   -9.1350  -10.4824 C   0  0  2  0  0  0  0  0  0  0  0  0
   12.9788  -10.2283  -10.2830 N   0  0  0  0  0  0  0  0  0  0  0  0
   14.9076   -9.4918  -11.4789 C   0  0  0  0  0  0  0  0  0  0  0  0
   15.1405  -10.7197  -11.7149 O   0  0  0  0  0  0  0  0  0  0  0  0
   18.2501  -10.0724  -15.3353 N   0  0  0  0  0  0  0  0  0  0  0  0
   16.8550   -9.9103  -15.5395 C   0  0  0  0  0  0  0  0  0  0  0  0
   16.3916  -10.2350  -16.6690 O   0  0  0  0  0  0  0  0  0  0  0  0
   15.9369   -9.3962  -14.5188 C   0  0  0  0  0  0  0  0  0  0  0  0
   16.6454   -9.0182  -13.2348 C   0  0  2  0  0  0  0  0  0  0  0  0
   15.6877   -8.5759  -12.2434 N   0  0  0  0  0  0  0  0  0  0  0  0
   17.6822   -7.9923  -13.5014 C   0  0  0  0  0  0  0  0  0  0  0  0
   17.3326   -6.8043  -13.7156 O   0  0  0  0  0  0  0  0  0  0  0  0
   21.4361   -8.2259  -11.9636 O   0  0  0  0  0  0  0  0  0  0  0  0
   21.4382   -7.9376  -13.3287 C   0  0  0  0  0  0  0  0  0  0  0  0
   20.1142   -7.2866  -13.6800 C   0  0  2  0  0  0  0  0  0  0  0  0
   19.0733   -8.2817  -13.5303 N   0  0  0  0  0  0  0  0  0  0  0  0
   20.1115   -6.7579  -15.0550 C   0  0  0  0  0  0  0  0  0  0  0  0
   19.4038   -7.3006  -15.9199 O   0  0  0  0  0  0  0  0  0  0  0  0
   20.8916   -5.6696  -15.3666 O   0  0  0  0  0  0  0  0  0  0  0  0
  2  1  1  1
  2  4  1  0
  2  3  1  0
  4  5  2  0
  6  7  1  0
  7  9  1  0
  8  7  2  0
 10  9  1  6
 11  4  1  0
 11 10  1  0
 12 10  1  0
 12 13  2  0
 14 15  1  0
 16 15  1  6
 16 17  1  0
 16 18  1  0
 17 12  1  0
 18 20  1  0
 19 18  2  0
M  END
$$$$
