ANS.pdb
     RDKit          3D

 20 19  0  0  1  0  0  0  0  0999 V2000
   15.0926   -9.0977  -16.7145 C   0  0  0  0  0  0  0  0  0  0  0  0
   16.2556   -8.1420  -16.5773 C   0  0  2  0  0  0  0  0  0  0  0  0
   16.4633   -7.5477  -17.8739 N   0  0  0  0  0  0  0  0  0  0  0  0
   17.4814   -8.7919  -16.1109 C   0  0  0  0  0  0  0  0  0  0  0  0
   17.5478  -10.0620  -16.1066 O   0  0  0  0  0  0  0  0  0  0  0  0
   21.7547  -11.5790  -16.7129 N   0  0  0  0  0  0  0  0  0  0  0  0
   21.6180  -10.1667  -16.6797 C   0  0  0  0  0  0  0  0  0  0  0  0
   22.6736   -9.4836  -16.5574 O   0  0  0  0  0  0  0  0  0  0  0  0
   20.3321   -9.4703  -16.7831 C   0  0  0  0  0  0  0  0  0  0  0  0
   19.9165   -8.8175  -15.4812 C   0  0  2  0  0  0  0  0  0  0  0  0
   18.6538   -8.1287  -15.6446 N   0  0  0  0  0  0  0  0  0  0  0  0
   20.9846   -7.9106  -14.9959 C   0  0  0  0  0  0  0  0  0  0  0  0
   21.5506   -8.1559  -13.9010 O   0  0  0  0  0  0  0  0  0  0  0  0
   23.6761   -3.9484  -15.9038 O   0  0  0  0  0  0  0  0  0  0  0  0
   22.7021   -4.8417  -16.3511 C   0  0  0  0  0  0  0  0  0  0  0  0
   22.3904   -5.8093  -15.2256 C   0  0  2  0  0  0  0  0  0  0  0  0
   21.4110   -6.7587  -15.7108 N   0  0  0  0  0  0  0  0  0  0  0  0
   21.8717   -5.1150  -14.0343 C   0  0  0  0  0  0  0  0  0  0  0  0
   20.7172   -4.6562  -14.0454 O   0  0  0  0  0  0  0  0  0  0  0  0
   22.6700   -4.9825  -12.9230 O   0  0  0  0  0  0  0  0  0  0  0  0
  2  1  1  6
  2  4  1  0
  2  3  1  0
  4  5  2  0
  6  7  1  0
  7  9  1  0
  8  7  2  0
 10  9  1  6
 11  4  1  0
 11 10  1  0
 12 10  1  0
 12 13  2  0
 14 15  1  0
 16 15  1  6
 16 17  1  0
 16 18  1  0
 17 12  1  0
 18 20  1  0
 19 18  2  0
M  END
$$$$
