ANS.pdb
     RDKit          3D

 20 19  0  0  1  0  0  0  0  0999 V2000
   16.8495  -12.3734  -17.4531 C   0  0  0  0  0  0  0  0  0  0  0  0
   17.0788  -10.8969  -17.6816 C   0  0  2  0  0  0  0  0  0  0  0  0
   17.7330  -10.7684  -18.9596 N   0  0  0  0  0  0  0  0  0  0  0  0
   17.8828  -10.2709  -16.6308 C   0  0  0  0  0  0  0  0  0  0  0  0
   17.4255  -10.2222  -15.4450 O   0  0  0  0  0  0  0  0  0  0  0  0
   21.5601   -8.4072  -13.4726 N   0  0  0  0  0  0  0  0  0  0  0  0
   22.0659   -9.2951  -14.4576 C   0  0  0  0  0  0  0  0  0  0  0  0
   23.2732   -9.6521  -14.3529 O   0  0  0  0  0  0  0  0  0  0  0  0
   21.2681   -9.8150  -15.5722 C   0  0  0  0  0  0  0  0  0  0  0  0
   19.9206   -9.1340  -15.6918 C   0  0  2  0  0  0  0  0  0  0  0  0
   19.1731   -9.6894  -16.8002 N   0  0  0  0  0  0  0  0  0  0  0  0
   20.0944   -7.6670  -15.8192 C   0  0  0  0  0  0  0  0  0  0  0  0
   20.6969   -7.0371  -14.9139 O   0  0  0  0  0  0  0  0  0  0  0  0
   19.2228   -3.6908  -18.5050 O   0  0  0  0  0  0  0  0  0  0  0  0
   19.2152   -5.0832  -18.4177 C   0  0  0  0  0  0  0  0  0  0  0  0
   19.6342   -5.4746  -17.0135 C   0  0  2  0  0  0  0  0  0  0  0  0
   19.6082   -6.9196  -16.9259 N   0  0  0  0  0  0  0  0  0  0  0  0
   18.7445   -4.8922  -15.9941 C   0  0  0  0  0  0  0  0  0  0  0  0
   19.0922   -3.8625  -15.3920 O   0  0  0  0  0  0  0  0  0  0  0  0
   17.5390   -5.4935  -15.7199 O   0  0  0  0  0  0  0  0  0  0  0  0
  2  1  1  1
  2  4  1  0
  2  3  1  0
  4  5  2  0
  6  7  1  0
  7  9  1  0
  8  7  2  0
 10  9  1  6
 11  4  1  0
 11 10  1  0
 12 10  1  0
 12 13  2  0
 14 15  1  0
 16 15  1  6
 16 17  1  0
 16 18  1  0
 17 12  1  0
 18 20  1  0
 19 18  2  0
M  END
$$$$
