ANS.pdb
     RDKit          3D

 20 19  0  0  1  0  0  0  0  0999 V2000
   11.9790  -11.5440  -10.8427 C   0  0  0  0  0  0  0  0  0  0  0  0
   12.8828  -10.7429  -11.7518 C   0  0  2  0  0  0  0  0  0  0  0  0
   14.0204  -11.5763  -12.0502 N   0  0  0  0  0  0  0  0  0  0  0  0
   13.3180   -9.4773  -11.1592 C   0  0  0  0  0  0  0  0  0  0  0  0
   12.4434   -8.6258  -10.8018 O   0  0  0  0  0  0  0  0  0  0  0  0
   15.8427   -5.2611   -9.3819 N   0  0  0  0  0  0  0  0  0  0  0  0
   16.1704   -6.4682   -8.7112 C   0  0  0  0  0  0  0  0  0  0  0  0
   16.8086   -6.3744   -7.6250 O   0  0  0  0  0  0  0  0  0  0  0  0
   15.8069   -7.7994   -9.2061 C   0  0  0  0  0  0  0  0  0  0  0  0
   15.0183   -7.7457  -10.4980 C   0  0  2  0  0  0  0  0  0  0  0  0
   14.6682   -9.0824  -10.9294 N   0  0  0  0  0  0  0  0  0  0  0  0
   15.7794   -7.0091  -11.5357 C   0  0  0  0  0  0  0  0  0  0  0  0
   16.9200   -7.4176  -11.8694 O   0  0  0  0  0  0  0  0  0  0  0  0
   15.4943   -4.1483  -15.3692 O   0  0  0  0  0  0  0  0  0  0  0  0
   14.8726   -4.7983  -14.3025 C   0  0  0  0  0  0  0  0  0  0  0  0
   15.9379   -5.1855  -13.2948 C   0  0  2  0  0  0  0  0  0  0  0  0
   15.2838   -5.8458  -12.1846 N   0  0  0  0  0  0  0  0  0  0  0  0
   16.6876   -4.0128  -12.8123 C   0  0  0  0  0  0  0  0  0  0  0  0
   16.2761   -3.3863  -11.8215 O   0  0  0  0  0  0  0  0  0  0  0  0
   17.8345   -3.6241  -13.4630 O   0  0  0  0  0  0  0  0  0  0  0  0
  2  1  1  1
  2  4  1  0
  2  3  1  0
  4  5  2  0
  6  7  1  0
  7  9  1  0
  8  7  2  0
 10  9  1  1
 11  4  1  0
 11 10  1  0
 12 10  1  0
 12 13  2  0
 14 15  1  0
 16 15  1  6
 16 17  1  0
 16 18  1  0
 17 12  1  0
 18 20  1  0
 19 18  2  0
M  END
$$$$
