ANS.pdb
     RDKit          3D

 20 19  0  0  1  0  0  0  0  0999 V2000
   18.9860  -12.3725  -17.2799 C   0  0  0  0  0  0  0  0  0  0  0  0
   19.1481  -11.5172  -16.0441 C   0  0  2  0  0  0  0  0  0  0  0  0
   18.0107  -11.7831  -15.1996 N   0  0  0  0  0  0  0  0  0  0  0  0
   19.2393  -10.0873  -16.3431 C   0  0  0  0  0  0  0  0  0  0  0  0
   20.2129   -9.6597  -17.0409 O   0  0  0  0  0  0  0  0  0  0  0  0
   16.5100   -6.5693  -19.0308 N   0  0  0  0  0  0  0  0  0  0  0  0
   16.6302   -7.4716  -17.9418 C   0  0  0  0  0  0  0  0  0  0  0  0
   16.2963   -8.6732  -18.1435 O   0  0  0  0  0  0  0  0  0  0  0  0
   17.1195   -7.0859  -16.6148 C   0  0  0  0  0  0  0  0  0  0  0  0
   18.4687   -7.6934  -16.2919 C   0  0  2  0  0  0  0  0  0  0  0  0
   18.3182   -9.0846  -15.9212 N   0  0  0  0  0  0  0  0  0  0  0  0
   19.1474   -6.9073  -15.2335 C   0  0  0  0  0  0  0  0  0  0  0  0
   18.7219   -6.9680  -14.0526 O   0  0  0  0  0  0  0  0  0  0  0  0
   23.2569   -4.9861  -13.7610 O   0  0  0  0  0  0  0  0  0  0  0  0
   22.5098   -5.6343  -14.7451 C   0  0  0  0  0  0  0  0  0  0  0  0
   21.0390   -5.4036  -14.4555 C   0  0  2  0  0  0  0  0  0  0  0  0
   20.2707   -6.0734  -15.4837 N   0  0  0  0  0  0  0  0  0  0  0  0
   20.7041   -3.9693  -14.4304 C   0  0  0  0  0  0  0  0  0  0  0  0
   20.3109   -3.4125  -15.4692 O   0  0  0  0  0  0  0  0  0  0  0  0
   20.8295   -3.2620  -13.2582 O   0  0  0  0  0  0  0  0  0  0  0  0
  2  1  1  6
  2  4  1  0
  2  3  1  0
  4  5  2  0
  6  7  1  0
  7  9  1  0
  8  7  2  0
 10  9  1  1
 11  4  1  0
 11 10  1  0
 12 10  1  0
 12 13  2  0
 14 15  1  0
 16 15  1  6
 16 17  1  0
 16 18  1  0
 17 12  1  0
 18 20  1  0
 19 18  2  0
M  END
$$$$
