ANS.pdb
     RDKit          3D

 20 19  0  0  1  0  0  0  0  0999 V2000
   14.7545   -9.1051  -16.2639 C   0  0  0  0  0  0  0  0  0  0  0  0
   16.1487   -9.6085  -15.9678 C   0  0  2  0  0  0  0  0  0  0  0  0
   16.0122  -10.6806  -15.0141 N   0  0  0  0  0  0  0  0  0  0  0  0
   17.0358   -8.5687  -15.4441 C   0  0  0  0  0  0  0  0  0  0  0  0
   16.7788   -8.0445  -14.3142 O   0  0  0  0  0  0  0  0  0  0  0  0
   20.1946   -8.8528  -13.6223 N   0  0  0  0  0  0  0  0  0  0  0  0
   20.9898   -8.3368  -14.6785 C   0  0  0  0  0  0  0  0  0  0  0  0
   22.1859   -8.7365  -14.7538 O   0  0  0  0  0  0  0  0  0  0  0  0
   20.4990   -7.3802  -15.6750 C   0  0  0  0  0  0  0  0  0  0  0  0
   19.0347   -7.0424  -15.4870 C   0  0  2  0  0  0  0  0  0  0  0  0
   18.2020   -8.0624  -16.0886 N   0  0  0  0  0  0  0  0  0  0  0  0
   18.7428   -5.6948  -16.0323 C   0  0  0  0  0  0  0  0  0  0  0  0
   18.7166   -5.5265  -17.2774 O   0  0  0  0  0  0  0  0  0  0  0  0
   16.4116   -1.6182  -15.4924 O   0  0  0  0  0  0  0  0  0  0  0  0
   16.7568   -2.9075  -15.0860 C   0  0  0  0  0  0  0  0  0  0  0  0
   18.0926   -3.2620  -15.7108 C   0  0  2  0  0  0  0  0  0  0  0  0
   18.4880   -4.5625  -15.2121 N   0  0  0  0  0  0  0  0  0  0  0  0
   19.1284   -2.2642  -15.3921 C   0  0  0  0  0  0  0  0  0  0  0  0
   19.8843   -2.4518  -14.4241 O   0  0  0  0  0  0  0  0  0  0  0  0
   19.2481   -1.1364  -16.1690 O   0  0  0  0  0  0  0  0  0  0  0  0
  2  1  1  1
  2  4  1  0
  2  3  1  0
  4  5  2  0
  6  7  1  0
  7  9  1  0
  8  7  2  0
 10  9  1  6
 11  4  1  0
 11 10  1  0
 12 10  1  0
 12 13  2  0
 14 15  1  0
 16 15  1  1
 16 17  1  0
 16 18  1  0
 17 12  1  0
 18 20  1  0
 19 18  2  0
M  END
$$$$
