ANS.pdb
     RDKit          3D

 20 19  0  0  1  0  0  0  0  0999 V2000
   18.0017  -12.2090  -16.3019 C   0  0  0  0  0  0  0  0  0  0  0  0
   18.1004  -10.7474  -16.6746 C   0  0  2  0  0  0  0  0  0  0  0  0
   18.1166  -10.6834  -18.1145 N   0  0  0  0  0  0  0  0  0  0  0  0
   19.2861  -10.0920  -16.1206 C   0  0  0  0  0  0  0  0  0  0  0  0
   19.4253  -10.0243  -14.8582 O   0  0  0  0  0  0  0  0  0  0  0  0
   23.5036  -11.2459  -18.0580 N   0  0  0  0  0  0  0  0  0  0  0  0
   23.2057  -10.4356  -16.9314 C   0  0  0  0  0  0  0  0  0  0  0  0
   23.3701  -10.9472  -15.7881 O   0  0  0  0  0  0  0  0  0  0  0  0
   22.7276   -9.0530  -17.0263 C   0  0  0  0  0  0  0  0  0  0  0  0
   21.4538   -8.8216  -16.2405 C   0  0  2  0  0  0  0  0  0  0  0  0
   20.3425   -9.5004  -16.8729 N   0  0  0  0  0  0  0  0  0  0  0  0
   21.2010   -7.3688  -16.0854 C   0  0  0  0  0  0  0  0  0  0  0  0
   20.8636   -6.6916  -17.0889 O   0  0  0  0  0  0  0  0  0  0  0  0
   19.3558   -3.7636  -14.0348 O   0  0  0  0  0  0  0  0  0  0  0  0
   19.6091   -5.1197  -14.2433 C   0  0  0  0  0  0  0  0  0  0  0  0
   21.0600   -5.2751  -14.6567 C   0  0  2  0  0  0  0  0  0  0  0  0
   21.3224   -6.6865  -14.8446 N   0  0  0  0  0  0  0  0  0  0  0  0
   21.9794   -4.7220  -13.6473 C   0  0  0  0  0  0  0  0  0  0  0  0
   22.5010   -5.4791  -12.8117 O   0  0  0  0  0  0  0  0  0  0  0  0
   22.2509   -3.3743  -13.6406 O   0  0  0  0  0  0  0  0  0  0  0  0
  2  1  1  6
  2  4  1  0
  2  3  1  0
  4  5  2  0
  6  7  1  0
  7  9  1  0
  8  7  2  0
 10  9  1  6
 11  4  1  0
 11 10  1  0
 12 10  1  0
 12 13  2  0
 14 15  1  0
 16 15  1  1
 16 17  1  0
 16 18  1  0
 17 12  1  0
 18 20  1  0
 19 18  2  0
M  END
$$$$
