ANS.pdb
     RDKit          3D

 20 19  0  0  1  0  0  0  0  0999 V2000
   18.9870  -11.9329  -15.6423 C   0  0  0  0  0  0  0  0  0  0  0  0
   18.6788  -10.6405  -16.3632 C   0  0  2  0  0  0  0  0  0  0  0  0
   19.0908  -10.8175  -17.7330 N   0  0  0  0  0  0  0  0  0  0  0  0
   19.3486   -9.4801  -15.7739 C   0  0  0  0  0  0  0  0  0  0  0  0
   19.0634   -9.1370  -14.5829 O   0  0  0  0  0  0  0  0  0  0  0  0
   22.2562   -5.7383  -14.0318 N   0  0  0  0  0  0  0  0  0  0  0  0
   22.9784   -6.4910  -14.9942 C   0  0  0  0  0  0  0  0  0  0  0  0
   24.2358   -6.3696  -15.0023 O   0  0  0  0  0  0  0  0  0  0  0  0
   22.3480   -7.3929  -15.9629 C   0  0  0  0  0  0  0  0  0  0  0  0
   20.8431   -7.4570  -15.8058 C   0  0  2  0  0  0  0  0  0  0  0  0
   20.3247   -8.6633  -16.4157 N   0  0  0  0  0  0  0  0  0  0  0  0
   20.2142   -6.2371  -16.3669 C   0  0  0  0  0  0  0  0  0  0  0  0
   20.1598   -6.0898  -17.6138 O   0  0  0  0  0  0  0  0  0  0  0  0
   16.9039   -5.1187  -15.7333 O   0  0  0  0  0  0  0  0  0  0  0  0
   17.6156   -3.9628  -15.4110 C   0  0  0  0  0  0  0  0  0  0  0  0
   18.9760   -4.0399  -16.0770 C   0  0  2  0  0  0  0  0  0  0  0  0
   19.6612   -5.2060  -15.5602 N   0  0  0  0  0  0  0  0  0  0  0  0
   19.7789   -2.8309  -15.8243 C   0  0  0  0  0  0  0  0  0  0  0  0
   20.8519   -2.9249  -15.2053 O   0  0  0  0  0  0  0  0  0  0  0  0
   19.3328   -1.6116  -16.2764 O   0  0  0  0  0  0  0  0  0  0  0  0
  2  1  1  1
  2  4  1  0
  2  3  1  0
  4  5  2  0
  6  7  1  0
  7  9  1  0
  8  7  2  0
 10  9  1  6
 11  4  1  0
 11 10  1  0
 12 10  1  0
 12 13  2  0
 14 15  1  0
 16 15  1  1
 16 17  1  0
 16 18  1  0
 17 12  1  0
 18 20  1  0
 19 18  2  0
M  END
$$$$
