GPG.pdb
     RDKit          3D

 16 16  0  0  1  0  0  0  0  0999 V2000
   22.8696  -13.7711  -17.9316 N   0  0  0  0  0  0  0  0  0  0  0  0
   23.5396  -12.5337  -17.8592 C   0  0  0  0  0  0  0  0  0  0  0  0
   23.4084  -11.7175  -16.6588 C   0  0  0  0  0  0  0  0  0  0  0  0
   22.1902  -11.5586  -16.2491 O   0  0  0  0  0  0  0  0  0  0  0  0
   24.3921  -11.0828  -15.8835 N   0  0  0  0  0  0  0  0  0  0  0  0
   25.7707  -11.5771  -15.7651 C   0  0  0  0  0  0  0  0  0  0  0  0
   26.5830  -10.2738  -15.8920 C   0  0  0  0  0  0  0  0  0  0  0  0
   25.5378   -9.1506  -15.8357 C   0  0  0  0  0  0  0  0  0  0  0  0
   24.4664   -9.9429  -15.0495 C   0  0  1  0  0  0  0  0  0  0  0  0
   23.3431   -9.1636  -14.6748 C   0  0  0  0  0  0  0  0  0  0  0  0
   23.2575   -8.4027  -13.7158 O   0  0  0  0  0  0  0  0  0  0  0  0
   22.1630   -9.2667  -15.5037 N   0  0  0  0  0  0  0  0  0  0  0  0
   20.9477   -8.5621  -15.1854 C   0  0  0  0  0  0  0  0  0  0  0  0
   20.9003   -7.2554  -15.9161 C   0  0  0  0  0  0  0  0  0  0  0  0
   21.7895   -6.2692  -15.5294 O   0  0  0  0  0  0  0  0  0  0  0  0
   20.0822   -7.0941  -16.8302 O   0  0  0  0  0  0  0  0  0  0  0  0
  1  2  1  0
  3  4  2  0
  3  2  1  0
  5  3  1  0
  6  5  1  0
  7  8  1  0
  7  6  1  0
  8  9  1  0
  9  5  1  0
  9 10  1  6
 11 10  2  0
 12 10  1  0
 13 12  1  0
 14 15  1  0
 14 13  1  0
 16 14  2  0
M  END
$$$$
