GPG.pdb
     RDKit          3D

 16 16  0  0  1  0  0  0  0  0999 V2000
   24.0642  -13.0201  -19.6560 N   0  0  0  0  0  0  0  0  0  0  0  0
   24.9289  -12.0886  -19.0476 C   0  0  0  0  0  0  0  0  0  0  0  0
   24.5270  -11.4456  -17.8028 C   0  0  0  0  0  0  0  0  0  0  0  0
   23.2747  -11.1205  -17.7472 O   0  0  0  0  0  0  0  0  0  0  0  0
   25.2828  -11.1278  -16.6629 N   0  0  0  0  0  0  0  0  0  0  0  0
   26.2113  -12.0685  -16.0212 C   0  0  0  0  0  0  0  0  0  0  0  0
   27.4275  -11.1653  -15.7390 C   0  0  0  0  0  0  0  0  0  0  0  0
   26.9434   -9.7426  -16.0529 C   0  0  0  0  0  0  0  0  0  0  0  0
   25.4384  -10.0088  -15.8119 C   0  0  1  0  0  0  0  0  0  0  0  0
   24.6353   -8.8430  -15.8850 C   0  0  0  0  0  0  0  0  0  0  0  0
   24.6719   -7.9726  -16.7494 O   0  0  0  0  0  0  0  0  0  0  0  0
   23.6633   -8.6449  -14.8332 N   0  0  0  0  0  0  0  0  0  0  0  0
   22.7610   -7.5222  -14.8348 C   0  0  0  0  0  0  0  0  0  0  0  0
   21.3660   -7.9796  -15.1321 C   0  0  0  0  0  0  0  0  0  0  0  0
   21.1999   -8.9482  -16.1053 O   0  0  0  0  0  0  0  0  0  0  0  0
   20.4150   -7.4885  -14.5112 O   0  0  0  0  0  0  0  0  0  0  0  0
  1  2  1  0
  3  4  2  0
  3  2  1  0
  5  3  1  0
  6  5  1  0
  7  8  1  0
  7  6  1  0
  8  9  1  0
  9  5  1  0
  9 10  1  6
 11 10  2  0
 12 10  1  0
 13 12  1  0
 14 15  1  0
 14 13  1  0
 16 14  2  0
M  END
$$$$
