GPG.pdb
     RDKit          3D

 16 16  0  0  1  0  0  0  0  0999 V2000
   20.4331  -12.5216  -16.5375 N   0  0  0  0  0  0  0  0  0  0  0  0
   19.6414  -11.4379  -16.1081 C   0  0  0  0  0  0  0  0  0  0  0  0
   20.2328  -10.1084  -16.0238 C   0  0  0  0  0  0  0  0  0  0  0  0
   21.4696  -10.0951  -15.6400 O   0  0  0  0  0  0  0  0  0  0  0  0
   19.6725   -8.8495  -16.2935 N   0  0  0  0  0  0  0  0  0  0  0  0
   18.7005   -8.6117  -17.3694 C   0  0  0  0  0  0  0  0  0  0  0  0
   17.6706   -7.7059  -16.6669 C   0  0  0  0  0  0  0  0  0  0  0  0
   18.3151   -7.3463  -15.3207 C   0  0  0  0  0  0  0  0  0  0  0  0
   19.7834   -7.5411  -15.7679 C   0  0  1  0  0  0  0  0  0  0  0  0
   20.7326   -7.1621  -14.7856 C   0  0  0  0  0  0  0  0  0  0  0  0
   21.1984   -7.8677  -13.8960 O   0  0  0  0  0  0  0  0  0  0  0  0
   21.2126   -5.7988  -14.8239 N   0  0  0  0  0  0  0  0  0  0  0  0
   22.1551   -5.2983  -13.8565 C   0  0  0  0  0  0  0  0  0  0  0  0
   22.4812   -3.8651  -14.1451 C   0  0  0  0  0  0  0  0  0  0  0  0
   22.0348   -2.9105  -13.2494 O   0  0  0  0  0  0  0  0  0  0  0  0
   23.1296   -3.5766  -15.1586 O   0  0  0  0  0  0  0  0  0  0  0  0
  1  2  1  0
  3  4  2  0
  3  2  1  0
  5  3  1  0
  6  5  1  0
  7  8  1  0
  7  6  1  0
  8  9  1  0
  9  5  1  0
  9 10  1  1
 11 10  2  0
 12 10  1  0
 13 12  1  0
 14 15  1  0
 14 13  1  0
 16 14  2  0
M  END
$$$$
