GPG.pdb
     RDKit          3D

 16 16  0  0  1  0  0  0  0  0999 V2000
   23.3640  -21.2024   -9.9891 N   0  0  0  0  0  0  0  0  0  0  0  0
   24.4673  -21.4619  -10.8263 C   0  0  0  0  0  0  0  0  0  0  0  0
   24.8562  -20.4741  -11.8250 C   0  0  0  0  0  0  0  0  0  0  0  0
   23.8778  -19.7580  -12.2801 O   0  0  0  0  0  0  0  0  0  0  0  0
   26.1188  -20.1812  -12.3649 N   0  0  0  0  0  0  0  0  0  0  0  0
   27.3376  -20.0654  -11.5525 C   0  0  0  0  0  0  0  0  0  0  0  0
   28.3601  -20.8364  -12.4096 C   0  0  0  0  0  0  0  0  0  0  0  0
   27.6390  -21.1037  -13.7384 C   0  0  0  0  0  0  0  0  0  0  0  0
   26.6517  -19.9159  -13.6479 C   0  0  1  0  0  0  0  0  0  0  0  0
   25.8608  -19.7433  -14.8117 C   0  0  0  0  0  0  0  0  0  0  0  0
   25.1349  -20.5779  -15.3431 O   0  0  0  0  0  0  0  0  0  0  0  0
   25.9048  -18.4480  -15.4526 N   0  0  0  0  0  0  0  0  0  0  0  0
   25.0662  -18.1297  -16.5795 C   0  0  0  0  0  0  0  0  0  0  0  0
   25.6290  -18.7321  -17.8301 C   0  0  0  0  0  0  0  0  0  0  0  0
   25.0977  -19.9340  -18.2612 O   0  0  0  0  0  0  0  0  0  0  0  0
   26.5381  -18.1500  -18.4349 O   0  0  0  0  0  0  0  0  0  0  0  0
  1  2  1  0
  3  4  2  0
  3  2  1  0
  5  3  1  0
  6  5  1  0
  7  8  1  0
  7  6  1  0
  8  9  1  0
  9  5  1  0
  9 10  1  6
 11 10  2  0
 12 10  1  0
 13 12  1  0
 14 15  1  0
 14 13  1  0
 16 14  2  0
M  END
$$$$
