GPG.pdb
     RDKit          3D

 16 16  0  0  1  0  0  0  0  0999 V2000
   18.4848  -11.8459  -16.5398 N   0  0  0  0  0  0  0  0  0  0  0  0
   19.7417  -11.2334  -16.7151 C   0  0  0  0  0  0  0  0  0  0  0  0
   20.2497  -10.3345  -15.6863 C   0  0  0  0  0  0  0  0  0  0  0  0
   19.3368   -9.6491  -15.0748 O   0  0  0  0  0  0  0  0  0  0  0  0
   21.5664  -10.1000  -15.2588 N   0  0  0  0  0  0  0  0  0  0  0  0
   22.5518  -11.1703  -15.0534 C   0  0  0  0  0  0  0  0  0  0  0  0
   23.8131  -10.5631  -15.6975 C   0  0  0  0  0  0  0  0  0  0  0  0
   23.4420   -9.1026  -15.9909 C   0  0  0  0  0  0  0  0  0  0  0  0
   22.3472   -8.9749  -14.9051 C   0  0  1  0  0  0  0  0  0  0  0  0
   21.8275   -7.6627  -14.7723 C   0  0  0  0  0  0  0  0  0  0  0  0
   21.1205   -7.0624  -15.5759 O   0  0  0  0  0  0  0  0  0  0  0  0
   22.1588   -6.9415  -13.5638 N   0  0  0  0  0  0  0  0  0  0  0  0
   21.7268   -5.5847  -13.3468 C   0  0  0  0  0  0  0  0  0  0  0  0
   22.2398   -4.6971  -14.4389 C   0  0  0  0  0  0  0  0  0  0  0  0
   23.6002   -4.7033  -14.6878 O   0  0  0  0  0  0  0  0  0  0  0  0
   21.4482   -3.9938  -15.0791 O   0  0  0  0  0  0  0  0  0  0  0  0
  1  2  1  0
  3  4  2  0
  3  2  1  0
  5  3  1  0
  6  5  1  0
  7  8  1  0
  7  6  1  0
  8  9  1  0
  9  5  1  0
  9 10  1  6
 11 10  2  0
 12 10  1  0
 13 12  1  0
 14 15  1  0
 14 13  1  0
 16 14  2  0
M  END
$$$$
