GPG.pdb
     RDKit          3D

 16 16  0  0  1  0  0  0  0  0999 V2000
   23.7678  -13.6924  -18.8605 N   0  0  0  0  0  0  0  0  0  0  0  0
   24.7945  -12.7939  -18.5083 C   0  0  0  0  0  0  0  0  0  0  0  0
   24.6412  -11.9607  -17.3222 C   0  0  0  0  0  0  0  0  0  0  0  0
   23.4394  -11.5182  -17.1296 O   0  0  0  0  0  0  0  0  0  0  0  0
   25.5885  -11.5680  -16.3631 N   0  0  0  0  0  0  0  0  0  0  0  0
   26.4688  -12.5133  -15.6629 C   0  0  0  0  0  0  0  0  0  0  0  0
   27.8205  -11.7747  -15.7073 C   0  0  0  0  0  0  0  0  0  0  0  0
   27.4863  -10.3721  -16.2347 C   0  0  0  0  0  0  0  0  0  0  0  0
   26.0101  -10.3542  -15.7718 C   0  0  1  0  0  0  0  0  0  0  0  0
   25.3643   -9.1092  -15.9773 C   0  0  0  0  0  0  0  0  0  0  0  0
   25.6822   -8.2340  -16.7766 O   0  0  0  0  0  0  0  0  0  0  0  0
   24.2034   -8.8263  -15.1631 N   0  0  0  0  0  0  0  0  0  0  0  0
   23.4576   -7.6021  -15.3034 C   0  0  0  0  0  0  0  0  0  0  0  0
   22.5122   -7.7016  -16.4609 C   0  0  0  0  0  0  0  0  0  0  0  0
   21.3032   -8.3397  -16.2515 O   0  0  0  0  0  0  0  0  0  0  0  0
   22.8307   -7.2194  -17.5550 O   0  0  0  0  0  0  0  0  0  0  0  0
  1  2  1  0
  3  4  2  0
  3  2  1  0
  5  3  1  0
  6  5  1  0
  7  8  1  0
  7  6  1  0
  8  9  1  0
  9  5  1  0
  9 10  1  6
 11 10  2  0
 12 10  1  0
 13 12  1  0
 14 15  1  0
 14 13  1  0
 16 14  2  0
M  END
$$$$
