GPG.pdb
     RDKit          3D

 16 16  0  0  1  0  0  0  0  0999 V2000
   22.1267  -12.4985  -18.1256 N   0  0  0  0  0  0  0  0  0  0  0  0
   23.2654  -11.6790  -17.9934 C   0  0  0  0  0  0  0  0  0  0  0  0
   23.2589  -10.5964  -17.0176 C   0  0  0  0  0  0  0  0  0  0  0  0
   22.1511   -9.9276  -16.9662 O   0  0  0  0  0  0  0  0  0  0  0  0
   24.2610  -10.1708  -16.1309 N   0  0  0  0  0  0  0  0  0  0  0  0
   25.1107  -11.0955  -15.3683 C   0  0  0  0  0  0  0  0  0  0  0  0
   26.4998  -10.4473  -15.5260 C   0  0  0  0  0  0  0  0  0  0  0  0
   26.2272   -9.0844  -16.1782 C   0  0  0  0  0  0  0  0  0  0  0  0
   24.7720   -8.9334  -15.6748 C   0  0  1  0  0  0  0  0  0  0  0  0
   24.1911   -7.6772  -15.9818 C   0  0  0  0  0  0  0  0  0  0  0  0
   24.0630   -7.1734  -17.0934 O   0  0  0  0  0  0  0  0  0  0  0  0
   23.6911   -6.8937  -14.8742 N   0  0  0  0  0  0  0  0  0  0  0  0
   23.0770   -5.6058  -15.0714 C   0  0  0  0  0  0  0  0  0  0  0  0
   21.5866   -5.7456  -15.1243 C   0  0  0  0  0  0  0  0  0  0  0  0
   20.8378   -4.9949  -14.2363 O   0  0  0  0  0  0  0  0  0  0  0  0
   21.0724   -6.5149  -15.9457 O   0  0  0  0  0  0  0  0  0  0  0  0
  1  2  1  0
  3  4  2  0
  3  2  1  0
  5  3  1  0
  6  5  1  0
  7  8  1  0
  7  6  1  0
  8  9  1  0
  9  5  1  0
  9 10  1  6
 11 10  2  0
 12 10  1  0
 13 12  1  0
 14 15  1  0
 14 13  1  0
 16 14  2  0
M  END
$$$$
