GPG.pdb
     RDKit          3D

 16 16  0  0  1  0  0  0  0  0999 V2000
   14.1168  -22.7857   -3.3681 N   0  0  0  0  0  0  0  0  0  0  0  0
   13.7753  -22.6916   -2.0042 C   0  0  0  0  0  0  0  0  0  0  0  0
   14.7168  -23.1627   -0.9963 C   0  0  0  0  0  0  0  0  0  0  0  0
   15.2859  -24.2909   -1.2800 O   0  0  0  0  0  0  0  0  0  0  0  0
   15.0995  -22.5856    0.2252 N   0  0  0  0  0  0  0  0  0  0  0  0
   15.2112  -21.1355    0.4336 C   0  0  0  0  0  0  0  0  0  0  0  0
   14.5449  -20.9646    1.8125 C   0  0  0  0  0  0  0  0  0  0  0  0
   14.3385  -22.3950    2.3307 C   0  0  0  0  0  0  0  0  0  0  0  0
   15.4743  -23.0485    1.5080 C   0  0  1  0  0  0  0  0  0  0  0  0
   15.6923  -24.4134    1.8229 C   0  0  0  0  0  0  0  0  0  0  0  0
   14.9617  -25.3611    1.5507 O   0  0  0  0  0  0  0  0  0  0  0  0
   16.9031  -24.7387    2.5430 N   0  0  0  0  0  0  0  0  0  0  0  0
   17.2236  -26.0923    2.9172 C   0  0  0  0  0  0  0  0  0  0  0  0
   16.6979  -26.3886    4.2881 C   0  0  0  0  0  0  0  0  0  0  0  0
   17.1129  -25.5747    5.3264 O   0  0  0  0  0  0  0  0  0  0  0  0
   15.9201  -27.3364    4.4541 O   0  0  0  0  0  0  0  0  0  0  0  0
  1  2  1  0
  3  4  2  0
  3  2  1  0
  5  3  1  0
  6  5  1  0
  7  8  1  0
  7  6  1  0
  8  9  1  0
  9  5  1  0
  9 10  1  6
 11 10  2  0
 12 10  1  0
 13 12  1  0
 14 15  1  0
 14 13  1  0
 16 14  2  0
M  END
$$$$
