GPG.pdb
     RDKit          3D

 16 16  0  0  1  0  0  0  0  0999 V2000
   24.1394  -20.9832   -8.9217 N   0  0  0  0  0  0  0  0  0  0  0  0
   24.8664  -21.4117  -10.0501 C   0  0  0  0  0  0  0  0  0  0  0  0
   24.9131  -20.5651  -11.2356 C   0  0  0  0  0  0  0  0  0  0  0  0
   23.8359  -19.8777  -11.4462 O   0  0  0  0  0  0  0  0  0  0  0  0
   25.9387  -20.3807  -12.1767 N   0  0  0  0  0  0  0  0  0  0  0  0
   27.3545  -20.2380  -11.8109 C   0  0  0  0  0  0  0  0  0  0  0  0
   28.0414  -21.1323  -12.8611 C   0  0  0  0  0  0  0  0  0  0  0  0
   26.9301  -21.4977  -13.8553 C   0  0  0  0  0  0  0  0  0  0  0  0
   26.0346  -20.2657  -13.5831 C   0  0  1  0  0  0  0  0  0  0  0  0
   24.9141  -20.1745  -14.4466 C   0  0  0  0  0  0  0  0  0  0  0  0
   24.1088  -21.0624  -14.7097 O   0  0  0  0  0  0  0  0  0  0  0  0
   24.6831  -18.9030  -15.0949 N   0  0  0  0  0  0  0  0  0  0  0  0
   23.4717  -18.6324  -15.8257 C   0  0  0  0  0  0  0  0  0  0  0  0
   23.5671  -19.1927  -17.2115 C   0  0  0  0  0  0  0  0  0  0  0  0
   24.4312  -18.5753  -18.0974 O   0  0  0  0  0  0  0  0  0  0  0  0
   22.8831  -20.1757  -17.5231 O   0  0  0  0  0  0  0  0  0  0  0  0
  1  2  1  0
  3  4  2  0
  3  2  1  0
  5  3  1  0
  6  5  1  0
  7  8  1  0
  7  6  1  0
  8  9  1  0
  9  5  1  0
  9 10  1  6
 11 10  2  0
 12 10  1  0
 13 12  1  0
 14 15  1  0
 14 13  1  0
 16 14  2  0
M  END
$$$$
