GPG.pdb
     RDKit          3D

 16 16  0  0  1  0  0  0  0  0999 V2000
   23.2368  -20.6876   -8.3292 N   0  0  0  0  0  0  0  0  0  0  0  0
   23.8660  -21.3361   -9.4104 C   0  0  0  0  0  0  0  0  0  0  0  0
   24.0589  -20.6163  -10.6630 C   0  0  0  0  0  0  0  0  0  0  0  0
   23.0766  -19.8388  -10.9913 O   0  0  0  0  0  0  0  0  0  0  0  0
   25.1380  -20.6351  -11.5611 N   0  0  0  0  0  0  0  0  0  0  0  0
   26.5361  -20.8008  -11.1407 C   0  0  0  0  0  0  0  0  0  0  0  0
   27.0623  -21.8005  -12.1887 C   0  0  0  0  0  0  0  0  0  0  0  0
   25.9407  -21.9052  -13.2318 C   0  0  0  0  0  0  0  0  0  0  0  0
   25.3135  -20.5172  -12.9596 C   0  0  1  0  0  0  0  0  0  0  0  0
   24.2734  -20.1761  -13.8604 C   0  0  0  0  0  0  0  0  0  0  0  0
   24.3575  -20.0659  -15.0798 O   0  0  0  0  0  0  0  0  0  0  0  0
   22.9661  -19.9284  -13.2947 N   0  0  0  0  0  0  0  0  0  0  0  0
   21.8041  -19.7360  -14.1239 C   0  0  0  0  0  0  0  0  0  0  0  0
   21.1124  -21.0439  -14.3571 C   0  0  0  0  0  0  0  0  0  0  0  0
   19.8466  -21.2067  -13.8241 O   0  0  0  0  0  0  0  0  0  0  0  0
   21.6802  -21.9294  -15.0086 O   0  0  0  0  0  0  0  0  0  0  0  0
  1  2  1  0
  3  4  2  0
  3  2  1  0
  5  3  1  0
  6  5  1  0
  7  8  1  0
  7  6  1  0
  8  9  1  0
  9  5  1  0
  9 10  1  6
 11 10  2  0
 12 10  1  0
 13 12  1  0
 14 15  1  0
 14 13  1  0
 16 14  2  0
M  END
$$$$
