GPG.pdb
     RDKit          3D

 16 16  0  0  1  0  0  0  0  0999 V2000
   23.1485  -13.6477  -18.2241 N   0  0  0  0  0  0  0  0  0  0  0  0
   24.3175  -12.8846  -18.0328 C   0  0  0  0  0  0  0  0  0  0  0  0
   24.2929  -11.7562  -17.1105 C   0  0  0  0  0  0  0  0  0  0  0  0
   23.1655  -11.1202  -17.0715 O   0  0  0  0  0  0  0  0  0  0  0  0
   25.2955  -11.2571  -16.2635 N   0  0  0  0  0  0  0  0  0  0  0  0
   26.1694  -12.1160  -15.4527 C   0  0  0  0  0  0  0  0  0  0  0  0
   27.5447  -11.4547  -15.6665 C   0  0  0  0  0  0  0  0  0  0  0  0
   27.2409  -10.1414  -16.4013 C   0  0  0  0  0  0  0  0  0  0  0  0
   25.7881   -9.9842  -15.8928 C   0  0  1  0  0  0  0  0  0  0  0  0
   25.1813   -8.7608  -16.2730 C   0  0  0  0  0  0  0  0  0  0  0  0
   25.3493   -8.1463  -17.3219 O   0  0  0  0  0  0  0  0  0  0  0  0
   24.2623   -8.1603  -15.3320 N   0  0  0  0  0  0  0  0  0  0  0  0
   23.5126   -6.9735  -15.6550 C   0  0  0  0  0  0  0  0  0  0  0  0
   22.1762   -7.3436  -16.2214 C   0  0  0  0  0  0  0  0  0  0  0  0
   21.2080   -7.7961  -15.3436 O   0  0  0  0  0  0  0  0  0  0  0  0
   21.9759   -7.2372  -17.4378 O   0  0  0  0  0  0  0  0  0  0  0  0
  1  2  1  0
  3  4  2  0
  3  2  1  0
  5  3  1  0
  6  5  1  0
  7  8  1  0
  7  6  1  0
  8  9  1  0
  9  5  1  0
  9 10  1  6
 11 10  2  0
 12 10  1  0
 13 12  1  0
 14 15  1  0
 14 13  1  0
 16 14  2  0
M  END
$$$$
