GPG.pdb
     RDKit          3D

 16 16  0  0  1  0  0  0  0  0999 V2000
   27.6452  -18.5473  -15.6597 N   0  0  0  0  0  0  0  0  0  0  0  0
   27.2306  -18.8589  -14.3496 C   0  0  0  0  0  0  0  0  0  0  0  0
   26.1504  -19.8167  -14.1493 C   0  0  0  0  0  0  0  0  0  0  0  0
   25.2685  -19.8362  -15.0974 O   0  0  0  0  0  0  0  0  0  0  0  0
   25.9211  -20.7154  -13.0951 N   0  0  0  0  0  0  0  0  0  0  0  0
   26.9580  -21.6018  -12.5494 C   0  0  0  0  0  0  0  0  0  0  0  0
   26.7228  -21.4630  -11.0328 C   0  0  0  0  0  0  0  0  0  0  0  0
   25.4089  -20.6788  -10.9077 C   0  0  0  0  0  0  0  0  0  0  0  0
   24.8256  -21.0872  -12.2813 C   0  0  1  0  0  0  0  0  0  0  0  0
   23.4973  -20.6391  -12.4916 C   0  0  0  0  0  0  0  0  0  0  0  0
   23.0930  -19.4810  -12.4562 O   0  0  0  0  0  0  0  0  0  0  0  0
   22.4999  -21.6454  -12.7798 N   0  0  0  0  0  0  0  0  0  0  0  0
   21.1020  -21.3177  -12.8951 C   0  0  0  0  0  0  0  0  0  0  0  0
   20.7621  -20.9924  -14.3171 C   0  0  0  0  0  0  0  0  0  0  0  0
   20.7423  -19.6595  -14.6855 O   0  0  0  0  0  0  0  0  0  0  0  0
   20.5123  -21.9074  -15.1118 O   0  0  0  0  0  0  0  0  0  0  0  0
  1  2  1  0
  3  4  2  0
  3  2  1  0
  5  3  1  0
  6  5  1  0
  7  8  1  0
  7  6  1  0
  8  9  1  0
  9  5  1  0
  9 10  1  6
 11 10  2  0
 12 10  1  0
 13 12  1  0
 14 15  1  0
 14 13  1  0
 16 14  2  0
M  END
$$$$
