GPG.pdb
     RDKit          3D

 16 16  0  0  1  0  0  0  0  0999 V2000
   20.6964  -11.6559  -18.2310 N   0  0  0  0  0  0  0  0  0  0  0  0
   21.8923  -10.9428  -18.0146 C   0  0  0  0  0  0  0  0  0  0  0  0
   22.1220  -10.3050  -16.7243 C   0  0  0  0  0  0  0  0  0  0  0  0
   21.0870   -9.7014  -16.2328 O   0  0  0  0  0  0  0  0  0  0  0  0
   23.2836  -10.2456  -15.9378 N   0  0  0  0  0  0  0  0  0  0  0  0
   24.3199  -11.2871  -15.9476 C   0  0  0  0  0  0  0  0  0  0  0  0
   25.6103  -10.4452  -15.9744 C   0  0  0  0  0  0  0  0  0  0  0  0
   25.1441   -9.0013  -15.7401 C   0  0  0  0  0  0  0  0  0  0  0  0
   23.8383   -9.3549  -14.9893 C   0  0  1  0  0  0  0  0  0  0  0  0
   23.1553   -8.2253  -14.4725 C   0  0  0  0  0  0  0  0  0  0  0  0
   23.2107   -7.7875  -13.3274 O   0  0  0  0  0  0  0  0  0  0  0  0
   22.2962   -7.5010  -15.3824 N   0  0  0  0  0  0  0  0  0  0  0  0
   21.5333   -6.3558  -14.9568 C   0  0  0  0  0  0  0  0  0  0  0  0
   22.2720   -5.0931  -15.2784 C   0  0  0  0  0  0  0  0  0  0  0  0
   23.5262   -4.9214  -14.7213 O   0  0  0  0  0  0  0  0  0  0  0  0
   21.7513   -4.2510  -16.0206 O   0  0  0  0  0  0  0  0  0  0  0  0
  1  2  1  0
  3  4  2  0
  3  2  1  0
  5  3  1  0
  6  5  1  0
  7  8  1  0
  7  6  1  0
  8  9  1  0
  9  5  1  0
  9 10  1  6
 11 10  2  0
 12 10  1  0
 13 12  1  0
 14 15  1  0
 14 13  1  0
 16 14  2  0
M  END
$$$$
