GPG.pdb
     RDKit          3D

 16 16  0  0  1  0  0  0  0  0999 V2000
   27.9292  -19.7144  -14.8774 N   0  0  0  0  0  0  0  0  0  0  0  0
   27.2399  -19.6497  -13.6501 C   0  0  0  0  0  0  0  0  0  0  0  0
   26.1536  -20.5857  -13.3888 C   0  0  0  0  0  0  0  0  0  0  0  0
   25.6348  -21.1148  -14.4509 O   0  0  0  0  0  0  0  0  0  0  0  0
   25.5881  -20.9995  -12.1721 N   0  0  0  0  0  0  0  0  0  0  0  0
   26.3528  -21.6727  -11.1134 C   0  0  0  0  0  0  0  0  0  0  0  0
   25.8409  -20.9528   -9.8508 C   0  0  0  0  0  0  0  0  0  0  0  0
   24.6582  -20.1017  -10.3342 C   0  0  0  0  0  0  0  0  0  0  0  0
   24.3091  -20.9660  -11.5691 C   0  0  1  0  0  0  0  0  0  0  0  0
   23.1304  -20.5518  -12.2389 C   0  0  0  0  0  0  0  0  0  0  0  0
   22.8847  -19.4334  -12.6802 O   0  0  0  0  0  0  0  0  0  0  0  0
   22.0969  -21.5447  -12.4296 N   0  0  0  0  0  0  0  0  0  0  0  0
   20.8564  -21.2319  -13.0915 C   0  0  0  0  0  0  0  0  0  0  0  0
   21.0487  -21.2289  -14.5769 C   0  0  0  0  0  0  0  0  0  0  0  0
   20.7099  -20.0796  -15.2675 O   0  0  0  0  0  0  0  0  0  0  0  0
   21.4974  -22.2361  -15.1384 O   0  0  0  0  0  0  0  0  0  0  0  0
  1  2  1  0
  3  4  2  0
  3  2  1  0
  5  3  1  0
  6  5  1  0
  7  8  1  0
  7  6  1  0
  8  9  1  0
  9  5  1  0
  9 10  1  6
 11 10  2  0
 12 10  1  0
 13 12  1  0
 14 15  1  0
 14 13  1  0
 16 14  2  0
M  END
$$$$
