GPG.pdb
     RDKit          3D

 16 16  0  0  1  0  0  0  0  0999 V2000
   14.3866  -23.6911    1.4095 N   0  0  0  0  0  0  0  0  0  0  0  0
   15.5594  -22.9836    1.7407 C   0  0  0  0  0  0  0  0  0  0  0  0
   15.5297  -22.0201    2.8338 C   0  0  0  0  0  0  0  0  0  0  0  0
   14.5014  -21.2328    2.8267 O   0  0  0  0  0  0  0  0  0  0  0  0
   16.4369  -21.8162    3.8860 N   0  0  0  0  0  0  0  0  0  0  0  0
   17.2256  -22.8969    4.4932 C   0  0  0  0  0  0  0  0  0  0  0  0
   18.6129  -22.2384    4.6217 C   0  0  0  0  0  0  0  0  0  0  0  0
   18.3813  -20.7604    4.2770 C   0  0  0  0  0  0  0  0  0  0  0  0
   16.8829  -20.7202    4.6607 C   0  0  1  0  0  0  0  0  0  0  0  0
   16.3136  -19.4235    4.5964 C   0  0  0  0  0  0  0  0  0  0  0  0
   16.3105  -18.6640    3.6326 O   0  0  0  0  0  0  0  0  0  0  0  0
   15.6627  -18.9294    5.7892 N   0  0  0  0  0  0  0  0  0  0  0  0
   14.9765  -17.6632    5.8106 C   0  0  0  0  0  0  0  0  0  0  0  0
   15.9074  -16.5774    6.2554 C   0  0  0  0  0  0  0  0  0  0  0  0
   15.4053  -15.2910    6.3335 O   0  0  0  0  0  0  0  0  0  0  0  0
   17.0803  -16.8533    6.5367 O   0  0  0  0  0  0  0  0  0  0  0  0
  1  2  1  0
  3  4  2  0
  3  2  1  0
  5  3  1  0
  6  5  1  0
  7  8  1  0
  7  6  1  0
  8  9  1  0
  9  5  1  0
  9 10  1  6
 11 10  2  0
 12 10  1  0
 13 12  1  0
 14 15  1  0
 14 13  1  0
 16 14  2  0
M  END
$$$$
