TIC.pdb
     RDKit          3D

 22 21  0  0  1  0  0  0  0  0999 V2000
    6.0788  -16.3979   19.7345 C   0  0  0  0  0  0  0  0  0  0  0  0
    6.8057  -16.2620   21.0377 C   0  0  1  0  0  0  0  0  0  0  0  0
    7.7763  -17.2389   21.2324 O   0  0  0  0  0  0  0  0  0  0  0  0
    7.4251  -14.8961   21.2312 C   0  0  2  0  0  0  0  0  0  0  0  0
    8.4041  -14.6703   20.1792 N   0  0  0  0  0  0  0  0  0  0  0  0
    8.0883  -14.7209   22.5268 C   0  0  0  0  0  0  0  0  0  0  0  0
    9.3406  -14.8765   22.6297 O   0  0  0  0  0  0  0  0  0  0  0  0
    6.0290  -11.3987   26.3235 C   0  0  0  0  0  0  0  0  0  0  0  0
    6.9979  -12.1116   25.3892 C   0  0  0  0  0  0  0  0  0  0  0  0
    7.1895  -13.5172   25.9479 C   0  0  2  0  0  0  0  0  0  0  0  0
    7.8844  -13.3299   27.2991 C   0  0  0  0  0  0  0  0  0  0  0  0
    8.0635  -14.3504   25.0293 C   0  0  2  0  0  0  0  0  0  0  0  0
    7.4285  -14.3759   23.7385 N   0  0  0  0  0  0  0  0  0  0  0  0
    8.2235  -15.6773   25.6281 C   0  0  0  0  0  0  0  0  0  0  0  0
    7.2051  -16.3667   25.8595 O   0  0  0  0  0  0  0  0  0  0  0  0
    9.4933  -16.2042   25.9532 N   0  0  0  0  0  0  0  0  0  0  0  0
    9.5939  -17.5328   26.5020 C   0  0  1  0  0  0  0  0  0  0  0  0
   10.5321  -18.4097   25.6962 C   0  0  0  0  0  0  0  0  0  0  0  0
   10.1163  -18.2389   23.9420 S   0  0  0  0  0  0  0  0  0  0  0  0
   10.0437  -17.4896   27.9174 C   0  0  0  0  0  0  0  0  0  0  0  0
   10.3322  -16.3826   28.4521 O   0  0  0  0  0  0  0  0  0  0  0  0
   10.1515  -18.6542   28.6624 O   0  0  0  0  0  0  0  0  0  0  0  0
  2  1  1  6
  2  4  1  0
  2  3  1  0
  4  6  1  0
  4  5  1  6
  6  7  2  0
  8  9  1  0
  9 10  1  0
 10 11  1  1
 10 12  1  0
 12 14  1  0
 12 13  1  6
 13  6  1  0
 14 15  2  0
 16 17  1  0
 16 14  1  0
 17 20  1  0
 17 18  1  6
 19 18  1  0
 20 21  2  0
 20 22  1  0
M  END
$$$$
