TIC.pdb
     RDKit          3D

 22 21  0  0  1  0  0  0  0  0999 V2000
    5.2198  -20.9832   24.6944 C   0  0  0  0  0  0  0  0  0  0  0  0
    6.1728  -19.8512   24.4585 C   0  0  1  0  0  0  0  0  0  0  0  0
    7.2908  -20.2169   23.7165 O   0  0  0  0  0  0  0  0  0  0  0  0
    5.5176  -18.6491   23.8162 C   0  0  2  0  0  0  0  0  0  0  0  0
    5.0668  -19.0156   22.4826 N   0  0  0  0  0  0  0  0  0  0  0  0
    6.3964  -17.4810   23.7036 C   0  0  0  0  0  0  0  0  0  0  0  0
    7.0240  -17.2551   22.6275 O   0  0  0  0  0  0  0  0  0  0  0  0
    5.8599  -12.9053   26.8304 C   0  0  0  0  0  0  0  0  0  0  0  0
    6.0993  -13.7479   25.5844 C   0  0  0  0  0  0  0  0  0  0  0  0
    7.3680  -14.5543   25.8393 C   0  0  2  0  0  0  0  0  0  0  0  0
    8.4964  -13.5240   25.9337 C   0  0  0  0  0  0  0  0  0  0  0  0
    7.6392  -15.5131   24.6950 C   0  0  2  0  0  0  0  0  0  0  0  0
    6.6228  -16.5306   24.7369 N   0  0  0  0  0  0  0  0  0  0  0  0
    8.9978  -16.0376   24.8488 C   0  0  0  0  0  0  0  0  0  0  0  0
    9.2841  -16.6923   25.8762 O   0  0  0  0  0  0  0  0  0  0  0  0
    9.9969  -15.8275   23.8724 N   0  0  0  0  0  0  0  0  0  0  0  0
   11.2596  -16.5122   23.9866 C   0  0  1  0  0  0  0  0  0  0  0  0
   12.1804  -16.2014   22.8230 C   0  0  0  0  0  0  0  0  0  0  0  0
   13.7131  -17.1425   23.0336 S   0  0  0  0  0  0  0  0  0  0  0  0
   11.9362  -16.1683   25.2638 C   0  0  0  0  0  0  0  0  0  0  0  0
   11.9677  -14.9683   25.6556 O   0  0  0  0  0  0  0  0  0  0  0  0
   12.5364  -17.1522   26.0350 O   0  0  0  0  0  0  0  0  0  0  0  0
  2  1  1  6
  2  4  1  0
  2  3  1  0
  4  6  1  0
  4  5  1  6
  6  7  2  0
  8  9  1  0
  9 10  1  0
 10 11  1  6
 10 12  1  0
 12 14  1  0
 12 13  1  1
 13  6  1  0
 14 15  2  0
 16 17  1  0
 16 14  1  0
 17 20  1  0
 17 18  1  6
 19 18  1  0
 20 21  2  0
 20 22  1  0
M  END
$$$$
