TIC.pdb
     RDKit          3D

 22 21  0  0  1  0  0  0  0  0999 V2000
    6.1628  -16.6860   19.7976 C   0  0  0  0  0  0  0  0  0  0  0  0
    6.9786  -16.4122   21.0243 C   0  0  1  0  0  0  0  0  0  0  0  0
    8.1728  -17.1239   21.0628 O   0  0  0  0  0  0  0  0  0  0  0  0
    7.2660  -14.9417   21.2288 C   0  0  2  0  0  0  0  0  0  0  0  0
    8.0324  -14.4500   20.0942 N   0  0  0  0  0  0  0  0  0  0  0  0
    8.0123  -14.6456   22.4554 C   0  0  0  0  0  0  0  0  0  0  0  0
    9.2773  -14.5944   22.4370 O   0  0  0  0  0  0  0  0  0  0  0  0
    5.8706  -11.6054   26.4433 C   0  0  0  0  0  0  0  0  0  0  0  0
    6.8599  -12.1733   25.4341 C   0  0  0  0  0  0  0  0  0  0  0  0
    7.2656  -13.5505   25.9471 C   0  0  2  0  0  0  0  0  0  0  0  0
    8.0299  -13.2942   27.2486 C   0  0  0  0  0  0  0  0  0  0  0  0
    8.1661  -14.2559   24.9503 C   0  0  2  0  0  0  0  0  0  0  0  0
    7.4238  -14.3979   23.7261 N   0  0  0  0  0  0  0  0  0  0  0  0
    8.5824  -15.5335   25.5329 C   0  0  0  0  0  0  0  0  0  0  0  0
    7.7072  -16.3631   25.8671 O   0  0  0  0  0  0  0  0  0  0  0  0
    9.9428  -15.8592   25.7296 N   0  0  0  0  0  0  0  0  0  0  0  0
   10.2951  -17.1405   26.2869 C   0  0  1  0  0  0  0  0  0  0  0  0
   11.6051  -17.6608   25.7288 C   0  0  0  0  0  0  0  0  0  0  0  0
   11.5811  -17.4692   23.9283 S   0  0  0  0  0  0  0  0  0  0  0  0
   10.3770  -17.0703   27.7687 C   0  0  0  0  0  0  0  0  0  0  0  0
   10.1949  -15.9678   28.3571 O   0  0  0  0  0  0  0  0  0  0  0  0
   10.6520  -18.2044   28.5177 O   0  0  0  0  0  0  0  0  0  0  0  0
  2  1  1  6
  2  4  1  0
  2  3  1  0
  4  6  1  0
  4  5  1  6
  6  7  2  0
  8  9  1  0
  9 10  1  0
 10 11  1  1
 10 12  1  0
 12 14  1  0
 12 13  1  6
 13  6  1  0
 14 15  2  0
 16 17  1  0
 16 14  1  0
 17 20  1  0
 17 18  1  6
 19 18  1  0
 20 21  2  0
 20 22  1  0
M  END
$$$$
