TIC.pdb
     RDKit          3D

 22 21  0  0  1  0  0  0  0  0999 V2000
    6.4815  -17.6145   20.6562 C   0  0  0  0  0  0  0  0  0  0  0  0
    7.9191  -17.3474   20.9841 C   0  0  1  0  0  0  0  0  0  0  0  0
    8.8085  -18.0073   20.1428 O   0  0  0  0  0  0  0  0  0  0  0  0
    8.2567  -15.8737   21.0116 C   0  0  2  0  0  0  0  0  0  0  0  0
    9.2614  -15.6022   19.9952 N   0  0  0  0  0  0  0  0  0  0  0  0
    8.7654  -15.4031   22.3035 C   0  0  0  0  0  0  0  0  0  0  0  0
    9.9880  -15.5471   22.5994 O   0  0  0  0  0  0  0  0  0  0  0  0
    6.8443  -12.0306   27.1121 C   0  0  0  0  0  0  0  0  0  0  0  0
    7.8771  -13.0389   26.6256 C   0  0  0  0  0  0  0  0  0  0  0  0
    7.4489  -13.4618   25.2248 C   0  0  2  0  0  0  0  0  0  0  0  0
    6.1149  -14.1905   25.4064 C   0  0  0  0  0  0  0  0  0  0  0  0
    8.4691  -14.3996   24.6068 C   0  0  2  0  0  0  0  0  0  0  0  0
    7.9798  -14.7694   23.3053 N   0  0  0  0  0  0  0  0  0  0  0  0
    8.6495  -15.5392   25.5088 C   0  0  0  0  0  0  0  0  0  0  0  0
    7.7273  -16.3776   25.6210 O   0  0  0  0  0  0  0  0  0  0  0  0
    9.8336  -15.7220   26.2573 N   0  0  0  0  0  0  0  0  0  0  0  0
   10.0413  -16.9561   26.9715 C   0  0  1  0  0  0  0  0  0  0  0  0
   11.1864  -17.7619   26.3900 C   0  0  0  0  0  0  0  0  0  0  0  0
   11.4312  -19.2361   27.4127 S   0  0  0  0  0  0  0  0  0  0  0  0
   10.2936  -16.6991   28.4129 C   0  0  0  0  0  0  0  0  0  0  0  0
   10.5132  -15.5215   28.8127 O   0  0  0  0  0  0  0  0  0  0  0  0
   10.2912  -17.7398   29.3293 O   0  0  0  0  0  0  0  0  0  0  0  0
  2  1  1  6
  2  4  1  0
  2  3  1  0
  4  6  1  0
  4  5  1  6
  6  7  2  0
  8  9  1  0
  9 10  1  0
 10 11  1  1
 10 12  1  0
 12 14  1  0
 12 13  1  6
 13  6  1  0
 14 15  2  0
 16 17  1  0
 16 14  1  0
 17 20  1  0
 17 18  1  6
 19 18  1  0
 20 21  2  0
 20 22  1  0
M  END
$$$$
