TIC.pdb
     RDKit          3D

 22 21  0  0  1  0  0  0  0  0999 V2000
    6.2288  -17.2466   19.9964 C   0  0  0  0  0  0  0  0  0  0  0  0
    7.0061  -16.7942   21.1949 C   0  0  1  0  0  0  0  0  0  0  0  0
    8.2451  -17.4144   21.3151 O   0  0  0  0  0  0  0  0  0  0  0  0
    7.1903  -15.2942   21.2501 C   0  0  2  0  0  0  0  0  0  0  0  0
    7.9041  -14.8638   20.0579 N   0  0  0  0  0  0  0  0  0  0  0  0
    7.9299  -14.8278   22.4268 C   0  0  0  0  0  0  0  0  0  0  0  0
    9.1875  -14.6903   22.3776 O   0  0  0  0  0  0  0  0  0  0  0  0
    5.6755  -11.6861   26.2670 C   0  0  0  0  0  0  0  0  0  0  0  0
    6.7123  -12.2417   25.2994 C   0  0  0  0  0  0  0  0  0  0  0  0
    7.1707  -13.5790   25.8704 C   0  0  2  0  0  0  0  0  0  0  0  0
    7.9399  -13.2368   27.1490 C   0  0  0  0  0  0  0  0  0  0  0  0
    8.0839  -14.2993   24.8960 C   0  0  2  0  0  0  0  0  0  0  0  0
    7.3423  -14.4987   23.6793 N   0  0  0  0  0  0  0  0  0  0  0  0
    8.5278  -15.5472   25.5209 C   0  0  0  0  0  0  0  0  0  0  0  0
    7.7036  -16.4758   25.6770 O   0  0  0  0  0  0  0  0  0  0  0  0
    9.8593  -15.7359   25.9537 N   0  0  0  0  0  0  0  0  0  0  0  0
   10.4299  -17.0590   25.9464 C   0  0  1  0  0  0  0  0  0  0  0  0
   10.5272  -17.6268   24.5440 C   0  0  0  0  0  0  0  0  0  0  0  0
   10.7195  -19.4235   24.6618 S   0  0  0  0  0  0  0  0  0  0  0  0
   11.7739  -17.0608   26.5798 C   0  0  0  0  0  0  0  0  0  0  0  0
   12.4080  -15.9769   26.7126 O   0  0  0  0  0  0  0  0  0  0  0  0
   12.3438  -18.2425   27.0290 O   0  0  0  0  0  0  0  0  0  0  0  0
  2  1  1  6
  2  4  1  0
  2  3  1  0
  4  6  1  0
  4  5  1  6
  6  7  2  0
  8  9  1  0
  9 10  1  0
 10 11  1  1
 10 12  1  0
 12 14  1  0
 12 13  1  6
 13  6  1  0
 14 15  2  0
 16 17  1  0
 16 14  1  0
 17 20  1  0
 17 18  1  6
 19 18  1  0
 20 21  2  0
 20 22  1  0
M  END
$$$$
