TIC.pdb
     RDKit          3D

 22 21  0  0  1  0  0  0  0  0999 V2000
    6.9083  -17.2118   20.1561 C   0  0  0  0  0  0  0  0  0  0  0  0
    7.4739  -16.7663   21.4702 C   0  0  1  0  0  0  0  0  0  0  0  0
    8.5791  -17.5073   21.8747 O   0  0  0  0  0  0  0  0  0  0  0  0
    7.8213  -15.2948   21.4975 C   0  0  2  0  0  0  0  0  0  0  0  0
    8.8126  -15.0263   20.4672 N   0  0  0  0  0  0  0  0  0  0  0  0
    8.3523  -14.8318   22.7832 C   0  0  0  0  0  0  0  0  0  0  0  0
    9.5880  -14.9351   23.0385 O   0  0  0  0  0  0  0  0  0  0  0  0
    8.1877  -11.3226   26.9137 C   0  0  0  0  0  0  0  0  0  0  0  0
    7.4705  -12.6355   27.1996 C   0  0  0  0  0  0  0  0  0  0  0  0
    6.9773  -13.1653   25.8577 C   0  0  2  0  0  0  0  0  0  0  0  0
    5.8768  -14.1746   26.1950 C   0  0  0  0  0  0  0  0  0  0  0  0
    8.0979  -13.8566   25.1037 C   0  0  2  0  0  0  0  0  0  0  0  0
    7.5751  -14.2493   23.8220 N   0  0  0  0  0  0  0  0  0  0  0  0
    8.5681  -14.9830   25.9129 C   0  0  0  0  0  0  0  0  0  0  0  0
    7.8399  -15.9940   26.0291 O   0  0  0  0  0  0  0  0  0  0  0  0
    9.8199  -14.9641   26.5675 N   0  0  0  0  0  0  0  0  0  0  0  0
   10.2275  -16.0980   27.3578 C   0  0  1  0  0  0  0  0  0  0  0  0
   11.4964  -16.7340   26.8248 C   0  0  0  0  0  0  0  0  0  0  0  0
   11.7323  -16.2003   25.1105 S   0  0  0  0  0  0  0  0  0  0  0  0
   10.4222  -15.7117   28.7792 C   0  0  0  0  0  0  0  0  0  0  0  0
   10.7137  -16.5923   29.6360 O   0  0  0  0  0  0  0  0  0  0  0  0
   10.2875  -14.3908   29.1793 O   0  0  0  0  0  0  0  0  0  0  0  0
  2  1  1  6
  2  4  1  0
  2  3  1  0
  4  6  1  0
  4  5  1  6
  6  7  2  0
  8  9  1  0
  9 10  1  0
 10 11  1  1
 10 12  1  0
 12 14  1  0
 12 13  1  6
 13  6  1  0
 14 15  2  0
 16 17  1  0
 16 14  1  0
 17 20  1  0
 17 18  1  6
 19 18  1  0
 20 21  2  0
 20 22  1  0
M  END
$$$$
