TIC.pdb
     RDKit          3D

 22 21  0  0  1  0  0  0  0  0999 V2000
    6.2497  -16.6190   20.1625 C   0  0  0  0  0  0  0  0  0  0  0  0
    6.8877  -16.2726   21.4733 C   0  0  1  0  0  0  0  0  0  0  0  0
    7.7864  -17.2350   21.9208 O   0  0  0  0  0  0  0  0  0  0  0  0
    7.5660  -14.9211   21.4633 C   0  0  2  0  0  0  0  0  0  0  0  0
    8.5903  -14.9165   20.4303 N   0  0  0  0  0  0  0  0  0  0  0  0
    8.1925  -14.5597   22.7386 C   0  0  0  0  0  0  0  0  0  0  0  0
    9.4425  -14.6864   22.8949 O   0  0  0  0  0  0  0  0  0  0  0  0
    5.5401  -11.1695   26.1854 C   0  0  0  0  0  0  0  0  0  0  0  0
    6.6140  -11.7816   25.2955 C   0  0  0  0  0  0  0  0  0  0  0  0
    7.0891  -13.0510   25.9937 C   0  0  2  0  0  0  0  0  0  0  0  0
    7.7366  -12.5826   27.2995 C   0  0  0  0  0  0  0  0  0  0  0  0
    8.1106  -13.7854   25.1457 C   0  0  2  0  0  0  0  0  0  0  0  0
    7.4976  -14.0556   23.8724 N   0  0  0  0  0  0  0  0  0  0  0  0
    8.5200  -14.9935   25.8652 C   0  0  0  0  0  0  0  0  0  0  0  0
    9.0784  -14.8779   26.9791 O   0  0  0  0  0  0  0  0  0  0  0  0
    8.3041  -16.2873   25.3405 N   0  0  0  0  0  0  0  0  0  0  0  0
    8.6848  -17.4421   26.1136 C   0  0  1  0  0  0  0  0  0  0  0  0
    8.1217  -18.7242   25.5326 C   0  0  0  0  0  0  0  0  0  0  0  0
    6.3335  -18.5268   25.3263 S   0  0  0  0  0  0  0  0  0  0  0  0
   10.1633  -17.5481   26.2162 C   0  0  0  0  0  0  0  0  0  0  0  0
   10.8941  -16.6392   25.7321 O   0  0  0  0  0  0  0  0  0  0  0  0
   10.7540  -18.6369   26.8395 O   0  0  0  0  0  0  0  0  0  0  0  0
  2  1  1  6
  2  4  1  0
  2  3  1  0
  4  6  1  0
  4  5  1  6
  6  7  2  0
  8  9  1  0
  9 10  1  0
 10 11  1  1
 10 12  1  0
 12 14  1  0
 12 13  1  6
 13  6  1  0
 14 15  2  0
 16 17  1  0
 16 14  1  0
 17 20  1  0
 17 18  1  6
 19 18  1  0
 20 21  2  0
 20 22  1  0
M  END
$$$$
