TIC.pdb
     RDKit          3D

 22 21  0  0  1  0  0  0  0  0999 V2000
    7.6194  -17.7668   20.3126 C   0  0  0  0  0  0  0  0  0  0  0  0
    7.9945  -17.1170   21.6096 C   0  0  1  0  0  0  0  0  0  0  0  0
    8.9297  -17.8426   22.3399 O   0  0  0  0  0  0  0  0  0  0  0  0
    8.4849  -15.6965   21.4408 C   0  0  2  0  0  0  0  0  0  0  0  0
    9.6494  -15.7014   20.5689 N   0  0  0  0  0  0  0  0  0  0  0  0
    8.8508  -15.0391   22.6990 C   0  0  0  0  0  0  0  0  0  0  0  0
   10.0635  -14.9750   23.0572 O   0  0  0  0  0  0  0  0  0  0  0  0
    6.2414  -11.5046   27.0401 C   0  0  0  0  0  0  0  0  0  0  0  0
    7.4582  -12.3419   26.6685 C   0  0  0  0  0  0  0  0  0  0  0  0
    7.1334  -13.0203   25.3422 C   0  0  2  0  0  0  0  0  0  0  0  0
    5.9050  -13.8915   25.6175 C   0  0  0  0  0  0  0  0  0  0  0  0
    8.2889  -13.8888   24.8811 C   0  0  2  0  0  0  0  0  0  0  0  0
    7.9301  -14.4368   23.6000 N   0  0  0  0  0  0  0  0  0  0  0  0
    8.5336  -14.9074   25.9045 C   0  0  0  0  0  0  0  0  0  0  0  0
    8.7251  -14.5469   27.0875 O   0  0  0  0  0  0  0  0  0  0  0  0
    8.5603  -16.2861   25.5978 N   0  0  0  0  0  0  0  0  0  0  0  0
    8.8819  -17.2392   26.6296 C   0  0  1  0  0  0  0  0  0  0  0  0
    8.2622  -18.5965   26.3610 C   0  0  0  0  0  0  0  0  0  0  0  0
    6.4788  -18.3808   26.1328 S   0  0  0  0  0  0  0  0  0  0  0  0
   10.3531  -17.3833   26.7792 C   0  0  0  0  0  0  0  0  0  0  0  0
   11.1288  -16.7006   26.0533 O   0  0  0  0  0  0  0  0  0  0  0  0
   10.8881  -18.2615   27.7095 O   0  0  0  0  0  0  0  0  0  0  0  0
  2  1  1  6
  2  4  1  0
  2  3  1  0
  4  6  1  0
  4  5  1  6
  6  7  2  0
  8  9  1  0
  9 10  1  0
 10 11  1  1
 10 12  1  0
 12 14  1  0
 12 13  1  6
 13  6  1  0
 14 15  2  0
 16 17  1  0
 16 14  1  0
 17 20  1  0
 17 18  1  6
 19 18  1  0
 20 21  2  0
 20 22  1  0
M  END
$$$$
