TIC.pdb
     RDKit          3D

 22 21  0  0  1  0  0  0  0  0999 V2000
    7.5853  -17.9827   20.3075 C   0  0  0  0  0  0  0  0  0  0  0  0
    8.0698  -17.3936   21.5972 C   0  0  1  0  0  0  0  0  0  0  0  0
    9.1157  -18.1081   22.1716 O   0  0  0  0  0  0  0  0  0  0  0  0
    8.4666  -15.9397   21.4726 C   0  0  2  0  0  0  0  0  0  0  0  0
    9.5432  -15.8276   20.5007 N   0  0  0  0  0  0  0  0  0  0  0  0
    8.9132  -15.3342   22.7309 C   0  0  0  0  0  0  0  0  0  0  0  0
   10.1387  -15.3509   23.0482 O   0  0  0  0  0  0  0  0  0  0  0  0
    6.7315  -11.5049   27.0322 C   0  0  0  0  0  0  0  0  0  0  0  0
    7.8127  -12.5313   26.7202 C   0  0  0  0  0  0  0  0  0  0  0  0
    7.4044  -13.2147   25.4199 C   0  0  2  0  0  0  0  0  0  0  0  0
    6.1660  -14.0459   25.7651 C   0  0  0  0  0  0  0  0  0  0  0  0
    8.5104  -14.1222   24.9147 C   0  0  2  0  0  0  0  0  0  0  0  0
    8.0610  -14.6986   23.6754 N   0  0  0  0  0  0  0  0  0  0  0  0
    8.7971  -15.1162   25.9513 C   0  0  0  0  0  0  0  0  0  0  0  0
    7.9115  -15.9442   26.2613 O   0  0  0  0  0  0  0  0  0  0  0  0
   10.0439  -15.1696   26.6135 N   0  0  0  0  0  0  0  0  0  0  0  0
   10.2780  -16.1833   27.6105 C   0  0  1  0  0  0  0  0  0  0  0  0
   11.5445  -16.9693   27.3336 C   0  0  0  0  0  0  0  0  0  0  0  0
   11.6623  -17.2630   25.5506 S   0  0  0  0  0  0  0  0  0  0  0  0
   10.3489  -15.5853   28.9688 C   0  0  0  0  0  0  0  0  0  0  0  0
   10.3231  -14.3302   29.1055 O   0  0  0  0  0  0  0  0  0  0  0  0
   10.4435  -16.3909   30.0935 O   0  0  0  0  0  0  0  0  0  0  0  0
  2  1  1  6
  2  4  1  0
  2  3  1  0
  4  6  1  0
  4  5  1  6
  6  7  2  0
  8  9  1  0
  9 10  1  0
 10 11  1  1
 10 12  1  0
 12 14  1  0
 12 13  1  6
 13  6  1  0
 14 15  2  0
 16 17  1  0
 16 14  1  0
 17 20  1  0
 17 18  1  6
 19 18  1  0
 20 21  2  0
 20 22  1  0
M  END
$$$$
