TIC.pdb
     RDKit          3D

 22 21  0  0  1  0  0  0  0  0999 V2000
    6.0675  -16.8176   19.8414 C   0  0  0  0  0  0  0  0  0  0  0  0
    6.9028  -16.5731   21.0611 C   0  0  1  0  0  0  0  0  0  0  0  0
    8.0139  -17.4054   21.1446 O   0  0  0  0  0  0  0  0  0  0  0  0
    7.3449  -15.1335   21.1978 C   0  0  2  0  0  0  0  0  0  0  0  0
    8.1837  -14.7889   20.0602 N   0  0  0  0  0  0  0  0  0  0  0  0
    8.0937  -14.8544   22.4270 C   0  0  0  0  0  0  0  0  0  0  0  0
    9.3584  -14.9137   22.4319 O   0  0  0  0  0  0  0  0  0  0  0  0
    5.8086  -11.7435   26.3468 C   0  0  0  0  0  0  0  0  0  0  0  0
    6.7907  -12.2898   25.3188 C   0  0  0  0  0  0  0  0  0  0  0  0
    7.3155  -13.6093   25.8739 C   0  0  2  0  0  0  0  0  0  0  0  0
    8.0798  -13.2426   27.1487 C   0  0  0  0  0  0  0  0  0  0  0  0
    8.2521  -14.2783   24.8852 C   0  0  2  0  0  0  0  0  0  0  0  0
    7.5079  -14.5064   23.6752 N   0  0  0  0  0  0  0  0  0  0  0  0
    8.7631  -15.5067   25.4973 C   0  0  0  0  0  0  0  0  0  0  0  0
    7.9537  -16.3172   26.0012 O   0  0  0  0  0  0  0  0  0  0  0  0
   10.1432  -15.8060   25.5367 N   0  0  0  0  0  0  0  0  0  0  0  0
   10.5851  -17.0557   26.1016 C   0  0  1  0  0  0  0  0  0  0  0  0
   12.0046  -17.3936   25.6899 C   0  0  0  0  0  0  0  0  0  0  0  0
   12.4809  -18.9487   26.4863 S   0  0  0  0  0  0  0  0  0  0  0  0
   10.4879  -17.0319   27.5840 C   0  0  0  0  0  0  0  0  0  0  0  0
    9.9876  -18.0158   28.1973 O   0  0  0  0  0  0  0  0  0  0  0  0
   10.9414  -15.9385   28.3063 O   0  0  0  0  0  0  0  0  0  0  0  0
  2  1  1  6
  2  4  1  0
  2  3  1  0
  4  6  1  0
  4  5  1  6
  6  7  2  0
  8  9  1  0
  9 10  1  0
 10 11  1  1
 10 12  1  0
 12 14  1  0
 12 13  1  6
 13  6  1  0
 14 15  2  0
 16 17  1  0
 16 14  1  0
 17 20  1  0
 17 18  1  1
 19 18  1  0
 20 21  2  0
 20 22  1  0
M  END
$$$$
