TIC.pdb
     RDKit          3D

 22 21  0  0  1  0  0  0  0  0999 V2000
    8.1719  -19.2147   22.1928 C   0  0  0  0  0  0  0  0  0  0  0  0
    8.5706  -17.9638   22.9150 C   0  0  1  0  0  0  0  0  0  0  0  0
    9.9425  -17.8566   23.1165 O   0  0  0  0  0  0  0  0  0  0  0  0
    8.0638  -16.7060   22.2457 C   0  0  2  0  0  0  0  0  0  0  0  0
    8.6201  -16.6303   20.9037 N   0  0  0  0  0  0  0  0  0  0  0  0
    8.4061  -15.4721   22.9596 C   0  0  0  0  0  0  0  0  0  0  0  0
    9.4835  -14.8606   22.6979 O   0  0  0  0  0  0  0  0  0  0  0  0
    5.6537  -11.3743   26.6649 C   0  0  0  0  0  0  0  0  0  0  0  0
    6.9718  -11.8104   26.0386 C   0  0  0  0  0  0  0  0  0  0  0  0
    6.6873  -13.0982   25.2735 C   0  0  2  0  0  0  0  0  0  0  0  0
    6.1269  -14.0754   26.3102 C   0  0  0  0  0  0  0  0  0  0  0  0
    7.9599  -13.6612   24.6689 C   0  0  2  0  0  0  0  0  0  0  0  0
    7.6056  -14.8659   23.9666 N   0  0  0  0  0  0  0  0  0  0  0  0
    8.9244  -13.8770   25.7496 C   0  0  0  0  0  0  0  0  0  0  0  0
    9.3287  -12.8934   26.4091 O   0  0  0  0  0  0  0  0  0  0  0  0
    9.4134  -15.1627   26.0716 N   0  0  0  0  0  0  0  0  0  0  0  0
   10.2765  -15.3312   27.2130 C   0  0  1  0  0  0  0  0  0  0  0  0
    9.6285  -14.8379   28.4917 C   0  0  0  0  0  0  0  0  0  0  0  0
   10.7734  -15.1232   29.8653 S   0  0  0  0  0  0  0  0  0  0  0  0
   10.6744  -16.7538   27.3720 C   0  0  0  0  0  0  0  0  0  0  0  0
    9.9469  -17.6677   26.8922 O   0  0  0  0  0  0  0  0  0  0  0  0
   11.8393  -17.0930   28.0436 O   0  0  0  0  0  0  0  0  0  0  0  0
  2  1  1  6
  2  4  1  0
  2  3  1  0
  4  6  1  0
  4  5  1  6
  6  7  2  0
  8  9  1  0
  9 10  1  0
 10 11  1  1
 10 12  1  0
 12 14  1  0
 12 13  1  1
 13  6  1  0
 14 15  2  0
 16 17  1  0
 16 14  1  0
 17 20  1  0
 17 18  1  1
 19 18  1  0
 20 21  2  0
 20 22  1  0
M  END
$$$$
