TIC.pdb
     RDKit          3D

 22 21  0  0  1  0  0  0  0  0999 V2000
    6.4432  -17.1014   19.2889 C   0  0  0  0  0  0  0  0  0  0  0  0
    6.9698  -16.8254   20.6643 C   0  0  1  0  0  0  0  0  0  0  0  0
    7.7524  -17.8567   21.1725 O   0  0  0  0  0  0  0  0  0  0  0  0
    7.7359  -15.5248   20.7556 C   0  0  2  0  0  0  0  0  0  0  0  0
    8.8096  -15.5414   19.7742 N   0  0  0  0  0  0  0  0  0  0  0  0
    8.3189  -15.2683   22.0761 C   0  0  0  0  0  0  0  0  0  0  0  0
    9.4831  -15.6828   22.3518 O   0  0  0  0  0  0  0  0  0  0  0  0
    7.1736  -11.7510   27.0158 C   0  0  0  0  0  0  0  0  0  0  0  0
    8.0363  -12.8706   26.4483 C   0  0  0  0  0  0  0  0  0  0  0  0
    7.4389  -13.2397   25.0951 C   0  0  2  0  0  0  0  0  0  0  0  0
    6.0258  -13.7464   25.3954 C   0  0  0  0  0  0  0  0  0  0  0  0
    8.2485  -14.3350   24.4264 C   0  0  2  0  0  0  0  0  0  0  0  0
    7.6715  -14.5643   23.1285 N   0  0  0  0  0  0  0  0  0  0  0  0
    8.2260  -15.5155   25.2927 C   0  0  0  0  0  0  0  0  0  0  0  0
    7.2211  -16.2611   25.2783 O   0  0  0  0  0  0  0  0  0  0  0  0
    9.3046  -15.8394   26.1456 N   0  0  0  0  0  0  0  0  0  0  0  0
    9.6485  -17.2213   26.3656 C   0  0  1  0  0  0  0  0  0  0  0  0
   10.1780  -17.8811   25.1075 C   0  0  0  0  0  0  0  0  0  0  0  0
   10.6688  -19.5773   25.5091 S   0  0  0  0  0  0  0  0  0  0  0  0
   10.6488  -17.3521   27.4563 C   0  0  0  0  0  0  0  0  0  0  0  0
   10.9743  -18.4974   27.8771 O   0  0  0  0  0  0  0  0  0  0  0  0
   11.2325  -16.2281   28.0210 O   0  0  0  0  0  0  0  0  0  0  0  0
  2  1  1  6
  2  4  1  0
  2  3  1  0
  4  6  1  0
  4  5  1  6
  6  7  2  0
  8  9  1  0
  9 10  1  0
 10 11  1  1
 10 12  1  0
 12 14  1  0
 12 13  1  6
 13  6  1  0
 14 15  2  0
 16 17  1  0
 16 14  1  0
 17 20  1  0
 17 18  1  6
 19 18  1  0
 20 21  2  0
 20 22  1  0
M  END
$$$$
