TIC.pdb
     RDKit          3D

 22 21  0  0  1  0  0  0  0  0999 V2000
    6.4388  -15.7398   18.8427 C   0  0  0  0  0  0  0  0  0  0  0  0
    7.1670  -15.5542   20.1391 C   0  0  1  0  0  0  0  0  0  0  0  0
    8.4327  -16.1305   20.1483 O   0  0  0  0  0  0  0  0  0  0  0  0
    7.2745  -14.1046   20.5560 C   0  0  2  0  0  0  0  0  0  0  0  0
    7.9790  -13.3677   19.5182 N   0  0  0  0  0  0  0  0  0  0  0  0
    7.9766  -13.9008   21.8268 C   0  0  0  0  0  0  0  0  0  0  0  0
    9.2370  -13.7827   21.8486 O   0  0  0  0  0  0  0  0  0  0  0  0
    7.0736  -11.9686   27.5352 C   0  0  0  0  0  0  0  0  0  0  0  0
    7.8858  -12.9526   26.7034 C   0  0  0  0  0  0  0  0  0  0  0  0
    7.1836  -13.0689   25.3551 C   0  0  2  0  0  0  0  0  0  0  0  0
    5.9070  -13.8695   25.6256 C   0  0  0  0  0  0  0  0  0  0  0  0
    8.0527  -13.8065   24.3538 C   0  0  2  0  0  0  0  0  0  0  0  0
    7.3477  -13.8188   23.0997 N   0  0  0  0  0  0  0  0  0  0  0  0
    8.3272  -15.1442   24.8829 C   0  0  0  0  0  0  0  0  0  0  0  0
    7.4054  -15.9901   24.9053 O   0  0  0  0  0  0  0  0  0  0  0  0
    9.6019  -15.5102   25.3697 N   0  0  0  0  0  0  0  0  0  0  0  0
    9.8196  -16.8469   25.8618 C   0  0  1  0  0  0  0  0  0  0  0  0
   11.0792  -17.4646   25.2871 C   0  0  0  0  0  0  0  0  0  0  0  0
   11.0414  -17.2805   23.4861 S   0  0  0  0  0  0  0  0  0  0  0  0
    9.8892  -16.8612   27.3459 C   0  0  0  0  0  0  0  0  0  0  0  0
    9.8850  -15.7729   27.9862 O   0  0  0  0  0  0  0  0  0  0  0  0
    9.9589  -18.0595   28.0404 O   0  0  0  0  0  0  0  0  0  0  0  0
  2  1  1  6
  2  4  1  0
  2  3  1  0
  4  6  1  0
  4  5  1  6
  6  7  2  0
  8  9  1  0
  9 10  1  0
 10 11  1  1
 10 12  1  0
 12 14  1  0
 12 13  1  6
 13  6  1  0
 14 15  2  0
 16 17  1  0
 16 14  1  0
 17 20  1  0
 17 18  1  6
 19 18  1  0
 20 21  2  0
 20 22  1  0
M  END
$$$$
