TIC.pdb
     RDKit          3D

 22 21  0  0  1  0  0  0  0  0999 V2000
    6.1657  -16.5964   19.6879 C   0  0  0  0  0  0  0  0  0  0  0  0
    6.9580  -16.3576   20.9371 C   0  0  1  0  0  0  0  0  0  0  0  0
    8.1070  -17.1371   21.0189 O   0  0  0  0  0  0  0  0  0  0  0  0
    7.3243  -14.9043   21.1377 C   0  0  2  0  0  0  0  0  0  0  0  0
    8.1641  -14.4736   20.0307 N   0  0  0  0  0  0  0  0  0  0  0  0
    8.0366  -14.6371   22.3909 C   0  0  0  0  0  0  0  0  0  0  0  0
    9.3015  -14.5845   22.4081 O   0  0  0  0  0  0  0  0  0  0  0  0
    5.8073  -11.5873   26.3056 C   0  0  0  0  0  0  0  0  0  0  0  0
    6.8109  -12.1728   25.3208 C   0  0  0  0  0  0  0  0  0  0  0  0
    7.1987  -13.5465   25.8567 C   0  0  2  0  0  0  0  0  0  0  0  0
    7.9272  -13.2808   27.1767 C   0  0  0  0  0  0  0  0  0  0  0  0
    8.1247  -14.2626   24.8914 C   0  0  2  0  0  0  0  0  0  0  0  0
    7.4134  -14.4204   23.6507 N   0  0  0  0  0  0  0  0  0  0  0  0
    8.5276  -15.5325   25.4995 C   0  0  0  0  0  0  0  0  0  0  0  0
    7.6482  -16.3754   25.7860 O   0  0  0  0  0  0  0  0  0  0  0  0
    9.8798  -15.8362   25.7734 N   0  0  0  0  0  0  0  0  0  0  0  0
   10.2254  -17.1293   26.3069 C   0  0  1  0  0  0  0  0  0  0  0  0
   11.5379  -17.6415   25.7469 C   0  0  0  0  0  0  0  0  0  0  0  0
   11.4619  -17.5653   23.9392 S   0  0  0  0  0  0  0  0  0  0  0  0
   10.2978  -17.0892   27.7904 C   0  0  0  0  0  0  0  0  0  0  0  0
   10.1102  -15.9993   28.4000 O   0  0  0  0  0  0  0  0  0  0  0  0
   10.5698  -18.2380   28.5178 O   0  0  0  0  0  0  0  0  0  0  0  0
  2  1  1  6
  2  4  1  0
  2  3  1  0
  4  6  1  0
  4  5  1  6
  6  7  2  0
  8  9  1  0
  9 10  1  0
 10 11  1  1
 10 12  1  0
 12 14  1  0
 12 13  1  6
 13  6  1  0
 14 15  2  0
 16 17  1  0
 16 14  1  0
 17 20  1  0
 17 18  1  6
 19 18  1  0
 20 21  2  0
 20 22  1  0
M  END
$$$$
