HQS.pdb
     RDKit          3D

 26 26  0  0  1  0  0  0  0  0999 V2000
   10.1729  -15.7611   17.2579 N   0  0  0  0  0  0  0  0  0  0  0  0
   10.7703  -14.8196   18.1514 C   0  0  1  0  0  0  0  0  0  0  0  0
    9.8268  -14.6178   19.3265 C   0  0  0  0  0  0  0  0  0  0  0  0
    8.6046  -13.9245   18.8594 C   0  0  0  0  0  0  0  0  0  0  0  0
    8.3310  -13.5671   17.5663 C   0  0  0  0  0  0  0  0  0  0  0  0
    7.1239  -12.9610   17.5666 N   0  0  0  0  0  0  0  0  0  0  0  0
    6.6378  -12.9280   18.8077 C   0  0  0  0  0  0  0  0  0  0  0  0
    7.5616  -13.5284   19.6096 N   0  0  0  0  0  0  0  0  0  0  0  0
   12.0633  -15.3015   18.7113 C   0  0  0  0  0  0  0  0  0  0  0  0
   12.2420  -16.5312   18.9036 O   0  0  0  0  0  0  0  0  0  0  0  0
   17.6848  -13.3282   17.5148 N   0  0  0  0  0  0  0  0  0  0  0  0
   16.5444  -13.7083   16.7612 C   0  0  0  0  0  0  0  0  0  0  0  0
   16.6025  -13.5460   15.5163 O   0  0  0  0  0  0  0  0  0  0  0  0
   15.3901  -14.2573   17.4746 C   0  0  0  0  0  0  0  0  0  0  0  0
   15.5752  -14.2950   18.9681 C   0  0  0  0  0  0  0  0  0  0  0  0
   14.3601  -14.9155   19.6295 C   0  0  2  0  0  0  0  0  0  0  0  0
   13.1312  -14.4283   19.0481 N   0  0  0  0  0  0  0  0  0  0  0  0
   14.3869  -14.7286   21.1045 C   0  0  0  0  0  0  0  0  0  0  0  0
   13.6961  -13.8355   21.6570 O   0  0  0  0  0  0  0  0  0  0  0  0
   12.7333  -17.0942   24.1515 O   0  0  0  0  0  0  0  0  0  0  0  0
   13.3098  -16.6145   22.9867 C   0  0  0  0  0  0  0  0  0  0  0  0
   14.6536  -15.9874   23.2286 C   0  0  2  0  0  0  0  0  0  0  0  0
   15.1848  -15.5394   21.9568 N   0  0  0  0  0  0  0  0  0  0  0  0
   15.5903  -16.9133   23.9153 C   0  0  0  0  0  0  0  0  0  0  0  0
   15.6166  -16.9021   25.3022 O   0  0  0  0  0  0  0  0  0  0  0  0
   16.3445  -17.6902   23.3106 O   0  0  0  0  0  0  0  0  0  0  0  0
  2  1  1  6
  3  2  1  0
  4  3  1  0
  5  4  2  0
  6  5  1  0
  7  6  1  0
  7  8  2  0
  8  4  1  0
  9  2  1  0
  9 10  2  0
 12 11  1  0
 13 12  2  0
 14 12  1  0
 16 15  1  6
 15 14  1  0
 17 16  1  0
 17  9  1  0
 18 19  2  0
 18 16  1  0
 20 21  1  0
 22 21  1  6
 22 24  1  0
 22 23  1  0
 23 18  1  0
 24 25  1  0
 26 24  2  0
M  END
$$$$
