HQS.pdb
     RDKit          3D

 26 26  0  0  1  0  0  0  0  0999 V2000
    7.2196  -17.0516   19.1573 N   0  0  0  0  0  0  0  0  0  0  0  0
    8.4817  -16.6973   19.7260 C   0  0  1  0  0  0  0  0  0  0  0  0
    8.2518  -15.5761   20.7268 C   0  0  0  0  0  0  0  0  0  0  0  0
    7.9616  -14.3207   19.9972 C   0  0  0  0  0  0  0  0  0  0  0  0
    7.8261  -14.1956   18.6406 C   0  0  0  0  0  0  0  0  0  0  0  0
    7.5669  -12.8951   18.3835 N   0  0  0  0  0  0  0  0  0  0  0  0
    7.5362  -12.2086   19.5261 C   0  0  0  0  0  0  0  0  0  0  0  0
    7.7822  -13.0986   20.5282 N   0  0  0  0  0  0  0  0  0  0  0  0
    9.1101  -17.8224   20.4721 C   0  0  0  0  0  0  0  0  0  0  0  0
    8.4147  -18.5212   21.2525 O   0  0  0  0  0  0  0  0  0  0  0  0
   14.5165  -20.9717   19.2339 N   0  0  0  0  0  0  0  0  0  0  0  0
   14.0874  -21.5159   20.4719 C   0  0  0  0  0  0  0  0  0  0  0  0
   14.7609  -22.4674   20.9415 O   0  0  0  0  0  0  0  0  0  0  0  0
   12.9035  -20.9404   21.1121 C   0  0  0  0  0  0  0  0  0  0  0  0
   12.2958  -19.8059   20.3313 C   0  0  0  0  0  0  0  0  0  0  0  0
   11.0586  -19.2886   21.0389 C   0  0  2  0  0  0  0  0  0  0  0  0
   10.4843  -18.1579   20.3481 N   0  0  0  0  0  0  0  0  0  0  0  0
   11.3354  -18.9823   22.4675 C   0  0  0  0  0  0  0  0  0  0  0  0
   11.7571  -17.8510   22.8175 O   0  0  0  0  0  0  0  0  0  0  0  0
    9.2855  -18.8805   25.5152 O   0  0  0  0  0  0  0  0  0  0  0  0
   10.2706  -19.8312   25.7275 C   0  0  0  0  0  0  0  0  0  0  0  0
   11.4813  -19.6038   24.8675 C   0  0  2  0  0  0  0  0  0  0  0  0
   11.1404  -19.9400   23.4996 N   0  0  0  0  0  0  0  0  0  0  0  0
   12.6597  -20.3743   25.3410 C   0  0  0  0  0  0  0  0  0  0  0  0
   13.1081  -20.1483   26.6342 O   0  0  0  0  0  0  0  0  0  0  0  0
   13.2568  -21.2042   24.6390 O   0  0  0  0  0  0  0  0  0  0  0  0
  2  1  1  1
  3  2  1  0
  4  3  1  0
  5  4  2  0
  6  5  1  0
  7  6  1  0
  7  8  2  0
  8  4  1  0
  9  2  1  0
  9 10  2  0
 12 11  1  0
 13 12  2  0
 14 12  1  0
 16 15  1  6
 15 14  1  0
 17 16  1  0
 17  9  1  0
 18 19  2  0
 18 16  1  0
 20 21  1  0
 22 21  1  1
 22 24  1  0
 22 23  1  0
 23 18  1  0
 24 25  1  0
 26 24  2  0
M  END
$$$$
