HQS.pdb
     RDKit          3D

 26 26  0  0  1  0  0  0  0  0999 V2000
   11.8553  -15.3928   17.5380 N   0  0  0  0  0  0  0  0  0  0  0  0
   12.5177  -15.5229   18.7974 C   0  0  1  0  0  0  0  0  0  0  0  0
   13.0307  -14.1513   19.2063 C   0  0  0  0  0  0  0  0  0  0  0  0
   14.4470  -14.0161   18.7960 C   0  0  0  0  0  0  0  0  0  0  0  0
   15.2010  -14.9843   18.1887 C   0  0  0  0  0  0  0  0  0  0  0  0
   16.4301  -14.4630   17.9837 N   0  0  0  0  0  0  0  0  0  0  0  0
   16.4689  -13.2106   18.4393 C   0  0  0  0  0  0  0  0  0  0  0  0
   15.2333  -12.9357   18.9441 N   0  0  0  0  0  0  0  0  0  0  0  0
   11.6054  -15.9849   19.8798 C   0  0  0  0  0  0  0  0  0  0  0  0
   10.3750  -15.7349   19.8100 O   0  0  0  0  0  0  0  0  0  0  0  0
    9.3007  -21.8073   23.2096 N   0  0  0  0  0  0  0  0  0  0  0  0
   10.2341  -21.0509   22.4549 C   0  0  0  0  0  0  0  0  0  0  0  0
   11.0220  -21.6911   21.7141 O   0  0  0  0  0  0  0  0  0  0  0  0
   10.2179  -19.5932   22.5876 C   0  0  0  0  0  0  0  0  0  0  0  0
   11.1406  -18.8966   21.6233 C   0  0  0  0  0  0  0  0  0  0  0  0
   11.1448  -17.4041   21.8902 C   0  0  2  0  0  0  0  0  0  0  0  0
   12.0586  -16.7096   21.0137 N   0  0  0  0  0  0  0  0  0  0  0  0
   11.4168  -17.1067   23.3216 C   0  0  0  0  0  0  0  0  0  0  0  0
   12.5927  -17.0770   23.7649 O   0  0  0  0  0  0  0  0  0  0  0  0
    9.1910  -14.7433   25.6459 O   0  0  0  0  0  0  0  0  0  0  0  0
    9.5315  -15.9196   26.2934 C   0  0  0  0  0  0  0  0  0  0  0  0
   10.6967  -16.6133   25.6465 C   0  0  2  0  0  0  0  0  0  0  0  0
   10.3752  -16.8438   24.2523 N   0  0  0  0  0  0  0  0  0  0  0  0
   11.0539  -17.8773   26.3402 C   0  0  0  0  0  0  0  0  0  0  0  0
   11.3585  -17.8141   27.6921 O   0  0  0  0  0  0  0  0  0  0  0  0
   11.0921  -18.9784   25.7709 O   0  0  0  0  0  0  0  0  0  0  0  0
  2  1  1  6
  3  2  1  0
  4  3  1  0
  5  4  2  0
  6  5  1  0
  7  6  1  0
  7  8  2  0
  8  4  1  0
  9  2  1  0
  9 10  2  0
 12 11  1  0
 13 12  2  0
 14 12  1  0
 16 15  1  1
 15 14  1  0
 17 16  1  0
 17  9  1  0
 18 19  2  0
 18 16  1  0
 20 21  1  0
 22 21  1  1
 22 24  1  0
 22 23  1  0
 23 18  1  0
 24 25  1  0
 26 24  2  0
M  END
$$$$
