HQS.pdb
     RDKit          3D

 26 26  0  0  1  0  0  0  0  0999 V2000
   11.7680  -15.3001   17.4524 N   0  0  0  0  0  0  0  0  0  0  0  0
   11.3968  -15.1264   18.8213 C   0  0  1  0  0  0  0  0  0  0  0  0
    9.9236  -15.4761   18.9602 C   0  0  0  0  0  0  0  0  0  0  0  0
    9.1347  -14.2296   19.0880 C   0  0  0  0  0  0  0  0  0  0  0  0
    9.6411  -12.9575   19.0884 C   0  0  0  0  0  0  0  0  0  0  0  0
    8.5966  -12.1121   19.2256 N   0  0  0  0  0  0  0  0  0  0  0  0
    7.4628  -12.8085   19.3102 C   0  0  0  0  0  0  0  0  0  0  0  0
    7.8012  -14.1257   19.2242 N   0  0  0  0  0  0  0  0  0  0  0  0
   12.1453  -16.0309   19.7373 C   0  0  0  0  0  0  0  0  0  0  0  0
   12.8175  -16.9828   19.2649 O   0  0  0  0  0  0  0  0  0  0  0  0
   17.0029  -16.2483   21.0165 N   0  0  0  0  0  0  0  0  0  0  0  0
   16.2804  -15.0985   21.4276 C   0  0  0  0  0  0  0  0  0  0  0  0
   16.8968  -14.0034   21.4192 O   0  0  0  0  0  0  0  0  0  0  0  0
   14.8823  -15.2619   21.8294 C   0  0  0  0  0  0  0  0  0  0  0  0
   14.3876  -16.6782   21.7038 C   0  0  0  0  0  0  0  0  0  0  0  0
   12.9049  -16.7429   22.0140 C   0  0  2  0  0  0  0  0  0  0  0  0
   12.1420  -15.8743   21.1486 N   0  0  0  0  0  0  0  0  0  0  0  0
   12.6358  -16.4684   23.4505 C   0  0  0  0  0  0  0  0  0  0  0  0
   13.1751  -15.4956   24.0363 O   0  0  0  0  0  0  0  0  0  0  0  0
    9.3525  -16.6347   24.6465 O   0  0  0  0  0  0  0  0  0  0  0  0
   10.0413  -16.8449   25.8300 C   0  0  0  0  0  0  0  0  0  0  0  0
   11.5248  -16.9524   25.6182 C   0  0  2  0  0  0  0  0  0  0  0  0
   11.7657  -17.2808   24.2274 N   0  0  0  0  0  0  0  0  0  0  0  0
   12.1520  -17.9439   26.5293 C   0  0  0  0  0  0  0  0  0  0  0  0
   12.9075  -18.9607   25.9638 O   0  0  0  0  0  0  0  0  0  0  0  0
   12.0325  -17.9049   27.7631 O   0  0  0  0  0  0  0  0  0  0  0  0
  2  1  1  6
  3  2  1  0
  4  3  1  0
  5  4  2  0
  6  5  1  0
  7  6  1  0
  7  8  2  0
  8  4  1  0
  9  2  1  0
  9 10  2  0
 12 11  1  0
 13 12  2  0
 14 12  1  0
 16 15  1  1
 15 14  1  0
 17 16  1  0
 17  9  1  0
 18 19  2  0
 18 16  1  0
 20 21  1  0
 22 21  1  6
 22 24  1  0
 22 23  1  0
 23 18  1  0
 24 25  1  0
 26 24  2  0
M  END
$$$$
