HQS.pdb
     RDKit          3D

 26 26  0  0  1  0  0  0  0  0999 V2000
    9.0567  -16.7476   18.6880 N   0  0  0  0  0  0  0  0  0  0  0  0
    9.3696  -15.9116   19.8037 C   0  0  1  0  0  0  0  0  0  0  0  0
    8.1464  -15.0652   20.1187 C   0  0  0  0  0  0  0  0  0  0  0  0
    7.8499  -14.1853   18.9653 C   0  0  0  0  0  0  0  0  0  0  0  0
    8.3459  -12.9239   18.7717 C   0  0  0  0  0  0  0  0  0  0  0  0
    7.8346  -12.4682   17.6075 N   0  0  0  0  0  0  0  0  0  0  0  0
    7.0414  -13.3961   17.0712 C   0  0  0  0  0  0  0  0  0  0  0  0
    7.0532  -14.4632   17.9186 N   0  0  0  0  0  0  0  0  0  0  0  0
    9.6859  -16.6906   21.0327 C   0  0  0  0  0  0  0  0  0  0  0  0
    8.8210  -17.4581   21.5267 O   0  0  0  0  0  0  0  0  0  0  0  0
   15.1325  -19.0319   22.3818 N   0  0  0  0  0  0  0  0  0  0  0  0
   14.1229  -19.4647   21.4838 C   0  0  0  0  0  0  0  0  0  0  0  0
   14.4621  -20.2880   20.5969 O   0  0  0  0  0  0  0  0  0  0  0  0
   12.7700  -18.9305   21.6479 C   0  0  0  0  0  0  0  0  0  0  0  0
   12.6415  -17.9783   22.8068 C   0  0  0  0  0  0  0  0  0  0  0  0
   11.2374  -17.4087   22.8616 C   0  0  2  0  0  0  0  0  0  0  0  0
   10.9404  -16.6130   21.6936 N   0  0  0  0  0  0  0  0  0  0  0  0
   11.0045  -16.6523   24.1205 C   0  0  0  0  0  0  0  0  0  0  0  0
   11.6364  -15.5939   24.3668 O   0  0  0  0  0  0  0  0  0  0  0  0
    7.6218  -16.9937   26.3089 O   0  0  0  0  0  0  0  0  0  0  0  0
    8.4944  -15.9338   26.4937 C   0  0  0  0  0  0  0  0  0  0  0  0
    9.9322  -16.3415   26.3388 C   0  0  2  0  0  0  0  0  0  0  0  0
   10.0671  -17.0805   25.0995 N   0  0  0  0  0  0  0  0  0  0  0  0
   10.4210  -17.1290   27.4996 C   0  0  0  0  0  0  0  0  0  0  0  0
   10.4708  -16.5027   28.7364 O   0  0  0  0  0  0  0  0  0  0  0  0
   10.7841  -18.3118   27.4148 O   0  0  0  0  0  0  0  0  0  0  0  0
  2  1  1  6
  3  2  1  0
  4  3  1  0
  5  4  2  0
  6  5  1  0
  7  6  1  0
  7  8  2  0
  8  4  1  0
  9  2  1  0
  9 10  2  0
 12 11  1  0
 13 12  2  0
 14 12  1  0
 16 15  1  6
 15 14  1  0
 17 16  1  0
 17  9  1  0
 18 19  2  0
 18 16  1  0
 20 21  1  0
 22 21  1  1
 22 24  1  0
 22 23  1  0
 23 18  1  0
 24 25  1  0
 26 24  2  0
M  END
$$$$
