HQS.pdb
     RDKit          3D

 26 26  0  0  1  0  0  0  0  0999 V2000
    9.1038  -17.0225   17.6507 N   0  0  0  0  0  0  0  0  0  0  0  0
    9.1861  -16.1746   18.7979 C   0  0  1  0  0  0  0  0  0  0  0  0
    7.8851  -15.3949   18.9043 C   0  0  0  0  0  0  0  0  0  0  0  0
    7.7925  -14.4408   17.7757 C   0  0  0  0  0  0  0  0  0  0  0  0
    8.2908  -13.1657   17.7618 C   0  0  0  0  0  0  0  0  0  0  0  0
    7.9978  -12.6357   16.5544 N   0  0  0  0  0  0  0  0  0  0  0  0
    7.3379  -13.5308   15.8189 C   0  0  0  0  0  0  0  0  0  0  0  0
    7.2119  -14.6528   16.5818 N   0  0  0  0  0  0  0  0  0  0  0  0
    9.3380  -16.9397   20.0664 C   0  0  0  0  0  0  0  0  0  0  0  0
    8.5331  -17.8668   20.3379 O   0  0  0  0  0  0  0  0  0  0  0  0
   14.5978  -18.9421   22.5528 N   0  0  0  0  0  0  0  0  0  0  0  0
   13.6164  -19.4779   23.4260 C   0  0  0  0  0  0  0  0  0  0  0  0
   14.0068  -20.3127   24.2805 O   0  0  0  0  0  0  0  0  0  0  0  0
   12.2313  -19.0286   23.2757 C   0  0  0  0  0  0  0  0  0  0  0  0
   12.0497  -18.0132   22.1792 C   0  0  0  0  0  0  0  0  0  0  0  0
   10.6092  -17.5418   22.1374 C   0  0  2  0  0  0  0  0  0  0  0  0
   10.3662  -16.6739   21.0090 N   0  0  0  0  0  0  0  0  0  0  0  0
   10.2054  -16.9078   23.4204 C   0  0  0  0  0  0  0  0  0  0  0  0
   10.5586  -15.7349   23.7029 O   0  0  0  0  0  0  0  0  0  0  0  0
    6.8504  -16.6638   24.7050 O   0  0  0  0  0  0  0  0  0  0  0  0
    7.5715  -17.0520   25.8223 C   0  0  0  0  0  0  0  0  0  0  0  0
    9.0546  -16.9209   25.6211 C   0  0  2  0  0  0  0  0  0  0  0  0
    9.4089  -17.5857   24.3830 N   0  0  0  0  0  0  0  0  0  0  0  0
    9.8273  -17.4593   26.7699 C   0  0  0  0  0  0  0  0  0  0  0  0
    9.6022  -16.9063   28.0220 O   0  0  0  0  0  0  0  0  0  0  0  0
   10.6581  -18.3737   26.6621 O   0  0  0  0  0  0  0  0  0  0  0  0
  2  1  1  6
  3  2  1  0
  4  3  1  0
  5  4  2  0
  6  5  1  0
  7  6  1  0
  7  8  2  0
  8  4  1  0
  9  2  1  0
  9 10  2  0
 12 11  1  0
 13 12  2  0
 14 12  1  0
 16 15  1  1
 15 14  1  0
 17 16  1  0
 17  9  1  0
 18 19  2  0
 18 16  1  0
 20 21  1  0
 22 21  1  1
 22 24  1  0
 22 23  1  0
 23 18  1  0
 24 25  1  0
 26 24  2  0
M  END
$$$$
