HQS.pdb
     RDKit          3D

 26 26  0  0  1  0  0  0  0  0999 V2000
    9.8962  -16.0379   17.8406 N   0  0  0  0  0  0  0  0  0  0  0  0
   10.6618  -14.8963   18.2308 C   0  0  1  0  0  0  0  0  0  0  0  0
   10.0348  -14.3129   19.4871 C   0  0  0  0  0  0  0  0  0  0  0  0
    8.7151  -13.7315   19.1508 C   0  0  0  0  0  0  0  0  0  0  0  0
    8.1475  -13.7002   17.9052 C   0  0  0  0  0  0  0  0  0  0  0  0
    6.9499  -13.0876   18.0276 N   0  0  0  0  0  0  0  0  0  0  0  0
    6.7519  -12.7376   19.2988 C   0  0  0  0  0  0  0  0  0  0  0  0
    7.8521  -13.1398   19.9949 N   0  0  0  0  0  0  0  0  0  0  0  0
   12.0709  -15.2395   18.5688 C   0  0  0  0  0  0  0  0  0  0  0  0
   12.3791  -16.4300   18.8310 O   0  0  0  0  0  0  0  0  0  0  0  0
   19.0682  -14.5790   17.2866 N   0  0  0  0  0  0  0  0  0  0  0  0
   17.6864  -14.3059   17.1163 C   0  0  0  0  0  0  0  0  0  0  0  0
   17.2591  -14.2366   15.9364 O   0  0  0  0  0  0  0  0  0  0  0  0
   16.8604  -14.1251   18.3111 C   0  0  0  0  0  0  0  0  0  0  0  0
   15.4292  -13.7774   17.9993 C   0  0  0  0  0  0  0  0  0  0  0  0
   14.4912  -14.6477   18.8127 C   0  0  2  0  0  0  0  0  0  0  0  0
   13.1108  -14.2735   18.6125 N   0  0  0  0  0  0  0  0  0  0  0  0
   14.8608  -14.6500   20.2531 C   0  0  0  0  0  0  0  0  0  0  0  0
   14.7654  -13.6069   20.9481 O   0  0  0  0  0  0  0  0  0  0  0  0
   14.9156  -17.9773   22.5404 O   0  0  0  0  0  0  0  0  0  0  0  0
   14.9286  -16.7084   23.0962 C   0  0  0  0  0  0  0  0  0  0  0  0
   15.7549  -15.7411   22.2969 C   0  0  2  0  0  0  0  0  0  0  0  0
   15.3354  -15.8167   20.9118 N   0  0  0  0  0  0  0  0  0  0  0  0
   17.2116  -15.9943   22.4403 C   0  0  0  0  0  0  0  0  0  0  0  0
   17.7726  -15.8697   23.7029 O   0  0  0  0  0  0  0  0  0  0  0  0
   17.9441  -16.3095   21.4905 O   0  0  0  0  0  0  0  0  0  0  0  0
  2  1  1  1
  3  2  1  0
  4  3  1  0
  5  4  2  0
  6  5  1  0
  7  6  1  0
  7  8  2  0
  8  4  1  0
  9  2  1  0
  9 10  2  0
 12 11  1  0
 13 12  2  0
 14 12  1  0
 16 15  1  6
 15 14  1  0
 17 16  1  0
 17  9  1  0
 18 19  2  0
 18 16  1  0
 20 21  1  0
 22 21  1  1
 22 24  1  0
 22 23  1  0
 23 18  1  0
 24 25  1  0
 26 24  2  0
M  END
$$$$
