HQS.pdb
     RDKit          3D

 26 26  0  0  1  0  0  0  0  0999 V2000
    8.1434  -16.1585   20.6436 N   0  0  0  0  0  0  0  0  0  0  0  0
    9.2151  -15.2163   20.7178 C   0  0  1  0  0  0  0  0  0  0  0  0
    8.7634  -13.9314   20.0422 C   0  0  0  0  0  0  0  0  0  0  0  0
    8.3014  -14.2368   18.6689 C   0  0  0  0  0  0  0  0  0  0  0  0
    8.2927  -15.4743   18.0833 C   0  0  0  0  0  0  0  0  0  0  0  0
    7.7997  -15.3218   16.8350 N   0  0  0  0  0  0  0  0  0  0  0  0
    7.5022  -14.0396   16.6228 C   0  0  0  0  0  0  0  0  0  0  0  0
    7.8156  -13.3672   17.7659 N   0  0  0  0  0  0  0  0  0  0  0  0
    9.5741  -14.8659   22.1199 C   0  0  0  0  0  0  0  0  0  0  0  0
    9.8782  -13.6808   22.4102 O   0  0  0  0  0  0  0  0  0  0  0  0
    6.6473  -13.2559   26.2458 N   0  0  0  0  0  0  0  0  0  0  0  0
    6.4494  -14.6393   26.0011 C   0  0  0  0  0  0  0  0  0  0  0  0
    5.3392  -15.1251   26.3341 O   0  0  0  0  0  0  0  0  0  0  0  0
    7.5379  -15.3997   25.3848 C   0  0  0  0  0  0  0  0  0  0  0  0
    8.7631  -14.5697   25.1089 C   0  0  0  0  0  0  0  0  0  0  0  0
    9.8661  -15.4402   24.5391 C   0  0  2  0  0  0  0  0  0  0  0  0
    9.5925  -15.8187   23.1726 N   0  0  0  0  0  0  0  0  0  0  0  0
   10.1261  -16.6244   25.4001 C   0  0  0  0  0  0  0  0  0  0  0  0
   11.2114  -16.7473   26.0223 O   0  0  0  0  0  0  0  0  0  0  0  0
   10.3401  -20.6312   23.8048 O   0  0  0  0  0  0  0  0  0  0  0  0
    9.9768  -19.3118   24.0203 C   0  0  0  0  0  0  0  0  0  0  0  0
    9.5924  -19.0493   25.4488 C   0  0  2  0  0  0  0  0  0  0  0  0
    9.1734  -17.6667   25.5631 N   0  0  0  0  0  0  0  0  0  0  0  0
   10.6936  -19.3656   26.3942 C   0  0  0  0  0  0  0  0  0  0  0  0
   10.6495  -20.5809   27.0617 O   0  0  0  0  0  0  0  0  0  0  0  0
   11.6437  -18.5990   26.6129 O   0  0  0  0  0  0  0  0  0  0  0  0
  2  1  1  1
  3  2  1  0
  4  3  1  0
  5  4  2  0
  6  5  1  0
  7  6  1  0
  7  8  2  0
  8  4  1  0
  9  2  1  0
  9 10  2  0
 12 11  1  0
 13 12  2  0
 14 12  1  0
 16 15  1  1
 15 14  1  0
 17 16  1  0
 17  9  1  0
 18 19  2  0
 18 16  1  0
 20 21  1  0
 22 21  1  6
 22 24  1  0
 22 23  1  0
 23 18  1  0
 24 25  1  0
 26 24  2  0
M  END
$$$$
