HQS.pdb
     RDKit          3D

 26 26  0  0  1  0  0  0  0  0999 V2000
   10.1945  -17.6590   16.9436 N   0  0  0  0  0  0  0  0  0  0  0  0
    9.5261  -16.8380   17.9034 C   0  0  1  0  0  0  0  0  0  0  0  0
    8.1033  -16.6073   17.4197 C   0  0  0  0  0  0  0  0  0  0  0  0
    7.9659  -15.2089   16.9525 C   0  0  0  0  0  0  0  0  0  0  0  0
    8.9685  -14.2778   16.9057 C   0  0  0  0  0  0  0  0  0  0  0  0
    8.4315  -13.1367   16.4218 N   0  0  0  0  0  0  0  0  0  0  0  0
    7.1361  -13.3227   16.1666 C   0  0  0  0  0  0  0  0  0  0  0  0
    6.8497  -14.6130   16.4979 N   0  0  0  0  0  0  0  0  0  0  0  0
    9.4298  -17.4836   19.2418 C   0  0  0  0  0  0  0  0  0  0  0  0
    9.1091  -18.6963   19.3296 O   0  0  0  0  0  0  0  0  0  0  0  0
   12.8315  -20.3303   22.5603 N   0  0  0  0  0  0  0  0  0  0  0  0
   11.6709  -20.8032   21.8952 C   0  0  0  0  0  0  0  0  0  0  0  0
   11.5084  -22.0485   21.8459 O   0  0  0  0  0  0  0  0  0  0  0  0
   10.7511  -19.8218   21.3177 C   0  0  0  0  0  0  0  0  0  0  0  0
   11.2091  -18.3988   21.4956 C   0  0  0  0  0  0  0  0  0  0  0  0
   10.0135  -17.4841   21.6763 C   0  0  2  0  0  0  0  0  0  0  0  0
    9.6860  -16.7890   20.4535 N   0  0  0  0  0  0  0  0  0  0  0  0
   10.2127  -16.5439   22.8111 C   0  0  0  0  0  0  0  0  0  0  0  0
   11.1580  -15.7154   22.8076 O   0  0  0  0  0  0  0  0  0  0  0  0
    7.9013  -14.2414   23.9626 O   0  0  0  0  0  0  0  0  0  0  0  0
    8.3624  -14.7330   25.1729 C   0  0  0  0  0  0  0  0  0  0  0  0
    9.5906  -15.5839   25.0153 C   0  0  2  0  0  0  0  0  0  0  0  0
    9.3557  -16.5324   23.9451 N   0  0  0  0  0  0  0  0  0  0  0  0
    9.9655  -16.2689   26.2789 C   0  0  0  0  0  0  0  0  0  0  0  0
   10.2161  -15.4842   27.3950 O   0  0  0  0  0  0  0  0  0  0  0  0
   10.0642  -17.5009   26.3814 O   0  0  0  0  0  0  0  0  0  0  0  0
  2  1  1  6
  3  2  1  0
  4  3  1  0
  5  4  2  0
  6  5  1  0
  7  6  1  0
  7  8  2  0
  8  4  1  0
  9  2  1  0
  9 10  2  0
 12 11  1  0
 13 12  2  0
 14 12  1  0
 16 15  1  6
 15 14  1  0
 17 16  1  0
 17  9  1  0
 18 19  2  0
 18 16  1  0
 20 21  1  0
 22 21  1  1
 22 24  1  0
 22 23  1  0
 23 18  1  0
 24 25  1  0
 26 24  2  0
M  END
$$$$
