HQS.pdb
     RDKit          3D

 26 26  0  0  1  0  0  0  0  0999 V2000
    8.6285  -17.4654   16.4506 N   0  0  0  0  0  0  0  0  0  0  0  0
    9.4347  -16.5515   17.1966 C   0  0  1  0  0  0  0  0  0  0  0  0
    8.5128  -15.5445   17.8658 C   0  0  0  0  0  0  0  0  0  0  0  0
    7.9886  -14.6076   16.8460 C   0  0  0  0  0  0  0  0  0  0  0  0
    8.2586  -14.6509   15.5044 C   0  0  0  0  0  0  0  0  0  0  0  0
    7.5904  -13.6273   14.9296 N   0  0  0  0  0  0  0  0  0  0  0  0
    6.9168  -12.9511   15.8605 C   0  0  0  0  0  0  0  0  0  0  0  0
    7.1668  -13.5637   17.0518 N   0  0  0  0  0  0  0  0  0  0  0  0
   10.2059  -17.2205   18.2806 C   0  0  0  0  0  0  0  0  0  0  0  0
    9.6655  -18.1263   18.9652 O   0  0  0  0  0  0  0  0  0  0  0  0
   16.4072  -18.2205   18.8355 N   0  0  0  0  0  0  0  0  0  0  0  0
   15.9106  -18.6048   20.1078 C   0  0  0  0  0  0  0  0  0  0  0  0
   16.7385  -19.0834   20.9232 O   0  0  0  0  0  0  0  0  0  0  0  0
   14.4847  -18.4208   20.3829 C   0  0  0  0  0  0  0  0  0  0  0  0
   13.7536  -17.6991   19.2825 C   0  0  0  0  0  0  0  0  0  0  0  0
   12.2846  -17.5637   19.6328 C   0  0  2  0  0  0  0  0  0  0  0  0
   11.5500  -16.8843   18.5915 N   0  0  0  0  0  0  0  0  0  0  0  0
   12.0975  -16.9133   20.9569 C   0  0  0  0  0  0  0  0  0  0  0  0
   12.3258  -15.6872   21.1145 O   0  0  0  0  0  0  0  0  0  0  0  0
    9.0877  -16.7393   23.1236 O   0  0  0  0  0  0  0  0  0  0  0  0
   10.1050  -17.2846   23.8896 C   0  0  0  0  0  0  0  0  0  0  0  0
   11.4683  -16.9421   23.3592 C   0  0  2  0  0  0  0  0  0  0  0  0
   11.6562  -17.6342   22.0998 N   0  0  0  0  0  0  0  0  0  0  0  0
   12.5464  -17.2689   24.3273 C   0  0  0  0  0  0  0  0  0  0  0  0
   12.5729  -16.5775   25.5297 O   0  0  0  0  0  0  0  0  0  0  0  0
   13.4175  -18.1250   24.1122 O   0  0  0  0  0  0  0  0  0  0  0  0
  2  1  1  1
  3  2  1  0
  4  3  1  0
  5  4  2  0
  6  5  1  0
  7  6  1  0
  7  8  2  0
  8  4  1  0
  9  2  1  0
  9 10  2  0
 12 11  1  0
 13 12  2  0
 14 12  1  0
 16 15  1  6
 15 14  1  0
 17 16  1  0
 17  9  1  0
 18 19  2  0
 18 16  1  0
 20 21  1  0
 22 21  1  1
 22 24  1  0
 22 23  1  0
 23 18  1  0
 24 25  1  0
 26 24  2  0
M  END
$$$$
