ACE.pdb
     RDKit          3D

 21 20  0  0  1  0  0  0  0  0999 V2000
   16.3427  -11.9857  -17.4452 C   0  0  0  0  0  0  0  0  0  0  0  0
   17.6123  -12.4979  -16.7599 C   0  0  2  0  0  0  0  0  0  0  0  0
   17.1914  -13.5576  -15.8657 N   0  0  0  0  0  0  0  0  0  0  0  0
   18.2376  -11.4354  -15.9400 C   0  0  0  0  0  0  0  0  0  0  0  0
   17.6402  -10.9554  -14.9513 O   0  0  0  0  0  0  0  0  0  0  0  0
   19.5375  -10.9097  -16.2307 N   0  0  0  0  0  0  0  0  0  0  0  0
   20.1234   -9.8159  -15.5271 C   0  0  1  0  0  0  0  0  0  0  0  0
   21.6329   -9.9653  -15.3758 C   0  0  0  0  0  0  0  0  0  0  0  0
   22.2671   -8.5971  -14.4035 S   0  0  0  0  0  0  0  0  0  0  0  0
   19.8880   -8.5059  -16.1707 C   0  0  0  0  0  0  0  0  0  0  0  0
   20.1824   -8.3810  -17.3873 O   0  0  0  0  0  0  0  0  0  0  0  0
   19.3500   -7.3783  -15.5014 N   0  0  0  0  0  0  0  0  0  0  0  0
   19.0042   -6.1306  -16.1931 C   0  0  1  0  0  0  0  0  0  0  0  0
   17.8485   -5.4649  -15.5173 C   0  0  0  0  0  0  0  0  0  0  0  0
   17.4907   -4.1883  -16.2171 C   0  0  0  0  0  0  0  0  0  0  0  0
   16.3558   -3.4944  -15.5375 C   0  0  0  0  0  0  0  0  0  0  0  0
   15.8721   -3.9938  -14.5147 O   0  0  0  0  0  0  0  0  0  0  0  0
   20.1980   -5.2754  -16.1386 C   0  0  0  0  0  0  0  0  0  0  0  0
   20.5117   -4.2813  -17.0321 O   0  0  0  0  0  0  0  0  0  0  0  0
   15.8853   -2.3199  -16.0734 O   0  0  0  0  0  0  0  0  0  0  0  0
   21.0397   -5.4496  -15.1888 O   0  0  0  0  0  0  0  0  0  0  0  0
  2  1  1  1
  3  2  1  0
  4  6  1  0
  4  2  1  0
  5  4  2  0
  7  8  1  6
  7  6  1  0
  9  8  1  0
 10  7  1  0
 10 12  1  0
 11 10  2  0
 13 12  1  0
 13 14  1  1
 14 15  1  0
 16 20  1  0
 16 15  1  0
 17 16  2  0
 18 13  1  0
 19 18  1  0
 21 18  2  0
M  END
$$$$
