ACE.pdb
     RDKit          3D

 21 20  0  0  1  0  0  0  0  0999 V2000
   27.0924  -18.9775  -15.4036 C   0  0  0  0  0  0  0  0  0  0  0  0
   27.3865  -20.2837  -14.6613 C   0  0  2  0  0  0  0  0  0  0  0  0
   27.6860  -21.2705  -15.6793 N   0  0  0  0  0  0  0  0  0  0  0  0
   26.1953  -20.7496  -13.9157 C   0  0  0  0  0  0  0  0  0  0  0  0
   25.2949  -21.4003  -14.4908 O   0  0  0  0  0  0  0  0  0  0  0  0
   26.0138  -20.4844  -12.5203 N   0  0  0  0  0  0  0  0  0  0  0  0
   24.8533  -20.8711  -11.7864 C   0  0  1  0  0  0  0  0  0  0  0  0
   25.0117  -20.6418  -10.2876 C   0  0  0  0  0  0  0  0  0  0  0  0
   26.6106  -21.2630   -9.7612 S   0  0  0  0  0  0  0  0  0  0  0  0
   23.6277  -20.1546  -12.1991 C   0  0  0  0  0  0  0  0  0  0  0  0
   23.7378  -18.9599  -12.5774 O   0  0  0  0  0  0  0  0  0  0  0  0
   22.3327  -20.7305  -12.1955 N   0  0  0  0  0  0  0  0  0  0  0  0
   21.2573  -20.2800  -13.0872 C   0  0  1  0  0  0  0  0  0  0  0  0
   21.5525  -20.6756  -14.4986 C   0  0  0  0  0  0  0  0  0  0  0  0
   20.4733  -20.1920  -15.4199 C   0  0  0  0  0  0  0  0  0  0  0  0
   20.6667  -20.7136  -16.8062 C   0  0  0  0  0  0  0  0  0  0  0  0
   19.8330  -21.4977  -17.2749 O   0  0  0  0  0  0  0  0  0  0  0  0
   20.0235  -20.9248  -12.6165 C   0  0  0  0  0  0  0  0  0  0  0  0
   19.9411  -22.1642  -12.0319 O   0  0  0  0  0  0  0  0  0  0  0  0
   21.7686  -20.3033  -17.5172 O   0  0  0  0  0  0  0  0  0  0  0  0
   18.9116  -20.3032  -12.7517 O   0  0  0  0  0  0  0  0  0  0  0  0
  2  1  1  6
  3  2  1  0
  4  6  1  0
  4  2  1  0
  5  4  2  0
  7  8  1  1
  7  6  1  0
  9  8  1  0
 10  7  1  0
 10 12  1  0
 11 10  2  0
 13 12  1  0
 13 14  1  6
 14 15  1  0
 16 20  1  0
 16 15  1  0
 17 16  2  0
 18 13  1  0
 19 18  1  0
 21 18  2  0
M  END
$$$$
