ACE.pdb
     RDKit          3D

 21 20  0  0  1  0  0  0  0  0999 V2000
   25.2187  -14.8828  -18.5589 C   0  0  0  0  0  0  0  0  0  0  0  0
   26.3163  -14.0040  -17.9530 C   0  0  2  0  0  0  0  0  0  0  0  0
   27.3437  -14.9083  -17.4771 N   0  0  0  0  0  0  0  0  0  0  0  0
   25.8056  -13.2458  -16.7883 C   0  0  0  0  0  0  0  0  0  0  0  0
   25.5201  -13.8303  -15.7199 O   0  0  0  0  0  0  0  0  0  0  0  0
   25.6149  -11.8270  -16.8228 N   0  0  0  0  0  0  0  0  0  0  0  0
   25.1541  -11.0640  -15.7091 C   0  0  1  0  0  0  0  0  0  0  0  0
   26.2741  -10.2691  -15.0474 C   0  0  0  0  0  0  0  0  0  0  0  0
   27.0507   -9.2120  -16.2717 S   0  0  0  0  0  0  0  0  0  0  0  0
   24.0924  -10.0954  -16.0557 C   0  0  0  0  0  0  0  0  0  0  0  0
   24.2461   -9.3898  -17.0856 O   0  0  0  0  0  0  0  0  0  0  0  0
   22.9087   -9.9110  -15.2984 N   0  0  0  0  0  0  0  0  0  0  0  0
   21.8507   -8.9714  -15.6888 C   0  0  1  0  0  0  0  0  0  0  0  0
   20.5045   -9.5590  -15.4090 C   0  0  0  0  0  0  0  0  0  0  0  0
   19.4189   -8.5958  -15.7846 C   0  0  0  0  0  0  0  0  0  0  0  0
   18.0667   -9.1563  -15.4866 C   0  0  0  0  0  0  0  0  0  0  0  0
   17.1458   -8.9624  -16.2890 O   0  0  0  0  0  0  0  0  0  0  0  0
   22.0580   -7.7519  -14.8954 C   0  0  0  0  0  0  0  0  0  0  0  0
   22.7985   -7.6635  -13.7426 O   0  0  0  0  0  0  0  0  0  0  0  0
   17.8904   -9.8714  -14.3267 O   0  0  0  0  0  0  0  0  0  0  0  0
   21.5112   -6.6611  -15.2853 O   0  0  0  0  0  0  0  0  0  0  0  0
  2  1  1  1
  3  2  1  0
  4  6  1  0
  4  2  1  0
  5  4  2  0
  7  8  1  6
  7  6  1  0
  9  8  1  0
 10  7  1  0
 10 12  1  0
 11 10  2  0
 13 12  1  0
 13 14  1  1
 14 15  1  0
 16 20  1  0
 16 15  1  0
 17 16  2  0
 18 13  1  0
 19 18  1  0
 21 18  2  0
M  END
$$$$
