ACE.pdb
     RDKit          3D

 21 20  0  0  1  0  0  0  0  0999 V2000
   26.3377  -22.4739  -15.0644 C   0  0  0  0  0  0  0  0  0  0  0  0
   24.9409  -21.9696  -15.4365 C   0  0  2  0  0  0  0  0  0  0  0  0
   25.1398  -20.7879  -16.2512 N   0  0  0  0  0  0  0  0  0  0  0  0
   24.1843  -21.5655  -14.2297 C   0  0  0  0  0  0  0  0  0  0  0  0
   24.7189  -20.8595  -13.3463 O   0  0  0  0  0  0  0  0  0  0  0  0
   22.8234  -21.9550  -14.0136 N   0  0  0  0  0  0  0  0  0  0  0  0
   21.9698  -21.3432  -13.0483 C   0  0  1  0  0  0  0  0  0  0  0  0
   21.9466  -19.8241  -13.1746 C   0  0  0  0  0  0  0  0  0  0  0  0
   21.0743  -19.1282  -11.7695 S   0  0  0  0  0  0  0  0  0  0  0  0
   20.5655  -21.7982  -13.1292 C   0  0  0  0  0  0  0  0  0  0  0  0
   19.9130  -21.5276  -14.1701 O   0  0  0  0  0  0  0  0  0  0  0  0
   19.9058  -22.5223  -12.1048 N   0  0  0  0  0  0  0  0  0  0  0  0
   18.5499  -23.0634  -12.2573 C   0  0  1  0  0  0  0  0  0  0  0  0
   18.1049  -23.7160  -10.9878 C   0  0  0  0  0  0  0  0  0  0  0  0
   19.1236  -24.7113  -10.5197 C   0  0  0  0  0  0  0  0  0  0  0  0
   18.6613  -25.4277   -9.2931 C   0  0  0  0  0  0  0  0  0  0  0  0
   17.5550  -25.1491   -8.8157 O   0  0  0  0  0  0  0  0  0  0  0  0
   17.6787  -21.9270  -12.5879 C   0  0  0  0  0  0  0  0  0  0  0  0
   17.9412  -20.6092  -12.3066 O   0  0  0  0  0  0  0  0  0  0  0  0
   19.4838  -26.3757   -8.7340 O   0  0  0  0  0  0  0  0  0  0  0  0
   16.5699  -22.1531  -13.1882 O   0  0  0  0  0  0  0  0  0  0  0  0
  2  1  1  1
  3  2  1  0
  4  6  1  0
  4  2  1  0
  5  4  2  0
  7  8  1  6
  7  6  1  0
  9  8  1  0
 10  7  1  0
 10 12  1  0
 11 10  2  0
 13 12  1  0
 13 14  1  1
 14 15  1  0
 16 20  1  0
 16 15  1  0
 17 16  2  0
 18 13  1  0
 19 18  1  0
 21 18  2  0
M  END
$$$$
