ACE.pdb
     RDKit          3D

 21 20  0  0  1  0  0  0  0  0999 V2000
   18.9605  -12.7549  -16.9995 C   0  0  0  0  0  0  0  0  0  0  0  0
   19.5635  -11.4612  -17.5533 C   0  0  2  0  0  0  0  0  0  0  0  0
   20.5402  -11.8612  -18.5462 N   0  0  0  0  0  0  0  0  0  0  0  0
   20.2761  -10.7123  -16.4933 C   0  0  0  0  0  0  0  0  0  0  0  0
   19.6746  -10.3311  -15.4649 O   0  0  0  0  0  0  0  0  0  0  0  0
   21.6682  -10.3902  -16.5878 N   0  0  0  0  0  0  0  0  0  0  0  0
   22.3476   -9.5413  -15.6645 C   0  0  1  0  0  0  0  0  0  0  0  0
   23.8571   -9.7537  -15.6839 C   0  0  0  0  0  0  0  0  0  0  0  0
   24.2580  -11.2268  -14.7412 S   0  0  0  0  0  0  0  0  0  0  0  0
   22.1176   -8.1012  -15.9071 C   0  0  0  0  0  0  0  0  0  0  0  0
   22.2734   -7.6641  -17.0763 O   0  0  0  0  0  0  0  0  0  0  0  0
   21.7314   -7.1791  -14.9024 N   0  0  0  0  0  0  0  0  0  0  0  0
   21.3637   -5.7885  -15.1953 C   0  0  1  0  0  0  0  0  0  0  0  0
   19.8891   -5.5969  -15.0386 C   0  0  0  0  0  0  0  0  0  0  0  0
   19.5085   -4.1737  -15.3163 C   0  0  0  0  0  0  0  0  0  0  0  0
   18.0343   -3.9694  -15.1879 C   0  0  0  0  0  0  0  0  0  0  0  0
   17.6105   -2.8686  -14.8162 O   0  0  0  0  0  0  0  0  0  0  0  0
   22.0990   -4.9492  -14.2390 C   0  0  0  0  0  0  0  0  0  0  0  0
   22.5159   -3.6601  -14.4611 O   0  0  0  0  0  0  0  0  0  0  0  0
   17.1952   -5.0151  -15.4881 O   0  0  0  0  0  0  0  0  0  0  0  0
   22.3940   -5.4346  -13.0908 O   0  0  0  0  0  0  0  0  0  0  0  0
  2  1  1  1
  3  2  1  0
  4  6  1  0
  4  2  1  0
  5  4  2  0
  7  8  1  6
  7  6  1  0
  9  8  1  0
 10  7  1  0
 10 12  1  0
 11 10  2  0
 13 12  1  0
 13 14  1  1
 14 15  1  0
 16 20  1  0
 16 15  1  0
 17 16  2  0
 18 13  1  0
 19 18  1  0
 21 18  2  0
M  END
$$$$
