ACE.pdb
     RDKit          3D

 21 20  0  0  1  0  0  0  0  0999 V2000
   14.5516  -12.9010  -14.9412 C   0  0  0  0  0  0  0  0  0  0  0  0
   15.8082  -12.3154  -14.2915 C   0  0  2  0  0  0  0  0  0  0  0  0
   16.0655  -13.1159  -13.1113 N   0  0  0  0  0  0  0  0  0  0  0  0
   15.5765  -10.9210  -13.8511 C   0  0  0  0  0  0  0  0  0  0  0  0
   15.3792  -10.0109  -14.6863 O   0  0  0  0  0  0  0  0  0  0  0  0
   15.5661  -10.5467  -12.4690 N   0  0  0  0  0  0  0  0  0  0  0  0
   15.3960   -9.2054  -12.0145 C   0  0  1  0  0  0  0  0  0  0  0  0
   14.3200   -9.0888  -10.9408 C   0  0  0  0  0  0  0  0  0  0  0  0
   14.6155  -10.3230   -9.6724 S   0  0  0  0  0  0  0  0  0  0  0  0
   16.6269   -8.6129  -11.4492 C   0  0  0  0  0  0  0  0  0  0  0  0
   17.4694   -9.3846  -10.9229 O   0  0  0  0  0  0  0  0  0  0  0  0
   16.9185   -7.2260  -11.4629 N   0  0  0  0  0  0  0  0  0  0  0  0
   18.2002   -6.6762  -11.0049 C   0  0  1  0  0  0  0  0  0  0  0  0
   18.7609   -5.7425  -12.0294 C   0  0  0  0  0  0  0  0  0  0  0  0
   20.0250   -5.1088  -11.5314 C   0  0  0  0  0  0  0  0  0  0  0  0
   21.2318   -5.7904  -12.0884 C   0  0  0  0  0  0  0  0  0  0  0  0
   21.2168   -6.1727  -13.2645 O   0  0  0  0  0  0  0  0  0  0  0  0
   17.9268   -5.9631   -9.7494 C   0  0  0  0  0  0  0  0  0  0  0  0
   18.7513   -5.9298   -8.6521 O   0  0  0  0  0  0  0  0  0  0  0  0
   22.3225   -5.9707  -11.2725 O   0  0  0  0  0  0  0  0  0  0  0  0
   16.8314   -5.3087   -9.6368 O   0  0  0  0  0  0  0  0  0  0  0  0
  2  1  1  1
  3  2  1  0
  4  6  1  0
  4  2  1  0
  5  4  2  0
  7  8  1  1
  7  6  1  0
  9  8  1  0
 10  7  1  0
 10 12  1  0
 11 10  2  0
 13 12  1  0
 13 14  1  6
 14 15  1  0
 16 20  1  0
 16 15  1  0
 17 16  2  0
 18 13  1  0
 19 18  1  0
 21 18  2  0
M  END
$$$$
