ACE.pdb
     RDKit          3D

 21 20  0  0  1  0  0  0  0  0999 V2000
   17.6005  -13.7636  -16.4555 C   0  0  0  0  0  0  0  0  0  0  0  0
   18.1682  -12.5968  -17.2681 C   0  0  2  0  0  0  0  0  0  0  0  0
   19.3960  -13.0793  -17.8677 N   0  0  0  0  0  0  0  0  0  0  0  0
   18.5115  -11.4561  -16.3890 C   0  0  0  0  0  0  0  0  0  0  0  0
   17.6389  -10.9129  -15.6760 O   0  0  0  0  0  0  0  0  0  0  0  0
   19.8382  -10.9232  -16.3098 N   0  0  0  0  0  0  0  0  0  0  0  0
   20.1870   -9.7840  -15.5253 C   0  0  1  0  0  0  0  0  0  0  0  0
   21.6631   -9.7719  -15.1445 C   0  0  0  0  0  0  0  0  0  0  0  0
   21.9592   -8.4472  -13.9710 S   0  0  0  0  0  0  0  0  0  0  0  0
   19.9108   -8.4968  -16.1980 C   0  0  0  0  0  0  0  0  0  0  0  0
   20.3213   -8.3434  -17.3771 O   0  0  0  0  0  0  0  0  0  0  0  0
   19.2105   -7.4214  -15.5965 N   0  0  0  0  0  0  0  0  0  0  0  0
   18.8388   -6.2039  -16.3273 C   0  0  1  0  0  0  0  0  0  0  0  0
   17.3998   -5.8741  -16.0899 C   0  0  0  0  0  0  0  0  0  0  0  0
   17.0176   -4.6208  -16.8183 C   0  0  0  0  0  0  0  0  0  0  0  0
   15.5978   -4.2444  -16.5461 C   0  0  0  0  0  0  0  0  0  0  0  0
   15.1782   -3.1526  -16.9477 O   0  0  0  0  0  0  0  0  0  0  0  0
   19.7058   -5.1298  -15.8229 C   0  0  0  0  0  0  0  0  0  0  0  0
   20.1234   -4.0356  -16.5392 O   0  0  0  0  0  0  0  0  0  0  0  0
   14.8025   -5.1271  -15.8560 O   0  0  0  0  0  0  0  0  0  0  0  0
   20.1273   -5.1926  -14.6149 O   0  0  0  0  0  0  0  0  0  0  0  0
  2  1  1  1
  3  2  1  0
  4  6  1  0
  4  2  1  0
  5  4  2  0
  7  8  1  6
  7  6  1  0
  9  8  1  0
 10  7  1  0
 10 12  1  0
 11 10  2  0
 13 12  1  0
 13 14  1  1
 14 15  1  0
 16 20  1  0
 16 15  1  0
 17 16  2  0
 18 13  1  0
 19 18  1  0
 21 18  2  0
M  END
$$$$
