ACE.pdb
     RDKit          3D

 21 20  0  0  1  0  0  0  0  0999 V2000
   26.9339  -22.7227  -15.2807 C   0  0  0  0  0  0  0  0  0  0  0  0
   26.0331  -23.6468  -14.4569 C   0  0  2  0  0  0  0  0  0  0  0  0
   25.4917  -24.6190  -15.3851 N   0  0  0  0  0  0  0  0  0  0  0  0
   24.8976  -22.8974  -13.8728 C   0  0  0  0  0  0  0  0  0  0  0  0
   23.7949  -22.8458  -14.4612 O   0  0  0  0  0  0  0  0  0  0  0  0
   24.9999  -22.2037  -12.6242 N   0  0  0  0  0  0  0  0  0  0  0  0
   23.9889  -21.3341  -12.1179 C   0  0  1  0  0  0  0  0  0  0  0  0
   24.2277  -20.9532  -10.6612 C   0  0  0  0  0  0  0  0  0  0  0  0
   25.9928  -20.8193  -10.3678 S   0  0  0  0  0  0  0  0  0  0  0  0
   23.8651  -20.0694  -12.8735 C   0  0  0  0  0  0  0  0  0  0  0  0
   24.9075  -19.3954  -13.0771 O   0  0  0  0  0  0  0  0  0  0  0  0
   22.6423  -19.5669  -13.3844 N   0  0  0  0  0  0  0  0  0  0  0  0
   22.5767  -18.5904  -14.4784 C   0  0  1  0  0  0  0  0  0  0  0  0
   23.3791  -19.0649  -15.6474 C   0  0  0  0  0  0  0  0  0  0  0  0
   23.2945  -18.0854  -16.7792 C   0  0  0  0  0  0  0  0  0  0  0  0
   24.0898  -18.5448  -17.9573 C   0  0  0  0  0  0  0  0  0  0  0  0
   23.4966  -19.0059  -18.9397 O   0  0  0  0  0  0  0  0  0  0  0  0
   21.1587  -18.4618  -14.8422 C   0  0  0  0  0  0  0  0  0  0  0  0
   20.5806  -17.3664  -15.4344 O   0  0  0  0  0  0  0  0  0  0  0  0
   25.4589  -18.4392  -17.9102 O   0  0  0  0  0  0  0  0  0  0  0  0
   20.3669  -19.4382  -14.5958 O   0  0  0  0  0  0  0  0  0  0  0  0
  2  1  1  6
  3  2  1  0
  4  6  1  0
  4  2  1  0
  5  4  2  0
  7  8  1  1
  7  6  1  0
  9  8  1  0
 10  7  1  0
 10 12  1  0
 11 10  2  0
 13 12  1  0
 13 14  1  6
 14 15  1  0
 16 20  1  0
 16 15  1  0
 17 16  2  0
 18 13  1  0
 19 18  1  0
 21 18  2  0
M  END
$$$$
