ACE.pdb
     RDKit          3D

 21 20  0  0  1  0  0  0  0  0999 V2000
   20.0757  -13.4950  -17.6798 C   0  0  0  0  0  0  0  0  0  0  0  0
   20.1643  -12.0102  -18.0421 C   0  0  2  0  0  0  0  0  0  0  0  0
   20.8448  -11.9440  -19.3197 N   0  0  0  0  0  0  0  0  0  0  0  0
   20.9830  -11.2714  -17.0542 C   0  0  0  0  0  0  0  0  0  0  0  0
   20.5851  -11.1217  -15.8778 O   0  0  0  0  0  0  0  0  0  0  0  0
   22.2525  -10.6989  -17.3876 N   0  0  0  0  0  0  0  0  0  0  0  0
   22.9975   -9.8604  -16.5063 C   0  0  1  0  0  0  0  0  0  0  0  0
   24.5015   -9.9815  -16.7237 C   0  0  0  0  0  0  0  0  0  0  0  0
   25.3558   -8.9554  -15.5249 S   0  0  0  0  0  0  0  0  0  0  0  0
   22.6635   -8.4258  -16.6332 C   0  0  0  0  0  0  0  0  0  0  0  0
   22.7429   -7.8965  -17.7716 O   0  0  0  0  0  0  0  0  0  0  0  0
   22.2583   -7.6067  -15.5499 N   0  0  0  0  0  0  0  0  0  0  0  0
   21.8454   -6.2082  -15.7187 C   0  0  1  0  0  0  0  0  0  0  0  0
   20.3616   -6.1202  -15.8806 C   0  0  0  0  0  0  0  0  0  0  0  0
   19.9284   -4.6915  -16.0165 C   0  0  0  0  0  0  0  0  0  0  0  0
   18.4459   -4.5838  -16.1642 C   0  0  0  0  0  0  0  0  0  0  0  0
   17.7607   -5.6121  -16.1124 O   0  0  0  0  0  0  0  0  0  0  0  0
   22.2771   -5.4938  -14.5091 C   0  0  0  0  0  0  0  0  0  0  0  0
   22.3820   -4.1311  -14.3791 O   0  0  0  0  0  0  0  0  0  0  0  0
   17.8908   -3.3413  -16.3535 O   0  0  0  0  0  0  0  0  0  0  0  0
   22.5925   -6.1734  -13.4701 O   0  0  0  0  0  0  0  0  0  0  0  0
  2  1  1  1
  3  2  1  0
  4  6  1  0
  4  2  1  0
  5  4  2  0
  7  8  1  6
  7  6  1  0
  9  8  1  0
 10  7  1  0
 10 12  1  0
 11 10  2  0
 13 12  1  0
 13 14  1  1
 14 15  1  0
 16 20  1  0
 16 15  1  0
 17 16  2  0
 18 13  1  0
 19 18  1  0
 21 18  2  0
M  END
$$$$
