ACE.pdb
     RDKit          3D

 21 20  0  0  1  0  0  0  0  0999 V2000
   19.9677  -15.1777  -18.5040 C   0  0  0  0  0  0  0  0  0  0  0  0
   21.2428  -15.5526  -17.7440 C   0  0  2  0  0  0  0  0  0  0  0  0
   20.9807  -16.8331  -17.1184 N   0  0  0  0  0  0  0  0  0  0  0  0
   21.5269  -14.5737  -16.6702 C   0  0  0  0  0  0  0  0  0  0  0  0
   20.6865  -14.3481  -15.7716 O   0  0  0  0  0  0  0  0  0  0  0  0
   22.7583  -13.8457  -16.6045 N   0  0  0  0  0  0  0  0  0  0  0  0
   23.0171  -12.8143  -15.6537 C   0  0  1  0  0  0  0  0  0  0  0  0
   24.5040  -12.6619  -15.3536 C   0  0  0  0  0  0  0  0  0  0  0  0
   25.0457  -14.0393  -14.3393 S   0  0  0  0  0  0  0  0  0  0  0  0
   22.5304  -11.4844  -16.0781 C   0  0  0  0  0  0  0  0  0  0  0  0
   22.8533  -11.0714  -17.2216 O   0  0  0  0  0  0  0  0  0  0  0  0
   21.7204  -10.6427  -15.2754 N   0  0  0  0  0  0  0  0  0  0  0  0
   21.1794   -9.3647  -15.7535 C   0  0  1  0  0  0  0  0  0  0  0  0
   19.9666   -8.9862  -14.9652 C   0  0  0  0  0  0  0  0  0  0  0  0
   19.4496   -7.6480  -15.4004 C   0  0  0  0  0  0  0  0  0  0  0  0
   18.2391   -7.2519  -14.6198 C   0  0  0  0  0  0  0  0  0  0  0  0
   17.7949   -8.0277  -13.7652 O   0  0  0  0  0  0  0  0  0  0  0  0
   22.2431   -8.3661  -15.5777 C   0  0  0  0  0  0  0  0  0  0  0  0
   22.4174   -7.2394  -16.3426 O   0  0  0  0  0  0  0  0  0  0  0  0
   17.6574   -6.0342  -14.8783 O   0  0  0  0  0  0  0  0  0  0  0  0
   23.0994   -8.5345  -14.6400 O   0  0  0  0  0  0  0  0  0  0  0  0
  2  1  1  1
  3  2  1  0
  4  6  1  0
  4  2  1  0
  5  4  2  0
  7  8  1  6
  7  6  1  0
  9  8  1  0
 10  7  1  0
 10 12  1  0
 11 10  2  0
 13 12  1  0
 13 14  1  1
 14 15  1  0
 16 20  1  0
 16 15  1  0
 17 16  2  0
 18 13  1  0
 19 18  1  0
 21 18  2  0
M  END
$$$$
