ACE.pdb
     RDKit          3D

 21 20  0  0  1  0  0  0  0  0999 V2000
   19.0068  -13.1278  -16.1169 C   0  0  0  0  0  0  0  0  0  0  0  0
   19.2228  -11.7382  -16.7222 C   0  0  2  0  0  0  0  0  0  0  0  0
   19.8988  -11.9471  -17.9868 N   0  0  0  0  0  0  0  0  0  0  0  0
   20.1091  -10.9185  -15.8651 C   0  0  0  0  0  0  0  0  0  0  0  0
   19.7815  -10.6366  -14.6911 O   0  0  0  0  0  0  0  0  0  0  0  0
   21.3670  -10.4135  -16.3268 N   0  0  0  0  0  0  0  0  0  0  0  0
   22.2132   -9.5687  -15.5490 C   0  0  1  0  0  0  0  0  0  0  0  0
   23.6921   -9.8242  -15.8167 C   0  0  0  0  0  0  0  0  0  0  0  0
   24.2078  -11.2942  -14.9264 S   0  0  0  0  0  0  0  0  0  0  0  0
   21.9819   -8.1270  -15.7805 C   0  0  0  0  0  0  0  0  0  0  0  0
   21.9012   -7.7223  -16.9689 O   0  0  0  0  0  0  0  0  0  0  0  0
   21.8451   -7.1690  -14.7450 N   0  0  0  0  0  0  0  0  0  0  0  0
   21.4750   -5.7709  -14.9960 C   0  0  1  0  0  0  0  0  0  0  0  0
   19.9874   -5.6267  -15.0383 C   0  0  0  0  0  0  0  0  0  0  0  0
   19.6021   -4.2122  -15.3516 C   0  0  0  0  0  0  0  0  0  0  0  0
   18.1190   -4.0352  -15.3341 C   0  0  0  0  0  0  0  0  0  0  0  0
   17.6165   -3.2563  -14.5153 O   0  0  0  0  0  0  0  0  0  0  0  0
   22.0401   -4.9821  -13.8923 C   0  0  0  0  0  0  0  0  0  0  0  0
   22.3107   -3.6366  -13.9269 O   0  0  0  0  0  0  0  0  0  0  0  0
   17.3596   -4.7463  -16.2317 O   0  0  0  0  0  0  0  0  0  0  0  0
   22.3178   -5.5728  -12.7901 O   0  0  0  0  0  0  0  0  0  0  0  0
  2  1  1  1
  3  2  1  0
  4  6  1  0
  4  2  1  0
  5  4  2  0
  7  8  1  6
  7  6  1  0
  9  8  1  0
 10  7  1  0
 10 12  1  0
 11 10  2  0
 13 12  1  0
 13 14  1  1
 14 15  1  0
 16 20  1  0
 16 15  1  0
 17 16  2  0
 18 13  1  0
 19 18  1  0
 21 18  2  0
M  END
$$$$
