ACE.pdb
     RDKit          3D

 21 20  0  0  1  0  0  0  0  0999 V2000
   18.0161  -11.5254  -17.6574 C   0  0  0  0  0  0  0  0  0  0  0  0
   19.5401  -11.6714  -17.6506 C   0  0  2  0  0  0  0  0  0  0  0  0
   19.8136  -13.0562  -17.3227 N   0  0  0  0  0  0  0  0  0  0  0  0
   20.1487  -10.8280  -16.5970 C   0  0  0  0  0  0  0  0  0  0  0  0
   19.5480  -10.6167  -15.5203 O   0  0  0  0  0  0  0  0  0  0  0  0
   21.4357  -10.2196  -16.7521 N   0  0  0  0  0  0  0  0  0  0  0  0
   22.0710   -9.4440  -15.7374 C   0  0  1  0  0  0  0  0  0  0  0  0
   23.5611   -9.7452  -15.6246 C   0  0  0  0  0  0  0  0  0  0  0  0
   23.8007  -11.1307  -14.5100 S   0  0  0  0  0  0  0  0  0  0  0  0
   21.9463   -7.9854  -15.9441 C   0  0  0  0  0  0  0  0  0  0  0  0
   22.2694   -7.5153  -17.0653 O   0  0  0  0  0  0  0  0  0  0  0  0
   21.4844   -7.0806  -14.9559 N   0  0  0  0  0  0  0  0  0  0  0  0
   21.2104   -5.6660  -15.2358 C   0  0  1  0  0  0  0  0  0  0  0  0
   19.7829   -5.3427  -14.9303 C   0  0  0  0  0  0  0  0  0  0  0  0
   19.5160   -3.8819  -15.1355 C   0  0  0  0  0  0  0  0  0  0  0  0
   18.0794   -3.5516  -14.8937 C   0  0  0  0  0  0  0  0  0  0  0  0
   17.3004   -4.4572  -14.5735 O   0  0  0  0  0  0  0  0  0  0  0  0
   22.1126   -4.8855  -14.3775 C   0  0  0  0  0  0  0  0  0  0  0  0
   22.5800   -3.6230  -14.6467 O   0  0  0  0  0  0  0  0  0  0  0  0
   17.6698   -2.2478  -15.0356 O   0  0  0  0  0  0  0  0  0  0  0  0
   22.5183   -5.4014  -13.2775 O   0  0  0  0  0  0  0  0  0  0  0  0
  2  1  1  1
  3  2  1  0
  4  6  1  0
  4  2  1  0
  5  4  2  0
  7  8  1  6
  7  6  1  0
  9  8  1  0
 10  7  1  0
 10 12  1  0
 11 10  2  0
 13 12  1  0
 13 14  1  1
 14 15  1  0
 16 20  1  0
 16 15  1  0
 17 16  2  0
 18 13  1  0
 19 18  1  0
 21 18  2  0
M  END
$$$$
