ACE.pdb
     RDKit          3D

 21 20  0  0  1  0  0  0  0  0999 V2000
   17.7343  -11.3354  -16.1589 C   0  0  0  0  0  0  0  0  0  0  0  0
   18.0568  -10.0212  -16.8750 C   0  0  2  0  0  0  0  0  0  0  0  0
   19.1444  -10.3125  -17.7872 N   0  0  0  0  0  0  0  0  0  0  0  0
   18.5318   -8.9978  -15.9162 C   0  0  0  0  0  0  0  0  0  0  0  0
   17.7800   -8.5702  -15.0125 O   0  0  0  0  0  0  0  0  0  0  0  0
   19.8548   -8.4527  -15.9718 N   0  0  0  0  0  0  0  0  0  0  0  0
   20.3220   -7.4217  -15.1037 C   0  0  1  0  0  0  0  0  0  0  0  0
   21.7863   -7.6050  -14.7212 C   0  0  0  0  0  0  0  0  0  0  0  0
   22.2560   -6.3262  -13.5534 S   0  0  0  0  0  0  0  0  0  0  0  0
   20.1991   -6.0651  -15.6783 C   0  0  0  0  0  0  0  0  0  0  0  0
   20.6597   -5.8653  -16.8317 O   0  0  0  0  0  0  0  0  0  0  0  0
   19.5931   -4.9722  -15.0096 N   0  0  0  0  0  0  0  0  0  0  0  0
   19.4189   -3.6542  -15.6319 C   0  0  1  0  0  0  0  0  0  0  0  0
   18.1847   -2.9917  -15.1090 C   0  0  0  0  0  0  0  0  0  0  0  0
   16.9564   -3.6661  -15.6418 C   0  0  0  0  0  0  0  0  0  0  0  0
   15.7131   -3.0419  -15.0978 C   0  0  0  0  0  0  0  0  0  0  0  0
   15.8065   -2.0205  -14.4067 O   0  0  0  0  0  0  0  0  0  0  0  0
   20.6124   -2.8676  -15.2909 C   0  0  0  0  0  0  0  0  0  0  0  0
   21.1029   -1.8054  -16.0093 O   0  0  0  0  0  0  0  0  0  0  0  0
   14.5027   -3.6254  -15.3845 O   0  0  0  0  0  0  0  0  0  0  0  0
   21.2762   -3.1766  -14.2398 O   0  0  0  0  0  0  0  0  0  0  0  0
  2  1  1  1
  3  2  1  0
  4  6  1  0
  4  2  1  0
  5  4  2  0
  7  8  1  6
  7  6  1  0
  9  8  1  0
 10  7  1  0
 10 12  1  0
 11 10  2  0
 13 12  1  0
 13 14  1  1
 14 15  1  0
 16 20  1  0
 16 15  1  0
 17 16  2  0
 18 13  1  0
 19 18  1  0
 21 18  2  0
M  END
$$$$
