PLR.pdb
     RDKit          3D

 27 27  0  0  1  0  0  0  0  0999 V2000
    7.2581  -14.8718   20.3990 N   0  0  0  0  0  0  0  0  0  0  0  0
    6.2156  -14.1287   19.7134 C   0  0  0  0  0  0  0  0  0  0  0  0
    6.9888  -12.9867   19.0390 C   0  0  0  0  0  0  0  0  0  0  0  0
    7.9339  -12.6119   20.1923 C   0  0  0  0  0  0  0  0  0  0  0  0
    8.3088  -13.9545   20.7119 C   0  0  1  0  0  0  0  0  0  0  0  0
    8.7101  -13.9910   22.1331 C   0  0  0  0  0  0  0  0  0  0  0  0
    9.9245  -13.8100   22.3896 O   0  0  0  0  0  0  0  0  0  0  0  0
    5.4962  -12.4430   26.5000 C   0  0  0  0  0  0  0  0  0  0  0  0
    6.6996  -12.4934   25.5282 C   0  0  1  0  0  0  0  0  0  0  0  0
    7.6913  -11.4986   26.0845 C   0  0  0  0  0  0  0  0  0  0  0  0
    7.1583  -13.9000   25.5585 C   0  0  0  0  0  0  0  0  0  0  0  0
    8.1534  -14.3615   24.5839 C   0  0  2  0  0  0  0  0  0  0  0  0
    7.8167  -14.2147   23.2036 N   0  0  0  0  0  0  0  0  0  0  0  0
    8.8584  -15.6319   24.9281 C   0  0  0  0  0  0  0  0  0  0  0  0
    8.1817  -16.6915   25.1496 O   0  0  0  0  0  0  0  0  0  0  0  0
   14.9206  -14.6979   19.5984 N   0  0  0  0  0  0  0  0  0  0  0  0
   14.8360  -15.1731   20.9397 C   0  0  0  0  0  0  0  0  0  0  0  0
   15.7116  -14.7957   21.7791 N   0  0  0  0  0  0  0  0  0  0  0  0
   13.7934  -16.0497   21.3252 N   0  0  0  0  0  0  0  0  0  0  0  0
   13.6891  -16.4656   22.7128 C   0  0  0  0  0  0  0  0  0  0  0  0
   12.2277  -16.5035   23.1489 C   0  0  0  0  0  0  0  0  0  0  0  0
   12.2231  -17.0409   24.5557 C   0  0  0  0  0  0  0  0  0  0  0  0
   10.8789  -17.1082   25.1992 C   0  0  2  0  0  0  0  0  0  0  0  0
   10.2583  -15.7783   25.0429 N   0  0  0  0  0  0  0  0  0  0  0  0
   11.0420  -17.3232   26.6536 C   0  0  0  0  0  0  0  0  0  0  0  0
   11.3052  -18.5599   27.2343 O   0  0  0  0  0  0  0  0  0  0  0  0
   10.9452  -16.3620   27.4564 O   0  0  0  0  0  0  0  0  0  0  0  0
  2  1  1  0
  3  2  1  0
  4  3  1  0
  4  5  1  0
  5  1  1  0
  5  6  1  1
  6  7  2  0
  9  8  1  1
 10  9  1  0
 11  9  1  0
 12 11  1  1
 13  6  1  0
 13 12  1  0
 14 12  1  0
 14 15  2  0
 16 17  1  0
 17 19  1  0
 17 18  2  0
 19 20  1  0
 20 21  1  0
 21 22  1  0
 23 22  1  6
 23 24  1  0
 24 14  1  0
 25 23  1  0
 25 26  1  0
 27 25  2  0
M  END
$$$$
