PLR.pdb
     RDKit          3D

 27 27  0  0  1  0  0  0  0  0999 V2000
    7.3645  -14.6821   19.7614 N   0  0  0  0  0  0  0  0  0  0  0  0
    6.5227  -13.8275   18.9428 C   0  0  0  0  0  0  0  0  0  0  0  0
    7.5089  -12.7817   18.4038 C   0  0  0  0  0  0  0  0  0  0  0  0
    8.3121  -12.5136   19.6870 C   0  0  0  0  0  0  0  0  0  0  0  0
    8.4546  -13.8887   20.2363 C   0  0  1  0  0  0  0  0  0  0  0  0
    8.6382  -13.9672   21.6999 C   0  0  0  0  0  0  0  0  0  0  0  0
    9.8166  -13.9609   22.1299 O   0  0  0  0  0  0  0  0  0  0  0  0
    7.8016  -11.9626   26.4626 C   0  0  0  0  0  0  0  0  0  0  0  0
    6.7592  -13.0846   26.2395 C   0  0  1  0  0  0  0  0  0  0  0  0
    5.4971  -12.5803   26.8994 C   0  0  0  0  0  0  0  0  0  0  0  0
    6.6659  -13.2346   24.7703 C   0  0  0  0  0  0  0  0  0  0  0  0
    7.6818  -14.0134   24.0529 C   0  0  2  0  0  0  0  0  0  0  0  0
    7.5777  -14.0475   22.6288 N   0  0  0  0  0  0  0  0  0  0  0  0
    8.0750  -15.3070   24.6864 C   0  0  0  0  0  0  0  0  0  0  0  0
    7.1882  -16.1978   24.9100 O   0  0  0  0  0  0  0  0  0  0  0  0
   10.8523  -21.5621   22.7403 N   0  0  0  0  0  0  0  0  0  0  0  0
   12.2171  -21.2652   22.4553 C   0  0  0  0  0  0  0  0  0  0  0  0
   13.0277  -22.2264   22.2745 N   0  0  0  0  0  0  0  0  0  0  0  0
   12.6571  -19.9220   22.3759 N   0  0  0  0  0  0  0  0  0  0  0  0
   11.7093  -18.8470   22.6107 C   0  0  0  0  0  0  0  0  0  0  0  0
   11.6164  -18.5350   24.1012 C   0  0  0  0  0  0  0  0  0  0  0  0
   11.0123  -17.1596   24.2054 C   0  0  0  0  0  0  0  0  0  0  0  0
    9.8325  -17.0577   25.1128 C   0  0  2  0  0  0  0  0  0  0  0  0
    9.3857  -15.6513   25.0837 N   0  0  0  0  0  0  0  0  0  0  0  0
   10.2583  -17.3305   26.5029 C   0  0  0  0  0  0  0  0  0  0  0  0
   10.2121  -16.3937   27.5306 O   0  0  0  0  0  0  0  0  0  0  0  0
   10.6970  -18.4621   26.8264 O   0  0  0  0  0  0  0  0  0  0  0  0
  2  1  1  0
  3  2  1  0
  4  3  1  0
  4  5  1  0
  5  1  1  0
  5  6  1  1
  6  7  2  0
  9  8  1  6
 10  9  1  0
 11  9  1  0
 12 11  1  1
 13  6  1  0
 13 12  1  0
 14 12  1  0
 14 15  2  0
 16 17  1  0
 17 19  1  0
 17 18  2  0
 19 20  1  0
 20 21  1  0
 21 22  1  0
 23 22  1  6
 23 24  1  0
 24 14  1  0
 25 23  1  0
 25 26  1  0
 27 25  2  0
M  END
$$$$
