PLR.pdb
     RDKit          3D

 27 27  0  0  1  0  0  0  0  0999 V2000
    7.5343  -15.2968   20.3620 N   0  0  0  0  0  0  0  0  0  0  0  0
    6.7271  -14.7085   19.3078 C   0  0  0  0  0  0  0  0  0  0  0  0
    7.7452  -13.8797   18.5119 C   0  0  0  0  0  0  0  0  0  0  0  0
    8.5269  -13.2580   19.6807 C   0  0  0  0  0  0  0  0  0  0  0  0
    8.6302  -14.4136   20.6118 C   0  0  1  0  0  0  0  0  0  0  0  0
    8.7819  -14.0622   22.0385 C   0  0  0  0  0  0  0  0  0  0  0  0
    9.9452  -13.8436   22.4535 O   0  0  0  0  0  0  0  0  0  0  0  0
    7.8687  -11.3047   26.4333 C   0  0  0  0  0  0  0  0  0  0  0  0
    6.8583  -12.4752   26.3703 C   0  0  1  0  0  0  0  0  0  0  0  0
    5.5785  -11.9163   26.9472 C   0  0  0  0  0  0  0  0  0  0  0  0
    6.7793  -12.8369   24.9376 C   0  0  0  0  0  0  0  0  0  0  0  0
    7.7939  -13.7219   24.3540 C   0  0  2  0  0  0  0  0  0  0  0  0
    7.7068  -13.9597   22.9484 N   0  0  0  0  0  0  0  0  0  0  0  0
    8.1629  -14.9148   25.1726 C   0  0  0  0  0  0  0  0  0  0  0  0
    8.4945  -14.7650   26.3963 O   0  0  0  0  0  0  0  0  0  0  0  0
    5.5544  -22.5648   26.3480 N   0  0  0  0  0  0  0  0  0  0  0  0
    6.8836  -23.0399   26.1492 C   0  0  0  0  0  0  0  0  0  0  0  0
    7.2223  -24.1471   26.6716 N   0  0  0  0  0  0  0  0  0  0  0  0
    7.8064  -22.2884   25.3825 N   0  0  0  0  0  0  0  0  0  0  0  0
    7.4250  -20.9740   24.8967 C   0  0  0  0  0  0  0  0  0  0  0  0
    8.1408  -19.8849   25.6898 C   0  0  0  0  0  0  0  0  0  0  0  0
    7.8194  -18.5845   25.0018 C   0  0  0  0  0  0  0  0  0  0  0  0
    8.4430  -17.3765   25.6164 C   0  0  2  0  0  0  0  0  0  0  0  0
    8.1872  -16.2462   24.7024 N   0  0  0  0  0  0  0  0  0  0  0  0
    9.9111  -17.5518   25.6610 C   0  0  0  0  0  0  0  0  0  0  0  0
   10.6012  -18.0743   26.7503 O   0  0  0  0  0  0  0  0  0  0  0  0
   10.6239  -17.2229   24.6805 O   0  0  0  0  0  0  0  0  0  0  0  0
  2  1  1  0
  3  2  1  0
  4  3  1  0
  4  5  1  0
  5  1  1  0
  5  6  1  1
  6  7  2  0
  9  8  1  6
 10  9  1  0
 11  9  1  0
 12 11  1  1
 13  6  1  0
 13 12  1  0
 14 12  1  0
 14 15  2  0
 16 17  1  0
 17 19  1  0
 17 18  2  0
 19 20  1  0
 20 21  1  0
 21 22  1  0
 23 22  1  6
 23 24  1  0
 24 14  1  0
 25 23  1  0
 25 26  1  0
 27 25  2  0
M  END
$$$$
