PLR.pdb
     RDKit          3D

 27 27  0  0  1  0  0  0  0  0999 V2000
    7.7772  -14.7315   20.7528 N   0  0  0  0  0  0  0  0  0  0  0  0
    6.8528  -13.9356   19.9647 C   0  0  0  0  0  0  0  0  0  0  0  0
    7.7500  -12.8322   19.3863 C   0  0  0  0  0  0  0  0  0  0  0  0
    8.5824  -12.5079   20.6375 C   0  0  0  0  0  0  0  0  0  0  0  0
    8.8322  -13.8687   21.1841 C   0  0  1  0  0  0  0  0  0  0  0  0
    9.0754  -13.9286   22.6399 C   0  0  0  0  0  0  0  0  0  0  0  0
   10.2287  -13.6397   23.0397 O   0  0  0  0  0  0  0  0  0  0  0  0
    5.5252  -12.4360   26.6496 C   0  0  0  0  0  0  0  0  0  0  0  0
    6.7881  -12.5369   25.7608 C   0  0  1  0  0  0  0  0  0  0  0  0
    7.7551  -11.5325   26.3427 C   0  0  0  0  0  0  0  0  0  0  0  0
    7.2249  -13.9463   25.8737 C   0  0  0  0  0  0  0  0  0  0  0  0
    8.2900  -14.4498   24.9989 C   0  0  2  0  0  0  0  0  0  0  0  0
    8.0971  -14.2872   23.5931 N   0  0  0  0  0  0  0  0  0  0  0  0
    8.9021  -15.7500   25.4040 C   0  0  0  0  0  0  0  0  0  0  0  0
    8.7515  -16.1759   26.5981 O   0  0  0  0  0  0  0  0  0  0  0  0
   11.7437  -20.1925   19.0795 N   0  0  0  0  0  0  0  0  0  0  0  0
   10.4179  -19.6686   19.0740 C   0  0  0  0  0  0  0  0  0  0  0  0
    9.7812  -19.6260   17.9757 N   0  0  0  0  0  0  0  0  0  0  0  0
    9.8253  -19.2053   20.2733 N   0  0  0  0  0  0  0  0  0  0  0  0
   10.5937  -19.2349   21.5052 C   0  0  0  0  0  0  0  0  0  0  0  0
    9.8274  -18.5417   22.6276 C   0  0  0  0  0  0  0  0  0  0  0  0
   10.7141  -18.6052   23.8430 C   0  0  0  0  0  0  0  0  0  0  0  0
   10.1969  -17.8772   25.0381 C   0  0  2  0  0  0  0  0  0  0  0  0
    9.6679  -16.5847   24.5607 N   0  0  0  0  0  0  0  0  0  0  0  0
   11.3229  -17.5576   25.9426 C   0  0  0  0  0  0  0  0  0  0  0  0
   12.0070  -18.5031   26.7001 O   0  0  0  0  0  0  0  0  0  0  0  0
   11.7236  -16.3741   26.0705 O   0  0  0  0  0  0  0  0  0  0  0  0
  2  1  1  0
  3  2  1  0
  4  3  1  0
  4  5  1  0
  5  1  1  0
  5  6  1  1
  6  7  2  0
  9  8  1  1
 10  9  1  0
 11  9  1  0
 12 11  1  1
 13  6  1  0
 13 12  1  0
 14 12  1  0
 14 15  2  0
 16 17  1  0
 17 19  1  0
 17 18  2  0
 19 20  1  0
 20 21  1  0
 21 22  1  0
 23 22  1  6
 23 24  1  0
 24 14  1  0
 25 23  1  0
 25 26  1  0
 27 25  2  0
M  END
$$$$
