PLR.pdb
     RDKit          3D

 27 27  0  0  1  0  0  0  0  0999 V2000
    7.7921  -14.8097   20.3967 N   0  0  0  0  0  0  0  0  0  0  0  0
    6.7034  -14.1556   19.6924 C   0  0  0  0  0  0  0  0  0  0  0  0
    7.3168  -12.8114   19.2757 C   0  0  0  0  0  0  0  0  0  0  0  0
    8.0598  -12.4639   20.5760 C   0  0  0  0  0  0  0  0  0  0  0  0
    8.6214  -13.7882   20.9555 C   0  0  1  0  0  0  0  0  0  0  0  0
    8.8815  -13.9729   22.3978 C   0  0  0  0  0  0  0  0  0  0  0  0
   10.0808  -14.0431   22.7586 O   0  0  0  0  0  0  0  0  0  0  0  0
    5.4084  -12.3511   26.5719 C   0  0  0  0  0  0  0  0  0  0  0  0
    6.6503  -12.4587   25.6548 C   0  0  1  0  0  0  0  0  0  0  0  0
    7.6686  -11.5255   26.2671 C   0  0  0  0  0  0  0  0  0  0  0  0
    7.0295  -13.8887   25.6891 C   0  0  0  0  0  0  0  0  0  0  0  0
    8.0467  -14.3938   24.7598 C   0  0  2  0  0  0  0  0  0  0  0  0
    7.8711  -14.0731   23.3791 N   0  0  0  0  0  0  0  0  0  0  0  0
    8.5398  -15.7776   25.0269 C   0  0  0  0  0  0  0  0  0  0  0  0
    7.8085  -16.7795   24.7251 O   0  0  0  0  0  0  0  0  0  0  0  0
   14.8829  -20.7660   26.2271 N   0  0  0  0  0  0  0  0  0  0  0  0
   14.6467  -21.0732   24.8553 C   0  0  0  0  0  0  0  0  0  0  0  0
   15.0776  -22.1746   24.3918 N   0  0  0  0  0  0  0  0  0  0  0  0
   13.9442  -20.1645   24.0278 N   0  0  0  0  0  0  0  0  0  0  0  0
   13.5427  -18.8762   24.5649 C   0  0  0  0  0  0  0  0  0  0  0  0
   12.1860  -18.9860   25.2539 C   0  0  0  0  0  0  0  0  0  0  0  0
   11.5120  -17.6521   25.0689 C   0  0  0  0  0  0  0  0  0  0  0  0
   10.2121  -17.4993   25.7849 C   0  0  2  0  0  0  0  0  0  0  0  0
    9.7854  -16.0972   25.6105 N   0  0  0  0  0  0  0  0  0  0  0  0
   10.4261  -17.6919   27.2358 C   0  0  0  0  0  0  0  0  0  0  0  0
   10.6285  -18.9305   27.8364 O   0  0  0  0  0  0  0  0  0  0  0  0
   10.4335  -16.7081   28.0167 O   0  0  0  0  0  0  0  0  0  0  0  0
  2  1  1  0
  3  2  1  0
  4  3  1  0
  4  5  1  0
  5  1  1  0
  5  6  1  1
  6  7  2  0
  9  8  1  1
 10  9  1  0
 11  9  1  0
 12 11  1  1
 13  6  1  0
 13 12  1  0
 14 12  1  0
 14 15  2  0
 16 17  1  0
 17 19  1  0
 17 18  2  0
 19 20  1  0
 20 21  1  0
 21 22  1  0
 23 22  1  6
 23 24  1  0
 24 14  1  0
 25 23  1  0
 25 26  1  0
 27 25  2  0
M  END
$$$$
