PLR.pdb
     RDKit          3D

 27 27  0  0  1  0  0  0  0  0999 V2000
    7.4877  -14.9562   20.7491 N   0  0  0  0  0  0  0  0  0  0  0  0
    6.7285  -14.1058   19.8493 C   0  0  0  0  0  0  0  0  0  0  0  0
    7.8047  -13.1966   19.2395 C   0  0  0  0  0  0  0  0  0  0  0  0
    8.6179  -12.8897   20.5077 C   0  0  0  0  0  0  0  0  0  0  0  0
    8.6380  -14.2205   21.1721 C   0  0  1  0  0  0  0  0  0  0  0  0
    8.8028  -14.1901   22.6398 C   0  0  0  0  0  0  0  0  0  0  0  0
    9.9753  -14.1448   23.0831 O   0  0  0  0  0  0  0  0  0  0  0  0
    5.2402  -11.6945   26.0906 C   0  0  0  0  0  0  0  0  0  0  0  0
    6.5061  -12.0815   25.2889 C   0  0  1  0  0  0  0  0  0  0  0  0
    7.5370  -11.0426   25.6636 C   0  0  0  0  0  0  0  0  0  0  0  0
    6.8325  -13.4565   25.7279 C   0  0  0  0  0  0  0  0  0  0  0  0
    7.8238  -14.2415   24.9834 C   0  0  2  0  0  0  0  0  0  0  0  0
    7.7306  -14.2085   23.5585 N   0  0  0  0  0  0  0  0  0  0  0  0
    8.1618  -15.5761   25.5614 C   0  0  0  0  0  0  0  0  0  0  0  0
    7.4940  -16.0240   26.5530 O   0  0  0  0  0  0  0  0  0  0  0  0
    7.9005  -21.6864   27.8682 N   0  0  0  0  0  0  0  0  0  0  0  0
    6.6330  -21.9855   27.2886 C   0  0  0  0  0  0  0  0  0  0  0  0
    5.7888  -22.6460   27.9703 N   0  0  0  0  0  0  0  0  0  0  0  0
    6.3245  -21.5524   25.9766 N   0  0  0  0  0  0  0  0  0  0  0  0
    7.3115  -20.7969   25.2254 C   0  0  0  0  0  0  0  0  0  0  0  0
    7.4908  -19.4074   25.8291 C   0  0  0  0  0  0  0  0  0  0  0  0
    8.4961  -18.6987   24.9604 C   0  0  0  0  0  0  0  0  0  0  0  0
    9.4038  -17.7618   25.6843 C   0  0  2  0  0  0  0  0  0  0  0  0
    9.1951  -16.4219   25.1018 N   0  0  0  0  0  0  0  0  0  0  0  0
   10.8096  -18.1245   25.4009 C   0  0  0  0  0  0  0  0  0  0  0  0
   11.6441  -17.4058   24.5506 O   0  0  0  0  0  0  0  0  0  0  0  0
   11.3289  -19.1356   25.9355 O   0  0  0  0  0  0  0  0  0  0  0  0
  2  1  1  0
  3  2  1  0
  4  3  1  0
  4  5  1  0
  5  1  1  0
  5  6  1  1
  6  7  2  0
  9  8  1  1
 10  9  1  0
 11  9  1  0
 12 11  1  1
 13  6  1  0
 13 12  1  0
 14 12  1  0
 14 15  2  0
 16 17  1  0
 17 19  1  0
 17 18  2  0
 19 20  1  0
 20 21  1  0
 21 22  1  0
 23 22  1  6
 23 24  1  0
 24 14  1  0
 25 23  1  0
 25 26  1  0
 27 25  2  0
M  END
$$$$
