PLR.pdb
     RDKit          3D

 27 27  0  0  1  0  0  0  0  0999 V2000
    7.1113  -14.8211   20.5730 N   0  0  0  0  0  0  0  0  0  0  0  0
    6.2775  -13.8284   19.9184 C   0  0  0  0  0  0  0  0  0  0  0  0
    7.3024  -12.8766   19.2854 C   0  0  0  0  0  0  0  0  0  0  0  0
    8.3017  -12.7781   20.4496 C   0  0  0  0  0  0  0  0  0  0  0  0
    8.3465  -14.1895   20.9175 C   0  0  1  0  0  0  0  0  0  0  0  0
    8.7187  -14.3722   22.3353 C   0  0  0  0  0  0  0  0  0  0  0  0
    9.9269  -14.5987   22.5851 O   0  0  0  0  0  0  0  0  0  0  0  0
    5.8979  -12.0239   26.6352 C   0  0  0  0  0  0  0  0  0  0  0  0
    6.9991  -12.3614   25.6015 C   0  0  1  0  0  0  0  0  0  0  0  0
    8.1710  -11.4867   25.9814 C   0  0  0  0  0  0  0  0  0  0  0  0
    7.2402  -13.8129   25.7582 C   0  0  0  0  0  0  0  0  0  0  0  0
    8.0922  -14.5169   24.7929 C   0  0  2  0  0  0  0  0  0  0  0  0
    7.8047  -14.3070   23.4097 N   0  0  0  0  0  0  0  0  0  0  0  0
    8.4608  -15.9181   25.1536 C   0  0  0  0  0  0  0  0  0  0  0  0
    7.5775  -16.8385   25.1017 O   0  0  0  0  0  0  0  0  0  0  0  0
   15.1313  -18.9625   22.3305 N   0  0  0  0  0  0  0  0  0  0  0  0
   13.9451  -19.7510   22.3871 C   0  0  0  0  0  0  0  0  0  0  0  0
   13.3410  -20.0265   21.3041 N   0  0  0  0  0  0  0  0  0  0  0  0
   13.4527  -20.2170   23.6298 N   0  0  0  0  0  0  0  0  0  0  0  0
   13.4137  -19.3121   24.7650 C   0  0  0  0  0  0  0  0  0  0  0  0
   12.0324  -19.3290   25.4124 C   0  0  0  0  0  0  0  0  0  0  0  0
   11.4297  -17.9739   25.1515 C   0  0  0  0  0  0  0  0  0  0  0  0
   10.0666  -17.7708   25.7229 C   0  0  2  0  0  0  0  0  0  0  0  0
    9.7431  -16.3390   25.5694 N   0  0  0  0  0  0  0  0  0  0  0  0
   10.1006  -18.0362   27.1777 C   0  0  0  0  0  0  0  0  0  0  0  0
   10.2505  -19.3017   27.7362 O   0  0  0  0  0  0  0  0  0  0  0  0
    9.9905  -17.0947   28.0018 O   0  0  0  0  0  0  0  0  0  0  0  0
  2  1  1  0
  3  2  1  0
  4  3  1  0
  4  5  1  0
  5  1  1  0
  5  6  1  1
  6  7  2  0
  9  8  1  1
 10  9  1  0
 11  9  1  0
 12 11  1  1
 13  6  1  0
 13 12  1  0
 14 12  1  0
 14 15  2  0
 16 17  1  0
 17 19  1  0
 17 18  2  0
 19 20  1  0
 20 21  1  0
 21 22  1  0
 23 22  1  1
 23 24  1  0
 24 14  1  0
 25 23  1  0
 25 26  1  0
 27 25  2  0
M  END
$$$$
