PLR.pdb
     RDKit          3D

 27 27  0  0  1  0  0  0  0  0999 V2000
    7.4918  -14.9611   20.7616 N   0  0  0  0  0  0  0  0  0  0  0  0
    6.5852  -14.1528   19.9654 C   0  0  0  0  0  0  0  0  0  0  0  0
    7.5184  -13.1212   19.3160 C   0  0  0  0  0  0  0  0  0  0  0  0
    8.4021  -12.7877   20.5291 C   0  0  0  0  0  0  0  0  0  0  0  0
    8.6002  -14.1355   21.1267 C   0  0  1  0  0  0  0  0  0  0  0  0
    8.8827  -14.1471   22.5765 C   0  0  0  0  0  0  0  0  0  0  0  0
   10.0827  -14.0428   22.9266 O   0  0  0  0  0  0  0  0  0  0  0  0
    6.0338  -11.7832   26.7368 C   0  0  0  0  0  0  0  0  0  0  0  0
    7.1507  -12.2083   25.7536 C   0  0  1  0  0  0  0  0  0  0  0  0
    8.3836  -11.4718   26.2227 C   0  0  0  0  0  0  0  0  0  0  0  0
    7.2308  -13.6807   25.8777 C   0  0  0  0  0  0  0  0  0  0  0  0
    8.1067  -14.4398   24.9777 C   0  0  2  0  0  0  0  0  0  0  0  0
    7.8925  -14.2669   23.5762 N   0  0  0  0  0  0  0  0  0  0  0  0
    8.4153  -15.8384   25.3995 C   0  0  0  0  0  0  0  0  0  0  0  0
    7.4628  -16.6666   25.5912 O   0  0  0  0  0  0  0  0  0  0  0  0
   12.3065  -22.3267   24.1614 N   0  0  0  0  0  0  0  0  0  0  0  0
   12.1395  -21.8378   22.8328 C   0  0  0  0  0  0  0  0  0  0  0  0
   11.8637  -22.6630   21.9072 N   0  0  0  0  0  0  0  0  0  0  0  0
   12.2792  -20.4569   22.5542 N   0  0  0  0  0  0  0  0  0  0  0  0
   12.3661  -19.5135   23.6548 C   0  0  0  0  0  0  0  0  0  0  0  0
   10.9737  -19.1793   24.1810 C   0  0  0  0  0  0  0  0  0  0  0  0
   11.1752  -18.2118   25.3172 C   0  0  0  0  0  0  0  0  0  0  0  0
    9.9224  -17.7650   25.9930 C   0  0  2  0  0  0  0  0  0  0  0  0
    9.7118  -16.3522   25.6217 N   0  0  0  0  0  0  0  0  0  0  0  0
   10.1221  -17.7851   27.4585 C   0  0  0  0  0  0  0  0  0  0  0  0
   10.0684  -18.9369   28.2370 O   0  0  0  0  0  0  0  0  0  0  0  0
   10.3568  -16.7226   28.0860 O   0  0  0  0  0  0  0  0  0  0  0  0
  2  1  1  0
  3  2  1  0
  4  3  1  0
  4  5  1  0
  5  1  1  0
  5  6  1  1
  6  7  2  0
  9  8  1  1
 10  9  1  0
 11  9  1  0
 12 11  1  1
 13  6  1  0
 13 12  1  0
 14 12  1  0
 14 15  2  0
 16 17  1  0
 17 19  1  0
 17 18  2  0
 19 20  1  0
 20 21  1  0
 21 22  1  0
 23 22  1  6
 23 24  1  0
 24 14  1  0
 25 23  1  0
 25 26  1  0
 27 25  2  0
M  END
$$$$
