PLR.pdb
     RDKit          3D

 27 27  0  0  1  0  0  0  0  0999 V2000
    7.4951  -14.8931   20.4052 N   0  0  0  0  0  0  0  0  0  0  0  0
    6.5370  -14.1245   19.6303 C   0  0  0  0  0  0  0  0  0  0  0  0
    7.3805  -12.9610   19.0901 C   0  0  0  0  0  0  0  0  0  0  0  0
    8.1853  -12.6286   20.3572 C   0  0  0  0  0  0  0  0  0  0  0  0
    8.5007  -13.9892   20.8693 C   0  0  1  0  0  0  0  0  0  0  0  0
    8.7353  -14.0763   22.3251 C   0  0  0  0  0  0  0  0  0  0  0  0
    9.9276  -14.0616   22.7144 O   0  0  0  0  0  0  0  0  0  0  0  0
    5.3371  -12.1951   26.3921 C   0  0  0  0  0  0  0  0  0  0  0  0
    6.6205  -12.4022   25.5525 C   0  0  1  0  0  0  0  0  0  0  0  0
    7.6758  -11.5696   26.2423 C   0  0  0  0  0  0  0  0  0  0  0  0
    6.8699  -13.8605   25.5866 C   0  0  0  0  0  0  0  0  0  0  0  0
    7.8638  -14.4496   24.6819 C   0  0  2  0  0  0  0  0  0  0  0  0
    7.7081  -14.1734   23.2893 N   0  0  0  0  0  0  0  0  0  0  0  0
    8.2877  -15.8447   25.0034 C   0  0  0  0  0  0  0  0  0  0  0  0
    7.4086  -16.7638   25.1143 O   0  0  0  0  0  0  0  0  0  0  0  0
   11.5203  -21.7967   21.8685 N   0  0  0  0  0  0  0  0  0  0  0  0
   12.3711  -20.7212   21.4795 C   0  0  0  0  0  0  0  0  0  0  0  0
   13.1690  -20.8933   20.5061 N   0  0  0  0  0  0  0  0  0  0  0  0
   12.3246  -19.4851   22.1679 N   0  0  0  0  0  0  0  0  0  0  0  0
   12.8222  -19.4095   23.5302 C   0  0  0  0  0  0  0  0  0  0  0  0
   11.6615  -19.3595   24.5191 C   0  0  0  0  0  0  0  0  0  0  0  0
   11.0930  -17.9680   24.4293 C   0  0  0  0  0  0  0  0  0  0  0  0
    9.9631  -17.6885   25.3625 C   0  0  2  0  0  0  0  0  0  0  0  0
    9.6211  -16.2607   25.2111 N   0  0  0  0  0  0  0  0  0  0  0  0
   10.4253  -17.8602   26.7571 C   0  0  0  0  0  0  0  0  0  0  0  0
   10.5889  -16.8133   27.6588 O   0  0  0  0  0  0  0  0  0  0  0  0
   10.7009  -19.0017   27.2030 O   0  0  0  0  0  0  0  0  0  0  0  0
  2  1  1  0
  3  2  1  0
  4  3  1  0
  4  5  1  0
  5  1  1  0
  5  6  1  1
  6  7  2  0
  9  8  1  1
 10  9  1  0
 11  9  1  0
 12 11  1  1
 13  6  1  0
 13 12  1  0
 14 12  1  0
 14 15  2  0
 16 17  1  0
 17 19  1  0
 17 18  2  0
 19 20  1  0
 20 21  1  0
 21 22  1  0
 23 22  1  6
 23 24  1  0
 24 14  1  0
 25 23  1  0
 25 26  1  0
 27 25  2  0
M  END
$$$$
