PLR.pdb
     RDKit          3D

 27 27  0  0  1  0  0  0  0  0999 V2000
    7.3295  -16.1554   20.5111 N   0  0  0  0  0  0  0  0  0  0  0  0
    6.2654  -15.8174   19.5824 C   0  0  0  0  0  0  0  0  0  0  0  0
    6.9793  -14.9490   18.5369 C   0  0  0  0  0  0  0  0  0  0  0  0
    7.8407  -14.0884   19.4755 C   0  0  0  0  0  0  0  0  0  0  0  0
    8.2927  -15.1000   20.4682 C   0  0  1  0  0  0  0  0  0  0  0  0
    8.6316  -14.5659   21.8030 C   0  0  0  0  0  0  0  0  0  0  0  0
    9.8201  -14.2128   21.9932 O   0  0  0  0  0  0  0  0  0  0  0  0
    7.6061  -11.2870   26.0929 C   0  0  0  0  0  0  0  0  0  0  0  0
    7.0220  -12.7154   26.2099 C   0  0  1  0  0  0  0  0  0  0  0  0
    5.7222  -12.5442   26.9608 C   0  0  0  0  0  0  0  0  0  0  0  0
    6.8679  -13.1822   24.8142 C   0  0  0  0  0  0  0  0  0  0  0  0
    7.9659  -13.9071   24.1644 C   0  0  2  0  0  0  0  0  0  0  0  0
    7.7067  -14.4320   22.8616 N   0  0  0  0  0  0  0  0  0  0  0  0
    8.7715  -14.7968   25.0527 C   0  0  0  0  0  0  0  0  0  0  0  0
    8.6541  -14.7001   26.3202 O   0  0  0  0  0  0  0  0  0  0  0  0
   10.2043  -21.7464   28.5389 N   0  0  0  0  0  0  0  0  0  0  0  0
    9.4330  -20.9153   29.4027 C   0  0  0  0  0  0  0  0  0  0  0  0
    9.2784  -21.2674   30.6135 N   0  0  0  0  0  0  0  0  0  0  0  0
    8.8515  -19.7198   28.9162 N   0  0  0  0  0  0  0  0  0  0  0  0
    8.7852  -19.4917   27.4835 C   0  0  0  0  0  0  0  0  0  0  0  0
    9.9723  -18.6515   27.0226 C   0  0  0  0  0  0  0  0  0  0  0  0
    9.4013  -17.5517   26.1670 C   0  0  0  0  0  0  0  0  0  0  0  0
   10.4120  -16.6368   25.5611 C   0  0  2  0  0  0  0  0  0  0  0  0
    9.6927  -15.7700   24.6073 N   0  0  0  0  0  0  0  0  0  0  0  0
   11.3725  -17.4282   24.7616 C   0  0  0  0  0  0  0  0  0  0  0  0
   12.4024  -18.1875   25.3081 O   0  0  0  0  0  0  0  0  0  0  0  0
   11.2966  -17.4483   23.5080 O   0  0  0  0  0  0  0  0  0  0  0  0
  2  1  1  0
  3  2  1  0
  4  3  1  0
  4  5  1  0
  5  1  1  0
  5  6  1  1
  6  7  2  0
  9  8  1  6
 10  9  1  0
 11  9  1  0
 12 11  1  1
 13  6  1  0
 13 12  1  0
 14 12  1  0
 14 15  2  0
 16 17  1  0
 17 19  1  0
 17 18  2  0
 19 20  1  0
 20 21  1  0
 21 22  1  0
 23 22  1  6
 23 24  1  0
 24 14  1  0
 25 23  1  0
 25 26  1  0
 27 25  2  0
M  END
$$$$
