PLR.pdb
     RDKit          3D

 27 27  0  0  1  0  0  0  0  0999 V2000
    7.9337  -15.4369   20.6344 N   0  0  0  0  0  0  0  0  0  0  0  0
    7.0920  -14.8102   19.6305 C   0  0  0  0  0  0  0  0  0  0  0  0
    7.9846  -13.6894   19.0790 C   0  0  0  0  0  0  0  0  0  0  0  0
    8.5751  -13.1697   20.4000 C   0  0  0  0  0  0  0  0  0  0  0  0
    8.8355  -14.4422   21.1252 C   0  0  1  0  0  0  0  0  0  0  0  0
    8.8423  -14.3382   22.5987 C   0  0  0  0  0  0  0  0  0  0  0  0
    9.8754  -13.8701   23.1345 O   0  0  0  0  0  0  0  0  0  0  0  0
    5.4304  -12.1057   26.4354 C   0  0  0  0  0  0  0  0  0  0  0  0
    6.8040  -12.5491   25.8773 C   0  0  1  0  0  0  0  0  0  0  0  0
    7.7699  -12.3582   27.0232 C   0  0  0  0  0  0  0  0  0  0  0  0
    6.6133  -13.9569   25.4632 C   0  0  0  0  0  0  0  0  0  0  0  0
    7.7269  -14.6927   24.8534 C   0  0  2  0  0  0  0  0  0  0  0  0
    7.7672  -14.7299   23.4262 N   0  0  0  0  0  0  0  0  0  0  0  0
    8.1074  -15.9696   25.5273 C   0  0  0  0  0  0  0  0  0  0  0  0
    7.2137  -16.8487   25.7690 O   0  0  0  0  0  0  0  0  0  0  0  0
   14.2471  -18.2709   21.9207 N   0  0  0  0  0  0  0  0  0  0  0  0
   12.9630  -18.5274   21.3575 C   0  0  0  0  0  0  0  0  0  0  0  0
   12.8778  -18.7711   20.1137 N   0  0  0  0  0  0  0  0  0  0  0  0
   11.8060  -18.5102   22.1730 N   0  0  0  0  0  0  0  0  0  0  0  0
   11.9483  -18.3341   23.6075 C   0  0  0  0  0  0  0  0  0  0  0  0
   10.5836  -18.3815   24.2879 C   0  0  0  0  0  0  0  0  0  0  0  0
   10.8428  -18.2102   25.7613 C   0  0  0  0  0  0  0  0  0  0  0  0
    9.7083  -17.6292   26.5364 C   0  0  2  0  0  0  0  0  0  0  0  0
    9.4127  -16.3094   25.9455 N   0  0  0  0  0  0  0  0  0  0  0  0
   10.1441  -17.3746   27.9269 C   0  0  0  0  0  0  0  0  0  0  0  0
   10.3915  -18.3747   28.8620 O   0  0  0  0  0  0  0  0  0  0  0  0
   10.3150  -16.2000   28.3380 O   0  0  0  0  0  0  0  0  0  0  0  0
  2  1  1  0
  3  2  1  0
  4  3  1  0
  4  5  1  0
  5  1  1  0
  5  6  1  1
  6  7  2  0
  9  8  1  1
 10  9  1  0
 11  9  1  0
 12 11  1  6
 13  6  1  0
 13 12  1  0
 14 12  1  0
 14 15  2  0
 16 17  1  0
 17 19  1  0
 17 18  2  0
 19 20  1  0
 20 21  1  0
 21 22  1  0
 23 22  1  6
 23 24  1  0
 24 14  1  0
 25 23  1  0
 25 26  1  0
 27 25  2  0
M  END
$$$$
