PLR.pdb
     RDKit          3D

 27 27  0  0  1  0  0  0  0  0999 V2000
    7.1725  -14.3358   20.5512 N   0  0  0  0  0  0  0  0  0  0  0  0
    6.3735  -13.3004   19.9198 C   0  0  0  0  0  0  0  0  0  0  0  0
    7.4308  -12.3577   19.3280 C   0  0  0  0  0  0  0  0  0  0  0  0
    8.4193  -12.3234   20.5050 C   0  0  0  0  0  0  0  0  0  0  0  0
    8.4205  -13.7495   20.9284 C   0  0  1  0  0  0  0  0  0  0  0  0
    8.7717  -13.9868   22.3434 C   0  0  0  0  0  0  0  0  0  0  0  0
    9.9862  -13.9213   22.6504 O   0  0  0  0  0  0  0  0  0  0  0  0
    5.8226  -12.2394   26.7150 C   0  0  0  0  0  0  0  0  0  0  0  0
    6.9847  -12.4734   25.7201 C   0  0  1  0  0  0  0  0  0  0  0  0
    8.1414  -11.6777   26.2784 C   0  0  0  0  0  0  0  0  0  0  0  0
    7.1940  -13.9382   25.7127 C   0  0  0  0  0  0  0  0  0  0  0  0
    8.1073  -14.5373   24.7328 C   0  0  2  0  0  0  0  0  0  0  0  0
    7.8312  -14.2787   23.3555 N   0  0  0  0  0  0  0  0  0  0  0  0
    8.5607  -15.9278   25.0336 C   0  0  0  0  0  0  0  0  0  0  0  0
    7.6967  -16.8449   25.2390 O   0  0  0  0  0  0  0  0  0  0  0  0
   15.3384  -19.7996   21.5158 N   0  0  0  0  0  0  0  0  0  0  0  0
   14.8912  -20.8526   22.3662 C   0  0  0  0  0  0  0  0  0  0  0  0
   15.4153  -22.0032   22.2429 N   0  0  0  0  0  0  0  0  0  0  0  0
   13.8811  -20.6163   23.3295 N   0  0  0  0  0  0  0  0  0  0  0  0
   13.2804  -19.2974   23.4227 C   0  0  0  0  0  0  0  0  0  0  0  0
   12.1259  -19.3073   24.4200 C   0  0  0  0  0  0  0  0  0  0  0  0
   11.4765  -17.9521   24.3240 C   0  0  0  0  0  0  0  0  0  0  0  0
   10.2681  -17.7713   25.1801 C   0  0  2  0  0  0  0  0  0  0  0  0
    9.9081  -16.3411   25.1223 N   0  0  0  0  0  0  0  0  0  0  0  0
   10.6185  -18.0559   26.5887 C   0  0  0  0  0  0  0  0  0  0  0  0
   10.6080  -17.1031   27.6026 O   0  0  0  0  0  0  0  0  0  0  0  0
   10.9538  -19.2135   26.9425 O   0  0  0  0  0  0  0  0  0  0  0  0
  2  1  1  0
  3  2  1  0
  4  3  1  0
  4  5  1  0
  5  1  1  0
  5  6  1  1
  6  7  2  0
  9  8  1  1
 10  9  1  0
 11  9  1  0
 12 11  1  1
 13  6  1  0
 13 12  1  0
 14 12  1  0
 14 15  2  0
 16 17  1  0
 17 19  1  0
 17 18  2  0
 19 20  1  0
 20 21  1  0
 21 22  1  0
 23 22  1  6
 23 24  1  0
 24 14  1  0
 25 23  1  0
 25 26  1  0
 27 25  2  0
M  END
$$$$
