PLR.pdb
     RDKit          3D

 27 27  0  0  1  0  0  0  0  0999 V2000
    7.3487  -15.0464   20.0682 N   0  0  0  0  0  0  0  0  0  0  0  0
    6.5743  -14.2351   19.1455 C   0  0  0  0  0  0  0  0  0  0  0  0
    7.6369  -13.3377   18.4956 C   0  0  0  0  0  0  0  0  0  0  0  0
    8.4570  -12.9790   19.7456 C   0  0  0  0  0  0  0  0  0  0  0  0
    8.4951  -14.2856   20.4560 C   0  0  1  0  0  0  0  0  0  0  0  0
    8.6710  -14.2023   21.9202 C   0  0  0  0  0  0  0  0  0  0  0  0
    9.8419  -14.0657   22.3490 O   0  0  0  0  0  0  0  0  0  0  0  0
    7.8738  -11.9499   26.5822 C   0  0  0  0  0  0  0  0  0  0  0  0
    6.8075  -13.0549   26.3901 C   0  0  1  0  0  0  0  0  0  0  0  0
    5.5477  -12.4915   27.0052 C   0  0  0  0  0  0  0  0  0  0  0  0
    6.7346  -13.2674   24.9275 C   0  0  0  0  0  0  0  0  0  0  0  0
    7.7093  -14.1460   24.2709 C   0  0  2  0  0  0  0  0  0  0  0  0
    7.6111  -14.2666   22.8511 N   0  0  0  0  0  0  0  0  0  0  0  0
    8.0264  -15.4156   24.9899 C   0  0  0  0  0  0  0  0  0  0  0  0
    7.0953  -16.2539   25.2349 O   0  0  0  0  0  0  0  0  0  0  0  0
   14.1542  -19.0236   21.7168 N   0  0  0  0  0  0  0  0  0  0  0  0
   12.9026  -18.8496   21.0572 C   0  0  0  0  0  0  0  0  0  0  0  0
   12.8272  -19.0943   19.8129 N   0  0  0  0  0  0  0  0  0  0  0  0
   11.7664  -18.4119   21.7793 N   0  0  0  0  0  0  0  0  0  0  0  0
   11.8642  -18.2252   23.2162 C   0  0  0  0  0  0  0  0  0  0  0  0
   10.5060  -17.8442   23.7974 C   0  0  0  0  0  0  0  0  0  0  0  0
   10.7064  -17.7166   25.2844 C   0  0  0  0  0  0  0  0  0  0  0  0
    9.5545  -17.1263   26.0262 C   0  0  2  0  0  0  0  0  0  0  0  0
    9.3082  -15.7904   25.4491 N   0  0  0  0  0  0  0  0  0  0  0  0
    9.9413  -16.9055   27.4368 C   0  0  0  0  0  0  0  0  0  0  0  0
   10.1192  -15.6498   28.0091 O   0  0  0  0  0  0  0  0  0  0  0  0
   10.1337  -17.8792   28.2065 O   0  0  0  0  0  0  0  0  0  0  0  0
  2  1  1  0
  3  2  1  0
  4  3  1  0
  4  5  1  0
  5  1  1  0
  5  6  1  1
  6  7  2  0
  9  8  1  6
 10  9  1  0
 11  9  1  0
 12 11  1  1
 13  6  1  0
 13 12  1  0
 14 12  1  0
 14 15  2  0
 16 17  1  0
 17 19  1  0
 17 18  2  0
 19 20  1  0
 20 21  1  0
 21 22  1  0
 23 22  1  6
 23 24  1  0
 24 14  1  0
 25 23  1  0
 25 26  1  0
 27 25  2  0
M  END
$$$$
