PLR.pdb
     RDKit          3D

 27 27  0  0  1  0  0  0  0  0999 V2000
    6.9389  -14.5535   20.5460 N   0  0  0  0  0  0  0  0  0  0  0  0
    6.1589  -13.5132   19.8992 C   0  0  0  0  0  0  0  0  0  0  0  0
    7.2283  -12.6571   19.2062 C   0  0  0  0  0  0  0  0  0  0  0  0
    8.2766  -12.6119   20.3299 C   0  0  0  0  0  0  0  0  0  0  0  0
    8.2313  -14.0124   20.8294 C   0  0  1  0  0  0  0  0  0  0  0  0
    8.6431  -14.1936   22.2364 C   0  0  0  0  0  0  0  0  0  0  0  0
    9.8741  -14.2559   22.4689 O   0  0  0  0  0  0  0  0  0  0  0  0
    5.8817  -12.0593   26.6035 C   0  0  0  0  0  0  0  0  0  0  0  0
    6.9723  -12.3693   25.5502 C   0  0  1  0  0  0  0  0  0  0  0  0
    8.1392  -11.4864   25.9264 C   0  0  0  0  0  0  0  0  0  0  0  0
    7.2322  -13.8200   25.6828 C   0  0  0  0  0  0  0  0  0  0  0  0
    8.0745  -14.5014   24.6932 C   0  0  2  0  0  0  0  0  0  0  0  0
    7.7423  -14.2990   23.3189 N   0  0  0  0  0  0  0  0  0  0  0  0
    8.4899  -15.8925   25.0421 C   0  0  0  0  0  0  0  0  0  0  0  0
    7.6236  -16.8303   25.0434 O   0  0  0  0  0  0  0  0  0  0  0  0
   15.9655  -19.8497   23.5175 N   0  0  0  0  0  0  0  0  0  0  0  0
   15.3007  -20.8794   24.2453 C   0  0  0  0  0  0  0  0  0  0  0  0
   15.8877  -21.9951   24.4016 N   0  0  0  0  0  0  0  0  0  0  0  0
   14.0097  -20.6587   24.7826 N   0  0  0  0  0  0  0  0  0  0  0  0
   13.3418  -19.3933   24.5344 C   0  0  0  0  0  0  0  0  0  0  0  0
   12.0428  -19.3117   25.3302 C   0  0  0  0  0  0  0  0  0  0  0  0
   11.4086  -17.9956   24.9651 C   0  0  0  0  0  0  0  0  0  0  0  0
   10.1284  -17.6967   25.6705 C   0  0  2  0  0  0  0  0  0  0  0  0
    9.8007  -16.2851   25.3909 N   0  0  0  0  0  0  0  0  0  0  0  0
   10.3397  -17.7936   27.1313 C   0  0  0  0  0  0  0  0  0  0  0  0
   10.4423  -18.9945   27.8264 O   0  0  0  0  0  0  0  0  0  0  0  0
   10.4381  -16.7563   27.8329 O   0  0  0  0  0  0  0  0  0  0  0  0
  2  1  1  0
  3  2  1  0
  4  3  1  0
  4  5  1  0
  5  1  1  0
  5  6  1  1
  6  7  2  0
  9  8  1  1
 10  9  1  0
 11  9  1  0
 12 11  1  1
 13  6  1  0
 13 12  1  0
 14 12  1  0
 14 15  2  0
 16 17  1  0
 17 19  1  0
 17 18  2  0
 19 20  1  0
 20 21  1  0
 21 22  1  0
 23 22  1  6
 23 24  1  0
 24 14  1  0
 25 23  1  0
 25 26  1  0
 27 25  2  0
M  END
$$$$
