PLR.pdb
     RDKit          3D

 27 27  0  0  1  0  0  0  0  0999 V2000
    9.1770  -18.6004   17.0074 N   0  0  0  0  0  0  0  0  0  0  0  0
    9.0253  -20.0429   16.9334 C   0  0  0  0  0  0  0  0  0  0  0  0
    7.5650  -20.2609   17.3542 C   0  0  0  0  0  0  0  0  0  0  0  0
    7.4967  -19.2760   18.5328 C   0  0  0  0  0  0  0  0  0  0  0  0
    8.2596  -18.1189   17.9923 C   0  0  1  0  0  0  0  0  0  0  0  0
    8.8952  -17.2535   19.0068 C   0  0  0  0  0  0  0  0  0  0  0  0
   10.1281  -17.3954   19.1886 O   0  0  0  0  0  0  0  0  0  0  0  0
    6.8057  -12.2349   20.4546 C   0  0  0  0  0  0  0  0  0  0  0  0
    7.8091  -13.2781   19.9069 C   0  0  1  0  0  0  0  0  0  0  0  0
    9.0003  -12.4695   19.4486 C   0  0  0  0  0  0  0  0  0  0  0  0
    8.0824  -14.1821   21.0462 C   0  0  0  0  0  0  0  0  0  0  0  0
    8.7441  -15.4703   20.8098 C   0  0  2  0  0  0  0  0  0  0  0  0
    8.2033  -16.2893   19.7722 N   0  0  0  0  0  0  0  0  0  0  0  0
    9.1814  -16.2091   22.0314 C   0  0  0  0  0  0  0  0  0  0  0  0
    8.3623  -16.9848   22.6293 O   0  0  0  0  0  0  0  0  0  0  0  0
   13.5230  -18.7283   19.1956 N   0  0  0  0  0  0  0  0  0  0  0  0
   14.1574  -19.7830   19.9147 C   0  0  0  0  0  0  0  0  0  0  0  0
   14.8989  -20.5966   19.2806 N   0  0  0  0  0  0  0  0  0  0  0  0
   13.9622  -19.9178   21.3103 N   0  0  0  0  0  0  0  0  0  0  0  0
   13.7654  -18.7284   22.1201 C   0  0  0  0  0  0  0  0  0  0  0  0
   12.3737  -18.7340   22.7451 C   0  0  0  0  0  0  0  0  0  0  0  0
   12.2479  -17.4380   23.5015 C   0  0  0  0  0  0  0  0  0  0  0  0
   10.8474  -16.9878   23.7499 C   0  0  2  0  0  0  0  0  0  0  0  0
   10.4640  -16.1241   22.6162 N   0  0  0  0  0  0  0  0  0  0  0  0
   10.8146  -16.1312   24.9555 C   0  0  0  0  0  0  0  0  0  0  0  0
   10.9867  -16.6038   26.2527 O   0  0  0  0  0  0  0  0  0  0  0  0
   10.6217  -14.8941   24.8552 O   0  0  0  0  0  0  0  0  0  0  0  0
  2  1  1  0
  3  2  1  0
  4  3  1  0
  4  5  1  0
  5  1  1  0
  5  6  1  1
  6  7  2  0
  9  8  1  1
 10  9  1  0
 11  9  1  0
 12 11  1  1
 13  6  1  0
 13 12  1  0
 14 12  1  0
 14 15  2  0
 16 17  1  0
 17 19  1  0
 17 18  2  0
 19 20  1  0
 20 21  1  0
 21 22  1  0
 23 22  1  6
 23 24  1  0
 24 14  1  0
 25 23  1  0
 25 26  1  0
 27 25  2  0
M  END
$$$$
