DKF.pdb
     RDKit          3D

 29 29  0  0  1  0  0  0  0  0999 V2000
    9.2600  -16.9095   19.0675 N   0  0  0  0  0  0  0  0  0  0  0  0
   10.0373  -16.5367   20.2114 C   0  0  1  0  0  0  0  0  0  0  0  0
   10.6215  -15.1633   20.0985 C   0  0  0  0  0  0  0  0  0  0  0  0
   11.5912  -14.9909   19.0197 C   0  0  0  0  0  0  0  0  0  0  0  0
   12.5534  -15.7486   18.7572 O   0  0  0  0  0  0  0  0  0  0  0  0
    9.3629  -16.7954   21.4999 C   0  0  0  0  0  0  0  0  0  0  0  0
    8.1869  -16.3786   21.6990 O   0  0  0  0  0  0  0  0  0  0  0  0
   11.4433  -13.8771   18.1927 O   0  0  0  0  0  0  0  0  0  0  0  0
   10.0113  -17.5052   22.5221 N   0  0  0  0  0  0  0  0  0  0  0  0
    9.3491  -17.9533   23.7550 C   0  0  1  0  0  0  0  0  0  0  0  0
    9.4593  -19.4394   23.9002 C   0  0  0  0  0  0  0  0  0  0  0  0
    8.7403  -19.9585   25.0865 C   0  0  0  0  0  0  0  0  0  0  0  0
    8.8785  -21.4610   25.2623 C   0  0  0  0  0  0  0  0  0  0  0  0
    8.1112  -21.9585   26.4682 C   0  0  0  0  0  0  0  0  0  0  0  0
    6.6976  -22.1693   26.1161 N   0  0  0  0  0  0  0  0  0  0  0  0
    9.8178  -17.1825   24.9096 C   0  0  0  0  0  0  0  0  0  0  0  0
   11.0222  -16.9598   25.0986 O   0  0  0  0  0  0  0  0  0  0  0  0
    8.8658  -16.6797   25.8343 N   0  0  0  0  0  0  0  0  0  0  0  0
    9.2433  -15.9610   27.0563 C   0  0  1  0  0  0  0  0  0  0  0  0
    8.0437  -15.1865   27.5167 C   0  0  0  0  0  0  0  0  0  0  0  0
    7.8663  -13.9560   26.7203 C   0  0  0  0  0  0  0  0  0  0  0  0
    6.6700  -13.7443   26.0950 C   0  0  0  0  0  0  0  0  0  0  0  0
    6.4569  -12.6158   25.3608 C   0  0  0  0  0  0  0  0  0  0  0  0
    7.4490  -11.6669   25.2370 C   0  0  0  0  0  0  0  0  0  0  0  0
    8.6443  -11.8679   25.8558 C   0  0  0  0  0  0  0  0  0  0  0  0
    8.8649  -13.0048   26.5982 C   0  0  0  0  0  0  0  0  0  0  0  0
    9.7340  -16.9292   28.0668 C   0  0  0  0  0  0  0  0  0  0  0  0
   10.1692  -16.5510   29.1796 O   0  0  0  0  0  0  0  0  0  0  0  0
    9.7319  -18.3036   27.8195 O   0  0  0  0  0  0  0  0  0  0  0  0
  2  1  1  6
  3  2  1  0
  4  8  1  0
  4  3  1  0
  5  4  2  0
  6  2  1  0
  7  6  2  0
  9  6  1  0
 10  9  1  0
 10 11  1  1
 12 13  1  0
 12 11  1  0
 13 14  1  0
 14 15  1  0
 16 17  2  0
 16 10  1  0
 18 16  1  0
 19 18  1  0
 19 20  1  1
 20 21  1  0
 21 26  2  0
 21 22  1  0
 22 23  2  0
 23 24  1  0
 25 24  2  0
 26 25  1  0
 27 29  1  0
 27 19  1  0
 28 27  2  0
M  END
$$$$
