DKF.pdb
     RDKit          3D

 29 29  0  0  1  0  0  0  0  0999 V2000
    6.6264  -16.5655   19.6437 N   0  0  0  0  0  0  0  0  0  0  0  0
    7.5034  -15.8147   20.4916 C   0  0  1  0  0  0  0  0  0  0  0  0
    7.6229  -14.3794   20.0841 C   0  0  0  0  0  0  0  0  0  0  0  0
    8.1547  -14.1605   18.7413 C   0  0  0  0  0  0  0  0  0  0  0  0
    8.5790  -15.0404   17.9573 O   0  0  0  0  0  0  0  0  0  0  0  0
    7.2472  -16.0073   21.9335 C   0  0  0  0  0  0  0  0  0  0  0  0
    6.4226  -15.2660   22.5392 O   0  0  0  0  0  0  0  0  0  0  0  0
    8.2006  -12.8470   18.2730 O   0  0  0  0  0  0  0  0  0  0  0  0
    7.9107  -17.0117   22.6548 N   0  0  0  0  0  0  0  0  0  0  0  0
    7.6575  -17.3050   24.0722 C   0  0  1  0  0  0  0  0  0  0  0  0
    7.4308  -18.7712   24.2730 C   0  0  0  0  0  0  0  0  0  0  0  0
    6.1805  -19.2538   23.6423 C   0  0  0  0  0  0  0  0  0  0  0  0
    6.0021  -20.7593   23.7379 C   0  0  0  0  0  0  0  0  0  0  0  0
    4.8091  -21.2357   22.9378 C   0  0  0  0  0  0  0  0  0  0  0  0
    4.6530  -22.6923   23.0818 N   0  0  0  0  0  0  0  0  0  0  0  0
    8.6977  -16.7180   24.9210 C   0  0  0  0  0  0  0  0  0  0  0  0
    9.8918  -16.7281   24.5892 O   0  0  0  0  0  0  0  0  0  0  0  0
    8.3255  -16.1238   26.1549 N   0  0  0  0  0  0  0  0  0  0  0  0
    9.2886  -15.4696   27.0476 C   0  0  1  0  0  0  0  0  0  0  0  0
    8.5328  -14.4790   27.8835 C   0  0  0  0  0  0  0  0  0  0  0  0
    7.7620  -13.5464   27.0374 C   0  0  0  0  0  0  0  0  0  0  0  0
    6.5182  -13.1593   27.4499 C   0  0  0  0  0  0  0  0  0  0  0  0
    5.7768  -12.2891   26.7077 C   0  0  0  0  0  0  0  0  0  0  0  0
    6.2720  -11.7841   25.5246 C   0  0  0  0  0  0  0  0  0  0  0  0
    7.5097  -12.1631   25.1046 C   0  0  0  0  0  0  0  0  0  0  0  0
    8.2626  -13.0409   25.8496 C   0  0  0  0  0  0  0  0  0  0  0  0
    9.9904  -16.4968   27.8547 C   0  0  0  0  0  0  0  0  0  0  0  0
    9.5950  -17.6856   27.8897 O   0  0  0  0  0  0  0  0  0  0  0  0
   11.1217  -16.1814   28.6103 O   0  0  0  0  0  0  0  0  0  0  0  0
  2  1  1  6
  3  2  1  0
  4  8  1  0
  4  3  1  0
  5  4  2  0
  6  2  1  0
  7  6  2  0
  9  6  1  0
 10  9  1  0
 10 11  1  6
 12 13  1  0
 12 11  1  0
 13 14  1  0
 14 15  1  0
 16 17  2  0
 16 10  1  0
 18 16  1  0
 19 18  1  0
 19 20  1  1
 20 21  1  0
 21 26  2  0
 21 22  1  0
 22 23  2  0
 23 24  1  0
 25 24  2  0
 26 25  1  0
 27 29  1  0
 27 19  1  0
 28 27  2  0
M  END
$$$$
