DKF.pdb
     RDKit          3D

 29 29  0  0  1  0  0  0  0  0999 V2000
    8.4414  -14.8434   18.4443 N   0  0  0  0  0  0  0  0  0  0  0  0
    9.1403  -14.7617   19.6920 C   0  0  1  0  0  0  0  0  0  0  0  0
    9.6294  -13.3806   19.9984 C   0  0  0  0  0  0  0  0  0  0  0  0
   10.7714  -12.9386   19.2019 C   0  0  0  0  0  0  0  0  0  0  0  0
   11.8264  -13.5812   18.9947 O   0  0  0  0  0  0  0  0  0  0  0  0
    8.4312  -15.4077   20.8153 C   0  0  0  0  0  0  0  0  0  0  0  0
    7.2976  -14.9861   21.1806 O   0  0  0  0  0  0  0  0  0  0  0  0
   10.6931  -11.6787   18.6077 O   0  0  0  0  0  0  0  0  0  0  0  0
    8.9995  -16.4959   21.4949 N   0  0  0  0  0  0  0  0  0  0  0  0
    8.3237  -17.2316   22.5726 C   0  0  1  0  0  0  0  0  0  0  0  0
    8.2526  -18.6914   22.2477 C   0  0  0  0  0  0  0  0  0  0  0  0
    7.5410  -19.4788   23.2809 C   0  0  0  0  0  0  0  0  0  0  0  0
    7.4442  -20.9577   22.9478 C   0  0  0  0  0  0  0  0  0  0  0  0
    6.6991  -21.7269   24.0171 C   0  0  0  0  0  0  0  0  0  0  0  0
    5.7110  -22.6251   23.3979 N   0  0  0  0  0  0  0  0  0  0  0  0
    8.9189  -16.9158   23.8738 C   0  0  0  0  0  0  0  0  0  0  0  0
   10.1364  -17.0262   24.0772 O   0  0  0  0  0  0  0  0  0  0  0  0
    8.0769  -16.4728   24.9268 N   0  0  0  0  0  0  0  0  0  0  0  0
    8.5899  -16.0558   26.2365 C   0  0  1  0  0  0  0  0  0  0  0  0
    7.4866  -15.3271   26.9455 C   0  0  0  0  0  0  0  0  0  0  0  0
    7.3697  -13.9370   26.4619 C   0  0  0  0  0  0  0  0  0  0  0  0
    6.1293  -13.3687   26.3881 C   0  0  0  0  0  0  0  0  0  0  0  0
    5.9753  -12.0835   25.9608 C   0  0  0  0  0  0  0  0  0  0  0  0
    7.0729  -11.3342   25.5948 C   0  0  0  0  0  0  0  0  0  0  0  0
    8.3129  -11.8906   25.6646 C   0  0  0  0  0  0  0  0  0  0  0  0
    8.4743  -13.1871   26.0953 C   0  0  0  0  0  0  0  0  0  0  0  0
    9.0731  -17.2451   26.9790 C   0  0  0  0  0  0  0  0  0  0  0  0
    8.7237  -18.4050   26.6575 O   0  0  0  0  0  0  0  0  0  0  0  0
    9.9378  -17.1215   28.0686 O   0  0  0  0  0  0  0  0  0  0  0  0
  2  1  1  6
  3  2  1  0
  4  8  1  0
  4  3  1  0
  5  4  2  0
  6  2  1  0
  7  6  2  0
  9  6  1  0
 10  9  1  0
 10 11  1  6
 12 13  1  0
 12 11  1  0
 13 14  1  0
 14 15  1  0
 16 17  2  0
 16 10  1  0
 18 16  1  0
 19 18  1  0
 19 20  1  1
 20 21  1  0
 21 26  2  0
 21 22  1  0
 22 23  2  0
 23 24  1  0
 25 24  2  0
 26 25  1  0
 27 29  1  0
 27 19  1  0
 28 27  2  0
M  END
$$$$
