DKF.pdb
     RDKit          3D

 29 29  0  0  1  0  0  0  0  0999 V2000
    6.2604  -15.8732   19.8028 N   0  0  0  0  0  0  0  0  0  0  0  0
    7.4535  -15.9423   20.5924 C   0  0  1  0  0  0  0  0  0  0  0  0
    8.4213  -14.8423   20.2863 C   0  0  0  0  0  0  0  0  0  0  0  0
    8.8938  -14.8016   18.9047 C   0  0  0  0  0  0  0  0  0  0  0  0
    9.5944  -13.9027   18.3849 O   0  0  0  0  0  0  0  0  0  0  0  0
    7.2024  -16.1332   22.0355 C   0  0  0  0  0  0  0  0  0  0  0  0
    6.6152  -15.2366   22.7046 O   0  0  0  0  0  0  0  0  0  0  0  0
    8.5373  -15.8616   18.0706 O   0  0  0  0  0  0  0  0  0  0  0  0
    7.6087  -17.3073   22.6879 N   0  0  0  0  0  0  0  0  0  0  0  0
    7.3426  -17.5906   24.1049 C   0  0  1  0  0  0  0  0  0  0  0  0
    7.1852  -19.0631   24.3258 C   0  0  0  0  0  0  0  0  0  0  0  0
    5.9155  -19.5963   23.7804 C   0  0  0  0  0  0  0  0  0  0  0  0
    6.1171  -20.5665   22.6292 C   0  0  0  0  0  0  0  0  0  0  0  0
    4.7989  -21.0406   22.0565 C   0  0  0  0  0  0  0  0  0  0  0  0
    5.0315  -21.8163   20.8274 N   0  0  0  0  0  0  0  0  0  0  0  0
    8.3354  -16.9391   24.9633 C   0  0  0  0  0  0  0  0  0  0  0  0
    9.5252  -16.8465   24.6289 O   0  0  0  0  0  0  0  0  0  0  0  0
    7.9212  -16.4014   26.2097 N   0  0  0  0  0  0  0  0  0  0  0  0
    8.8616  -15.8574   27.1957 C   0  0  1  0  0  0  0  0  0  0  0  0
    8.1561  -14.7626   27.9405 C   0  0  0  0  0  0  0  0  0  0  0  0
    7.8264  -13.6360   27.0450 C   0  0  0  0  0  0  0  0  0  0  0  0
    6.5291  -13.4678   26.6502 C   0  0  0  0  0  0  0  0  0  0  0  0
    6.1766  -12.4335   25.8353 C   0  0  0  0  0  0  0  0  0  0  0  0
    7.1271  -11.5377   25.3949 C   0  0  0  0  0  0  0  0  0  0  0  0
    8.4221  -11.6960   25.7822 C   0  0  0  0  0  0  0  0  0  0  0  0
    8.7836  -12.7378   26.6046 C   0  0  0  0  0  0  0  0  0  0  0  0
    9.3374  -16.9494   28.0791 C   0  0  0  0  0  0  0  0  0  0  0  0
    8.7497  -18.0553   28.1289 O   0  0  0  0  0  0  0  0  0  0  0  0
   10.4608  -16.7901   28.8932 O   0  0  0  0  0  0  0  0  0  0  0  0
  2  1  1  6
  3  2  1  0
  4  8  1  0
  4  3  1  0
  5  4  2  0
  6  2  1  0
  7  6  2  0
  9  6  1  0
 10  9  1  0
 10 11  1  6
 12 13  1  0
 12 11  1  0
 13 14  1  0
 14 15  1  0
 16 17  2  0
 16 10  1  0
 18 16  1  0
 19 18  1  0
 19 20  1  1
 20 21  1  0
 21 26  2  0
 21 22  1  0
 22 23  2  0
 23 24  1  0
 25 24  2  0
 26 25  1  0
 27 29  1  0
 27 19  1  0
 28 27  2  0
M  END
$$$$
