DKF.pdb
     RDKit          3D

 29 29  0  0  1  0  0  0  0  0999 V2000
    6.9881  -16.5556   19.1100 N   0  0  0  0  0  0  0  0  0  0  0  0
    7.6478  -15.7605   20.1021 C   0  0  1  0  0  0  0  0  0  0  0  0
    7.5790  -14.2930   19.8153 C   0  0  0  0  0  0  0  0  0  0  0  0
    8.2063  -13.8780   18.5631 C   0  0  0  0  0  0  0  0  0  0  0  0
    8.8777  -14.6020   17.7924 O   0  0  0  0  0  0  0  0  0  0  0  0
    7.2843  -16.1162   21.4890 C   0  0  0  0  0  0  0  0  0  0  0  0
    6.5647  -15.3398   22.1786 O   0  0  0  0  0  0  0  0  0  0  0  0
    8.0506  -12.5470   18.1750 O   0  0  0  0  0  0  0  0  0  0  0  0
    7.7286  -17.3165   22.0644 N   0  0  0  0  0  0  0  0  0  0  0  0
    7.3244  -17.7843   23.3974 C   0  0  1  0  0  0  0  0  0  0  0  0
    7.2593  -19.2797   23.4320 C   0  0  0  0  0  0  0  0  0  0  0  0
    6.8470  -19.8093   24.7523 C   0  0  0  0  0  0  0  0  0  0  0  0
    6.8447  -21.3269   24.8164 C   0  0  0  0  0  0  0  0  0  0  0  0
    6.3870  -21.8316   26.1677 C   0  0  0  0  0  0  0  0  0  0  0  0
    6.3850  -23.3035   26.1834 N   0  0  0  0  0  0  0  0  0  0  0  0
    8.1573  -17.1772   24.4389 C   0  0  0  0  0  0  0  0  0  0  0  0
    9.3950  -17.2028   24.3804 O   0  0  0  0  0  0  0  0  0  0  0  0
    7.5278  -16.5445   25.5423 N   0  0  0  0  0  0  0  0  0  0  0  0
    8.2767  -15.9599   26.6602 C   0  0  1  0  0  0  0  0  0  0  0  0
    7.3761  -14.9737   27.3439 C   0  0  0  0  0  0  0  0  0  0  0  0
    7.3412  -13.6901   26.6153 C   0  0  0  0  0  0  0  0  0  0  0  0
    8.4563  -13.2900   25.9344 C   0  0  0  0  0  0  0  0  0  0  0  0
    8.4646  -12.1193   25.2364 C   0  0  0  0  0  0  0  0  0  0  0  0
    7.3438  -11.3174   25.2065 C   0  0  0  0  0  0  0  0  0  0  0  0
    6.2279  -11.7065   25.8812 C   0  0  0  0  0  0  0  0  0  0  0  0
    6.2137  -12.8871   26.5872 C   0  0  0  0  0  0  0  0  0  0  0  0
    8.7452  -17.0415   27.5601 C   0  0  0  0  0  0  0  0  0  0  0  0
    8.2652  -18.1977   27.5003 O   0  0  0  0  0  0  0  0  0  0  0  0
    9.7413  -16.8159   28.5125 O   0  0  0  0  0  0  0  0  0  0  0  0
  2  1  1  6
  3  2  1  0
  4  8  1  0
  4  3  1  0
  5  4  2  0
  6  2  1  0
  7  6  2  0
  9  6  1  0
 10  9  1  0
 10 11  1  6
 12 13  1  0
 12 11  1  0
 13 14  1  0
 14 15  1  0
 16 17  2  0
 16 10  1  0
 18 16  1  0
 19 18  1  0
 19 20  1  1
 20 21  1  0
 21 26  2  0
 21 22  1  0
 22 23  2  0
 23 24  1  0
 25 24  2  0
 26 25  1  0
 27 29  1  0
 27 19  1  0
 28 27  2  0
M  END
$$$$
