DKF.pdb
     RDKit          3D

 29 29  0  0  1  0  0  0  0  0999 V2000
   10.2045  -14.2044   18.3226 N   0  0  0  0  0  0  0  0  0  0  0  0
   10.8132  -14.9856   19.3574 C   0  0  1  0  0  0  0  0  0  0  0  0
   12.2288  -14.5861   19.6349 C   0  0  0  0  0  0  0  0  0  0  0  0
   13.1348  -14.6881   18.4936 C   0  0  0  0  0  0  0  0  0  0  0  0
   13.7829  -13.7510   17.9731 O   0  0  0  0  0  0  0  0  0  0  0  0
    9.9811  -15.1195   20.5704 C   0  0  0  0  0  0  0  0  0  0  0  0
    9.6377  -14.0944   21.2244 O   0  0  0  0  0  0  0  0  0  0  0  0
   13.3048  -15.9469   17.9167 O   0  0  0  0  0  0  0  0  0  0  0  0
    9.5581  -16.3805   21.0178 N   0  0  0  0  0  0  0  0  0  0  0  0
    8.6539  -16.5838   22.1581 C   0  0  1  0  0  0  0  0  0  0  0  0
    7.8190  -17.8097   21.9545 C   0  0  0  0  0  0  0  0  0  0  0  0
    6.9693  -17.7351   20.7435 C   0  0  0  0  0  0  0  0  0  0  0  0
    6.2531  -19.0378   20.4315 C   0  0  0  0  0  0  0  0  0  0  0  0
    5.3810  -18.9185   19.2004 C   0  0  0  0  0  0  0  0  0  0  0  0
    4.7456  -20.2128   18.9038 N   0  0  0  0  0  0  0  0  0  0  0  0
    9.3913  -16.5408   23.4236 C   0  0  0  0  0  0  0  0  0  0  0  0
   10.4694  -17.1344   23.5698 O   0  0  0  0  0  0  0  0  0  0  0  0
    8.8545  -15.7999   24.5085 N   0  0  0  0  0  0  0  0  0  0  0  0
    9.5075  -15.7192   25.8198 C   0  0  1  0  0  0  0  0  0  0  0  0
    9.6739  -14.2665   26.1558 C   0  0  0  0  0  0  0  0  0  0  0  0
    8.3646  -13.5973   26.2892 C   0  0  0  0  0  0  0  0  0  0  0  0
    7.7547  -13.1159   25.1652 C   0  0  0  0  0  0  0  0  0  0  0  0
    6.5392  -12.5036   25.2391 C   0  0  0  0  0  0  0  0  0  0  0  0
    5.9037  -12.3597   26.4538 C   0  0  0  0  0  0  0  0  0  0  0  0
    6.5024  -12.8356   27.5795 C   0  0  0  0  0  0  0  0  0  0  0  0
    7.7290  -13.4546   27.5109 C   0  0  0  0  0  0  0  0  0  0  0  0
    8.7001  -16.4592   26.8197 C   0  0  0  0  0  0  0  0  0  0  0  0
    9.0902  -16.6002   28.0024 O   0  0  0  0  0  0  0  0  0  0  0  0
    7.4707  -17.0304   26.4842 O   0  0  0  0  0  0  0  0  0  0  0  0
  2  1  1  6
  3  2  1  0
  4  8  1  0
  4  3  1  0
  5  4  2  0
  6  2  1  0
  7  6  2  0
  9  6  1  0
 10  9  1  0
 10 11  1  6
 12 13  1  0
 12 11  1  0
 13 14  1  0
 14 15  1  0
 16 17  2  0
 16 10  1  0
 18 16  1  0
 19 18  1  0
 19 20  1  1
 20 21  1  0
 21 26  2  0
 21 22  1  0
 22 23  2  0
 23 24  1  0
 25 24  2  0
 26 25  1  0
 27 29  1  0
 27 19  1  0
 28 27  2  0
M  END
$$$$
