DKF.pdb
     RDKit          3D

 29 29  0  0  1  0  0  0  0  0999 V2000
   10.0680  -13.6758   19.7329 N   0  0  0  0  0  0  0  0  0  0  0  0
    8.6983  -13.3293   19.9684 C   0  0  1  0  0  0  0  0  0  0  0  0
    7.9481  -13.0238   18.7098 C   0  0  0  0  0  0  0  0  0  0  0  0
    8.0803  -14.0239   17.6533 C   0  0  0  0  0  0  0  0  0  0  0  0
    8.5847  -15.1646   17.7686 O   0  0  0  0  0  0  0  0  0  0  0  0
    7.9948  -14.2623   20.8721 C   0  0  0  0  0  0  0  0  0  0  0  0
    6.8160  -14.0139   21.2530 O   0  0  0  0  0  0  0  0  0  0  0  0
    7.6020  -13.6892   16.3861 O   0  0  0  0  0  0  0  0  0  0  0  0
    8.6182  -15.4359   21.3227 N   0  0  0  0  0  0  0  0  0  0  0  0
    8.0053  -16.3764   22.2709 C   0  0  1  0  0  0  0  0  0  0  0  0
    8.0060  -17.7642   21.7089 C   0  0  0  0  0  0  0  0  0  0  0  0
    7.3339  -17.8542   20.3920 C   0  0  0  0  0  0  0  0  0  0  0  0
    7.2393  -19.2746   19.8621 C   0  0  0  0  0  0  0  0  0  0  0  0
    6.5392  -19.3287   18.5215 C   0  0  0  0  0  0  0  0  0  0  0  0
    6.4475  -20.7218   18.0550 N   0  0  0  0  0  0  0  0  0  0  0  0
    8.6094  -16.2469   23.5995 C   0  0  0  0  0  0  0  0  0  0  0  0
    9.8236  -16.0466   23.7464 O   0  0  0  0  0  0  0  0  0  0  0  0
    7.7803  -16.3546   24.7463 N   0  0  0  0  0  0  0  0  0  0  0  0
    8.2930  -16.2323   26.1155 C   0  0  1  0  0  0  0  0  0  0  0  0
    7.2105  -15.6171   26.9526 C   0  0  0  0  0  0  0  0  0  0  0  0
    7.0327  -14.1880   26.6270 C   0  0  0  0  0  0  0  0  0  0  0  0
    8.0294  -13.3110   26.9504 C   0  0  0  0  0  0  0  0  0  0  0  0
    7.9143  -11.9851   26.6561 C   0  0  0  0  0  0  0  0  0  0  0  0
    6.7861  -11.5063   26.0253 C   0  0  0  0  0  0  0  0  0  0  0  0
    5.7875  -12.3712   25.6988 C   0  0  0  0  0  0  0  0  0  0  0  0
    5.8982  -13.7104   25.9931 C   0  0  0  0  0  0  0  0  0  0  0  0
    8.7195  -17.5660   26.6039 C   0  0  0  0  0  0  0  0  0  0  0  0
    8.3168  -18.6219   26.0621 O   0  0  0  0  0  0  0  0  0  0  0  0
    9.5879  -17.7003   27.6893 O   0  0  0  0  0  0  0  0  0  0  0  0
  2  1  1  6
  3  2  1  0
  4  8  1  0
  4  3  1  0
  5  4  2  0
  6  2  1  0
  7  6  2  0
  9  6  1  0
 10  9  1  0
 10 11  1  6
 12 13  1  0
 12 11  1  0
 13 14  1  0
 14 15  1  0
 16 17  2  0
 16 10  1  0
 18 16  1  0
 19 18  1  0
 19 20  1  1
 20 21  1  0
 21 26  2  0
 21 22  1  0
 22 23  2  0
 23 24  1  0
 25 24  2  0
 26 25  1  0
 27 29  1  0
 27 19  1  0
 28 27  2  0
M  END
$$$$
