DKF.pdb
     RDKit          3D

 29 29  0  0  1  0  0  0  0  0999 V2000
    6.1728  -16.2460   19.4876 N   0  0  0  0  0  0  0  0  0  0  0  0
    7.2994  -16.0272   20.3446 C   0  0  1  0  0  0  0  0  0  0  0  0
    8.0073  -14.7391   20.0616 C   0  0  0  0  0  0  0  0  0  0  0  0
    8.5854  -14.6325   18.7243 C   0  0  0  0  0  0  0  0  0  0  0  0
    8.6084  -15.5298   17.8507 O   0  0  0  0  0  0  0  0  0  0  0  0
    7.0108  -16.2487   21.7762 C   0  0  0  0  0  0  0  0  0  0  0  0
    6.1987  -15.4975   22.3865 O   0  0  0  0  0  0  0  0  0  0  0  0
    9.1732  -13.4172   18.3718 O   0  0  0  0  0  0  0  0  0  0  0  0
    7.6292  -17.2918   22.4824 N   0  0  0  0  0  0  0  0  0  0  0  0
    7.3377  -17.6161   23.8856 C   0  0  1  0  0  0  0  0  0  0  0  0
    7.1414  -19.0908   24.0541 C   0  0  0  0  0  0  0  0  0  0  0  0
    6.0355  -19.6245   23.2258 C   0  0  0  0  0  0  0  0  0  0  0  0
    5.8854  -21.1328   23.3245 C   0  0  0  0  0  0  0  0  0  0  0  0
    4.7691  -21.6454   22.4404 C   0  0  0  0  0  0  0  0  0  0  0  0
    5.0544  -21.3289   21.0314 N   0  0  0  0  0  0  0  0  0  0  0  0
    8.3348  -17.0189   24.7779 C   0  0  0  0  0  0  0  0  0  0  0  0
    9.5366  -16.9793   24.4780 O   0  0  0  0  0  0  0  0  0  0  0  0
    7.9106  -16.4728   26.0172 N   0  0  0  0  0  0  0  0  0  0  0  0
    8.8376  -15.8747   26.9843 C   0  0  1  0  0  0  0  0  0  0  0  0
    8.0436  -14.9578   27.8674 C   0  0  0  0  0  0  0  0  0  0  0  0
    7.5514  -13.7872   27.1143 C   0  0  0  0  0  0  0  0  0  0  0  0
    8.4507  -13.0227   26.4258 C   0  0  0  0  0  0  0  0  0  0  0  0
    8.0395  -11.9411   25.7054 C   0  0  0  0  0  0  0  0  0  0  0  0
    6.7047  -11.6001   25.6602 C   0  0  0  0  0  0  0  0  0  0  0  0
    5.8007  -12.3547   26.3423 C   0  0  0  0  0  0  0  0  0  0  0  0
    6.2099  -13.4475   27.0709 C   0  0  0  0  0  0  0  0  0  0  0  0
    9.5301  -16.9502   27.7347 C   0  0  0  0  0  0  0  0  0  0  0  0
   10.4287  -16.6928   28.5695 O   0  0  0  0  0  0  0  0  0  0  0  0
    9.2093  -18.2955   27.5414 O   0  0  0  0  0  0  0  0  0  0  0  0
  2  1  1  6
  3  2  1  0
  4  8  1  0
  4  3  1  0
  5  4  2  0
  6  2  1  0
  7  6  2  0
  9  6  1  0
 10  9  1  0
 10 11  1  6
 12 13  1  0
 12 11  1  0
 13 14  1  0
 14 15  1  0
 16 17  2  0
 16 10  1  0
 18 16  1  0
 19 18  1  0
 19 20  1  1
 20 21  1  0
 21 26  2  0
 21 22  1  0
 22 23  2  0
 23 24  1  0
 25 24  2  0
 26 25  1  0
 27 29  1  0
 27 19  1  0
 28 27  2  0
M  END
$$$$
