DKF.pdb
     RDKit          3D

 29 29  0  0  1  0  0  0  0  0999 V2000
    7.4757  -16.1159   19.3786 N   0  0  0  0  0  0  0  0  0  0  0  0
    8.2664  -15.3150   20.2646 C   0  0  1  0  0  0  0  0  0  0  0  0
    8.0762  -13.8458   20.0508 C   0  0  0  0  0  0  0  0  0  0  0  0
    8.3446  -13.3790   18.6929 C   0  0  0  0  0  0  0  0  0  0  0  0
    8.1869  -12.2132   18.2629 O   0  0  0  0  0  0  0  0  0  0  0  0
    8.1794  -15.7294   21.6798 C   0  0  0  0  0  0  0  0  0  0  0  0
    7.3392  -15.1875   22.4523 O   0  0  0  0  0  0  0  0  0  0  0  0
    8.8242  -14.3128   17.7739 O   0  0  0  0  0  0  0  0  0  0  0  0
    9.0234  -16.7272   22.1910 N   0  0  0  0  0  0  0  0  0  0  0  0
    8.8729  -17.3217   23.5263 C   0  0  1  0  0  0  0  0  0  0  0  0
    9.3371  -18.7452   23.5229 C   0  0  0  0  0  0  0  0  0  0  0  0
    8.5321  -19.6129   22.6324 C   0  0  0  0  0  0  0  0  0  0  0  0
    9.1119  -21.0072   22.4682 C   0  0  0  0  0  0  0  0  0  0  0  0
    8.2809  -21.8543   21.5290 C   0  0  0  0  0  0  0  0  0  0  0  0
    8.9321  -23.1566   21.3130 N   0  0  0  0  0  0  0  0  0  0  0  0
    9.4896  -16.4725   24.5488 C   0  0  0  0  0  0  0  0  0  0  0  0
   10.5832  -15.9197   24.3635 O   0  0  0  0  0  0  0  0  0  0  0  0
    8.8152  -16.2802   25.7826 N   0  0  0  0  0  0  0  0  0  0  0  0
    9.3991  -15.5345   26.9030 C   0  0  1  0  0  0  0  0  0  0  0  0
    8.2704  -14.9197   27.6769 C   0  0  0  0  0  0  0  0  0  0  0  0
    7.7156  -13.7484   26.9698 C   0  0  0  0  0  0  0  0  0  0  0  0
    6.3724  -13.7051   26.7225 C   0  0  0  0  0  0  0  0  0  0  0  0
    5.8147  -12.6371   26.0851 C   0  0  0  0  0  0  0  0  0  0  0  0
    6.6002  -11.5799   25.6784 C   0  0  0  0  0  0  0  0  0  0  0  0
    7.9390  -11.6129   25.9198 C   0  0  0  0  0  0  0  0  0  0  0  0
    8.5074  -12.6880   26.5628 C   0  0  0  0  0  0  0  0  0  0  0  0
   10.2364  -16.4461   27.7199 C   0  0  0  0  0  0  0  0  0  0  0  0
   10.1340  -17.6916   27.6247 O   0  0  0  0  0  0  0  0  0  0  0  0
   11.1739  -15.9537   28.6302 O   0  0  0  0  0  0  0  0  0  0  0  0
  2  1  1  6
  3  2  1  0
  4  8  1  0
  4  3  1  0
  5  4  2  0
  6  2  1  0
  7  6  2  0
  9  6  1  0
 10  9  1  0
 10 11  1  6
 12 13  1  0
 12 11  1  0
 13 14  1  0
 14 15  1  0
 16 17  2  0
 16 10  1  0
 18 16  1  0
 19 18  1  0
 19 20  1  1
 20 21  1  0
 21 26  2  0
 21 22  1  0
 22 23  2  0
 23 24  1  0
 25 24  2  0
 26 25  1  0
 27 29  1  0
 27 19  1  0
 28 27  2  0
M  END
$$$$
