DKF.pdb
     RDKit          3D

 29 29  0  0  1  0  0  0  0  0999 V2000
    9.2190  -18.6140   20.4688 N   0  0  0  0  0  0  0  0  0  0  0  0
   10.4709  -17.9278   20.5856 C   0  0  1  0  0  0  0  0  0  0  0  0
   11.2739  -17.9583   19.3229 C   0  0  0  0  0  0  0  0  0  0  0  0
   11.5584  -19.2937   18.8034 C   0  0  0  0  0  0  0  0  0  0  0  0
   12.3195  -19.5732   17.8487 O   0  0  0  0  0  0  0  0  0  0  0  0
   10.3599  -16.5851   21.1912 C   0  0  0  0  0  0  0  0  0  0  0  0
   11.3993  -15.9427   21.5124 O   0  0  0  0  0  0  0  0  0  0  0  0
   10.9273  -20.3733   19.4221 O   0  0  0  0  0  0  0  0  0  0  0  0
    9.1052  -16.0001   21.4203 N   0  0  0  0  0  0  0  0  0  0  0  0
    8.9192  -14.6310   21.9206 C   0  0  1  0  0  0  0  0  0  0  0  0
    8.0821  -13.8333   20.9696 C   0  0  0  0  0  0  0  0  0  0  0  0
    8.4623  -14.0394   19.5530 C   0  0  0  0  0  0  0  0  0  0  0  0
    7.6481  -13.1990   18.5844 C   0  0  0  0  0  0  0  0  0  0  0  0
    8.0674  -13.4315   17.1490 C   0  0  0  0  0  0  0  0  0  0  0  0
    7.2659  -12.5899   16.2456 N   0  0  0  0  0  0  0  0  0  0  0  0
    8.4418  -14.6414   23.3059 C   0  0  0  0  0  0  0  0  0  0  0  0
    7.7560  -13.7171   23.7655 O   0  0  0  0  0  0  0  0  0  0  0  0
    8.7754  -15.7393   24.1410 N   0  0  0  0  0  0  0  0  0  0  0  0
    8.9321  -15.6170   25.5946 C   0  0  1  0  0  0  0  0  0  0  0  0
    7.5607  -15.4949   26.1906 C   0  0  0  0  0  0  0  0  0  0  0  0
    7.1637  -14.0796   26.3278 C   0  0  0  0  0  0  0  0  0  0  0  0
    8.0901  -13.1765   26.7677 C   0  0  0  0  0  0  0  0  0  0  0  0
    7.7718  -11.8574   26.8961 C   0  0  0  0  0  0  0  0  0  0  0  0
    6.5055  -11.4120   26.5832 C   0  0  0  0  0  0  0  0  0  0  0  0
    5.5752  -12.3030   26.1442 C   0  0  0  0  0  0  0  0  0  0  0  0
    5.8908  -13.6355   26.0125 C   0  0  0  0  0  0  0  0  0  0  0  0
    9.6888  -16.7839   26.1095 C   0  0  0  0  0  0  0  0  0  0  0  0
    9.9324  -16.9197   27.3313 O   0  0  0  0  0  0  0  0  0  0  0  0
   10.1621  -17.7802   25.2530 O   0  0  0  0  0  0  0  0  0  0  0  0
  2  1  1  6
  3  2  1  0
  4  8  1  0
  4  3  1  0
  5  4  2  0
  6  2  1  0
  7  6  2  0
  9  6  1  0
 10  9  1  0
 10 11  1  6
 12 13  1  0
 12 11  1  0
 13 14  1  0
 14 15  1  0
 16 17  2  0
 16 10  1  0
 18 16  1  0
 19 18  1  0
 19 20  1  1
 20 21  1  0
 21 26  2  0
 21 22  1  0
 22 23  2  0
 23 24  1  0
 25 24  2  0
 26 25  1  0
 27 29  1  0
 27 19  1  0
 28 27  2  0
M  END
$$$$
