DKF.pdb
     RDKit          3D

 29 29  0  0  1  0  0  0  0  0999 V2000
    8.4854  -18.9180   18.5046 N   0  0  0  0  0  0  0  0  0  0  0  0
    8.7781  -17.5232   18.6479 C   0  0  1  0  0  0  0  0  0  0  0  0
    8.4135  -16.7223   17.4372 C   0  0  0  0  0  0  0  0  0  0  0  0
    8.9891  -17.2014   16.1829 C   0  0  0  0  0  0  0  0  0  0  0  0
    8.4259  -17.2155   15.0642 O   0  0  0  0  0  0  0  0  0  0  0  0
    8.2965  -16.9408   19.9171 C   0  0  0  0  0  0  0  0  0  0  0  0
    8.3157  -15.6897   20.0924 O   0  0  0  0  0  0  0  0  0  0  0  0
   10.2937  -17.6945   16.2199 O   0  0  0  0  0  0  0  0  0  0  0  0
    7.8111  -17.7609   20.9472 N   0  0  0  0  0  0  0  0  0  0  0  0
    7.3509  -17.2556   22.2480 C   0  0  1  0  0  0  0  0  0  0  0  0
    6.1089  -17.9714   22.6801 C   0  0  0  0  0  0  0  0  0  0  0  0
    5.2600  -18.3933   21.5420 C   0  0  0  0  0  0  0  0  0  0  0  0
    4.0833  -19.2586   21.9590 C   0  0  0  0  0  0  0  0  0  0  0  0
    3.2135  -19.6314   20.7780 C   0  0  0  0  0  0  0  0  0  0  0  0
    2.0764  -20.4514   21.2266 N   0  0  0  0  0  0  0  0  0  0  0  0
    8.4413  -17.2629   23.2268 C   0  0  0  0  0  0  0  0  0  0  0  0
    8.7003  -18.2668   23.9058 O   0  0  0  0  0  0  0  0  0  0  0  0
    9.2189  -16.0885   23.4001 N   0  0  0  0  0  0  0  0  0  0  0  0
    9.0207  -15.1584   24.5172 C   0  0  1  0  0  0  0  0  0  0  0  0
    7.8198  -14.3168   24.2000 C   0  0  0  0  0  0  0  0  0  0  0  0
    7.4761  -13.4317   25.3306 C   0  0  0  0  0  0  0  0  0  0  0  0
    6.1640  -13.3036   25.6900 C   0  0  0  0  0  0  0  0  0  0  0  0
    5.8019  -12.5085   26.7363 C   0  0  0  0  0  0  0  0  0  0  0  0
    6.7575  -11.8184   27.4509 C   0  0  0  0  0  0  0  0  0  0  0  0
    8.0672  -11.9389   27.1013 C   0  0  0  0  0  0  0  0  0  0  0  0
    8.4385  -12.7401   26.0464 C   0  0  0  0  0  0  0  0  0  0  0  0
    8.8775  -15.9251   25.7786 C   0  0  0  0  0  0  0  0  0  0  0  0
    9.6115  -15.7001   26.7692 O   0  0  0  0  0  0  0  0  0  0  0  0
    7.9181  -16.9307   25.9143 O   0  0  0  0  0  0  0  0  0  0  0  0
  2  1  1  6
  3  2  1  0
  4  8  1  0
  4  3  1  0
  5  4  2  0
  6  2  1  0
  7  6  2  0
  9  6  1  0
 10  9  1  0
 10 11  1  1
 12 13  1  0
 12 11  1  0
 13 14  1  0
 14 15  1  0
 16 17  2  0
 16 10  1  0
 18 16  1  0
 19 18  1  0
 19 20  1  6
 20 21  1  0
 21 26  2  0
 21 22  1  0
 22 23  2  0
 23 24  1  0
 25 24  2  0
 26 25  1  0
 27 29  1  0
 27 19  1  0
 28 27  2  0
M  END
$$$$
