DKF.pdb
     RDKit          3D

 29 29  0  0  1  0  0  0  0  0999 V2000
    7.4870  -18.8337   21.0239 N   0  0  0  0  0  0  0  0  0  0  0  0
    8.8536  -18.7060   20.6141 C   0  0  1  0  0  0  0  0  0  0  0  0
    9.0764  -19.1081   19.1897 C   0  0  0  0  0  0  0  0  0  0  0  0
    8.5598  -20.4268   18.8317 C   0  0  0  0  0  0  0  0  0  0  0  0
    7.9333  -21.2088   19.5833 O   0  0  0  0  0  0  0  0  0  0  0  0
    9.4641  -17.4094   20.9718 C   0  0  0  0  0  0  0  0  0  0  0  0
   10.6890  -17.1974   20.7458 O   0  0  0  0  0  0  0  0  0  0  0  0
    8.7785  -20.8718   17.5276 O   0  0  0  0  0  0  0  0  0  0  0  0
    8.7001  -16.3934   21.5660 N   0  0  0  0  0  0  0  0  0  0  0  0
    9.2012  -15.0362   21.8233 C   0  0  1  0  0  0  0  0  0  0  0  0
    8.1223  -14.0248   21.5899 C   0  0  0  0  0  0  0  0  0  0  0  0
    7.5345  -14.1102   20.2330 C   0  0  0  0  0  0  0  0  0  0  0  0
    8.3120  -13.3240   19.1914 C   0  0  0  0  0  0  0  0  0  0  0  0
    7.5905  -13.2866   17.8616 C   0  0  0  0  0  0  0  0  0  0  0  0
    8.3894  -12.5432   16.8738 N   0  0  0  0  0  0  0  0  0  0  0  0
    9.8486  -14.9584   23.1355 C   0  0  0  0  0  0  0  0  0  0  0  0
   10.7766  -14.1677   23.3582 O   0  0  0  0  0  0  0  0  0  0  0  0
    9.3997  -15.8121   24.1765 N   0  0  0  0  0  0  0  0  0  0  0  0
   10.0125  -15.8350   25.5094 C   0  0  1  0  0  0  0  0  0  0  0  0
    9.9808  -14.4350   26.0479 C   0  0  0  0  0  0  0  0  0  0  0  0
    8.5936  -13.9812   26.2704 C   0  0  0  0  0  0  0  0  0  0  0  0
    8.3413  -13.1173   27.2986 C   0  0  0  0  0  0  0  0  0  0  0  0
    7.0782  -12.6613   27.5323 C   0  0  0  0  0  0  0  0  0  0  0  0
    6.0316  -13.0661   26.7320 C   0  0  0  0  0  0  0  0  0  0  0  0
    6.2719  -13.9262   25.7051 C   0  0  0  0  0  0  0  0  0  0  0  0
    7.5446  -14.3896   25.4644 C   0  0  0  0  0  0  0  0  0  0  0  0
    9.2911  -16.8054   26.3679 C   0  0  0  0  0  0  0  0  0  0  0  0
    9.5740  -16.9440   27.5809 O   0  0  0  0  0  0  0  0  0  0  0  0
    8.2660  -17.6059   25.8594 O   0  0  0  0  0  0  0  0  0  0  0  0
  2  1  1  6
  3  2  1  0
  4  8  1  0
  4  3  1  0
  5  4  2  0
  6  2  1  0
  7  6  2  0
  9  6  1  0
 10  9  1  0
 10 11  1  1
 12 13  1  0
 12 11  1  0
 13 14  1  0
 14 15  1  0
 16 17  2  0
 16 10  1  0
 18 16  1  0
 19 18  1  0
 19 20  1  1
 20 21  1  0
 21 26  2  0
 21 22  1  0
 22 23  2  0
 23 24  1  0
 25 24  2  0
 26 25  1  0
 27 29  1  0
 27 19  1  0
 28 27  2  0
M  END
$$$$
