DKF.pdb
     RDKit          3D

 29 29  0  0  1  0  0  0  0  0999 V2000
   10.8825  -15.4416   18.3907 N   0  0  0  0  0  0  0  0  0  0  0  0
   11.3101  -15.4054   19.7572 C   0  0  1  0  0  0  0  0  0  0  0  0
   12.0691  -14.1615   20.0993 C   0  0  0  0  0  0  0  0  0  0  0  0
   13.3408  -14.0011   19.3985 C   0  0  0  0  0  0  0  0  0  0  0  0
   13.6592  -13.0535   18.6438 O   0  0  0  0  0  0  0  0  0  0  0  0
   10.2446  -15.7404   20.7239 C   0  0  0  0  0  0  0  0  0  0  0  0
    9.1793  -15.0620   20.7589 O   0  0  0  0  0  0  0  0  0  0  0  0
   14.3049  -14.9934   19.5784 O   0  0  0  0  0  0  0  0  0  0  0  0
   10.3937  -16.8124   21.6170 N   0  0  0  0  0  0  0  0  0  0  0  0
    9.3378  -17.2696   22.5309 C   0  0  1  0  0  0  0  0  0  0  0  0
    9.1121  -18.7418   22.3783 C   0  0  0  0  0  0  0  0  0  0  0  0
    8.6025  -19.1119   21.0377 C   0  0  0  0  0  0  0  0  0  0  0  0
    7.0858  -19.1308   20.9562 C   0  0  0  0  0  0  0  0  0  0  0  0
    6.6013  -19.6596   19.6235 C   0  0  0  0  0  0  0  0  0  0  0  0
    5.1300  -19.6968   19.5991 N   0  0  0  0  0  0  0  0  0  0  0  0
    9.6035  -16.8233   23.9011 C   0  0  0  0  0  0  0  0  0  0  0  0
   10.7584  -16.6845   24.3286 O   0  0  0  0  0  0  0  0  0  0  0  0
    8.5079  -16.5440   24.7589 N   0  0  0  0  0  0  0  0  0  0  0  0
    8.6748  -16.1165   26.1524 C   0  0  1  0  0  0  0  0  0  0  0  0
    7.3799  -15.5032   26.5976 C   0  0  0  0  0  0  0  0  0  0  0  0
    7.3025  -14.0812   26.2084 C   0  0  0  0  0  0  0  0  0  0  0  0
    6.1447  -13.3961   26.4476 C   0  0  0  0  0  0  0  0  0  0  0  0
    6.0332  -12.0782   26.1177 C   0  0  0  0  0  0  0  0  0  0  0  0
    7.0908  -11.4135   25.5351 C   0  0  0  0  0  0  0  0  0  0  0  0
    8.2486  -12.0864   25.2925 C   0  0  0  0  0  0  0  0  0  0  0  0
    8.3669  -13.4164   25.6235 C   0  0  0  0  0  0  0  0  0  0  0  0
    9.0837  -17.2776   26.9794 C   0  0  0  0  0  0  0  0  0  0  0  0
    9.4079  -17.1434   28.1826 O   0  0  0  0  0  0  0  0  0  0  0  0
    9.1250  -18.5695   26.4508 O   0  0  0  0  0  0  0  0  0  0  0  0
  2  1  1  6
  3  2  1  0
  4  8  1  0
  4  3  1  0
  5  4  2  0
  6  2  1  0
  7  6  2  0
  9  6  1  0
 10  9  1  0
 10 11  1  1
 12 13  1  0
 12 11  1  0
 13 14  1  0
 14 15  1  0
 16 17  2  0
 16 10  1  0
 18 16  1  0
 19 18  1  0
 19 20  1  1
 20 21  1  0
 21 26  2  0
 21 22  1  0
 22 23  2  0
 23 24  1  0
 25 24  2  0
 26 25  1  0
 27 29  1  0
 27 19  1  0
 28 27  2  0
M  END
$$$$
