DKF.pdb
     RDKit          3D

 29 29  0  0  1  0  0  0  0  0999 V2000
    8.5160  -16.0391   19.0139 N   0  0  0  0  0  0  0  0  0  0  0  0
    8.2351  -14.9003   19.8361 C   0  0  1  0  0  0  0  0  0  0  0  0
    7.5179  -13.8115   19.1010 C   0  0  0  0  0  0  0  0  0  0  0  0
    8.0200  -13.5389   17.7566 C   0  0  0  0  0  0  0  0  0  0  0  0
    9.0666  -14.0005   17.2463 O   0  0  0  0  0  0  0  0  0  0  0  0
    7.6290  -15.2415   21.1393 C   0  0  0  0  0  0  0  0  0  0  0  0
    7.1158  -14.3392   21.8595 O   0  0  0  0  0  0  0  0  0  0  0  0
    7.2701  -12.6819   16.9506 O   0  0  0  0  0  0  0  0  0  0  0  0
    7.6115  -16.5668   21.6003 N   0  0  0  0  0  0  0  0  0  0  0  0
    7.0062  -16.9830   22.8729 C   0  0  1  0  0  0  0  0  0  0  0  0
    6.5337  -18.4013   22.7909 C   0  0  0  0  0  0  0  0  0  0  0  0
    5.5087  -18.6087   21.7420 C   0  0  0  0  0  0  0  0  0  0  0  0
    5.1950  -20.0735   21.4903 C   0  0  0  0  0  0  0  0  0  0  0  0
    4.2620  -20.2541   20.3125 C   0  0  0  0  0  0  0  0  0  0  0  0
    4.0461  -21.6869   20.0537 N   0  0  0  0  0  0  0  0  0  0  0  0
    7.9009  -16.6931   23.9965 C   0  0  0  0  0  0  0  0  0  0  0  0
    9.1239  -16.8783   23.9199 O   0  0  0  0  0  0  0  0  0  0  0  0
    7.3499  -16.1877   25.2028 N   0  0  0  0  0  0  0  0  0  0  0  0
    8.1475  -15.9725   26.4152 C   0  0  1  0  0  0  0  0  0  0  0  0
    7.4115  -14.9865   27.2740 C   0  0  0  0  0  0  0  0  0  0  0  0
    7.5073  -13.6216   26.7195 C   0  0  0  0  0  0  0  0  0  0  0  0
    6.3880  -12.8381   26.7041 C   0  0  0  0  0  0  0  0  0  0  0  0
    6.4332  -11.5668   26.2145 C   0  0  0  0  0  0  0  0  0  0  0  0
    7.6136  -11.0497   25.7253 C   0  0  0  0  0  0  0  0  0  0  0  0
    8.7343  -11.8215   25.7360 C   0  0  0  0  0  0  0  0  0  0  0  0
    8.6946  -13.1052   26.2290 C   0  0  0  0  0  0  0  0  0  0  0  0
    8.3804  -17.2722   27.0902 C   0  0  0  0  0  0  0  0  0  0  0  0
    7.6665  -18.2735   26.8484 O   0  0  0  0  0  0  0  0  0  0  0  0
    9.4057  -17.4340   28.0245 O   0  0  0  0  0  0  0  0  0  0  0  0
  2  1  1  6
  3  2  1  0
  4  8  1  0
  4  3  1  0
  5  4  2  0
  6  2  1  0
  7  6  2  0
  9  6  1  0
 10  9  1  0
 10 11  1  6
 12 13  1  0
 12 11  1  0
 13 14  1  0
 14 15  1  0
 16 17  2  0
 16 10  1  0
 18 16  1  0
 19 18  1  0
 19 20  1  1
 20 21  1  0
 21 26  2  0
 21 22  1  0
 22 23  2  0
 23 24  1  0
 25 24  2  0
 26 25  1  0
 27 29  1  0
 27 19  1  0
 28 27  2  0
M  END
$$$$
