DKF.pdb
     RDKit          3D

 29 29  0  0  1  0  0  0  0  0999 V2000
    9.2284  -16.1772   18.2340 N   0  0  0  0  0  0  0  0  0  0  0  0
    9.0140  -15.1613   19.2206 C   0  0  1  0  0  0  0  0  0  0  0  0
    8.0234  -14.1261   18.7876 C   0  0  0  0  0  0  0  0  0  0  0  0
    8.2770  -13.5392   17.4741 C   0  0  0  0  0  0  0  0  0  0  0  0
    9.2071  -13.8421   16.6917 O   0  0  0  0  0  0  0  0  0  0  0  0
    8.7705  -15.6909   20.5779 C   0  0  0  0  0  0  0  0  0  0  0  0
    7.6593  -15.4984   21.1475 O   0  0  0  0  0  0  0  0  0  0  0  0
    7.4054  -12.5422   17.0351 O   0  0  0  0  0  0  0  0  0  0  0  0
    9.7627  -16.4141   21.2572 N   0  0  0  0  0  0  0  0  0  0  0  0
    9.5070  -17.2328   22.4504 C   0  0  1  0  0  0  0  0  0  0  0  0
   10.3133  -18.4936   22.4051 C   0  0  0  0  0  0  0  0  0  0  0  0
    9.9426  -19.3757   21.2745 C   0  0  0  0  0  0  0  0  0  0  0  0
   10.7937  -20.6310   21.1883 C   0  0  0  0  0  0  0  0  0  0  0  0
   10.4581  -21.4544   19.9637 C   0  0  0  0  0  0  0  0  0  0  0  0
   11.3624  -22.6121   19.8696 N   0  0  0  0  0  0  0  0  0  0  0  0
    9.6668  -16.4399   23.6721 C   0  0  0  0  0  0  0  0  0  0  0  0
   10.6951  -15.7845   23.8934 O   0  0  0  0  0  0  0  0  0  0  0  0
    8.6156  -16.4244   24.6254 N   0  0  0  0  0  0  0  0  0  0  0  0
    8.7289  -15.7567   25.9269 C   0  0  1  0  0  0  0  0  0  0  0  0
    7.3418  -15.4106   26.3821 C   0  0  0  0  0  0  0  0  0  0  0  0
    7.0742  -13.9672   26.2249 C   0  0  0  0  0  0  0  0  0  0  0  0
    8.0988  -13.1459   25.8466 C   0  0  0  0  0  0  0  0  0  0  0  0
    7.8943  -11.8092   25.6757 C   0  0  0  0  0  0  0  0  0  0  0  0
    6.6458  -11.2627   25.8827 C   0  0  0  0  0  0  0  0  0  0  0  0
    5.6185  -12.0717   26.2596 C   0  0  0  0  0  0  0  0  0  0  0  0
    5.8189  -13.4216   26.4335 C   0  0  0  0  0  0  0  0  0  0  0  0
    9.4489  -16.6413   26.8747 C   0  0  0  0  0  0  0  0  0  0  0  0
    9.8559  -16.2211   27.9830 O   0  0  0  0  0  0  0  0  0  0  0  0
    9.7037  -17.9802   26.5706 O   0  0  0  0  0  0  0  0  0  0  0  0
  2  1  1  6
  3  2  1  0
  4  8  1  0
  4  3  1  0
  5  4  2  0
  6  2  1  0
  7  6  2  0
  9  6  1  0
 10  9  1  0
 10 11  1  1
 12 13  1  0
 12 11  1  0
 13 14  1  0
 14 15  1  0
 16 17  2  0
 16 10  1  0
 18 16  1  0
 19 18  1  0
 19 20  1  1
 20 21  1  0
 21 26  2  0
 21 22  1  0
 22 23  2  0
 23 24  1  0
 25 24  2  0
 26 25  1  0
 27 29  1  0
 27 19  1  0
 28 27  2  0
M  END
$$$$
