DKF.pdb
     RDKit          3D

 29 29  0  0  1  0  0  0  0  0999 V2000
    9.6509  -19.2844   20.7643 N   0  0  0  0  0  0  0  0  0  0  0  0
   10.7635  -18.5344   21.2654 C   0  0  1  0  0  0  0  0  0  0  0  0
   12.0279  -18.7860   20.5048 C   0  0  0  0  0  0  0  0  0  0  0  0
   12.0511  -20.0294   19.7385 C   0  0  0  0  0  0  0  0  0  0  0  0
   12.6953  -20.2416   18.6854 O   0  0  0  0  0  0  0  0  0  0  0  0
   10.4692  -17.1027   21.4789 C   0  0  0  0  0  0  0  0  0  0  0  0
   11.3669  -16.2329   21.2949 O   0  0  0  0  0  0  0  0  0  0  0  0
   11.2850  -21.0938   20.2146 O   0  0  0  0  0  0  0  0  0  0  0  0
    9.1942  -16.6830   21.8878 N   0  0  0  0  0  0  0  0  0  0  0  0
    8.8288  -15.2782   22.1164 C   0  0  1  0  0  0  0  0  0  0  0  0
    7.5037  -14.9714   21.4904 C   0  0  0  0  0  0  0  0  0  0  0  0
    7.2367  -13.5182   21.3867 C   0  0  0  0  0  0  0  0  0  0  0  0
    8.0091  -12.8444   20.2657 C   0  0  0  0  0  0  0  0  0  0  0  0
    7.4815  -13.2394   18.9033 C   0  0  0  0  0  0  0  0  0  0  0  0
    8.3012  -12.6250   17.8463 N   0  0  0  0  0  0  0  0  0  0  0  0
    8.9362  -14.9348   23.5368 C   0  0  0  0  0  0  0  0  0  0  0  0
    8.5827  -13.8280   23.9679 O   0  0  0  0  0  0  0  0  0  0  0  0
    9.4595  -15.8964   24.4400 N   0  0  0  0  0  0  0  0  0  0  0  0
    9.3633  -15.7570   25.8973 C   0  0  1  0  0  0  0  0  0  0  0  0
    7.9117  -15.6024   26.2440 C   0  0  0  0  0  0  0  0  0  0  0  0
    7.5460  -14.1788   26.3827 C   0  0  0  0  0  0  0  0  0  0  0  0
    6.2858  -13.7862   26.0291 C   0  0  0  0  0  0  0  0  0  0  0  0
    5.9001  -12.4848   26.1536 C   0  0  0  0  0  0  0  0  0  0  0  0
    6.7787  -11.5406   26.6400 C   0  0  0  0  0  0  0  0  0  0  0  0
    8.0362  -11.9209   26.9951 C   0  0  0  0  0  0  0  0  0  0  0  0
    8.4310  -13.2330   26.8717 C   0  0  0  0  0  0  0  0  0  0  0  0
    9.9955  -16.9299   26.5483 C   0  0  0  0  0  0  0  0  0  0  0  0
   10.2929  -17.9592   25.8979 O   0  0  0  0  0  0  0  0  0  0  0  0
   10.2854  -16.9360   27.9143 O   0  0  0  0  0  0  0  0  0  0  0  0
  2  1  1  6
  3  2  1  0
  4  8  1  0
  4  3  1  0
  5  4  2  0
  6  2  1  0
  7  6  2  0
  9  6  1  0
 10  9  1  0
 10 11  1  1
 12 13  1  0
 12 11  1  0
 13 14  1  0
 14 15  1  0
 16 17  2  0
 16 10  1  0
 18 16  1  0
 19 18  1  0
 19 20  1  6
 20 21  1  0
 21 26  2  0
 21 22  1  0
 22 23  2  0
 23 24  1  0
 25 24  2  0
 26 25  1  0
 27 29  1  0
 27 19  1  0
 28 27  2  0
M  END
$$$$
