LSV.pdb
     RDKit          3D

 22 21  0  0  1  0  0  0  0  0999 V2000
   27.7728  -18.3049   -5.2220 C   0  0  0  0  0  0  0  0  0  0  0  0
   27.7063  -19.8332   -5.1991 C   0  0  2  0  0  0  0  0  0  0  0  0
   28.8434  -20.3998   -4.4128 C   0  0  0  0  0  0  0  0  0  0  0  0
   27.6941  -20.4007   -6.5719 C   0  0  0  0  0  0  0  0  0  0  0  0
   26.5914  -19.8499   -7.4036 C   0  0  2  0  0  0  0  0  0  0  0  0
   25.3119  -20.1176   -6.7444 N   0  0  0  0  0  0  0  0  0  0  0  0
   26.5544  -20.3838   -8.7701 C   0  0  0  0  0  0  0  0  0  0  0  0
   27.5829  -20.7637   -9.3665 O   0  0  0  0  0  0  0  0  0  0  0  0
   22.9525  -20.4728  -10.9380 O   0  0  0  0  0  0  0  0  0  0  0  0
   23.8709  -21.4906  -11.1091 C   0  0  0  0  0  0  0  0  0  0  0  0
   25.2802  -21.0635  -10.7875 C   0  0  2  0  0  0  0  0  0  0  0  0
   25.3246  -20.4856   -9.4668 N   0  0  0  0  0  0  0  0  0  0  0  0
   25.7870  -20.0962  -11.8007 C   0  0  0  0  0  0  0  0  0  0  0  0
   25.6558  -18.8487  -11.6359 O   0  0  0  0  0  0  0  0  0  0  0  0
   28.3921  -21.4798  -14.9186 C   0  0  0  0  0  0  0  0  0  0  0  0
   28.3521  -20.0738  -14.3789 C   0  0  2  0  0  0  0  0  0  0  0  0
   29.2959  -19.9377  -13.2281 C   0  0  0  0  0  0  0  0  0  0  0  0
   26.9307  -19.7020  -14.0091 C   0  0  2  0  0  0  0  0  0  0  0  0
   26.4290  -20.5785  -12.9730 N   0  0  0  0  0  0  0  0  0  0  0  0
   26.0479  -19.7706  -15.2001 C   0  0  0  0  0  0  0  0  0  0  0  0
   25.1909  -20.6871  -15.3467 O   0  0  0  0  0  0  0  0  0  0  0  0
   26.1672  -18.7995  -16.1820 O   0  0  0  0  0  0  0  0  0  0  0  0
  2  1  1  6
  2  4  1  0
  2  3  1  0
  4  5  1  0
  5  7  1  0
  5  6  1  1
  7  8  2  0
  9 10  1  0
 11 10  1  6
 11 13  1  0
 12  7  1  0
 12 11  1  0
 13 19  1  0
 13 14  2  0
 16 18  1  0
 16 15  1  1
 17 16  1  0
 18 20  1  0
 18 19  1  1
 20 21  2  0
 20 22  1  0
M  END
$$$$
