LSV.pdb
     RDKit          3D

 22 21  0  0  1  0  0  0  0  0999 V2000
   27.4630  -18.3130   -5.3074 C   0  0  0  0  0  0  0  0  0  0  0  0
   27.3989  -19.8414   -5.2814 C   0  0  2  0  0  0  0  0  0  0  0  0
   28.4068  -20.3963   -4.3284 C   0  0  0  0  0  0  0  0  0  0  0  0
   27.5949  -20.4200   -6.6355 C   0  0  0  0  0  0  0  0  0  0  0  0
   26.6389  -19.8685   -7.6320 C   0  0  2  0  0  0  0  0  0  0  0  0
   25.3913  -20.6328   -7.5756 N   0  0  0  0  0  0  0  0  0  0  0  0
   27.1479  -19.8712   -9.0084 C   0  0  0  0  0  0  0  0  0  0  0  0
   28.2805  -19.4366   -9.3021 O   0  0  0  0  0  0  0  0  0  0  0  0
   25.9899  -22.5803  -11.8838 O   0  0  0  0  0  0  0  0  0  0  0  0
   27.1298  -21.8003  -11.8525 C   0  0  0  0  0  0  0  0  0  0  0  0
   26.8542  -20.3835  -11.4181 C   0  0  2  0  0  0  0  0  0  0  0  0
   26.3521  -20.3775  -10.0660 N   0  0  0  0  0  0  0  0  0  0  0  0
   25.8875  -19.7233  -12.3395 C   0  0  0  0  0  0  0  0  0  0  0  0
   24.6426  -19.7633  -12.1184 O   0  0  0  0  0  0  0  0  0  0  0  0
   27.0480  -18.0935  -16.3168 C   0  0  0  0  0  0  0  0  0  0  0  0
   26.2817  -17.3575  -15.2487 C   0  0  2  0  0  0  0  0  0  0  0  0
   27.2131  -16.5228  -14.4306 C   0  0  0  0  0  0  0  0  0  0  0  0
   25.4942  -18.3406  -14.4068 C   0  0  2  0  0  0  0  0  0  0  0  0
   26.3678  -19.0363  -13.4869 N   0  0  0  0  0  0  0  0  0  0  0  0
   24.7892  -19.3190  -15.2718 C   0  0  0  0  0  0  0  0  0  0  0  0
   25.2885  -20.4443  -15.5551 O   0  0  0  0  0  0  0  0  0  0  0  0
   23.5447  -18.9881  -15.7849 O   0  0  0  0  0  0  0  0  0  0  0  0
  2  1  1  6
  2  4  1  0
  2  3  1  0
  4  5  1  0
  5  7  1  0
  5  6  1  6
  7  8  2  0
  9 10  1  0
 11 10  1  6
 11 13  1  0
 12  7  1  0
 12 11  1  0
 13 19  1  0
 13 14  2  0
 16 18  1  0
 16 15  1  6
 17 16  1  0
 18 20  1  0
 18 19  1  1
 20 21  2  0
 20 22  1  0
M  END
$$$$
