LSV.pdb
     RDKit          3D

 22 21  0  0  1  0  0  0  0  0999 V2000
   14.8708  -14.1799  -16.5459 C   0  0  0  0  0  0  0  0  0  0  0  0
   16.1557  -14.6430  -15.8564 C   0  0  2  0  0  0  0  0  0  0  0  0
   15.8845  -15.0308  -14.4393 C   0  0  0  0  0  0  0  0  0  0  0  0
   17.2130  -13.6011  -15.9136 C   0  0  0  0  0  0  0  0  0  0  0  0
   17.5442  -13.2048  -17.3080 C   0  0  2  0  0  0  0  0  0  0  0  0
   18.2485  -14.3064  -17.9667 N   0  0  0  0  0  0  0  0  0  0  0  0
   18.3548  -11.9851  -17.4024 C   0  0  0  0  0  0  0  0  0  0  0  0
   19.6014  -12.0058  -17.3422 O   0  0  0  0  0  0  0  0  0  0  0  0
   17.7070   -9.1060  -19.9750 O   0  0  0  0  0  0  0  0  0  0  0  0
   17.8279   -8.5929  -18.6979 C   0  0  0  0  0  0  0  0  0  0  0  0
   18.5314   -9.5358  -17.7556 C   0  0  2  0  0  0  0  0  0  0  0  0
   17.7333  -10.7224  -17.5681 N   0  0  0  0  0  0  0  0  0  0  0  0
   18.8047   -8.8755  -16.4485 C   0  0  0  0  0  0  0  0  0  0  0  0
   17.9315   -8.8513  -15.5334 O   0  0  0  0  0  0  0  0  0  0  0  0
   22.8543   -7.7939  -15.5183 C   0  0  0  0  0  0  0  0  0  0  0  0
   21.8100   -8.2274  -14.5227 C   0  0  2  0  0  0  0  0  0  0  0  0
   21.8316   -9.7138  -14.3691 C   0  0  0  0  0  0  0  0  0  0  0  0
   20.4496   -7.7081  -14.9411 C   0  0  2  0  0  0  0  0  0  0  0  0
   20.0660   -8.2615  -16.2218 N   0  0  0  0  0  0  0  0  0  0  0  0
   20.4576   -6.2259  -15.0132 C   0  0  0  0  0  0  0  0  0  0  0  0
   20.4703   -5.6090  -16.1156 O   0  0  0  0  0  0  0  0  0  0  0  0
   20.4512   -5.4956  -13.8350 O   0  0  0  0  0  0  0  0  0  0  0  0
  2  1  1  1
  2  4  1  0
  2  3  1  0
  4  5  1  0
  5  7  1  0
  5  6  1  1
  7  8  2  0
  9 10  1  0
 11 10  1  6
 11 13  1  0
 12  7  1  0
 12 11  1  0
 13 19  1  0
 13 14  2  0
 16 18  1  0
 16 15  1  6
 17 16  1  0
 18 20  1  0
 18 19  1  6
 20 21  2  0
 20 22  1  0
M  END
$$$$
