LSV.pdb
     RDKit          3D

 22 21  0  0  1  0  0  0  0  0999 V2000
   23.1944  -14.7823  -15.1937 C   0  0  0  0  0  0  0  0  0  0  0  0
   24.2817  -14.0239  -15.9576 C   0  0  2  0  0  0  0  0  0  0  0  0
   25.5662  -14.0313  -15.1947 C   0  0  0  0  0  0  0  0  0  0  0  0
   23.8673  -12.6294  -16.2581 C   0  0  0  0  0  0  0  0  0  0  0  0
   22.5862  -12.5678  -17.0105 C   0  0  2  0  0  0  0  0  0  0  0  0
   22.7467  -13.2594  -18.2909 N   0  0  0  0  0  0  0  0  0  0  0  0
   22.1047  -11.2029  -17.2531 C   0  0  0  0  0  0  0  0  0  0  0  0
   22.7419  -10.3836  -17.9464 O   0  0  0  0  0  0  0  0  0  0  0  0
   18.3307   -9.9527  -15.8413 O   0  0  0  0  0  0  0  0  0  0  0  0
   18.9125   -9.3916  -16.9618 C   0  0  0  0  0  0  0  0  0  0  0  0
   20.4187   -9.4156  -16.9097 C   0  0  2  0  0  0  0  0  0  0  0  0
   20.8771  -10.7663  -16.6959 N   0  0  0  0  0  0  0  0  0  0  0  0
   20.9282   -8.5131  -15.8397 C   0  0  0  0  0  0  0  0  0  0  0  0
   21.1962   -8.9550  -14.6850 O   0  0  0  0  0  0  0  0  0  0  0  0
   22.9199   -4.0868  -14.8590 C   0  0  0  0  0  0  0  0  0  0  0  0
   22.2279   -4.9808  -15.8549 C   0  0  2  0  0  0  0  0  0  0  0  0
   21.1644   -4.2190  -16.5776 C   0  0  0  0  0  0  0  0  0  0  0  0
   21.6857   -6.2109  -15.1562 C   0  0  2  0  0  0  0  0  0  0  0  0
   21.1177   -7.1323  -16.1165 N   0  0  0  0  0  0  0  0  0  0  0  0
   20.6600   -5.8305  -14.1535 C   0  0  0  0  0  0  0  0  0  0  0  0
   19.4246   -5.8548  -14.4166 O   0  0  0  0  0  0  0  0  0  0  0  0
   21.0696   -5.4363  -12.8893 O   0  0  0  0  0  0  0  0  0  0  0  0
  2  1  1  1
  2  4  1  0
  2  3  1  0
  4  5  1  0
  5  7  1  0
  5  6  1  6
  7  8  2  0
  9 10  1  0
 11 10  1  1
 11 13  1  0
 12  7  1  0
 12 11  1  0
 13 19  1  0
 13 14  2  0
 16 18  1  0
 16 15  1  1
 17 16  1  0
 18 20  1  0
 18 19  1  6
 20 21  2  0
 20 22  1  0
M  END
$$$$
