LSV.pdb
     RDKit          3D

 22 21  0  0  1  0  0  0  0  0999 V2000
   26.5286  -20.7272   -6.4086 C   0  0  0  0  0  0  0  0  0  0  0  0
   27.8362  -20.2183   -7.0185 C   0  0  2  0  0  0  0  0  0  0  0  0
   28.3742  -19.0684   -6.2309 C   0  0  0  0  0  0  0  0  0  0  0  0
   27.6617  -19.8326   -8.4424 C   0  0  0  0  0  0  0  0  0  0  0  0
   26.9409  -20.8699   -9.2270 C   0  0  2  0  0  0  0  0  0  0  0  0
   27.9086  -21.6355  -10.0151 N   0  0  0  0  0  0  0  0  0  0  0  0
   25.9080  -20.3296  -10.1185 C   0  0  0  0  0  0  0  0  0  0  0  0
   25.3284  -19.2479   -9.8903 O   0  0  0  0  0  0  0  0  0  0  0  0
   25.5627  -21.8454  -13.9703 O   0  0  0  0  0  0  0  0  0  0  0  0
   25.2498  -20.5425  -13.6336 C   0  0  0  0  0  0  0  0  0  0  0  0
   24.6509  -20.4249  -12.2553 C   0  0  2  0  0  0  0  0  0  0  0  0
   25.5307  -21.0345  -11.2885 N   0  0  0  0  0  0  0  0  0  0  0  0
   23.3014  -21.0539  -12.2065 C   0  0  0  0  0  0  0  0  0  0  0  0
   23.1517  -22.2505  -11.8240 O   0  0  0  0  0  0  0  0  0  0  0  0
   19.8440  -18.5908  -12.9674 C   0  0  0  0  0  0  0  0  0  0  0  0
   19.8580  -19.7599  -12.0172 C   0  0  2  0  0  0  0  0  0  0  0  0
   20.1935  -19.2964  -10.6366 C   0  0  0  0  0  0  0  0  0  0  0  0
   20.8136  -20.8230  -12.5194 C   0  0  2  0  0  0  0  0  0  0  0  0
   22.1609  -20.3008  -12.5952 N   0  0  0  0  0  0  0  0  0  0  0  0
   20.3880  -21.3180  -13.8521 C   0  0  0  0  0  0  0  0  0  0  0  0
   19.3071  -21.9505  -14.0179 O   0  0  0  0  0  0  0  0  0  0  0  0
   21.2013  -21.0793  -14.9489 O   0  0  0  0  0  0  0  0  0  0  0  0
  2  1  1  1
  2  4  1  0
  2  3  1  0
  4  5  1  0
  5  7  1  0
  5  6  1  6
  7  8  2  0
  9 10  1  0
 11 10  1  6
 11 13  1  0
 12  7  1  0
 12 11  1  0
 13 19  1  0
 13 14  2  0
 16 18  1  0
 16 15  1  6
 17 16  1  0
 18 20  1  0
 18 19  1  6
 20 21  2  0
 20 22  1  0
M  END
$$$$
