LSV.pdb
     RDKit          3D

 22 21  0  0  1  0  0  0  0  0999 V2000
   15.8525   -9.6319  -19.0379 C   0  0  0  0  0  0  0  0  0  0  0  0
   16.9069  -10.6950  -18.7238 C   0  0  2  0  0  0  0  0  0  0  0  0
   16.4540  -12.0414  -19.1868 C   0  0  0  0  0  0  0  0  0  0  0  0
   17.2336  -10.7298  -17.2750 C   0  0  0  0  0  0  0  0  0  0  0  0
   18.6575  -11.0760  -17.0227 C   0  0  2  0  0  0  0  0  0  0  0  0
   18.7489  -12.4856  -16.6378 N   0  0  0  0  0  0  0  0  0  0  0  0
   19.2963  -10.2492  -15.9921 C   0  0  0  0  0  0  0  0  0  0  0  0
   18.8338  -10.1462  -14.8374 O   0  0  0  0  0  0  0  0  0  0  0  0
   23.2584   -9.6510  -16.1533 O   0  0  0  0  0  0  0  0  0  0  0  0
   22.5206   -9.4982  -14.9953 C   0  0  0  0  0  0  0  0  0  0  0  0
   21.1890   -8.8343  -15.2365 C   0  0  2  0  0  0  0  0  0  0  0  0
   20.4812   -9.5288  -16.2838 N   0  0  0  0  0  0  0  0  0  0  0  0
   21.3670   -7.3975  -15.5870 C   0  0  0  0  0  0  0  0  0  0  0  0
   21.5773   -7.0375  -16.7815 O   0  0  0  0  0  0  0  0  0  0  0  0
   20.3062   -2.8074  -14.9286 C   0  0  0  0  0  0  0  0  0  0  0  0
   20.1178   -4.2895  -14.7347 C   0  0  2  0  0  0  0  0  0  0  0  0
   19.4225   -4.5541  -13.4385 C   0  0  0  0  0  0  0  0  0  0  0  0
   21.4539   -4.9975  -14.8301 C   0  0  2  0  0  0  0  0  0  0  0  0
   21.3000   -6.4117  -14.5658 N   0  0  0  0  0  0  0  0  0  0  0  0
   22.4249   -4.4079  -13.8752 C   0  0  0  0  0  0  0  0  0  0  0  0
   22.5979   -4.8823  -12.7171 O   0  0  0  0  0  0  0  0  0  0  0  0
   23.1650   -3.3027  -14.2655 O   0  0  0  0  0  0  0  0  0  0  0  0
  2  1  1  1
  2  4  1  0
  2  3  1  0
  4  5  1  0
  5  7  1  0
  5  6  1  1
  7  8  2  0
  9 10  1  0
 11 10  1  6
 11 13  1  0
 12  7  1  0
 12 11  1  0
 13 19  1  0
 13 14  2  0
 16 18  1  0
 16 15  1  1
 17 16  1  0
 18 20  1  0
 18 19  1  1
 20 21  2  0
 20 22  1  0
M  END
$$$$
