LSV.pdb
     RDKit          3D

 22 21  0  0  1  0  0  0  0  0999 V2000
   19.4566  -16.8497  -14.9489 C   0  0  0  0  0  0  0  0  0  0  0  0
   20.7163  -16.5079  -15.7471 C   0  0  2  0  0  0  0  0  0  0  0  0
   21.9431  -16.9158  -14.9984 C   0  0  0  0  0  0  0  0  0  0  0  0
   20.7740  -15.0625  -16.0851 C   0  0  0  0  0  0  0  0  0  0  0  0
   19.5629  -14.6016  -16.8143 C   0  0  2  0  0  0  0  0  0  0  0  0
   19.4762  -15.3048  -18.0955 N   0  0  0  0  0  0  0  0  0  0  0  0
   19.5276  -13.1538  -17.0520 C   0  0  0  0  0  0  0  0  0  0  0  0
   20.1955  -12.6091  -17.9549 O   0  0  0  0  0  0  0  0  0  0  0  0
   16.8908  -10.6032  -14.8878 O   0  0  0  0  0  0  0  0  0  0  0  0
   17.2405  -10.4077  -16.2101 C   0  0  0  0  0  0  0  0  0  0  0  0
   18.6293  -10.9022  -16.5244 C   0  0  2  0  0  0  0  0  0  0  0  0
   18.7176  -12.3149  -16.2470 N   0  0  0  0  0  0  0  0  0  0  0  0
   19.6510  -10.1495  -15.7442 C   0  0  0  0  0  0  0  0  0  0  0  0
   20.0082  -10.5343  -14.5932 O   0  0  0  0  0  0  0  0  0  0  0  0
   21.4765   -6.6694  -17.5374 C   0  0  0  0  0  0  0  0  0  0  0  0
   22.2255   -7.6157  -16.6356 C   0  0  2  0  0  0  0  0  0  0  0  0
   22.9381   -8.6463  -17.4501 C   0  0  0  0  0  0  0  0  0  0  0  0
   21.2760   -8.2295  -15.6271 C   0  0  2  0  0  0  0  0  0  0  0  0
   20.2364   -8.9794  -16.2985 N   0  0  0  0  0  0  0  0  0  0  0  0
   20.6694   -7.1766  -14.7752 C   0  0  0  0  0  0  0  0  0  0  0  0
   21.3509   -6.5121  -13.9445 O   0  0  0  0  0  0  0  0  0  0  0  0
   19.3136   -6.9140  -14.8943 O   0  0  0  0  0  0  0  0  0  0  0  0
  2  1  1  1
  2  4  1  0
  2  3  1  0
  4  5  1  0
  5  7  1  0
  5  6  1  6
  7  8  2  0
  9 10  1  0
 11 10  1  1
 11 13  1  0
 12  7  1  0
 12 11  1  0
 13 19  1  0
 13 14  2  0
 16 18  1  0
 16 15  1  6
 17 16  1  0
 18 20  1  0
 18 19  1  6
 20 21  2  0
 20 22  1  0
M  END
$$$$
