LSV.pdb
     RDKit          3D

 22 21  0  0  1  0  0  0  0  0999 V2000
   23.8333  -21.0403   -9.6736 C   0  0  0  0  0  0  0  0  0  0  0  0
   25.3360  -21.2845   -9.5221 C   0  0  2  0  0  0  0  0  0  0  0  0
   25.8601  -20.6092   -8.2969 C   0  0  0  0  0  0  0  0  0  0  0  0
   26.0869  -20.8335  -10.7219 C   0  0  0  0  0  0  0  0  0  0  0  0
   25.5579  -21.4266  -11.9786 C   0  0  2  0  0  0  0  0  0  0  0  0
   26.0626  -22.7942  -12.1146 N   0  0  0  0  0  0  0  0  0  0  0  0
   25.8961  -20.6623  -13.1848 C   0  0  0  0  0  0  0  0  0  0  0  0
   27.0760  -20.4616  -13.5389 O   0  0  0  0  0  0  0  0  0  0  0  0
   23.1938  -20.0420  -16.3346 O   0  0  0  0  0  0  0  0  0  0  0  0
   24.5742  -20.0363  -16.3921 C   0  0  0  0  0  0  0  0  0  0  0  0
   25.2044  -19.3779  -15.1916 C   0  0  2  0  0  0  0  0  0  0  0  0
   24.8720  -20.1185  -13.9994 N   0  0  0  0  0  0  0  0  0  0  0  0
   24.7622  -17.9607  -15.0692 C   0  0  0  0  0  0  0  0  0  0  0  0
   23.6852  -17.6611  -14.4768 O   0  0  0  0  0  0  0  0  0  0  0  0
   26.2194  -13.8683  -17.1147 C   0  0  0  0  0  0  0  0  0  0  0  0
   26.3487  -14.6294  -15.8209 C   0  0  2  0  0  0  0  0  0  0  0  0
   27.6423  -15.3771  -15.7914 C   0  0  0  0  0  0  0  0  0  0  0  0
   25.1505  -15.5375  -15.6333 C   0  0  2  0  0  0  0  0  0  0  0  0
   25.5605  -16.9251  -15.6256 N   0  0  0  0  0  0  0  0  0  0  0  0
   24.1526  -15.3116  -16.7082 C   0  0  0  0  0  0  0  0  0  0  0  0
   23.3635  -14.3251  -16.6931 O   0  0  0  0  0  0  0  0  0  0  0  0
   24.0839  -16.2103  -17.7613 O   0  0  0  0  0  0  0  0  0  0  0  0
  2  1  1  6
  2  4  1  0
  2  3  1  0
  4  5  1  0
  5  7  1  0
  5  6  1  6
  7  8  2  0
  9 10  1  0
 11 10  1  6
 11 13  1  0
 12  7  1  0
 12 11  1  0
 13 19  1  0
 13 14  2  0
 16 18  1  0
 16 15  1  6
 17 16  1  0
 18 20  1  0
 18 19  1  6
 20 21  2  0
 20 22  1  0
M  END
$$$$
