LSV.pdb
     RDKit          3D

 22 21  0  0  1  0  0  0  0  0999 V2000
   18.5356  -12.0284  -19.7914 C   0  0  0  0  0  0  0  0  0  0  0  0
   17.4216  -12.0178  -18.7428 C   0  0  2  0  0  0  0  0  0  0  0  0
   16.1621  -11.4546  -19.3158 C   0  0  0  0  0  0  0  0  0  0  0  0
   17.8207  -11.2606  -17.5287 C   0  0  0  0  0  0  0  0  0  0  0  0
   19.0781  -11.7769  -16.9257 C   0  0  2  0  0  0  0  0  0  0  0  0
   18.8341  -13.1104  -16.3728 N   0  0  0  0  0  0  0  0  0  0  0  0
   19.6340  -10.9117  -15.8789 C   0  0  0  0  0  0  0  0  0  0  0  0
   19.0256  -10.6761  -14.8148 O   0  0  0  0  0  0  0  0  0  0  0  0
   23.4083   -9.2294  -13.6236 O   0  0  0  0  0  0  0  0  0  0  0  0
   22.7910  -10.0204  -14.5733 C   0  0  0  0  0  0  0  0  0  0  0  0
   21.4580   -9.4704  -15.0121 C   0  0  2  0  0  0  0  0  0  0  0  0
   20.9038  -10.3061  -16.0489 N   0  0  0  0  0  0  0  0  0  0  0  0
   21.5930   -8.0650  -15.4872 C   0  0  0  0  0  0  0  0  0  0  0  0
   22.0453   -7.8056  -16.6399 O   0  0  0  0  0  0  0  0  0  0  0  0
   18.9872   -5.5829  -15.8781 C   0  0  0  0  0  0  0  0  0  0  0  0
   19.9592   -4.9264  -14.9326 C   0  0  2  0  0  0  0  0  0  0  0  0
   20.0369   -3.4601  -15.2113 C   0  0  0  0  0  0  0  0  0  0  0  0
   21.3102   -5.6059  -15.0257 C   0  0  2  0  0  0  0  0  0  0  0  0
   21.2085   -6.9952  -14.6347 N   0  0  0  0  0  0  0  0  0  0  0  0
   22.3025   -4.9111  -14.1684 C   0  0  0  0  0  0  0  0  0  0  0  0
   22.9761   -3.9273  -14.5858 O   0  0  0  0  0  0  0  0  0  0  0  0
   22.4965   -5.3551  -12.8696 O   0  0  0  0  0  0  0  0  0  0  0  0
  2  1  1  6
  2  4  1  0
  2  3  1  0
  4  5  1  0
  5  7  1  0
  5  6  1  1
  7  8  2  0
  9 10  1  0
 11 10  1  6
 11 13  1  0
 12  7  1  0
 12 11  1  0
 13 19  1  0
 13 14  2  0
 16 18  1  0
 16 15  1  6
 17 16  1  0
 18 20  1  0
 18 19  1  1
 20 21  2  0
 20 22  1  0
M  END
$$$$
