LSV.pdb
     RDKit          3D

 22 21  0  0  1  0  0  0  0  0999 V2000
   20.4474  -14.6990  -16.1991 C   0  0  0  0  0  0  0  0  0  0  0  0
   20.1521  -14.1231  -17.5854 C   0  0  2  0  0  0  0  0  0  0  0  0
   21.1908  -14.5545  -18.5689 C   0  0  0  0  0  0  0  0  0  0  0  0
   20.0556  -12.6411  -17.5527 C   0  0  0  0  0  0  0  0  0  0  0  0
   18.9463  -12.1638  -16.6850 C   0  0  2  0  0  0  0  0  0  0  0  0
   17.6845  -12.7342  -17.1603 N   0  0  0  0  0  0  0  0  0  0  0  0
   18.8260  -10.7025  -16.6244 C   0  0  0  0  0  0  0  0  0  0  0  0
   18.5828  -10.0103  -17.6342 O   0  0  0  0  0  0  0  0  0  0  0  0
   17.5530   -6.8181  -14.3891 O   0  0  0  0  0  0  0  0  0  0  0  0
   17.6783   -8.1871  -14.5267 C   0  0  0  0  0  0  0  0  0  0  0  0
   18.8864   -8.5828  -15.3366 C   0  0  2  0  0  0  0  0  0  0  0  0
   18.9856  -10.0206  -15.3925 N   0  0  0  0  0  0  0  0  0  0  0  0
   20.1280   -7.9932  -14.7622 C   0  0  0  0  0  0  0  0  0  0  0  0
   20.7087   -8.5282  -13.7737 O   0  0  0  0  0  0  0  0  0  0  0  0
   22.9180   -6.3896  -17.0942 C   0  0  0  0  0  0  0  0  0  0  0  0
   22.5868   -5.4464  -15.9671 C   0  0  2  0  0  0  0  0  0  0  0  0
   23.8228   -4.7468  -15.5020 C   0  0  0  0  0  0  0  0  0  0  0  0
   21.8923   -6.1988  -14.8503 C   0  0  2  0  0  0  0  0  0  0  0  0
   20.6723   -6.8102  -15.3310 N   0  0  0  0  0  0  0  0  0  0  0  0
   21.5889   -5.2877  -13.7188 C   0  0  0  0  0  0  0  0  0  0  0  0
   20.4627   -4.7298  -13.5915 O   0  0  0  0  0  0  0  0  0  0  0  0
   22.5713   -5.0411  -12.7724 O   0  0  0  0  0  0  0  0  0  0  0  0
  2  1  1  1
  2  4  1  0
  2  3  1  0
  4  5  1  0
  5  7  1  0
  5  6  1  6
  7  8  2  0
  9 10  1  0
 11 10  1  1
 11 13  1  0
 12  7  1  0
 12 11  1  0
 13 19  1  0
 13 14  2  0
 16 18  1  0
 16 15  1  6
 17 16  1  0
 18 20  1  0
 18 19  1  6
 20 21  2  0
 20 22  1  0
M  END
$$$$
