LSV.pdb
     RDKit          3D

 22 21  0  0  1  0  0  0  0  0999 V2000
   22.4861  -14.2351  -21.4937 C   0  0  0  0  0  0  0  0  0  0  0  0
   21.1518  -14.7886  -20.9895 C   0  0  2  0  0  0  0  0  0  0  0  0
   20.4651  -15.5702  -22.0616 C   0  0  0  0  0  0  0  0  0  0  0  0
   20.2647  -13.7067  -20.4901 C   0  0  0  0  0  0  0  0  0  0  0  0
   20.8724  -12.9490  -19.3642 C   0  0  2  0  0  0  0  0  0  0  0  0
   21.1957  -13.8771  -18.2790 N   0  0  0  0  0  0  0  0  0  0  0  0
   20.0213  -11.8724  -18.8446 C   0  0  0  0  0  0  0  0  0  0  0  0
   19.2574  -11.2122  -19.5786 O   0  0  0  0  0  0  0  0  0  0  0  0
   17.9451  -11.9314  -15.4476 O   0  0  0  0  0  0  0  0  0  0  0  0
   18.7863  -10.8387  -15.5309 C   0  0  0  0  0  0  0  0  0  0  0  0
   19.1776  -10.5117  -16.9493 C   0  0  2  0  0  0  0  0  0  0  0  0
   20.0422  -11.5440  -17.4663 N   0  0  0  0  0  0  0  0  0  0  0  0
   19.8455   -9.1822  -17.0237 C   0  0  0  0  0  0  0  0  0  0  0  0
   21.0641   -9.0449  -16.7131 O   0  0  0  0  0  0  0  0  0  0  0  0
   17.5697   -5.7955  -18.4360 C   0  0  0  0  0  0  0  0  0  0  0  0
   19.0490   -5.9453  -18.6789 C   0  0  2  0  0  0  0  0  0  0  0  0
   19.2897   -6.5787  -20.0109 C   0  0  0  0  0  0  0  0  0  0  0  0
   19.6832   -6.7240  -17.5444 C   0  0  2  0  0  0  0  0  0  0  0  0
   19.1049   -8.0469  -17.4501 N   0  0  0  0  0  0  0  0  0  0  0  0
   19.5099   -6.0041  -16.2583 C   0  0  0  0  0  0  0  0  0  0  0  0
   20.1208   -4.9276  -16.0056 O   0  0  0  0  0  0  0  0  0  0  0  0
   18.6515   -6.5289  -15.3047 O   0  0  0  0  0  0  0  0  0  0  0  0
  2  1  1  6
  2  4  1  0
  2  3  1  0
  4  5  1  0
  5  7  1  0
  5  6  1  1
  7  8  2  0
  9 10  1  0
 11 10  1  1
 11 13  1  0
 12  7  1  0
 12 11  1  0
 13 19  1  0
 13 14  2  0
 16 18  1  0
 16 15  1  1
 17 16  1  0
 18 20  1  0
 18 19  1  1
 20 21  2  0
 20 22  1  0
M  END
$$$$
