MWH.pdb
     RDKit          3D

 33 35  0  0  1  0  0  0  0  0999 V2000
   17.6776  -32.6399  -17.9893 C   0  0  0  0  0  0  0  0  0  0  0  0
   18.9356  -31.3855  -17.8625 S   0  0  0  0  0  0  0  0  0  0  0  0
   18.6798  -30.1315  -16.6250 C   0  0  0  0  0  0  0  0  0  0  0  0
   19.7946  -29.1396  -16.4488 C   0  0  0  0  0  0  0  0  0  0  0  0
   19.3628  -27.7518  -16.7490 C   0  0  2  0  0  0  0  0  0  0  0  0
   20.1488  -27.2712  -17.8721 N   0  0  0  0  0  0  0  0  0  0  0  0
   19.5128  -26.8396  -15.5742 C   0  0  0  0  0  0  0  0  0  0  0  0
   20.6204  -26.3767  -15.2265 O   0  0  0  0  0  0  0  0  0  0  0  0
   18.3708  -26.4536  -14.7879 N   0  0  0  0  0  0  0  0  0  0  0  0
   18.4681  -25.5826  -13.6309 C   0  0  1  0  0  0  0  0  0  0  0  0
   17.8913  -24.2408  -13.8375 C   0  0  0  0  0  0  0  0  0  0  0  0
   18.5504  -23.3580  -14.7935 C   0  0  0  0  0  0  0  0  0  0  0  0
   19.8291  -22.9081  -14.9330 C   0  0  0  0  0  0  0  0  0  0  0  0
   19.9425  -22.0999  -16.0028 N   0  0  0  0  0  0  0  0  0  0  0  0
   18.7304  -22.0145  -16.5755 C   0  0  0  0  0  0  0  0  0  0  0  0
   18.2708  -21.3249  -17.6975 C   0  0  0  0  0  0  0  0  0  0  0  0
   16.9373  -21.4285  -18.0558 C   0  0  0  0  0  0  0  0  0  0  0  0
   16.0414  -22.1898  -17.3444 C   0  0  0  0  0  0  0  0  0  0  0  0
   16.5202  -22.8666  -16.2328 C   0  0  0  0  0  0  0  0  0  0  0  0
   17.8420  -22.7804  -15.8548 C   0  0  0  0  0  0  0  0  0  0  0  0
   17.9171  -26.2984  -12.4482 C   0  0  0  0  0  0  0  0  0  0  0  0
   16.8330  -26.9688  -12.5816 O   0  0  0  0  0  0  0  0  0  0  0  0
   18.5456  -26.2645  -11.1851 N   0  0  0  0  0  0  0  0  0  0  0  0
   17.9584  -27.0669  -10.1163 C   0  0  1  0  0  0  0  0  0  0  0  0
   18.9534  -27.3494   -9.0379 C   0  0  0  0  0  0  0  0  0  0  0  0
   20.0305  -28.2080   -9.5647 C   0  0  0  0  0  0  0  0  0  0  0  0
   20.0252  -28.6633  -10.8761 C   0  0  0  0  0  0  0  0  0  0  0  0
   21.1103  -29.4156  -11.0723 N   0  0  0  0  0  0  0  0  0  0  0  0
   21.7968  -29.4438   -9.9163 C   0  0  0  0  0  0  0  0  0  0  0  0
   21.1386  -28.7075   -8.9966 N   0  0  0  0  0  0  0  0  0  0  0  0
   16.8344  -26.2858   -9.5594 C   0  0  0  0  0  0  0  0  0  0  0  0
   16.8568  -25.0191   -9.6834 O   0  0  0  0  0  0  0  0  0  0  0  0
   15.7683  -26.8886   -8.9149 O   0  0  0  0  0  0  0  0  0  0  0  0
  2  1  1  0
  3  2  1  0
  4  3  1  0
  5  4  1  0
  5  6  1  6
  7  8  2  0
  7  5  1  0
  9  7  1  0
 10 11  1  6
 10  9  1  0
 12 11  1  0
 12 20  1  0
 13 14  1  0
 13 12  2  0
 14 15  1  0
 15 20  2  0
 15 16  1  0
 16 17  2  0
 17 18  1  0
 19 18  2  0
 20 19  1  0
 21 10  1  0
 21 22  2  0
 23 21  1  0
 24 23  1  0
 24 25  1  1
 25 26  1  0
 26 27  2  0
 26 30  1  0
 27 28  1  0
 28 29  1  0
 30 29  2  0
 31 24  1  0
 32 31  2  0
 33 31  1  0
M  END
$$$$
