MWH.pdb
     RDKit          3D

 33 35  0  0  1  0  0  0  0  0999 V2000
   29.8503  -25.2367  -17.8180 C   0  0  0  0  0  0  0  0  0  0  0  0
   29.9893  -23.7546  -18.7961 S   0  0  0  0  0  0  0  0  0  0  0  0
   29.6165  -22.2233  -17.9682 C   0  0  0  0  0  0  0  0  0  0  0  0
   28.9575  -22.3425  -16.6231 C   0  0  0  0  0  0  0  0  0  0  0  0
   27.5273  -21.9481  -16.6626 C   0  0  2  0  0  0  0  0  0  0  0  0
   27.4492  -20.5998  -17.1974 N   0  0  0  0  0  0  0  0  0  0  0  0
   26.8774  -22.0183  -15.3181 C   0  0  0  0  0  0  0  0  0  0  0  0
   26.8284  -23.0769  -14.6557 O   0  0  0  0  0  0  0  0  0  0  0  0
   26.2753  -20.8526  -14.7267 N   0  0  0  0  0  0  0  0  0  0  0  0
   25.5912  -20.8817  -13.4470 C   0  0  1  0  0  0  0  0  0  0  0  0
   26.0898  -19.8903  -12.4753 C   0  0  0  0  0  0  0  0  0  0  0  0
   27.1446  -20.3085  -11.5587 C   0  0  0  0  0  0  0  0  0  0  0  0
   28.4321  -20.7206  -11.7301 C   0  0  0  0  0  0  0  0  0  0  0  0
   29.0130  -20.9942  -10.5477 N   0  0  0  0  0  0  0  0  0  0  0  0
   28.1035  -20.7612   -9.5868 C   0  0  0  0  0  0  0  0  0  0  0  0
   28.1580  -20.8755   -8.1977 C   0  0  0  0  0  0  0  0  0  0  0  0
   27.0376  -20.5582   -7.4485 C   0  0  0  0  0  0  0  0  0  0  0  0
   25.8647  -20.1318   -8.0235 C   0  0  0  0  0  0  0  0  0  0  0  0
   25.8331  -20.0256   -9.4058 C   0  0  0  0  0  0  0  0  0  0  0  0
   26.9337  -20.3351  -10.1743 C   0  0  0  0  0  0  0  0  0  0  0  0
   24.1249  -20.8019  -13.6888 C   0  0  0  0  0  0  0  0  0  0  0  0
   23.6578  -19.7928  -14.3260 O   0  0  0  0  0  0  0  0  0  0  0  0
   23.2307  -21.7975  -13.2408 N   0  0  0  0  0  0  0  0  0  0  0  0
   21.8116  -21.6093  -13.5261 C   0  0  1  0  0  0  0  0  0  0  0  0
   21.1134  -22.9185  -13.7035 C   0  0  0  0  0  0  0  0  0  0  0  0
   19.6781  -22.6891  -13.9535 C   0  0  0  0  0  0  0  0  0  0  0  0
   19.1858  -22.4741  -15.2335 C   0  0  0  0  0  0  0  0  0  0  0  0
   17.8651  -22.2942  -15.1592 N   0  0  0  0  0  0  0  0  0  0  0  0
   17.5163  -22.3912  -13.8641 C   0  0  0  0  0  0  0  0  0  0  0  0
   18.6217  -22.6320  -13.1285 N   0  0  0  0  0  0  0  0  0  0  0  0
   21.2316  -20.8924  -12.3714 C   0  0  0  0  0  0  0  0  0  0  0  0
   21.7806  -21.0352  -11.2318 O   0  0  0  0  0  0  0  0  0  0  0  0
   20.1202  -20.0770  -12.4949 O   0  0  0  0  0  0  0  0  0  0  0  0
  2  1  1  0
  3  2  1  0
  4  3  1  0
  5  4  1  0
  5  6  1  1
  7  8  2  0
  7  5  1  0
  9  7  1  0
 10 11  1  1
 10  9  1  0
 12 11  1  0
 12 20  1  0
 13 14  1  0
 13 12  2  0
 14 15  1  0
 15 20  2  0
 15 16  1  0
 16 17  2  0
 17 18  1  0
 19 18  2  0
 20 19  1  0
 21 10  1  0
 21 22  2  0
 23 21  1  0
 24 23  1  0
 24 25  1  1
 25 26  1  0
 26 27  2  0
 26 30  1  0
 27 28  1  0
 28 29  1  0
 30 29  2  0
 31 24  1  0
 32 31  2  0
 33 31  1  0
M  END
$$$$
