MWH.pdb
     RDKit          3D

 33 35  0  0  1  0  0  0  0  0999 V2000
   26.8980  -15.8558  -14.5852 C   0  0  0  0  0  0  0  0  0  0  0  0
   28.3122  -16.5640  -15.4043 S   0  0  0  0  0  0  0  0  0  0  0  0
   28.7849  -18.2018  -14.8910 C   0  0  0  0  0  0  0  0  0  0  0  0
   27.8491  -18.8922  -13.9394 C   0  0  0  0  0  0  0  0  0  0  0  0
   28.3647  -20.2148  -13.5068 C   0  0  2  0  0  0  0  0  0  0  0  0
   28.6409  -20.9992  -14.6978 N   0  0  0  0  0  0  0  0  0  0  0  0
   27.4086  -20.9366  -12.6125 C   0  0  0  0  0  0  0  0  0  0  0  0
   26.6275  -21.8133  -13.0404 O   0  0  0  0  0  0  0  0  0  0  0  0
   27.3508  -20.6455  -11.2041 N   0  0  0  0  0  0  0  0  0  0  0  0
   26.3652  -21.2352  -10.3169 C   0  0  1  0  0  0  0  0  0  0  0  0
   26.8787  -21.5482   -8.9700 C   0  0  0  0  0  0  0  0  0  0  0  0
   27.0054  -20.4494   -8.0190 C   0  0  0  0  0  0  0  0  0  0  0  0
   26.5412  -19.1685   -7.9931 C   0  0  0  0  0  0  0  0  0  0  0  0
   26.9298  -18.5367   -6.8705 N   0  0  0  0  0  0  0  0  0  0  0  0
   27.6562  -19.4058   -6.1482 C   0  0  0  0  0  0  0  0  0  0  0  0
   28.2993  -19.2920   -4.9156 C   0  0  0  0  0  0  0  0  0  0  0  0
   28.9879  -20.3813   -4.4089 C   0  0  0  0  0  0  0  0  0  0  0  0
   29.0635  -21.5795   -5.0774 C   0  0  0  0  0  0  0  0  0  0  0  0
   28.4169  -21.6700   -6.3007 C   0  0  0  0  0  0  0  0  0  0  0  0
   27.7251  -20.6014   -6.8272 C   0  0  0  0  0  0  0  0  0  0  0  0
   25.1519  -20.3733  -10.3126 C   0  0  0  0  0  0  0  0  0  0  0  0
   25.2976  -19.1020  -10.2419 O   0  0  0  0  0  0  0  0  0  0  0  0
   23.8471  -20.9063  -10.3828 N   0  0  0  0  0  0  0  0  0  0  0  0
   22.9732  -20.4164  -11.4445 C   0  0  1  0  0  0  0  0  0  0  0  0
   23.3817  -20.9538  -12.7776 C   0  0  0  0  0  0  0  0  0  0  0  0
   22.4177  -20.5221  -13.8067 C   0  0  0  0  0  0  0  0  0  0  0  0
   21.3357  -19.7092  -13.4977 C   0  0  0  0  0  0  0  0  0  0  0  0
   20.6376  -19.4838  -14.6130 N   0  0  0  0  0  0  0  0  0  0  0  0
   21.2548  -20.1351  -15.6146 C   0  0  0  0  0  0  0  0  0  0  0  0
   22.3404  -20.7684  -15.1233 N   0  0  0  0  0  0  0  0  0  0  0  0
   21.6062  -20.8769  -11.1237 C   0  0  0  0  0  0  0  0  0  0  0  0
   21.4699  -21.9606  -10.4698 O   0  0  0  0  0  0  0  0  0  0  0  0
   20.4821  -20.1680  -11.5097 O   0  0  0  0  0  0  0  0  0  0  0  0
  2  1  1  0
  3  2  1  0
  4  3  1  0
  5  4  1  0
  5  6  1  6
  7  8  2  0
  7  5  1  0
  9  7  1  0
 10 11  1  1
 10  9  1  0
 12 11  1  0
 12 20  1  0
 13 14  1  0
 13 12  2  0
 14 15  1  0
 15 20  2  0
 15 16  1  0
 16 17  2  0
 17 18  1  0
 19 18  2  0
 20 19  1  0
 21 10  1  0
 21 22  2  0
 23 21  1  0
 24 23  1  0
 24 25  1  6
 25 26  1  0
 26 27  2  0
 26 30  1  0
 27 28  1  0
 28 29  1  0
 30 29  2  0
 31 24  1  0
 32 31  2  0
 33 31  1  0
M  END
$$$$
