MWH.pdb
     RDKit          3D

 33 35  0  0  1  0  0  0  0  0999 V2000
   42.2254  -16.3394  -11.7552 C   0  0  0  0  0  0  0  0  0  0  0  0
   43.2329  -15.4905  -12.9538 S   0  0  0  0  0  0  0  0  0  0  0  0
   42.4976  -14.0747  -13.7438 C   0  0  0  0  0  0  0  0  0  0  0  0
   42.4225  -12.8217  -12.9178 C   0  0  0  0  0  0  0  0  0  0  0  0
   41.6746  -11.7405  -13.6063 C   0  0  2  0  0  0  0  0  0  0  0  0
   42.4887  -11.2667  -14.7121 N   0  0  0  0  0  0  0  0  0  0  0  0
   41.3267  -10.6123  -12.6891 C   0  0  0  0  0  0  0  0  0  0  0  0
   42.0973   -9.6474  -12.4968 O   0  0  0  0  0  0  0  0  0  0  0  0
   40.0728  -10.5939  -11.9829 N   0  0  0  0  0  0  0  0  0  0  0  0
   39.7112   -9.5468  -11.0452 C   0  0  1  0  0  0  0  0  0  0  0  0
   38.2625   -9.4438  -10.7873 C   0  0  0  0  0  0  0  0  0  0  0  0
   37.8193   -8.4957   -9.7713 C   0  0  0  0  0  0  0  0  0  0  0  0
   37.5436   -7.1613   -9.7851 C   0  0  0  0  0  0  0  0  0  0  0  0
   37.1531   -6.7363   -8.5696 N   0  0  0  0  0  0  0  0  0  0  0  0
   37.1703   -7.7970   -7.7455 C   0  0  0  0  0  0  0  0  0  0  0  0
   36.8635   -7.9369   -6.3920 C   0  0  0  0  0  0  0  0  0  0  0  0
   36.9764   -9.1827   -5.7982 C   0  0  0  0  0  0  0  0  0  0  0  0
   37.3819  -10.2956   -6.4947 C   0  0  0  0  0  0  0  0  0  0  0  0
   37.6816  -10.1333   -7.8389 C   0  0  0  0  0  0  0  0  0  0  0  0
   37.5777   -8.9050   -8.4538 C   0  0  0  0  0  0  0  0  0  0  0  0
   40.5314   -9.7062   -9.8137 C   0  0  0  0  0  0  0  0  0  0  0  0
   40.8245  -10.8885   -9.4153 O   0  0  0  0  0  0  0  0  0  0  0  0
   40.9971   -8.6017   -9.0687 N   0  0  0  0  0  0  0  0  0  0  0  0
   41.8047   -8.8775   -7.8844 C   0  0  1  0  0  0  0  0  0  0  0  0
   43.0536   -9.6181   -8.2372 C   0  0  0  0  0  0  0  0  0  0  0  0
   43.8397   -9.8810   -7.0174 C   0  0  0  0  0  0  0  0  0  0  0  0
   43.2445  -10.3413   -5.8509 C   0  0  0  0  0  0  0  0  0  0  0  0
   44.1878  -10.4857   -4.9174 N   0  0  0  0  0  0  0  0  0  0  0  0
   45.3606  -10.1275   -5.4693 C   0  0  0  0  0  0  0  0  0  0  0  0
   45.1488   -9.7586   -6.7500 N   0  0  0  0  0  0  0  0  0  0  0  0
   42.1560   -7.5714   -7.2891 C   0  0  0  0  0  0  0  0  0  0  0  0
   42.3839   -6.5918   -8.0694 O   0  0  0  0  0  0  0  0  0  0  0  0
   42.2413   -7.3864   -5.9203 O   0  0  0  0  0  0  0  0  0  0  0  0
  2  1  1  0
  3  2  1  0
  4  3  1  0
  5  4  1  0
  5  6  1  6
  7  8  2  0
  7  5  1  0
  9  7  1  0
 10 11  1  1
 10  9  1  0
 12 11  1  0
 12 20  1  0
 13 14  1  0
 13 12  2  0
 14 15  1  0
 15 20  2  0
 15 16  1  0
 16 17  2  0
 17 18  1  0
 19 18  2  0
 20 19  1  0
 21 10  1  0
 21 22  2  0
 23 21  1  0
 24 23  1  0
 24 25  1  6
 25 26  1  0
 26 27  2  0
 26 30  1  0
 27 28  1  0
 28 29  1  0
 30 29  2  0
 31 24  1  0
 32 31  2  0
 33 31  1  0
M  END
$$$$
