MWH.pdb
     RDKit          3D

 33 35  0  0  1  0  0  0  0  0999 V2000
   27.2373  -20.7935  -18.4633 C   0  0  0  0  0  0  0  0  0  0  0  0
   28.5449  -20.2782  -17.3691 S   0  0  0  0  0  0  0  0  0  0  0  0
   29.1476  -21.5027  -16.2260 C   0  0  0  0  0  0  0  0  0  0  0  0
   28.1843  -21.9428  -15.1601 C   0  0  0  0  0  0  0  0  0  0  0  0
   27.4052  -20.8079  -14.6054 C   0  0  2  0  0  0  0  0  0  0  0  0
   28.3361  -19.8991  -13.9592 N   0  0  0  0  0  0  0  0  0  0  0  0
   26.3523  -21.2537  -13.6424 C   0  0  0  0  0  0  0  0  0  0  0  0
   25.5683  -22.1925  -13.8990 O   0  0  0  0  0  0  0  0  0  0  0  0
   26.1994  -20.6096  -12.3644 N   0  0  0  0  0  0  0  0  0  0  0  0
   25.1561  -20.9673  -11.4210 C   0  0  1  0  0  0  0  0  0  0  0  0
   25.5217  -20.7505  -10.0085 C   0  0  0  0  0  0  0  0  0  0  0  0
   26.9015  -21.0146   -9.6158 C   0  0  0  0  0  0  0  0  0  0  0  0
   27.9282  -21.7030  -10.1891 C   0  0  0  0  0  0  0  0  0  0  0  0
   29.0333  -21.6484   -9.4234 N   0  0  0  0  0  0  0  0  0  0  0  0
   28.7358  -20.9185   -8.3356 C   0  0  0  0  0  0  0  0  0  0  0  0
   29.4906  -20.5426   -7.2244 C   0  0  0  0  0  0  0  0  0  0  0  0
   28.9028  -19.7692   -6.2376 C   0  0  0  0  0  0  0  0  0  0  0  0
   27.5949  -19.3539   -6.3100 C   0  0  0  0  0  0  0  0  0  0  0  0
   26.8634  -19.7392   -7.4233 C   0  0  0  0  0  0  0  0  0  0  0  0
   27.4242  -20.5084   -8.4190 C   0  0  0  0  0  0  0  0  0  0  0  0
   23.8946  -20.2896  -11.8264 C   0  0  0  0  0  0  0  0  0  0  0  0
   23.9638  -19.1385  -12.3854 O   0  0  0  0  0  0  0  0  0  0  0  0
   22.6252  -20.8693  -11.6163 N   0  0  0  0  0  0  0  0  0  0  0  0
   21.5319  -20.4334  -12.4797 C   0  0  1  0  0  0  0  0  0  0  0  0
   21.7749  -20.8187  -13.9028 C   0  0  0  0  0  0  0  0  0  0  0  0
   20.6842  -20.3053  -14.7524 C   0  0  0  0  0  0  0  0  0  0  0  0
   20.1563  -19.0340  -14.5728 C   0  0  0  0  0  0  0  0  0  0  0  0
   19.1891  -18.8414  -15.4726 N   0  0  0  0  0  0  0  0  0  0  0  0
   19.0970  -19.9604  -16.2126 C   0  0  0  0  0  0  0  0  0  0  0  0
   20.0086  -20.8534  -15.7737 N   0  0  0  0  0  0  0  0  0  0  0  0
   20.3058  -21.0973  -11.9903 C   0  0  0  0  0  0  0  0  0  0  0  0
   20.3342  -22.3551  -11.7966 O   0  0  0  0  0  0  0  0  0  0  0  0
   19.1402  -20.3951  -11.7380 O   0  0  0  0  0  0  0  0  0  0  0  0
  2  1  1  0
  3  2  1  0
  4  3  1  0
  5  4  1  0
  5  6  1  1
  7  8  2  0
  7  5  1  0
  9  7  1  0
 10 11  1  1
 10  9  1  0
 12 11  1  0
 12 20  1  0
 13 14  1  0
 13 12  2  0
 14 15  1  0
 15 20  2  0
 15 16  1  0
 16 17  2  0
 17 18  1  0
 19 18  2  0
 20 19  1  0
 21 10  1  0
 21 22  2  0
 23 21  1  0
 24 23  1  0
 24 25  1  6
 25 26  1  0
 26 27  2  0
 26 30  1  0
 27 28  1  0
 28 29  1  0
 30 29  2  0
 31 24  1  0
 32 31  2  0
 33 31  1  0
M  END
$$$$
