MWH.pdb
     RDKit          3D

 33 35  0  0  1  0  0  0  0  0999 V2000
   27.8093  -25.5909  -20.8855 C   0  0  0  0  0  0  0  0  0  0  0  0
   29.0119  -24.2776  -20.8509 S   0  0  0  0  0  0  0  0  0  0  0  0
   28.6751  -22.9264  -19.7418 C   0  0  0  0  0  0  0  0  0  0  0  0
   27.7347  -23.2210  -18.6075 C   0  0  0  0  0  0  0  0  0  0  0  0
   28.4056  -23.1351  -17.2865 C   0  0  2  0  0  0  0  0  0  0  0  0
   29.3906  -24.2002  -17.2144 N   0  0  0  0  0  0  0  0  0  0  0  0
   27.4415  -23.2332  -16.1482 C   0  0  0  0  0  0  0  0  0  0  0  0
   27.1033  -24.3299  -15.6535 O   0  0  0  0  0  0  0  0  0  0  0  0
   26.8582  -22.0513  -15.5699 N   0  0  0  0  0  0  0  0  0  0  0  0
   25.9926  -22.0880  -14.4055 C   0  0  1  0  0  0  0  0  0  0  0  0
   26.0844  -20.8905  -13.5493 C   0  0  0  0  0  0  0  0  0  0  0  0
   25.3098  -20.8781  -12.3134 C   0  0  0  0  0  0  0  0  0  0  0  0
   25.5071  -21.4073  -11.0732 C   0  0  0  0  0  0  0  0  0  0  0  0
   24.4844  -21.1072  -10.2519 N   0  0  0  0  0  0  0  0  0  0  0  0
   23.6041  -20.3740  -10.9534 C   0  0  0  0  0  0  0  0  0  0  0  0
   22.3804  -19.7990  -10.6108 C   0  0  0  0  0  0  0  0  0  0  0  0
   21.6793  -19.0815  -11.5653 C   0  0  0  0  0  0  0  0  0  0  0  0
   22.1449  -18.9121  -12.8470 C   0  0  0  0  0  0  0  0  0  0  0  0
   23.3634  -19.4923  -13.1655 C   0  0  0  0  0  0  0  0  0  0  0  0
   24.0807  -20.2111  -12.2347 C   0  0  0  0  0  0  0  0  0  0  0  0
   24.6082  -22.4041  -14.8509 C   0  0  0  0  0  0  0  0  0  0  0  0
   24.1616  -21.8528  -15.9182 O   0  0  0  0  0  0  0  0  0  0  0  0
   23.7697  -23.2886  -14.1394 N   0  0  0  0  0  0  0  0  0  0  0  0
   22.4269  -23.5163  -14.6644 C   0  0  1  0  0  0  0  0  0  0  0  0
   21.9494  -24.8987  -14.3580 C   0  0  0  0  0  0  0  0  0  0  0  0
   20.6080  -25.1032  -14.9356 C   0  0  0  0  0  0  0  0  0  0  0  0
   20.4316  -25.6902  -16.1811 C   0  0  0  0  0  0  0  0  0  0  0  0
   19.1247  -25.7438  -16.4477 N   0  0  0  0  0  0  0  0  0  0  0  0
   18.4762  -25.2048  -15.4001 C   0  0  0  0  0  0  0  0  0  0  0  0
   19.3804  -24.8140  -14.4778 N   0  0  0  0  0  0  0  0  0  0  0  0
   21.5377  -22.5309  -14.0147 C   0  0  0  0  0  0  0  0  0  0  0  0
   20.9393  -21.6793  -14.7476 O   0  0  0  0  0  0  0  0  0  0  0  0
   21.3388  -22.5107  -12.6453 O   0  0  0  0  0  0  0  0  0  0  0  0
  2  1  1  0
  3  2  1  0
  4  3  1  0
  5  4  1  0
  5  6  1  1
  7  8  2  0
  7  5  1  0
  9  7  1  0
 10 11  1  6
 10  9  1  0
 12 11  1  0
 12 20  1  0
 13 14  1  0
 13 12  2  0
 14 15  1  0
 15 20  2  0
 15 16  1  0
 16 17  2  0
 17 18  1  0
 19 18  2  0
 20 19  1  0
 21 10  1  0
 21 22  2  0
 23 21  1  0
 24 23  1  0
 24 25  1  1
 25 26  1  0
 26 27  2  0
 26 30  1  0
 27 28  1  0
 28 29  1  0
 30 29  2  0
 31 24  1  0
 32 31  2  0
 33 31  1  0
M  END
$$$$
