MWH.pdb
     RDKit          3D

 33 35  0  0  1  0  0  0  0  0999 V2000
   28.8637  -21.9049  -21.5916 C   0  0  0  0  0  0  0  0  0  0  0  0
   27.9770  -22.2527  -20.0865 S   0  0  0  0  0  0  0  0  0  0  0  0
   27.7453  -20.8844  -18.9714 C   0  0  0  0  0  0  0  0  0  0  0  0
   26.8890  -21.1519  -17.7659 C   0  0  0  0  0  0  0  0  0  0  0  0
   27.6958  -21.5179  -16.5753 C   0  0  2  0  0  0  0  0  0  0  0  0
   28.3211  -22.8029  -16.8358 N   0  0  0  0  0  0  0  0  0  0  0  0
   26.8772  -21.5757  -15.3257 C   0  0  0  0  0  0  0  0  0  0  0  0
   26.1107  -22.5302  -15.0743 O   0  0  0  0  0  0  0  0  0  0  0  0
   26.9423  -20.5194  -14.3503 N   0  0  0  0  0  0  0  0  0  0  0  0
   26.1922  -20.5461  -13.1080 C   0  0  1  0  0  0  0  0  0  0  0  0
   26.9224  -19.9925  -11.9521 C   0  0  0  0  0  0  0  0  0  0  0  0
   26.8370  -20.7127  -10.6865 C   0  0  0  0  0  0  0  0  0  0  0  0
   26.8801  -22.0323  -10.3495 C   0  0  0  0  0  0  0  0  0  0  0  0
   26.7638  -22.1948   -9.0189 N   0  0  0  0  0  0  0  0  0  0  0  0
   26.6431  -20.9741   -8.4714 C   0  0  0  0  0  0  0  0  0  0  0  0
   26.4948  -20.5500   -7.1508 C   0  0  0  0  0  0  0  0  0  0  0  0
   26.3930  -19.1954   -6.8828 C   0  0  0  0  0  0  0  0  0  0  0  0
   26.4326  -18.2444   -7.8740 C   0  0  0  0  0  0  0  0  0  0  0  0
   26.5807  -18.6886   -9.1792 C   0  0  0  0  0  0  0  0  0  0  0  0
   26.6841  -20.0304   -9.4729 C   0  0  0  0  0  0  0  0  0  0  0  0
   24.8648  -19.9143  -13.3395 C   0  0  0  0  0  0  0  0  0  0  0  0
   24.7949  -18.8837  -14.0979 O   0  0  0  0  0  0  0  0  0  0  0  0
   23.6806  -20.4094  -12.7528 N   0  0  0  0  0  0  0  0  0  0  0  0
   22.4127  -20.0405  -13.3749 C   0  0  1  0  0  0  0  0  0  0  0  0
   22.4205  -20.3305  -14.8407 C   0  0  0  0  0  0  0  0  0  0  0  0
   21.1399  -19.9105  -15.4397 C   0  0  0  0  0  0  0  0  0  0  0  0
   20.9143  -18.5987  -15.8337 C   0  0  0  0  0  0  0  0  0  0  0  0
   19.6799  -18.5086  -16.3339 N   0  0  0  0  0  0  0  0  0  0  0  0
   19.1252  -19.7316  -16.2636 C   0  0  0  0  0  0  0  0  0  0  0  0
   20.0152  -20.5868  -15.7184 N   0  0  0  0  0  0  0  0  0  0  0  0
   21.3607  -20.8438  -12.7177 C   0  0  0  0  0  0  0  0  0  0  0  0
   21.7158  -21.7766  -11.9277 O   0  0  0  0  0  0  0  0  0  0  0  0
   20.0140  -20.6102  -12.9347 O   0  0  0  0  0  0  0  0  0  0  0  0
  2  1  1  0
  3  2  1  0
  4  3  1  0
  5  4  1  0
  5  6  1  6
  7  8  2  0
  7  5  1  0
  9  7  1  0
 10 11  1  1
 10  9  1  0
 12 11  1  0
 12 20  1  0
 13 14  1  0
 13 12  2  0
 14 15  1  0
 15 20  2  0
 15 16  1  0
 16 17  2  0
 17 18  1  0
 19 18  2  0
 20 19  1  0
 21 10  1  0
 21 22  2  0
 23 21  1  0
 24 23  1  0
 24 25  1  6
 25 26  1  0
 26 27  2  0
 26 30  1  0
 27 28  1  0
 28 29  1  0
 30 29  2  0
 31 24  1  0
 32 31  2  0
 33 31  1  0
M  END
$$$$
