MWH.pdb
     RDKit          3D

 33 35  0  0  1  0  0  0  0  0999 V2000
   30.8814  -24.3684  -15.3906 C   0  0  0  0  0  0  0  0  0  0  0  0
   30.7304  -22.9976  -16.5177 S   0  0  0  0  0  0  0  0  0  0  0  0
   29.4565  -21.8093  -16.1511 C   0  0  0  0  0  0  0  0  0  0  0  0
   28.4404  -22.2250  -15.1250 C   0  0  0  0  0  0  0  0  0  0  0  0
   27.4043  -21.1848  -14.9088 C   0  0  2  0  0  0  0  0  0  0  0  0
   28.0804  -19.9358  -14.6037 N   0  0  0  0  0  0  0  0  0  0  0  0
   26.4504  -21.5463  -13.8159 C   0  0  0  0  0  0  0  0  0  0  0  0
   25.7974  -22.6118  -13.8262 O   0  0  0  0  0  0  0  0  0  0  0  0
   26.2453  -20.6686  -12.6939 N   0  0  0  0  0  0  0  0  0  0  0  0
   25.2897  -20.9487  -11.6381 C   0  0  1  0  0  0  0  0  0  0  0  0
   25.7677  -20.6027  -10.2862 C   0  0  0  0  0  0  0  0  0  0  0  0
   27.1361  -20.9667   -9.9358 C   0  0  0  0  0  0  0  0  0  0  0  0
   28.0965  -21.7163  -10.5459 C   0  0  0  0  0  0  0  0  0  0  0  0
   29.2233  -21.7485   -9.8111 N   0  0  0  0  0  0  0  0  0  0  0  0
   29.0070  -21.0148   -8.7068 C   0  0  0  0  0  0  0  0  0  0  0  0
   29.8161  -20.7070   -7.6131 C   0  0  0  0  0  0  0  0  0  0  0  0
   29.3106  -19.9085   -6.6011 C   0  0  0  0  0  0  0  0  0  0  0  0
   28.0331  -19.4031   -6.6316 C   0  0  0  0  0  0  0  0  0  0  0  0
   27.2465  -19.7218   -7.7283 C   0  0  0  0  0  0  0  0  0  0  0  0
   27.7252  -20.5141   -8.7484 C   0  0  0  0  0  0  0  0  0  0  0  0
   23.9883  -20.3210  -11.9947 C   0  0  0  0  0  0  0  0  0  0  0  0
   23.9897  -19.1529  -12.5218 O   0  0  0  0  0  0  0  0  0  0  0  0
   22.7530  -20.9661  -11.7723 N   0  0  0  0  0  0  0  0  0  0  0  0
   21.6041  -20.5130  -12.5504 C   0  0  1  0  0  0  0  0  0  0  0  0
   21.7299  -20.9058  -13.9866 C   0  0  0  0  0  0  0  0  0  0  0  0
   20.5515  -20.4352  -14.7381 C   0  0  0  0  0  0  0  0  0  0  0  0
   19.7420  -19.4135  -14.2608 C   0  0  0  0  0  0  0  0  0  0  0  0
   18.7584  -19.2017  -15.1381 N   0  0  0  0  0  0  0  0  0  0  0  0
   18.9305  -20.0653  -16.1544 C   0  0  0  0  0  0  0  0  0  0  0  0
   20.0239  -20.8177  -15.9109 N   0  0  0  0  0  0  0  0  0  0  0  0
   20.4080  -21.1541  -11.9657 C   0  0  0  0  0  0  0  0  0  0  0  0
   19.3359  -20.4730  -11.8812 O   0  0  0  0  0  0  0  0  0  0  0  0
   20.4217  -22.4621  -11.5138 O   0  0  0  0  0  0  0  0  0  0  0  0
  2  1  1  0
  3  2  1  0
  4  3  1  0
  5  4  1  0
  5  6  1  1
  7  8  2  0
  7  5  1  0
  9  7  1  0
 10 11  1  1
 10  9  1  0
 12 11  1  0
 12 20  1  0
 13 14  1  0
 13 12  2  0
 14 15  1  0
 15 20  2  0
 15 16  1  0
 16 17  2  0
 17 18  1  0
 19 18  2  0
 20 19  1  0
 21 10  1  0
 21 22  2  0
 23 21  1  0
 24 23  1  0
 24 25  1  6
 25 26  1  0
 26 27  2  0
 26 30  1  0
 27 28  1  0
 28 29  1  0
 30 29  2  0
 31 24  1  0
 32 31  2  0
 33 31  1  0
M  END
$$$$
