MWH.pdb
     RDKit          3D

 33 35  0  0  1  0  0  0  0  0999 V2000
   23.2332  -15.6181  -19.8218 C   0  0  0  0  0  0  0  0  0  0  0  0
   23.0956  -14.0696  -18.9526 S   0  0  0  0  0  0  0  0  0  0  0  0
   23.8079  -12.6479  -19.7529 C   0  0  0  0  0  0  0  0  0  0  0  0
   23.7707  -11.3632  -18.9743 C   0  0  0  0  0  0  0  0  0  0  0  0
   22.5300  -11.2306  -18.1708 C   0  0  2  0  0  0  0  0  0  0  0  0
   21.4127  -11.1018  -19.0902 N   0  0  0  0  0  0  0  0  0  0  0  0
   22.5768  -10.0659  -17.2347 C   0  0  0  0  0  0  0  0  0  0  0  0
   23.4588   -9.9511  -16.3568 O   0  0  0  0  0  0  0  0  0  0  0  0
   21.5941   -9.0172  -17.3103 N   0  0  0  0  0  0  0  0  0  0  0  0
   21.6658   -7.8100  -16.5077 C   0  0  1  0  0  0  0  0  0  0  0  0
   21.8694   -6.5772  -17.2916 C   0  0  0  0  0  0  0  0  0  0  0  0
   23.1927   -6.3439  -17.8591 C   0  0  0  0  0  0  0  0  0  0  0  0
   23.8272   -6.7859  -18.9811 C   0  0  0  0  0  0  0  0  0  0  0  0
   25.0663   -6.2689  -19.0704 N   0  0  0  0  0  0  0  0  0  0  0  0
   25.2530   -5.4790  -18.0000 C   0  0  0  0  0  0  0  0  0  0  0  0
   26.3358   -4.7035  -17.5854 C   0  0  0  0  0  0  0  0  0  0  0  0
   26.2372   -3.9774  -16.4105 C   0  0  0  0  0  0  0  0  0  0  0  0
   25.1060   -3.9904  -15.6304 C   0  0  0  0  0  0  0  0  0  0  0  0
   24.0421   -4.7682  -16.0617 C   0  0  0  0  0  0  0  0  0  0  0  0
   24.1143   -5.5000  -17.2265 C   0  0  0  0  0  0  0  0  0  0  0  0
   20.4791   -7.7632  -15.6107 C   0  0  0  0  0  0  0  0  0  0  0  0
   19.3205   -7.9965  -16.1064 O   0  0  0  0  0  0  0  0  0  0  0  0
   20.5845   -7.4703  -14.2342 N   0  0  0  0  0  0  0  0  0  0  0  0
   19.3546   -7.4671  -13.4480 C   0  0  1  0  0  0  0  0  0  0  0  0
   19.5908   -7.9822  -12.0653 C   0  0  0  0  0  0  0  0  0  0  0  0
   18.3588   -7.8491  -11.2656 C   0  0  0  0  0  0  0  0  0  0  0  0
   17.1025   -8.0426  -11.8235 C   0  0  0  0  0  0  0  0  0  0  0  0
   16.1804   -7.8558  -10.8763 N   0  0  0  0  0  0  0  0  0  0  0  0
   16.8271   -7.5500   -9.7376 C   0  0  0  0  0  0  0  0  0  0  0  0
   18.1556   -7.5458   -9.9746 N   0  0  0  0  0  0  0  0  0  0  0  0
   18.8902   -6.0659  -13.3807 C   0  0  0  0  0  0  0  0  0  0  0  0
   19.7614   -5.1432  -13.2803 O   0  0  0  0  0  0  0  0  0  0  0  0
   17.5476   -5.7334  -13.4253 O   0  0  0  0  0  0  0  0  0  0  0  0
  2  1  1  0
  3  2  1  0
  4  3  1  0
  5  4  1  0
  5  6  1  6
  7  8  2  0
  7  5  1  0
  9  7  1  0
 10 11  1  6
 10  9  1  0
 12 11  1  0
 12 20  1  0
 13 14  1  0
 13 12  2  0
 14 15  1  0
 15 20  2  0
 15 16  1  0
 16 17  2  0
 17 18  1  0
 19 18  2  0
 20 19  1  0
 21 10  1  0
 21 22  2  0
 23 21  1  0
 24 23  1  0
 24 25  1  1
 25 26  1  0
 26 27  2  0
 26 30  1  0
 27 28  1  0
 28 29  1  0
 30 29  2  0
 31 24  1  0
 32 31  2  0
 33 31  1  0
M  END
$$$$
