MWH.pdb
     RDKit          3D

 33 35  0  0  1  0  0  0  0  0999 V2000
   28.9696  -18.6921  -16.9347 C   0  0  0  0  0  0  0  0  0  0  0  0
   29.1694  -17.7028  -15.4671 S   0  0  0  0  0  0  0  0  0  0  0  0
   28.1965  -18.1790  -14.0543 C   0  0  0  0  0  0  0  0  0  0  0  0
   28.1033  -19.6539  -13.7827 C   0  0  0  0  0  0  0  0  0  0  0  0
   28.7520  -20.0302  -12.5021 C   0  0  2  0  0  0  0  0  0  0  0  0
   29.9039  -20.8597  -12.8103 N   0  0  0  0  0  0  0  0  0  0  0  0
   27.8206  -20.7471  -11.5783 C   0  0  0  0  0  0  0  0  0  0  0  0
   27.7415  -21.9939  -11.5465 O   0  0  0  0  0  0  0  0  0  0  0  0
   26.9676  -20.0181  -10.6769 N   0  0  0  0  0  0  0  0  0  0  0  0
   25.8375  -20.6243   -9.9971 C   0  0  1  0  0  0  0  0  0  0  0  0
   25.5669  -20.0620   -8.6606 C   0  0  0  0  0  0  0  0  0  0  0  0
   26.6810  -19.4550   -7.9408 C   0  0  0  0  0  0  0  0  0  0  0  0
   27.4574  -18.3569   -8.1605 C   0  0  0  0  0  0  0  0  0  0  0  0
   28.3702  -18.2077   -7.1833 N   0  0  0  0  0  0  0  0  0  0  0  0
   28.1966  -19.2140   -6.3105 C   0  0  0  0  0  0  0  0  0  0  0  0
   28.8527  -19.5511   -5.1267 C   0  0  0  0  0  0  0  0  0  0  0  0
   28.4447  -20.6714   -4.4226 C   0  0  0  0  0  0  0  0  0  0  0  0
   27.4107  -21.4708   -4.8471 C   0  0  0  0  0  0  0  0  0  0  0  0
   26.7728  -21.1168   -6.0264 C   0  0  0  0  0  0  0  0  0  0  0  0
   27.1592  -20.0075   -6.7458 C   0  0  0  0  0  0  0  0  0  0  0  0
   24.6623  -20.5976  -10.9099 C   0  0  0  0  0  0  0  0  0  0  0  0
   24.4392  -19.5403  -11.5989 O   0  0  0  0  0  0  0  0  0  0  0  0
   23.7849  -21.6948  -11.0429 N   0  0  0  0  0  0  0  0  0  0  0  0
   22.6612  -21.5537  -11.9639 C   0  0  1  0  0  0  0  0  0  0  0  0
   22.2574  -22.8735  -12.5367 C   0  0  0  0  0  0  0  0  0  0  0  0
   23.2446  -23.3036  -13.5445 C   0  0  0  0  0  0  0  0  0  0  0  0
   24.3204  -22.5018  -13.9005 C   0  0  0  0  0  0  0  0  0  0  0  0
   25.0395  -23.1378  -14.8280 N   0  0  0  0  0  0  0  0  0  0  0  0
   24.4416  -24.3192  -15.0630 C   0  0  0  0  0  0  0  0  0  0  0  0
   23.3469  -24.4207  -14.2804 N   0  0  0  0  0  0  0  0  0  0  0  0
   21.5379  -20.9868  -11.1891 C   0  0  0  0  0  0  0  0  0  0  0  0
   20.4376  -20.7665  -11.7902 O   0  0  0  0  0  0  0  0  0  0  0  0
   21.6485  -20.6937   -9.8411 O   0  0  0  0  0  0  0  0  0  0  0  0
  2  1  1  0
  3  2  1  0
  4  3  1  0
  5  4  1  0
  5  6  1  6
  7  8  2  0
  7  5  1  0
  9  7  1  0
 10 11  1  1
 10  9  1  0
 12 11  1  0
 12 20  1  0
 13 14  1  0
 13 12  2  0
 14 15  1  0
 15 20  2  0
 15 16  1  0
 16 17  2  0
 17 18  1  0
 19 18  2  0
 20 19  1  0
 21 10  1  0
 21 22  2  0
 23 21  1  0
 24 23  1  0
 24 25  1  1
 25 26  1  0
 26 27  2  0
 26 30  1  0
 27 28  1  0
 28 29  1  0
 30 29  2  0
 31 24  1  0
 32 31  2  0
 33 31  1  0
M  END
$$$$
