MWH.pdb
     RDKit          3D

 33 35  0  0  1  0  0  0  0  0999 V2000
   29.3039  -16.0661  -17.4946 C   0  0  0  0  0  0  0  0  0  0  0  0
   28.8271  -17.0728  -16.1048 S   0  0  0  0  0  0  0  0  0  0  0  0
   28.9652  -18.8345  -16.3204 C   0  0  0  0  0  0  0  0  0  0  0  0
   28.5571  -19.6782  -15.1459 C   0  0  0  0  0  0  0  0  0  0  0  0
   27.1108  -20.0100  -15.1697 C   0  0  2  0  0  0  0  0  0  0  0  0
   26.3726  -18.7793  -15.3948 N   0  0  0  0  0  0  0  0  0  0  0  0
   26.6553  -20.6727  -13.9095 C   0  0  0  0  0  0  0  0  0  0  0  0
   27.0801  -21.7930  -13.5540 O   0  0  0  0  0  0  0  0  0  0  0  0
   25.6967  -20.0363  -13.0448 N   0  0  0  0  0  0  0  0  0  0  0  0
   25.1208  -20.6944  -11.8865 C   0  0  1  0  0  0  0  0  0  0  0  0
   25.6247  -20.1898  -10.5952 C   0  0  0  0  0  0  0  0  0  0  0  0
   26.9492  -20.6248  -10.1661 C   0  0  0  0  0  0  0  0  0  0  0  0
   27.9978  -21.2175  -10.8033 C   0  0  0  0  0  0  0  0  0  0  0  0
   29.0262  -21.4162   -9.9586 N   0  0  0  0  0  0  0  0  0  0  0  0
   28.6556  -20.9516   -8.7539 C   0  0  0  0  0  0  0  0  0  0  0  0
   29.3154  -20.9003   -7.5260 C   0  0  0  0  0  0  0  0  0  0  0  0
   28.6673  -20.3514   -6.4323 C   0  0  0  0  0  0  0  0  0  0  0  0
   27.3897  -19.8512   -6.5090 C   0  0  0  0  0  0  0  0  0  0  0  0
   26.7530  -19.9125   -7.7393 C   0  0  0  0  0  0  0  0  0  0  0  0
   27.3752  -20.4535   -8.8429 C   0  0  0  0  0  0  0  0  0  0  0  0
   23.6379  -20.6609  -12.0078 C   0  0  0  0  0  0  0  0  0  0  0  0
   22.9935  -19.7063  -11.4460 O   0  0  0  0  0  0  0  0  0  0  0  0
   22.9164  -21.6435  -12.7189 N   0  0  0  0  0  0  0  0  0  0  0  0
   21.4838  -21.4304  -12.9010 C   0  0  1  0  0  0  0  0  0  0  0  0
   21.2140  -20.1994  -13.7039 C   0  0  0  0  0  0  0  0  0  0  0  0
   21.9100  -20.2868  -15.0012 C   0  0  0  0  0  0  0  0  0  0  0  0
   22.2099  -21.5089  -15.5874 C   0  0  0  0  0  0  0  0  0  0  0  0
   22.8381  -21.2860  -16.7440 N   0  0  0  0  0  0  0  0  0  0  0  0
   22.9399  -19.9540  -16.8983 C   0  0  0  0  0  0  0  0  0  0  0  0
   22.3740  -19.3443  -15.8357 N   0  0  0  0  0  0  0  0  0  0  0  0
   20.9603  -22.6122  -13.6173 C   0  0  0  0  0  0  0  0  0  0  0  0
   21.7874  -23.4928  -14.0184 O   0  0  0  0  0  0  0  0  0  0  0  0
   19.6089  -22.7861  -13.8594 O   0  0  0  0  0  0  0  0  0  0  0  0
  2  1  1  0
  3  2  1  0
  4  3  1  0
  5  4  1  0
  5  6  1  1
  7  8  2  0
  7  5  1  0
  9  7  1  0
 10 11  1  1
 10  9  1  0
 12 11  1  0
 12 20  1  0
 13 14  1  0
 13 12  2  0
 14 15  1  0
 15 20  2  0
 15 16  1  0
 16 17  2  0
 17 18  1  0
 19 18  2  0
 20 19  1  0
 21 10  1  0
 21 22  2  0
 23 21  1  0
 24 23  1  0
 24 25  1  6
 25 26  1  0
 26 27  2  0
 26 30  1  0
 27 28  1  0
 28 29  1  0
 30 29  2  0
 31 24  1  0
 32 31  2  0
 33 31  1  0
M  END
$$$$
