MWH.pdb
     RDKit          3D

 33 35  0  0  1  0  0  0  0  0999 V2000
   25.3378  -22.2037  -18.6493 C   0  0  0  0  0  0  0  0  0  0  0  0
   27.0167  -21.6788  -18.9285 S   0  0  0  0  0  0  0  0  0  0  0  0
   28.1463  -21.8859  -17.5682 C   0  0  0  0  0  0  0  0  0  0  0  0
   27.5354  -22.2977  -16.2586 C   0  0  0  0  0  0  0  0  0  0  0  0
   27.7131  -21.2649  -15.2078 C   0  0  2  0  0  0  0  0  0  0  0  0
   29.1370  -21.1171  -14.9614 N   0  0  0  0  0  0  0  0  0  0  0  0
   26.9937  -21.6067  -13.9426 C   0  0  0  0  0  0  0  0  0  0  0  0
   25.9188  -22.2441  -13.9381 O   0  0  0  0  0  0  0  0  0  0  0  0
   27.5197  -21.2094  -12.6632 N   0  0  0  0  0  0  0  0  0  0  0  0
   26.7659  -21.3303  -11.4288 C   0  0  1  0  0  0  0  0  0  0  0  0
   27.5826  -21.1898  -10.2086 C   0  0  0  0  0  0  0  0  0  0  0  0
   26.8899  -20.9072   -8.9564 C   0  0  0  0  0  0  0  0  0  0  0  0
   25.5768  -20.8721   -8.5940 C   0  0  0  0  0  0  0  0  0  0  0  0
   25.4435  -20.5618   -7.2915 N   0  0  0  0  0  0  0  0  0  0  0  0
   26.6772  -20.3907   -6.7883 C   0  0  0  0  0  0  0  0  0  0  0  0
   27.1306  -20.0632   -5.5104 C   0  0  0  0  0  0  0  0  0  0  0  0
   28.4922  -19.9539   -5.2833 C   0  0  0  0  0  0  0  0  0  0  0  0
   29.4220  -20.1569   -6.2745 C   0  0  0  0  0  0  0  0  0  0  0  0
   28.9487  -20.4815   -7.5369 C   0  0  0  0  0  0  0  0  0  0  0  0
   27.5995  -20.5963   -7.7895 C   0  0  0  0  0  0  0  0  0  0  0  0
   25.6056  -20.4000  -11.4862 C   0  0  0  0  0  0  0  0  0  0  0  0
   25.8255  -19.1471  -11.6420 O   0  0  0  0  0  0  0  0  0  0  0  0
   24.2723  -20.8485  -11.3744 N   0  0  0  0  0  0  0  0  0  0  0  0
   23.2426  -20.0890  -12.0770 C   0  0  1  0  0  0  0  0  0  0  0  0
   23.5471  -19.9790  -13.5358 C   0  0  0  0  0  0  0  0  0  0  0  0
   22.4403  -19.2913  -14.2265 C   0  0  0  0  0  0  0  0  0  0  0  0
   21.9363  -18.0806  -13.7713 C   0  0  0  0  0  0  0  0  0  0  0  0
   20.9467  -17.6975  -14.5813 N   0  0  0  0  0  0  0  0  0  0  0  0
   20.8172  -18.6379  -15.5338 C   0  0  0  0  0  0  0  0  0  0  0  0
   21.7278  -19.6101  -15.3178 N   0  0  0  0  0  0  0  0  0  0  0  0
   21.9694  -20.8158  -11.8914 C   0  0  0  0  0  0  0  0  0  0  0  0
   20.9969  -20.2039  -11.3434 O   0  0  0  0  0  0  0  0  0  0  0  0
   21.8072  -22.1297  -12.2949 O   0  0  0  0  0  0  0  0  0  0  0  0
  2  1  1  0
  3  2  1  0
  4  3  1  0
  5  4  1  0
  5  6  1  1
  7  8  2  0
  7  5  1  0
  9  7  1  0
 10 11  1  1
 10  9  1  0
 12 11  1  0
 12 20  1  0
 13 14  1  0
 13 12  2  0
 14 15  1  0
 15 20  2  0
 15 16  1  0
 16 17  2  0
 17 18  1  0
 19 18  2  0
 20 19  1  0
 21 10  1  0
 21 22  2  0
 23 21  1  0
 24 23  1  0
 24 25  1  6
 25 26  1  0
 26 27  2  0
 26 30  1  0
 27 28  1  0
 28 29  1  0
 30 29  2  0
 31 24  1  0
 32 31  2  0
 33 31  1  0
M  END
$$$$
