MWH.pdb
     RDKit          3D

 33 35  0  0  1  0  0  0  0  0999 V2000
   19.9325  -19.6375  -20.4717 C   0  0  0  0  0  0  0  0  0  0  0  0
   20.1768  -21.0712  -21.4999 S   0  0  0  0  0  0  0  0  0  0  0  0
   21.1966  -22.3643  -20.8240 C   0  0  0  0  0  0  0  0  0  0  0  0
   20.7942  -22.8856  -19.4733 C   0  0  0  0  0  0  0  0  0  0  0  0
   20.7532  -21.8133  -18.4481 C   0  0  2  0  0  0  0  0  0  0  0  0
   22.1085  -21.3283  -18.2530 N   0  0  0  0  0  0  0  0  0  0  0  0
   20.1716  -22.2823  -17.1532 C   0  0  0  0  0  0  0  0  0  0  0  0
   19.2029  -23.0704  -17.1039 O   0  0  0  0  0  0  0  0  0  0  0  0
   20.7132  -21.8379  -15.8960 N   0  0  0  0  0  0  0  0  0  0  0  0
   20.1517  -22.2248  -14.6148 C   0  0  1  0  0  0  0  0  0  0  0  0
   21.0596  -22.0141  -13.4715 C   0  0  0  0  0  0  0  0  0  0  0  0
   20.5669  -22.3539  -12.1413 C   0  0  0  0  0  0  0  0  0  0  0  0
   19.9772  -23.4616  -11.6103 C   0  0  0  0  0  0  0  0  0  0  0  0
   19.7082  -23.2861  -10.3037 N   0  0  0  0  0  0  0  0  0  0  0  0
   20.1230  -22.0534   -9.9675 C   0  0  0  0  0  0  0  0  0  0  0  0
   20.0950  -21.3517   -8.7622 C   0  0  0  0  0  0  0  0  0  0  0  0
   20.6072  -20.0661   -8.7160 C   0  0  0  0  0  0  0  0  0  0  0  0
   21.1463  -19.4489   -9.8191 C   0  0  0  0  0  0  0  0  0  0  0  0
   21.1637  -20.1651  -11.0065 C   0  0  0  0  0  0  0  0  0  0  0  0
   20.6606  -21.4453  -11.0795 C   0  0  0  0  0  0  0  0  0  0  0  0
   18.8253  -21.5683  -14.4583 C   0  0  0  0  0  0  0  0  0  0  0  0
   18.7378  -20.3022  -14.6364 O   0  0  0  0  0  0  0  0  0  0  0  0
   17.6610  -22.2903  -14.1199 N   0  0  0  0  0  0  0  0  0  0  0  0
   16.4225  -21.5359  -13.9534 C   0  0  1  0  0  0  0  0  0  0  0  0
   15.2610  -22.2550  -14.5589 C   0  0  0  0  0  0  0  0  0  0  0  0
   15.1906  -21.9630  -16.0028 C   0  0  0  0  0  0  0  0  0  0  0  0
   16.0985  -21.1138  -16.6205 C   0  0  0  0  0  0  0  0  0  0  0  0
   15.7944  -21.0330  -17.9179 N   0  0  0  0  0  0  0  0  0  0  0  0
   14.7180  -21.8107  -18.1297 C   0  0  0  0  0  0  0  0  0  0  0  0
   14.3494  -22.3780  -16.9621 N   0  0  0  0  0  0  0  0  0  0  0  0
   16.2047  -21.3812  -12.4999 C   0  0  0  0  0  0  0  0  0  0  0  0
   17.0474  -21.9044  -11.7021 O   0  0  0  0  0  0  0  0  0  0  0  0
   15.1213  -20.6884  -11.9885 O   0  0  0  0  0  0  0  0  0  0  0  0
  2  1  1  0
  3  2  1  0
  4  3  1  0
  5  4  1  0
  5  6  1  1
  7  8  2  0
  7  5  1  0
  9  7  1  0
 10 11  1  1
 10  9  1  0
 12 11  1  0
 12 20  1  0
 13 14  1  0
 13 12  2  0
 14 15  1  0
 15 20  2  0
 15 16  1  0
 16 17  2  0
 17 18  1  0
 19 18  2  0
 20 19  1  0
 21 10  1  0
 21 22  2  0
 23 21  1  0
 24 23  1  0
 24 25  1  1
 25 26  1  0
 26 27  2  0
 26 30  1  0
 27 28  1  0
 28 29  1  0
 30 29  2  0
 31 24  1  0
 32 31  2  0
 33 31  1  0
M  END
$$$$
