MWH.pdb
     RDKit          3D

 33 35  0  0  1  0  0  0  0  0999 V2000
   23.8280  -29.0513  -16.8818 C   0  0  0  0  0  0  0  0  0  0  0  0
   23.8859  -27.7621  -15.6542 S   0  0  0  0  0  0  0  0  0  0  0  0
   22.6595  -26.4795  -15.7963 C   0  0  0  0  0  0  0  0  0  0  0  0
   22.7041  -25.4032  -14.7487 C   0  0  0  0  0  0  0  0  0  0  0  0
   23.4361  -24.1988  -15.2133 C   0  0  2  0  0  0  0  0  0  0  0  0
   24.7943  -24.5980  -15.5390 N   0  0  0  0  0  0  0  0  0  0  0  0
   23.4402  -23.1040  -14.1953 C   0  0  0  0  0  0  0  0  0  0  0  0
   22.3890  -22.6754  -13.6728 O   0  0  0  0  0  0  0  0  0  0  0  0
   24.6729  -22.4937  -13.7716 N   0  0  0  0  0  0  0  0  0  0  0  0
   24.7333  -21.4683  -12.7463 C   0  0  1  0  0  0  0  0  0  0  0  0
   25.9921  -21.4594  -11.9774 C   0  0  0  0  0  0  0  0  0  0  0  0
   26.2055  -20.3656  -11.0362 C   0  0  0  0  0  0  0  0  0  0  0  0
   26.5696  -19.0600  -11.1769 C   0  0  0  0  0  0  0  0  0  0  0  0
   26.6242  -18.4426   -9.9826 N   0  0  0  0  0  0  0  0  0  0  0  0
   26.2936  -19.3459   -9.0449 C   0  0  0  0  0  0  0  0  0  0  0  0
   26.1872  -19.2593   -7.6568 C   0  0  0  0  0  0  0  0  0  0  0  0
   25.8177  -20.3819   -6.9353 C   0  0  0  0  0  0  0  0  0  0  0  0
   25.5495  -21.5878   -7.5373 C   0  0  0  0  0  0  0  0  0  0  0  0
   25.6615  -21.6509   -8.9180 C   0  0  0  0  0  0  0  0  0  0  0  0
   26.0274  -20.5490   -9.6591 C   0  0  0  0  0  0  0  0  0  0  0  0
   24.3967  -20.1567  -13.3638 C   0  0  0  0  0  0  0  0  0  0  0  0
   24.3490  -19.1163  -12.6170 O   0  0  0  0  0  0  0  0  0  0  0  0
   24.1275  -20.0183  -14.7422 N   0  0  0  0  0  0  0  0  0  0  0  0
   25.0020  -19.1434  -15.5171 C   0  0  1  0  0  0  0  0  0  0  0  0
   26.4413  -19.4802  -15.2991 C   0  0  0  0  0  0  0  0  0  0  0  0
   27.2881  -18.6365  -16.1629 C   0  0  0  0  0  0  0  0  0  0  0  0
   27.1098  -17.2621  -16.2408 C   0  0  0  0  0  0  0  0  0  0  0  0
   28.0063  -16.7621  -17.0942 N   0  0  0  0  0  0  0  0  0  0  0  0
   28.7431  -17.7889  -17.5539 C   0  0  0  0  0  0  0  0  0  0  0  0
   28.3054  -18.9322  -16.9862 N   0  0  0  0  0  0  0  0  0  0  0  0
   24.6581  -19.3419  -16.9405 C   0  0  0  0  0  0  0  0  0  0  0  0
   24.4138  -20.5238  -17.3455 O   0  0  0  0  0  0  0  0  0  0  0  0
   24.5935  -18.2880  -17.8352 O   0  0  0  0  0  0  0  0  0  0  0  0
  2  1  1  0
  3  2  1  0
  4  3  1  0
  5  4  1  0
  5  6  1  1
  7  8  2  0
  7  5  1  0
  9  7  1  0
 10 11  1  6
 10  9  1  0
 12 11  1  0
 12 20  1  0
 13 14  1  0
 13 12  2  0
 14 15  1  0
 15 20  2  0
 15 16  1  0
 16 17  2  0
 17 18  1  0
 19 18  2  0
 20 19  1  0
 21 10  1  0
 21 22  2  0
 23 21  1  0
 24 23  1  0
 24 25  1  6
 25 26  1  0
 26 27  2  0
 26 30  1  0
 27 28  1  0
 28 29  1  0
 30 29  2  0
 31 24  1  0
 32 31  2  0
 33 31  1  0
M  END
$$$$
