HQL.pdb
     RDKit          3D

 28 28  0  0  1  0  0  0  0  0999 V2000
   14.1419  -14.0976    5.8571 N   0  0  0  0  0  0  0  0  0  0  0  0
   15.4047  -14.7326    5.4446 C   0  0  1  0  0  0  0  0  0  0  0  0
   16.4295  -13.6025    5.4241 C   0  0  0  0  0  0  0  0  0  0  0  0
   17.4065  -13.8024    4.3238 C   0  0  0  0  0  0  0  0  0  0  0  0
   17.3935  -14.8542    3.4174 C   0  0  0  0  0  0  0  0  0  0  0  0
   18.4414  -14.7037    2.5623 N   0  0  0  0  0  0  0  0  0  0  0  0
   19.0657  -13.5757    2.9591 C   0  0  0  0  0  0  0  0  0  0  0  0
   18.4471  -13.0426    4.0067 N   0  0  0  0  0  0  0  0  0  0  0  0
   15.7663  -15.6802    6.5417 C   0  0  0  0  0  0  0  0  0  0  0  0
   15.6348  -15.3768    7.7670 O   0  0  0  0  0  0  0  0  0  0  0  0
   14.1747  -21.5550    8.9468 N   0  0  0  0  0  0  0  0  0  0  0  0
   15.3256  -21.3539    8.1496 C   0  0  0  0  0  0  0  0  0  0  0  0
   15.6279  -22.1706    7.2605 O   0  0  0  0  0  0  0  0  0  0  0  0
   16.1926  -20.1539    8.3697 C   0  0  0  0  0  0  0  0  0  0  0  0
   15.8713  -19.1476    7.3074 C   0  0  0  0  0  0  0  0  0  0  0  0
   16.6728  -17.8880    7.3575 C   0  0  2  0  0  0  0  0  0  0  0  0
   16.2789  -16.9792    6.2878 N   0  0  0  0  0  0  0  0  0  0  0  0
   18.1316  -18.1753    7.3030 C   0  0  0  0  0  0  0  0  0  0  0  0
   18.7050  -18.3850    6.2078 O   0  0  0  0  0  0  0  0  0  0  0  0
   22.0898  -15.4215    9.6680 C   0  0  0  0  0  0  0  0  0  0  0  0
   21.3829  -16.3791    8.7615 C   0  0  1  0  0  0  0  0  0  0  0  0
   22.3206  -16.5223    7.5338 C   0  0  0  0  0  0  0  0  0  0  0  0
   21.1703  -17.7318    9.3301 C   0  0  0  0  0  0  0  0  0  0  0  0
   20.3071  -18.6506    8.5548 C   0  0  2  0  0  0  0  0  0  0  0  0
   18.9392  -18.2255    8.4716 N   0  0  0  0  0  0  0  0  0  0  0  0
   20.4983  -20.0815    8.8645 C   0  0  0  0  0  0  0  0  0  0  0  0
   19.5068  -20.9056    9.3627 O   0  0  0  0  0  0  0  0  0  0  0  0
   21.6138  -20.6134    8.6779 O   0  0  0  0  0  0  0  0  0  0  0  0
  2  9  1  0
  2  1  1  1
  3  2  1  0
  4  3  1  0
  4  5  2  0
  6  5  1  0
  7  6  1  0
  8  7  2  0
  8  4  1  0
  9 10  2  0
 12 11  1  0
 12 14  1  0
 13 12  2  0
 16 15  1  6
 15 14  1  0
 17 16  1  0
 17  9  1  0
 18 16  1  0
 19 18  2  0
 21 20  1  1
 21 22  1  0
 23 21  1  0
 24 25  1  0
 24 23  1  1
 25 18  1  0
 26 24  1  0
 27 26  1  0
 28 26  2  0
M  END
$$$$
