HQL.pdb
     RDKit          3D

 28 28  0  0  1  0  0  0  0  0999 V2000
   24.0771  -12.8963  -16.6460 N   0  0  0  0  0  0  0  0  0  0  0  0
   24.4876  -11.5367  -16.2575 C   0  0  1  0  0  0  0  0  0  0  0  0
   25.6048  -11.1664  -17.2281 C   0  0  0  0  0  0  0  0  0  0  0  0
   26.8499  -11.9057  -16.8992 C   0  0  0  0  0  0  0  0  0  0  0  0
   27.0640  -12.6479  -15.7453 C   0  0  0  0  0  0  0  0  0  0  0  0
   28.3177  -13.1747  -15.7941 N   0  0  0  0  0  0  0  0  0  0  0  0
   28.8378  -12.7488  -16.9635 C   0  0  0  0  0  0  0  0  0  0  0  0
   27.9618  -11.9947  -17.6179 N   0  0  0  0  0  0  0  0  0  0  0  0
   23.3110  -10.6575  -16.5316 C   0  0  0  0  0  0  0  0  0  0  0  0
   22.4362  -10.9519  -17.4026 O   0  0  0  0  0  0  0  0  0  0  0  0
   19.7309   -8.1606  -12.5016 N   0  0  0  0  0  0  0  0  0  0  0  0
   19.3246   -9.2465  -13.3119 C   0  0  0  0  0  0  0  0  0  0  0  0
   18.4236  -10.0157  -12.9306 O   0  0  0  0  0  0  0  0  0  0  0  0
   19.9771   -9.4805  -14.6383 C   0  0  0  0  0  0  0  0  0  0  0  0
   21.1134   -8.5137  -14.7741 C   0  0  0  0  0  0  0  0  0  0  0  0
   21.8999   -8.6258  -16.0391 C   0  0  2  0  0  0  0  0  0  0  0  0
   23.0935   -9.4383  -15.8381 N   0  0  0  0  0  0  0  0  0  0  0  0
   22.2526   -7.2834  -16.5749 C   0  0  0  0  0  0  0  0  0  0  0  0
   23.2864   -6.6884  -16.1884 O   0  0  0  0  0  0  0  0  0  0  0  0
   21.8939   -4.2504  -21.8567 C   0  0  0  0  0  0  0  0  0  0  0  0
   21.9532   -4.1429  -20.3655 C   0  0  1  0  0  0  0  0  0  0  0  0
   20.9226   -3.0390  -20.0104 C   0  0  0  0  0  0  0  0  0  0  0  0
   21.5669   -5.3753  -19.6375 C   0  0  0  0  0  0  0  0  0  0  0  0
   21.7258   -5.3557  -18.1662 C   0  0  2  0  0  0  0  0  0  0  0  0
   21.4487   -6.6159  -17.5385 N   0  0  0  0  0  0  0  0  0  0  0  0
   21.1289   -4.1816  -17.4991 C   0  0  0  0  0  0  0  0  0  0  0  0
   21.8333   -3.0417  -17.1601 O   0  0  0  0  0  0  0  0  0  0  0  0
   19.9137   -4.1849  -17.2067 O   0  0  0  0  0  0  0  0  0  0  0  0
  2  9  1  0
  2  1  1  6
  3  2  1  0
  4  3  1  0
  4  5  2  0
  6  5  1  0
  7  6  1  0
  8  7  2  0
  8  4  1  0
  9 10  2  0
 12 11  1  0
 12 14  1  0
 13 12  2  0
 16 15  1  1
 15 14  1  0
 17 16  1  0
 17  9  1  0
 18 16  1  0
 19 18  2  0
 21 20  1  6
 21 22  1  0
 23 21  1  0
 24 25  1  0
 24 23  1  6
 25 18  1  0
 26 24  1  0
 27 26  1  0
 28 26  2  0
M  END
$$$$
