HQL.pdb
     RDKit          3D

 28 28  0  0  1  0  0  0  0  0999 V2000
   16.4380  -26.1950   -4.5261 N   0  0  0  0  0  0  0  0  0  0  0  0
   16.4494  -27.0997   -3.3645 C   0  0  1  0  0  0  0  0  0  0  0  0
   17.7859  -27.8312   -3.4438 C   0  0  0  0  0  0  0  0  0  0  0  0
   17.8051  -28.7616   -4.6010 C   0  0  0  0  0  0  0  0  0  0  0  0
   17.1260  -29.9706   -4.6727 C   0  0  0  0  0  0  0  0  0  0  0  0
   17.3856  -30.5437   -5.8793 N   0  0  0  0  0  0  0  0  0  0  0  0
   18.2082  -29.6827   -6.5130 C   0  0  0  0  0  0  0  0  0  0  0  0
   18.4551  -28.6242   -5.7496 N   0  0  0  0  0  0  0  0  0  0  0  0
   16.4620  -26.2193   -2.1574 C   0  0  0  0  0  0  0  0  0  0  0  0
   15.9832  -25.0441   -2.1734 O   0  0  0  0  0  0  0  0  0  0  0  0
   12.0783  -26.8957    0.7898 N   0  0  0  0  0  0  0  0  0  0  0  0
   12.8499  -25.8458    1.3403 C   0  0  0  0  0  0  0  0  0  0  0  0
   12.3390  -24.7307    1.5510 O   0  0  0  0  0  0  0  0  0  0  0  0
   14.2918  -26.0676    1.6745 C   0  0  0  0  0  0  0  0  0  0  0  0
   14.9895  -26.5359    0.4341 C   0  0  0  0  0  0  0  0  0  0  0  0
   16.4483  -26.2225    0.3648 C   0  0  2  0  0  0  0  0  0  0  0  0
   17.0082  -26.6373   -0.9157 N   0  0  0  0  0  0  0  0  0  0  0  0
   17.1873  -26.8445    1.4965 C   0  0  0  0  0  0  0  0  0  0  0  0
   17.1011  -28.0750    1.7214 O   0  0  0  0  0  0  0  0  0  0  0  0
   21.2553  -23.9098    2.0257 C   0  0  0  0  0  0  0  0  0  0  0  0
   20.4823  -25.1376    1.6603 C   0  0  1  0  0  0  0  0  0  0  0  0
   21.2414  -25.7319    0.4446 C   0  0  0  0  0  0  0  0  0  0  0  0
   20.4317  -26.1774    2.7159 C   0  0  0  0  0  0  0  0  0  0  0  0
   19.0880  -26.5851    3.1835 C   0  0  2  0  0  0  0  0  0  0  0  0
   18.0172  -26.0880    2.3678 N   0  0  0  0  0  0  0  0  0  0  0  0
   18.8772  -26.4526    4.6388 C   0  0  0  0  0  0  0  0  0  0  0  0
   19.6302  -27.1095    5.5937 O   0  0  0  0  0  0  0  0  0  0  0  0
   17.9691  -25.7096    5.0694 O   0  0  0  0  0  0  0  0  0  0  0  0
  2  9  1  0
  2  1  1  6
  3  2  1  0
  4  3  1  0
  4  5  2  0
  6  5  1  0
  7  6  1  0
  8  7  2  0
  8  4  1  0
  9 10  2  0
 12 11  1  0
 12 14  1  0
 13 12  2  0
 16 15  1  6
 15 14  1  0
 17 16  1  0
 17  9  1  0
 18 16  1  0
 19 18  2  0
 21 20  1  1
 21 22  1  0
 23 21  1  0
 24 25  1  0
 24 23  1  6
 25 18  1  0
 26 24  1  0
 27 26  1  0
 28 26  2  0
M  END
$$$$
