HQL.pdb
     RDKit          3D

 28 28  0  0  1  0  0  0  0  0999 V2000
   15.9213   -7.5434  -20.7616 N   0  0  0  0  0  0  0  0  0  0  0  0
   17.3611   -7.8151  -20.6157 C   0  0  1  0  0  0  0  0  0  0  0  0
   18.0455   -6.4744  -20.8638 C   0  0  0  0  0  0  0  0  0  0  0  0
   18.0910   -6.1713  -22.3168 C   0  0  0  0  0  0  0  0  0  0  0  0
   17.6706   -4.9859  -22.9050 C   0  0  0  0  0  0  0  0  0  0  0  0
   17.8617   -5.0763  -24.2493 N   0  0  0  0  0  0  0  0  0  0  0  0
   18.3893   -6.3011  -24.4524 C   0  0  0  0  0  0  0  0  0  0  0  0
   18.5243   -6.9489  -23.3008 N   0  0  0  0  0  0  0  0  0  0  0  0
   17.5654   -8.1938  -19.1850 C   0  0  0  0  0  0  0  0  0  0  0  0
   16.9717   -7.5953  -18.2363 O   0  0  0  0  0  0  0  0  0  0  0  0
   18.8477  -13.7305  -16.9920 N   0  0  0  0  0  0  0  0  0  0  0  0
   19.0063  -13.0052  -15.7881 C   0  0  0  0  0  0  0  0  0  0  0  0
   19.0802  -13.6007  -14.6977 O   0  0  0  0  0  0  0  0  0  0  0  0
   19.0865  -11.5110  -15.8153 C   0  0  0  0  0  0  0  0  0  0  0  0
   18.8151  -11.0567  -17.2169 C   0  0  0  0  0  0  0  0  0  0  0  0
   18.6757   -9.5800  -17.3940 C   0  0  2  0  0  0  0  0  0  0  0  0
   18.4342   -9.2453  -18.7922 N   0  0  0  0  0  0  0  0  0  0  0  0
   19.8682   -8.8599  -16.8716 C   0  0  0  0  0  0  0  0  0  0  0  0
   20.8434   -8.6055  -17.6177 O   0  0  0  0  0  0  0  0  0  0  0  0
   23.5066   -5.6288  -15.5386 C   0  0  0  0  0  0  0  0  0  0  0  0
   22.0708   -5.2852  -15.2957 C   0  0  1  0  0  0  0  0  0  0  0  0
   21.8442   -3.9675  -16.0826 C   0  0  0  0  0  0  0  0  0  0  0  0
   21.0986   -6.2859  -15.7972 C   0  0  0  0  0  0  0  0  0  0  0  0
   20.9155   -7.5040  -14.9767 C   0  0  2  0  0  0  0  0  0  0  0  0
   19.9626   -8.4288  -15.5205 N   0  0  0  0  0  0  0  0  0  0  0  0
   20.7863   -7.2550  -13.5271 C   0  0  0  0  0  0  0  0  0  0  0  0
   19.8004   -7.8068  -12.7310 O   0  0  0  0  0  0  0  0  0  0  0  0
   21.6014   -6.5023  -12.9515 O   0  0  0  0  0  0  0  0  0  0  0  0
  2  9  1  0
  2  1  1  1
  3  2  1  0
  4  3  1  0
  4  5  2  0
  6  5  1  0
  7  6  1  0
  8  7  2  0
  8  4  1  0
  9 10  2  0
 12 11  1  0
 12 14  1  0
 13 12  2  0
 16 15  1  6
 15 14  1  0
 17 16  1  0
 17  9  1  0
 18 16  1  0
 19 18  2  0
 21 20  1  6
 21 22  1  0
 23 21  1  0
 24 25  1  0
 24 23  1  6
 25 18  1  0
 26 24  1  0
 27 26  1  0
 28 26  2  0
M  END
$$$$
