HQL.pdb
     RDKit          3D

 28 28  0  0  1  0  0  0  0  0999 V2000
   22.8540  -13.0407  -17.7351 N   0  0  0  0  0  0  0  0  0  0  0  0
   23.4644  -12.0073  -16.8821 C   0  0  1  0  0  0  0  0  0  0  0  0
   24.8093  -11.6985  -17.5329 C   0  0  0  0  0  0  0  0  0  0  0  0
   25.7727  -12.8025  -17.2921 C   0  0  0  0  0  0  0  0  0  0  0  0
   26.2467  -13.6816  -18.2568 C   0  0  0  0  0  0  0  0  0  0  0  0
   27.1057  -14.5550  -17.6641 N   0  0  0  0  0  0  0  0  0  0  0  0
   27.1388  -14.1954  -16.3644 C   0  0  0  0  0  0  0  0  0  0  0  0
   26.3450  -13.1529  -16.1473 N   0  0  0  0  0  0  0  0  0  0  0  0
   22.5901  -10.8022  -17.0063 C   0  0  0  0  0  0  0  0  0  0  0  0
   22.0892  -10.4424  -18.1155 O   0  0  0  0  0  0  0  0  0  0  0  0
   17.5897   -9.6153  -14.4306 N   0  0  0  0  0  0  0  0  0  0  0  0
   17.8923  -10.3111  -15.6244 C   0  0  0  0  0  0  0  0  0  0  0  0
   17.0768  -11.1167  -16.1092 O   0  0  0  0  0  0  0  0  0  0  0  0
   19.1998  -10.0840  -16.3164 C   0  0  0  0  0  0  0  0  0  0  0  0
   20.0163   -9.1533  -15.4730 C   0  0  0  0  0  0  0  0  0  0  0  0
   21.3735   -8.8314  -16.0075 C   0  0  2  0  0  0  0  0  0  0  0  0
   22.2619   -9.9818  -15.8954 N   0  0  0  0  0  0  0  0  0  0  0  0
   21.9525   -7.6421  -15.3264 C   0  0  0  0  0  0  0  0  0  0  0  0
   22.4433   -7.7355  -14.1764 O   0  0  0  0  0  0  0  0  0  0  0  0
   23.5651   -3.2736  -18.5253 C   0  0  0  0  0  0  0  0  0  0  0  0
   23.4208   -4.3891  -17.5388 C   0  0  1  0  0  0  0  0  0  0  0  0
   24.8737   -4.7241  -17.1099 C   0  0  0  0  0  0  0  0  0  0  0  0
   22.6555   -4.0434  -16.3170 C   0  0  0  0  0  0  0  0  0  0  0  0
   22.4343   -5.1334  -15.3405 C   0  0  2  0  0  0  0  0  0  0  0  0
   21.9797   -6.3578  -15.9348 N   0  0  0  0  0  0  0  0  0  0  0  0
   21.7119   -4.7268  -14.1187 C   0  0  0  0  0  0  0  0  0  0  0  0
   22.2748   -3.9870  -13.0958 O   0  0  0  0  0  0  0  0  0  0  0  0
   20.5159   -5.0561  -13.9661 O   0  0  0  0  0  0  0  0  0  0  0  0
  2  9  1  0
  2  1  1  6
  3  2  1  0
  4  3  1  0
  4  5  2  0
  6  5  1  0
  7  6  1  0
  8  7  2  0
  8  4  1  0
  9 10  2  0
 12 11  1  0
 12 14  1  0
 13 12  2  0
 16 15  1  1
 15 14  1  0
 17 16  1  0
 17  9  1  0
 18 16  1  0
 19 18  2  0
 21 20  1  6
 21 22  1  0
 23 21  1  0
 24 25  1  0
 24 23  1  6
 25 18  1  0
 26 24  1  0
 27 26  1  0
 28 26  2  0
M  END
$$$$
