HQL.pdb
     RDKit          3D

 28 28  0  0  1  0  0  0  0  0999 V2000
   16.7153  -12.3332  -15.8523 N   0  0  0  0  0  0  0  0  0  0  0  0
   16.4803  -11.1535  -16.7015 C   0  0  1  0  0  0  0  0  0  0  0  0
   14.9705  -11.1137  -16.9171 C   0  0  0  0  0  0  0  0  0  0  0  0
   14.5566  -12.1384  -17.9090 C   0  0  0  0  0  0  0  0  0  0  0  0
   13.4810  -13.0053  -17.7692 C   0  0  0  0  0  0  0  0  0  0  0  0
   13.4160  -13.7985  -18.8731 N   0  0  0  0  0  0  0  0  0  0  0  0
   14.4413  -13.4041  -19.6559 C   0  0  0  0  0  0  0  0  0  0  0  0
   15.1170  -12.4166  -19.0792 N   0  0  0  0  0  0  0  0  0  0  0  0
   16.8728   -9.9697  -15.8789 C   0  0  0  0  0  0  0  0  0  0  0  0
   16.3003   -9.6899  -14.7814 O   0  0  0  0  0  0  0  0  0  0  0  0
   21.8246   -8.6665  -13.2639 N   0  0  0  0  0  0  0  0  0  0  0  0
   21.8520   -9.1181  -14.6040 C   0  0  0  0  0  0  0  0  0  0  0  0
   22.8981   -9.5835  -15.0918 O   0  0  0  0  0  0  0  0  0  0  0  0
   20.6194   -9.0394  -15.4494 C   0  0  0  0  0  0  0  0  0  0  0  0
   19.5701   -8.3035  -14.6736 C   0  0  0  0  0  0  0  0  0  0  0  0
   18.3332   -7.9611  -15.4379 C   0  0  2  0  0  0  0  0  0  0  0  0
   17.9093   -9.0816  -16.2686 N   0  0  0  0  0  0  0  0  0  0  0  0
   18.5282   -6.7342  -16.2566 C   0  0  0  0  0  0  0  0  0  0  0  0
   18.9812   -6.8054  -17.4236 O   0  0  0  0  0  0  0  0  0  0  0  0
   16.6369   -1.8317  -18.0450 C   0  0  0  0  0  0  0  0  0  0  0  0
   17.4361   -1.8684  -16.7807 C   0  0  1  0  0  0  0  0  0  0  0  0
   16.7886   -0.7873  -15.8757 C   0  0  0  0  0  0  0  0  0  0  0  0
   17.3877   -3.1586  -16.0518 C   0  0  0  0  0  0  0  0  0  0  0  0
   18.3601   -4.1939  -16.4677 C   0  0  2  0  0  0  0  0  0  0  0  0
   18.2154   -5.4373  -15.7663 N   0  0  0  0  0  0  0  0  0  0  0  0
   19.7492   -3.7128  -16.6050 C   0  0  0  0  0  0  0  0  0  0  0  0
   20.8059   -4.1674  -15.8388 O   0  0  0  0  0  0  0  0  0  0  0  0
   20.0223   -2.8393  -17.4562 O   0  0  0  0  0  0  0  0  0  0  0  0
  2  9  1  0
  2  1  1  1
  3  2  1  0
  4  3  1  0
  4  5  2  0
  6  5  1  0
  7  6  1  0
  8  7  2  0
  8  4  1  0
  9 10  2  0
 12 11  1  0
 12 14  1  0
 13 12  2  0
 16 15  1  6
 15 14  1  0
 17 16  1  0
 17  9  1  0
 18 16  1  0
 19 18  2  0
 21 20  1  6
 21 22  1  0
 23 21  1  0
 24 25  1  0
 24 23  1  1
 25 18  1  0
 26 24  1  0
 27 26  1  0
 28 26  2  0
M  END
$$$$
