HQL.pdb
     RDKit          3D

 28 28  0  0  1  0  0  0  0  0999 V2000
   22.1317  -15.9261  -18.0727 N   0  0  0  0  0  0  0  0  0  0  0  0
   21.3602  -15.3055  -16.9830 C   0  0  1  0  0  0  0  0  0  0  0  0
   22.1045  -15.6813  -15.7053 C   0  0  0  0  0  0  0  0  0  0  0  0
   21.8459  -17.0990  -15.3471 C   0  0  0  0  0  0  0  0  0  0  0  0
   22.7776  -18.1268  -15.4068 C   0  0  0  0  0  0  0  0  0  0  0  0
   22.1773  -19.2811  -15.0080 N   0  0  0  0  0  0  0  0  0  0  0  0
   20.9057  -18.9387  -14.7159 C   0  0  0  0  0  0  0  0  0  0  0  0
   20.7127  -17.6403  -14.9185 N   0  0  0  0  0  0  0  0  0  0  0  0
   21.4787  -13.8297  -17.1837 C   0  0  0  0  0  0  0  0  0  0  0  0
   22.5716  -13.2794  -17.5202 O   0  0  0  0  0  0  0  0  0  0  0  0
   16.7427  -10.0542  -18.3854 N   0  0  0  0  0  0  0  0  0  0  0  0
   17.7898   -9.1045  -18.4332 C   0  0  0  0  0  0  0  0  0  0  0  0
   17.5703   -7.9421  -18.8197 O   0  0  0  0  0  0  0  0  0  0  0  0
   19.1750   -9.4910  -18.0186 C   0  0  0  0  0  0  0  0  0  0  0  0
   19.1626  -10.9441  -17.6544 C   0  0  0  0  0  0  0  0  0  0  0  0
   20.4837  -11.5130  -17.2515 C   0  0  2  0  0  0  0  0  0  0  0  0
   20.3801  -12.9473  -17.0123 N   0  0  0  0  0  0  0  0  0  0  0  0
   21.0311  -10.8117  -16.0590 C   0  0  0  0  0  0  0  0  0  0  0  0
   20.6062  -11.0727  -14.9085 O   0  0  0  0  0  0  0  0  0  0  0  0
   26.3192  -10.2342  -15.4692 C   0  0  0  0  0  0  0  0  0  0  0  0
   24.8297  -10.3371  -15.3734 C   0  0  1  0  0  0  0  0  0  0  0  0
   24.5773  -11.2371  -14.1352 C   0  0  0  0  0  0  0  0  0  0  0  0
   24.1307   -9.0492  -15.1481 C   0  0  0  0  0  0  0  0  0  0  0  0
   22.6531   -9.0978  -15.0804 C   0  0  2  0  0  0  0  0  0  0  0  0
   22.0490   -9.8248  -16.1600 N   0  0  0  0  0  0  0  0  0  0  0  0
   22.0098   -7.8082  -14.7595 C   0  0  0  0  0  0  0  0  0  0  0  0
   21.0546   -7.2002  -15.5523 O   0  0  0  0  0  0  0  0  0  0  0  0
   22.3257   -7.2000  -13.7143 O   0  0  0  0  0  0  0  0  0  0  0  0
  2  9  1  0
  2  1  1  6
  3  2  1  0
  4  3  1  0
  4  5  2  0
  6  5  1  0
  7  6  1  0
  8  7  2  0
  8  4  1  0
  9 10  2  0
 12 11  1  0
 12 14  1  0
 13 12  2  0
 16 15  1  1
 15 14  1  0
 17 16  1  0
 17  9  1  0
 18 16  1  0
 19 18  2  0
 21 20  1  1
 21 22  1  0
 23 21  1  0
 24 25  1  0
 24 23  1  6
 25 18  1  0
 26 24  1  0
 27 26  1  0
 28 26  2  0
M  END
$$$$
