HQL.pdb
     RDKit          3D

 28 28  0  0  1  0  0  0  0  0999 V2000
   26.4217  -20.7186  -16.9431 N   0  0  0  0  0  0  0  0  0  0  0  0
   27.1016  -21.2349  -15.7435 C   0  0  1  0  0  0  0  0  0  0  0  0
   28.5680  -20.8541  -15.9231 C   0  0  0  0  0  0  0  0  0  0  0  0
   29.2989  -21.9188  -16.6560 C   0  0  0  0  0  0  0  0  0  0  0  0
   28.7499  -23.1169  -17.0932 C   0  0  0  0  0  0  0  0  0  0  0  0
   29.7205  -23.8369  -17.7188 N   0  0  0  0  0  0  0  0  0  0  0  0
   30.8299  -23.0724  -17.6520 C   0  0  0  0  0  0  0  0  0  0  0  0
   30.5751  -21.9327  -17.0195 N   0  0  0  0  0  0  0  0  0  0  0  0
   26.5486  -20.4604  -14.5917 C   0  0  0  0  0  0  0  0  0  0  0  0
   26.6268  -19.1952  -14.5287 O   0  0  0  0  0  0  0  0  0  0  0  0
   21.2721  -19.6949  -12.5117 N   0  0  0  0  0  0  0  0  0  0  0  0
   21.6823  -21.0058  -12.8492 C   0  0  0  0  0  0  0  0  0  0  0  0
   20.8410  -21.8734  -13.1464 O   0  0  0  0  0  0  0  0  0  0  0  0
   23.1360  -21.3618  -12.8512 C   0  0  0  0  0  0  0  0  0  0  0  0
   23.9135  -20.1423  -12.4604 C   0  0  0  0  0  0  0  0  0  0  0  0
   25.3912  -20.3337  -12.3543 C   0  0  2  0  0  0  0  0  0  0  0  0
   25.9005  -21.0857  -13.4946 N   0  0  0  0  0  0  0  0  0  0  0  0
   25.7581  -20.9945  -11.0728 C   0  0  0  0  0  0  0  0  0  0  0  0
   25.4345  -22.1849  -10.8478 O   0  0  0  0  0  0  0  0  0  0  0  0
   27.9742  -20.8147   -5.8549 C   0  0  0  0  0  0  0  0  0  0  0  0
   27.0725  -19.7300   -6.3541 C   0  0  1  0  0  0  0  0  0  0  0  0
   27.6150  -18.4345   -5.6951 C   0  0  0  0  0  0  0  0  0  0  0  0
   27.0907  -19.5335   -7.8234 C   0  0  0  0  0  0  0  0  0  0  0  0
   26.4044  -20.5595   -8.6399 C   0  0  2  0  0  0  0  0  0  0  0  0
   26.4839  -20.3215  -10.0527 N   0  0  0  0  0  0  0  0  0  0  0  0
   25.0673  -20.9445   -8.1462 C   0  0  0  0  0  0  0  0  0  0  0  0
   24.8111  -22.0898   -7.4160 O   0  0  0  0  0  0  0  0  0  0  0  0
   24.0825  -20.2132   -8.3863 O   0  0  0  0  0  0  0  0  0  0  0  0
  2  9  1  0
  2  1  1  6
  3  2  1  0
  4  3  1  0
  4  5  2  0
  6  5  1  0
  7  6  1  0
  8  7  2  0
  8  4  1  0
  9 10  2  0
 12 11  1  0
 12 14  1  0
 13 12  2  0
 16 15  1  6
 15 14  1  0
 17 16  1  0
 17  9  1  0
 18 16  1  0
 19 18  2  0
 21 20  1  6
 21 22  1  0
 23 21  1  0
 24 25  1  0
 24 23  1  1
 25 18  1  0
 26 24  1  0
 27 26  1  0
 28 26  2  0
M  END
$$$$
