HQL.pdb
     RDKit          3D

 28 28  0  0  1  0  0  0  0  0999 V2000
   18.0236  -13.8489  -15.8759 N   0  0  0  0  0  0  0  0  0  0  0  0
   17.7438  -12.6879  -16.7371 C   0  0  1  0  0  0  0  0  0  0  0  0
   16.2320  -12.7008  -16.9424 C   0  0  0  0  0  0  0  0  0  0  0  0
   15.8337  -13.8261  -17.8256 C   0  0  0  0  0  0  0  0  0  0  0  0
   15.8036  -13.7880  -19.2133 C   0  0  0  0  0  0  0  0  0  0  0  0
   15.3859  -14.9991  -19.6722 N   0  0  0  0  0  0  0  0  0  0  0  0
   15.1722  -15.7439  -18.5679 C   0  0  0  0  0  0  0  0  0  0  0  0
   15.4398  -15.0429  -17.4720 N   0  0  0  0  0  0  0  0  0  0  0  0
   18.1022  -11.4820  -15.9312 C   0  0  0  0  0  0  0  0  0  0  0  0
   17.7338  -11.3417  -14.7249 O   0  0  0  0  0  0  0  0  0  0  0  0
   23.2998   -8.4050  -16.0047 N   0  0  0  0  0  0  0  0  0  0  0  0
   22.9884   -9.5437  -15.2254 C   0  0  0  0  0  0  0  0  0  0  0  0
   23.8953  -10.2243  -14.7124 O   0  0  0  0  0  0  0  0  0  0  0  0
   21.5615   -9.9410  -15.0111 C   0  0  0  0  0  0  0  0  0  0  0  0
   20.6925   -8.9664  -15.7455 C   0  0  0  0  0  0  0  0  0  0  0  0
   19.2255   -9.2384  -15.6737 C   0  0  2  0  0  0  0  0  0  0  0  0
   18.8768  -10.4160  -16.4591 N   0  0  0  0  0  0  0  0  0  0  0  0
   18.4362   -8.0545  -16.1086 C   0  0  0  0  0  0  0  0  0  0  0  0
   17.8493   -8.0450  -17.2166 O   0  0  0  0  0  0  0  0  0  0  0  0
   15.6837   -4.1097  -17.8266 C   0  0  0  0  0  0  0  0  0  0  0  0
   15.4133   -4.7584  -16.5057 C   0  0  1  0  0  0  0  0  0  0  0  0
   13.9364   -5.2255  -16.5929 C   0  0  0  0  0  0  0  0  0  0  0  0
   16.2489   -5.9479  -16.2146 C   0  0  0  0  0  0  0  0  0  0  0  0
   17.5835   -5.6951  -15.6270 C   0  0  2  0  0  0  0  0  0  0  0  0
   18.3078   -6.8906  -15.3029 N   0  0  0  0  0  0  0  0  0  0  0  0
   17.6085   -4.6487  -14.5857 C   0  0  0  0  0  0  0  0  0  0  0  0
   17.6910   -3.2945  -14.8500 O   0  0  0  0  0  0  0  0  0  0  0  0
   17.5546   -4.9718  -13.3795 O   0  0  0  0  0  0  0  0  0  0  0  0
  2  9  1  0
  2  1  1  1
  3  2  1  0
  4  3  1  0
  4  5  2  0
  6  5  1  0
  7  6  1  0
  8  7  2  0
  8  4  1  0
  9 10  2  0
 12 11  1  0
 12 14  1  0
 13 12  2  0
 16 15  1  6
 15 14  1  0
 17 16  1  0
 17  9  1  0
 18 16  1  0
 19 18  2  0
 21 20  1  6
 21 22  1  0
 23 21  1  0
 24 25  1  0
 24 23  1  1
 25 18  1  0
 26 24  1  0
 27 26  1  0
 28 26  2  0
M  END
$$$$
