HQL.pdb
     RDKit          3D

 28 28  0  0  1  0  0  0  0  0999 V2000
   18.8666  -13.7961  -17.6724 N   0  0  0  0  0  0  0  0  0  0  0  0
   19.0191  -13.0618  -16.4053 C   0  0  1  0  0  0  0  0  0  0  0  0
   20.4666  -13.2945  -15.9830 C   0  0  0  0  0  0  0  0  0  0  0  0
   20.6620  -14.6969  -15.5356 C   0  0  0  0  0  0  0  0  0  0  0  0
   19.8590  -15.3700  -14.6244 C   0  0  0  0  0  0  0  0  0  0  0  0
   20.3484  -16.6292  -14.4613 N   0  0  0  0  0  0  0  0  0  0  0  0
   21.4278  -16.6989  -15.2673 C   0  0  0  0  0  0  0  0  0  0  0  0
   21.6108  -15.5480  -15.9045 N   0  0  0  0  0  0  0  0  0  0  0  0
   18.8510  -11.6165  -16.7445 C   0  0  0  0  0  0  0  0  0  0  0  0
   19.4144  -11.0891  -17.7520 O   0  0  0  0  0  0  0  0  0  0  0  0
   13.6904   -9.0744  -16.0539 N   0  0  0  0  0  0  0  0  0  0  0  0
   14.1645   -9.3982  -17.3466 C   0  0  0  0  0  0  0  0  0  0  0  0
   13.3658   -9.6636  -18.2635 O   0  0  0  0  0  0  0  0  0  0  0  0
   15.6351   -9.4250  -17.6235 C   0  0  0  0  0  0  0  0  0  0  0  0
   16.3520   -9.0485  -16.3631 C   0  0  0  0  0  0  0  0  0  0  0  0
   17.8145   -9.3520  -16.3450 C   0  0  2  0  0  0  0  0  0  0  0  0
   18.0521  -10.7394  -15.9653 N   0  0  0  0  0  0  0  0  0  0  0  0
   18.5470   -8.4201  -15.4458 C   0  0  0  0  0  0  0  0  0  0  0  0
   18.6636   -8.6665  -14.2219 O   0  0  0  0  0  0  0  0  0  0  0  0
   22.4250   -5.3590  -13.4716 C   0  0  0  0  0  0  0  0  0  0  0  0
   21.9491   -4.9186  -14.8200 C   0  0  1  0  0  0  0  0  0  0  0  0
   23.2463   -4.5979  -15.6085 C   0  0  0  0  0  0  0  0  0  0  0  0
   21.1984   -5.9462  -15.5805 C   0  0  0  0  0  0  0  0  0  0  0  0
   19.8147   -6.2242  -15.1349 C   0  0  2  0  0  0  0  0  0  0  0  0
   19.1442   -7.2207  -15.9200 N   0  0  0  0  0  0  0  0  0  0  0  0
   19.0122   -5.0217  -14.8352 C   0  0  0  0  0  0  0  0  0  0  0  0
   18.9048   -4.4550  -13.5791 O   0  0  0  0  0  0  0  0  0  0  0  0
   18.3762   -4.4558  -15.7504 O   0  0  0  0  0  0  0  0  0  0  0  0
  2  9  1  0
  2  1  1  6
  3  2  1  0
  4  3  1  0
  4  5  2  0
  6  5  1  0
  7  6  1  0
  8  7  2  0
  8  4  1  0
  9 10  2  0
 12 11  1  0
 12 14  1  0
 13 12  2  0
 16 15  1  1
 15 14  1  0
 17 16  1  0
 17  9  1  0
 18 16  1  0
 19 18  2  0
 21 20  1  1
 21 22  1  0
 23 21  1  0
 24 25  1  0
 24 23  1  6
 25 18  1  0
 26 24  1  0
 27 26  1  0
 28 26  2  0
M  END
$$$$
