HQL.pdb
     RDKit          3D

 28 28  0  0  1  0  0  0  0  0999 V2000
   31.1281  -39.4500   -8.2263 N   0  0  0  0  0  0  0  0  0  0  0  0
   31.0449  -38.6144   -7.0168 C   0  0  1  0  0  0  0  0  0  0  0  0
   32.0922  -37.5229   -7.2152 C   0  0  0  0  0  0  0  0  0  0  0  0
   33.4586  -38.0644   -7.0034 C   0  0  0  0  0  0  0  0  0  0  0  0
   34.2731  -38.6021   -7.9911 C   0  0  0  0  0  0  0  0  0  0  0  0
   35.4445  -38.9958   -7.4214 N   0  0  0  0  0  0  0  0  0  0  0  0
   35.3232  -38.6936   -6.1124 C   0  0  0  0  0  0  0  0  0  0  0  0
   34.1411  -38.1398   -5.8679 N   0  0  0  0  0  0  0  0  0  0  0  0
   29.6911  -37.9829   -7.0454 C   0  0  0  0  0  0  0  0  0  0  0  0
   28.7592  -38.4162   -7.7899 O   0  0  0  0  0  0  0  0  0  0  0  0
   25.0875  -36.7954   -3.9858 N   0  0  0  0  0  0  0  0  0  0  0  0
   26.1187  -37.6113   -3.4647 C   0  0  0  0  0  0  0  0  0  0  0  0
   26.0509  -38.0479   -2.3012 O   0  0  0  0  0  0  0  0  0  0  0  0
   27.3039  -37.9572   -4.3106 C   0  0  0  0  0  0  0  0  0  0  0  0
   27.0601  -37.4277   -5.6907 C   0  0  0  0  0  0  0  0  0  0  0  0
   27.9956  -36.3518   -6.1365 C   0  0  2  0  0  0  0  0  0  0  0  0
   29.3577  -36.8598   -6.2439 N   0  0  0  0  0  0  0  0  0  0  0  0
   27.9353  -35.1751   -5.2280 C   0  0  0  0  0  0  0  0  0  0  0  0
   28.1567  -35.2991   -4.0000 O   0  0  0  0  0  0  0  0  0  0  0  0
   24.4149  -33.0272   -8.4294 C   0  0  0  0  0  0  0  0  0  0  0  0
   25.6427  -33.0710   -7.5755 C   0  0  1  0  0  0  0  0  0  0  0  0
   26.4488  -31.8093   -7.9822 C   0  0  0  0  0  0  0  0  0  0  0  0
   25.3884  -32.9961   -6.1168 C   0  0  0  0  0  0  0  0  0  0  0  0
   26.5756  -33.0125   -5.2333 C   0  0  2  0  0  0  0  0  0  0  0  0
   27.6292  -33.8689   -5.6975 N   0  0  0  0  0  0  0  0  0  0  0  0
   26.2689  -33.1246   -3.7934 C   0  0  0  0  0  0  0  0  0  0  0  0
   26.3013  -32.0626   -2.9093 O   0  0  0  0  0  0  0  0  0  0  0  0
   25.9580  -34.2343   -3.3095 O   0  0  0  0  0  0  0  0  0  0  0  0
  2  9  1  0
  2  1  1  6
  3  2  1  0
  4  3  1  0
  4  5  2  0
  6  5  1  0
  7  6  1  0
  8  7  2  0
  8  4  1  0
  9 10  2  0
 12 11  1  0
 12 14  1  0
 13 12  2  0
 16 15  1  1
 15 14  1  0
 17 16  1  0
 17  9  1  0
 18 16  1  0
 19 18  2  0
 21 20  1  6
 21 22  1  0
 23 21  1  0
 24 25  1  0
 24 23  1  6
 25 18  1  0
 26 24  1  0
 27 26  1  0
 28 26  2  0
M  END
$$$$
