HQL.pdb
     RDKit          3D

 28 28  0  0  1  0  0  0  0  0999 V2000
   16.2878  -10.8112  -16.0103 N   0  0  0  0  0  0  0  0  0  0  0  0
   17.2954  -10.4005  -17.0024 C   0  0  1  0  0  0  0  0  0  0  0  0
   16.6764   -9.2094  -17.7276 C   0  0  0  0  0  0  0  0  0  0  0  0
   15.5565   -9.6508  -18.5970 C   0  0  0  0  0  0  0  0  0  0  0  0
   14.2161   -9.3470  -18.3988 C   0  0  0  0  0  0  0  0  0  0  0  0
   13.4880   -9.9261  -19.3920 N   0  0  0  0  0  0  0  0  0  0  0  0
   14.3883  -10.5642  -20.1678 C   0  0  0  0  0  0  0  0  0  0  0  0
   15.6171  -10.3980  -19.6919 N   0  0  0  0  0  0  0  0  0  0  0  0
   18.4722   -9.9184  -16.2182 C   0  0  0  0  0  0  0  0  0  0  0  0
   18.3424   -9.2691  -15.1355 O   0  0  0  0  0  0  0  0  0  0  0  0
   24.2391  -12.1211  -16.8073 N   0  0  0  0  0  0  0  0  0  0  0  0
   24.4320  -11.2728  -15.6921 C   0  0  0  0  0  0  0  0  0  0  0  0
   25.5131  -11.2770  -15.0756 O   0  0  0  0  0  0  0  0  0  0  0  0
   23.3341  -10.3604  -15.2424 C   0  0  0  0  0  0  0  0  0  0  0  0
   22.1486  -10.5876  -16.1298 C   0  0  0  0  0  0  0  0  0  0  0  0
   20.9586   -9.7333  -15.8372 C   0  0  2  0  0  0  0  0  0  0  0  0
   19.8100  -10.1540  -16.6302 N   0  0  0  0  0  0  0  0  0  0  0  0
   21.2615   -8.2937  -16.0592 C   0  0  0  0  0  0  0  0  0  0  0  0
   21.1814   -7.7891  -17.2043 O   0  0  0  0  0  0  0  0  0  0  0  0
   21.4897   -3.3655  -17.0785 C   0  0  0  0  0  0  0  0  0  0  0  0
   20.7372   -3.8553  -15.8817 C   0  0  1  0  0  0  0  0  0  0  0  0
   19.2953   -3.3172  -16.0776 C   0  0  0  0  0  0  0  0  0  0  0  0
   20.6580   -5.3306  -15.7581 C   0  0  0  0  0  0  0  0  0  0  0  0
   21.7778   -6.0002  -15.0595 C   0  0  2  0  0  0  0  0  0  0  0  0
   21.6506   -7.4283  -15.0009 N   0  0  0  0  0  0  0  0  0  0  0  0
   22.1851   -5.3575  -13.7942 C   0  0  0  0  0  0  0  0  0  0  0  0
   22.8116   -4.1280  -13.7163 O   0  0  0  0  0  0  0  0  0  0  0  0
   21.9664   -5.9336  -12.7068 O   0  0  0  0  0  0  0  0  0  0  0  0
  2  9  1  0
  2  1  1  1
  3  2  1  0
  4  3  1  0
  4  5  2  0
  6  5  1  0
  7  6  1  0
  8  7  2  0
  8  4  1  0
  9 10  2  0
 12 11  1  0
 12 14  1  0
 13 12  2  0
 16 15  1  6
 15 14  1  0
 17 16  1  0
 17  9  1  0
 18 16  1  0
 19 18  2  0
 21 20  1  6
 21 22  1  0
 23 21  1  0
 24 25  1  0
 24 23  1  1
 25 18  1  0
 26 24  1  0
 27 26  1  0
 28 26  2  0
M  END
$$$$
