HQL.pdb
     RDKit          3D

 28 28  0  0  1  0  0  0  0  0999 V2000
   17.9160  -25.5221  -10.4688 N   0  0  0  0  0  0  0  0  0  0  0  0
   18.0646  -24.7721   -9.2105 C   0  0  1  0  0  0  0  0  0  0  0  0
   17.4263  -23.4130   -9.4803 C   0  0  0  0  0  0  0  0  0  0  0  0
   18.2288  -22.6445  -10.4653 C   0  0  0  0  0  0  0  0  0  0  0  0
   19.5752  -22.3302  -10.3361 C   0  0  0  0  0  0  0  0  0  0  0  0
   19.9616  -21.6171  -11.4289 N   0  0  0  0  0  0  0  0  0  0  0  0
   18.8561  -21.5120  -12.1947 C   0  0  0  0  0  0  0  0  0  0  0  0
   17.8280  -22.1243  -11.6184 N   0  0  0  0  0  0  0  0  0  0  0  0
   17.2332  -25.4940   -8.2006 C   0  0  0  0  0  0  0  0  0  0  0  0
   16.0936  -25.9755   -8.4836 O   0  0  0  0  0  0  0  0  0  0  0  0
   18.2121  -30.4302   -7.7143 N   0  0  0  0  0  0  0  0  0  0  0  0
   17.3748  -30.5209   -6.5779 C   0  0  0  0  0  0  0  0  0  0  0  0
   17.0378  -31.6319   -6.1295 O   0  0  0  0  0  0  0  0  0  0  0  0
   16.8851  -29.2778   -5.9034 C   0  0  0  0  0  0  0  0  0  0  0  0
   17.4947  -28.1001   -6.6004 C   0  0  0  0  0  0  0  0  0  0  0  0
   17.1465  -26.7665   -6.0246 C   0  0  2  0  0  0  0  0  0  0  0  0
   17.6611  -25.6894   -6.8614 N   0  0  0  0  0  0  0  0  0  0  0  0
   17.6396  -26.6379   -4.6267 C   0  0  0  0  0  0  0  0  0  0  0  0
   18.8673  -26.5658   -4.3823 O   0  0  0  0  0  0  0  0  0  0  0  0
   13.9568  -24.9250   -0.6504 C   0  0  0  0  0  0  0  0  0  0  0  0
   15.1212  -25.1328   -1.5666 C   0  0  1  0  0  0  0  0  0  0  0  0
   15.9652  -23.8383   -1.4283 C   0  0  0  0  0  0  0  0  0  0  0  0
   15.9911  -26.2810   -1.2160 C   0  0  0  0  0  0  0  0  0  0  0  0
   17.1250  -26.5582   -2.1258 C   0  0  2  0  0  0  0  0  0  0  0  0
   16.7582  -26.5903   -3.5127 N   0  0  0  0  0  0  0  0  0  0  0  0
   18.0096  -27.6565   -1.6886 C   0  0  0  0  0  0  0  0  0  0  0  0
   18.3560  -28.7346   -2.4813 O   0  0  0  0  0  0  0  0  0  0  0  0
   18.4920  -27.6436   -0.5357 O   0  0  0  0  0  0  0  0  0  0  0  0
  2  9  1  0
  2  1  1  6
  3  2  1  0
  4  3  1  0
  4  5  2  0
  6  5  1  0
  7  6  1  0
  8  7  2  0
  8  4  1  0
  9 10  2  0
 12 11  1  0
 12 14  1  0
 13 12  2  0
 16 15  1  6
 15 14  1  0
 17 16  1  0
 17  9  1  0
 18 16  1  0
 19 18  2  0
 21 20  1  1
 21 22  1  0
 23 21  1  0
 24 25  1  0
 24 23  1  1
 25 18  1  0
 26 24  1  0
 27 26  1  0
 28 26  2  0
M  END
$$$$
