VRW.pdb
     RDKit          3D

 33 34  0  0  1  0  0  0  0  0999 V2000
   27.2879  -17.0000  -15.0512 C   0  0  0  0  0  0  0  0  0  0  0  0
   27.3534  -18.4103  -15.6355 C   0  0  2  0  0  0  0  0  0  0  0  0
   27.9889  -18.4258  -16.9889 C   0  0  0  0  0  0  0  0  0  0  0  0
   25.9677  -18.9730  -15.5790 C   0  0  2  0  0  0  0  0  0  0  0  0
   25.2495  -18.4666  -16.7376 N   0  0  0  0  0  0  0  0  0  0  0  0
   25.2486  -18.7033  -14.3164 C   0  0  0  0  0  0  0  0  0  0  0  0
   25.1644  -17.5205  -13.9011 O   0  0  0  0  0  0  0  0  0  0  0  0
   20.6399  -23.0714  -14.8234 N   0  0  0  0  0  0  0  0  0  0  0  0
   20.5186  -23.7294  -13.5547 C   0  0  0  0  0  0  0  0  0  0  0  0
   20.3880  -25.0073  -13.4783 N   0  0  0  0  0  0  0  0  0  0  0  0
   20.5403  -22.9996  -12.3260 N   0  0  0  0  0  0  0  0  0  0  0  0
   20.9105  -21.6244  -12.2285 C   0  0  0  0  0  0  0  0  0  0  0  0
   22.4178  -21.3927  -12.3041 C   0  0  0  0  0  0  0  0  0  0  0  0
   22.6333  -19.9247  -12.0880 C   0  0  0  0  0  0  0  0  0  0  0  0
   24.0802  -19.4971  -12.2069 C   0  0  2  0  0  0  0  0  0  0  0  0
   24.6356  -19.7076  -13.5254 N   0  0  0  0  0  0  0  0  0  0  0  0
   24.8716  -20.2869  -11.2464 C   0  0  0  0  0  0  0  0  0  0  0  0
   25.1476  -21.4738  -11.5072 O   0  0  0  0  0  0  0  0  0  0  0  0
   20.3556  -25.4507  -12.5355 N   0  0  0  0  0  0  0  0  0  0  0  0
   25.3065  -19.6874  -10.0419 C   0  0  2  0  0  0  0  0  0  0  0  0
   26.1741  -20.3784   -9.0710 C   0  0  0  0  0  0  0  0  0  0  0  0
   27.3808  -19.5490   -8.7744 C   0  0  0  0  0  0  0  0  0  0  0  0
   28.2513  -20.1940   -7.7752 C   0  0  0  0  0  0  0  0  0  0  0  0
   29.0952  -21.2533   -8.1117 N   0  0  0  0  0  0  0  0  0  0  0  0
   29.8046  -21.6055   -7.0282 C   0  0  0  0  0  0  0  0  0  0  0  0
   29.4328  -20.8022   -6.0214 C   0  0  0  0  0  0  0  0  0  0  0  0
   29.8138  -20.7182   -4.7038 C   0  0  0  0  0  0  0  0  0  0  0  0
   29.2821  -19.8060   -3.8208 C   0  0  0  0  0  0  0  0  0  0  0  0
   28.3179  -18.9332   -4.2828 C   0  0  0  0  0  0  0  0  0  0  0  0
   27.9118  -18.9871   -5.5939 C   0  0  0  0  0  0  0  0  0  0  0  0
   28.4581  -19.9071   -6.4629 C   0  0  0  0  0  0  0  0  0  0  0  0
   25.4178  -20.7480   -7.8925 O   0  0  0  0  0  0  0  0  0  0  0  0
   24.3688  -20.1181   -7.5129 O   0  0  0  0  0  0  0  0  0  0  0  0
  2  1  1  6
  2  3  1  0
  4  2  1  0
  4  5  1  6
  6  7  2  0
  6  4  1  0
  9 10  2  0
  9  8  1  0
 11  9  1  0
 12 11  1  0
 13 12  1  0
 13 14  1  0
 15 14  1  6
 15 16  1  0
 16  6  1  0
 17 19  1  0
 17 15  1  0
 18 17  2  0
 20 19  1  0
 20 21  1  1
 21 22  1  0
 22 30  1  0
 23 22  2  0
 23 24  1  0
 24 25  1  0
 25 26  1  0
 26 27  2  0
 28 27  1  0
 29 28  2  0
 30 25  2  0
 30 29  1  0
 31 20  1  0
 32 31  2  0
 33 31  1  0
M  END
$$$$
