VRW.pdb
     RDKit          3D

 33 34  0  0  1  0  0  0  0  0999 V2000
   27.0999  -19.2809  -17.0765 C   0  0  0  0  0  0  0  0  0  0  0  0
   27.7744  -18.2479  -16.1749 C   0  0  2  0  0  0  0  0  0  0  0  0
   29.0886  -17.7969  -16.7272 C   0  0  0  0  0  0  0  0  0  0  0  0
   27.8328  -18.8374  -14.8004 C   0  0  2  0  0  0  0  0  0  0  0  0
   28.6752  -20.0204  -14.8745 N   0  0  0  0  0  0  0  0  0  0  0  0
   26.5130  -19.1301  -14.2034 C   0  0  0  0  0  0  0  0  0  0  0  0
   25.5085  -18.4838  -14.5931 O   0  0  0  0  0  0  0  0  0  0  0  0
   26.2533  -26.0520  -15.8722 N   0  0  0  0  0  0  0  0  0  0  0  0
   24.8705  -25.7036  -15.7181 C   0  0  0  0  0  0  0  0  0  0  0  0
   23.9728  -26.6084  -15.5404 N   0  0  0  0  0  0  0  0  0  0  0  0
   24.4311  -24.3441  -15.7519 N   0  0  0  0  0  0  0  0  0  0  0  0
   25.3014  -23.2363  -15.9825 C   0  0  0  0  0  0  0  0  0  0  0  0
   25.8032  -22.5787  -14.6991 C   0  0  0  0  0  0  0  0  0  0  0  0
   24.6926  -21.6975  -14.2111 C   0  0  0  0  0  0  0  0  0  0  0  0
   25.0688  -20.8479  -13.0164 C   0  0  2  0  0  0  0  0  0  0  0  0
   26.2982  -20.1090  -13.2005 N   0  0  0  0  0  0  0  0  0  0  0  0
   25.2415  -21.7403  -11.8560 C   0  0  0  0  0  0  0  0  0  0  0  0
   24.3442  -22.5562  -11.5699 O   0  0  0  0  0  0  0  0  0  0  0  0
   22.9944  -26.3090  -15.3416 N   0  0  0  0  0  0  0  0  0  0  0  0
   26.4226  -21.6580  -11.0830 C   0  0  1  0  0  0  0  0  0  0  0  0
   26.4233  -21.2736   -9.6600 C   0  0  0  0  0  0  0  0  0  0  0  0
   27.6349  -20.4583   -9.3455 C   0  0  0  0  0  0  0  0  0  0  0  0
   27.6081  -19.9573   -7.9596 C   0  0  0  0  0  0  0  0  0  0  0  0
   26.6598  -19.0261   -7.5341 N   0  0  0  0  0  0  0  0  0  0  0  0
   26.8365  -18.7927   -6.2243 C   0  0  0  0  0  0  0  0  0  0  0  0
   27.8660  -19.5466   -5.8133 C   0  0  0  0  0  0  0  0  0  0  0  0
   28.4835  -19.7007   -4.5955 C   0  0  0  0  0  0  0  0  0  0  0  0
   29.5572  -20.5378   -4.3940 C   0  0  0  0  0  0  0  0  0  0  0  0
   30.0371  -21.2575   -5.4696 C   0  0  0  0  0  0  0  0  0  0  0  0
   29.4452  -21.1297   -6.7025 C   0  0  0  0  0  0  0  0  0  0  0  0
   28.3694  -20.2870   -6.8832 C   0  0  0  0  0  0  0  0  0  0  0  0
   25.1772  -20.6220   -9.3131 O   0  0  0  0  0  0  0  0  0  0  0  0
   24.6979  -19.6376   -9.9782 O   0  0  0  0  0  0  0  0  0  0  0  0
  2  1  1  6
  2  3  1  0
  4  2  1  0
  4  5  1  6
  6  7  2  0
  6  4  1  0
  9 10  2  0
  9  8  1  0
 11  9  1  0
 12 11  1  0
 13 12  1  0
 13 14  1  0
 15 14  1  6
 15 16  1  0
 16  6  1  0
 17 19  1  0
 17 15  1  0
 18 17  2  0
 20 19  1  0
 20 21  1  1
 21 22  1  0
 22 30  1  0
 23 22  2  0
 23 24  1  0
 24 25  1  0
 25 26  1  0
 26 27  2  0
 28 27  1  0
 29 28  2  0
 30 25  2  0
 30 29  1  0
 31 20  1  0
 32 31  2  0
 33 31  1  0
M  END
$$$$
