VRW.pdb
     RDKit          3D

 33 34  0  0  1  0  0  0  0  0999 V2000
   25.1007  -20.3277  -19.8070 C   0  0  0  0  0  0  0  0  0  0  0  0
   24.3873  -19.1242  -19.1927 C   0  0  2  0  0  0  0  0  0  0  0  0
   24.1556  -18.0397  -20.1957 C   0  0  0  0  0  0  0  0  0  0  0  0
   25.1754  -18.7157  -17.9877 C   0  0  2  0  0  0  0  0  0  0  0  0
   26.3830  -18.0606  -18.4644 N   0  0  0  0  0  0  0  0  0  0  0  0
   25.4731  -19.8174  -17.0488 C   0  0  0  0  0  0  0  0  0  0  0  0
   24.5262  -20.5079  -16.5959 O   0  0  0  0  0  0  0  0  0  0  0  0
   30.1829  -25.6428  -16.9532 N   0  0  0  0  0  0  0  0  0  0  0  0
   29.9342  -25.1640  -18.2822 C   0  0  0  0  0  0  0  0  0  0  0  0
   29.8579  -25.9757  -19.2779 N   0  0  0  0  0  0  0  0  0  0  0  0
   29.7582  -23.7727  -18.5577 N   0  0  0  0  0  0  0  0  0  0  0  0
   29.6958  -22.7671  -17.5464 C   0  0  0  0  0  0  0  0  0  0  0  0
   28.5474  -22.9661  -16.5600 C   0  0  0  0  0  0  0  0  0  0  0  0
   28.4801  -21.7197  -15.7293 C   0  0  0  0  0  0  0  0  0  0  0  0
   27.0858  -21.1444  -15.6052 C   0  0  2  0  0  0  0  0  0  0  0  0
   26.7799  -20.1551  -16.6147 N   0  0  0  0  0  0  0  0  0  0  0  0
   26.9722  -20.4997  -14.2845 C   0  0  0  0  0  0  0  0  0  0  0  0
   27.4916  -19.3821  -14.0999 O   0  0  0  0  0  0  0  0  0  0  0  0
   29.7238  -25.5824  -20.2338 N   0  0  0  0  0  0  0  0  0  0  0  0
   26.2760  -21.1583  -13.2448 C   0  0  1  0  0  0  0  0  0  0  0  0
   26.3491  -20.7310  -11.8360 C   0  0  0  0  0  0  0  0  0  0  0  0
   25.5963  -19.4551  -11.6432 C   0  0  0  0  0  0  0  0  0  0  0  0
   24.1618  -19.6205  -11.9382 C   0  0  0  0  0  0  0  0  0  0  0  0
   23.2677  -20.1075  -10.9837 N   0  0  0  0  0  0  0  0  0  0  0  0
   22.0305  -20.1023  -11.5040 C   0  0  0  0  0  0  0  0  0  0  0  0
   22.1186  -19.6286  -12.7550 C   0  0  0  0  0  0  0  0  0  0  0  0
   21.1860  -19.4169  -13.7416 C   0  0  0  0  0  0  0  0  0  0  0  0
   21.5029  -18.9234  -14.9868 C   0  0  0  0  0  0  0  0  0  0  0  0
   22.8237  -18.6274  -15.2569 C   0  0  0  0  0  0  0  0  0  0  0  0
   23.7841  -18.8256  -14.2952 C   0  0  0  0  0  0  0  0  0  0  0  0
   23.4459  -19.3192  -13.0534 C   0  0  0  0  0  0  0  0  0  0  0  0
   25.9150  -21.8007  -10.9614 O   0  0  0  0  0  0  0  0  0  0  0  0
   25.4259  -22.9014  -11.3978 O   0  0  0  0  0  0  0  0  0  0  0  0
  2  1  1  6
  2  3  1  0
  4  2  1  0
  4  5  1  6
  6  7  2  0
  6  4  1  0
  9 10  2  0
  9  8  1  0
 11  9  1  0
 12 11  1  0
 13 12  1  0
 13 14  1  0
 15 14  1  6
 15 16  1  0
 16  6  1  0
 17 19  1  0
 17 15  1  0
 18 17  2  0
 20 19  1  0
 20 21  1  6
 21 22  1  0
 22 30  1  0
 23 22  2  0
 23 24  1  0
 24 25  1  0
 25 26  1  0
 26 27  2  0
 28 27  1  0
 29 28  2  0
 30 25  2  0
 30 29  1  0
 31 20  1  0
 32 31  2  0
 33 31  1  0
M  END
$$$$
