VRW.pdb
     RDKit          3D

 33 34  0  0  1  0  0  0  0  0999 V2000
   27.3060  -20.8510  -21.5120 C   0  0  0  0  0  0  0  0  0  0  0  0
   27.5204  -19.4144  -21.0379 C   0  0  2  0  0  0  0  0  0  0  0  0
   28.3923  -18.6407  -21.9743 C   0  0  0  0  0  0  0  0  0  0  0  0
   28.0134  -19.4875  -19.6266 C   0  0  2  0  0  0  0  0  0  0  0  0
   29.4000  -19.9229  -19.6767 N   0  0  0  0  0  0  0  0  0  0  0  0
   27.1950  -20.3362  -18.7356 C   0  0  0  0  0  0  0  0  0  0  0  0
   25.9996  -20.0181  -18.5161 O   0  0  0  0  0  0  0  0  0  0  0  0
   25.3166  -26.3902  -15.9694 N   0  0  0  0  0  0  0  0  0  0  0  0
   25.5856  -27.1590  -17.1500 C   0  0  0  0  0  0  0  0  0  0  0  0
   24.7366  -28.0199  -17.5906 N   0  0  0  0  0  0  0  0  0  0  0  0
   26.8000  -27.0020  -17.8870 N   0  0  0  0  0  0  0  0  0  0  0  0
   27.7205  -25.9312  -17.6772 C   0  0  0  0  0  0  0  0  0  0  0  0
   27.1517  -24.5603  -18.0358 C   0  0  0  0  0  0  0  0  0  0  0  0
   27.4697  -23.6541  -16.8844 C   0  0  0  0  0  0  0  0  0  0  0  0
   26.9704  -22.2372  -17.0679 C   0  0  2  0  0  0  0  0  0  0  0  0
   27.6759  -21.5078  -18.0982 N   0  0  0  0  0  0  0  0  0  0  0  0
   27.1521  -21.5189  -15.7936 C   0  0  0  0  0  0  0  0  0  0  0  0
   28.2984  -21.1907  -15.4317 O   0  0  0  0  0  0  0  0  0  0  0  0
   24.9782  -28.5686  -18.4432 N   0  0  0  0  0  0  0  0  0  0  0  0
   26.0233  -21.2125  -14.9991 C   0  0  2  0  0  0  0  0  0  0  0  0
   26.0833  -21.1052  -13.5301 C   0  0  0  0  0  0  0  0  0  0  0  0
   25.8123  -19.6994  -13.1032 C   0  0  0  0  0  0  0  0  0  0  0  0
   25.7668  -19.5765  -11.6351 C   0  0  0  0  0  0  0  0  0  0  0  0
   26.7961  -18.9656  -10.9176 N   0  0  0  0  0  0  0  0  0  0  0  0
   26.4673  -18.9461   -9.6165 C   0  0  0  0  0  0  0  0  0  0  0  0
   25.2650  -19.5260   -9.4933 C   0  0  0  0  0  0  0  0  0  0  0  0
   24.4595  -19.7856   -8.4108 C   0  0  0  0  0  0  0  0  0  0  0  0
   23.2411  -20.4179   -8.5106 C   0  0  0  0  0  0  0  0  0  0  0  0
   22.8081  -20.8109   -9.7609 C   0  0  0  0  0  0  0  0  0  0  0  0
   23.5860  -20.5682  -10.8666 C   0  0  0  0  0  0  0  0  0  0  0  0
   24.8028  -19.9318  -10.7455 C   0  0  0  0  0  0  0  0  0  0  0  0
   25.2043  -22.0794  -12.9170 O   0  0  0  0  0  0  0  0  0  0  0  0
   25.5400  -22.7726  -11.8933 O   0  0  0  0  0  0  0  0  0  0  0  0
  2  1  1  6
  2  3  1  0
  4  2  1  0
  4  5  1  6
  6  7  2  0
  6  4  1  0
  9 10  2  0
  9  8  1  0
 11  9  1  0
 12 11  1  0
 13 12  1  0
 13 14  1  0
 15 14  1  1
 15 16  1  0
 16  6  1  0
 17 19  1  0
 17 15  1  0
 18 17  2  0
 20 19  1  0
 20 21  1  6
 21 22  1  0
 22 30  1  0
 23 22  2  0
 23 24  1  0
 24 25  1  0
 25 26  1  0
 26 27  2  0
 28 27  1  0
 29 28  2  0
 30 25  2  0
 30 29  1  0
 31 20  1  0
 32 31  2  0
 33 31  1  0
M  END
$$$$
