VRW.pdb
     RDKit          3D

 33 34  0  0  1  0  0  0  0  0999 V2000
   20.8014  -22.5849  -14.0920 C   0  0  0  0  0  0  0  0  0  0  0  0
   21.0101  -22.2482  -15.5677 C   0  0  2  0  0  0  0  0  0  0  0  0
   19.7133  -22.1255  -16.3020 C   0  0  0  0  0  0  0  0  0  0  0  0
   21.9577  -23.2666  -16.1199 C   0  0  2  0  0  0  0  0  0  0  0  0
   21.2575  -24.5410  -16.1387 N   0  0  0  0  0  0  0  0  0  0  0  0
   23.2491  -23.3512  -15.4065 C   0  0  0  0  0  0  0  0  0  0  0  0
   23.3783  -24.1804  -14.4715 O   0  0  0  0  0  0  0  0  0  0  0  0
   31.3400  -23.6216  -17.9825 N   0  0  0  0  0  0  0  0  0  0  0  0
   30.5115  -22.4924  -18.2922 C   0  0  0  0  0  0  0  0  0  0  0  0
   30.6522  -21.8475  -19.3969 N   0  0  0  0  0  0  0  0  0  0  0  0
   29.4968  -22.0378  -17.3943 N   0  0  0  0  0  0  0  0  0  0  0  0
   29.1468  -22.7145  -16.1871 C   0  0  0  0  0  0  0  0  0  0  0  0
   27.7303  -23.2844  -16.1972 C   0  0  0  0  0  0  0  0  0  0  0  0
   26.8147  -22.1532  -15.8363 C   0  0  0  0  0  0  0  0  0  0  0  0
   25.6301  -22.5731  -14.9931 C   0  0  2  0  0  0  0  0  0  0  0  0
   24.3747  -22.5444  -15.7104 N   0  0  0  0  0  0  0  0  0  0  0  0
   25.5266  -21.6437  -13.8537 C   0  0  0  0  0  0  0  0  0  0  0  0
   24.9627  -20.5433  -14.0079 O   0  0  0  0  0  0  0  0  0  0  0  0
   30.0343  -21.0282  -19.5793 N   0  0  0  0  0  0  0  0  0  0  0  0
   26.0691  -22.0133  -12.6013 C   0  0  2  0  0  0  0  0  0  0  0  0
   26.0885  -21.1077  -11.4383 C   0  0  0  0  0  0  0  0  0  0  0  0
   26.5484  -21.8405  -10.2204 C   0  0  0  0  0  0  0  0  0  0  0  0
   26.6228  -20.9515   -9.0471 C   0  0  0  0  0  0  0  0  0  0  0  0
   25.5199  -20.2145   -8.6136 N   0  0  0  0  0  0  0  0  0  0  0  0
   25.8563  -19.5408   -7.5027 C   0  0  0  0  0  0  0  0  0  0  0  0
   27.1354  -19.8300   -7.2247 C   0  0  0  0  0  0  0  0  0  0  0  0
   27.9897  -19.4239   -6.2280 C   0  0  0  0  0  0  0  0  0  0  0  0
   29.2973  -19.8439   -6.1367 C   0  0  0  0  0  0  0  0  0  0  0  0
   29.7731  -20.7159   -7.0950 C   0  0  0  0  0  0  0  0  0  0  0  0
   28.9483  -21.1441   -8.1065 C   0  0  0  0  0  0  0  0  0  0  0  0
   27.6411  -20.7130   -8.1792 C   0  0  0  0  0  0  0  0  0  0  0  0
   26.8681  -19.9235  -11.7342 O   0  0  0  0  0  0  0  0  0  0  0  0
   26.5286  -18.7514  -11.3442 O   0  0  0  0  0  0  0  0  0  0  0  0
  2  1  1  1
  2  3  1  0
  4  2  1  0
  4  5  1  1
  6  7  2  0
  6  4  1  0
  9 10  2  0
  9  8  1  0
 11  9  1  0
 12 11  1  0
 13 12  1  0
 13 14  1  0
 15 14  1  6
 15 16  1  0
 16  6  1  0
 17 19  1  0
 17 15  1  0
 18 17  2  0
 20 19  1  0
 20 21  1  1
 21 22  1  0
 22 30  1  0
 23 22  2  0
 23 24  1  0
 24 25  1  0
 25 26  1  0
 26 27  2  0
 28 27  1  0
 29 28  2  0
 30 25  2  0
 30 29  1  0
 31 20  1  0
 32 31  2  0
 33 31  1  0
M  END
$$$$
