VRW.pdb
     RDKit          3D

 33 34  0  0  1  0  0  0  0  0999 V2000
   28.3212  -19.4310  -18.2494 C   0  0  0  0  0  0  0  0  0  0  0  0
   28.3304  -18.2040  -17.3389 C   0  0  2  0  0  0  0  0  0  0  0  0
   29.6024  -17.4274  -17.4598 C   0  0  0  0  0  0  0  0  0  0  0  0
   28.0073  -18.6809  -15.9575 C   0  0  2  0  0  0  0  0  0  0  0  0
   29.1801  -19.3808  -15.4581 N   0  0  0  0  0  0  0  0  0  0  0  0
   26.7850  -19.5063  -15.8651 C   0  0  0  0  0  0  0  0  0  0  0  0
   25.6944  -19.0316  -16.2700 O   0  0  0  0  0  0  0  0  0  0  0  0
   29.0429  -24.5647  -16.7895 N   0  0  0  0  0  0  0  0  0  0  0  0
   28.3662  -25.8286  -16.8331 C   0  0  0  0  0  0  0  0  0  0  0  0
   28.9990  -26.9292  -16.6227 N   0  0  0  0  0  0  0  0  0  0  0  0
   26.9667  -25.9211  -17.1078 N   0  0  0  0  0  0  0  0  0  0  0  0
   26.0801  -24.8025  -17.0865 C   0  0  0  0  0  0  0  0  0  0  0  0
   26.3816  -23.8078  -15.9680 C   0  0  0  0  0  0  0  0  0  0  0  0
   25.3529  -22.7224  -16.0760 C   0  0  0  0  0  0  0  0  0  0  0  0
   25.5565  -21.5896  -15.0932 C   0  0  2  0  0  0  0  0  0  0  0  0
   26.7575  -20.8229  -15.3400 N   0  0  0  0  0  0  0  0  0  0  0  0
   25.6537  -22.1684  -13.7410 C   0  0  0  0  0  0  0  0  0  0  0  0
   26.5617  -22.9826  -13.4854 O   0  0  0  0  0  0  0  0  0  0  0  0
   28.4722  -27.8269  -16.6789 N   0  0  0  0  0  0  0  0  0  0  0  0
   24.7151  -21.7923  -12.7526 C   0  0  1  0  0  0  0  0  0  0  0  0
   25.1091  -21.2938  -11.4226 C   0  0  0  0  0  0  0  0  0  0  0  0
   26.2792  -20.3727  -11.5416 C   0  0  0  0  0  0  0  0  0  0  0  0
   27.3468  -20.7243  -10.5882 C   0  0  0  0  0  0  0  0  0  0  0  0
   28.4967  -21.4041  -10.9920 N   0  0  0  0  0  0  0  0  0  0  0  0
   29.3138  -21.5422   -9.9363 C   0  0  0  0  0  0  0  0  0  0  0  0
   28.7138  -20.9718   -8.8818 C   0  0  0  0  0  0  0  0  0  0  0  0
   29.0778  -20.8281   -7.5647 C   0  0  0  0  0  0  0  0  0  0  0  0
   28.2868  -20.2053   -6.6263 C   0  0  0  0  0  0  0  0  0  0  0  0
   27.0669  -19.7008   -7.0295 C   0  0  0  0  0  0  0  0  0  0  0  0
   26.6690  -19.8253   -8.3382 C   0  0  0  0  0  0  0  0  0  0  0  0
   27.4769  -20.4512   -9.2633 C   0  0  0  0  0  0  0  0  0  0  0  0
   23.9711  -20.7049  -10.7473 O   0  0  0  0  0  0  0  0  0  0  0  0
   23.1030  -19.9803  -11.3495 O   0  0  0  0  0  0  0  0  0  0  0  0
  2  1  1  6
  2  3  1  0
  4  2  1  0
  4  5  1  6
  6  7  2  0
  6  4  1  0
  9 10  2  0
  9  8  1  0
 11  9  1  0
 12 11  1  0
 13 12  1  0
 13 14  1  0
 15 14  1  6
 15 16  1  0
 16  6  1  0
 17 19  1  0
 17 15  1  0
 18 17  2  0
 20 19  1  0
 20 21  1  1
 21 22  1  0
 22 30  1  0
 23 22  2  0
 23 24  1  0
 24 25  1  0
 25 26  1  0
 26 27  2  0
 28 27  1  0
 29 28  2  0
 30 25  2  0
 30 29  1  0
 31 20  1  0
 32 31  2  0
 33 31  1  0
M  END
$$$$
