VRW.pdb
     RDKit          3D

 33 34  0  0  1  0  0  0  0  0999 V2000
   29.9959  -27.2840  -16.8169 C   0  0  0  0  0  0  0  0  0  0  0  0
   30.0197  -25.8748  -17.4069 C   0  0  2  0  0  0  0  0  0  0  0  0
   30.8156  -24.9294  -16.5651 C   0  0  0  0  0  0  0  0  0  0  0  0
   28.5969  -25.4729  -17.6395 C   0  0  2  0  0  0  0  0  0  0  0  0
   27.9974  -25.2365  -16.3359 N   0  0  0  0  0  0  0  0  0  0  0  0
   27.8141  -26.4319  -18.4467 C   0  0  0  0  0  0  0  0  0  0  0  0
   28.1434  -26.6374  -19.6416 O   0  0  0  0  0  0  0  0  0  0  0  0
   27.5943  -32.6180  -16.4130 N   0  0  0  0  0  0  0  0  0  0  0  0
   26.4547  -32.5389  -15.5457 C   0  0  0  0  0  0  0  0  0  0  0  0
   26.5389  -32.8709  -14.3052 N   0  0  0  0  0  0  0  0  0  0  0  0
   25.1831  -32.0876  -16.0170 N   0  0  0  0  0  0  0  0  0  0  0  0
   25.0189  -31.1872  -17.1124 C   0  0  0  0  0  0  0  0  0  0  0  0
   25.8886  -29.9365  -17.0082 C   0  0  0  0  0  0  0  0  0  0  0  0
   26.2273  -29.5364  -18.4130 C   0  0  0  0  0  0  0  0  0  0  0  0
   25.9122  -28.0899  -18.7275 C   0  0  2  0  0  0  0  0  0  0  0  0
   26.6945  -27.1499  -17.9558 N   0  0  0  0  0  0  0  0  0  0  0  0
   24.4885  -27.8554  -18.4262 C   0  0  0  0  0  0  0  0  0  0  0  0
   24.1208  -27.7519  -17.2401 O   0  0  0  0  0  0  0  0  0  0  0  0
   25.6905  -32.7838  -13.7060 N   0  0  0  0  0  0  0  0  0  0  0  0
   23.5593  -27.7515  -19.4869 C   0  0  2  0  0  0  0  0  0  0  0  0
   22.1261  -27.4819  -19.2726 C   0  0  0  0  0  0  0  0  0  0  0  0
   21.4851  -27.0481  -20.5504 C   0  0  0  0  0  0  0  0  0  0  0  0
   20.1084  -26.5691  -20.3325 C   0  0  0  0  0  0  0  0  0  0  0  0
   19.8307  -25.2257  -20.0762 N   0  0  0  0  0  0  0  0  0  0  0  0
   18.5018  -25.0681  -19.9733 C   0  0  0  0  0  0  0  0  0  0  0  0
   17.9357  -26.2695  -20.1558 C   0  0  0  0  0  0  0  0  0  0  0  0
   16.6301  -26.6978  -20.1482 C   0  0  0  0  0  0  0  0  0  0  0  0
   16.2645  -28.0093  -20.3498 C   0  0  0  0  0  0  0  0  0  0  0  0
   17.2599  -28.9398  -20.5698 C   0  0  0  0  0  0  0  0  0  0  0  0
   18.5766  -28.5490  -20.5847 C   0  0  0  0  0  0  0  0  0  0  0  0
   18.9218  -27.2299  -20.3824 C   0  0  0  0  0  0  0  0  0  0  0  0
   21.4841  -28.6257  -18.6585 O   0  0  0  0  0  0  0  0  0  0  0  0
   21.6628  -29.8267  -19.0672 O   0  0  0  0  0  0  0  0  0  0  0  0
  2  1  1  1
  2  3  1  0
  4  2  1  0
  4  5  1  1
  6  7  2  0
  6  4  1  0
  9 10  2  0
  9  8  1  0
 11  9  1  0
 12 11  1  0
 13 12  1  0
 13 14  1  0
 15 14  1  1
 15 16  1  0
 16  6  1  0
 17 19  1  0
 17 15  1  0
 18 17  2  0
 20 19  1  0
 20 21  1  6
 21 22  1  0
 22 30  1  0
 23 22  2  0
 23 24  1  0
 24 25  1  0
 25 26  1  0
 26 27  2  0
 28 27  1  0
 29 28  2  0
 30 25  2  0
 30 29  1  0
 31 20  1  0
 32 31  2  0
 33 31  1  0
M  END
$$$$
