VRW.pdb
     RDKit          3D

 33 34  0  0  1  0  0  0  0  0999 V2000
   27.0435  -19.5208  -17.2699 C   0  0  0  0  0  0  0  0  0  0  0  0
   27.4325  -18.2188  -16.5710 C   0  0  2  0  0  0  0  0  0  0  0  0
   28.5225  -17.4982  -17.2978 C   0  0  0  0  0  0  0  0  0  0  0  0
   27.7384  -18.5606  -15.1464 C   0  0  2  0  0  0  0  0  0  0  0  0
   29.0148  -19.2572  -15.1350 N   0  0  0  0  0  0  0  0  0  0  0  0
   26.6787  -19.3287  -14.4601 C   0  0  0  0  0  0  0  0  0  0  0  0
   25.5214  -18.8449  -14.3885 O   0  0  0  0  0  0  0  0  0  0  0  0
   24.7413  -27.1251  -16.0244 N   0  0  0  0  0  0  0  0  0  0  0  0
   25.3509  -25.9595  -16.5961 C   0  0  0  0  0  0  0  0  0  0  0  0
   25.9599  -26.0151  -17.7284 N   0  0  0  0  0  0  0  0  0  0  0  0
   25.3069  -24.6911  -15.9389 N   0  0  0  0  0  0  0  0  0  0  0  0
   24.3761  -24.3663  -14.9064 C   0  0  0  0  0  0  0  0  0  0  0  0
   24.4277  -22.9015  -14.4787 C   0  0  0  0  0  0  0  0  0  0  0  0
   25.6677  -22.7441  -13.6506 C   0  0  0  0  0  0  0  0  0  0  0  0
   25.8792  -21.3385  -13.1309 C   0  0  2  0  0  0  0  0  0  0  0  0
   26.8824  -20.5990  -13.8644 N   0  0  0  0  0  0  0  0  0  0  0  0
   26.3157  -21.4305  -11.7260 C   0  0  0  0  0  0  0  0  0  0  0  0
   27.4954  -21.7382  -11.4683 O   0  0  0  0  0  0  0  0  0  0  0  0
   26.3850  -25.1434  -18.1104 N   0  0  0  0  0  0  0  0  0  0  0  0
   25.3898  -21.1690  -10.6898 C   0  0  1  0  0  0  0  0  0  0  0  0
   25.7990  -20.8935   -9.3008 C   0  0  0  0  0  0  0  0  0  0  0  0
   26.8971  -19.8808   -9.2767 C   0  0  0  0  0  0  0  0  0  0  0  0
   27.9765  -20.2714   -8.3523 C   0  0  0  0  0  0  0  0  0  0  0  0
   29.0000  -21.1360   -8.7427 N   0  0  0  0  0  0  0  0  0  0  0  0
   29.8657  -21.2723   -7.7262 C   0  0  0  0  0  0  0  0  0  0  0  0
   29.4185  -20.5220   -6.7093 C   0  0  0  0  0  0  0  0  0  0  0  0
   29.8900  -20.2935   -5.4390 C   0  0  0  0  0  0  0  0  0  0  0  0
   29.2522  -19.4779   -4.5322 C   0  0  0  0  0  0  0  0  0  0  0  0
   28.0803  -18.8597   -4.9191 C   0  0  0  0  0  0  0  0  0  0  0  0
   27.5783  -19.0640   -6.1812 C   0  0  0  0  0  0  0  0  0  0  0  0
   28.2334  -19.8835   -7.0754 C   0  0  0  0  0  0  0  0  0  0  0  0
   24.6498  -20.5251   -8.5000 O   0  0  0  0  0  0  0  0  0  0  0  0
   23.6359  -19.9071   -8.9809 O   0  0  0  0  0  0  0  0  0  0  0  0
  2  1  1  6
  2  3  1  0
  4  2  1  0
  4  5  1  6
  6  7  2  0
  6  4  1  0
  9 10  2  0
  9  8  1  0
 11  9  1  0
 12 11  1  0
 13 12  1  0
 13 14  1  0
 15 14  1  6
 15 16  1  0
 16  6  1  0
 17 19  1  0
 17 15  1  0
 18 17  2  0
 20 19  1  0
 20 21  1  1
 21 22  1  0
 22 30  1  0
 23 22  2  0
 23 24  1  0
 24 25  1  0
 25 26  1  0
 26 27  2  0
 28 27  1  0
 29 28  2  0
 30 25  2  0
 30 29  1  0
 31 20  1  0
 32 31  2  0
 33 31  1  0
M  END
$$$$
