VRW.pdb
     RDKit          3D

 33 34  0  0  1  0  0  0  0  0999 V2000
   25.7849  -24.5920  -17.4716 C   0  0  0  0  0  0  0  0  0  0  0  0
   25.9802  -23.4925  -18.5144 C   0  0  2  0  0  0  0  0  0  0  0  0
   25.8248  -24.0101  -19.9086 C   0  0  0  0  0  0  0  0  0  0  0  0
   27.2955  -22.8405  -18.2229 C   0  0  2  0  0  0  0  0  0  0  0  0
   28.3228  -23.8595  -18.3673 N   0  0  0  0  0  0  0  0  0  0  0  0
   27.3649  -22.1616  -16.9121 C   0  0  0  0  0  0  0  0  0  0  0  0
   27.9978  -22.7068  -15.9736 O   0  0  0  0  0  0  0  0  0  0  0  0
   25.1814  -14.6680  -15.9391 N   0  0  0  0  0  0  0  0  0  0  0  0
   26.2421  -15.3354  -16.6368 C   0  0  0  0  0  0  0  0  0  0  0  0
   26.4289  -15.1505  -17.8965 N   0  0  0  0  0  0  0  0  0  0  0  0
   27.1352  -16.2281  -15.9673 N   0  0  0  0  0  0  0  0  0  0  0  0
   27.0902  -16.4885  -14.5645 C   0  0  0  0  0  0  0  0  0  0  0  0
   27.0483  -17.9760  -14.2224 C   0  0  0  0  0  0  0  0  0  0  0  0
   26.9051  -18.7072  -15.5235 C   0  0  0  0  0  0  0  0  0  0  0  0
   26.8405  -20.2118  -15.3731 C   0  0  2  0  0  0  0  0  0  0  0  0
   26.7538  -20.9127  -16.6350 N   0  0  0  0  0  0  0  0  0  0  0  0
   25.6402  -20.5420  -14.5837 C   0  0  0  0  0  0  0  0  0  0  0  0
   24.5121  -20.2745  -15.0403 O   0  0  0  0  0  0  0  0  0  0  0  0
   27.2102  -15.6567  -18.3653 N   0  0  0  0  0  0  0  0  0  0  0  0
   25.7853  -21.1573  -13.3189 C   0  0  2  0  0  0  0  0  0  0  0  0
   24.6405  -21.4708  -12.4448 C   0  0  0  0  0  0  0  0  0  0  0  0
   25.1179  -22.0754  -11.1648 C   0  0  0  0  0  0  0  0  0  0  0  0
   25.9207  -21.1211  -10.3792 C   0  0  0  0  0  0  0  0  0  0  0  0
   25.3268  -20.1937   -9.5221 N   0  0  0  0  0  0  0  0  0  0  0  0
   26.2905  -19.4961   -8.9008 C   0  0  0  0  0  0  0  0  0  0  0  0
   27.4708  -19.9547   -9.3409 C   0  0  0  0  0  0  0  0  0  0  0  0
   28.7708  -19.6084   -9.0609 C   0  0  0  0  0  0  0  0  0  0  0  0
   29.8572  -20.2144   -9.6499 C   0  0  0  0  0  0  0  0  0  0  0  0
   29.6281  -21.2195  -10.5678 C   0  0  0  0  0  0  0  0  0  0  0  0
   28.3421  -21.5931  -10.8730 C   0  0  0  0  0  0  0  0  0  0  0  0
   27.2674  -20.9747  -10.2706 C   0  0  0  0  0  0  0  0  0  0  0  0
   23.8105  -20.2983  -12.2607 O   0  0  0  0  0  0  0  0  0  0  0  0
   22.5683  -20.3659  -11.9548 O   0  0  0  0  0  0  0  0  0  0  0  0
  2  1  1  1
  2  3  1  0
  4  2  1  0
  4  5  1  1
  6  7  2  0
  6  4  1  0
  9 10  2  0
  9  8  1  0
 11  9  1  0
 12 11  1  0
 13 12  1  0
 13 14  1  0
 15 14  1  6
 15 16  1  0
 16  6  1  0
 17 19  1  0
 17 15  1  0
 18 17  2  0
 20 19  1  0
 20 21  1  6
 21 22  1  0
 22 30  1  0
 23 22  2  0
 23 24  1  0
 24 25  1  0
 25 26  1  0
 26 27  2  0
 28 27  1  0
 29 28  2  0
 30 25  2  0
 30 29  1  0
 31 20  1  0
 32 31  2  0
 33 31  1  0
M  END
$$$$
