VRW.pdb
     RDKit          3D

 33 34  0  0  1  0  0  0  0  0999 V2000
   28.0418  -20.6127  -18.3795 C   0  0  0  0  0  0  0  0  0  0  0  0
   28.6240  -21.9890  -18.0611 C   0  0  2  0  0  0  0  0  0  0  0  0
   28.4394  -22.9495  -19.1921 C   0  0  0  0  0  0  0  0  0  0  0  0
   28.0326  -22.4240  -16.7568 C   0  0  2  0  0  0  0  0  0  0  0  0
   26.6543  -22.8086  -17.0156 N   0  0  0  0  0  0  0  0  0  0  0  0
   28.1378  -21.4244  -15.6734 C   0  0  0  0  0  0  0  0  0  0  0  0
   29.2759  -21.0528  -15.2925 O   0  0  0  0  0  0  0  0  0  0  0  0
   28.5245  -15.4545  -16.3307 N   0  0  0  0  0  0  0  0  0  0  0  0
   27.2769  -15.4070  -17.0367 C   0  0  0  0  0  0  0  0  0  0  0  0
   27.2107  -14.9567  -18.2404 N   0  0  0  0  0  0  0  0  0  0  0  0
   26.0592  -15.8576  -16.4392 N   0  0  0  0  0  0  0  0  0  0  0  0
   25.9994  -16.5633  -15.1998 C   0  0  0  0  0  0  0  0  0  0  0  0
   26.8628  -17.8224  -15.1736 C   0  0  0  0  0  0  0  0  0  0  0  0
   26.3422  -18.6713  -14.0527 C   0  0  0  0  0  0  0  0  0  0  0  0
   27.0963  -19.9709  -13.8713 C   0  0  2  0  0  0  0  0  0  0  0  0
   27.0205  -20.8449  -15.0208 N   0  0  0  0  0  0  0  0  0  0  0  0
   26.5143  -20.6810  -12.7182 C   0  0  0  0  0  0  0  0  0  0  0  0
   25.4670  -21.3396  -12.8673 O   0  0  0  0  0  0  0  0  0  0  0  0
   26.2898  -14.9691  -18.7285 N   0  0  0  0  0  0  0  0  0  0  0  0
   27.1519  -20.6049  -11.4584 C   0  0  2  0  0  0  0  0  0  0  0  0
   26.5970  -21.2241  -10.2413 C   0  0  0  0  0  0  0  0  0  0  0  0
   27.6598  -21.3606   -9.2003 C   0  0  0  0  0  0  0  0  0  0  0  0
   27.2497  -20.7523   -7.9219 C   0  0  0  0  0  0  0  0  0  0  0  0
   25.9072  -20.6505   -7.5550 N   0  0  0  0  0  0  0  0  0  0  0  0
   25.8311  -20.1092   -6.3292 C   0  0  0  0  0  0  0  0  0  0  0  0
   27.0827  -19.8669   -5.9145 C   0  0  0  0  0  0  0  0  0  0  0  0
   27.5960  -19.3201   -4.7632 C   0  0  0  0  0  0  0  0  0  0  0  0
   28.9439  -19.1477   -4.5448 C   0  0  0  0  0  0  0  0  0  0  0  0
   29.8229  -19.5438   -5.5326 C   0  0  0  0  0  0  0  0  0  0  0  0
   29.3468  -20.0948   -6.6973 C   0  0  0  0  0  0  0  0  0  0  0  0
   27.9928  -20.2605   -6.8958 C   0  0  0  0  0  0  0  0  0  0  0  0
   25.4310  -20.4929   -9.7902 O   0  0  0  0  0  0  0  0  0  0  0  0
   24.4446  -21.0541   -9.1957 O   0  0  0  0  0  0  0  0  0  0  0  0
  2  1  1  6
  2  3  1  0
  4  2  1  0
  4  5  1  6
  6  7  2  0
  6  4  1  0
  9 10  2  0
  9  8  1  0
 11  9  1  0
 12 11  1  0
 13 12  1  0
 13 14  1  0
 15 14  1  6
 15 16  1  0
 16  6  1  0
 17 19  1  0
 17 15  1  0
 18 17  2  0
 20 19  1  0
 20 21  1  6
 21 22  1  0
 22 30  1  0
 23 22  2  0
 23 24  1  0
 24 25  1  0
 25 26  1  0
 26 27  2  0
 28 27  1  0
 29 28  2  0
 30 25  2  0
 30 29  1  0
 31 20  1  0
 32 31  2  0
 33 31  1  0
M  END
$$$$
