VRW.pdb
     RDKit          3D

 33 34  0  0  1  0  0  0  0  0999 V2000
   22.3415  -18.6877  -16.6902 C   0  0  0  0  0  0  0  0  0  0  0  0
   23.6607  -17.9296  -16.8310 C   0  0  2  0  0  0  0  0  0  0  0  0
   24.1401  -17.8997  -18.2469 C   0  0  0  0  0  0  0  0  0  0  0  0
   24.6181  -18.5300  -15.8497 C   0  0  2  0  0  0  0  0  0  0  0  0
   25.0710  -19.7940  -16.4080 N   0  0  0  0  0  0  0  0  0  0  0  0
   24.0765  -18.6868  -14.4837 C   0  0  0  0  0  0  0  0  0  0  0  0
   23.6416  -17.6754  -13.8783 O   0  0  0  0  0  0  0  0  0  0  0  0
   22.7821  -25.4623  -13.9289 N   0  0  0  0  0  0  0  0  0  0  0  0
   21.6295  -24.9104  -14.5802 C   0  0  0  0  0  0  0  0  0  0  0  0
   21.2214  -25.3692  -15.7111 N   0  0  0  0  0  0  0  0  0  0  0  0
   20.8857  -23.8345  -14.0042 N   0  0  0  0  0  0  0  0  0  0  0  0
   21.2599  -23.1703  -12.7973 C   0  0  0  0  0  0  0  0  0  0  0  0
   22.5743  -22.4012  -12.9079 C   0  0  0  0  0  0  0  0  0  0  0  0
   22.3060  -21.0234  -12.3808 C   0  0  0  0  0  0  0  0  0  0  0  0
   23.5023  -20.0992  -12.4537 C   0  0  2  0  0  0  0  0  0  0  0  0
   24.0132  -19.9246  -13.7953 N   0  0  0  0  0  0  0  0  0  0  0  0
   24.5776  -20.6759  -11.6268 C   0  0  0  0  0  0  0  0  0  0  0  0
   25.1924  -21.6810  -12.0325 O   0  0  0  0  0  0  0  0  0  0  0  0
   20.4250  -24.8927  -16.1855 N   0  0  0  0  0  0  0  0  0  0  0  0
   24.8965  -20.0813  -10.3842 C   0  0  1  0  0  0  0  0  0  0  0  0
   25.8934  -20.6476   -9.4578 C   0  0  0  0  0  0  0  0  0  0  0  0
   26.8658  -19.5940   -9.0378 C   0  0  0  0  0  0  0  0  0  0  0  0
   27.9151  -20.1419   -8.1597 C   0  0  0  0  0  0  0  0  0  0  0  0
   28.7335  -21.1973   -8.5643 N   0  0  0  0  0  0  0  0  0  0  0  0
   29.6262  -21.4520   -7.5950 C   0  0  0  0  0  0  0  0  0  0  0  0
   29.3943  -20.5911   -6.5939 C   0  0  0  0  0  0  0  0  0  0  0  0
   29.9846  -20.4038   -5.3672 C   0  0  0  0  0  0  0  0  0  0  0  0
   29.5703  -19.4476   -4.4681 C   0  0  0  0  0  0  0  0  0  0  0  0
   28.5085  -18.6376   -4.8167 C   0  0  0  0  0  0  0  0  0  0  0  0
   27.8934  -18.7951   -6.0347 C   0  0  0  0  0  0  0  0  0  0  0  0
   28.3247  -19.7577   -6.9221 C   0  0  0  0  0  0  0  0  0  0  0  0
   25.2345  -21.3065   -8.3491 O   0  0  0  0  0  0  0  0  0  0  0  0
   24.0602  -20.9877   -7.9483 O   0  0  0  0  0  0  0  0  0  0  0  0
  2  1  1  6
  2  3  1  0
  4  2  1  0
  4  5  1  6
  6  7  2  0
  6  4  1  0
  9 10  2  0
  9  8  1  0
 11  9  1  0
 12 11  1  0
 13 12  1  0
 13 14  1  0
 15 14  1  6
 15 16  1  0
 16  6  1  0
 17 19  1  0
 17 15  1  0
 18 17  2  0
 20 19  1  0
 20 21  1  1
 21 22  1  0
 22 30  1  0
 23 22  2  0
 23 24  1  0
 24 25  1  0
 25 26  1  0
 26 27  2  0
 28 27  1  0
 29 28  2  0
 30 25  2  0
 30 29  1  0
 31 20  1  0
 32 31  2  0
 33 31  1  0
M  END
$$$$
