VRW.pdb
     RDKit          3D

 33 34  0  0  1  0  0  0  0  0999 V2000
   26.0871  -18.8840  -17.7160 C   0  0  0  0  0  0  0  0  0  0  0  0
   24.6170  -18.7395  -17.3252 C   0  0  2  0  0  0  0  0  0  0  0  0
   24.1422  -17.3270  -17.4473 C   0  0  0  0  0  0  0  0  0  0  0  0
   24.4636  -19.3449  -15.9651 C   0  0  2  0  0  0  0  0  0  0  0  0
   25.0101  -18.3968  -15.0074 N   0  0  0  0  0  0  0  0  0  0  0  0
   25.0621  -20.6885  -15.8220 C   0  0  0  0  0  0  0  0  0  0  0  0
   24.5579  -21.6527  -16.4502 O   0  0  0  0  0  0  0  0  0  0  0  0
   31.2362  -24.5193  -15.7720 N   0  0  0  0  0  0  0  0  0  0  0  0
   30.4966  -24.6009  -16.9982 C   0  0  0  0  0  0  0  0  0  0  0  0
   30.4460  -25.6958  -17.6726 N   0  0  0  0  0  0  0  0  0  0  0  0
   29.7848  -23.4773  -17.5211 N   0  0  0  0  0  0  0  0  0  0  0  0
   29.7523  -22.1972  -16.8900 C   0  0  0  0  0  0  0  0  0  0  0  0
   28.3532  -21.7689  -16.4535 C   0  0  0  0  0  0  0  0  0  0  0  0
   27.9784  -22.6526  -15.3017 C   0  0  0  0  0  0  0  0  0  0  0  0
   26.6510  -22.2971  -14.6675 C   0  0  2  0  0  0  0  0  0  0  0  0
   26.1881  -20.9700  -15.0079 N   0  0  0  0  0  0  0  0  0  0  0  0
   26.8103  -22.3640  -13.2036 C   0  0  0  0  0  0  0  0  0  0  0  0
   27.9495  -22.4915  -12.7151 O   0  0  0  0  0  0  0  0  0  0  0  0
   29.9034  -25.7097  -18.5624 N   0  0  0  0  0  0  0  0  0  0  0  0
   25.6683  -22.2830  -12.3737 C   0  0  1  0  0  0  0  0  0  0  0  0
   25.7191  -21.7821  -10.9883 C   0  0  0  0  0  0  0  0  0  0  0  0
   26.6444  -20.6129  -10.8950 C   0  0  0  0  0  0  0  0  0  0  0  0
   26.7698  -20.1284   -9.5088 C   0  0  0  0  0  0  0  0  0  0  0  0
   25.7505  -19.4035   -8.8897 N   0  0  0  0  0  0  0  0  0  0  0  0
   26.1105  -19.1409   -7.6237 C   0  0  0  0  0  0  0  0  0  0  0  0
   27.3237  -19.6767   -7.4277 C   0  0  0  0  0  0  0  0  0  0  0  0
   28.1676  -19.7067   -6.3437 C   0  0  0  0  0  0  0  0  0  0  0  0
   29.4020  -20.3151   -6.3645 C   0  0  0  0  0  0  0  0  0  0  0  0
   29.8117  -20.9247   -7.5332 C   0  0  0  0  0  0  0  0  0  0  0  0
   28.9949  -20.9154   -8.6374 C   0  0  0  0  0  0  0  0  0  0  0  0
   27.7612  -20.3019   -8.5956 C   0  0  0  0  0  0  0  0  0  0  0  0
   24.3828  -21.5069  -10.5023 O   0  0  0  0  0  0  0  0  0  0  0  0
   24.0016  -21.7950   -9.3136 O   0  0  0  0  0  0  0  0  0  0  0  0
  2  1  1  1
  2  3  1  0
  4  2  1  0
  4  5  1  1
  6  7  2  0
  6  4  1  0
  9 10  2  0
  9  8  1  0
 11  9  1  0
 12 11  1  0
 13 12  1  0
 13 14  1  0
 15 14  1  6
 15 16  1  0
 16  6  1  0
 17 19  1  0
 17 15  1  0
 18 17  2  0
 20 19  1  0
 20 21  1  1
 21 22  1  0
 22 30  1  0
 23 22  2  0
 23 24  1  0
 24 25  1  0
 25 26  1  0
 26 27  2  0
 28 27  1  0
 29 28  2  0
 30 25  2  0
 30 29  1  0
 31 20  1  0
 32 31  2  0
 33 31  1  0
M  END
$$$$
