YAQ.pdb
     RDKit          3D

 27 27  0  0  1  0  0  0  0  0999 V2000
    5.0636  -10.1610   27.5099 O   0  0  0  0  0  0  0  0  0  0  0  0
    5.7553  -11.2410   26.9480 C   0  0  0  0  0  0  0  0  0  0  0  0
    6.5434  -11.0778   25.8375 C   0  0  0  0  0  0  0  0  0  0  0  0
    7.1887  -12.1865   25.3476 C   0  0  0  0  0  0  0  0  0  0  0  0
    7.0701  -13.4406   25.9300 C   0  0  0  0  0  0  0  0  0  0  0  0
    7.8252  -14.5729   25.3029 C   0  0  0  0  0  0  0  0  0  0  0  0
    6.8947  -15.3784   24.4321 C   0  0  2  0  0  0  0  0  0  0  0  0
    6.1927  -16.3909   25.2042 N   0  0  0  0  0  0  0  0  0  0  0  0
    7.6046  -16.0467   23.3229 C   0  0  0  0  0  0  0  0  0  0  0  0
    8.1906  -17.1663   23.4880 O   0  0  0  0  0  0  0  0  0  0  0  0
    6.2795  -13.5788   27.0354 C   0  0  0  0  0  0  0  0  0  0  0  0
    5.6177  -12.4633   27.5449 C   0  0  0  0  0  0  0  0  0  0  0  0
    8.4412  -15.2689   19.7476 C   0  0  0  0  0  0  0  0  0  0  0  0
    8.4236  -16.1292   21.0031 C   0  0  2  0  0  0  0  0  0  0  0  0
    7.6573  -15.4622   22.0219 N   0  0  0  0  0  0  0  0  0  0  0  0
    9.8634  -16.2294   21.4401 C   0  0  0  0  0  0  0  0  0  0  0  0
   10.4608  -15.2287   21.8990 O   0  0  0  0  0  0  0  0  0  0  0  0
   11.4933  -20.8831   25.2143 N   0  0  0  0  0  0  0  0  0  0  0  0
   12.4855  -19.8745   25.1872 C   0  0  0  0  0  0  0  0  0  0  0  0
   13.1923  -19.7397   26.2441 O   0  0  0  0  0  0  0  0  0  0  0  0
   12.7436  -19.0040   24.0414 C   0  0  0  0  0  0  0  0  0  0  0  0
   11.5907  -18.5766   23.2317 C   0  0  0  0  0  0  0  0  0  0  0  0
   11.8123  -17.7026   22.0557 C   0  0  2  0  0  0  0  0  0  0  0  0
   10.5627  -17.4622   21.3372 N   0  0  0  0  0  0  0  0  0  0  0  0
   12.9735  -17.8968   21.2139 C   0  0  0  0  0  0  0  0  0  0  0  0
   12.9928  -18.4855   20.1123 O   0  0  0  0  0  0  0  0  0  0  0  0
   14.2224  -17.3967   21.6310 O   0  0  0  0  0  0  0  0  0  0  0  0
  2  1  1  0
  3  2  2  0
  4  3  1  0
  5 11  1  0
  5  4  2  0
  6  5  1  0
  7  8  1  1
  7  9  1  0
  7  6  1  0
  9 10  2  0
 11 12  2  0
 12  2  1  0
 14 13  1  6
 14 16  1  0
 15 14  1  0
 15  9  1  0
 16 24  1  0
 16 17  2  0
 18 19  1  0
 19 21  1  0
 20 19  2  0
 22 21  1  0
 23 22  1  6
 24 23  1  0
 25 23  1  0
 25 27  1  0
 26 25  2  0
M  END
$$$$
