YAQ.pdb
     RDKit          3D

 27 27  0  0  1  0  0  0  0  0999 V2000
    3.0093  -21.5759   15.6004 O   0  0  0  0  0  0  0  0  0  0  0  0
    3.8898  -20.8267   16.3903 C   0  0  0  0  0  0  0  0  0  0  0  0
    5.0519  -21.3740   16.8709 C   0  0  0  0  0  0  0  0  0  0  0  0
    5.8618  -20.5732   17.6380 C   0  0  0  0  0  0  0  0  0  0  0  0
    5.5466  -19.2548   17.9352 C   0  0  0  0  0  0  0  0  0  0  0  0
    6.5124  -18.4826   18.7818 C   0  0  0  0  0  0  0  0  0  0  0  0
    7.0123  -17.2862   18.0126 C   0  0  2  0  0  0  0  0  0  0  0  0
    7.7558  -17.6911   16.8305 N   0  0  0  0  0  0  0  0  0  0  0  0
    7.8785  -16.4156   18.8328 C   0  0  0  0  0  0  0  0  0  0  0  0
    9.1101  -16.6871   19.0166 O   0  0  0  0  0  0  0  0  0  0  0  0
    4.3838  -18.7313   17.4453 C   0  0  0  0  0  0  0  0  0  0  0  0
    3.5509  -19.5310   16.6652 C   0  0  0  0  0  0  0  0  0  0  0  0
    7.5572  -13.1637   20.6738 C   0  0  0  0  0  0  0  0  0  0  0  0
    8.2438  -14.4678   20.2928 C   0  0  2  0  0  0  0  0  0  0  0  0
    7.3665  -15.2341   19.4483 N   0  0  0  0  0  0  0  0  0  0  0  0
    8.4597  -15.2012   21.5925 C   0  0  0  0  0  0  0  0  0  0  0  0
    7.6062  -16.0155   22.0138 O   0  0  0  0  0  0  0  0  0  0  0  0
   11.0419  -19.4267   20.1681 N   0  0  0  0  0  0  0  0  0  0  0  0
   11.4372  -19.4963   21.5250 C   0  0  0  0  0  0  0  0  0  0  0  0
   12.0499  -20.5583   21.8879 O   0  0  0  0  0  0  0  0  0  0  0  0
   11.1939  -18.4425   22.5086 C   0  0  0  0  0  0  0  0  0  0  0  0
   10.5363  -17.2098   22.0442 C   0  0  0  0  0  0  0  0  0  0  0  0
   10.3683  -16.0769   22.9846 C   0  0  2  0  0  0  0  0  0  0  0  0
    9.6361  -14.9785   22.3579 N   0  0  0  0  0  0  0  0  0  0  0  0
   11.4647  -15.6719   23.8382 C   0  0  0  0  0  0  0  0  0  0  0  0
   12.3700  -14.8649   23.5391 O   0  0  0  0  0  0  0  0  0  0  0  0
   11.5674  -16.2104   25.1357 O   0  0  0  0  0  0  0  0  0  0  0  0
  2  1  1  0
  3  2  2  0
  4  3  1  0
  5 11  1  0
  5  4  2  0
  6  5  1  0
  7  8  1  6
  7  9  1  0
  7  6  1  0
  9 10  2  0
 11 12  2  0
 12  2  1  0
 14 13  1  1
 14 16  1  0
 15 14  1  0
 15  9  1  0
 16 24  1  0
 16 17  2  0
 18 19  1  0
 19 21  1  0
 20 19  2  0
 22 21  1  0
 23 22  1  6
 24 23  1  0
 25 23  1  0
 25 27  1  0
 26 25  2  0
M  END
$$$$
