YAQ.pdb
     RDKit          3D

 27 27  0  0  1  0  0  0  0  0999 V2000
   11.3571  -15.2300   29.9244 O   0  0  0  0  0  0  0  0  0  0  0  0
   10.4645  -15.1104   28.8523 C   0  0  0  0  0  0  0  0  0  0  0  0
    9.8900  -16.2171   28.2812 C   0  0  0  0  0  0  0  0  0  0  0  0
    9.0251  -16.0151   27.2338 C   0  0  0  0  0  0  0  0  0  0  0  0
    8.7212  -14.7519   26.7463 C   0  0  0  0  0  0  0  0  0  0  0  0
    7.7612  -14.6615   25.5991 C   0  0  0  0  0  0  0  0  0  0  0  0
    8.4244  -15.1726   24.3454 C   0  0  2  0  0  0  0  0  0  0  0  0
    9.7543  -14.6077   24.1833 N   0  0  0  0  0  0  0  0  0  0  0  0
    7.6379  -14.8694   23.1328 C   0  0  0  0  0  0  0  0  0  0  0  0
    6.4227  -15.2367   23.0200 O   0  0  0  0  0  0  0  0  0  0  0  0
    9.3055  -13.6645   27.3312 C   0  0  0  0  0  0  0  0  0  0  0  0
   10.1858  -13.8525   28.3950 C   0  0  0  0  0  0  0  0  0  0  0  0
    7.5560  -12.5785   20.3313 C   0  0  0  0  0  0  0  0  0  0  0  0
    7.4419  -14.0106   20.8343 C   0  0  2  0  0  0  0  0  0  0  0  0
    8.2114  -14.1496   22.0420 N   0  0  0  0  0  0  0  0  0  0  0  0
    8.0474  -14.8655   19.7498 C   0  0  0  0  0  0  0  0  0  0  0  0
    7.3910  -15.1491   18.7214 O   0  0  0  0  0  0  0  0  0  0  0  0
    8.6368  -15.4580   14.7650 N   0  0  0  0  0  0  0  0  0  0  0  0
    7.9995  -14.8540   15.8747 C   0  0  0  0  0  0  0  0  0  0  0  0
    6.9673  -14.1425   15.6233 O   0  0  0  0  0  0  0  0  0  0  0  0
    8.4434  -15.0015   17.2598 C   0  0  0  0  0  0  0  0  0  0  0  0
    9.6686  -15.7790   17.5080 C   0  0  0  0  0  0  0  0  0  0  0  0
    9.9659  -16.2486   18.8816 C   0  0  2  0  0  0  0  0  0  0  0  0
    9.3728  -15.3614   19.8798 N   0  0  0  0  0  0  0  0  0  0  0  0
   11.2855  -16.7435   19.2112 C   0  0  0  0  0  0  0  0  0  0  0  0
   11.9704  -16.4085   20.2007 O   0  0  0  0  0  0  0  0  0  0  0  0
   11.9000  -17.6906   18.3690 O   0  0  0  0  0  0  0  0  0  0  0  0
  2  1  1  0
  3  2  2  0
  4  3  1  0
  5 11  1  0
  5  4  2  0
  6  5  1  0
  7  8  1  6
  7  9  1  0
  7  6  1  0
  9 10  2  0
 11 12  2  0
 12  2  1  0
 14 13  1  6
 14 16  1  0
 15 14  1  0
 15  9  1  0
 16 24  1  0
 16 17  2  0
 18 19  1  0
 19 21  1  0
 20 19  2  0
 22 21  1  0
 23 22  1  6
 24 23  1  0
 25 23  1  0
 25 27  1  0
 26 25  2  0
M  END
$$$$
