YAQ.pdb
     RDKit          3D

 27 27  0  0  1  0  0  0  0  0999 V2000
    7.5888  -12.5696   17.3984 O   0  0  0  0  0  0  0  0  0  0  0  0
    7.8160  -13.1236   18.6641 C   0  0  0  0  0  0  0  0  0  0  0  0
    9.0677  -13.5366   19.0431 C   0  0  0  0  0  0  0  0  0  0  0  0
    9.2074  -14.0691   20.3011 C   0  0  0  0  0  0  0  0  0  0  0  0
    8.1429  -14.1991   21.1819 C   0  0  0  0  0  0  0  0  0  0  0  0
    8.4228  -14.7949   22.5281 C   0  0  0  0  0  0  0  0  0  0  0  0
    8.5156  -16.2947   22.4062 C   0  0  2  0  0  0  0  0  0  0  0  0
    7.2234  -16.8798   22.0868 N   0  0  0  0  0  0  0  0  0  0  0  0
    9.0209  -16.9264   23.6417 C   0  0  0  0  0  0  0  0  0  0  0  0
    8.2846  -17.0481   24.6748 O   0  0  0  0  0  0  0  0  0  0  0  0
    6.9054  -13.7807   20.7823 C   0  0  0  0  0  0  0  0  0  0  0  0
    6.7469  -13.2382   19.5086 C   0  0  0  0  0  0  0  0  0  0  0  0
   12.1471  -18.6771   24.7473 C   0  0  0  0  0  0  0  0  0  0  0  0
   10.7876  -18.0252   24.9572 C   0  0  2  0  0  0  0  0  0  0  0  0
   10.3549  -17.4274   23.7221 N   0  0  0  0  0  0  0  0  0  0  0  0
   11.0151  -16.9469   25.9864 C   0  0  0  0  0  0  0  0  0  0  0  0
   11.3064  -15.7809   25.6335 O   0  0  0  0  0  0  0  0  0  0  0  0
    7.4432  -13.5354   26.7696 N   0  0  0  0  0  0  0  0  0  0  0  0
    8.7705  -13.0885   26.9716 C   0  0  0  0  0  0  0  0  0  0  0  0
    9.0088  -11.8627   26.6965 O   0  0  0  0  0  0  0  0  0  0  0  0
    9.8558  -13.9307   27.4716 C   0  0  0  0  0  0  0  0  0  0  0  0
    9.5246  -15.3065   27.8776 C   0  0  0  0  0  0  0  0  0  0  0  0
   10.6029  -16.2024   28.3577 C   0  0  2  0  0  0  0  0  0  0  0  0
   10.9018  -17.2393   27.3724 N   0  0  0  0  0  0  0  0  0  0  0  0
   10.6206  -16.6454   29.7355 C   0  0  0  0  0  0  0  0  0  0  0  0
   10.4335  -17.8143   30.1343 O   0  0  0  0  0  0  0  0  0  0  0  0
   10.8645  -15.7104   30.7603 O   0  0  0  0  0  0  0  0  0  0  0  0
  2  1  1  0
  3  2  2  0
  4  3  1  0
  5 11  1  0
  5  4  2  0
  6  5  1  0
  7  8  1  1
  7  9  1  0
  7  6  1  0
  9 10  2  0
 11 12  2  0
 12  2  1  0
 14 13  1  6
 14 16  1  0
 15 14  1  0
 15  9  1  0
 16 24  1  0
 16 17  2  0
 18 19  1  0
 19 21  1  0
 20 19  2  0
 22 21  1  0
 23 22  1  6
 24 23  1  0
 25 23  1  0
 25 27  1  0
 26 25  2  0
M  END
$$$$
