YAQ.pdb
     RDKit          3D

 27 27  0  0  1  0  0  0  0  0999 V2000
    4.8829  -21.7679   14.5911 O   0  0  0  0  0  0  0  0  0  0  0  0
    5.5567  -21.0722   15.6022 C   0  0  0  0  0  0  0  0  0  0  0  0
    6.8155  -21.4433   16.0005 C   0  0  0  0  0  0  0  0  0  0  0  0
    7.4084  -20.7096   16.9985 C   0  0  0  0  0  0  0  0  0  0  0  0
    6.7856  -19.6268   17.6031 C   0  0  0  0  0  0  0  0  0  0  0  0
    7.5367  -18.9050   18.6804 C   0  0  0  0  0  0  0  0  0  0  0  0
    7.6899  -17.4536   18.3023 C   0  0  2  0  0  0  0  0  0  0  0  0
    8.4663  -17.3047   17.0819 N   0  0  0  0  0  0  0  0  0  0  0  0
    8.3393  -16.6633   19.3675 C   0  0  0  0  0  0  0  0  0  0  0  0
    9.5694  -16.8251   19.6586 O   0  0  0  0  0  0  0  0  0  0  0  0
    5.5319  -19.2757   17.1896 C   0  0  0  0  0  0  0  0  0  0  0  0
    4.9163  -20.0103   16.1781 C   0  0  0  0  0  0  0  0  0  0  0  0
    7.3614  -13.9111   21.7260 C   0  0  0  0  0  0  0  0  0  0  0  0
    8.2988  -14.9594   21.1434 C   0  0  2  0  0  0  0  0  0  0  0  0
    7.6110  -15.6853   20.1090 N   0  0  0  0  0  0  0  0  0  0  0  0
    8.6178  -15.8906   22.2857 C   0  0  0  0  0  0  0  0  0  0  0  0
    8.0441  -16.9999   22.3822 O   0  0  0  0  0  0  0  0  0  0  0  0
   12.3810  -18.8330   20.4935 N   0  0  0  0  0  0  0  0  0  0  0  0
   12.7330  -19.0364   21.8488 C   0  0  0  0  0  0  0  0  0  0  0  0
   13.6248  -19.9229   22.0807 O   0  0  0  0  0  0  0  0  0  0  0  0
   12.1505  -18.3010   22.9701 C   0  0  0  0  0  0  0  0  0  0  0  0
   11.1749  -17.2422   22.6627 C   0  0  0  0  0  0  0  0  0  0  0  0
   10.5687  -16.4681   23.7715 C   0  0  2  0  0  0  0  0  0  0  0  0
    9.5748  -15.5219   23.2693 N   0  0  0  0  0  0  0  0  0  0  0  0
   11.3974  -15.9697   24.8484 C   0  0  0  0  0  0  0  0  0  0  0  0
   11.9466  -14.8488   24.8950 O   0  0  0  0  0  0  0  0  0  0  0  0
   11.6401  -16.7863   25.9701 O   0  0  0  0  0  0  0  0  0  0  0  0
  2  1  1  0
  3  2  2  0
  4  3  1  0
  5 11  1  0
  5  4  2  0
  6  5  1  0
  7  8  1  6
  7  9  1  0
  7  6  1  0
  9 10  2  0
 11 12  2  0
 12  2  1  0
 14 13  1  1
 14 16  1  0
 15 14  1  0
 15  9  1  0
 16 24  1  0
 16 17  2  0
 18 19  1  0
 19 21  1  0
 20 19  2  0
 22 21  1  0
 23 22  1  6
 24 23  1  0
 25 23  1  0
 25 27  1  0
 26 25  2  0
M  END
$$$$
