YAQ.pdb
     RDKit          3D

 27 27  0  0  1  0  0  0  0  0999 V2000
    8.2213  -11.9097   17.4895 O   0  0  0  0  0  0  0  0  0  0  0  0
    8.0700  -12.6005   18.6979 C   0  0  0  0  0  0  0  0  0  0  0  0
    9.1392  -13.2060   19.3073 C   0  0  0  0  0  0  0  0  0  0  0  0
    8.9078  -13.8635   20.4904 C   0  0  0  0  0  0  0  0  0  0  0  0
    7.6515  -13.9323   21.0758 C   0  0  0  0  0  0  0  0  0  0  0  0
    7.5268  -14.6786   22.3693 C   0  0  0  0  0  0  0  0  0  0  0  0
    8.5904  -15.7446   22.4408 C   0  0  2  0  0  0  0  0  0  0  0  0
    8.5365  -16.6231   21.2835 N   0  0  0  0  0  0  0  0  0  0  0  0
    8.4737  -16.5708   23.6593 C   0  0  0  0  0  0  0  0  0  0  0  0
    8.4052  -16.0417   24.8167 O   0  0  0  0  0  0  0  0  0  0  0  0
    6.6016  -13.3215   20.4506 C   0  0  0  0  0  0  0  0  0  0  0  0
    6.8198  -12.6502   19.2491 C   0  0  0  0  0  0  0  0  0  0  0  0
    8.5661  -20.2346   24.4735 C   0  0  0  0  0  0  0  0  0  0  0  0
    8.5486  -18.7488   24.8037 C   0  0  2  0  0  0  0  0  0  0  0  0
    8.4305  -17.9953   23.5837 N   0  0  0  0  0  0  0  0  0  0  0  0
    9.8840  -18.4651   25.4439 C   0  0  0  0  0  0  0  0  0  0  0  0
   10.7506  -17.7931   24.8386 O   0  0  0  0  0  0  0  0  0  0  0  0
    9.2326  -14.0117   27.8989 N   0  0  0  0  0  0  0  0  0  0  0  0
   10.1402  -14.5042   28.8663 C   0  0  0  0  0  0  0  0  0  0  0  0
   10.4011  -13.7311   29.8508 O   0  0  0  0  0  0  0  0  0  0  0  0
   10.7753  -15.8195   28.8052 C   0  0  0  0  0  0  0  0  0  0  0  0
   10.2782  -16.7749   27.8015 C   0  0  0  0  0  0  0  0  0  0  0  0
   10.8597  -18.1367   27.7433 C   0  0  2  0  0  0  0  0  0  0  0  0
   10.1777  -18.9567   26.7444 N   0  0  0  0  0  0  0  0  0  0  0  0
   11.2133  -18.8291   28.9642 C   0  0  0  0  0  0  0  0  0  0  0  0
   12.3600  -18.9225   29.4507 O   0  0  0  0  0  0  0  0  0  0  0  0
   10.2082  -19.4761   29.7091 O   0  0  0  0  0  0  0  0  0  0  0  0
  2  1  1  0
  3  2  2  0
  4  3  1  0
  5 11  1  0
  5  4  2  0
  6  5  1  0
  7  8  1  6
  7  9  1  0
  7  6  1  0
  9 10  2  0
 11 12  2  0
 12  2  1  0
 14 13  1  6
 14 16  1  0
 15 14  1  0
 15  9  1  0
 16 24  1  0
 16 17  2  0
 18 19  1  0
 19 21  1  0
 20 19  2  0
 22 21  1  0
 23 22  1  1
 24 23  1  0
 25 23  1  0
 25 27  1  0
 26 25  2  0
M  END
$$$$
