YAQ.pdb
     RDKit          3D

 27 27  0  0  1  0  0  0  0  0999 V2000
    5.5291  -10.5678   27.0713 O   0  0  0  0  0  0  0  0  0  0  0  0
    6.2581  -11.6683   26.6043 C   0  0  0  0  0  0  0  0  0  0  0  0
    6.5348  -11.8207   25.2697 C   0  0  0  0  0  0  0  0  0  0  0  0
    7.2552  -12.9273   24.8924 C   0  0  0  0  0  0  0  0  0  0  0  0
    7.7022  -13.8757   25.8015 C   0  0  0  0  0  0  0  0  0  0  0  0
    8.4803  -15.0394   25.2665 C   0  0  0  0  0  0  0  0  0  0  0  0
    7.5527  -15.9677   24.5245 C   0  0  2  0  0  0  0  0  0  0  0  0
    6.5534  -16.5379   25.4137 N   0  0  0  0  0  0  0  0  0  0  0  0
    8.2766  -17.0738   23.8662 C   0  0  0  0  0  0  0  0  0  0  0  0
    8.4382  -18.1985   24.4433 O   0  0  0  0  0  0  0  0  0  0  0  0
    7.4146  -13.7026   27.1256 C   0  0  0  0  0  0  0  0  0  0  0  0
    6.6843  -12.5849   27.5248 C   0  0  0  0  0  0  0  0  0  0  0  0
   10.0756  -17.6247   20.6171 C   0  0  0  0  0  0  0  0  0  0  0  0
    9.6836  -17.9571   22.0499 C   0  0  2  0  0  0  0  0  0  0  0  0
    8.8201  -16.9231   22.5552 N   0  0  0  0  0  0  0  0  0  0  0  0
   10.9752  -17.9599   22.8280 C   0  0  0  0  0  0  0  0  0  0  0  0
   11.4152  -16.9027   23.3357 O   0  0  0  0  0  0  0  0  0  0  0  0
   12.7859  -19.3936   28.1622 N   0  0  0  0  0  0  0  0  0  0  0  0
   11.5642  -19.7982   27.5738 C   0  0  0  0  0  0  0  0  0  0  0  0
   10.7308  -20.3935   28.3393 O   0  0  0  0  0  0  0  0  0  0  0  0
   11.2100  -19.5721   26.1736 C   0  0  0  0  0  0  0  0  0  0  0  0
   12.1339  -18.7714   25.3534 C   0  0  0  0  0  0  0  0  0  0  0  0
   12.6635  -19.3389   24.0911 C   0  0  2  0  0  0  0  0  0  0  0  0
   11.7115  -19.1636   22.9963 N   0  0  0  0  0  0  0  0  0  0  0  0
   13.3576  -20.6090   24.0997 C   0  0  0  0  0  0  0  0  0  0  0  0
   13.0052  -21.6435   23.4947 O   0  0  0  0  0  0  0  0  0  0  0  0
   14.5444  -20.7444   24.8460 O   0  0  0  0  0  0  0  0  0  0  0  0
  2  1  1  0
  3  2  2  0
  4  3  1  0
  5 11  1  0
  5  4  2  0
  6  5  1  0
  7  8  1  1
  7  9  1  0
  7  6  1  0
  9 10  2  0
 11 12  2  0
 12  2  1  0
 14 13  1  6
 14 16  1  0
 15 14  1  0
 15  9  1  0
 16 24  1  0
 16 17  2  0
 18 19  1  0
 19 21  1  0
 20 19  2  0
 22 21  1  0
 23 22  1  1
 24 23  1  0
 25 23  1  0
 25 27  1  0
 26 25  2  0
M  END
$$$$
