YAQ.pdb
     RDKit          3D

 27 27  0  0  1  0  0  0  0  0999 V2000
   19.4787  -10.8593   16.2938 O   0  0  0  0  0  0  0  0  0  0  0  0
   18.5217  -11.7245   16.8379 C   0  0  0  0  0  0  0  0  0  0  0  0
   18.7627  -13.0702   16.9466 C   0  0  0  0  0  0  0  0  0  0  0  0
   17.7731  -13.8511   17.4913 C   0  0  0  0  0  0  0  0  0  0  0  0
   16.5624  -13.3306   17.9263 C   0  0  0  0  0  0  0  0  0  0  0  0
   15.5624  -14.2854   18.5042 C   0  0  0  0  0  0  0  0  0  0  0  0
   14.9822  -15.1356   17.4027 C   0  0  2  0  0  0  0  0  0  0  0  0
   14.0454  -14.3783   16.5885 N   0  0  0  0  0  0  0  0  0  0  0  0
   14.2872  -16.3297   17.9244 C   0  0  0  0  0  0  0  0  0  0  0  0
   13.1856  -16.2333   18.5580 O   0  0  0  0  0  0  0  0  0  0  0  0
   16.3451  -11.9871   17.8081 C   0  0  0  0  0  0  0  0  0  0  0  0
   17.3392  -11.1810   17.2571 C   0  0  0  0  0  0  0  0  0  0  0  0
   14.7105  -20.0488   17.7497 C   0  0  0  0  0  0  0  0  0  0  0  0
   14.1098  -18.7578   18.2876 C   0  0  2  0  0  0  0  0  0  0  0  0
   14.8246  -17.6381   17.7347 N   0  0  0  0  0  0  0  0  0  0  0  0
   14.3257  -18.8066   19.7792 C   0  0  0  0  0  0  0  0  0  0  0  0
   14.5379  -17.7555   20.4267 O   0  0  0  0  0  0  0  0  0  0  0  0
   11.5617  -17.8191   25.5563 N   0  0  0  0  0  0  0  0  0  0  0  0
   11.8065  -18.0187   24.1770 C   0  0  0  0  0  0  0  0  0  0  0  0
   11.6027  -17.0165   23.4095 O   0  0  0  0  0  0  0  0  0  0  0  0
   12.2743  -19.2767   23.5974 C   0  0  0  0  0  0  0  0  0  0  0  0
   12.8379  -19.2375   22.2379 C   0  0  0  0  0  0  0  0  0  0  0  0
   13.9720  -20.1276   21.8951 C   0  0  2  0  0  0  0  0  0  0  0  0
   14.2909  -20.0472   20.4713 N   0  0  0  0  0  0  0  0  0  0  0  0
   14.0520  -21.4556   22.4651 C   0  0  0  0  0  0  0  0  0  0  0  0
   13.7327  -22.5205   21.8957 O   0  0  0  0  0  0  0  0  0  0  0  0
   14.5252  -21.6163   23.7820 O   0  0  0  0  0  0  0  0  0  0  0  0
  2  1  1  0
  3  2  2  0
  4  3  1  0
  5 11  1  0
  5  4  2  0
  6  5  1  0
  7  8  1  1
  7  9  1  0
  7  6  1  0
  9 10  2  0
 11 12  2  0
 12  2  1  0
 14 13  1  6
 14 16  1  0
 15 14  1  0
 15  9  1  0
 16 24  1  0
 16 17  2  0
 18 19  1  0
 19 21  1  0
 20 19  2  0
 22 21  1  0
 23 22  1  6
 24 23  1  0
 25 23  1  0
 25 27  1  0
 26 25  2  0
M  END
$$$$
