YAQ.pdb
     RDKit          3D

 27 27  0  0  1  0  0  0  0  0999 V2000
    7.6287  -13.1332   15.4139 O   0  0  0  0  0  0  0  0  0  0  0  0
    7.7986  -13.5309   16.7456 C   0  0  0  0  0  0  0  0  0  0  0  0
    8.2784  -14.7772   17.0577 C   0  0  0  0  0  0  0  0  0  0  0  0
    8.4162  -15.0905   18.3876 C   0  0  0  0  0  0  0  0  0  0  0  0
    8.0917  -14.2028   19.4037 C   0  0  0  0  0  0  0  0  0  0  0  0
    8.2874  -14.6615   20.8169 C   0  0  0  0  0  0  0  0  0  0  0  0
    7.2556  -15.7074   21.1548 C   0  0  2  0  0  0  0  0  0  0  0  0
    5.9260  -15.1266   21.2492 N   0  0  0  0  0  0  0  0  0  0  0  0
    7.5541  -16.3980   22.4256 C   0  0  0  0  0  0  0  0  0  0  0  0
    7.4832  -15.7912   23.5441 O   0  0  0  0  0  0  0  0  0  0  0  0
    7.6158  -12.9669   19.0686 C   0  0  0  0  0  0  0  0  0  0  0  0
    7.4699  -12.6336   17.7234 C   0  0  0  0  0  0  0  0  0  0  0  0
    7.9661  -19.8169   23.7318 C   0  0  0  0  0  0  0  0  0  0  0  0
    8.3596  -18.3469   23.6952 C   0  0  2  0  0  0  0  0  0  0  0  0
    7.9311  -17.7743   22.4467 N   0  0  0  0  0  0  0  0  0  0  0  0
    9.8659  -18.3338   23.7649 C   0  0  0  0  0  0  0  0  0  0  0  0
   10.5505  -18.2024   22.7242 O   0  0  0  0  0  0  0  0  0  0  0  0
   15.6456  -17.2458   22.8261 N   0  0  0  0  0  0  0  0  0  0  0  0
   14.5539  -16.4436   23.2347 C   0  0  0  0  0  0  0  0  0  0  0  0
   14.2090  -15.5014   22.4422 O   0  0  0  0  0  0  0  0  0  0  0  0
   13.8136  -16.6336   24.4809 C   0  0  0  0  0  0  0  0  0  0  0  0
   12.4120  -17.0736   24.3855 C   0  0  0  0  0  0  0  0  0  0  0  0
   11.9704  -18.2650   25.1481 C   0  0  2  0  0  0  0  0  0  0  0  0
   10.5299  -18.4702   25.0138 N   0  0  0  0  0  0  0  0  0  0  0  0
   12.5036  -18.5214   26.4691 C   0  0  0  0  0  0  0  0  0  0  0  0
   11.8856  -18.3992   27.5477 O   0  0  0  0  0  0  0  0  0  0  0  0
   13.8389  -18.9481   26.6059 O   0  0  0  0  0  0  0  0  0  0  0  0
  2  1  1  0
  3  2  2  0
  4  3  1  0
  5 11  1  0
  5  4  2  0
  6  5  1  0
  7  8  1  1
  7  9  1  0
  7  6  1  0
  9 10  2  0
 11 12  2  0
 12  2  1  0
 14 13  1  6
 14 16  1  0
 15 14  1  0
 15  9  1  0
 16 24  1  0
 16 17  2  0
 18 19  1  0
 19 21  1  0
 20 19  2  0
 22 21  1  0
 23 22  1  1
 24 23  1  0
 25 23  1  0
 25 27  1  0
 26 25  2  0
M  END
$$$$
