YAQ.pdb
     RDKit          3D

 27 27  0  0  1  0  0  0  0  0999 V2000
    8.6375  -13.4772   16.4551 O   0  0  0  0  0  0  0  0  0  0  0  0
    8.4066  -13.8460   17.7860 C   0  0  0  0  0  0  0  0  0  0  0  0
    8.9690  -14.9791   18.3156 C   0  0  0  0  0  0  0  0  0  0  0  0
    8.6937  -15.2712   19.6289 C   0  0  0  0  0  0  0  0  0  0  0  0
    7.8810  -14.4712   20.4196 C   0  0  0  0  0  0  0  0  0  0  0  0
    7.6569  -14.8955   21.8392 C   0  0  0  0  0  0  0  0  0  0  0  0
    7.0406  -16.2712   21.8629 C   0  0  2  0  0  0  0  0  0  0  0  0
    5.7049  -16.2617   21.2886 N   0  0  0  0  0  0  0  0  0  0  0  0
    6.9565  -16.8233   23.2300 C   0  0  0  0  0  0  0  0  0  0  0  0
    6.1813  -16.3156   24.1050 O   0  0  0  0  0  0  0  0  0  0  0  0
    7.3320  -13.3474   19.8703 C   0  0  0  0  0  0  0  0  0  0  0  0
    7.6014  -13.0371   18.5388 C   0  0  0  0  0  0  0  0  0  0  0  0
    7.8072  -19.8247   25.1391 C   0  0  0  0  0  0  0  0  0  0  0  0
    7.7773  -18.3080   25.0135 C   0  0  2  0  0  0  0  0  0  0  0  0
    7.7404  -17.9502   23.6204 N   0  0  0  0  0  0  0  0  0  0  0  0
    9.0714  -17.8302   25.6224 C   0  0  0  0  0  0  0  0  0  0  0  0
   10.1697  -18.2679   25.2089 O   0  0  0  0  0  0  0  0  0  0  0  0
    8.8979  -12.8541   25.6812 N   0  0  0  0  0  0  0  0  0  0  0  0
    8.7800  -13.0310   27.0801 C   0  0  0  0  0  0  0  0  0  0  0  0
    7.9552  -12.2640   27.6856 O   0  0  0  0  0  0  0  0  0  0  0  0
    9.5276  -14.0233   27.8505 C   0  0  0  0  0  0  0  0  0  0  0  0
   10.4328  -14.9220   27.1154 C   0  0  0  0  0  0  0  0  0  0  0  0
   10.2975  -16.3879   27.2850 C   0  0  2  0  0  0  0  0  0  0  0  0
    9.0623  -16.8754   26.6749 N   0  0  0  0  0  0  0  0  0  0  0  0
   10.6426  -17.0089   28.5460 C   0  0  0  0  0  0  0  0  0  0  0  0
    9.9132  -17.7723   29.2135 O   0  0  0  0  0  0  0  0  0  0  0  0
   11.9056  -16.7599   29.1177 O   0  0  0  0  0  0  0  0  0  0  0  0
  2  1  1  0
  3  2  2  0
  4  3  1  0
  5 11  1  0
  5  4  2  0
  6  5  1  0
  7  8  1  1
  7  9  1  0
  7  6  1  0
  9 10  2  0
 11 12  2  0
 12  2  1  0
 14 13  1  6
 14 16  1  0
 15 14  1  0
 15  9  1  0
 16 24  1  0
 16 17  2  0
 18 19  1  0
 19 21  1  0
 20 19  2  0
 22 21  1  0
 23 22  1  1
 24 23  1  0
 25 23  1  0
 25 27  1  0
 26 25  2  0
M  END
$$$$
