MHI.pdb
     RDKit          3D

 27 27  0  0  1  0  0  0  0  0999 V2000
   31.9286  -22.1581  -10.4683 C   0  0  0  0  0  0  0  0  0  0  0  0
   32.4654  -22.5894  -12.1528 S   0  0  0  0  0  0  0  0  0  0  0  0
   31.1912  -22.1631  -13.3492 C   0  0  0  0  0  0  0  0  0  0  0  0
   30.1554  -21.2911  -12.6995 C   0  0  0  0  0  0  0  0  0  0  0  0
   29.0089  -21.1169  -13.6795 C   0  0  2  0  0  0  0  0  0  0  0  0
   29.4781  -20.3753  -14.8101 N   0  0  0  0  0  0  0  0  0  0  0  0
   27.8424  -20.4899  -13.0179 C   0  0  0  0  0  0  0  0  0  0  0  0
   27.9223  -19.2667  -12.7349 O   0  0  0  0  0  0  0  0  0  0  0  0
   26.6519  -21.1728  -12.6857 N   0  0  0  0  0  0  0  0  0  0  0  0
   25.6305  -20.5948  -11.8573 C   0  0  1  0  0  0  0  0  0  0  0  0
   24.2558  -20.7149  -12.4856 C   0  0  0  0  0  0  0  0  0  0  0  0
   24.0801  -19.9099  -13.6902 C   0  0  0  0  0  0  0  0  0  0  0  0
   24.9843  -19.0643  -14.2837 C   0  0  0  0  0  0  0  0  0  0  0  0
   24.4054  -18.5133  -15.3931 N   0  0  0  0  0  0  0  0  0  0  0  0
   23.1681  -19.0067  -15.4859 C   0  0  0  0  0  0  0  0  0  0  0  0
   22.9739  -19.8581  -14.4452 N   0  0  0  0  0  0  0  0  0  0  0  0
   25.7014  -21.1270  -10.4819 C   0  0  0  0  0  0  0  0  0  0  0  0
   25.8202  -22.3838  -10.2735 O   0  0  0  0  0  0  0  0  0  0  0  0
   28.4505  -18.5952   -6.6553 C   0  0  0  0  0  0  0  0  0  0  0  0
   27.7176  -19.5726   -7.5010 C   0  0  0  0  0  0  0  0  0  0  0  0
   26.3346  -19.9179   -7.1067 C   0  0  2  0  0  0  0  0  0  0  0  0
   26.1396  -20.1276   -5.6249 C   0  0  0  0  0  0  0  0  0  0  0  0
   25.5772  -20.8903   -7.9531 C   0  0  2  0  0  0  0  0  0  0  0  0
   25.6487  -20.3277   -9.3222 N   0  0  0  0  0  0  0  0  0  0  0  0
   24.1451  -20.9354   -7.6265 C   0  0  0  0  0  0  0  0  0  0  0  0
   23.5739  -21.7770   -6.6626 O   0  0  0  0  0  0  0  0  0  0  0  0
   23.2810  -20.1930   -8.2145 O   0  0  0  0  0  0  0  0  0  0  0  0
  2  1  1  0
  3  2  1  0
  4  3  1  0
  4  5  1  0
  5  6  1  6
  7  5  1  0
  7  8  2  0
  9  7  1  0
 10  9  1  0
 10 11  1  6
 12 11  1  0
 12 13  2  0
 14 13  1  0
 15 16  2  0
 15 14  1  0
 16 12  1  0
 17 10  1  0
 18 17  2  0
 20 19  1  0
 21 20  1  0
 21 22  1  1
 23 21  1  0
 23 24  1  6
 24 17  1  0
 25 23  1  0
 26 25  1  0
 27 25  2  0
M  END
$$$$
