MHI.pdb
     RDKit          3D

 27 27  0  0  1  0  0  0  0  0999 V2000
   19.8793  -16.5748  -15.7289 C   0  0  0  0  0  0  0  0  0  0  0  0
   20.6296  -16.8881  -17.3570 S   0  0  0  0  0  0  0  0  0  0  0  0
   20.7879  -15.3544  -18.2840 C   0  0  0  0  0  0  0  0  0  0  0  0
   21.4775  -14.3202  -17.4413 C   0  0  0  0  0  0  0  0  0  0  0  0
   21.4485  -13.0044  -18.1985 C   0  0  2  0  0  0  0  0  0  0  0  0
   22.2110  -13.1482  -19.4010 N   0  0  0  0  0  0  0  0  0  0  0  0
   21.9210  -11.8939  -17.3411 C   0  0  0  0  0  0  0  0  0  0  0  0
   21.3170  -11.7005  -16.2546 O   0  0  0  0  0  0  0  0  0  0  0  0
   23.0004  -11.0422  -17.6625 N   0  0  0  0  0  0  0  0  0  0  0  0
   23.4326   -9.9774  -16.8006 C   0  0  1  0  0  0  0  0  0  0  0  0
   24.9386   -9.8024  -16.8271 C   0  0  0  0  0  0  0  0  0  0  0  0
   25.6791  -10.9426  -16.2964 C   0  0  0  0  0  0  0  0  0  0  0  0
   25.1791  -12.0816  -15.7154 C   0  0  0  0  0  0  0  0  0  0  0  0
   26.2252  -12.8883  -15.3626 N   0  0  0  0  0  0  0  0  0  0  0  0
   27.3504  -12.2629  -15.7174 C   0  0  0  0  0  0  0  0  0  0  0  0
   27.0126  -11.0765  -16.2865 N   0  0  0  0  0  0  0  0  0  0  0  0
   22.6871   -8.7343  -17.0816 C   0  0  0  0  0  0  0  0  0  0  0  0
   22.8671   -8.0986  -18.1773 O   0  0  0  0  0  0  0  0  0  0  0  0
   17.9052   -8.6379  -18.0899 C   0  0  0  0  0  0  0  0  0  0  0  0
   19.2904   -8.1219  -17.9401 C   0  0  0  0  0  0  0  0  0  0  0  0
   19.6020   -7.3393  -16.7244 C   0  0  2  0  0  0  0  0  0  0  0  0
   18.5857   -6.2762  -16.3861 C   0  0  0  0  0  0  0  0  0  0  0  0
   21.0161   -6.9075  -16.5014 C   0  0  2  0  0  0  0  0  0  0  0  0
   21.7463   -8.1618  -16.2020 N   0  0  0  0  0  0  0  0  0  0  0  0
   21.1744   -6.0711  -15.3036 C   0  0  0  0  0  0  0  0  0  0  0  0
   21.3663   -4.6831  -15.3207 O   0  0  0  0  0  0  0  0  0  0  0  0
   21.1532   -6.5564  -14.1171 O   0  0  0  0  0  0  0  0  0  0  0  0
  2  1  1  0
  3  2  1  0
  4  3  1  0
  4  5  1  0
  5  6  1  6
  7  5  1  0
  7  8  2  0
  9  7  1  0
 10  9  1  0
 10 11  1  6
 12 11  1  0
 12 13  2  0
 14 13  1  0
 15 16  2  0
 15 14  1  0
 16 12  1  0
 17 10  1  0
 18 17  2  0
 20 19  1  0
 21 20  1  0
 21 22  1  6
 23 21  1  0
 23 24  1  1
 24 17  1  0
 25 23  1  0
 26 25  1  0
 27 25  2  0
M  END
$$$$
