MHI.pdb
     RDKit          3D

 27 27  0  0  1  0  0  0  0  0999 V2000
   20.0491  -16.6634  -14.7297 C   0  0  0  0  0  0  0  0  0  0  0  0
   19.0599  -17.1527  -16.1767 S   0  0  0  0  0  0  0  0  0  0  0  0
   18.7648  -15.7368  -17.2467 C   0  0  0  0  0  0  0  0  0  0  0  0
   19.0688  -14.4671  -16.5047 C   0  0  0  0  0  0  0  0  0  0  0  0
   18.7844  -13.3017  -17.4355 C   0  0  2  0  0  0  0  0  0  0  0  0
   19.0741  -13.7034  -18.7782 N   0  0  0  0  0  0  0  0  0  0  0  0
   19.5360  -12.0976  -17.0151 C   0  0  0  0  0  0  0  0  0  0  0  0
   19.2613  -11.6035  -15.8911 O   0  0  0  0  0  0  0  0  0  0  0  0
   20.5362  -11.4710  -17.7903 N   0  0  0  0  0  0  0  0  0  0  0  0
   21.2161  -10.2794  -17.3643 C   0  0  1  0  0  0  0  0  0  0  0  0
   22.5089  -10.0614  -18.1260 C   0  0  0  0  0  0  0  0  0  0  0  0
   23.2405   -8.8638  -17.7252 C   0  0  0  0  0  0  0  0  0  0  0  0
   22.9078   -7.9532  -16.7531 C   0  0  0  0  0  0  0  0  0  0  0  0
   23.8739   -6.9866  -16.7099 N   0  0  0  0  0  0  0  0  0  0  0  0
   24.7866   -7.2911  -17.6356 C   0  0  0  0  0  0  0  0  0  0  0  0
   24.3964   -8.4369  -18.2526 N   0  0  0  0  0  0  0  0  0  0  0  0
   20.3090   -9.1147  -17.3921 C   0  0  0  0  0  0  0  0  0  0  0  0
   19.6511   -8.8246  -18.4504 O   0  0  0  0  0  0  0  0  0  0  0  0
   15.7425   -8.3969  -15.8618 C   0  0  0  0  0  0  0  0  0  0  0  0
   17.0157   -8.0409  -16.5399 C   0  0  0  0  0  0  0  0  0  0  0  0
   18.0177   -7.2818  -15.7607 C   0  0  2  0  0  0  0  0  0  0  0  0
   17.4535   -6.1237  -14.9745 C   0  0  0  0  0  0  0  0  0  0  0  0
   19.3369   -6.9851  -16.3991 C   0  0  2  0  0  0  0  0  0  0  0  0
   20.0948   -8.2544  -16.2964 N   0  0  0  0  0  0  0  0  0  0  0  0
   20.1258   -6.0002  -15.6461 C   0  0  0  0  0  0  0  0  0  0  0  0
   20.2403   -4.6450  -15.9839 O   0  0  0  0  0  0  0  0  0  0  0  0
   20.7925   -6.3099  -14.5958 O   0  0  0  0  0  0  0  0  0  0  0  0
  2  1  1  0
  3  2  1  0
  4  3  1  0
  4  5  1  0
  5  6  1  6
  7  5  1  0
  7  8  2  0
  9  7  1  0
 10  9  1  0
 10 11  1  6
 12 11  1  0
 12 13  2  0
 14 13  1  0
 15 16  2  0
 15 14  1  0
 16 12  1  0
 17 10  1  0
 18 17  2  0
 20 19  1  0
 21 20  1  0
 21 22  1  6
 23 21  1  0
 23 24  1  1
 24 17  1  0
 25 23  1  0
 26 25  1  0
 27 25  2  0
M  END
$$$$
