MHI.pdb
     RDKit          3D

 27 27  0  0  1  0  0  0  0  0999 V2000
   31.7530  -22.4009   -9.7764 C   0  0  0  0  0  0  0  0  0  0  0  0
   32.8605  -22.7057  -11.1880 S   0  0  0  0  0  0  0  0  0  0  0  0
   32.1701  -22.0043  -12.6940 C   0  0  0  0  0  0  0  0  0  0  0  0
   30.8342  -21.3846  -12.3999 C   0  0  0  0  0  0  0  0  0  0  0  0
   30.2118  -20.9660  -13.7201 C   0  0  2  0  0  0  0  0  0  0  0  0
   31.0644  -20.0020  -14.3461 N   0  0  0  0  0  0  0  0  0  0  0  0
   28.8303  -20.4740  -13.5174 C   0  0  0  0  0  0  0  0  0  0  0  0
   28.6877  -19.2911  -13.1132 O   0  0  0  0  0  0  0  0  0  0  0  0
   27.6684  -21.2427  -13.7474 N   0  0  0  0  0  0  0  0  0  0  0  0
   26.3552  -20.7957  -13.3741 C   0  0  1  0  0  0  0  0  0  0  0  0
   25.3272  -21.0976  -14.4471 C   0  0  0  0  0  0  0  0  0  0  0  0
   23.9676  -20.6990  -14.0971 C   0  0  0  0  0  0  0  0  0  0  0  0
   23.5417  -20.0365  -12.9725 C   0  0  0  0  0  0  0  0  0  0  0  0
   22.1876  -19.8650  -13.0521 N   0  0  0  0  0  0  0  0  0  0  0  0
   21.7820  -20.4095  -14.2018 C   0  0  0  0  0  0  0  0  0  0  0  0
   22.8709  -20.9170  -14.8360 N   0  0  0  0  0  0  0  0  0  0  0  0
   25.9837  -21.3039  -12.0385 C   0  0  0  0  0  0  0  0  0  0  0  0
   26.0970  -22.5471  -11.7583 O   0  0  0  0  0  0  0  0  0  0  0  0
   27.2284  -20.1778   -6.4434 C   0  0  0  0  0  0  0  0  0  0  0  0
   26.2162  -20.8133   -7.3261 C   0  0  0  0  0  0  0  0  0  0  0  0
   26.2014  -20.4133   -8.7499 C   0  0  2  0  0  0  0  0  0  0  0  0
   26.4182  -18.9390   -8.9886 C   0  0  0  0  0  0  0  0  0  0  0  0
   25.1695  -21.0190   -9.6464 C   0  0  2  0  0  0  0  0  0  0  0  0
   25.4923  -20.4946  -10.9943 N   0  0  0  0  0  0  0  0  0  0  0  0
   23.8111  -20.5382   -9.3582 C   0  0  0  0  0  0  0  0  0  0  0  0
   23.1359  -19.5634  -10.1049 O   0  0  0  0  0  0  0  0  0  0  0  0
   23.1187  -20.9796   -8.3736 O   0  0  0  0  0  0  0  0  0  0  0  0
  2  1  1  0
  3  2  1  0
  4  3  1  0
  4  5  1  0
  5  6  1  1
  7  5  1  0
  7  8  2  0
  9  7  1  0
 10  9  1  0
 10 11  1  6
 12 11  1  0
 12 13  2  0
 14 13  1  0
 15 16  2  0
 15 14  1  0
 16 12  1  0
 17 10  1  0
 18 17  2  0
 20 19  1  0
 21 20  1  0
 21 22  1  1
 23 21  1  0
 23 24  1  6
 24 17  1  0
 25 23  1  0
 26 25  1  0
 27 25  2  0
M  END
$$$$
