MHI.pdb
     RDKit          3D

 27 27  0  0  1  0  0  0  0  0999 V2000
   29.0242  -28.9685  -16.0838 C   0  0  0  0  0  0  0  0  0  0  0  0
   27.8096  -29.4074  -17.3660 S   0  0  0  0  0  0  0  0  0  0  0  0
   27.0154  -27.9293  -18.0146 C   0  0  0  0  0  0  0  0  0  0  0  0
   27.4914  -26.7228  -17.2574 C   0  0  0  0  0  0  0  0  0  0  0  0
   26.7744  -25.5067  -17.8164 C   0  0  2  0  0  0  0  0  0  0  0  0
   27.1697  -25.3254  -19.1799 N   0  0  0  0  0  0  0  0  0  0  0  0
   27.0273  -24.3148  -16.9756 C   0  0  0  0  0  0  0  0  0  0  0  0
   28.1907  -24.1586  -16.5230 O   0  0  0  0  0  0  0  0  0  0  0  0
   26.0519  -23.3469  -16.6506 N   0  0  0  0  0  0  0  0  0  0  0  0
   26.3512  -22.1705  -15.8825 C   0  0  1  0  0  0  0  0  0  0  0  0
   26.3729  -20.9221  -16.7428 C   0  0  0  0  0  0  0  0  0  0  0  0
   26.6553  -19.6955  -16.0039 C   0  0  0  0  0  0  0  0  0  0  0  0
   27.8766  -19.1999  -15.6196 C   0  0  0  0  0  0  0  0  0  0  0  0
   27.6805  -18.0246  -14.9490 N   0  0  0  0  0  0  0  0  0  0  0  0
   26.3653  -17.7960  -14.9179 C   0  0  0  0  0  0  0  0  0  0  0  0
   25.7438  -18.8176  -15.5625 N   0  0  0  0  0  0  0  0  0  0  0  0
   25.4617  -22.0652  -14.7086 C   0  0  0  0  0  0  0  0  0  0  0  0
   24.2745  -22.5407  -14.7444 O   0  0  0  0  0  0  0  0  0  0  0  0
   25.9357  -20.0133   -8.8342 C   0  0  0  0  0  0  0  0  0  0  0  0
   25.1429  -20.7147   -9.8768 C   0  0  0  0  0  0  0  0  0  0  0  0
   25.7694  -20.9015  -11.2035 C   0  0  2  0  0  0  0  0  0  0  0  0
   26.7998  -19.8589  -11.5620 C   0  0  0  0  0  0  0  0  0  0  0  0
   24.8967  -21.2993  -12.3506 C   0  0  2  0  0  0  0  0  0  0  0  0
   25.8292  -21.4567  -13.4916 N   0  0  0  0  0  0  0  0  0  0  0  0
   23.9660  -20.2360  -12.7541 C   0  0  0  0  0  0  0  0  0  0  0  0
   24.1011  -19.4553  -13.9100 O   0  0  0  0  0  0  0  0  0  0  0  0
   22.9323  -19.9264  -12.0619 O   0  0  0  0  0  0  0  0  0  0  0  0
  2  1  1  0
  3  2  1  0
  4  3  1  0
  4  5  1  0
  5  6  1  6
  7  5  1  0
  7  8  2  0
  9  7  1  0
 10  9  1  0
 10 11  1  6
 12 11  1  0
 12 13  2  0
 14 13  1  0
 15 16  2  0
 15 14  1  0
 16 12  1  0
 17 10  1  0
 18 17  2  0
 20 19  1  0
 21 20  1  0
 21 22  1  6
 23 21  1  0
 23 24  1  6
 24 17  1  0
 25 23  1  0
 26 25  1  0
 27 25  2  0
M  END
$$$$
