MHI.pdb
     RDKit          3D

 27 27  0  0  1  0  0  0  0  0999 V2000
   19.6373  -16.4037  -11.8680 C   0  0  0  0  0  0  0  0  0  0  0  0
   18.1253  -16.4642  -12.8789 S   0  0  0  0  0  0  0  0  0  0  0  0
   18.4133  -17.3989  -14.3889 C   0  0  0  0  0  0  0  0  0  0  0  0
   19.4840  -18.4255  -14.1545 C   0  0  0  0  0  0  0  0  0  0  0  0
   19.6813  -19.1990  -15.4461 C   0  0  2  0  0  0  0  0  0  0  0  0
   18.5034  -19.9691  -15.7062 N   0  0  0  0  0  0  0  0  0  0  0  0
   20.9104  -20.0218  -15.3836 C   0  0  0  0  0  0  0  0  0  0  0  0
   20.8438  -21.1215  -14.7762 O   0  0  0  0  0  0  0  0  0  0  0  0
   22.1463  -19.6537  -15.9588 N   0  0  0  0  0  0  0  0  0  0  0  0
   23.3310  -20.4564  -15.8330 C   0  0  1  0  0  0  0  0  0  0  0  0
   24.0126  -20.6744  -17.1698 C   0  0  0  0  0  0  0  0  0  0  0  0
   25.2771  -21.3979  -17.0816 C   0  0  0  0  0  0  0  0  0  0  0  0
   25.4823  -22.7545  -17.1301 C   0  0  0  0  0  0  0  0  0  0  0  0
   26.8224  -22.9989  -17.0112 N   0  0  0  0  0  0  0  0  0  0  0  0
   27.4354  -21.8188  -16.8916 C   0  0  0  0  0  0  0  0  0  0  0  0
   26.4891  -20.8450  -16.9350 N   0  0  0  0  0  0  0  0  0  0  0  0
   24.2280  -19.9153  -14.7924 C   0  0  0  0  0  0  0  0  0  0  0  0
   24.3350  -18.6528  -14.6146 O   0  0  0  0  0  0  0  0  0  0  0  0
   23.9347  -21.1331   -9.8238 C   0  0  0  0  0  0  0  0  0  0  0  0
   24.2842  -20.5029  -11.1231 C   0  0  0  0  0  0  0  0  0  0  0  0
   25.6374  -20.7547  -11.6643 C   0  0  2  0  0  0  0  0  0  0  0  0
   26.7448  -20.6803  -10.6417 C   0  0  0  0  0  0  0  0  0  0  0  0
   25.9988  -20.1481  -12.9823 C   0  0  2  0  0  0  0  0  0  0  0  0
   25.0134  -20.7118  -13.9350 N   0  0  0  0  0  0  0  0  0  0  0  0
   27.3108  -20.5919  -13.4734 C   0  0  0  0  0  0  0  0  0  0  0  0
   28.4634  -19.7953  -13.4976 O   0  0  0  0  0  0  0  0  0  0  0  0
   27.5106  -21.7714  -13.9343 O   0  0  0  0  0  0  0  0  0  0  0  0
  2  1  1  0
  3  2  1  0
  4  3  1  0
  4  5  1  0
  5  6  1  1
  7  5  1  0
  7  8  2  0
  9  7  1  0
 10  9  1  0
 10 11  1  6
 12 11  1  0
 12 13  2  0
 14 13  1  0
 15 16  2  0
 15 14  1  0
 16 12  1  0
 17 10  1  0
 18 17  2  0
 20 19  1  0
 21 20  1  0
 21 22  1  1
 23 21  1  0
 23 24  1  6
 24 17  1  0
 25 23  1  0
 26 25  1  0
 27 25  2  0
M  END
$$$$
