MHI.pdb
     RDKit          3D

 27 27  0  0  1  0  0  0  0  0999 V2000
   29.2266  -19.6924   -4.8431 C   0  0  0  0  0  0  0  0  0  0  0  0
   28.6940  -19.2111   -6.5154 S   0  0  0  0  0  0  0  0  0  0  0  0
   27.1856  -20.0792   -6.9711 C   0  0  0  0  0  0  0  0  0  0  0  0
   26.7715  -19.6838   -8.3594 C   0  0  0  0  0  0  0  0  0  0  0  0
   25.5300  -20.4793   -8.7217 C   0  0  2  0  0  0  0  0  0  0  0  0
   25.8134  -21.8730   -8.5628 N   0  0  0  0  0  0  0  0  0  0  0  0
   25.0630  -20.1338  -10.0834 C   0  0  0  0  0  0  0  0  0  0  0  0
   24.8434  -18.9203  -10.3325 O   0  0  0  0  0  0  0  0  0  0  0  0
   24.8494  -21.0735  -11.1154 N   0  0  0  0  0  0  0  0  0  0  0  0
   24.4626  -20.6919  -12.4452 C   0  0  1  0  0  0  0  0  0  0  0  0
   25.3238  -21.3595  -13.4997 C   0  0  0  0  0  0  0  0  0  0  0  0
   26.6440  -20.7578  -13.6575 C   0  0  0  0  0  0  0  0  0  0  0  0
   27.8643  -21.2937  -13.3280 C   0  0  0  0  0  0  0  0  0  0  0  0
   28.8395  -20.3895  -13.6460 N   0  0  0  0  0  0  0  0  0  0  0  0
   28.2368  -19.3155  -14.1618 C   0  0  0  0  0  0  0  0  0  0  0  0
   26.8977  -19.5444  -14.1670 N   0  0  0  0  0  0  0  0  0  0  0  0
   23.0140  -20.8898  -12.6516 C   0  0  0  0  0  0  0  0  0  0  0  0
   22.4160  -21.9046  -12.1523 O   0  0  0  0  0  0  0  0  0  0  0  0
   20.0355  -16.4186  -12.6880 C   0  0  0  0  0  0  0  0  0  0  0  0
   20.4457  -17.8338  -12.4970 C   0  0  0  0  0  0  0  0  0  0  0  0
   20.2022  -18.7739  -13.6125 C   0  0  2  0  0  0  0  0  0  0  0  0
   18.8164  -18.6971  -14.2052 C   0  0  0  0  0  0  0  0  0  0  0  0
   20.7243  -20.1697  -13.4911 C   0  0  2  0  0  0  0  0  0  0  0  0
   22.1939  -20.0104  -13.3871 N   0  0  0  0  0  0  0  0  0  0  0  0
   20.5055  -20.9677  -14.7056 C   0  0  0  0  0  0  0  0  0  0  0  0
   19.5160  -21.9499  -14.8460 O   0  0  0  0  0  0  0  0  0  0  0  0
   21.2228  -20.8290  -15.7591 O   0  0  0  0  0  0  0  0  0  0  0  0
  2  1  1  0
  3  2  1  0
  4  3  1  0
  4  5  1  0
  5  6  1  6
  7  5  1  0
  7  8  2  0
  9  7  1  0
 10  9  1  0
 10 11  1  6
 12 11  1  0
 12 13  2  0
 14 13  1  0
 15 16  2  0
 15 14  1  0
 16 12  1  0
 17 10  1  0
 18 17  2  0
 20 19  1  0
 21 20  1  0
 21 22  1  1
 23 21  1  0
 23 24  1  6
 24 17  1  0
 25 23  1  0
 26 25  1  0
 27 25  2  0
M  END
$$$$
