MHI.pdb
     RDKit          3D

 27 27  0  0  1  0  0  0  0  0999 V2000
   29.8093  -19.2279  -20.1271 C   0  0  0  0  0  0  0  0  0  0  0  0
   29.8834  -21.0375  -20.3059 S   0  0  0  0  0  0  0  0  0  0  0  0
   29.3368  -21.8435  -18.7933 C   0  0  0  0  0  0  0  0  0  0  0  0
   29.0630  -20.8110  -17.7377 C   0  0  0  0  0  0  0  0  0  0  0  0
   28.7842  -21.5373  -16.4338 C   0  0  2  0  0  0  0  0  0  0  0  0
   28.5038  -22.9107  -16.7226 N   0  0  0  0  0  0  0  0  0  0  0  0
   27.6983  -20.8692  -15.6816 C   0  0  0  0  0  0  0  0  0  0  0  0
   27.8442  -19.6494  -15.4098 O   0  0  0  0  0  0  0  0  0  0  0  0
   26.5154  -21.5092  -15.2516 N   0  0  0  0  0  0  0  0  0  0  0  0
   25.5092  -20.8406  -14.4744 C   0  0  1  0  0  0  0  0  0  0  0  0
   24.1564  -20.8626  -15.1589 C   0  0  0  0  0  0  0  0  0  0  0  0
   23.0780  -20.2842  -14.3636 C   0  0  0  0  0  0  0  0  0  0  0  0
   22.1603  -20.9369  -13.5783 C   0  0  0  0  0  0  0  0  0  0  0  0
   21.3312  -20.0092  -13.0112 N   0  0  0  0  0  0  0  0  0  0  0  0
   21.7263  -18.8065  -13.4357 C   0  0  0  0  0  0  0  0  0  0  0  0
   22.7920  -18.9789  -14.2603 N   0  0  0  0  0  0  0  0  0  0  0  0
   25.4811  -21.3555  -13.0908 C   0  0  0  0  0  0  0  0  0  0  0  0
   25.5028  -22.6141  -12.8620 O   0  0  0  0  0  0  0  0  0  0  0  0
   28.9376  -20.4368   -9.3773 C   0  0  0  0  0  0  0  0  0  0  0  0
   27.7839  -21.0765  -10.0611 C   0  0  0  0  0  0  0  0  0  0  0  0
   26.4411  -20.5068   -9.8166 C   0  0  2  0  0  0  0  0  0  0  0  0
   26.1361  -20.2219   -8.3664 C   0  0  0  0  0  0  0  0  0  0  0  0
   25.2816  -21.0738  -10.5715 C   0  0  2  0  0  0  0  0  0  0  0  0
   25.4320  -20.5368  -11.9445 N   0  0  0  0  0  0  0  0  0  0  0  0
   23.9879  -20.5647  -10.0954 C   0  0  0  0  0  0  0  0  0  0  0  0
   23.2100  -21.1723   -9.1007 O   0  0  0  0  0  0  0  0  0  0  0  0
   23.4515  -19.4998  -10.5662 O   0  0  0  0  0  0  0  0  0  0  0  0
  2  1  1  0
  3  2  1  0
  4  3  1  0
  4  5  1  0
  5  6  1  6
  7  5  1  0
  7  8  2  0
  9  7  1  0
 10  9  1  0
 10 11  1  6
 12 11  1  0
 12 13  2  0
 14 13  1  0
 15 16  2  0
 15 14  1  0
 16 12  1  0
 17 10  1  0
 18 17  2  0
 20 19  1  0
 21 20  1  0
 21 22  1  1
 23 21  1  0
 23 24  1  6
 24 17  1  0
 25 23  1  0
 26 25  1  0
 27 25  2  0
M  END
$$$$
