MHI.pdb
     RDKit          3D

 27 27  0  0  1  0  0  0  0  0999 V2000
   32.4585  -23.2884   -9.0231 C   0  0  0  0  0  0  0  0  0  0  0  0
   33.5862  -22.2159   -9.9665 S   0  0  0  0  0  0  0  0  0  0  0  0
   33.0657  -22.1106  -11.6854 C   0  0  0  0  0  0  0  0  0  0  0  0
   31.9072  -21.1628  -11.8083 C   0  0  0  0  0  0  0  0  0  0  0  0
   30.6336  -21.9867  -11.8740 C   0  0  2  0  0  0  0  0  0  0  0  0
   30.7585  -22.9444  -12.9301 N   0  0  0  0  0  0  0  0  0  0  0  0
   29.4485  -21.1118  -12.0213 C   0  0  0  0  0  0  0  0  0  0  0  0
   29.3219  -20.1619  -11.2061 O   0  0  0  0  0  0  0  0  0  0  0  0
   28.4562  -21.2737  -13.0128 N   0  0  0  0  0  0  0  0  0  0  0  0
   27.3065  -20.4177  -13.1078 C   0  0  1  0  0  0  0  0  0  0  0  0
   26.9100  -20.1588  -14.5482 C   0  0  0  0  0  0  0  0  0  0  0  0
   27.8691  -19.3488  -15.2926 C   0  0  0  0  0  0  0  0  0  0  0  0
   28.8699  -19.7762  -16.1295 C   0  0  0  0  0  0  0  0  0  0  0  0
   29.5294  -18.6824  -16.6175 N   0  0  0  0  0  0  0  0  0  0  0  0
   28.9498  -17.5992  -16.0943 C   0  0  0  0  0  0  0  0  0  0  0  0
   27.9376  -18.0103  -15.2868 N   0  0  0  0  0  0  0  0  0  0  0  0
   26.2002  -20.9237  -12.2710 C   0  0  0  0  0  0  0  0  0  0  0  0
   25.7669  -22.1189  -12.4145 O   0  0  0  0  0  0  0  0  0  0  0  0
   26.6782  -19.9636   -7.2644 C   0  0  0  0  0  0  0  0  0  0  0  0
   26.2542  -20.5586   -8.5581 C   0  0  0  0  0  0  0  0  0  0  0  0
   24.8785  -20.2781   -9.0228 C   0  0  2  0  0  0  0  0  0  0  0  0
   23.8064  -20.5206   -7.9887 C   0  0  0  0  0  0  0  0  0  0  0  0
   24.4915  -20.7151  -10.3994 C   0  0  2  0  0  0  0  0  0  0  0  0
   25.5506  -20.1640  -11.2772 N   0  0  0  0  0  0  0  0  0  0  0  0
   23.2420  -20.0963  -10.8636 C   0  0  0  0  0  0  0  0  0  0  0  0
   23.1656  -19.0803  -11.8258 O   0  0  0  0  0  0  0  0  0  0  0  0
   22.0931  -20.4416  -10.4116 O   0  0  0  0  0  0  0  0  0  0  0  0
  2  1  1  0
  3  2  1  0
  4  3  1  0
  4  5  1  0
  5  6  1  6
  7  5  1  0
  7  8  2  0
  9  7  1  0
 10  9  1  0
 10 11  1  6
 12 11  1  0
 12 13  2  0
 14 13  1  0
 15 16  2  0
 15 14  1  0
 16 12  1  0
 17 10  1  0
 18 17  2  0
 20 19  1  0
 21 20  1  0
 21 22  1  1
 23 21  1  0
 23 24  1  6
 24 17  1  0
 25 23  1  0
 26 25  1  0
 27 25  2  0
M  END
$$$$
