MHI.pdb
     RDKit          3D

 27 27  0  0  1  0  0  0  0  0999 V2000
   25.9750  -14.9348  -14.5724 C   0  0  0  0  0  0  0  0  0  0  0  0
   27.0205  -15.1847  -16.0409 S   0  0  0  0  0  0  0  0  0  0  0  0
   27.6490  -16.8697  -16.0880 C   0  0  0  0  0  0  0  0  0  0  0  0
   26.7642  -17.7652  -15.2691 C   0  0  0  0  0  0  0  0  0  0  0  0
   27.5087  -19.0666  -15.0297 C   0  0  2  0  0  0  0  0  0  0  0  0
   27.7804  -19.6810  -16.2934 N   0  0  0  0  0  0  0  0  0  0  0  0
   26.7510  -19.9440  -14.1090 C   0  0  0  0  0  0  0  0  0  0  0  0
   26.1014  -20.8953  -14.6149 O   0  0  0  0  0  0  0  0  0  0  0  0
   26.7106  -19.7829  -12.7067 N   0  0  0  0  0  0  0  0  0  0  0  0
   25.9694  -20.6616  -11.8453 C   0  0  1  0  0  0  0  0  0  0  0  0
   26.5850  -20.7519  -10.4625 C   0  0  0  0  0  0  0  0  0  0  0  0
   28.0275  -20.9739  -10.4671 C   0  0  0  0  0  0  0  0  0  0  0  0
   28.8491  -21.1840  -11.5467 C   0  0  0  0  0  0  0  0  0  0  0  0
   30.1302  -21.3448  -11.0970 N   0  0  0  0  0  0  0  0  0  0  0  0
   30.1040  -21.2367   -9.7664 C   0  0  0  0  0  0  0  0  0  0  0  0
   28.8194  -21.0105   -9.3864 N   0  0  0  0  0  0  0  0  0  0  0  0
   24.5366  -20.3053  -11.8333 C   0  0  0  0  0  0  0  0  0  0  0  0
   24.1587  -19.1305  -11.4956 O   0  0  0  0  0  0  0  0  0  0  0  0
   22.8488  -20.0031  -16.2307 C   0  0  0  0  0  0  0  0  0  0  0  0
   22.8916  -19.8860  -14.7501 C   0  0  0  0  0  0  0  0  0  0  0  0
   22.0176  -20.7856  -13.9664 C   0  0  2  0  0  0  0  0  0  0  0  0
   20.6001  -20.8817  -14.4755 C   0  0  0  0  0  0  0  0  0  0  0  0
   22.1163  -20.7488  -12.4749 C   0  0  2  0  0  0  0  0  0  0  0  0
   23.4991  -21.1936  -12.1816 N   0  0  0  0  0  0  0  0  0  0  0  0
   21.2447  -21.7353  -11.8216 C   0  0  0  0  0  0  0  0  0  0  0  0
   21.5491  -23.0955  -11.6774 O   0  0  0  0  0  0  0  0  0  0  0  0
   20.1057  -21.4241  -11.3223 O   0  0  0  0  0  0  0  0  0  0  0  0
  2  1  1  0
  3  2  1  0
  4  3  1  0
  4  5  1  0
  5  6  1  6
  7  5  1  0
  7  8  2  0
  9  7  1  0
 10  9  1  0
 10 11  1  1
 12 11  1  0
 12 13  2  0
 14 13  1  0
 15 16  2  0
 15 14  1  0
 16 12  1  0
 17 10  1  0
 18 17  2  0
 20 19  1  0
 21 20  1  0
 21 22  1  1
 23 21  1  0
 23 24  1  6
 24 17  1  0
 25 23  1  0
 26 25  1  0
 27 25  2  0
M  END
$$$$
