MHI.pdb
     RDKit          3D

 27 27  0  0  1  0  0  0  0  0999 V2000
   30.8245  -18.4004  -14.5705 C   0  0  0  0  0  0  0  0  0  0  0  0
   30.2626  -17.9794  -16.2494 S   0  0  0  0  0  0  0  0  0  0  0  0
   28.6964  -18.7872  -16.6113 C   0  0  0  0  0  0  0  0  0  0  0  0
   27.8489  -18.8308  -15.3722 C   0  0  0  0  0  0  0  0  0  0  0  0
   26.5782  -19.5940  -15.7011 C   0  0  2  0  0  0  0  0  0  0  0  0
   25.9025  -18.9246  -16.7704 N   0  0  0  0  0  0  0  0  0  0  0  0
   25.7360  -19.7575  -14.4946 C   0  0  0  0  0  0  0  0  0  0  0  0
   25.0145  -18.7851  -14.1529 O   0  0  0  0  0  0  0  0  0  0  0  0
   25.6904  -20.9283  -13.7067 N   0  0  0  0  0  0  0  0  0  0  0  0
   24.7799  -21.0895  -12.6074 C   0  0  1  0  0  0  0  0  0  0  0  0
   23.6726  -22.0745  -12.9282 C   0  0  0  0  0  0  0  0  0  0  0  0
   22.8002  -21.6537  -14.0199 C   0  0  0  0  0  0  0  0  0  0  0  0
   22.8024  -22.0884  -15.3221 C   0  0  0  0  0  0  0  0  0  0  0  0
   21.8166  -21.4313  -16.0046 N   0  0  0  0  0  0  0  0  0  0  0  0
   21.2154  -20.6063  -15.1438 C   0  0  0  0  0  0  0  0  0  0  0  0
   21.8185  -20.7452  -13.9344 N   0  0  0  0  0  0  0  0  0  0  0  0
   25.5066  -21.4012  -11.3604 C   0  0  0  0  0  0  0  0  0  0  0  0
   26.2880  -22.4122  -11.2954 O   0  0  0  0  0  0  0  0  0  0  0  0
   28.2572  -19.0583   -6.5437 C   0  0  0  0  0  0  0  0  0  0  0  0
   27.4061  -20.1728   -7.0346 C   0  0  0  0  0  0  0  0  0  0  0  0
   26.7747  -20.0184   -8.3631 C   0  0  2  0  0  0  0  0  0  0  0  0
   26.2311  -18.6384   -8.6417 C   0  0  0  0  0  0  0  0  0  0  0  0
   25.8957  -21.1197   -8.8633 C   0  0  2  0  0  0  0  0  0  0  0  0
   25.4086  -20.6401  -10.1782 N   0  0  0  0  0  0  0  0  0  0  0  0
   24.6886  -21.3016   -8.0453 C   0  0  0  0  0  0  0  0  0  0  0  0
   23.3996  -20.9076   -8.4286 O   0  0  0  0  0  0  0  0  0  0  0  0
   24.7188  -21.8451   -6.8845 O   0  0  0  0  0  0  0  0  0  0  0  0
  2  1  1  0
  3  2  1  0
  4  3  1  0
  4  5  1  0
  5  6  1  6
  7  5  1  0
  7  8  2  0
  9  7  1  0
 10  9  1  0
 10 11  1  6
 12 11  1  0
 12 13  2  0
 14 13  1  0
 15 16  2  0
 15 14  1  0
 16 12  1  0
 17 10  1  0
 18 17  2  0
 20 19  1  0
 21 20  1  0
 21 22  1  1
 23 21  1  0
 23 24  1  6
 24 17  1  0
 25 23  1  0
 26 25  1  0
 27 25  2  0
M  END
$$$$
