APS.pdb
     RDKit          3D

 19 19  0  0  1  0  0  0  0  0999 V2000
    6.3958  -14.3304   21.4324 C   0  0  0  0  0  0  0  0  0  0  0  0
    7.4804  -13.4349   21.9736 C   0  0  2  0  0  0  0  0  0  0  0  0
    8.5472  -13.4148   20.9934 N   0  0  0  0  0  0  0  0  0  0  0  0
    8.0105  -13.8424   23.2670 C   0  0  0  0  0  0  0  0  0  0  0  0
    8.9182  -14.6958   23.3058 O   0  0  0  0  0  0  0  0  0  0  0  0
    7.5422  -13.3106   24.5241 N   0  0  0  0  0  0  0  0  0  0  0  0
    6.6240  -12.2411   24.7238 C   0  0  0  0  0  0  0  0  0  0  0  0
    5.8835  -12.6051   25.9756 C   0  0  0  0  0  0  0  0  0  0  0  0
    7.0836  -13.1016   26.8112 C   0  0  0  0  0  0  0  0  0  0  0  0
    7.9558  -13.7941   25.8077 C   0  0  1  0  0  0  0  0  0  0  0  0
    7.8928  -15.2714   25.9511 C   0  0  0  0  0  0  0  0  0  0  0  0
    6.9193  -15.9632   25.6524 O   0  0  0  0  0  0  0  0  0  0  0  0
   11.1565  -17.3599   25.4646 O   0  0  0  0  0  0  0  0  0  0  0  0
    9.9258  -18.0336   25.6178 C   0  0  0  0  0  0  0  0  0  0  0  0
    9.1269  -17.3159   26.6900 C   0  0  2  0  0  0  0  0  0  0  0  0
    9.0626  -15.9062   26.4763 N   0  0  0  0  0  0  0  0  0  0  0  0
    9.7425  -17.6729   27.9922 C   0  0  0  0  0  0  0  0  0  0  0  0
   10.2055  -16.7539   28.7029 O   0  0  0  0  0  0  0  0  0  0  0  0
    9.8261  -18.9758   28.4524 O   0  0  0  0  0  0  0  0  0  0  0  0
  2  3  1  0
  2  1  1  6
  4  5  2  0
  4  2  1  0
  6  4  1  0
  7  6  1  0
  8  7  1  0
  9 10  1  0
  9  8  1  0
 10  6  1  0
 10 11  1  6
 11 12  2  0
 14 13  1  0
 15 14  1  6
 16 11  1  0
 16 15  1  0
 17 15  1  0
 17 19  1  0
 18 17  2  0
M  END
$$$$
