APS.pdb
     RDKit          3D

 19 19  0  0  1  0  0  0  0  0999 V2000
    6.5752  -15.4200   22.2927 C   0  0  0  0  0  0  0  0  0  0  0  0
    7.5404  -14.2726   22.4448 C   0  0  2  0  0  0  0  0  0  0  0  0
    8.5537  -14.4275   21.4208 N   0  0  0  0  0  0  0  0  0  0  0  0
    8.1741  -14.1860   23.7528 C   0  0  0  0  0  0  0  0  0  0  0  0
    9.1974  -14.8626   23.9738 O   0  0  0  0  0  0  0  0  0  0  0  0
    7.6825  -13.3526   24.8233 N   0  0  0  0  0  0  0  0  0  0  0  0
    6.6276  -12.3983   24.7636 C   0  0  0  0  0  0  0  0  0  0  0  0
    5.9963  -12.4447   26.1226 C   0  0  0  0  0  0  0  0  0  0  0  0
    7.2869  -12.5014   26.9690 C   0  0  0  0  0  0  0  0  0  0  0  0
    8.2107  -13.3565   26.1550 C   0  0  1  0  0  0  0  0  0  0  0  0
    8.3677  -14.7114   26.7438 C   0  0  0  0  0  0  0  0  0  0  0  0
    7.4928  -15.5774   26.7513 O   0  0  0  0  0  0  0  0  0  0  0  0
   11.9561  -16.4093   26.8595 O   0  0  0  0  0  0  0  0  0  0  0  0
   10.8130  -17.1483   27.2324 C   0  0  0  0  0  0  0  0  0  0  0  0
    9.8935  -16.2292   28.0153 C   0  0  2  0  0  0  0  0  0  0  0  0
    9.6374  -14.9999   27.3368 N   0  0  0  0  0  0  0  0  0  0  0  0
   10.5190  -16.0322   29.3465 C   0  0  0  0  0  0  0  0  0  0  0  0
   10.7844  -17.0426   30.0342 O   0  0  0  0  0  0  0  0  0  0  0  0
   10.8203  -14.7818   29.8581 O   0  0  0  0  0  0  0  0  0  0  0  0
  2  3  1  0
  2  1  1  1
  4  5  2  0
  4  2  1  0
  6  4  1  0
  7  6  1  0
  8  7  1  0
  9 10  1  0
  9  8  1  0
 10  6  1  0
 10 11  1  1
 11 12  2  0
 14 13  1  0
 15 14  1  6
 16 11  1  0
 16 15  1  0
 17 15  1  0
 17 19  1  0
 18 17  2  0
M  END
$$$$
