APS.pdb
     RDKit          3D

 19 19  0  0  1  0  0  0  0  0999 V2000
    7.5922  -16.4991   16.6963 C   0  0  0  0  0  0  0  0  0  0  0  0
    8.5346  -15.3231   16.7071 C   0  0  2  0  0  0  0  0  0  0  0  0
    9.5218  -15.5566   15.6726 N   0  0  0  0  0  0  0  0  0  0  0  0
    9.2029  -15.0966   17.9807 C   0  0  0  0  0  0  0  0  0  0  0  0
   10.2292  -15.7512   18.2488 O   0  0  0  0  0  0  0  0  0  0  0  0
    8.7427  -14.1469   18.9649 N   0  0  0  0  0  0  0  0  0  0  0  0
    7.7268  -13.1617   18.8091 C   0  0  0  0  0  0  0  0  0  0  0  0
    7.0913  -13.0542   20.1627 C   0  0  0  0  0  0  0  0  0  0  0  0
    8.3768  -13.0815   21.0181 C   0  0  0  0  0  0  0  0  0  0  0  0
    9.2676  -14.0456   20.2940 C   0  0  1  0  0  0  0  0  0  0  0  0
    9.3692  -15.3438   21.0091 C   0  0  0  0  0  0  0  0  0  0  0  0
    8.5053  -16.2207   20.9947 O   0  0  0  0  0  0  0  0  0  0  0  0
   12.9892  -16.5611   21.6099 O   0  0  0  0  0  0  0  0  0  0  0  0
   12.0282  -17.5131   22.0126 C   0  0  0  0  0  0  0  0  0  0  0  0
   10.7965  -16.7656   22.4890 C   0  0  2  0  0  0  0  0  0  0  0  0
   10.5683  -15.5606   21.7590 N   0  0  0  0  0  0  0  0  0  0  0  0
   10.9747  -16.5320   23.9436 C   0  0  0  0  0  0  0  0  0  0  0  0
   10.8949  -15.3596   24.3718 O   0  0  0  0  0  0  0  0  0  0  0  0
   11.2246  -17.5531   24.8441 O   0  0  0  0  0  0  0  0  0  0  0  0
  2  3  1  0
  2  1  1  1
  4  5  2  0
  4  2  1  0
  6  4  1  0
  7  6  1  0
  8  7  1  0
  9 10  1  0
  9  8  1  0
 10  6  1  0
 10 11  1  1
 11 12  2  0
 14 13  1  0
 15 14  1  6
 16 11  1  0
 16 15  1  0
 17 15  1  0
 17 19  1  0
 18 17  2  0
M  END
$$$$
