APS.pdb
     RDKit          3D

 19 19  0  0  1  0  0  0  0  0999 V2000
    7.8211  -16.6290   16.4860 C   0  0  0  0  0  0  0  0  0  0  0  0
    8.7325  -15.4352   16.3615 C   0  0  2  0  0  0  0  0  0  0  0  0
    9.6826  -15.7306   15.3081 N   0  0  0  0  0  0  0  0  0  0  0  0
    9.4460  -15.0902   17.5829 C   0  0  0  0  0  0  0  0  0  0  0  0
   10.4683  -15.7351   17.8876 O   0  0  0  0  0  0  0  0  0  0  0  0
    9.0356  -14.0322   18.4742 N   0  0  0  0  0  0  0  0  0  0  0  0
    8.0295  -13.0506   18.2481 C   0  0  0  0  0  0  0  0  0  0  0  0
    7.4448  -12.7870   19.6032 C   0  0  0  0  0  0  0  0  0  0  0  0
    8.7598  -12.7464   20.4121 C   0  0  0  0  0  0  0  0  0  0  0  0
    9.6095  -13.7989   19.7659 C   0  0  1  0  0  0  0  0  0  0  0  0
    9.7176  -15.0147   20.6128 C   0  0  0  0  0  0  0  0  0  0  0  0
    8.8089  -15.8253   20.7936 O   0  0  0  0  0  0  0  0  0  0  0  0
   12.7650  -17.2493   20.4451 O   0  0  0  0  0  0  0  0  0  0  0  0
   11.6284  -17.5947   21.2071 C   0  0  0  0  0  0  0  0  0  0  0  0
   11.2385  -16.3896   22.0429 C   0  0  2  0  0  0  0  0  0  0  0  0
   10.9801  -15.2312   21.2501 N   0  0  0  0  0  0  0  0  0  0  0  0
   12.3294  -16.1815   23.0272 C   0  0  0  0  0  0  0  0  0  0  0  0
   12.9590  -15.1013   22.9975 O   0  0  0  0  0  0  0  0  0  0  0  0
   12.6788  -17.1290   23.9740 O   0  0  0  0  0  0  0  0  0  0  0  0
  2  3  1  0
  2  1  1  1
  4  5  2  0
  4  2  1  0
  6  4  1  0
  7  6  1  0
  8  7  1  0
  9 10  1  0
  9  8  1  0
 10  6  1  0
 10 11  1  1
 11 12  2  0
 14 13  1  0
 15 14  1  6
 16 11  1  0
 16 15  1  0
 17 15  1  0
 17 19  1  0
 18 17  2  0
M  END
$$$$
