APS.pdb
     RDKit          3D

 19 19  0  0  1  0  0  0  0  0999 V2000
    6.5599  -18.1046   19.3379 C   0  0  0  0  0  0  0  0  0  0  0  0
    7.4399  -17.1106   18.6246 C   0  0  2  0  0  0  0  0  0  0  0  0
    8.0957  -17.8184   17.5437 N   0  0  0  0  0  0  0  0  0  0  0  0
    8.4387  -16.4724   19.4702 C   0  0  0  0  0  0  0  0  0  0  0  0
    9.5016  -17.0774   19.7107 O   0  0  0  0  0  0  0  0  0  0  0  0
    8.2702  -15.1639   20.0545 N   0  0  0  0  0  0  0  0  0  0  0  0
    7.2192  -14.2350   19.8103 C   0  0  0  0  0  0  0  0  0  0  0  0
    7.0308  -13.5229   21.1161 C   0  0  0  0  0  0  0  0  0  0  0  0
    8.5182  -13.3226   21.4804 C   0  0  0  0  0  0  0  0  0  0  0  0
    9.1768  -14.5797   20.9975 C   0  0  1  0  0  0  0  0  0  0  0  0
    9.5445  -15.4755   22.1241 C   0  0  0  0  0  0  0  0  0  0  0  0
    8.7387  -16.1015   22.8128 O   0  0  0  0  0  0  0  0  0  0  0  0
   12.5363  -17.8611   21.8556 O   0  0  0  0  0  0  0  0  0  0  0  0
   11.6319  -17.8892   22.9388 C   0  0  0  0  0  0  0  0  0  0  0  0
   11.4359  -16.4651   23.4250 C   0  0  2  0  0  0  0  0  0  0  0  0
   10.9423  -15.5987   22.4038 N   0  0  0  0  0  0  0  0  0  0  0  0
   12.7389  -16.0193   23.9775 C   0  0  0  0  0  0  0  0  0  0  0  0
   13.2448  -16.6778   24.9127 O   0  0  0  0  0  0  0  0  0  0  0  0
   13.4164  -14.9091   23.5037 O   0  0  0  0  0  0  0  0  0  0  0  0
  2  3  1  0
  2  1  1  1
  4  5  2  0
  4  2  1  0
  6  4  1  0
  7  6  1  0
  8  7  1  0
  9 10  1  0
  9  8  1  0
 10  6  1  0
 10 11  1  1
 11 12  2  0
 14 13  1  0
 15 14  1  6
 16 11  1  0
 16 15  1  0
 17 15  1  0
 17 19  1  0
 18 17  2  0
M  END
$$$$
