APS.pdb
     RDKit          3D

 19 19  0  0  1  0  0  0  0  0999 V2000
    7.9711  -16.4006   16.2606 C   0  0  0  0  0  0  0  0  0  0  0  0
    8.9091  -15.2251   16.3589 C   0  0  2  0  0  0  0  0  0  0  0  0
    9.9871  -15.4584   15.4193 N   0  0  0  0  0  0  0  0  0  0  0  0
    9.4577  -14.9998   17.6886 C   0  0  0  0  0  0  0  0  0  0  0  0
   10.4786  -15.6259   18.0346 O   0  0  0  0  0  0  0  0  0  0  0  0
    8.8832  -14.0830   18.6434 N   0  0  0  0  0  0  0  0  0  0  0  0
    7.8522  -13.1281   18.4151 C   0  0  0  0  0  0  0  0  0  0  0  0
    7.0995  -13.0650   19.7101 C   0  0  0  0  0  0  0  0  0  0  0  0
    8.3069  -13.0664   20.6730 C   0  0  0  0  0  0  0  0  0  0  0  0
    9.2882  -13.9886   20.0143 C   0  0  1  0  0  0  0  0  0  0  0  0
    9.3713  -15.2954   20.7160 C   0  0  0  0  0  0  0  0  0  0  0  0
    8.4957  -16.1603   20.6914 O   0  0  0  0  0  0  0  0  0  0  0  0
   13.0031  -16.9206   21.3176 O   0  0  0  0  0  0  0  0  0  0  0  0
   11.8040  -17.6517   21.4577 C   0  0  0  0  0  0  0  0  0  0  0  0
   10.7909  -16.7641   22.1569 C   0  0  2  0  0  0  0  0  0  0  0  0
   10.5662  -15.5360   21.4652 N   0  0  0  0  0  0  0  0  0  0  0  0
   11.2838  -16.5624   23.5420 C   0  0  0  0  0  0  0  0  0  0  0  0
   11.5092  -15.3947   23.9288 O   0  0  0  0  0  0  0  0  0  0  0  0
   11.5040  -17.6084   24.4216 O   0  0  0  0  0  0  0  0  0  0  0  0
  2  3  1  0
  2  1  1  1
  4  5  2  0
  4  2  1  0
  6  4  1  0
  7  6  1  0
  8  7  1  0
  9 10  1  0
  9  8  1  0
 10  6  1  0
 10 11  1  1
 11 12  2  0
 14 13  1  0
 15 14  1  6
 16 11  1  0
 16 15  1  0
 17 15  1  0
 17 19  1  0
 18 17  2  0
M  END
$$$$
