APS.pdb
     RDKit          3D

 19 19  0  0  1  0  0  0  0  0999 V2000
    7.8267  -16.6503   16.2155 C   0  0  0  0  0  0  0  0  0  0  0  0
    8.6717  -15.4028   16.1808 C   0  0  2  0  0  0  0  0  0  0  0  0
    9.6206  -15.5590   15.0971 N   0  0  0  0  0  0  0  0  0  0  0  0
    9.3836  -15.1211   17.4193 C   0  0  0  0  0  0  0  0  0  0  0  0
   10.4327  -15.7465   17.6683 O   0  0  0  0  0  0  0  0  0  0  0  0
    8.9420  -14.1482   18.3892 N   0  0  0  0  0  0  0  0  0  0  0  0
    7.8935  -13.1959   18.2453 C   0  0  0  0  0  0  0  0  0  0  0  0
    7.3166  -13.0554   19.6219 C   0  0  0  0  0  0  0  0  0  0  0  0
    8.6395  -13.0181   20.4180 C   0  0  0  0  0  0  0  0  0  0  0  0
    9.5230  -13.9847   19.6885 C   0  0  1  0  0  0  0  0  0  0  0  0
    9.6922  -15.2528   20.4438 C   0  0  0  0  0  0  0  0  0  0  0  0
    8.8600  -16.1589   20.4864 O   0  0  0  0  0  0  0  0  0  0  0  0
   12.5956  -18.5642   21.8925 O   0  0  0  0  0  0  0  0  0  0  0  0
   12.3805  -17.3704   21.1710 C   0  0  0  0  0  0  0  0  0  0  0  0
   11.2550  -16.6089   21.8464 C   0  0  2  0  0  0  0  0  0  0  0  0
   10.9203  -15.4017   21.1625 N   0  0  0  0  0  0  0  0  0  0  0  0
   11.6782  -16.3768   23.2496 C   0  0  0  0  0  0  0  0  0  0  0  0
   11.7914  -15.1971   23.6492 O   0  0  0  0  0  0  0  0  0  0  0  0
   11.9522  -17.4071   24.1326 O   0  0  0  0  0  0  0  0  0  0  0  0
  2  3  1  0
  2  1  1  1
  4  5  2  0
  4  2  1  0
  6  4  1  0
  7  6  1  0
  8  7  1  0
  9 10  1  0
  9  8  1  0
 10  6  1  0
 10 11  1  1
 11 12  2  0
 14 13  1  0
 15 14  1  6
 16 11  1  0
 16 15  1  0
 17 15  1  0
 17 19  1  0
 18 17  2  0
M  END
$$$$
