APS.pdb
     RDKit          3D

 19 19  0  0  1  0  0  0  0  0999 V2000
    7.9917  -16.6500   16.6161 C   0  0  0  0  0  0  0  0  0  0  0  0
    8.8031  -15.3823   16.6920 C   0  0  2  0  0  0  0  0  0  0  0  0
    9.8604  -15.4915   15.7073 N   0  0  0  0  0  0  0  0  0  0  0  0
    9.3788  -15.1113   18.0017 C   0  0  0  0  0  0  0  0  0  0  0  0
   10.4630  -15.6452   18.3068 O   0  0  0  0  0  0  0  0  0  0  0  0
    8.7615  -14.2501   18.9813 N   0  0  0  0  0  0  0  0  0  0  0  0
    7.6573  -13.3721   18.7895 C   0  0  0  0  0  0  0  0  0  0  0  0
    6.9340  -13.3793   20.1027 C   0  0  0  0  0  0  0  0  0  0  0  0
    8.1615  -13.3013   21.0366 C   0  0  0  0  0  0  0  0  0  0  0  0
    9.1920  -14.1407   20.3433 C   0  0  1  0  0  0  0  0  0  0  0  0
    9.3888  -15.4453   21.0263 C   0  0  0  0  0  0  0  0  0  0  0  0
    8.6671  -16.4310   20.8747 O   0  0  0  0  0  0  0  0  0  0  0  0
   13.1121  -16.1673   22.5445 O   0  0  0  0  0  0  0  0  0  0  0  0
   12.2102  -17.2361   22.3545 C   0  0  0  0  0  0  0  0  0  0  0  0
   10.8093  -16.7252   22.6364 C   0  0  2  0  0  0  0  0  0  0  0  0
   10.5050  -15.5305   21.9173 N   0  0  0  0  0  0  0  0  0  0  0  0
   10.7049  -16.5541   24.1068 C   0  0  0  0  0  0  0  0  0  0  0  0
   10.3486  -15.4411   24.5521 O   0  0  0  0  0  0  0  0  0  0  0  0
   10.9842  -17.5707   25.0038 O   0  0  0  0  0  0  0  0  0  0  0  0
  2  3  1  0
  2  1  1  1
  4  5  2  0
  4  2  1  0
  6  4  1  0
  7  6  1  0
  8  7  1  0
  9 10  1  0
  9  8  1  0
 10  6  1  0
 10 11  1  1
 11 12  2  0
 14 13  1  0
 15 14  1  1
 16 11  1  0
 16 15  1  0
 17 15  1  0
 17 19  1  0
 18 17  2  0
M  END
$$$$
