APS.pdb
     RDKit          3D

 19 19  0  0  1  0  0  0  0  0999 V2000
    7.6749  -16.6301   15.9903 C   0  0  0  0  0  0  0  0  0  0  0  0
    8.5080  -15.3765   15.9139 C   0  0  2  0  0  0  0  0  0  0  0  0
    9.4311  -15.5430   14.8096 N   0  0  0  0  0  0  0  0  0  0  0  0
    9.2480  -15.0683   17.1294 C   0  0  0  0  0  0  0  0  0  0  0  0
   10.3180  -15.6672   17.3531 O   0  0  0  0  0  0  0  0  0  0  0  0
    8.8115  -14.0980   18.1042 N   0  0  0  0  0  0  0  0  0  0  0  0
    7.7447  -13.1635   17.9785 C   0  0  0  0  0  0  0  0  0  0  0  0
    7.1952  -13.0257   19.3666 C   0  0  0  0  0  0  0  0  0  0  0  0
    8.5340  -12.9631   20.1339 C   0  0  0  0  0  0  0  0  0  0  0  0
    9.4174  -13.9188   19.3900 C   0  0  1  0  0  0  0  0  0  0  0  0
    9.6234  -15.1803   20.1471 C   0  0  0  0  0  0  0  0  0  0  0  0
    8.8401  -16.1299   20.1520 O   0  0  0  0  0  0  0  0  0  0  0  0
   12.8504  -18.1119   21.9913 O   0  0  0  0  0  0  0  0  0  0  0  0
   12.5836  -16.9449   21.2436 C   0  0  0  0  0  0  0  0  0  0  0  0
   11.1951  -16.4568   21.6131 C   0  0  2  0  0  0  0  0  0  0  0  0
   10.8271  -15.2671   20.9157 N   0  0  0  0  0  0  0  0  0  0  0  0
   11.1800  -16.2875   23.0873 C   0  0  0  0  0  0  0  0  0  0  0  0
   10.9601  -15.1476   23.5526 O   0  0  0  0  0  0  0  0  0  0  0  0
   11.3983  -17.3340   23.9666 O   0  0  0  0  0  0  0  0  0  0  0  0
  2  3  1  0
  2  1  1  1
  4  5  2  0
  4  2  1  0
  6  4  1  0
  7  6  1  0
  8  7  1  0
  9 10  1  0
  9  8  1  0
 10  6  1  0
 10 11  1  1
 11 12  2  0
 14 13  1  0
 15 14  1  6
 16 11  1  0
 16 15  1  0
 17 15  1  0
 17 19  1  0
 18 17  2  0
M  END
$$$$
