APS.pdb
     RDKit          3D

 19 19  0  0  1  0  0  0  0  0999 V2000
    6.4586  -14.8960   21.8873 C   0  0  0  0  0  0  0  0  0  0  0  0
    7.6073  -13.9755   22.2105 C   0  0  2  0  0  0  0  0  0  0  0  0
    8.5994  -14.1476   21.1687 N   0  0  0  0  0  0  0  0  0  0  0  0
    8.2179  -14.2056   23.5121 C   0  0  0  0  0  0  0  0  0  0  0  0
    9.1516  -15.0262   23.6043 O   0  0  0  0  0  0  0  0  0  0  0  0
    7.8017  -13.5318   24.7183 N   0  0  0  0  0  0  0  0  0  0  0  0
    6.8680  -12.4634   24.8356 C   0  0  0  0  0  0  0  0  0  0  0  0
    6.2028  -12.6843   26.1609 C   0  0  0  0  0  0  0  0  0  0  0  0
    7.4568  -13.0511   26.9843 C   0  0  0  0  0  0  0  0  0  0  0  0
    8.2933  -13.8454   26.0269 C   0  0  1  0  0  0  0  0  0  0  0  0
    8.2756  -15.2947   26.3530 C   0  0  0  0  0  0  0  0  0  0  0  0
    7.3020  -16.0336   26.2065 O   0  0  0  0  0  0  0  0  0  0  0  0
   11.7645  -17.2941   26.3339 O   0  0  0  0  0  0  0  0  0  0  0  0
   10.5486  -18.0056   26.4189 C   0  0  0  0  0  0  0  0  0  0  0  0
    9.5938  -17.2036   27.2839 C   0  0  2  0  0  0  0  0  0  0  0  0
    9.4918  -15.8409   26.8721 N   0  0  0  0  0  0  0  0  0  0  0  0
   10.0626  -17.3479   28.6845 C   0  0  0  0  0  0  0  0  0  0  0  0
   10.3252  -16.3115   29.3333 O   0  0  0  0  0  0  0  0  0  0  0  0
   10.2212  -18.5768   29.3015 O   0  0  0  0  0  0  0  0  0  0  0  0
  2  3  1  0
  2  1  1  6
  4  5  2  0
  4  2  1  0
  6  4  1  0
  7  6  1  0
  8  7  1  0
  9 10  1  0
  9  8  1  0
 10  6  1  0
 10 11  1  1
 11 12  2  0
 14 13  1  0
 15 14  1  6
 16 11  1  0
 16 15  1  0
 17 15  1  0
 17 19  1  0
 18 17  2  0
M  END
$$$$
