APS.pdb
     RDKit          3D

 19 19  0  0  1  0  0  0  0  0999 V2000
    6.1186  -17.5770   19.1654 C   0  0  0  0  0  0  0  0  0  0  0  0
    7.1221  -16.8561   18.3026 C   0  0  2  0  0  0  0  0  0  0  0  0
    7.6621  -17.8269   17.3724 N   0  0  0  0  0  0  0  0  0  0  0  0
    8.2086  -16.2253   19.0386 C   0  0  0  0  0  0  0  0  0  0  0  0
    9.1626  -16.9274   19.4265 O   0  0  0  0  0  0  0  0  0  0  0  0
    8.2480  -14.8169   19.3505 N   0  0  0  0  0  0  0  0  0  0  0  0
    7.3777  -13.7984   18.8688 C   0  0  0  0  0  0  0  0  0  0  0  0
    7.2754  -12.8200   20.0002 C   0  0  0  0  0  0  0  0  0  0  0  0
    8.7641  -12.7933   20.4104 C   0  0  0  0  0  0  0  0  0  0  0  0
    9.2132  -14.2106   20.2183 C   0  0  1  0  0  0  0  0  0  0  0  0
    9.3906  -14.9118   21.5160 C   0  0  0  0  0  0  0  0  0  0  0  0
    8.4713  -15.2412   22.2654 O   0  0  0  0  0  0  0  0  0  0  0  0
   11.0983  -18.0391   21.9958 O   0  0  0  0  0  0  0  0  0  0  0  0
   10.4975  -17.3485   23.0701 C   0  0  0  0  0  0  0  0  0  0  0  0
   11.0462  -15.9338   23.0855 C   0  0  2  0  0  0  0  0  0  0  0  0
   10.7377  -15.2116   21.8937 N   0  0  0  0  0  0  0  0  0  0  0  0
   12.5058  -16.0444   23.3296 C   0  0  0  0  0  0  0  0  0  0  0  0
   13.2893  -15.6690   22.4300 O   0  0  0  0  0  0  0  0  0  0  0  0
   13.0355  -16.5438   24.5070 O   0  0  0  0  0  0  0  0  0  0  0  0
  2  3  1  0
  2  1  1  1
  4  5  2  0
  4  2  1  0
  6  4  1  0
  7  6  1  0
  8  7  1  0
  9 10  1  0
  9  8  1  0
 10  6  1  0
 10 11  1  1
 11 12  2  0
 14 13  1  0
 15 14  1  6
 16 11  1  0
 16 15  1  0
 17 15  1  0
 17 19  1  0
 18 17  2  0
M  END
$$$$
