CVD.pdb
     RDKit          3D

 22 21  0  0  1  0  0  0  0  0999 V2000
    6.4956  -15.8716   20.8403 N   0  0  0  0  0  0  0  0  0  0  0  0
    6.2349  -16.0565   22.2488 C   0  0  1  0  0  0  0  0  0  0  0  0
    6.5200  -17.5194   22.5472 C   0  0  0  0  0  0  0  0  0  0  0  0
    5.0799  -18.5423   22.2365 S   0  0  0  0  0  0  0  0  0  0  0  0
    7.1829  -15.2126   23.0503 C   0  0  0  0  0  0  0  0  0  0  0  0
    8.3282  -15.0124   22.6022 O   0  0  0  0  0  0  0  0  0  0  0  0
    6.0938  -13.8465   26.9933 C   0  0  0  0  0  0  0  0  0  0  0  0
    6.8407  -13.0029   26.0062 C   0  0  1  0  0  0  0  0  0  0  0  0
    7.7697  -12.0290   26.7360 C   0  0  0  0  0  0  0  0  0  0  0  0
    7.6442  -13.7815   25.0282 C   0  0  2  0  0  0  0  0  0  0  0  0
    6.7649  -14.6650   24.2866 N   0  0  0  0  0  0  0  0  0  0  0  0
    8.7109  -14.5605   25.7149 C   0  0  0  0  0  0  0  0  0  0  0  0
    9.6096  -14.0322   26.4106 O   0  0  0  0  0  0  0  0  0  0  0  0
    8.7607  -16.0014   25.6086 N   0  0  0  0  0  0  0  0  0  0  0  0
    9.8801  -16.7329   26.2223 C   0  0  1  0  0  0  0  0  0  0  0  0
    9.4568  -18.0830   26.7109 C   0  0  0  0  0  0  0  0  0  0  0  0
    9.6528  -18.2892   28.1452 C   0  0  0  0  0  0  0  0  0  0  0  0
   10.1885  -17.3891   28.8342 O   0  0  0  0  0  0  0  0  0  0  0  0
   11.0372  -16.7719   25.2959 C   0  0  0  0  0  0  0  0  0  0  0  0
   10.9966  -16.7653   24.0566 O   0  0  0  0  0  0  0  0  0  0  0  0
    9.2601  -19.4570   28.7609 O   0  0  0  0  0  0  0  0  0  0  0  0
   12.3405  -16.8195   25.8602 O   0  0  0  0  0  0  0  0  0  0  0  0
  2  1  1  6
  3  2  1  0
  4  3  1  0
  5  2  1  0
  5  6  2  0
  8  7  1  1
  8 10  1  0
  9  8  1  0
 10 11  1  1
 10 12  1  0
 11  5  1  0
 12 14  1  0
 12 13  2  0
 14 15  1  0
 15 16  1  6
 17 16  1  0
 17 21  1  0
 18 17  2  0
 19 15  1  0
 20 19  2  0
 22 19  1  0
M  END
$$$$
