CVD.pdb
     RDKit          3D

 22 21  0  0  1  0  0  0  0  0999 V2000
    9.3207  -15.1755   19.4386 N   0  0  0  0  0  0  0  0  0  0  0  0
    8.4210  -15.8389   20.3532 C   0  0  1  0  0  0  0  0  0  0  0  0
    8.5666  -17.3288   20.0897 C   0  0  0  0  0  0  0  0  0  0  0  0
    7.5493  -18.2927   21.2089 S   0  0  0  0  0  0  0  0  0  0  0  0
    8.8453  -15.5607   21.7659 C   0  0  0  0  0  0  0  0  0  0  0  0
   10.0600  -15.4267   22.0087 O   0  0  0  0  0  0  0  0  0  0  0  0
    7.4489  -14.3829   26.3575 C   0  0  0  0  0  0  0  0  0  0  0  0
    7.2316  -14.4877   24.8790 C   0  0  1  0  0  0  0  0  0  0  0  0
    7.1560  -13.0923   24.2535 C   0  0  0  0  0  0  0  0  0  0  0  0
    8.2747  -15.2705   24.1666 C   0  0  2  0  0  0  0  0  0  0  0  0
    7.8700  -15.4562   22.7862 N   0  0  0  0  0  0  0  0  0  0  0  0
    8.4989  -16.5853   24.8276 C   0  0  0  0  0  0  0  0  0  0  0  0
    7.6401  -17.4977   24.8544 O   0  0  0  0  0  0  0  0  0  0  0  0
    9.7518  -16.8789   25.4865 N   0  0  0  0  0  0  0  0  0  0  0  0
    9.9415  -18.1901   26.1266 C   0  0  1  0  0  0  0  0  0  0  0  0
   11.3870  -18.4691   26.3976 C   0  0  0  0  0  0  0  0  0  0  0  0
   12.2232  -18.5128   25.1988 C   0  0  0  0  0  0  0  0  0  0  0  0
   11.7274  -18.8858   24.1093 O   0  0  0  0  0  0  0  0  0  0  0  0
    9.0788  -18.3049   27.3272 C   0  0  0  0  0  0  0  0  0  0  0  0
    8.6727  -17.3759   28.0410 O   0  0  0  0  0  0  0  0  0  0  0  0
   13.5516  -18.1512   25.2389 O   0  0  0  0  0  0  0  0  0  0  0  0
    8.6565  -19.6030   27.7218 O   0  0  0  0  0  0  0  0  0  0  0  0
  2  1  1  6
  3  2  1  0
  4  3  1  0
  5  2  1  0
  5  6  2  0
  8  7  1  1
  8 10  1  0
  9  8  1  0
 10 11  1  6
 10 12  1  0
 11  5  1  0
 12 14  1  0
 12 13  2  0
 14 15  1  0
 15 16  1  1
 17 16  1  0
 17 21  1  0
 18 17  2  0
 19 15  1  0
 20 19  2  0
 22 19  1  0
M  END
$$$$
