CVD.pdb
     RDKit          3D

 22 21  0  0  1  0  0  0  0  0999 V2000
    5.2326  -12.8197   26.2831 N   0  0  0  0  0  0  0  0  0  0  0  0
    6.5907  -12.7544   25.7964 C   0  0  1  0  0  0  0  0  0  0  0  0
    7.4882  -12.9098   27.0133 C   0  0  0  0  0  0  0  0  0  0  0  0
    9.2019  -12.5684   26.6091 S   0  0  0  0  0  0  0  0  0  0  0  0
    6.8467  -13.9035   24.8651 C   0  0  0  0  0  0  0  0  0  0  0  0
    6.4192  -15.0313   25.1776 O   0  0  0  0  0  0  0  0  0  0  0  0
    7.4899  -12.8137   21.2362 C   0  0  0  0  0  0  0  0  0  0  0  0
    7.6456  -14.2992   21.3499 C   0  0  1  0  0  0  0  0  0  0  0  0
    8.8547  -14.7699   20.5370 C   0  0  0  0  0  0  0  0  0  0  0  0
    7.7930  -14.7887   22.7452 C   0  0  2  0  0  0  0  0  0  0  0  0
    7.5605  -13.6889   23.6620 N   0  0  0  0  0  0  0  0  0  0  0  0
    9.1433  -15.3759   22.9643 C   0  0  0  0  0  0  0  0  0  0  0  0
   10.1670  -14.6863   23.1811 O   0  0  0  0  0  0  0  0  0  0  0  0
    9.3415  -16.8077   22.9369 N   0  0  0  0  0  0  0  0  0  0  0  0
   10.6909  -17.3544   23.1494 C   0  0  1  0  0  0  0  0  0  0  0  0
   10.6549  -18.6226   23.9438 C   0  0  0  0  0  0  0  0  0  0  0  0
   10.2911  -18.4392   25.3481 C   0  0  0  0  0  0  0  0  0  0  0  0
    9.3922  -19.1514   25.8546 O   0  0  0  0  0  0  0  0  0  0  0  0
   11.4020  -17.4840   21.8546 C   0  0  0  0  0  0  0  0  0  0  0  0
   12.6268  -17.5786   21.6865 O   0  0  0  0  0  0  0  0  0  0  0  0
   10.9171  -17.4960   26.1326 O   0  0  0  0  0  0  0  0  0  0  0  0
   10.6227  -17.5075   20.6666 O   0  0  0  0  0  0  0  0  0  0  0  0
  2  1  1  1
  3  2  1  0
  4  3  1  0
  5  2  1  0
  5  6  2  0
  8  7  1  1
  8 10  1  0
  9  8  1  0
 10 11  1  1
 10 12  1  0
 11  5  1  0
 12 14  1  0
 12 13  2  0
 14 15  1  0
 15 16  1  6
 17 16  1  0
 17 21  1  0
 18 17  2  0
 19 15  1  0
 20 19  2  0
 22 19  1  0
M  END
$$$$
