CVD.pdb
     RDKit          3D

 22 21  0  0  1  0  0  0  0  0999 V2000
    7.9325  -14.3409   20.4744 N   0  0  0  0  0  0  0  0  0  0  0  0
    7.2035  -14.8869   21.5953 C   0  0  1  0  0  0  0  0  0  0  0  0
    7.2654  -16.3986   21.4492 C   0  0  0  0  0  0  0  0  0  0  0  0
    6.4901  -17.2219   22.8412 S   0  0  0  0  0  0  0  0  0  0  0  0
    7.8878  -14.5029   22.8750 C   0  0  0  0  0  0  0  0  0  0  0  0
    9.1324  -14.4458   22.8920 O   0  0  0  0  0  0  0  0  0  0  0  0
    7.3145  -12.6246   27.4210 C   0  0  0  0  0  0  0  0  0  0  0  0
    6.8104  -12.9890   26.0582 C   0  0  1  0  0  0  0  0  0  0  0  0
    6.4488  -11.7266   25.2709 C   0  0  0  0  0  0  0  0  0  0  0  0
    7.7665  -13.7923   25.2526 C   0  0  2  0  0  0  0  0  0  0  0  0
    7.1171  -14.2155   24.0266 N   0  0  0  0  0  0  0  0  0  0  0  0
    8.2525  -14.9709   26.0212 C   0  0  0  0  0  0  0  0  0  0  0  0
    7.5634  -16.0003   26.2117 O   0  0  0  0  0  0  0  0  0  0  0  0
    9.5778  -14.9834   26.5985 N   0  0  0  0  0  0  0  0  0  0  0  0
   10.1383  -16.2506   27.0935 C   0  0  1  0  0  0  0  0  0  0  0  0
   11.3352  -16.6732   26.2999 C   0  0  0  0  0  0  0  0  0  0  0  0
   11.9338  -17.9313   26.7436 C   0  0  0  0  0  0  0  0  0  0  0  0
   11.2936  -18.6861   27.5132 O   0  0  0  0  0  0  0  0  0  0  0  0
   10.3922  -16.1647   28.5519 C   0  0  0  0  0  0  0  0  0  0  0  0
   10.8683  -17.0515   29.2761 O   0  0  0  0  0  0  0  0  0  0  0  0
   13.1931  -18.3090   26.3328 O   0  0  0  0  0  0  0  0  0  0  0  0
   10.0678  -14.9497   29.2136 O   0  0  0  0  0  0  0  0  0  0  0  0
  2  1  1  6
  3  2  1  0
  4  3  1  0
  5  2  1  0
  5  6  2  0
  8  7  1  1
  8 10  1  0
  9  8  1  0
 10 11  1  6
 10 12  1  0
 11  5  1  0
 12 14  1  0
 12 13  2  0
 14 15  1  0
 15 16  1  6
 17 16  1  0
 17 21  1  0
 18 17  2  0
 19 15  1  0
 20 19  2  0
 22 19  1  0
M  END
$$$$
