CVD.pdb
     RDKit          3D

 22 21  0  0  1  0  0  0  0  0999 V2000
    5.2671  -13.2420   26.7121 N   0  0  0  0  0  0  0  0  0  0  0  0
    6.5481  -12.9641   26.1058 C   0  0  1  0  0  0  0  0  0  0  0  0
    7.5222  -12.7387   27.2506 C   0  0  0  0  0  0  0  0  0  0  0  0
    9.2090  -12.6032   26.6563 S   0  0  0  0  0  0  0  0  0  0  0  0
    7.0028  -14.1603   25.3211 C   0  0  0  0  0  0  0  0  0  0  0  0
    6.8336  -15.2939   25.8098 O   0  0  0  0  0  0  0  0  0  0  0  0
    6.3065  -14.8009   21.5905 C   0  0  0  0  0  0  0  0  0  0  0  0
    7.7702  -14.9503   21.8722 C   0  0  1  0  0  0  0  0  0  0  0  0
    8.5389  -13.7360   21.3444 C   0  0  0  0  0  0  0  0  0  0  0  0
    8.0959  -15.1286   23.3110 C   0  0  2  0  0  0  0  0  0  0  0  0
    7.6086  -13.9824   24.0545 N   0  0  0  0  0  0  0  0  0  0  0  0
    9.5618  -15.2961   23.5090 C   0  0  0  0  0  0  0  0  0  0  0  0
   10.2583  -14.5101   24.1930 O   0  0  0  0  0  0  0  0  0  0  0  0
   10.2689  -16.4034   22.9057 N   0  0  0  0  0  0  0  0  0  0  0  0
   11.3251  -17.0875   23.6681 C   0  0  1  0  0  0  0  0  0  0  0  0
   10.8163  -17.6020   24.9785 C   0  0  0  0  0  0  0  0  0  0  0  0
   11.8259  -18.2847   25.7863 C   0  0  0  0  0  0  0  0  0  0  0  0
   12.9925  -18.4116   25.3448 O   0  0  0  0  0  0  0  0  0  0  0  0
   11.9704  -18.1277   22.8312 C   0  0  0  0  0  0  0  0  0  0  0  0
   13.1156  -18.0940   22.3570 O   0  0  0  0  0  0  0  0  0  0  0  0
   11.5232  -18.7950   27.0293 O   0  0  0  0  0  0  0  0  0  0  0  0
   11.2219  -19.2969   22.5278 O   0  0  0  0  0  0  0  0  0  0  0  0
  2  1  1  1
  3  2  1  0
  4  3  1  0
  5  2  1  0
  5  6  2  0
  8  7  1  1
  8 10  1  0
  9  8  1  0
 10 11  1  1
 10 12  1  0
 11  5  1  0
 12 14  1  0
 12 13  2  0
 14 15  1  0
 15 16  1  1
 17 16  1  0
 17 21  1  0
 18 17  2  0
 19 15  1  0
 20 19  2  0
 22 19  1  0
M  END
$$$$
