CVD.pdb
     RDKit          3D

 22 21  0  0  1  0  0  0  0  0999 V2000
    8.3990  -17.2928   16.2804 N   0  0  0  0  0  0  0  0  0  0  0  0
    7.6400  -17.0183   17.4781 C   0  0  1  0  0  0  0  0  0  0  0  0
    7.2436  -18.3692   18.0513 C   0  0  0  0  0  0  0  0  0  0  0  0
    8.6835  -19.3843   18.3872 S   0  0  0  0  0  0  0  0  0  0  0  0
    8.5129  -16.3143   18.4759 C   0  0  0  0  0  0  0  0  0  0  0  0
    9.7485  -16.3522   18.3192 O   0  0  0  0  0  0  0  0  0  0  0  0
    7.3297  -12.8288   20.0372 C   0  0  0  0  0  0  0  0  0  0  0  0
    7.9311  -13.7527   21.0514 C   0  0  1  0  0  0  0  0  0  0  0  0
    6.8338  -14.3754   21.9188 C   0  0  0  0  0  0  0  0  0  0  0  0
    8.7500  -14.8458   20.4660 C   0  0  2  0  0  0  0  0  0  0  0  0
    7.9249  -15.6276   19.5648 N   0  0  0  0  0  0  0  0  0  0  0  0
    9.3249  -15.7109   21.5323 C   0  0  0  0  0  0  0  0  0  0  0  0
    8.8646  -16.8389   21.8265 O   0  0  0  0  0  0  0  0  0  0  0  0
   10.4723  -15.2787   22.2982 N   0  0  0  0  0  0  0  0  0  0  0  0
   11.1384  -16.2305   23.2012 C   0  0  1  0  0  0  0  0  0  0  0  0
   12.6067  -15.9586   23.3055 C   0  0  0  0  0  0  0  0  0  0  0  0
   13.3375  -16.9241   24.1252 C   0  0  0  0  0  0  0  0  0  0  0  0
   13.3176  -16.8189   25.3743 O   0  0  0  0  0  0  0  0  0  0  0  0
   10.4458  -16.2654   24.5118 C   0  0  0  0  0  0  0  0  0  0  0  0
   10.6132  -17.0950   25.4181 O   0  0  0  0  0  0  0  0  0  0  0  0
   14.0520  -17.9533   23.5530 O   0  0  0  0  0  0  0  0  0  0  0  0
    9.4869  -15.2529   24.7853 O   0  0  0  0  0  0  0  0  0  0  0  0
  2  1  1  6
  3  2  1  0
  4  3  1  0
  5  2  1  0
  5  6  2  0
  8  7  1  6
  8 10  1  0
  9  8  1  0
 10 11  1  6
 10 12  1  0
 11  5  1  0
 12 14  1  0
 12 13  2  0
 14 15  1  0
 15 16  1  1
 17 16  1  0
 17 21  1  0
 18 17  2  0
 19 15  1  0
 20 19  2  0
 22 19  1  0
M  END
$$$$
