CVD.pdb
     RDKit          3D

 22 21  0  0  1  0  0  0  0  0999 V2000
    8.7858  -17.5684   16.5213 N   0  0  0  0  0  0  0  0  0  0  0  0
    8.0144  -17.5608   17.7422 C   0  0  1  0  0  0  0  0  0  0  0  0
    8.0260  -18.9885   18.2634 C   0  0  0  0  0  0  0  0  0  0  0  0
    7.1338  -19.1257   19.8132 S   0  0  0  0  0  0  0  0  0  0  0  0
    8.6845  -16.6780   18.7546 C   0  0  0  0  0  0  0  0  0  0  0  0
    9.9275  -16.7018   18.8372 O   0  0  0  0  0  0  0  0  0  0  0  0
    8.1013  -13.0803   22.1188 C   0  0  0  0  0  0  0  0  0  0  0  0
    7.6442  -13.8879   20.9428 C   0  0  1  0  0  0  0  0  0  0  0  0
    7.5043  -12.9943   19.7075 C   0  0  0  0  0  0  0  0  0  0  0  0
    8.5371  -15.0267   20.6052 C   0  0  2  0  0  0  0  0  0  0  0  0
    7.9025  -15.8433   19.5882 N   0  0  0  0  0  0  0  0  0  0  0  0
    8.8435  -15.8404   21.8136 C   0  0  0  0  0  0  0  0  0  0  0  0
    8.0133  -16.6066   22.3562 O   0  0  0  0  0  0  0  0  0  0  0  0
   10.1482  -15.7834   22.4336 N   0  0  0  0  0  0  0  0  0  0  0  0
   10.4012  -16.5602   23.6573 C   0  0  1  0  0  0  0  0  0  0  0  0
   11.8623  -16.8168   23.8572 C   0  0  0  0  0  0  0  0  0  0  0  0
   12.5247  -17.4322   22.7080 C   0  0  0  0  0  0  0  0  0  0  0  0
   11.9870  -18.4059   22.1295 O   0  0  0  0  0  0  0  0  0  0  0  0
    9.7466  -15.9137   24.8202 C   0  0  0  0  0  0  0  0  0  0  0  0
    9.3143  -14.7530   24.8782 O   0  0  0  0  0  0  0  0  0  0  0  0
   13.7338  -16.9640   22.2431 O   0  0  0  0  0  0  0  0  0  0  0  0
    9.5824  -16.6825   26.0040 O   0  0  0  0  0  0  0  0  0  0  0  0
  2  1  1  6
  3  2  1  0
  4  3  1  0
  5  2  1  0
  5  6  2  0
  8  7  1  1
  8 10  1  0
  9  8  1  0
 10 11  1  6
 10 12  1  0
 11  5  1  0
 12 14  1  0
 12 13  2  0
 14 15  1  0
 15 16  1  1
 17 16  1  0
 17 21  1  0
 18 17  2  0
 19 15  1  0
 20 19  2  0
 22 19  1  0
M  END
$$$$
