CVD.pdb
     RDKit          3D

 22 21  0  0  1  0  0  0  0  0999 V2000
    6.9874  -14.9861   20.9278 N   0  0  0  0  0  0  0  0  0  0  0  0
    6.6156  -15.3557   22.2736 C   0  0  1  0  0  0  0  0  0  0  0  0
    6.6988  -16.8721   22.3381 C   0  0  0  0  0  0  0  0  0  0  0  0
    6.2426  -17.4830   23.9615 S   0  0  0  0  0  0  0  0  0  0  0  0
    7.6066  -14.7820   23.2443 C   0  0  0  0  0  0  0  0  0  0  0  0
    8.8011  -14.7008   22.8994 O   0  0  0  0  0  0  0  0  0  0  0  0
    6.9642  -11.6256   25.6217 C   0  0  0  0  0  0  0  0  0  0  0  0
    7.4598  -12.8361   26.3518 C   0  0  1  0  0  0  0  0  0  0  0  0
    6.3050  -13.5228   27.0861 C   0  0  0  0  0  0  0  0  0  0  0  0
    8.1301  -13.8371   25.4817 C   0  0  2  0  0  0  0  0  0  0  0  0
    7.1724  -14.3479   24.5195 N   0  0  0  0  0  0  0  0  0  0  0  0
    8.7027  -14.9480   26.2904 C   0  0  0  0  0  0  0  0  0  0  0  0
    8.0129  -15.8805   26.7650 O   0  0  0  0  0  0  0  0  0  0  0  0
   10.1194  -15.0046   26.5729 N   0  0  0  0  0  0  0  0  0  0  0  0
   10.6549  -16.1266   27.3599 C   0  0  1  0  0  0  0  0  0  0  0  0
   12.0607  -16.4571   26.9658 C   0  0  0  0  0  0  0  0  0  0  0  0
   12.2691  -16.5606   25.5222 C   0  0  0  0  0  0  0  0  0  0  0  0
   11.4241  -17.1577   24.8142 O   0  0  0  0  0  0  0  0  0  0  0  0
   10.4907  -15.8613   28.8095 C   0  0  0  0  0  0  0  0  0  0  0  0
   10.1232  -14.7990   29.3328 O   0  0  0  0  0  0  0  0  0  0  0  0
   13.3794  -16.0135   24.9181 O   0  0  0  0  0  0  0  0  0  0  0  0
   10.7748  -16.9181   29.7160 O   0  0  0  0  0  0  0  0  0  0  0  0
  2  1  1  6
  3  2  1  0
  4  3  1  0
  5  2  1  0
  5  6  2  0
  8  7  1  6
  8 10  1  0
  9  8  1  0
 10 11  1  6
 10 12  1  0
 11  5  1  0
 12 14  1  0
 12 13  2  0
 14 15  1  0
 15 16  1  1
 17 16  1  0
 17 21  1  0
 18 17  2  0
 19 15  1  0
 20 19  2  0
 22 19  1  0
M  END
$$$$
