CVD.pdb
     RDKit          3D

 22 21  0  0  1  0  0  0  0  0999 V2000
    7.7195  -13.6973   20.0082 N   0  0  0  0  0  0  0  0  0  0  0  0
    6.8980  -13.8622   21.1845 C   0  0  1  0  0  0  0  0  0  0  0  0
    6.2303  -15.2212   21.0519 C   0  0  0  0  0  0  0  0  0  0  0  0
    7.3997  -16.5532   21.3251 S   0  0  0  0  0  0  0  0  0  0  0  0
    7.7683  -13.8757   22.4075 C   0  0  0  0  0  0  0  0  0  0  0  0
    8.9923  -14.0617   22.2666 O   0  0  0  0  0  0  0  0  0  0  0  0
    7.1145  -11.5905   25.7683 C   0  0  0  0  0  0  0  0  0  0  0  0
    7.3180  -13.0577   25.9918 C   0  0  1  0  0  0  0  0  0  0  0  0
    5.9734  -13.7494   26.2324 C   0  0  0  0  0  0  0  0  0  0  0  0
    8.0144  -13.7503   24.8766 C   0  0  2  0  0  0  0  0  0  0  0  0
    7.1910  -13.6791   23.6846 N   0  0  0  0  0  0  0  0  0  0  0  0
    8.3051  -15.1674   25.2280 C   0  0  0  0  0  0  0  0  0  0  0  0
    7.5411  -16.1185   24.9409 O   0  0  0  0  0  0  0  0  0  0  0  0
    9.5152  -15.5218   25.9351 N   0  0  0  0  0  0  0  0  0  0  0  0
    9.8250  -16.9407   26.1709 C   0  0  1  0  0  0  0  0  0  0  0  0
   10.9422  -17.4157   25.2951 C   0  0  0  0  0  0  0  0  0  0  0  0
   11.3849  -18.7805   25.5769 C   0  0  0  0  0  0  0  0  0  0  0  0
   10.8166  -19.7461   25.0142 O   0  0  0  0  0  0  0  0  0  0  0  0
   10.0581  -17.1821   27.6152 C   0  0  0  0  0  0  0  0  0  0  0  0
   10.2168  -16.3231   28.4953 O   0  0  0  0  0  0  0  0  0  0  0  0
   12.4186  -19.0317   26.4518 O   0  0  0  0  0  0  0  0  0  0  0  0
   10.1070  -18.5289   28.0657 O   0  0  0  0  0  0  0  0  0  0  0  0
  2  1  1  6
  3  2  1  0
  4  3  1  0
  5  2  1  0
  5  6  2  0
  8  7  1  6
  8 10  1  0
  9  8  1  0
 10 11  1  6
 10 12  1  0
 11  5  1  0
 12 14  1  0
 12 13  2  0
 14 15  1  0
 15 16  1  6
 17 16  1  0
 17 21  1  0
 18 17  2  0
 19 15  1  0
 20 19  2  0
 22 19  1  0
M  END
$$$$
