CVD.pdb
     RDKit          3D

 22 21  0  0  1  0  0  0  0  0999 V2000
    7.4606  -15.6645   20.7673 N   0  0  0  0  0  0  0  0  0  0  0  0
    6.9660  -15.8280   22.1143 C   0  0  1  0  0  0  0  0  0  0  0  0
    7.0502  -17.3140   22.4226 C   0  0  0  0  0  0  0  0  0  0  0  0
    6.4860  -17.6689   24.0876 S   0  0  0  0  0  0  0  0  0  0  0  0
    7.8585  -15.0912   23.0703 C   0  0  0  0  0  0  0  0  0  0  0  0
    9.0913  -15.1441   22.8969 O   0  0  0  0  0  0  0  0  0  0  0  0
    6.1016  -13.2365   26.5115 C   0  0  0  0  0  0  0  0  0  0  0  0
    7.3876  -12.7544   25.9133 C   0  0  1  0  0  0  0  0  0  0  0  0
    8.2953  -12.1756   27.0021 C   0  0  0  0  0  0  0  0  0  0  0  0
    8.1419  -13.7995   25.1737 C   0  0  2  0  0  0  0  0  0  0  0  0
    7.2916  -14.3575   24.1395 N   0  0  0  0  0  0  0  0  0  0  0  0
    8.6149  -14.8685   26.0955 C   0  0  0  0  0  0  0  0  0  0  0  0
    7.8567  -15.7331   26.5936 O   0  0  0  0  0  0  0  0  0  0  0  0
   10.0085  -14.9617   26.4684 N   0  0  0  0  0  0  0  0  0  0  0  0
   10.4546  -16.0717   27.3250 C   0  0  1  0  0  0  0  0  0  0  0  0
   11.8589  -16.4833   27.0101 C   0  0  0  0  0  0  0  0  0  0  0  0
   12.1255  -16.6590   25.5831 C   0  0  0  0  0  0  0  0  0  0  0  0
   11.4452  -17.4777   24.9207 O   0  0  0  0  0  0  0  0  0  0  0  0
   10.2396  -15.7363   28.7533 C   0  0  0  0  0  0  0  0  0  0  0  0
   10.0527  -14.6073   29.2307 O   0  0  0  0  0  0  0  0  0  0  0  0
   13.1131  -15.9412   24.9456 O   0  0  0  0  0  0  0  0  0  0  0  0
   10.2404  -16.8008   29.6945 O   0  0  0  0  0  0  0  0  0  0  0  0
  2  1  1  6
  3  2  1  0
  4  3  1  0
  5  2  1  0
  5  6  2  0
  8  7  1  1
  8 10  1  0
  9  8  1  0
 10 11  1  6
 10 12  1  0
 11  5  1  0
 12 14  1  0
 12 13  2  0
 14 15  1  0
 15 16  1  1
 17 16  1  0
 17 21  1  0
 18 17  2  0
 19 15  1  0
 20 19  2  0
 22 19  1  0
M  END
$$$$
