CVD.pdb
     RDKit          3D

 22 21  0  0  1  0  0  0  0  0999 V2000
    5.0231  -12.6986   26.1683 N   0  0  0  0  0  0  0  0  0  0  0  0
    6.4007  -12.5690   25.7544 C   0  0  1  0  0  0  0  0  0  0  0  0
    7.2209  -12.4590   27.0294 C   0  0  0  0  0  0  0  0  0  0  0  0
    8.9450  -12.1202   26.6701 S   0  0  0  0  0  0  0  0  0  0  0  0
    6.8237  -13.8083   25.0206 C   0  0  0  0  0  0  0  0  0  0  0  0
    6.5671  -14.9179   25.5261 O   0  0  0  0  0  0  0  0  0  0  0  0
    6.5670  -14.1737   21.0285 C   0  0  0  0  0  0  0  0  0  0  0  0
    7.8964  -14.5740   21.5912 C   0  0  1  0  0  0  0  0  0  0  0  0
    8.9293  -13.4701   21.3492 C   0  0  0  0  0  0  0  0  0  0  0  0
    7.8705  -14.8888   23.0433 C   0  0  2  0  0  0  0  0  0  0  0  0
    7.4986  -13.6970   23.7816 N   0  0  0  0  0  0  0  0  0  0  0  0
    9.1921  -15.3976   23.5021 C   0  0  0  0  0  0  0  0  0  0  0  0
   10.1090  -14.6527   23.9204 O   0  0  0  0  0  0  0  0  0  0  0  0
    9.4868  -16.8128   23.4866 N   0  0  0  0  0  0  0  0  0  0  0  0
   10.7850  -17.2860   23.9925 C   0  0  1  0  0  0  0  0  0  0  0  0
   10.6239  -18.4313   24.9428 C   0  0  0  0  0  0  0  0  0  0  0  0
   11.8782  -18.9083   25.5234 C   0  0  0  0  0  0  0  0  0  0  0  0
   12.9612  -18.3741   25.1863 O   0  0  0  0  0  0  0  0  0  0  0  0
   11.7015  -17.5749   22.8632 C   0  0  0  0  0  0  0  0  0  0  0  0
   11.3918  -17.7007   21.6692 O   0  0  0  0  0  0  0  0  0  0  0  0
   11.8978  -19.9377   26.4383 O   0  0  0  0  0  0  0  0  0  0  0  0
   13.0850  -17.7257   23.1505 O   0  0  0  0  0  0  0  0  0  0  0  0
  2  1  1  1
  3  2  1  0
  4  3  1  0
  5  2  1  0
  5  6  2  0
  8  7  1  1
  8 10  1  0
  9  8  1  0
 10 11  1  1
 10 12  1  0
 11  5  1  0
 12 14  1  0
 12 13  2  0
 14 15  1  0
 15 16  1  6
 17 16  1  0
 17 21  1  0
 18 17  2  0
 19 15  1  0
 20 19  2  0
 22 19  1  0
M  END
$$$$
