CVD.pdb
     RDKit          3D

 22 21  0  0  1  0  0  0  0  0999 V2000
    8.1514  -17.2466   16.3748 N   0  0  0  0  0  0  0  0  0  0  0  0
    7.6269  -17.2311   17.7203 C   0  0  1  0  0  0  0  0  0  0  0  0
    7.6217  -18.6757   18.1932 C   0  0  0  0  0  0  0  0  0  0  0  0
    7.0456  -18.8069   19.8866 S   0  0  0  0  0  0  0  0  0  0  0  0
    8.5444  -16.4418   18.6084 C   0  0  0  0  0  0  0  0  0  0  0  0
    9.7745  -16.5503   18.4423 O   0  0  0  0  0  0  0  0  0  0  0  0
    7.8665  -12.7064   19.8444 C   0  0  0  0  0  0  0  0  0  0  0  0
    8.2191  -13.6381   20.9632 C   0  0  1  0  0  0  0  0  0  0  0  0
    6.9667  -14.0029   21.7648 C   0  0  0  0  0  0  0  0  0  0  0  0
    8.8814  -14.8930   20.5216 C   0  0  2  0  0  0  0  0  0  0  0  0
    8.0033  -15.5977   19.6071 N   0  0  0  0  0  0  0  0  0  0  0  0
    9.2232  -15.7539   21.6869 C   0  0  0  0  0  0  0  0  0  0  0  0
    8.4862  -16.6804   22.0980 O   0  0  0  0  0  0  0  0  0  0  0  0
   10.4548  -15.5563   22.4177 N   0  0  0  0  0  0  0  0  0  0  0  0
   10.8175  -16.4964   23.4899 C   0  0  1  0  0  0  0  0  0  0  0  0
   12.2957  -16.5242   23.7243 C   0  0  0  0  0  0  0  0  0  0  0  0
   13.0914  -16.6917   22.5091 C   0  0  0  0  0  0  0  0  0  0  0  0
   12.6976  -17.4741   21.6120 O   0  0  0  0  0  0  0  0  0  0  0  0
   10.0272  -16.2112   24.7117 C   0  0  0  0  0  0  0  0  0  0  0  0
    9.3027  -15.2254   24.9140 O   0  0  0  0  0  0  0  0  0  0  0  0
   14.2714  -16.0052   22.3256 O   0  0  0  0  0  0  0  0  0  0  0  0
   10.0856  -17.1502   25.7766 O   0  0  0  0  0  0  0  0  0  0  0  0
  2  1  1  6
  3  2  1  0
  4  3  1  0
  5  2  1  0
  5  6  2  0
  8  7  1  6
  8 10  1  0
  9  8  1  0
 10 11  1  6
 10 12  1  0
 11  5  1  0
 12 14  1  0
 12 13  2  0
 14 15  1  0
 15 16  1  1
 17 16  1  0
 17 21  1  0
 18 17  2  0
 19 15  1  0
 20 19  2  0
 22 19  1  0
M  END
$$$$
