CVD.pdb
     RDKit          3D

 22 21  0  0  1  0  0  0  0  0999 V2000
    8.7836  -18.1670   16.6706 N   0  0  0  0  0  0  0  0  0  0  0  0
    7.8399  -17.7686   17.6886 C   0  0  1  0  0  0  0  0  0  0  0  0
    7.3266  -19.0522   18.3206 C   0  0  0  0  0  0  0  0  0  0  0  0
    6.1055  -19.8510   17.2779 S   0  0  0  0  0  0  0  0  0  0  0  0
    8.5465  -16.9672   18.7430 C   0  0  0  0  0  0  0  0  0  0  0  0
    9.7809  -17.0910   18.8592 O   0  0  0  0  0  0  0  0  0  0  0  0
    6.4095  -13.8883   20.9533 C   0  0  0  0  0  0  0  0  0  0  0  0
    7.8197  -13.8662   20.4482 C   0  0  1  0  0  0  0  0  0  0  0  0
    8.6575  -12.8719   21.2567 C   0  0  0  0  0  0  0  0  0  0  0  0
    8.4954  -15.1893   20.4778 C   0  0  2  0  0  0  0  0  0  0  0  0
    7.8076  -16.0948   19.5773 N   0  0  0  0  0  0  0  0  0  0  0  0
    8.5209  -15.7441   21.8590 C   0  0  0  0  0  0  0  0  0  0  0  0
    7.5927  -16.4348   22.3407 O   0  0  0  0  0  0  0  0  0  0  0  0
    9.6483  -15.5059   22.7321 N   0  0  0  0  0  0  0  0  0  0  0  0
   10.4395  -16.6473   23.2180 C   0  0  1  0  0  0  0  0  0  0  0  0
   10.8970  -17.5220   22.0927 C   0  0  0  0  0  0  0  0  0  0  0  0
   11.7053  -18.6655   22.5138 C   0  0  0  0  0  0  0  0  0  0  0  0
   12.4896  -19.2054   21.6982 O   0  0  0  0  0  0  0  0  0  0  0  0
   11.5423  -16.1737   24.0890 C   0  0  0  0  0  0  0  0  0  0  0  0
   11.6653  -16.3745   25.3064 O   0  0  0  0  0  0  0  0  0  0  0  0
   11.6245  -19.1666   23.7943 O   0  0  0  0  0  0  0  0  0  0  0  0
   12.5812  -15.4102   23.4917 O   0  0  0  0  0  0  0  0  0  0  0  0
  2  1  1  6
  3  2  1  0
  4  3  1  0
  5  2  1  0
  5  6  2  0
  8  7  1  1
  8 10  1  0
  9  8  1  0
 10 11  1  6
 10 12  1  0
 11  5  1  0
 12 14  1  0
 12 13  2  0
 14 15  1  0
 15 16  1  6
 17 16  1  0
 17 21  1  0
 18 17  2  0
 19 15  1  0
 20 19  2  0
 22 19  1  0
M  END
$$$$
