CTR.pdb
     RDKit          3D

 25 24  0  0  1  0  0  0  0  0999 V2000
   28.7202  -19.2829  -18.2056 N   0  0  0  0  0  0  0  0  0  0  0  0
   28.1344  -18.7007  -17.0355 C   0  0  1  0  0  0  0  0  0  0  0  0
   26.8629  -17.9363  -17.3753 C   0  0  0  0  0  0  0  0  0  0  0  0
   26.1913  -17.0759  -15.9317 S   0  0  0  0  0  0  0  0  0  0  0  0
   27.7795  -19.7192  -16.0138 C   0  0  0  0  0  0  0  0  0  0  0  0
   27.1920  -20.7532  -16.3890 O   0  0  0  0  0  0  0  0  0  0  0  0
   30.2776  -21.1655  -13.6727 C   0  0  0  0  0  0  0  0  0  0  0  0
   29.0823  -20.7744  -12.8777 C   0  0  1  0  0  0  0  0  0  0  0  0
   29.3518  -19.4951  -12.3341 O   0  0  0  0  0  0  0  0  0  0  0  0
   27.8043  -20.6295  -13.6459 C   0  0  2  0  0  0  0  0  0  0  0  0
   28.0766  -19.5695  -14.6385 N   0  0  0  0  0  0  0  0  0  0  0  0
   26.6411  -20.2095  -12.8624 C   0  0  0  0  0  0  0  0  0  0  0  0
   26.4373  -18.9875  -12.5585 O   0  0  0  0  0  0  0  0  0  0  0  0
   20.6095  -22.0066  -14.5891 N   0  0  0  0  0  0  0  0  0  0  0  0
   19.9477  -20.9101  -13.9875 C   0  0  0  0  0  0  0  0  0  0  0  0
   19.2433  -20.1145  -14.7143 N   0  0  0  0  0  0  0  0  0  0  0  0
   20.0192  -20.6352  -12.5942 N   0  0  0  0  0  0  0  0  0  0  0  0
   20.7646  -21.4426  -11.6547 C   0  0  0  0  0  0  0  0  0  0  0  0
   22.0476  -20.7933  -11.2330 C   0  0  0  0  0  0  0  0  0  0  0  0
   23.2607  -21.2103  -11.9725 C   0  0  0  0  0  0  0  0  0  0  0  0
   24.5696  -20.6925  -11.5125 C   0  0  2  0  0  0  0  0  0  0  0  0
   25.6641  -21.1211  -12.3881 N   0  0  0  0  0  0  0  0  0  0  0  0
   24.8850  -20.9266  -10.0890 C   0  0  0  0  0  0  0  0  0  0  0  0
   24.3114  -20.3067   -9.1633 O   0  0  0  0  0  0  0  0  0  0  0  0
   25.8483  -21.8597   -9.7363 O   0  0  0  0  0  0  0  0  0  0  0  0
  2  1  1  6
  3  2  1  0
  3  4  1  0
  5  6  2  0
  5  2  1  0
  8  7  1  6
  8 10  1  0
  9  8  1  0
 10 12  1  0
 10 11  1  6
 11  5  1  0
 12 22  1  0
 13 12  2  0
 15 17  1  0
 15 14  1  0
 16 15  2  0
 18 17  1  0
 19 18  1  0
 20 19  1  0
 21 20  1  6
 22 21  1  0
 23 21  1  0
 23 25  1  0
 24 23  2  0
M  END
$$$$
