CTR.pdb
     RDKit          3D

 25 24  0  0  1  0  0  0  0  0999 V2000
   25.3307  -22.3399   -9.5168 N   0  0  0  0  0  0  0  0  0  0  0  0
   24.7958  -21.2331  -10.2516 C   0  0  1  0  0  0  0  0  0  0  0  0
   24.9763  -19.9262   -9.4927 C   0  0  0  0  0  0  0  0  0  0  0  0
   23.6143  -19.6265   -8.3394 S   0  0  0  0  0  0  0  0  0  0  0  0
   25.4438  -21.0683  -11.5782 C   0  0  0  0  0  0  0  0  0  0  0  0
   26.6893  -21.0281  -11.6269 O   0  0  0  0  0  0  0  0  0  0  0  0
   25.1512  -23.4578  -14.3190 C   0  0  0  0  0  0  0  0  0  0  0  0
   24.7776  -22.1145  -14.8383 C   0  0  1  0  0  0  0  0  0  0  0  0
   23.3747  -21.9932  -14.6904 O   0  0  0  0  0  0  0  0  0  0  0  0
   25.3665  -20.9447  -14.1110 C   0  0  2  0  0  0  0  0  0  0  0  0
   24.7143  -20.9549  -12.7853 N   0  0  0  0  0  0  0  0  0  0  0  0
   25.1150  -19.6346  -14.7144 C   0  0  0  0  0  0  0  0  0  0  0  0
   24.1370  -18.9006  -14.3512 O   0  0  0  0  0  0  0  0  0  0  0  0
   27.0234  -15.3416  -21.5829 N   0  0  0  0  0  0  0  0  0  0  0  0
   27.2245  -14.2189  -20.7456 C   0  0  0  0  0  0  0  0  0  0  0  0
   27.0755  -13.0328  -21.2238 N   0  0  0  0  0  0  0  0  0  0  0  0
   27.5883  -14.3326  -19.3757 N   0  0  0  0  0  0  0  0  0  0  0  0
   27.8150  -15.5950  -18.7084 C   0  0  0  0  0  0  0  0  0  0  0  0
   26.6678  -15.9929  -17.8302 C   0  0  0  0  0  0  0  0  0  0  0  0
   26.8242  -17.2685  -17.0948 C   0  0  0  0  0  0  0  0  0  0  0  0
   25.6715  -17.7661  -16.3098 C   0  0  2  0  0  0  0  0  0  0  0  0
   25.9322  -19.0899  -15.7371 N   0  0  0  0  0  0  0  0  0  0  0  0
   24.3631  -17.7142  -16.9925 C   0  0  0  0  0  0  0  0  0  0  0  0
   23.9075  -18.6815  -17.6458 O   0  0  0  0  0  0  0  0  0  0  0  0
   23.5909  -16.5642  -16.9254 O   0  0  0  0  0  0  0  0  0  0  0  0
  2  1  1  1
  3  2  1  0
  3  4  1  0
  5  6  2  0
  5  2  1  0
  8  7  1  1
  8 10  1  0
  9  8  1  0
 10 12  1  0
 10 11  1  1
 11  5  1  0
 12 22  1  0
 13 12  2  0
 15 17  1  0
 15 14  1  0
 16 15  2  0
 18 17  1  0
 19 18  1  0
 20 19  1  0
 21 20  1  6
 22 21  1  0
 23 21  1  0
 23 25  1  0
 24 23  2  0
M  END
$$$$
