CTR.pdb
     RDKit          3D

 25 24  0  0  1  0  0  0  0  0999 V2000
   17.5234  -26.2081   -7.5339 N   0  0  0  0  0  0  0  0  0  0  0  0
   17.8267  -24.8475   -7.8623 C   0  0  1  0  0  0  0  0  0  0  0  0
   18.9210  -24.2919   -6.9622 C   0  0  0  0  0  0  0  0  0  0  0  0
   18.4799  -24.4209   -5.2118 S   0  0  0  0  0  0  0  0  0  0  0  0
   18.2869  -24.6933   -9.2664 C   0  0  0  0  0  0  0  0  0  0  0  0
   18.9218  -25.6320   -9.7869 O   0  0  0  0  0  0  0  0  0  0  0  0
   16.0349  -24.5439  -12.0203 C   0  0  0  0  0  0  0  0  0  0  0  0
   16.9073  -23.3411  -12.0982 C   0  0  1  0  0  0  0  0  0  0  0  0
   16.2639  -22.3191  -11.3594 O   0  0  0  0  0  0  0  0  0  0  0  0
   18.2716  -23.4822  -11.4956 C   0  0  2  0  0  0  0  0  0  0  0  0
   18.0386  -23.5331  -10.0374 N   0  0  0  0  0  0  0  0  0  0  0  0
   19.1937  -22.3750  -11.7548 C   0  0  0  0  0  0  0  0  0  0  0  0
   19.3530  -21.4204  -10.9238 O   0  0  0  0  0  0  0  0  0  0  0  0
   27.6469  -21.3752  -14.1222 N   0  0  0  0  0  0  0  0  0  0  0  0
   26.9661  -20.2112  -14.5509 C   0  0  0  0  0  0  0  0  0  0  0  0
   27.6269  -19.2530  -15.1010 N   0  0  0  0  0  0  0  0  0  0  0  0
   25.5620  -20.0403  -14.4054 N   0  0  0  0  0  0  0  0  0  0  0  0
   24.6910  -21.0297  -13.8114 C   0  0  0  0  0  0  0  0  0  0  0  0
   23.2776  -20.5478  -13.6866 C   0  0  0  0  0  0  0  0  0  0  0  0
   22.2758  -21.5660  -13.2968 C   0  0  0  0  0  0  0  0  0  0  0  0
   20.8601  -21.1453  -13.1891 C   0  0  2  0  0  0  0  0  0  0  0  0
   19.9706  -22.2826  -12.9373 N   0  0  0  0  0  0  0  0  0  0  0  0
   20.3611  -20.2939  -14.2877 C   0  0  0  0  0  0  0  0  0  0  0  0
   19.7477  -20.7624  -15.2748 O   0  0  0  0  0  0  0  0  0  0  0  0
   20.5667  -18.9230  -14.2510 O   0  0  0  0  0  0  0  0  0  0  0  0
  2  1  1  1
  3  2  1  0
  3  4  1  0
  5  6  2  0
  5  2  1  0
  8  7  1  1
  8 10  1  0
  9  8  1  0
 10 12  1  0
 10 11  1  1
 11  5  1  0
 12 22  1  0
 13 12  2  0
 15 17  1  0
 15 14  1  0
 16 15  2  0
 18 17  1  0
 19 18  1  0
 20 19  1  0
 21 20  1  6
 22 21  1  0
 23 21  1  0
 23 25  1  0
 24 23  2  0
M  END
$$$$
