CTR.pdb
     RDKit          3D

 25 24  0  0  1  0  0  0  0  0999 V2000
   11.7373   -8.5000  -10.4804 N   0  0  0  0  0  0  0  0  0  0  0  0
   12.5278   -9.4850  -11.1557 C   0  0  1  0  0  0  0  0  0  0  0  0
   11.6742  -10.6567  -11.6193 C   0  0  0  0  0  0  0  0  0  0  0  0
   12.3177  -12.2363  -11.0142 S   0  0  0  0  0  0  0  0  0  0  0  0
   13.2143   -8.9357  -12.3532 C   0  0  0  0  0  0  0  0  0  0  0  0
   12.5623   -8.2050  -13.1253 O   0  0  0  0  0  0  0  0  0  0  0  0
   13.9799   -6.4892  -13.3766 C   0  0  0  0  0  0  0  0  0  0  0  0
   15.2954   -7.1554  -13.5747 C   0  0  1  0  0  0  0  0  0  0  0  0
   16.0192   -7.0012  -12.3677 O   0  0  0  0  0  0  0  0  0  0  0  0
   15.2495   -8.6297  -13.8368 C   0  0  2  0  0  0  0  0  0  0  0  0
   14.5702   -9.2035  -12.6568 N   0  0  0  0  0  0  0  0  0  0  0  0
   16.5505   -9.2898  -13.9591 C   0  0  0  0  0  0  0  0  0  0  0  0
   17.2068   -9.6828  -12.9383 O   0  0  0  0  0  0  0  0  0  0  0  0
   19.2085  -16.5940  -17.1356 N   0  0  0  0  0  0  0  0  0  0  0  0
   18.8242  -16.0345  -15.8941 C   0  0  0  0  0  0  0  0  0  0  0  0
   18.2926  -16.7859  -14.9940 N   0  0  0  0  0  0  0  0  0  0  0  0
   18.9989  -14.6586  -15.5802 N   0  0  0  0  0  0  0  0  0  0  0  0
   19.5658  -13.6931  -16.4950 C   0  0  0  0  0  0  0  0  0  0  0  0
   19.6790  -12.3274  -15.8887 C   0  0  0  0  0  0  0  0  0  0  0  0
   18.4201  -11.5543  -15.7887 C   0  0  0  0  0  0  0  0  0  0  0  0
   18.4968  -10.1577  -15.3026 C   0  0  2  0  0  0  0  0  0  0  0  0
   17.1714   -9.5390  -15.2092 N   0  0  0  0  0  0  0  0  0  0  0  0
   19.4578   -9.2869  -16.0089 C   0  0  0  0  0  0  0  0  0  0  0  0
   19.0974   -8.4403  -16.8596 O   0  0  0  0  0  0  0  0  0  0  0  0
   20.8144   -9.3905  -15.7410 O   0  0  0  0  0  0  0  0  0  0  0  0
  2  1  1  6
  3  2  1  0
  3  4  1  0
  5  6  2  0
  5  2  1  0
  8  7  1  1
  8 10  1  0
  9  8  1  0
 10 12  1  0
 10 11  1  1
 11  5  1  0
 12 22  1  0
 13 12  2  0
 15 17  1  0
 15 14  1  0
 16 15  2  0
 18 17  1  0
 19 18  1  0
 20 19  1  0
 21 20  1  6
 22 21  1  0
 23 21  1  0
 23 25  1  0
 24 23  2  0
M  END
$$$$
