CTR.pdb
     RDKit          3D

 25 24  0  0  1  0  0  0  0  0999 V2000
   21.2124  -10.2758  -15.6206 N   0  0  0  0  0  0  0  0  0  0  0  0
   20.0393   -9.4605  -15.5204 C   0  0  1  0  0  0  0  0  0  0  0  0
   18.7836  -10.3111  -15.3932 C   0  0  0  0  0  0  0  0  0  0  0  0
   18.5866  -11.4312  -16.8009 S   0  0  0  0  0  0  0  0  0  0  0  0
   20.0801   -8.5521  -14.3456 C   0  0  0  0  0  0  0  0  0  0  0  0
   20.4039   -9.0296  -13.2400 O   0  0  0  0  0  0  0  0  0  0  0  0
   22.1975   -5.6023  -13.9027 C   0  0  0  0  0  0  0  0  0  0  0  0
   20.7885   -5.1859  -13.6680 C   0  0  1  0  0  0  0  0  0  0  0  0
   20.2948   -4.6959  -14.9011 O   0  0  0  0  0  0  0  0  0  0  0  0
   19.8449   -6.2737  -13.2548 C   0  0  2  0  0  0  0  0  0  0  0  0
   19.7687   -7.1740  -14.4238 N   0  0  0  0  0  0  0  0  0  0  0  0
   18.4812   -5.8416  -12.9433 C   0  0  0  0  0  0  0  0  0  0  0  0
   17.5795   -5.7527  -13.8411 O   0  0  0  0  0  0  0  0  0  0  0  0
   12.8408   -6.1958   -6.0010 N   0  0  0  0  0  0  0  0  0  0  0  0
   12.7916   -6.7714   -7.2927 C   0  0  0  0  0  0  0  0  0  0  0  0
   12.0944   -7.8356   -7.4896 N   0  0  0  0  0  0  0  0  0  0  0  0
   13.4840   -6.2253   -8.4081 N   0  0  0  0  0  0  0  0  0  0  0  0
   14.3922   -5.1040   -8.3177 C   0  0  0  0  0  0  0  0  0  0  0  0
   14.9106   -4.6771   -9.6573 C   0  0  0  0  0  0  0  0  0  0  0  0
   16.1986   -5.2751  -10.0764 C   0  0  0  0  0  0  0  0  0  0  0  0
   16.7693   -4.8590  -11.3780 C   0  0  2  0  0  0  0  0  0  0  0  0
   18.0656   -5.4935  -11.6331 N   0  0  0  0  0  0  0  0  0  0  0  0
   16.8168   -3.4029  -11.6188 C   0  0  0  0  0  0  0  0  0  0  0  0
   15.8400   -2.7658  -12.0773 O   0  0  0  0  0  0  0  0  0  0  0  0
   17.9729   -2.6907  -11.3375 O   0  0  0  0  0  0  0  0  0  0  0  0
  2  1  1  1
  3  2  1  0
  3  4  1  0
  5  6  2  0
  5  2  1  0
  8  7  1  6
  8 10  1  0
  9  8  1  0
 10 12  1  0
 10 11  1  6
 11  5  1  0
 12 22  1  0
 13 12  2  0
 15 17  1  0
 15 14  1  0
 16 15  2  0
 18 17  1  0
 19 18  1  0
 20 19  1  0
 21 20  1  1
 22 21  1  0
 23 21  1  0
 23 25  1  0
 24 23  2  0
M  END
$$$$
