CTR.pdb
     RDKit          3D

 25 24  0  0  1  0  0  0  0  0999 V2000
   20.3960  -18.5290  -15.6182 N   0  0  0  0  0  0  0  0  0  0  0  0
   19.4832  -17.4579  -15.3522 C   0  0  1  0  0  0  0  0  0  0  0  0
   19.6388  -16.9389  -13.9299 C   0  0  0  0  0  0  0  0  0  0  0  0
   19.0818  -18.1523  -12.7083 S   0  0  0  0  0  0  0  0  0  0  0  0
   19.6806  -16.3054  -16.2686 C   0  0  0  0  0  0  0  0  0  0  0  0
   20.8315  -15.8425  -16.3969 O   0  0  0  0  0  0  0  0  0  0  0  0
   18.8633  -16.3373  -19.8791 C   0  0  0  0  0  0  0  0  0  0  0  0
   18.2139  -15.1533  -19.2546 C   0  0  1  0  0  0  0  0  0  0  0  0
   16.9043  -15.5486  -18.8897 O   0  0  0  0  0  0  0  0  0  0  0  0
   18.8510  -14.6446  -17.9977 C   0  0  2  0  0  0  0  0  0  0  0  0
   18.6253  -15.7107  -16.9999 N   0  0  0  0  0  0  0  0  0  0  0  0
   18.2817  -13.4089  -17.4570 C   0  0  0  0  0  0  0  0  0  0  0  0
   17.3292  -13.4191  -16.6086 O   0  0  0  0  0  0  0  0  0  0  0  0
   21.5274   -6.9752  -13.3201 N   0  0  0  0  0  0  0  0  0  0  0  0
   20.7489   -8.1548  -13.2520 C   0  0  0  0  0  0  0  0  0  0  0  0
   20.6992   -8.8226  -12.1524 N   0  0  0  0  0  0  0  0  0  0  0  0
   20.0017   -8.6515  -14.3552 N   0  0  0  0  0  0  0  0  0  0  0  0
   19.6448   -7.8532  -15.5065 C   0  0  0  0  0  0  0  0  0  0  0  0
   18.7221   -8.5754  -16.4406 C   0  0  0  0  0  0  0  0  0  0  0  0
   19.1755   -9.9076  -16.9011 C   0  0  0  0  0  0  0  0  0  0  0  0
   18.1457  -10.8992  -17.2872 C   0  0  2  0  0  0  0  0  0  0  0  0
   18.7427  -12.1217  -17.8324 N   0  0  0  0  0  0  0  0  0  0  0  0
   17.0596  -10.3902  -18.1487 C   0  0  0  0  0  0  0  0  0  0  0  0
   16.3405   -9.4184  -17.8192 O   0  0  0  0  0  0  0  0  0  0  0  0
   16.8040  -10.9927  -19.3713 O   0  0  0  0  0  0  0  0  0  0  0  0
  2  1  1  6
  3  2  1  0
  3  4  1  0
  5  6  2  0
  5  2  1  0
  8  7  1  1
  8 10  1  0
  9  8  1  0
 10 12  1  0
 10 11  1  1
 11  5  1  0
 12 22  1  0
 13 12  2  0
 15 17  1  0
 15 14  1  0
 16 15  2  0
 18 17  1  0
 19 18  1  0
 20 19  1  0
 21 20  1  6
 22 21  1  0
 23 21  1  0
 23 25  1  0
 24 23  2  0
M  END
$$$$
