CTR.pdb
     RDKit          3D

 25 24  0  0  1  0  0  0  0  0999 V2000
   27.4241  -14.7643  -15.4093 N   0  0  0  0  0  0  0  0  0  0  0  0
   27.5515  -14.0367  -16.6363 C   0  0  1  0  0  0  0  0  0  0  0  0
   26.5909  -14.5624  -17.6934 C   0  0  0  0  0  0  0  0  0  0  0  0
   26.6817  -16.3634  -17.8461 S   0  0  0  0  0  0  0  0  0  0  0  0
   27.2733  -12.5873  -16.4662 C   0  0  0  0  0  0  0  0  0  0  0  0
   26.5412  -12.2328  -15.5209 O   0  0  0  0  0  0  0  0  0  0  0  0
   28.4394   -7.9828  -18.0851 C   0  0  0  0  0  0  0  0  0  0  0  0
   28.5334   -9.4668  -18.0325 C   0  0  1  0  0  0  0  0  0  0  0  0
   29.8289   -9.7791  -17.5543 O   0  0  0  0  0  0  0  0  0  0  0  0
   27.5796  -10.1503  -17.1012 C   0  0  2  0  0  0  0  0  0  0  0  0
   27.7993  -11.5940  -17.3257 N   0  0  0  0  0  0  0  0  0  0  0  0
   26.1608   -9.8793  -17.3402 C   0  0  0  0  0  0  0  0  0  0  0  0
   25.5114  -10.4559  -18.2746 O   0  0  0  0  0  0  0  0  0  0  0  0
   19.0965  -13.5731  -16.6071 N   0  0  0  0  0  0  0  0  0  0  0  0
   18.7107  -12.2643  -16.9817 C   0  0  0  0  0  0  0  0  0  0  0  0
   17.4968  -12.0377  -17.3458 N   0  0  0  0  0  0  0  0  0  0  0  0
   19.6100  -11.1628  -16.9757 N   0  0  0  0  0  0  0  0  0  0  0  0
   21.0265  -11.2856  -16.7137 C   0  0  0  0  0  0  0  0  0  0  0  0
   21.7476   -9.9778  -16.8383 C   0  0  0  0  0  0  0  0  0  0  0  0
   23.2216  -10.0337  -16.7099 C   0  0  0  0  0  0  0  0  0  0  0  0
   23.9755   -8.7608  -16.7749 C   0  0  2  0  0  0  0  0  0  0  0  0
   25.4106   -8.9650  -16.5582 N   0  0  0  0  0  0  0  0  0  0  0  0
   23.4478   -7.6621  -15.9411 C   0  0  0  0  0  0  0  0  0  0  0  0
   24.1209   -7.1287  -15.0286 O   0  0  0  0  0  0  0  0  0  0  0  0
   22.1630   -7.1857  -16.1536 O   0  0  0  0  0  0  0  0  0  0  0  0
  2  1  1  1
  3  2  1  0
  3  4  1  0
  5  6  2  0
  5  2  1  0
  8  7  1  1
  8 10  1  0
  9  8  1  0
 10 12  1  0
 10 11  1  6
 11  5  1  0
 12 22  1  0
 13 12  2  0
 15 17  1  0
 15 14  1  0
 16 15  2  0
 18 17  1  0
 19 18  1  0
 20 19  1  0
 21 20  1  1
 22 21  1  0
 23 21  1  0
 23 25  1  0
 24 23  2  0
M  END
$$$$
