CTR.pdb
     RDKit          3D

 25 24  0  0  1  0  0  0  0  0999 V2000
   24.3423  -20.5248  -17.4018 N   0  0  0  0  0  0  0  0  0  0  0  0
   23.2666  -21.3866  -17.0127 C   0  0  1  0  0  0  0  0  0  0  0  0
   23.6340  -22.8511  -17.2047 C   0  0  0  0  0  0  0  0  0  0  0  0
   23.7399  -23.2921  -18.9567 S   0  0  0  0  0  0  0  0  0  0  0  0
   22.8858  -21.2084  -15.5878 C   0  0  0  0  0  0  0  0  0  0  0  0
   23.7710  -20.8701  -14.7771 O   0  0  0  0  0  0  0  0  0  0  0  0
   21.5039  -18.5826  -14.2347 C   0  0  0  0  0  0  0  0  0  0  0  0
   20.5595  -19.6722  -13.8677 C   0  0  1  0  0  0  0  0  0  0  0  0
   19.6114  -19.7633  -14.9152 O   0  0  0  0  0  0  0  0  0  0  0  0
   21.1569  -21.0401  -13.7389 C   0  0  2  0  0  0  0  0  0  0  0  0
   21.5684  -21.4048  -15.1102 N   0  0  0  0  0  0  0  0  0  0  0  0
   20.2477  -22.0833  -13.2608 C   0  0  0  0  0  0  0  0  0  0  0  0
   19.5681  -22.8060  -14.0627 O   0  0  0  0  0  0  0  0  0  0  0  0
   18.4609  -25.7802   -5.0377 N   0  0  0  0  0  0  0  0  0  0  0  0
   17.3152  -25.6481   -5.8577 C   0  0  0  0  0  0  0  0  0  0  0  0
   16.1493  -25.8856   -5.3660 N   0  0  0  0  0  0  0  0  0  0  0  0
   17.3840  -25.2576   -7.2232 N   0  0  0  0  0  0  0  0  0  0  0  0
   18.6220  -24.9801   -7.9165 C   0  0  0  0  0  0  0  0  0  0  0  0
   18.4144  -24.7199   -9.3776 C   0  0  0  0  0  0  0  0  0  0  0  0
   19.2713  -23.6730   -9.9794 C   0  0  0  0  0  0  0  0  0  0  0  0
   19.1391  -23.4139  -11.4314 C   0  0  2  0  0  0  0  0  0  0  0  0
   20.0573  -22.3651  -11.8843 N   0  0  0  0  0  0  0  0  0  0  0  0
   17.7637  -23.1830  -11.9168 C   0  0  0  0  0  0  0  0  0  0  0  0
   17.1896  -22.0747  -11.8060 O   0  0  0  0  0  0  0  0  0  0  0  0
   17.0586  -24.2138  -12.5196 O   0  0  0  0  0  0  0  0  0  0  0  0
  2  1  1  1
  3  2  1  0
  3  4  1  0
  5  6  2  0
  5  2  1  0
  8  7  1  6
  8 10  1  0
  9  8  1  0
 10 12  1  0
 10 11  1  6
 11  5  1  0
 12 22  1  0
 13 12  2  0
 15 17  1  0
 15 14  1  0
 16 15  2  0
 18 17  1  0
 19 18  1  0
 20 19  1  0
 21 20  1  1
 22 21  1  0
 23 21  1  0
 23 25  1  0
 24 23  2  0
M  END
$$$$
