CTR.pdb
     RDKit          3D

 25 24  0  0  1  0  0  0  0  0999 V2000
   25.9756  -20.8659   -9.3528 N   0  0  0  0  0  0  0  0  0  0  0  0
   24.9697  -20.8621  -10.3722 C   0  0  1  0  0  0  0  0  0  0  0  0
   23.7801  -20.0010   -9.9724 C   0  0  0  0  0  0  0  0  0  0  0  0
   22.8745  -20.7140   -8.5771 S   0  0  0  0  0  0  0  0  0  0  0  0
   25.4783  -20.3413  -11.6673 C   0  0  0  0  0  0  0  0  0  0  0  0
   25.9861  -19.2025  -11.6881 O   0  0  0  0  0  0  0  0  0  0  0  0
   26.9670  -21.3546  -16.2707 C   0  0  0  0  0  0  0  0  0  0  0  0
   26.5342  -21.6307  -14.8742 C   0  0  1  0  0  0  0  0  0  0  0  0
   27.7083  -21.8755  -14.1217 O   0  0  0  0  0  0  0  0  0  0  0  0
   25.8281  -20.5100  -14.1744 C   0  0  2  0  0  0  0  0  0  0  0  0
   25.4127  -21.0765  -12.8745 N   0  0  0  0  0  0  0  0  0  0  0  0
   24.6242  -20.0091  -14.8402 C   0  0  0  0  0  0  0  0  0  0  0  0
   23.5099  -20.6263  -14.7743 O   0  0  0  0  0  0  0  0  0  0  0  0
   21.2524  -12.3082  -17.5640 N   0  0  0  0  0  0  0  0  0  0  0  0
   20.2837  -13.3233  -17.7461 C   0  0  0  0  0  0  0  0  0  0  0  0
   19.2004  -13.0618  -18.3906 N   0  0  0  0  0  0  0  0  0  0  0  0
   20.4467  -14.6446  -17.2465 N   0  0  0  0  0  0  0  0  0  0  0  0
   21.6910  -15.1526  -16.7136 C   0  0  0  0  0  0  0  0  0  0  0  0
   21.5917  -16.5884  -16.2961 C   0  0  0  0  0  0  0  0  0  0  0  0
   22.8038  -17.1701  -15.6758 C   0  0  0  0  0  0  0  0  0  0  0  0
   23.4059  -18.3653  -16.3098 C   0  0  2  0  0  0  0  0  0  0  0  0
   24.6079  -18.8122  -15.6002 N   0  0  0  0  0  0  0  0  0  0  0  0
   23.6346  -18.2697  -17.7656 C   0  0  0  0  0  0  0  0  0  0  0  0
   22.6994  -18.3275  -18.5976 O   0  0  0  0  0  0  0  0  0  0  0  0
   24.9219  -18.1115  -18.2566 O   0  0  0  0  0  0  0  0  0  0  0  0
  2  1  1  1
  3  2  1  0
  3  4  1  0
  5  6  2  0
  5  2  1  0
  8  7  1  6
  8 10  1  0
  9  8  1  0
 10 12  1  0
 10 11  1  1
 11  5  1  0
 12 22  1  0
 13 12  2  0
 15 17  1  0
 15 14  1  0
 16 15  2  0
 18 17  1  0
 19 18  1  0
 20 19  1  0
 21 20  1  1
 22 21  1  0
 23 21  1  0
 23 25  1  0
 24 23  2  0
M  END
$$$$
