CTR.pdb
     RDKit          3D

 25 24  0  0  1  0  0  0  0  0999 V2000
   23.5911  -15.4309  -16.6452 N   0  0  0  0  0  0  0  0  0  0  0  0
   23.0782  -14.1705  -17.0918 C   0  0  1  0  0  0  0  0  0  0  0  0
   21.5869  -14.2526  -17.3849 C   0  0  0  0  0  0  0  0  0  0  0  0
   21.1397  -15.8298  -18.1515 S   0  0  0  0  0  0  0  0  0  0  0  0
   23.2739  -13.0924  -16.0886 C   0  0  0  0  0  0  0  0  0  0  0  0
   23.0238  -13.3446  -14.8932 O   0  0  0  0  0  0  0  0  0  0  0  0
   26.3534  -11.1302  -15.3549 C   0  0  0  0  0  0  0  0  0  0  0  0
   25.2436  -10.1761  -15.6228 C   0  0  1  0  0  0  0  0  0  0  0  0
   25.3313   -9.8182  -16.9898 O   0  0  0  0  0  0  0  0  0  0  0  0
   23.8583  -10.7130  -15.4303 C   0  0  2  0  0  0  0  0  0  0  0  0
   23.7296  -11.7962  -16.4269 N   0  0  0  0  0  0  0  0  0  0  0  0
   22.7730   -9.7610  -15.6734 C   0  0  0  0  0  0  0  0  0  0  0  0
   21.9653   -9.8934  -16.6518 O   0  0  0  0  0  0  0  0  0  0  0  0
   14.8219   -9.9455  -14.8348 N   0  0  0  0  0  0  0  0  0  0  0  0
   15.0709   -8.6294  -15.2910 C   0  0  0  0  0  0  0  0  0  0  0  0
   14.0947   -7.9096  -15.7227 N   0  0  0  0  0  0  0  0  0  0  0  0
   16.3679   -8.0467  -15.2966 N   0  0  0  0  0  0  0  0  0  0  0  0
   17.5864   -8.8001  -15.1013 C   0  0  0  0  0  0  0  0  0  0  0  0
   18.8035   -7.9261  -15.0825 C   0  0  0  0  0  0  0  0  0  0  0  0
   20.1050   -8.6263  -14.9917 C   0  0  0  0  0  0  0  0  0  0  0  0
   21.3384   -7.8069  -14.9881 C   0  0  2  0  0  0  0  0  0  0  0  0
   22.5414   -8.6322  -14.8472 N   0  0  0  0  0  0  0  0  0  0  0  0
   21.3453   -6.6663  -14.0502 C   0  0  0  0  0  0  0  0  0  0  0  0
   20.5385   -5.7124  -14.1469 O   0  0  0  0  0  0  0  0  0  0  0  0
   22.2690   -6.6237  -13.0168 O   0  0  0  0  0  0  0  0  0  0  0  0
  2  1  1  1
  3  2  1  0
  3  4  1  0
  5  6  2  0
  5  2  1  0
  8  7  1  6
  8 10  1  0
  9  8  1  0
 10 12  1  0
 10 11  1  6
 11  5  1  0
 12 22  1  0
 13 12  2  0
 15 17  1  0
 15 14  1  0
 16 15  2  0
 18 17  1  0
 19 18  1  0
 20 19  1  0
 21 20  1  1
 22 21  1  0
 23 21  1  0
 23 25  1  0
 24 23  2  0
M  END
$$$$
