CTR.pdb
     RDKit          3D

 25 24  0  0  1  0  0  0  0  0999 V2000
   17.9054  -14.9502  -16.1831 N   0  0  0  0  0  0  0  0  0  0  0  0
   17.5738  -13.5577  -16.1379 C   0  0  1  0  0  0  0  0  0  0  0  0
   16.5791  -13.2618  -15.0246 C   0  0  0  0  0  0  0  0  0  0  0  0
   14.8933  -13.7274  -15.4900 S   0  0  0  0  0  0  0  0  0  0  0  0
   18.7645  -12.6996  -15.9079 C   0  0  0  0  0  0  0  0  0  0  0  0
   19.4313  -12.8796  -14.8696 O   0  0  0  0  0  0  0  0  0  0  0  0
   21.7938  -12.0977  -18.2026 C   0  0  0  0  0  0  0  0  0  0  0  0
   21.1071  -10.8255  -17.8508 C   0  0  1  0  0  0  0  0  0  0  0  0
   20.1462  -10.5847  -18.8623 O   0  0  0  0  0  0  0  0  0  0  0  0
   20.3476  -10.8273  -16.5595 C   0  0  2  0  0  0  0  0  0  0  0  0
   19.1748  -11.6901  -16.8106 N   0  0  0  0  0  0  0  0  0  0  0  0
   19.8478   -9.5235  -16.1195 C   0  0  0  0  0  0  0  0  0  0  0  0
   18.7738   -9.0190  -16.5878 O   0  0  0  0  0  0  0  0  0  0  0  0
   19.9324   -4.8719   -8.3786 N   0  0  0  0  0  0  0  0  0  0  0  0
   19.3110   -4.1068   -9.3939 C   0  0  0  0  0  0  0  0  0  0  0  0
   18.7273   -3.0002   -9.0904 N   0  0  0  0  0  0  0  0  0  0  0  0
   19.2980   -4.5020  -10.7597 N   0  0  0  0  0  0  0  0  0  0  0  0
   19.8544   -5.7471  -11.2396 C   0  0  0  0  0  0  0  0  0  0  0  0
   19.6973   -5.9117  -12.7208 C   0  0  0  0  0  0  0  0  0  0  0  0
   20.1071   -7.2216  -13.2762 C   0  0  0  0  0  0  0  0  0  0  0  0
   20.0026   -7.4214  -14.7398 C   0  0  2  0  0  0  0  0  0  0  0  0
   20.5138   -8.7326  -15.1493 N   0  0  0  0  0  0  0  0  0  0  0  0
   20.5542   -6.3350  -15.5741 C   0  0  0  0  0  0  0  0  0  0  0  0
   21.7123   -6.3761  -16.0508 O   0  0  0  0  0  0  0  0  0  0  0  0
   19.7839   -5.2164  -15.8542 O   0  0  0  0  0  0  0  0  0  0  0  0
  2  1  1  1
  3  2  1  0
  3  4  1  0
  5  6  2  0
  5  2  1  0
  8  7  1  6
  8 10  1  0
  9  8  1  0
 10 12  1  0
 10 11  1  6
 11  5  1  0
 12 22  1  0
 13 12  2  0
 15 17  1  0
 15 14  1  0
 16 15  2  0
 18 17  1  0
 19 18  1  0
 20 19  1  0
 21 20  1  1
 22 21  1  0
 23 21  1  0
 23 25  1  0
 24 23  2  0
M  END
$$$$
