CTR.pdb
     RDKit          3D

 25 24  0  0  1  0  0  0  0  0999 V2000
   23.6372  -19.6226  -16.9621 N   0  0  0  0  0  0  0  0  0  0  0  0
   22.2189  -19.6922  -16.7759 C   0  0  1  0  0  0  0  0  0  0  0  0
   21.5580  -20.5237  -17.8661 C   0  0  0  0  0  0  0  0  0  0  0  0
   22.0869  -20.0066  -19.5177 S   0  0  0  0  0  0  0  0  0  0  0  0
   21.8485  -20.2977  -15.4708 C   0  0  0  0  0  0  0  0  0  0  0  0
   22.6648  -21.0640  -14.9217 O   0  0  0  0  0  0  0  0  0  0  0  0
   21.3413  -18.4430  -12.4437 C   0  0  0  0  0  0  0  0  0  0  0  0
   20.1279  -19.2795  -12.6478 C   0  0  1  0  0  0  0  0  0  0  0  0
   19.2015  -18.4891  -13.3699 O   0  0  0  0  0  0  0  0  0  0  0  0
   20.3202  -20.5245  -13.4586 C   0  0  2  0  0  0  0  0  0  0  0  0
   20.6151  -20.0455  -14.8248 N   0  0  0  0  0  0  0  0  0  0  0  0
   19.1558  -21.4079  -13.5444 C   0  0  0  0  0  0  0  0  0  0  0  0
   18.3873  -21.4149  -14.5625 O   0  0  0  0  0  0  0  0  0  0  0  0
   18.6731  -26.4433   -7.8729 N   0  0  0  0  0  0  0  0  0  0  0  0
   17.9623  -25.3383   -7.3476 C   0  0  0  0  0  0  0  0  0  0  0  0
   18.2014  -24.9396   -6.1471 N   0  0  0  0  0  0  0  0  0  0  0  0
   16.9790  -24.6291   -8.0906 N   0  0  0  0  0  0  0  0  0  0  0  0
   16.5013  -25.0450   -9.3903 C   0  0  0  0  0  0  0  0  0  0  0  0
   16.5750  -23.9460  -10.4063 C   0  0  0  0  0  0  0  0  0  0  0  0
   17.5383  -24.1473  -11.5127 C   0  0  0  0  0  0  0  0  0  0  0  0
   17.5862  -23.1309  -12.5885 C   0  0  2  0  0  0  0  0  0  0  0  0
   18.7998  -22.3126  -12.5123 N   0  0  0  0  0  0  0  0  0  0  0  0
   16.3748  -22.2993  -12.7365 C   0  0  0  0  0  0  0  0  0  0  0  0
   16.2641  -21.1724  -12.1998 O   0  0  0  0  0  0  0  0  0  0  0  0
   15.3056  -22.7593  -13.4903 O   0  0  0  0  0  0  0  0  0  0  0  0
  2  1  1  6
  3  2  1  0
  3  4  1  0
  5  6  2  0
  5  2  1  0
  8  7  1  6
  8 10  1  0
  9  8  1  0
 10 12  1  0
 10 11  1  6
 11  5  1  0
 12 22  1  0
 13 12  2  0
 15 17  1  0
 15 14  1  0
 16 15  2  0
 18 17  1  0
 19 18  1  0
 20 19  1  0
 21 20  1  1
 22 21  1  0
 23 21  1  0
 23 25  1  0
 24 23  2  0
M  END
$$$$
