DYR.pdb
     RDKit          3D

 32 32  0  0  1  0  0  0  0  0999 V2000
   10.3722  -16.6839   16.9994 N   0  0  0  0  0  0  0  0  0  0  0  0
   11.3489  -17.2608   17.8872 C   0  0  1  0  0  0  0  0  0  0  0  0
   12.6914  -17.2565   17.1694 C   0  0  0  0  0  0  0  0  0  0  0  0
   12.7084  -18.1888   16.0181 C   0  0  0  0  0  0  0  0  0  0  0  0
   11.6686  -18.7580   15.5997 O   0  0  0  0  0  0  0  0  0  0  0  0
   11.4302  -16.5388   19.1795 C   0  0  0  0  0  0  0  0  0  0  0  0
   12.3277  -15.6571   19.2577 O   0  0  0  0  0  0  0  0  0  0  0  0
   13.9243  -18.4563   15.3600 O   0  0  0  0  0  0  0  0  0  0  0  0
    7.0449  -11.9970   17.7292 O   0  0  0  0  0  0  0  0  0  0  0  0
    7.5643  -12.8448   18.7116 C   0  0  0  0  0  0  0  0  0  0  0  0
    7.1331  -14.1480   18.8477 C   0  0  0  0  0  0  0  0  0  0  0  0
    7.6467  -14.9833   19.8177 C   0  0  0  0  0  0  0  0  0  0  0  0
    8.6173  -14.5643   20.7041 C   0  0  0  0  0  0  0  0  0  0  0  0
    9.2047  -15.3964   21.7718 C   0  0  0  0  0  0  0  0  0  0  0  0
   10.5658  -15.9348   21.4877 C   0  0  2  0  0  0  0  0  0  0  0  0
   10.5943  -16.7645   20.2979 N   0  0  0  0  0  0  0  0  0  0  0  0
   11.0345  -16.7489   22.6329 C   0  0  0  0  0  0  0  0  0  0  0  0
   10.3144  -17.7123   22.9694 O   0  0  0  0  0  0  0  0  0  0  0  0
    9.0514  -13.2429   20.5623 C   0  0  0  0  0  0  0  0  0  0  0  0
    8.5345  -12.4133   19.5910 C   0  0  0  0  0  0  0  0  0  0  0  0
   17.3937  -14.6826   21.2445 N   0  0  0  0  0  0  0  0  0  0  0  0
   17.5855  -14.9440   22.6443 C   0  0  0  0  0  0  0  0  0  0  0  0
   18.4799  -14.3134   23.3161 N   0  0  0  0  0  0  0  0  0  0  0  0
   16.7787  -15.8990   23.3191 N   0  0  0  0  0  0  0  0  0  0  0  0
   15.7242  -16.6518   22.6891 C   0  0  0  0  0  0  0  0  0  0  0  0
   15.1778  -17.6313   23.7290 C   0  0  0  0  0  0  0  0  0  0  0  0
   14.2552  -16.9745   24.6899 C   0  0  0  0  0  0  0  0  0  0  0  0
   12.7809  -17.2082   24.4349 C   0  0  2  0  0  0  0  0  0  0  0  0
   12.2293  -16.4830   23.3358 N   0  0  0  0  0  0  0  0  0  0  0  0
   12.0509  -17.1009   25.7031 C   0  0  0  0  0  0  0  0  0  0  0  0
   12.2971  -17.9540   26.7659 O   0  0  0  0  0  0  0  0  0  0  0  0
   11.1708  -16.2162   25.8532 O   0  0  0  0  0  0  0  0  0  0  0  0
  2  1  1  6
  2  3  1  0
  3  4  1  0
  4  8  1  0
  5  4  2  0
  6  2  1  0
  7  6  2  0
  9 10  1  0
 10 11  2  0
 11 12  1  0
 13 12  2  0
 13 14  1  0
 15 16  1  0
 15 14  1  1
 16  6  1  0
 17 15  1  0
 18 17  2  0
 19 13  1  0
 20 10  1  0
 20 19  2  0
 22 21  1  0
 22 23  2  0
 24 22  1  0
 25 24  1  0
 26 25  1  0
 26 27  1  0
 28 27  1  1
 28 29  1  0
 29 17  1  0
 30 31  1  0
 30 28  1  0
 32 30  2  0
M  END
$$$$
