DYR.pdb
     RDKit          3D

 32 32  0  0  1  0  0  0  0  0999 V2000
    7.9914  -12.5955   19.0033 N   0  0  0  0  0  0  0  0  0  0  0  0
    7.8117  -13.8254   19.7312 C   0  0  1  0  0  0  0  0  0  0  0  0
    8.2677  -14.9685   18.8350 C   0  0  0  0  0  0  0  0  0  0  0  0
    7.2023  -15.3998   17.9002 C   0  0  0  0  0  0  0  0  0  0  0  0
    6.6792  -14.6143   17.0698 O   0  0  0  0  0  0  0  0  0  0  0  0
    8.5461  -13.8291   21.0192 C   0  0  0  0  0  0  0  0  0  0  0  0
    9.7701  -13.5352   20.9516 O   0  0  0  0  0  0  0  0  0  0  0  0
    6.7498  -16.7330   17.9317 O   0  0  0  0  0  0  0  0  0  0  0  0
   10.5055  -14.9090   29.7164 O   0  0  0  0  0  0  0  0  0  0  0  0
    9.8629  -14.6954   28.4936 C   0  0  0  0  0  0  0  0  0  0  0  0
    9.1529  -15.6954   27.8623 C   0  0  0  0  0  0  0  0  0  0  0  0
    8.5193  -15.4829   26.6557 C   0  0  0  0  0  0  0  0  0  0  0  0
    8.5597  -14.2623   26.0138 C   0  0  0  0  0  0  0  0  0  0  0  0
    7.9166  -13.9649   24.7194 C   0  0  0  0  0  0  0  0  0  0  0  0
    8.7414  -14.2589   23.5126 C   0  0  2  0  0  0  0  0  0  0  0  0
    7.9842  -14.1308   22.2816 N   0  0  0  0  0  0  0  0  0  0  0  0
    9.2724  -15.6395   23.5896 C   0  0  0  0  0  0  0  0  0  0  0  0
    8.4535  -16.5668   23.4175 O   0  0  0  0  0  0  0  0  0  0  0  0
    9.2802  -13.2517   26.6575 C   0  0  0  0  0  0  0  0  0  0  0  0
    9.9110  -13.4703   27.8629 C   0  0  0  0  0  0  0  0  0  0  0  0
   15.8530  -14.5382   20.3758 N   0  0  0  0  0  0  0  0  0  0  0  0
   14.7413  -14.7574   19.4922 C   0  0  0  0  0  0  0  0  0  0  0  0
   14.6919  -14.1893   18.3416 N   0  0  0  0  0  0  0  0  0  0  0  0
   13.6768  -15.6194   19.8688 N   0  0  0  0  0  0  0  0  0  0  0  0
   13.7551  -16.5735   20.9454 C   0  0  0  0  0  0  0  0  0  0  0  0
   12.4740  -16.4387   21.7698 C   0  0  0  0  0  0  0  0  0  0  0  0
   12.4582  -17.3552   22.9384 C   0  0  0  0  0  0  0  0  0  0  0  0
   11.2606  -17.2157   23.8546 C   0  0  2  0  0  0  0  0  0  0  0  0
   10.6291  -15.9354   23.8426 N   0  0  0  0  0  0  0  0  0  0  0  0
   11.6036  -17.7476   25.1784 C   0  0  0  0  0  0  0  0  0  0  0  0
   11.4988  -16.9809   26.3269 O   0  0  0  0  0  0  0  0  0  0  0  0
   12.0072  -18.9318   25.2988 O   0  0  0  0  0  0  0  0  0  0  0  0
  2  1  1  6
  2  3  1  0
  3  4  1  0
  4  8  1  0
  5  4  2  0
  6  2  1  0
  7  6  2  0
  9 10  1  0
 10 11  2  0
 11 12  1  0
 13 12  2  0
 13 14  1  0
 15 16  1  0
 15 14  1  1
 16  6  1  0
 17 15  1  0
 18 17  2  0
 19 13  1  0
 20 10  1  0
 20 19  2  0
 22 21  1  0
 22 23  2  0
 24 22  1  0
 25 24  1  0
 26 25  1  0
 26 27  1  0
 28 27  1  6
 28 29  1  0
 29 17  1  0
 30 31  1  0
 30 28  1  0
 32 30  2  0
M  END
$$$$
