DYR.pdb
     RDKit          3D

 32 32  0  0  1  0  0  0  0  0999 V2000
    9.0772  -16.7395   19.2743 N   0  0  0  0  0  0  0  0  0  0  0  0
    9.9761  -17.0825   20.3464 C   0  0  1  0  0  0  0  0  0  0  0  0
   11.3933  -17.0628   19.7907 C   0  0  0  0  0  0  0  0  0  0  0  0
   11.5266  -17.9061   18.5798 C   0  0  0  0  0  0  0  0  0  0  0  0
   10.6309  -17.9635   17.6998 O   0  0  0  0  0  0  0  0  0  0  0  0
    9.8429  -16.1687   21.5062 C   0  0  0  0  0  0  0  0  0  0  0  0
   10.9199  -15.8533   22.0804 O   0  0  0  0  0  0  0  0  0  0  0  0
   12.6916  -18.6755   18.3952 O   0  0  0  0  0  0  0  0  0  0  0  0
    6.2074  -11.3343   28.1753 O   0  0  0  0  0  0  0  0  0  0  0  0
    6.4718  -12.0035   26.9769 C   0  0  0  0  0  0  0  0  0  0  0  0
    7.3844  -11.5209   26.0620 C   0  0  0  0  0  0  0  0  0  0  0  0
    7.6441  -12.1825   24.8800 C   0  0  0  0  0  0  0  0  0  0  0  0
    7.0080  -13.3605   24.5466 C   0  0  0  0  0  0  0  0  0  0  0  0
    7.2265  -14.1166   23.2984 C   0  0  0  0  0  0  0  0  0  0  0  0
    8.4869  -14.9115   23.2441 C   0  0  2  0  0  0  0  0  0  0  0  0
    8.6261  -15.6416   21.9982 N   0  0  0  0  0  0  0  0  0  0  0  0
    8.5161  -15.8859   24.3593 C   0  0  0  0  0  0  0  0  0  0  0  0
    7.9711  -16.9909   24.1542 O   0  0  0  0  0  0  0  0  0  0  0  0
    6.0841  -13.8459   25.4769 C   0  0  0  0  0  0  0  0  0  0  0  0
    5.8291  -13.1804   26.6561 C   0  0  0  0  0  0  0  0  0  0  0  0
   14.6005  -19.7593   22.5181 N   0  0  0  0  0  0  0  0  0  0  0  0
   13.3507  -20.4154   22.7862 C   0  0  0  0  0  0  0  0  0  0  0  0
   13.0902  -21.5681   22.2836 N   0  0  0  0  0  0  0  0  0  0  0  0
   12.3794  -19.8068   23.6255 N   0  0  0  0  0  0  0  0  0  0  0  0
   12.5311  -18.5028   24.2191 C   0  0  0  0  0  0  0  0  0  0  0  0
   11.2358  -18.1886   24.9692 C   0  0  0  0  0  0  0  0  0  0  0  0
   11.2748  -16.8567   25.6251 C   0  0  0  0  0  0  0  0  0  0  0  0
   10.0073  -16.4543   26.3495 C   0  0  2  0  0  0  0  0  0  0  0  0
    9.1194  -15.6186   25.6070 N   0  0  0  0  0  0  0  0  0  0  0  0
   10.3518  -15.9848   27.6963 C   0  0  0  0  0  0  0  0  0  0  0  0
    9.8660  -14.7914   28.2039 O   0  0  0  0  0  0  0  0  0  0  0  0
   11.1089  -16.6690   28.4300 O   0  0  0  0  0  0  0  0  0  0  0  0
  2  1  1  6
  2  3  1  0
  3  4  1  0
  4  8  1  0
  5  4  2  0
  6  2  1  0
  7  6  2  0
  9 10  1  0
 10 11  2  0
 11 12  1  0
 13 12  2  0
 13 14  1  0
 15 16  1  0
 15 14  1  6
 16  6  1  0
 17 15  1  0
 18 17  2  0
 19 13  1  0
 20 10  1  0
 20 19  2  0
 22 21  1  0
 22 23  2  0
 24 22  1  0
 25 24  1  0
 26 25  1  0
 26 27  1  0
 28 27  1  6
 28 29  1  0
 29 17  1  0
 30 31  1  0
 30 28  1  0
 32 30  2  0
M  END
$$$$
