DYR.pdb
     RDKit          3D

 32 32  0  0  1  0  0  0  0  0999 V2000
    4.7159  -18.1809   19.5461 N   0  0  0  0  0  0  0  0  0  0  0  0
    5.8101  -18.6891   20.3332 C   0  0  1  0  0  0  0  0  0  0  0  0
    6.7801  -19.3851   19.3885 C   0  0  0  0  0  0  0  0  0  0  0  0
    6.1865  -20.5973   18.7775 C   0  0  0  0  0  0  0  0  0  0  0  0
    5.5454  -21.4433   19.4510 O   0  0  0  0  0  0  0  0  0  0  0  0
    6.4890  -17.6224   21.1073 C   0  0  0  0  0  0  0  0  0  0  0  0
    7.1009  -16.7568   20.4252 O   0  0  0  0  0  0  0  0  0  0  0  0
    6.3379  -20.8228   17.3957 O   0  0  0  0  0  0  0  0  0  0  0  0
    8.4835  -11.9542   27.7706 O   0  0  0  0  0  0  0  0  0  0  0  0
    7.9750  -12.9942   26.9873 C   0  0  0  0  0  0  0  0  0  0  0  0
    8.5990  -14.2224   26.9176 C   0  0  0  0  0  0  0  0  0  0  0  0
    8.0959  -15.2476   26.1440 C   0  0  0  0  0  0  0  0  0  0  0  0
    6.9441  -15.1033   25.3984 C   0  0  0  0  0  0  0  0  0  0  0  0
    6.3538  -16.1496   24.5416 C   0  0  0  0  0  0  0  0  0  0  0  0
    7.0650  -16.3998   23.2552 C   0  0  2  0  0  0  0  0  0  0  0  0
    6.4970  -17.5124   22.5174 N   0  0  0  0  0  0  0  0  0  0  0  0
    8.4920  -16.6971   23.5182 C   0  0  0  0  0  0  0  0  0  0  0  0
    8.7585  -17.8412   23.9425 O   0  0  0  0  0  0  0  0  0  0  0  0
    6.3150  -13.8569   25.4723 C   0  0  0  0  0  0  0  0  0  0  0  0
    6.8225  -12.8367   26.2471 C   0  0  0  0  0  0  0  0  0  0  0  0
   16.1741  -13.0879   20.0080 N   0  0  0  0  0  0  0  0  0  0  0  0
   15.6764  -14.3172   19.4549 C   0  0  0  0  0  0  0  0  0  0  0  0
   16.3545  -14.9687   18.5804 N   0  0  0  0  0  0  0  0  0  0  0  0
   14.4262  -14.8455   19.8745 N   0  0  0  0  0  0  0  0  0  0  0  0
   13.5474  -14.1901   20.8092 C   0  0  0  0  0  0  0  0  0  0  0  0
   12.9594  -15.2702   21.7183 C   0  0  0  0  0  0  0  0  0  0  0  0
   11.5510  -14.9842   22.0932 C   0  0  0  0  0  0  0  0  0  0  0  0
   10.8920  -16.0235   22.9756 C   0  0  2  0  0  0  0  0  0  0  0  0
    9.5294  -15.7624   23.3126 N   0  0  0  0  0  0  0  0  0  0  0  0
   11.7815  -16.3326   24.1008 C   0  0  0  0  0  0  0  0  0  0  0  0
   11.7383  -15.6201   25.2875 O   0  0  0  0  0  0  0  0  0  0  0  0
   12.6164  -17.2676   24.0085 O   0  0  0  0  0  0  0  0  0  0  0  0
  2  1  1  6
  2  3  1  0
  3  4  1  0
  4  8  1  0
  5  4  2  0
  6  2  1  0
  7  6  2  0
  9 10  1  0
 10 11  2  0
 11 12  1  0
 13 12  2  0
 13 14  1  0
 15 16  1  0
 15 14  1  1
 16  6  1  0
 17 15  1  0
 18 17  2  0
 19 13  1  0
 20 10  1  0
 20 19  2  0
 22 21  1  0
 22 23  2  0
 24 22  1  0
 25 24  1  0
 26 25  1  0
 26 27  1  0
 28 27  1  1
 28 29  1  0
 29 17  1  0
 30 31  1  0
 30 28  1  0
 32 30  2  0
M  END
$$$$
