DYR.pdb
     RDKit          3D

 32 32  0  0  1  0  0  0  0  0999 V2000
    7.5775  -15.5409   18.2743 N   0  0  0  0  0  0  0  0  0  0  0  0
    8.2221  -16.5412   19.0862 C   0  0  1  0  0  0  0  0  0  0  0  0
    9.3612  -17.1391   18.2723 C   0  0  0  0  0  0  0  0  0  0  0  0
   10.0515  -18.2291   19.0008 C   0  0  0  0  0  0  0  0  0  0  0  0
   11.1986  -18.0854   19.4943 O   0  0  0  0  0  0  0  0  0  0  0  0
    8.7140  -15.9906   20.3718 C   0  0  0  0  0  0  0  0  0  0  0  0
    9.7494  -15.2751   20.2998 O   0  0  0  0  0  0  0  0  0  0  0  0
    9.4124  -19.4746   19.1534 O   0  0  0  0  0  0  0  0  0  0  0  0
    7.1329  -11.7514   28.0923 O   0  0  0  0  0  0  0  0  0  0  0  0
    7.1100  -12.4675   26.8922 C   0  0  0  0  0  0  0  0  0  0  0  0
    7.6376  -11.9496   25.7276 C   0  0  0  0  0  0  0  0  0  0  0  0
    7.6142  -12.6577   24.5442 C   0  0  0  0  0  0  0  0  0  0  0  0
    7.0634  -13.9197   24.4582 C   0  0  0  0  0  0  0  0  0  0  0  0
    6.9933  -14.7306   23.2273 C   0  0  0  0  0  0  0  0  0  0  0  0
    8.2826  -15.3353   22.7852 C   0  0  2  0  0  0  0  0  0  0  0  0
    8.1188  -16.2064   21.6366 N   0  0  0  0  0  0  0  0  0  0  0  0
    8.8717  -16.1280   23.8890 C   0  0  0  0  0  0  0  0  0  0  0  0
    8.2157  -17.1146   24.2844 O   0  0  0  0  0  0  0  0  0  0  0  0
    6.5302  -14.4406   25.6409 C   0  0  0  0  0  0  0  0  0  0  0  0
    6.5567  -13.7283   26.8202 C   0  0  0  0  0  0  0  0  0  0  0  0
   15.9985  -16.0963   20.3943 N   0  0  0  0  0  0  0  0  0  0  0  0
   15.7386  -15.8570   21.7871 C   0  0  0  0  0  0  0  0  0  0  0  0
   16.5493  -15.1603   22.4987 N   0  0  0  0  0  0  0  0  0  0  0  0
   14.5697  -16.3771   22.4047 N   0  0  0  0  0  0  0  0  0  0  0  0
   14.0728  -15.9409   23.6848 C   0  0  0  0  0  0  0  0  0  0  0  0
   12.8768  -16.8267   24.0368 C   0  0  0  0  0  0  0  0  0  0  0  0
   12.3238  -16.5170   25.3800 C   0  0  0  0  0  0  0  0  0  0  0  0
   10.8138  -16.5633   25.4849 C   0  0  2  0  0  0  0  0  0  0  0  0
   10.1100  -15.8179   24.4913 N   0  0  0  0  0  0  0  0  0  0  0  0
   10.4205  -16.3071   26.8750 C   0  0  0  0  0  0  0  0  0  0  0  0
   10.6355  -17.2341   27.8812 O   0  0  0  0  0  0  0  0  0  0  0  0
    9.8700  -15.2210   27.1865 O   0  0  0  0  0  0  0  0  0  0  0  0
  2  1  1  6
  2  3  1  0
  3  4  1  0
  4  8  1  0
  5  4  2  0
  6  2  1  0
  7  6  2  0
  9 10  1  0
 10 11  2  0
 11 12  1  0
 13 12  2  0
 13 14  1  0
 15 16  1  0
 15 14  1  1
 16  6  1  0
 17 15  1  0
 18 17  2  0
 19 13  1  0
 20 10  1  0
 20 19  2  0
 22 21  1  0
 22 23  2  0
 24 22  1  0
 25 24  1  0
 26 25  1  0
 26 27  1  0
 28 27  1  1
 28 29  1  0
 29 17  1  0
 30 31  1  0
 30 28  1  0
 32 30  2  0
M  END
$$$$
