DYR.pdb
     RDKit          3D

 32 32  0  0  1  0  0  0  0  0999 V2000
   10.4766  -18.4137   19.3677 N   0  0  0  0  0  0  0  0  0  0  0  0
   11.4478  -17.5044   19.9201 C   0  0  1  0  0  0  0  0  0  0  0  0
   11.9506  -16.6166   18.7902 C   0  0  0  0  0  0  0  0  0  0  0  0
   12.6225  -17.3990   17.7265 C   0  0  0  0  0  0  0  0  0  0  0  0
   12.0511  -18.3435   17.1252 O   0  0  0  0  0  0  0  0  0  0  0  0
   10.8920  -16.6946   21.0306 C   0  0  0  0  0  0  0  0  0  0  0  0
   11.6694  -15.8314   21.5201 O   0  0  0  0  0  0  0  0  0  0  0  0
   13.9472  -17.0851   17.3663 O   0  0  0  0  0  0  0  0  0  0  0  0
    7.5977  -11.7688   18.0914 O   0  0  0  0  0  0  0  0  0  0  0  0
    7.6330  -12.6869   19.1448 C   0  0  0  0  0  0  0  0  0  0  0  0
    7.2470  -14.0004   18.9762 C   0  0  0  0  0  0  0  0  0  0  0  0
    7.2825  -14.9050   20.0168 C   0  0  0  0  0  0  0  0  0  0  0  0
    7.7044  -14.5488   21.2811 C   0  0  0  0  0  0  0  0  0  0  0  0
    7.7590  -15.4573   22.4426 C   0  0  0  0  0  0  0  0  0  0  0  0
    9.0881  -16.0797   22.7062 C   0  0  2  0  0  0  0  0  0  0  0  0
    9.5876  -16.8202   21.5630 N   0  0  0  0  0  0  0  0  0  0  0  0
    8.9898  -17.0096   23.8549 C   0  0  0  0  0  0  0  0  0  0  0  0
    8.4035  -18.0935   23.6517 O   0  0  0  0  0  0  0  0  0  0  0  0
    8.0949  -13.2167   21.4472 C   0  0  0  0  0  0  0  0  0  0  0  0
    8.0573  -12.3177   20.4036 C   0  0  0  0  0  0  0  0  0  0  0  0
   10.7888  -20.8011   30.2217 N   0  0  0  0  0  0  0  0  0  0  0  0
   11.5522  -19.8534   30.9858 C   0  0  0  0  0  0  0  0  0  0  0  0
   11.9465  -20.1311   32.1759 N   0  0  0  0  0  0  0  0  0  0  0  0
   11.8984  -18.5908   30.4343 N   0  0  0  0  0  0  0  0  0  0  0  0
   11.9286  -18.3096   29.0216 C   0  0  0  0  0  0  0  0  0  0  0  0
   10.4917  -18.0260   28.5812 C   0  0  0  0  0  0  0  0  0  0  0  0
   10.4321  -17.1138   27.4106 C   0  0  0  0  0  0  0  0  0  0  0  0
    9.5132  -17.5563   26.2911 C   0  0  2  0  0  0  0  0  0  0  0  0
    9.5192  -16.7233   25.1317 N   0  0  0  0  0  0  0  0  0  0  0  0
    8.1922  -17.8679   26.8484 C   0  0  0  0  0  0  0  0  0  0  0  0
    7.9617  -19.0117   27.5943 O   0  0  0  0  0  0  0  0  0  0  0  0
    7.2250  -17.0885   26.6563 O   0  0  0  0  0  0  0  0  0  0  0  0
  2  1  1  6
  2  3  1  0
  3  4  1  0
  4  8  1  0
  5  4  2  0
  6  2  1  0
  7  6  2  0
  9 10  1  0
 10 11  2  0
 11 12  1  0
 13 12  2  0
 13 14  1  0
 15 16  1  0
 15 14  1  6
 16  6  1  0
 17 15  1  0
 18 17  2  0
 19 13  1  0
 20 10  1  0
 20 19  2  0
 22 21  1  0
 22 23  2  0
 24 22  1  0
 25 24  1  0
 26 25  1  0
 26 27  1  0
 28 27  1  1
 28 29  1  0
 29 17  1  0
 30 31  1  0
 30 28  1  0
 32 30  2  0
M  END
$$$$
