DYR.pdb
     RDKit          3D

 32 32  0  0  1  0  0  0  0  0999 V2000
   11.4123  -18.6238   15.9113 N   0  0  0  0  0  0  0  0  0  0  0  0
   11.5853  -17.3630   16.5863 C   0  0  1  0  0  0  0  0  0  0  0  0
   10.2508  -16.6308   16.5556 C   0  0  0  0  0  0  0  0  0  0  0  0
    9.9697  -16.0447   15.2242 C   0  0  0  0  0  0  0  0  0  0  0  0
   10.7883  -16.1161   14.2729 O   0  0  0  0  0  0  0  0  0  0  0  0
   12.0717  -17.5315   17.9766 C   0  0  0  0  0  0  0  0  0  0  0  0
   11.7649  -18.6190   18.5353 O   0  0  0  0  0  0  0  0  0  0  0  0
    8.7474  -15.3815   15.0024 O   0  0  0  0  0  0  0  0  0  0  0  0
   17.9553  -21.0256   18.1561 O   0  0  0  0  0  0  0  0  0  0  0  0
   17.1932  -19.9431   18.6046 C   0  0  0  0  0  0  0  0  0  0  0  0
   16.6696  -19.0126   17.7312 C   0  0  0  0  0  0  0  0  0  0  0  0
   15.9178  -17.9449   18.1755 C   0  0  0  0  0  0  0  0  0  0  0  0
   15.6479  -17.7475   19.5140 C   0  0  0  0  0  0  0  0  0  0  0  0
   14.8620  -16.6255   20.0625 C   0  0  0  0  0  0  0  0  0  0  0  0
   13.3819  -16.8017   20.0238 C   0  0  2  0  0  0  0  0  0  0  0  0
   12.8343  -16.5836   18.6981 N   0  0  0  0  0  0  0  0  0  0  0  0
   12.7366  -15.8481   20.9555 C   0  0  0  0  0  0  0  0  0  0  0  0
   12.5675  -14.6829   20.5388 O   0  0  0  0  0  0  0  0  0  0  0  0
   16.1803  -18.6932   20.3954 C   0  0  0  0  0  0  0  0  0  0  0  0
   16.9306  -19.7578   19.9454 C   0  0  0  0  0  0  0  0  0  0  0  0
    8.3008  -12.2364   20.0325 N   0  0  0  0  0  0  0  0  0  0  0  0
    7.6388  -13.2428   19.2492 C   0  0  0  0  0  0  0  0  0  0  0  0
    6.8423  -12.9178   18.2957 N   0  0  0  0  0  0  0  0  0  0  0  0
    7.8617  -14.6222   19.5057 N   0  0  0  0  0  0  0  0  0  0  0  0
    7.8280  -15.2131   20.8192 C   0  0  0  0  0  0  0  0  0  0  0  0
    9.1846  -14.9489   21.4743 C   0  0  0  0  0  0  0  0  0  0  0  0
    9.8593  -16.2031   21.8956 C   0  0  0  0  0  0  0  0  0  0  0  0
   11.0279  -16.0233   22.8417 C   0  0  2  0  0  0  0  0  0  0  0  0
   12.3187  -16.1986   22.2573 N   0  0  0  0  0  0  0  0  0  0  0  0
   10.7731  -16.7839   24.0703 C   0  0  0  0  0  0  0  0  0  0  0  0
   11.3164  -18.0401   24.2816 O   0  0  0  0  0  0  0  0  0  0  0  0
   10.0429  -16.3017   24.9725 O   0  0  0  0  0  0  0  0  0  0  0  0
  2  1  1  1
  2  3  1  0
  3  4  1  0
  4  8  1  0
  5  4  2  0
  6  2  1  0
  7  6  2  0
  9 10  1  0
 10 11  2  0
 11 12  1  0
 13 12  2  0
 13 14  1  0
 15 16  1  0
 15 14  1  6
 16  6  1  0
 17 15  1  0
 18 17  2  0
 19 13  1  0
 20 10  1  0
 20 19  2  0
 22 21  1  0
 22 23  2  0
 24 22  1  0
 25 24  1  0
 26 25  1  0
 26 27  1  0
 28 27  1  6
 28 29  1  0
 29 17  1  0
 30 31  1  0
 30 28  1  0
 32 30  2  0
M  END
$$$$
