DYR.pdb
     RDKit          3D

 32 32  0  0  1  0  0  0  0  0999 V2000
    9.6838  -16.9826   18.4623 N   0  0  0  0  0  0  0  0  0  0  0  0
    8.6631  -17.2423   19.4451 C   0  0  1  0  0  0  0  0  0  0  0  0
    8.6837  -18.7324   19.7561 C   0  0  0  0  0  0  0  0  0  0  0  0
    8.0779  -19.5350   18.6680 C   0  0  0  0  0  0  0  0  0  0  0  0
    8.7731  -20.1562   17.8249 O   0  0  0  0  0  0  0  0  0  0  0  0
    8.8487  -16.4359   20.6753 C   0  0  0  0  0  0  0  0  0  0  0  0
   10.0411  -16.2849   21.0554 O   0  0  0  0  0  0  0  0  0  0  0  0
    6.6758  -19.6134   18.5621 O   0  0  0  0  0  0  0  0  0  0  0  0
    7.2628  -11.6392   28.0783 O   0  0  0  0  0  0  0  0  0  0  0  0
    7.1345  -12.3170   26.8627 C   0  0  0  0  0  0  0  0  0  0  0  0
    6.4202  -13.4925   26.7588 C   0  0  0  0  0  0  0  0  0  0  0  0
    6.2947  -14.1601   25.5584 C   0  0  0  0  0  0  0  0  0  0  0  0
    6.8746  -13.6918   24.3973 C   0  0  0  0  0  0  0  0  0  0  0  0
    6.7920  -14.3562   23.0823 C   0  0  0  0  0  0  0  0  0  0  0  0
    8.0013  -15.1296   22.6791 C   0  0  2  0  0  0  0  0  0  0  0  0
    7.8102  -15.8416   21.4295 N   0  0  0  0  0  0  0  0  0  0  0  0
    8.3406  -16.1175   23.7293 C   0  0  0  0  0  0  0  0  0  0  0  0
    7.5057  -17.0222   23.9403 O   0  0  0  0  0  0  0  0  0  0  0  0
    7.5972  -12.5001   24.5074 C   0  0  0  0  0  0  0  0  0  0  0  0
    7.7189  -11.8377   25.7095 C   0  0  0  0  0  0  0  0  0  0  0  0
   10.8913  -19.9673   21.5061 N   0  0  0  0  0  0  0  0  0  0  0  0
   12.2731  -19.5888   21.3971 C   0  0  0  0  0  0  0  0  0  0  0  0
   12.9338  -19.8089   20.3181 N   0  0  0  0  0  0  0  0  0  0  0  0
   12.9358  -18.9499   22.4793 N   0  0  0  0  0  0  0  0  0  0  0  0
   12.4576  -18.9644   23.8382 C   0  0  0  0  0  0  0  0  0  0  0  0
   11.8808  -17.5792   24.1345 C   0  0  0  0  0  0  0  0  0  0  0  0
   11.3051  -17.4904   25.5008 C   0  0  0  0  0  0  0  0  0  0  0  0
    9.9131  -16.8995   25.5797 C   0  0  2  0  0  0  0  0  0  0  0  0
    9.5370  -16.0744   24.4769 N   0  0  0  0  0  0  0  0  0  0  0  0
    9.7126  -16.3178   26.9117 C   0  0  0  0  0  0  0  0  0  0  0  0
    9.7156  -14.9491   27.1227 O   0  0  0  0  0  0  0  0  0  0  0  0
    9.5309  -17.0639   27.9067 O   0  0  0  0  0  0  0  0  0  0  0  0
  2  1  1  6
  2  3  1  0
  3  4  1  0
  4  8  1  0
  5  4  2  0
  6  2  1  0
  7  6  2  0
  9 10  1  0
 10 11  2  0
 11 12  1  0
 13 12  2  0
 13 14  1  0
 15 16  1  0
 15 14  1  1
 16  6  1  0
 17 15  1  0
 18 17  2  0
 19 13  1  0
 20 10  1  0
 20 19  2  0
 22 21  1  0
 22 23  2  0
 24 22  1  0
 25 24  1  0
 26 25  1  0
 26 27  1  0
 28 27  1  6
 28 29  1  0
 29 17  1  0
 30 31  1  0
 30 28  1  0
 32 30  2  0
M  END
$$$$
