DYR.pdb
     RDKit          3D

 32 32  0  0  1  0  0  0  0  0999 V2000
    7.8204  -12.7154   17.9560 N   0  0  0  0  0  0  0  0  0  0  0  0
    7.7182  -13.9653   18.6648 C   0  0  1  0  0  0  0  0  0  0  0  0
    8.5694  -14.9900   17.9279 C   0  0  0  0  0  0  0  0  0  0  0  0
    7.8728  -15.5404   16.7417 C   0  0  0  0  0  0  0  0  0  0  0  0
    6.7981  -15.0532   16.3083 O   0  0  0  0  0  0  0  0  0  0  0  0
    8.1345  -13.8435   20.0825 C   0  0  0  0  0  0  0  0  0  0  0  0
    9.3545  -13.5912   20.2745 O   0  0  0  0  0  0  0  0  0  0  0  0
    8.4219  -16.6476   16.0666 O   0  0  0  0  0  0  0  0  0  0  0  0
    7.7422  -13.8913   29.0870 O   0  0  0  0  0  0  0  0  0  0  0  0
    7.4765  -13.7860   27.7187 C   0  0  0  0  0  0  0  0  0  0  0  0
    7.9157  -12.7107   26.9747 C   0  0  0  0  0  0  0  0  0  0  0  0
    7.6526  -12.6083   25.6246 C   0  0  0  0  0  0  0  0  0  0  0  0
    6.9375  -13.5722   24.9440 C   0  0  0  0  0  0  0  0  0  0  0  0
    6.6094  -13.5250   23.5061 C   0  0  0  0  0  0  0  0  0  0  0  0
    7.7152  -13.9135   22.5844 C   0  0  2  0  0  0  0  0  0  0  0  0
    7.2816  -13.9867   21.2018 N   0  0  0  0  0  0  0  0  0  0  0  0
    8.2532  -15.2376   22.9732 C   0  0  0  0  0  0  0  0  0  0  0  0
    7.4973  -16.2194   22.8156 O   0  0  0  0  0  0  0  0  0  0  0  0
    6.4947  -14.6602   25.7021 C   0  0  0  0  0  0  0  0  0  0  0  0
    6.7609  -14.7568   27.0506 C   0  0  0  0  0  0  0  0  0  0  0  0
   14.1895  -15.6914   18.8796 N   0  0  0  0  0  0  0  0  0  0  0  0
   14.6497  -15.1240   20.1168 C   0  0  0  0  0  0  0  0  0  0  0  0
   15.7057  -14.3941   20.1548 N   0  0  0  0  0  0  0  0  0  0  0  0
   13.9373  -15.3487   21.3252 N   0  0  0  0  0  0  0  0  0  0  0  0
   12.8009  -16.2269   21.4390 C   0  0  0  0  0  0  0  0  0  0  0  0
   12.3910  -16.2554   22.9122 C   0  0  0  0  0  0  0  0  0  0  0  0
   11.2656  -17.1911   23.1647 C   0  0  0  0  0  0  0  0  0  0  0  0
   10.1307  -16.6297   23.9954 C   0  0  2  0  0  0  0  0  0  0  0  0
    9.5497  -15.4238   23.4990 N   0  0  0  0  0  0  0  0  0  0  0  0
   10.5306  -16.6135   25.4070 C   0  0  0  0  0  0  0  0  0  0  0  0
   10.9037  -17.7665   26.0773 O   0  0  0  0  0  0  0  0  0  0  0  0
   10.5427  -15.5326   26.0484 O   0  0  0  0  0  0  0  0  0  0  0  0
  2  1  1  6
  2  3  1  0
  3  4  1  0
  4  8  1  0
  5  4  2  0
  6  2  1  0
  7  6  2  0
  9 10  1  0
 10 11  2  0
 11 12  1  0
 13 12  2  0
 13 14  1  0
 15 16  1  0
 15 14  1  1
 16  6  1  0
 17 15  1  0
 18 17  2  0
 19 13  1  0
 20 10  1  0
 20 19  2  0
 22 21  1  0
 22 23  2  0
 24 22  1  0
 25 24  1  0
 26 25  1  0
 26 27  1  0
 28 27  1  6
 28 29  1  0
 29 17  1  0
 30 31  1  0
 30 28  1  0
 32 30  2  0
M  END
$$$$
