ITV.pdb
     RDKit          3D

 23 22  0  0  1  0  0  0  0  0999 V2000
   28.8488  -23.5880  -18.4431 C   0  0  0  0  0  0  0  0  0  0  0  0
   29.6715  -22.3307  -18.1940 C   0  0  0  0  0  0  0  0  0  0  0  0
   28.9168  -21.4954  -17.1943 C   0  0  2  0  0  0  0  0  0  0  0  0
   28.3147  -22.3671  -16.1112 C   0  0  0  0  0  0  0  0  0  0  0  0
   27.8009  -20.7028  -17.8095 C   0  0  2  0  0  0  0  0  0  0  0  0
   28.3950  -19.7454  -18.7444 N   0  0  0  0  0  0  0  0  0  0  0  0
   26.9956  -19.9550  -16.8335 C   0  0  0  0  0  0  0  0  0  0  0  0
   27.0081  -18.6930  -16.7753 O   0  0  0  0  0  0  0  0  0  0  0  0
   22.8849  -18.8900  -15.4771 C   0  0  0  0  0  0  0  0  0  0  0  0
   24.1772  -19.3173  -16.1449 C   0  0  1  0  0  0  0  0  0  0  0  0
   24.7009  -18.2838  -16.8884 O   0  0  0  0  0  0  0  0  0  0  0  0
   25.1422  -19.8781  -15.1227 C   0  0  2  0  0  0  0  0  0  0  0  0
   26.1522  -20.6179  -15.8944 N   0  0  0  0  0  0  0  0  0  0  0  0
   24.4636  -20.8105  -14.1763 C   0  0  0  0  0  0  0  0  0  0  0  0
   23.8068  -21.7715  -14.5951 O   0  0  0  0  0  0  0  0  0  0  0  0
   26.1617  -21.6042  -10.7436 C   0  0  0  0  0  0  0  0  0  0  0  0
   24.7047  -21.2786  -10.4664 C   0  0  1  0  0  0  0  0  0  0  0  0
   24.5654  -19.8744   -9.9540 C   0  0  0  0  0  0  0  0  0  0  0  0
   23.9683  -21.4342  -11.7946 C   0  0  2  0  0  0  0  0  0  0  0  0
   24.5852  -20.5749  -12.7807 N   0  0  0  0  0  0  0  0  0  0  0  0
   22.5474  -21.0812  -11.6613 C   0  0  0  0  0  0  0  0  0  0  0  0
   21.5690  -22.0246  -11.3500 O   0  0  0  0  0  0  0  0  0  0  0  0
   22.1882  -19.8916  -11.8311 O   0  0  0  0  0  0  0  0  0  0  0  0
  2  3  1  0
  2  1  1  0
  3  4  1  1
  5  7  1  0
  5  3  1  0
  5  6  1  6
  7  8  2  0
 10 12  1  0
 10  9  1  1
 11 10  1  0
 12 13  1  6
 13  7  1  0
 14 20  1  0
 14 12  1  0
 15 14  2  0
 17 16  1  6
 17 18  1  0
 19 20  1  6
 19 17  1  0
 21 22  1  0
 21 19  1  0
 23 21  2  0
M  END
$$$$
