ITV.pdb
     RDKit          3D

 23 22  0  0  1  0  0  0  0  0999 V2000
   29.9895  -21.0560  -17.0958 C   0  0  0  0  0  0  0  0  0  0  0  0
   28.5072  -20.7062  -17.1119 C   0  0  0  0  0  0  0  0  0  0  0  0
   27.8855  -21.3459  -15.8991 C   0  0  2  0  0  0  0  0  0  0  0  0
   28.1075  -22.8447  -15.9086 C   0  0  0  0  0  0  0  0  0  0  0  0
   26.4073  -21.1082  -15.7981 C   0  0  2  0  0  0  0  0  0  0  0  0
   26.1917  -19.6625  -15.7128 N   0  0  0  0  0  0  0  0  0  0  0  0
   25.7835  -21.7373  -14.6253 C   0  0  0  0  0  0  0  0  0  0  0  0
   25.9453  -22.9597  -14.3503 O   0  0  0  0  0  0  0  0  0  0  0  0
   26.4723  -21.2771  -11.2628 C   0  0  0  0  0  0  0  0  0  0  0  0
   24.9977  -20.9366  -11.3529 C   0  0  1  0  0  0  0  0  0  0  0  0
   24.8163  -19.5719  -11.3490 O   0  0  0  0  0  0  0  0  0  0  0  0
   24.3651  -21.6286  -12.5410 C   0  0  2  0  0  0  0  0  0  0  0  0
   24.9573  -20.9969  -13.7298 N   0  0  0  0  0  0  0  0  0  0  0  0
   22.8856  -21.4394  -12.5668 C   0  0  0  0  0  0  0  0  0  0  0  0
   22.1867  -21.7769  -11.6035 O   0  0  0  0  0  0  0  0  0  0  0  0
   21.2198  -20.1993  -16.1941 C   0  0  0  0  0  0  0  0  0  0  0  0
   20.6114  -19.6089  -14.9343 C   0  0  1  0  0  0  0  0  0  0  0  0
   19.1366  -19.3920  -15.1114 C   0  0  0  0  0  0  0  0  0  0  0  0
   20.8691  -20.6179  -13.8179 C   0  0  2  0  0  0  0  0  0  0  0  0
   22.2910  -20.8627  -13.7209 N   0  0  0  0  0  0  0  0  0  0  0  0
   20.1725  -21.8869  -14.0746 C   0  0  0  0  0  0  0  0  0  0  0  0
   18.9043  -22.1599  -13.5635 O   0  0  0  0  0  0  0  0  0  0  0  0
   20.7277  -22.7647  -14.7775 O   0  0  0  0  0  0  0  0  0  0  0  0
  2  3  1  0
  2  1  1  0
  3  4  1  6
  5  7  1  0
  5  3  1  0
  5  6  1  1
  7  8  2  0
 10 12  1  0
 10  9  1  6
 11 10  1  0
 12 13  1  6
 13  7  1  0
 14 20  1  0
 14 12  1  0
 15 14  2  0
 17 16  1  6
 17 18  1  0
 19 20  1  6
 19 17  1  0
 21 22  1  0
 21 19  1  0
 23 21  2  0
M  END
$$$$
