ITV.pdb
     RDKit          3D

 23 22  0  0  1  0  0  0  0  0999 V2000
   18.9469  -16.8442  -17.2061 C   0  0  0  0  0  0  0  0  0  0  0  0
   19.2731  -15.5686  -17.9717 C   0  0  0  0  0  0  0  0  0  0  0  0
   19.6390  -14.5202  -16.9550 C   0  0  2  0  0  0  0  0  0  0  0  0
   18.4791  -14.2530  -16.0175 C   0  0  0  0  0  0  0  0  0  0  0  0
   20.0326  -13.2104  -17.5725 C   0  0  2  0  0  0  0  0  0  0  0  0
   21.2502  -13.4327  -18.3547 N   0  0  0  0  0  0  0  0  0  0  0  0
   20.3020  -12.1490  -16.5922 C   0  0  0  0  0  0  0  0  0  0  0  0
   19.4921  -11.8671  -15.6644 O   0  0  0  0  0  0  0  0  0  0  0  0
   23.4300  -11.5355  -14.4640 C   0  0  0  0  0  0  0  0  0  0  0  0
   23.1683  -10.3111  -15.3189 C   0  0  1  0  0  0  0  0  0  0  0  0
   24.0355  -10.2742  -16.3875 O   0  0  0  0  0  0  0  0  0  0  0  0
   21.7102  -10.2456  -15.7193 C   0  0  2  0  0  0  0  0  0  0  0  0
   21.4991  -11.3759  -16.6362 N   0  0  0  0  0  0  0  0  0  0  0  0
   21.3880   -8.9711  -16.4245 C   0  0  0  0  0  0  0  0  0  0  0  0
   21.6536   -8.8259  -17.6239 O   0  0  0  0  0  0  0  0  0  0  0  0
   18.1336   -7.1553  -15.7322 C   0  0  0  0  0  0  0  0  0  0  0  0
   19.0381   -6.6986  -16.8632 C   0  0  1  0  0  0  0  0  0  0  0  0
   18.6235   -5.3428  -17.3568 C   0  0  0  0  0  0  0  0  0  0  0  0
   20.4517   -6.6448  -16.2892 C   0  0  2  0  0  0  0  0  0  0  0  0
   20.7686   -7.9232  -15.6922 N   0  0  0  0  0  0  0  0  0  0  0  0
   20.5752   -5.5888  -15.2737 C   0  0  0  0  0  0  0  0  0  0  0  0
   20.5035   -5.8545  -13.9068 O   0  0  0  0  0  0  0  0  0  0  0  0
   20.7518   -4.4012  -15.6362 O   0  0  0  0  0  0  0  0  0  0  0  0
  2  3  1  0
  2  1  1  0
  3  4  1  1
  5  7  1  0
  5  3  1  0
  5  6  1  1
  7  8  2  0
 10 12  1  0
 10  9  1  6
 11 10  1  0
 12 13  1  6
 13  7  1  0
 14 20  1  0
 14 12  1  0
 15 14  2  0
 17 16  1  1
 17 18  1  0
 19 20  1  1
 19 17  1  0
 21 22  1  0
 21 19  1  0
 23 21  2  0
M  END
$$$$
