ITV.pdb
     RDKit          3D

 23 22  0  0  1  0  0  0  0  0999 V2000
   16.6704  -14.3668  -18.2887 C   0  0  0  0  0  0  0  0  0  0  0  0
   17.4867  -13.1723  -18.7645 C   0  0  0  0  0  0  0  0  0  0  0  0
   18.0840  -12.5261  -17.5429 C   0  0  2  0  0  0  0  0  0  0  0  0
   16.9984  -11.9721  -16.6428 C   0  0  0  0  0  0  0  0  0  0  0  0
   19.0202  -11.3995  -17.8686 C   0  0  2  0  0  0  0  0  0  0  0  0
   20.0268  -11.9100  -18.8013 N   0  0  0  0  0  0  0  0  0  0  0  0
   19.7152  -10.8475  -16.6971 C   0  0  0  0  0  0  0  0  0  0  0  0
   19.1135  -10.5878  -15.6170 O   0  0  0  0  0  0  0  0  0  0  0  0
   23.9782   -9.9449  -14.4067 C   0  0  0  0  0  0  0  0  0  0  0  0
   23.0804  -10.6788  -15.3835 C   0  0  1  0  0  0  0  0  0  0  0  0
   22.9081  -11.9871  -14.9913 O   0  0  0  0  0  0  0  0  0  0  0  0
   21.7807   -9.9278  -15.5763 C   0  0  2  0  0  0  0  0  0  0  0  0
   21.1144  -10.5739  -16.7171 N   0  0  0  0  0  0  0  0  0  0  0  0
   22.0161   -8.4890  -15.8924 C   0  0  0  0  0  0  0  0  0  0  0  0
   22.5568   -8.1535  -16.9532 O   0  0  0  0  0  0  0  0  0  0  0  0
   19.9429   -6.0752  -16.7367 C   0  0  0  0  0  0  0  0  0  0  0  0
   20.4657   -5.4335  -15.4636 C   0  0  1  0  0  0  0  0  0  0  0  0
   19.5131   -5.6634  -14.3263 C   0  0  0  0  0  0  0  0  0  0  0  0
   21.8112   -6.0925  -15.1703 C   0  0  2  0  0  0  0  0  0  0  0  0
   21.6069   -7.5071  -14.9508 N   0  0  0  0  0  0  0  0  0  0  0  0
   22.4468   -5.5020  -13.9833 C   0  0  0  0  0  0  0  0  0  0  0  0
   23.1264   -4.2853  -14.0268 O   0  0  0  0  0  0  0  0  0  0  0  0
   22.3830   -6.1042  -12.8849 O   0  0  0  0  0  0  0  0  0  0  0  0
  2  3  1  0
  2  1  1  0
  3  4  1  1
  5  7  1  0
  5  3  1  0
  5  6  1  6
  7  8  2  0
 10 12  1  0
 10  9  1  1
 11 10  1  0
 12 13  1  6
 13  7  1  0
 14 20  1  0
 14 12  1  0
 15 14  2  0
 17 16  1  6
 17 18  1  0
 19 20  1  1
 19 17  1  0
 21 22  1  0
 21 19  1  0
 23 21  2  0
M  END
$$$$
