ITV.pdb
     RDKit          3D

 23 22  0  0  1  0  0  0  0  0999 V2000
   18.4043  -17.2348  -18.5188 C   0  0  0  0  0  0  0  0  0  0  0  0
   17.3754  -16.4216  -17.7443 C   0  0  0  0  0  0  0  0  0  0  0  0
   17.6757  -14.9679  -17.9960 C   0  0  2  0  0  0  0  0  0  0  0  0
   18.4566  -14.7954  -19.2829 C   0  0  0  0  0  0  0  0  0  0  0  0
   18.4713  -14.3299  -16.8952 C   0  0  2  0  0  0  0  0  0  0  0  0
   17.7140  -14.4804  -15.6511 N   0  0  0  0  0  0  0  0  0  0  0  0
   18.7336  -12.8990  -17.1047 C   0  0  0  0  0  0  0  0  0  0  0  0
   19.4251  -12.4754  -18.0735 O   0  0  0  0  0  0  0  0  0  0  0  0
   16.4107  -10.1359  -17.7547 C   0  0  0  0  0  0  0  0  0  0  0  0
   17.1404   -9.8013  -16.4686 C   0  0  1  0  0  0  0  0  0  0  0  0
   16.3527  -10.0907  -15.3773 O   0  0  0  0  0  0  0  0  0  0  0  0
   18.4939  -10.4777  -16.4354 C   0  0  2  0  0  0  0  0  0  0  0  0
   18.2186  -11.9063  -16.2204 N   0  0  0  0  0  0  0  0  0  0  0  0
   19.3403   -9.9647  -15.3192 C   0  0  0  0  0  0  0  0  0  0  0  0
   19.0532  -10.2110  -14.1414 O   0  0  0  0  0  0  0  0  0  0  0  0
   23.0414  -10.4243  -15.1610 C   0  0  0  0  0  0  0  0  0  0  0  0
   22.8323   -8.9217  -15.0947 C   0  0  1  0  0  0  0  0  0  0  0  0
   23.0315   -8.3004  -16.4467 C   0  0  0  0  0  0  0  0  0  0  0  0
   21.3979   -8.7071  -14.6182 C   0  0  2  0  0  0  0  0  0  0  0  0
   20.4859   -9.1856  -15.6333 N   0  0  0  0  0  0  0  0  0  0  0  0
   21.1307   -7.2857  -14.3541 C   0  0  0  0  0  0  0  0  0  0  0  0
   21.5102   -6.6621  -13.1661 O   0  0  0  0  0  0  0  0  0  0  0  0
   20.5404   -6.5971  -15.2204 O   0  0  0  0  0  0  0  0  0  0  0  0
  2  3  1  0
  2  1  1  0
  3  4  1  6
  5  7  1  0
  5  3  1  0
  5  6  1  1
  7  8  2  0
 10 12  1  0
 10  9  1  6
 11 10  1  0
 12 13  1  1
 13  7  1  0
 14 20  1  0
 14 12  1  0
 15 14  2  0
 17 16  1  6
 17 18  1  0
 19 20  1  6
 19 17  1  0
 21 22  1  0
 21 19  1  0
 23 21  2  0
M  END
$$$$
