ITV.pdb
     RDKit          3D

 23 22  0  0  1  0  0  0  0  0999 V2000
   26.2925  -14.6844  -16.0596 C   0  0  0  0  0  0  0  0  0  0  0  0
   26.1888  -16.1546  -16.4440 C   0  0  0  0  0  0  0  0  0  0  0  0
   25.6918  -16.8976  -15.2326 C   0  0  2  0  0  0  0  0  0  0  0  0
   26.6632  -16.7550  -14.0786 C   0  0  0  0  0  0  0  0  0  0  0  0
   25.4945  -18.3646  -15.4792 C   0  0  2  0  0  0  0  0  0  0  0  0
   24.5823  -18.5084  -16.6153 N   0  0  0  0  0  0  0  0  0  0  0  0
   24.9225  -19.0875  -14.3344 C   0  0  0  0  0  0  0  0  0  0  0  0
   23.7262  -18.9229  -13.9629 O   0  0  0  0  0  0  0  0  0  0  0  0
   24.2387  -22.5071  -13.9921 C   0  0  0  0  0  0  0  0  0  0  0  0
   25.1725  -22.2170  -12.8334 C   0  0  1  0  0  0  0  0  0  0  0  0
   26.4471  -22.6508  -13.1203 O   0  0  0  0  0  0  0  0  0  0  0  0
   25.1021  -20.7549  -12.4488 C   0  0  2  0  0  0  0  0  0  0  0  0
   25.6919  -20.0189  -13.5772 N   0  0  0  0  0  0  0  0  0  0  0  0
   25.8851  -20.4713  -11.2112 C   0  0  0  0  0  0  0  0  0  0  0  0
   26.9873  -19.9130  -11.2726 O   0  0  0  0  0  0  0  0  0  0  0  0
   26.8716  -18.8428   -7.2223 C   0  0  0  0  0  0  0  0  0  0  0  0
   26.2168  -19.0694   -8.5735 C   0  0  1  0  0  0  0  0  0  0  0  0
   27.0979  -18.5644   -9.6790 C   0  0  0  0  0  0  0  0  0  0  0  0
   26.0113  -20.5765   -8.7052 C   0  0  2  0  0  0  0  0  0  0  0  0
   25.3412  -20.8547   -9.9561 N   0  0  0  0  0  0  0  0  0  0  0  0
   25.2068  -21.1043   -7.5935 C   0  0  0  0  0  0  0  0  0  0  0  0
   23.9379  -21.6502   -7.7827 O   0  0  0  0  0  0  0  0  0  0  0  0
   25.6667  -21.0684   -6.4272 O   0  0  0  0  0  0  0  0  0  0  0  0
  2  3  1  0
  2  1  1  0
  3  4  1  1
  5  7  1  0
  5  3  1  0
  5  6  1  6
  7  8  2  0
 10 12  1  0
 10  9  1  6
 11 10  1  0
 12 13  1  6
 13  7  1  0
 14 20  1  0
 14 12  1  0
 15 14  2  0
 17 16  1  1
 17 18  1  0
 19 20  1  6
 19 17  1  0
 21 22  1  0
 21 19  1  0
 23 21  2  0
M  END
$$$$
