ITV.pdb
     RDKit          3D

 23 22  0  0  1  0  0  0  0  0999 V2000
   24.8376  -14.8427  -14.9955 C   0  0  0  0  0  0  0  0  0  0  0  0
   23.4030  -14.6721  -15.4776 C   0  0  0  0  0  0  0  0  0  0  0  0
   23.2463  -13.2388  -15.9110 C   0  0  2  0  0  0  0  0  0  0  0  0
   23.4379  -12.2987  -14.7384 C   0  0  0  0  0  0  0  0  0  0  0  0
   21.9020  -12.9465  -16.5102 C   0  0  2  0  0  0  0  0  0  0  0  0
   21.7095  -13.8554  -17.6419 N   0  0  0  0  0  0  0  0  0  0  0  0
   21.7560  -11.5673  -16.9968 C   0  0  0  0  0  0  0  0  0  0  0  0
   22.1083  -11.2222  -18.1600 O   0  0  0  0  0  0  0  0  0  0  0  0
   20.3029  -10.2516  -18.8835 C   0  0  0  0  0  0  0  0  0  0  0  0
   19.8265   -9.3857  -17.7337 C   0  0  1  0  0  0  0  0  0  0  0  0
   18.6644   -9.8924  -17.1971 O   0  0  0  0  0  0  0  0  0  0  0  0
   20.9321   -9.1985  -16.7173 C   0  0  2  0  0  0  0  0  0  0  0  0
   21.2058  -10.5387  -16.1771 N   0  0  0  0  0  0  0  0  0  0  0  0
   20.5138   -8.2946  -15.6067 C   0  0  0  0  0  0  0  0  0  0  0  0
   19.8625   -8.7277  -14.6484 O   0  0  0  0  0  0  0  0  0  0  0  0
   22.7143   -4.8646  -15.1800 C   0  0  0  0  0  0  0  0  0  0  0  0
   21.9987   -5.5422  -14.0249 C   0  0  1  0  0  0  0  0  0  0  0  0
   21.7964   -4.5796  -12.8908 C   0  0  0  0  0  0  0  0  0  0  0  0
   20.6517   -6.0120  -14.5687 C   0  0  2  0  0  0  0  0  0  0  0  0
   20.8778   -6.9228  -15.6689 N   0  0  0  0  0  0  0  0  0  0  0  0
   19.8395   -4.8782  -15.0338 C   0  0  0  0  0  0  0  0  0  0  0  0
   19.0902   -4.0886  -14.1626 O   0  0  0  0  0  0  0  0  0  0  0  0
   19.8106   -4.5999  -16.2564 O   0  0  0  0  0  0  0  0  0  0  0  0
  2  3  1  0
  2  1  1  0
  3  4  1  1
  5  7  1  0
  5  3  1  0
  5  6  1  6
  7  8  2  0
 10 12  1  0
 10  9  1  6
 11 10  1  0
 12 13  1  1
 13  7  1  0
 14 20  1  0
 14 12  1  0
 15 14  2  0
 17 16  1  6
 17 18  1  0
 19 20  1  6
 19 17  1  0
 21 22  1  0
 21 19  1  0
 23 21  2  0
M  END
$$$$
