ITV.pdb
     RDKit          3D

 23 22  0  0  1  0  0  0  0  0999 V2000
   14.5230  -13.0092  -18.3612 C   0  0  0  0  0  0  0  0  0  0  0  0
   15.9079  -13.2340  -18.9540 C   0  0  0  0  0  0  0  0  0  0  0  0
   16.8755  -12.4048  -18.1523 C   0  0  2  0  0  0  0  0  0  0  0  0
   16.5198  -10.9343  -18.2348 C   0  0  0  0  0  0  0  0  0  0  0  0
   18.2978  -12.5524  -18.6071 C   0  0  2  0  0  0  0  0  0  0  0  0
   18.6956  -13.9442  -18.3869 N   0  0  0  0  0  0  0  0  0  0  0  0
   19.2433  -11.6841  -17.8913 C   0  0  0  0  0  0  0  0  0  0  0  0
   19.7771  -12.0255  -16.7984 O   0  0  0  0  0  0  0  0  0  0  0  0
   22.3501   -7.8627  -18.3402 C   0  0  0  0  0  0  0  0  0  0  0  0
   21.3738   -8.8845  -18.8891 C   0  0  1  0  0  0  0  0  0  0  0  0
   22.0044   -9.7259  -19.7777 O   0  0  0  0  0  0  0  0  0  0  0  0
   20.6744   -9.6098  -17.7598 C   0  0  2  0  0  0  0  0  0  0  0  0
   19.6107  -10.4020  -18.3953 N   0  0  0  0  0  0  0  0  0  0  0  0
   20.0660   -8.6581  -16.7854 C   0  0  0  0  0  0  0  0  0  0  0  0
   19.0972   -7.9580  -17.1040 O   0  0  0  0  0  0  0  0  0  0  0  0
   18.9511   -9.5018  -13.4120 C   0  0  0  0  0  0  0  0  0  0  0  0
   19.9505   -8.3866  -13.1603 C   0  0  1  0  0  0  0  0  0  0  0  0
   21.2672   -8.9489  -12.7091 C   0  0  0  0  0  0  0  0  0  0  0  0
   20.1153   -7.6484  -14.4865 C   0  0  2  0  0  0  0  0  0  0  0  0
   20.6204   -8.5693  -15.4805 N   0  0  0  0  0  0  0  0  0  0  0  0
   21.0436   -6.5160  -14.3548 C   0  0  0  0  0  0  0  0  0  0  0  0
   22.3297   -6.5375  -14.8930 O   0  0  0  0  0  0  0  0  0  0  0  0
   20.6782   -5.4867  -13.7384 O   0  0  0  0  0  0  0  0  0  0  0  0
  2  3  1  0
  2  1  1  0
  3  4  1  6
  5  7  1  0
  5  3  1  0
  5  6  1  1
  7  8  2  0
 10 12  1  0
 10  9  1  1
 11 10  1  0
 12 13  1  6
 13  7  1  0
 14 20  1  0
 14 12  1  0
 15 14  2  0
 17 16  1  6
 17 18  1  0
 19 20  1  6
 19 17  1  0
 21 22  1  0
 21 19  1  0
 23 21  2  0
M  END
$$$$
