ITV.pdb
     RDKit          3D

 23 22  0  0  1  0  0  0  0  0999 V2000
   27.4649  -19.9304   -7.1671 C   0  0  0  0  0  0  0  0  0  0  0  0
   27.4612  -21.0396   -8.2108 C   0  0  0  0  0  0  0  0  0  0  0  0
   26.6738  -20.5373   -9.3916 C   0  0  2  0  0  0  0  0  0  0  0  0
   25.2421  -20.2393   -8.9954 C   0  0  0  0  0  0  0  0  0  0  0  0
   26.6341  -21.5112  -10.5326 C   0  0  2  0  0  0  0  0  0  0  0  0
   28.0128  -21.8965  -10.8399 N   0  0  0  0  0  0  0  0  0  0  0  0
   26.0236  -20.9693  -11.7549 C   0  0  0  0  0  0  0  0  0  0  0  0
   26.5427  -20.0164  -12.4020 O   0  0  0  0  0  0  0  0  0  0  0  0
   25.6774  -22.2196  -14.9895 C   0  0  0  0  0  0  0  0  0  0  0  0
   24.2476  -22.0053  -14.5330 C   0  0  1  0  0  0  0  0  0  0  0  0
   23.6860  -23.1958  -14.1302 O   0  0  0  0  0  0  0  0  0  0  0  0
   24.1839  -20.9187  -13.4814 C   0  0  2  0  0  0  0  0  0  0  0  0
   24.8056  -21.4932  -12.2788 N   0  0  0  0  0  0  0  0  0  0  0  0
   22.7769  -20.5311  -13.1725 C   0  0  0  0  0  0  0  0  0  0  0  0
   22.1970  -20.9880  -12.1799 O   0  0  0  0  0  0  0  0  0  0  0  0
   20.7843  -18.1360  -16.0046 C   0  0  0  0  0  0  0  0  0  0  0  0
   20.5406  -17.8489  -14.5335 C   0  0  1  0  0  0  0  0  0  0  0  0
   19.1384  -17.3587  -14.3160 C   0  0  0  0  0  0  0  0  0  0  0  0
   20.7627  -19.1664  -13.7950 C   0  0  2  0  0  0  0  0  0  0  0  0
   22.1119  -19.6248  -14.0412 N   0  0  0  0  0  0  0  0  0  0  0  0
   19.8101  -20.1942  -14.2395 C   0  0  0  0  0  0  0  0  0  0  0  0
   18.5867  -20.4040  -13.6044 O   0  0  0  0  0  0  0  0  0  0  0  0
   20.0956  -20.9158  -15.2248 O   0  0  0  0  0  0  0  0  0  0  0  0
  2  3  1  0
  2  1  1  0
  3  4  1  1
  5  7  1  0
  5  3  1  0
  5  6  1  6
  7  8  2  0
 10 12  1  0
 10  9  1  1
 11 10  1  0
 12 13  1  1
 13  7  1  0
 14 20  1  0
 14 12  1  0
 15 14  2  0
 17 16  1  6
 17 18  1  0
 19 20  1  6
 19 17  1  0
 21 22  1  0
 21 19  1  0
 23 21  2  0
M  END
$$$$
