ITV.pdb
     RDKit          3D

 23 22  0  0  1  0  0  0  0  0999 V2000
   17.4015  -13.6425  -16.8222 C   0  0  0  0  0  0  0  0  0  0  0  0
   16.2636  -12.8122  -16.2429 C   0  0  0  0  0  0  0  0  0  0  0  0
   16.8224  -12.0447  -15.0745 C   0  0  2  0  0  0  0  0  0  0  0  0
   17.3735  -12.9888  -14.0254 C   0  0  0  0  0  0  0  0  0  0  0  0
   15.8065  -11.1669  -14.4042 C   0  0  2  0  0  0  0  0  0  0  0  0
   15.2610  -10.2606  -15.4165 N   0  0  0  0  0  0  0  0  0  0  0  0
   16.3538  -10.3563  -13.3070 C   0  0  0  0  0  0  0  0  0  0  0  0
   16.8950  -10.8758  -12.2904 O   0  0  0  0  0  0  0  0  0  0  0  0
   19.1379   -8.2346  -13.3226 C   0  0  0  0  0  0  0  0  0  0  0  0
   18.0018   -7.3259  -12.8958 C   0  0  1  0  0  0  0  0  0  0  0  0
   17.5778   -6.5538  -13.9538 O   0  0  0  0  0  0  0  0  0  0  0  0
   16.8940   -8.1296  -12.2498 C   0  0  2  0  0  0  0  0  0  0  0  0
   16.3028   -8.9317  -13.3314 N   0  0  0  0  0  0  0  0  0  0  0  0
   15.8452   -7.2485  -11.6589 C   0  0  0  0  0  0  0  0  0  0  0  0
   14.8765   -6.8769  -12.3325 O   0  0  0  0  0  0  0  0  0  0  0  0
   13.6396   -7.7984   -9.0335 C   0  0  0  0  0  0  0  0  0  0  0  0
   14.4015   -6.6066   -8.4813 C   0  0  1  0  0  0  0  0  0  0  0  0
   15.4468   -7.0556   -7.5018 C   0  0  0  0  0  0  0  0  0  0  0  0
   15.0557   -5.9213   -9.6785 C   0  0  2  0  0  0  0  0  0  0  0  0
   15.9786   -6.8421  -10.3042 N   0  0  0  0  0  0  0  0  0  0  0  0
   15.7794   -4.7088   -9.2691 C   0  0  0  0  0  0  0  0  0  0  0  0
   15.1329   -3.4958   -9.0351 O   0  0  0  0  0  0  0  0  0  0  0  0
   17.0241   -4.7531   -9.1213 O   0  0  0  0  0  0  0  0  0  0  0  0
  2  3  1  0
  2  1  1  0
  3  4  1  1
  5  7  1  0
  5  3  1  0
  5  6  1  6
  7  8  2  0
 10 12  1  0
 10  9  1  6
 11 10  1  0
 12 13  1  6
 13  7  1  0
 14 20  1  0
 14 12  1  0
 15 14  2  0
 17 16  1  6
 17 18  1  0
 19 20  1  1
 19 17  1  0
 21 22  1  0
 21 19  1  0
 23 21  2  0
M  END
$$$$
