ITV.pdb
     RDKit          3D

 23 22  0  0  1  0  0  0  0  0999 V2000
   16.0319  -14.0436  -19.3952 C   0  0  0  0  0  0  0  0  0  0  0  0
   16.9379  -13.7635  -18.2033 C   0  0  0  0  0  0  0  0  0  0  0  0
   16.3624  -12.5779  -17.4754 C   0  0  2  0  0  0  0  0  0  0  0  0
   16.3619  -11.3504  -18.3635 C   0  0  0  0  0  0  0  0  0  0  0  0
   17.1147  -12.2308  -16.2243 C   0  0  2  0  0  0  0  0  0  0  0  0
   17.0412  -13.3831  -15.3240 N   0  0  0  0  0  0  0  0  0  0  0  0
   16.5812  -11.0582  -15.5167 C   0  0  0  0  0  0  0  0  0  0  0  0
   15.3460  -10.9071  -15.2985 O   0  0  0  0  0  0  0  0  0  0  0  0
   16.6332   -9.8569  -12.1763 C   0  0  0  0  0  0  0  0  0  0  0  0
   17.3761   -8.8140  -12.9882 C   0  0  1  0  0  0  0  0  0  0  0  0
   18.7363   -8.9929  -12.8747 O   0  0  0  0  0  0  0  0  0  0  0  0
   16.8832   -8.8060  -14.4192 C   0  0  2  0  0  0  0  0  0  0  0  0
   17.4345  -10.0222  -15.0357 N   0  0  0  0  0  0  0  0  0  0  0  0
   17.3718   -7.6098  -15.1647 C   0  0  0  0  0  0  0  0  0  0  0  0
   18.3504   -7.6882  -15.9173 O   0  0  0  0  0  0  0  0  0  0  0  0
   14.6454   -5.0050  -16.2332 C   0  0  0  0  0  0  0  0  0  0  0  0
   16.0158   -5.0219  -16.8869 C   0  0  1  0  0  0  0  0  0  0  0  0
   16.2664   -3.7372  -17.6220 C   0  0  0  0  0  0  0  0  0  0  0  0
   17.0294   -5.1938  -15.7582 C   0  0  2  0  0  0  0  0  0  0  0  0
   16.6912   -6.3745  -14.9949 N   0  0  0  0  0  0  0  0  0  0  0  0
   17.0394   -4.0240  -14.8676 C   0  0  0  0  0  0  0  0  0  0  0  0
   17.8817   -2.9328  -15.0767 O   0  0  0  0  0  0  0  0  0  0  0  0
   16.2672   -3.9935  -13.8798 O   0  0  0  0  0  0  0  0  0  0  0  0
  2  3  1  0
  2  1  1  0
  3  4  1  6
  5  7  1  0
  5  3  1  0
  5  6  1  1
  7  8  2  0
 10 12  1  0
 10  9  1  1
 11 10  1  0
 12 13  1  6
 13  7  1  0
 14 20  1  0
 14 12  1  0
 15 14  2  0
 17 16  1  1
 17 18  1  0
 19 20  1  1
 19 17  1  0
 21 22  1  0
 21 19  1  0
 23 21  2  0
M  END
$$$$
