KYN.pdb
     RDKit          3D

 30 30  0  0  1  0  0  0  0  0999 V2000
   37.1274  -34.0645  -18.8116 N   0  0  0  0  0  0  0  0  0  0  0  0
   36.5247  -32.8412  -19.2292 C   0  0  1  0  0  0  0  0  0  0  0  0
   36.8017  -32.4792  -20.6719 C   0  0  0  0  0  0  0  0  0  0  0  0
   36.2010  -31.1444  -20.9648 C   0  0  0  0  0  0  0  0  0  0  0  0
   37.2053  -30.1218  -21.4248 C   0  0  0  0  0  0  0  0  0  0  0  0
   36.5321  -28.7991  -21.6650 C   0  0  0  0  0  0  0  0  0  0  0  0
   37.4736  -27.7421  -21.9577 N   0  0  0  0  0  0  0  0  0  0  0  0
   35.0623  -32.9158  -19.0711 C   0  0  0  0  0  0  0  0  0  0  0  0
   34.3754  -33.8830  -19.5338 O   0  0  0  0  0  0  0  0  0  0  0  0
   27.2512  -31.8342  -15.1796 O   0  0  0  0  0  0  0  0  0  0  0  0
   28.5644  -31.7357  -15.5871 C   0  0  0  0  0  0  0  0  0  0  0  0
   29.0564  -30.5788  -16.1433 C   0  0  0  0  0  0  0  0  0  0  0  0
   30.3577  -30.4467  -16.5594 C   0  0  0  0  0  0  0  0  0  0  0  0
   31.2278  -31.5083  -16.4232 C   0  0  0  0  0  0  0  0  0  0  0  0
   32.6300  -31.4745  -16.8396 C   0  0  0  0  0  0  0  0  0  0  0  0
   32.9094  -31.9959  -18.2138 C   0  0  2  0  0  0  0  0  0  0  0  0
   34.3663  -31.9033  -18.3917 N   0  0  0  0  0  0  0  0  0  0  0  0
   32.2403  -31.1802  -19.2522 C   0  0  0  0  0  0  0  0  0  0  0  0
   32.5978  -29.9886  -19.4875 O   0  0  0  0  0  0  0  0  0  0  0  0
   30.7374  -32.6741  -15.8644 C   0  0  0  0  0  0  0  0  0  0  0  0
   29.4224  -32.8060  -15.4444 C   0  0  0  0  0  0  0  0  0  0  0  0
   28.7513  -30.0337  -22.8565 N   0  0  0  0  0  0  0  0  0  0  0  0
   28.1324  -30.8785  -21.9087 C   0  0  0  0  0  0  0  0  0  0  0  0
   26.9450  -31.2193  -22.0662 O   0  0  0  0  0  0  0  0  0  0  0  0
   28.8947  -31.3480  -20.7452 C   0  0  0  0  0  0  0  0  0  0  0  0
   30.3247  -30.8860  -20.8612 C   0  0  2  0  0  0  0  0  0  0  0  0
   31.1726  -31.7362  -20.0069 N   0  0  0  0  0  0  0  0  0  0  0  0
   30.4487  -29.4900  -20.4069 C   0  0  0  0  0  0  0  0  0  0  0  0
   30.1119  -29.1034  -19.2798 O   0  0  0  0  0  0  0  0  0  0  0  0
   30.9713  -28.5442  -21.2821 O   0  0  0  0  0  0  0  0  0  0  0  0
  2  1  1  6
  3  4  1  0
  3  2  1  0
  5  6  1  0
  5  4  1  0
  6  7  1  0
  8  2  1  0
  8  9  2  0
 10 11  1  0
 11 12  2  0
 12 13  1  0
 14 13  2  0
 14 15  1  0
 16 15  1  1
 16 17  1  0
 17  8  1  0
 18 16  1  0
 19 18  2  0
 20 14  1  0
 21 11  1  0
 21 20  2  0
 22 23  1  0
 23 25  1  0
 24 23  2  0
 26 25  1  1
 26 28  1  0
 26 27  1  0
 27 18  1  0
 28 30  1  0
 29 28  2  0
M  END
$$$$
