KYN.pdb
     RDKit          3D

 30 30  0  0  1  0  0  0  0  0999 V2000
   28.3997  -22.7451  -18.3830 N   0  0  0  0  0  0  0  0  0  0  0  0
   27.9488  -21.5090  -17.8329 C   0  0  1  0  0  0  0  0  0  0  0  0
   26.9781  -20.7585  -18.7182 C   0  0  0  0  0  0  0  0  0  0  0  0
   27.6909  -20.3025  -19.9481 C   0  0  0  0  0  0  0  0  0  0  0  0
   28.1006  -18.8547  -19.9025 C   0  0  0  0  0  0  0  0  0  0  0  0
   28.7635  -18.4582  -21.1924 C   0  0  0  0  0  0  0  0  0  0  0  0
   29.1398  -17.0628  -21.2171 N   0  0  0  0  0  0  0  0  0  0  0  0
   27.2736  -21.7427  -16.5449 C   0  0  0  0  0  0  0  0  0  0  0  0
   26.4866  -22.7258  -16.3568 O   0  0  0  0  0  0  0  0  0  0  0  0
   25.0213  -20.2616   -8.0857 O   0  0  0  0  0  0  0  0  0  0  0  0
   25.6243  -20.2697   -9.3252 C   0  0  0  0  0  0  0  0  0  0  0  0
   25.7241  -19.1252  -10.0802 C   0  0  0  0  0  0  0  0  0  0  0  0
   26.3179  -19.0979  -11.3174 C   0  0  0  0  0  0  0  0  0  0  0  0
   26.8445  -20.2578  -11.8462 C   0  0  0  0  0  0  0  0  0  0  0  0
   27.4914  -20.3389  -13.1561 C   0  0  0  0  0  0  0  0  0  0  0  0
   26.7049  -21.0311  -14.2241 C   0  0  2  0  0  0  0  0  0  0  0  0
   27.4809  -20.8720  -15.4633 N   0  0  0  0  0  0  0  0  0  0  0  0
   25.3709  -20.4152  -14.4037 C   0  0  0  0  0  0  0  0  0  0  0  0
   25.2392  -19.2608  -14.9069 O   0  0  0  0  0  0  0  0  0  0  0  0
   26.7464  -21.4117  -11.0905 C   0  0  0  0  0  0  0  0  0  0  0  0
   26.1462  -21.4376   -9.8407 C   0  0  0  0  0  0  0  0  0  0  0  0
   22.1700  -19.6292  -16.9899 N   0  0  0  0  0  0  0  0  0  0  0  0
   22.5014  -20.8615  -16.3843 C   0  0  0  0  0  0  0  0  0  0  0  0
   23.2079  -21.6824  -16.9989 O   0  0  0  0  0  0  0  0  0  0  0  0
   22.0097  -21.1643  -15.0345 C   0  0  0  0  0  0  0  0  0  0  0  0
   22.8828  -20.4778  -14.0156 C   0  0  2  0  0  0  0  0  0  0  0  0
   24.2065  -21.1256  -14.0062 N   0  0  0  0  0  0  0  0  0  0  0  0
   22.2906  -20.5979  -12.6719 C   0  0  0  0  0  0  0  0  0  0  0  0
   22.7525  -21.3239  -11.7815 O   0  0  0  0  0  0  0  0  0  0  0  0
   21.1499  -19.8607  -12.3739 O   0  0  0  0  0  0  0  0  0  0  0  0
  2  1  1  6
  3  4  1  0
  3  2  1  0
  5  6  1  0
  5  4  1  0
  6  7  1  0
  8  2  1  0
  8  9  2  0
 10 11  1  0
 11 12  2  0
 12 13  1  0
 14 13  2  0
 14 15  1  0
 16 15  1  1
 16 17  1  0
 17  8  1  0
 18 16  1  0
 19 18  2  0
 20 14  1  0
 21 11  1  0
 21 20  2  0
 22 23  1  0
 23 25  1  0
 24 23  2  0
 26 25  1  6
 26 28  1  0
 26 27  1  0
 27 18  1  0
 28 30  1  0
 29 28  2  0
M  END
$$$$
