KYN.pdb
     RDKit          3D

 30 30  0  0  1  0  0  0  0  0999 V2000
   29.1394  -21.0086  -18.6536 N   0  0  0  0  0  0  0  0  0  0  0  0
   28.3165  -20.0343  -18.0152 C   0  0  1  0  0  0  0  0  0  0  0  0
   27.2151  -19.4860  -18.8958 C   0  0  0  0  0  0  0  0  0  0  0  0
   27.7496  -19.2777  -20.2740 C   0  0  0  0  0  0  0  0  0  0  0  0
   27.5707  -20.4709  -21.1741 C   0  0  0  0  0  0  0  0  0  0  0  0
   27.9622  -20.1255  -22.5840 C   0  0  0  0  0  0  0  0  0  0  0  0
   27.8624  -21.2550  -23.4804 N   0  0  0  0  0  0  0  0  0  0  0  0
   27.6744  -20.6145  -16.8234 C   0  0  0  0  0  0  0  0  0  0  0  0
   27.2948  -21.8290  -16.7772 O   0  0  0  0  0  0  0  0  0  0  0  0
   25.4159  -20.9364   -8.2205 O   0  0  0  0  0  0  0  0  0  0  0  0
   25.9270  -20.6363   -9.4650 C   0  0  0  0  0  0  0  0  0  0  0  0
   27.0295  -21.2897   -9.9627 C   0  0  0  0  0  0  0  0  0  0  0  0
   27.5639  -21.0159  -11.1970 C   0  0  0  0  0  0  0  0  0  0  0  0
   26.9859  -20.0467  -11.9900 C   0  0  0  0  0  0  0  0  0  0  0  0
   27.4796  -19.6740  -13.3160 C   0  0  0  0  0  0  0  0  0  0  0  0
   26.8940  -20.4367  -14.4622 C   0  0  2  0  0  0  0  0  0  0  0  0
   27.4567  -19.8313  -15.6787 N   0  0  0  0  0  0  0  0  0  0  0  0
   25.4189  -20.3181  -14.4981 C   0  0  0  0  0  0  0  0  0  0  0  0
   24.8513  -19.2594  -14.8982 O   0  0  0  0  0  0  0  0  0  0  0  0
   25.8769  -19.3866  -11.4937 C   0  0  0  0  0  0  0  0  0  0  0  0
   25.3381  -19.6644  -10.2465 C   0  0  0  0  0  0  0  0  0  0  0  0
   20.3561  -22.9227  -15.2195 N   0  0  0  0  0  0  0  0  0  0  0  0
   21.1041  -22.6447  -14.0540 C   0  0  0  0  0  0  0  0  0  0  0  0
   20.5157  -22.3401  -12.9995 O   0  0  0  0  0  0  0  0  0  0  0  0
   22.5698  -22.7173  -14.0956 C   0  0  0  0  0  0  0  0  0  0  0  0
   23.1421  -21.3230  -14.1091 C   0  0  2  0  0  0  0  0  0  0  0  0
   24.6128  -21.4096  -14.0767 N   0  0  0  0  0  0  0  0  0  0  0  0
   22.6885  -20.5735  -12.9245 C   0  0  0  0  0  0  0  0  0  0  0  0
   21.7970  -19.7147  -12.9567 O   0  0  0  0  0  0  0  0  0  0  0  0
   23.2861  -20.8350  -11.6966 O   0  0  0  0  0  0  0  0  0  0  0  0
  2  1  1  6
  3  4  1  0
  3  2  1  0
  5  6  1  0
  5  4  1  0
  6  7  1  0
  8  2  1  0
  8  9  2  0
 10 11  1  0
 11 12  2  0
 12 13  1  0
 14 13  2  0
 14 15  1  0
 16 15  1  1
 16 17  1  0
 17  8  1  0
 18 16  1  0
 19 18  2  0
 20 14  1  0
 21 11  1  0
 21 20  2  0
 22 23  1  0
 23 25  1  0
 24 23  2  0
 26 25  1  1
 26 28  1  0
 26 27  1  0
 27 18  1  0
 28 30  1  0
 29 28  2  0
M  END
$$$$
