KYN.pdb
     RDKit          3D

 30 30  0  0  1  0  0  0  0  0999 V2000
   24.3677  -12.5073  -17.1079 N   0  0  0  0  0  0  0  0  0  0  0  0
   24.6118  -11.3176  -16.3603 C   0  0  1  0  0  0  0  0  0  0  0  0
   25.8578  -10.5700  -16.7820 C   0  0  0  0  0  0  0  0  0  0  0  0
   27.0423  -11.4641  -16.6206 C   0  0  0  0  0  0  0  0  0  0  0  0
   27.5650  -12.0092  -17.9227 C   0  0  0  0  0  0  0  0  0  0  0  0
   28.8305  -12.7878  -17.6931 C   0  0  0  0  0  0  0  0  0  0  0  0
   29.9852  -11.9342  -17.5282 N   0  0  0  0  0  0  0  0  0  0  0  0
   23.4774  -10.3887  -16.4994 C   0  0  0  0  0  0  0  0  0  0  0  0
   22.7443  -10.3596  -17.5402 O   0  0  0  0  0  0  0  0  0  0  0  0
   18.0345  -13.4770  -16.7345 O   0  0  0  0  0  0  0  0  0  0  0  0
   18.7412  -12.3935  -16.2582 C   0  0  0  0  0  0  0  0  0  0  0  0
   18.7583  -11.1967  -16.9342 C   0  0  0  0  0  0  0  0  0  0  0  0
   19.4509  -10.0987  -16.4884 C   0  0  0  0  0  0  0  0  0  0  0  0
   20.1682  -10.1766  -15.3130 C   0  0  0  0  0  0  0  0  0  0  0  0
   20.9442   -9.0693  -14.7540 C   0  0  0  0  0  0  0  0  0  0  0  0
   22.0439   -8.5465  -15.6233 C   0  0  2  0  0  0  0  0  0  0  0  0
   23.1624   -9.4888  -15.4688 N   0  0  0  0  0  0  0  0  0  0  0  0
   22.4817   -7.1985  -15.1960 C   0  0  0  0  0  0  0  0  0  0  0  0
   23.0661   -7.0147  -14.0879 O   0  0  0  0  0  0  0  0  0  0  0  0
   20.1543  -11.3785  -14.6294 C   0  0  0  0  0  0  0  0  0  0  0  0
   19.4540  -12.4869  -15.0811 C   0  0  0  0  0  0  0  0  0  0  0  0
   24.8779   -4.9698  -17.2516 N   0  0  0  0  0  0  0  0  0  0  0  0
   23.8606   -4.1110  -17.7234 C   0  0  0  0  0  0  0  0  0  0  0  0
   23.9690   -3.5820  -18.8456 O   0  0  0  0  0  0  0  0  0  0  0  0
   22.6834   -3.8490  -16.8863 C   0  0  0  0  0  0  0  0  0  0  0  0
   22.7248   -4.7363  -15.6686 C   0  0  2  0  0  0  0  0  0  0  0  0
   22.2461   -6.0798  -16.0395 N   0  0  0  0  0  0  0  0  0  0  0  0
   21.8469   -4.1983  -14.6147 C   0  0  0  0  0  0  0  0  0  0  0  0
   20.6143   -4.3151  -14.6235 O   0  0  0  0  0  0  0  0  0  0  0  0
   22.4214   -3.5197  -13.5456 O   0  0  0  0  0  0  0  0  0  0  0  0
  2  1  1  6
  3  4  1  0
  3  2  1  0
  5  6  1  0
  5  4  1  0
  6  7  1  0
  8  2  1  0
  8  9  2  0
 10 11  1  0
 11 12  2  0
 12 13  1  0
 14 13  2  0
 14 15  1  0
 16 15  1  1
 16 17  1  0
 17  8  1  0
 18 16  1  0
 19 18  2  0
 20 14  1  0
 21 11  1  0
 21 20  2  0
 22 23  1  0
 23 25  1  0
 24 23  2  0
 26 25  1  6
 26 28  1  0
 26 27  1  0
 27 18  1  0
 28 30  1  0
 29 28  2  0
M  END
$$$$
