KYN.pdb
     RDKit          3D

 30 30  0  0  1  0  0  0  0  0999 V2000
   24.7217  -23.3467  -17.5647 N   0  0  0  0  0  0  0  0  0  0  0  0
   25.4124  -23.1483  -16.3329 C   0  0  1  0  0  0  0  0  0  0  0  0
   26.9084  -22.9812  -16.4855 C   0  0  0  0  0  0  0  0  0  0  0  0
   27.4569  -24.1512  -17.2331 C   0  0  0  0  0  0  0  0  0  0  0  0
   27.5107  -25.4143  -16.4159 C   0  0  0  0  0  0  0  0  0  0  0  0
   28.0223  -26.5554  -17.2504 C   0  0  0  0  0  0  0  0  0  0  0  0
   28.0059  -27.8139  -16.5396 N   0  0  0  0  0  0  0  0  0  0  0  0
   24.9056  -21.9428  -15.6551 C   0  0  0  0  0  0  0  0  0  0  0  0
   25.4611  -21.4613  -14.6155 O   0  0  0  0  0  0  0  0  0  0  0  0
   27.9442  -16.2968  -17.1070 O   0  0  0  0  0  0  0  0  0  0  0  0
   26.7561  -16.9673  -16.9096 C   0  0  0  0  0  0  0  0  0  0  0  0
   26.2965  -17.8919  -17.8172 C   0  0  0  0  0  0  0  0  0  0  0  0
   25.1188  -18.5771  -17.6516 C   0  0  0  0  0  0  0  0  0  0  0  0
   24.3462  -18.3439  -16.5330 C   0  0  0  0  0  0  0  0  0  0  0  0
   23.0738  -19.0144  -16.2641 C   0  0  0  0  0  0  0  0  0  0  0  0
   23.1472  -20.2009  -15.3557 C   0  0  2  0  0  0  0  0  0  0  0  0
   23.7721  -21.2739  -16.1438 N   0  0  0  0  0  0  0  0  0  0  0  0
   21.8014  -20.6379  -14.9210 C   0  0  0  0  0  0  0  0  0  0  0  0
   21.0046  -21.2139  -15.7189 O   0  0  0  0  0  0  0  0  0  0  0  0
   24.8043  -17.4147  -15.6173 C   0  0  0  0  0  0  0  0  0  0  0  0
   25.9944  -16.7232  -15.7860 C   0  0  0  0  0  0  0  0  0  0  0  0
   18.2690  -21.9929  -10.5353 N   0  0  0  0  0  0  0  0  0  0  0  0
   18.5348  -20.7872  -11.2214 C   0  0  0  0  0  0  0  0  0  0  0  0
   17.6077  -19.9870  -11.4474 O   0  0  0  0  0  0  0  0  0  0  0  0
   19.9025  -20.4875  -11.6627 C   0  0  0  0  0  0  0  0  0  0  0  0
   20.0398  -20.8099  -13.1287 C   0  0  2  0  0  0  0  0  0  0  0  0
   21.3842  -20.4113  -13.5819 N   0  0  0  0  0  0  0  0  0  0  0  0
   19.0389  -20.0641  -13.9114 C   0  0  0  0  0  0  0  0  0  0  0  0
   18.0245  -20.5816  -14.3977 O   0  0  0  0  0  0  0  0  0  0  0  0
   19.2319  -18.7035  -14.1234 O   0  0  0  0  0  0  0  0  0  0  0  0
  2  1  1  6
  3  4  1  0
  3  2  1  0
  5  6  1  0
  5  4  1  0
  6  7  1  0
  8  2  1  0
  8  9  2  0
 10 11  1  0
 11 12  2  0
 12 13  1  0
 14 13  2  0
 14 15  1  0
 16 15  1  6
 16 17  1  0
 17  8  1  0
 18 16  1  0
 19 18  2  0
 20 14  1  0
 21 11  1  0
 21 20  2  0
 22 23  1  0
 23 25  1  0
 24 23  2  0
 26 25  1  1
 26 28  1  0
 26 27  1  0
 27 18  1  0
 28 30  1  0
 29 28  2  0
M  END
$$$$
