KYN.pdb
     RDKit          3D

 30 30  0  0  1  0  0  0  0  0999 V2000
   18.9610  -14.6368  -18.6173 N   0  0  0  0  0  0  0  0  0  0  0  0
   19.9139  -14.0131  -17.7587 C   0  0  1  0  0  0  0  0  0  0  0  0
   21.2569  -14.7089  -17.7208 C   0  0  0  0  0  0  0  0  0  0  0  0
   21.0599  -16.1291  -17.3051 C   0  0  0  0  0  0  0  0  0  0  0  0
   20.7222  -16.2866  -15.8466 C   0  0  0  0  0  0  0  0  0  0  0  0
   20.5445  -17.7399  -15.5051 C   0  0  0  0  0  0  0  0  0  0  0  0
   20.1694  -17.9438  -14.1242 N   0  0  0  0  0  0  0  0  0  0  0  0
   20.1534  -12.6252  -18.1893 C   0  0  0  0  0  0  0  0  0  0  0  0
   20.3823  -12.3185  -19.4037 O   0  0  0  0  0  0  0  0  0  0  0  0
   18.8734   -4.6074  -20.5267 O   0  0  0  0  0  0  0  0  0  0  0  0
   18.9334   -5.9017  -20.0563 C   0  0  0  0  0  0  0  0  0  0  0  0
   18.0523   -6.3594  -19.1055 C   0  0  0  0  0  0  0  0  0  0  0  0
   18.0838   -7.6411  -18.6156 C   0  0  0  0  0  0  0  0  0  0  0  0
   19.0327   -8.5262  -19.0833 C   0  0  0  0  0  0  0  0  0  0  0  0
   19.1569   -9.9098  -18.6238 C   0  0  0  0  0  0  0  0  0  0  0  0
   20.3025  -10.1847  -17.7016 C   0  0  2  0  0  0  0  0  0  0  0  0
   20.1363  -11.5764  -17.2561 N   0  0  0  0  0  0  0  0  0  0  0  0
   20.2785   -9.2908  -16.5220 C   0  0  0  0  0  0  0  0  0  0  0  0
   19.3850   -9.3971  -15.6312 O   0  0  0  0  0  0  0  0  0  0  0  0
   19.9213   -8.0705  -20.0396 C   0  0  0  0  0  0  0  0  0  0  0  0
   19.8881   -6.7752  -20.5336 C   0  0  0  0  0  0  0  0  0  0  0  0
   21.5828   -5.7749  -13.0891 N   0  0  0  0  0  0  0  0  0  0  0  0
   22.5123   -5.5893  -14.1363 C   0  0  0  0  0  0  0  0  0  0  0  0
   23.4127   -4.7368  -14.0202 O   0  0  0  0  0  0  0  0  0  0  0  0
   22.4090   -6.4035  -15.3535 C   0  0  0  0  0  0  0  0  0  0  0  0
   21.3017   -7.4130  -15.1908 C   0  0  2  0  0  0  0  0  0  0  0  0
   21.2745   -8.2882  -16.3761 N   0  0  0  0  0  0  0  0  0  0  0  0
   20.0007   -6.7304  -15.0799 C   0  0  0  0  0  0  0  0  0  0  0  0
   19.5580   -5.9553  -15.9381 O   0  0  0  0  0  0  0  0  0  0  0  0
   19.2169   -6.9603  -13.9547 O   0  0  0  0  0  0  0  0  0  0  0  0
  2  1  1  6
  3  4  1  0
  3  2  1  0
  5  6  1  0
  5  4  1  0
  6  7  1  0
  8  2  1  0
  8  9  2  0
 10 11  1  0
 11 12  2  0
 12 13  1  0
 14 13  2  0
 14 15  1  0
 16 15  1  6
 16 17  1  0
 17  8  1  0
 18 16  1  0
 19 18  2  0
 20 14  1  0
 21 11  1  0
 21 20  2  0
 22 23  1  0
 23 25  1  0
 24 23  2  0
 26 25  1  6
 26 28  1  0
 26 27  1  0
 27 18  1  0
 28 30  1  0
 29 28  2  0
M  END
$$$$
