KYN.pdb
     RDKit          3D

 30 30  0  0  1  0  0  0  0  0999 V2000
   27.7669  -21.5978  -18.8452 N   0  0  0  0  0  0  0  0  0  0  0  0
   27.1905  -20.5359  -18.0875 C   0  0  1  0  0  0  0  0  0  0  0  0
   26.0657  -19.8137  -18.7962 C   0  0  0  0  0  0  0  0  0  0  0  0
   26.6340  -18.6850  -19.5910 C   0  0  0  0  0  0  0  0  0  0  0  0
   27.0366  -19.0770  -20.9875 C   0  0  0  0  0  0  0  0  0  0  0  0
   27.6713  -17.9120  -21.6950 C   0  0  0  0  0  0  0  0  0  0  0  0
   28.0528  -18.2281  -23.0529 N   0  0  0  0  0  0  0  0  0  0  0  0
   26.6468  -21.0534  -16.8203 C   0  0  0  0  0  0  0  0  0  0  0  0
   26.0784  -22.1897  -16.7363 O   0  0  0  0  0  0  0  0  0  0  0  0
   24.7771  -20.8127   -8.1060 O   0  0  0  0  0  0  0  0  0  0  0  0
   25.3044  -20.6635   -9.3708 C   0  0  0  0  0  0  0  0  0  0  0  0
   26.1978  -21.5728   -9.8858 C   0  0  0  0  0  0  0  0  0  0  0  0
   26.7417  -21.4547  -11.1404 C   0  0  0  0  0  0  0  0  0  0  0  0
   26.3908  -20.3849  -11.9373 C   0  0  0  0  0  0  0  0  0  0  0  0
   26.9163  -20.1622  -13.2846 C   0  0  0  0  0  0  0  0  0  0  0  0
   26.1308  -20.7835  -14.3960 C   0  0  2  0  0  0  0  0  0  0  0  0
   26.7402  -20.2953  -15.6423 N   0  0  0  0  0  0  0  0  0  0  0  0
   24.7099  -20.3705  -14.3557 C   0  0  0  0  0  0  0  0  0  0  0  0
   24.3639  -19.1731  -14.5783 O   0  0  0  0  0  0  0  0  0  0  0  0
   25.4927  -19.4676  -11.4236 C   0  0  0  0  0  0  0  0  0  0  0  0
   24.9440  -19.5883  -10.1558 C   0  0  0  0  0  0  0  0  0  0  0  0
   21.8403  -22.8445  -16.9118 N   0  0  0  0  0  0  0  0  0  0  0  0
   21.5299  -21.7468  -16.0789 C   0  0  0  0  0  0  0  0  0  0  0  0
   21.3468  -20.6219  -16.5809 O   0  0  0  0  0  0  0  0  0  0  0  0
   21.4259  -21.9413  -14.6275 C   0  0  0  0  0  0  0  0  0  0  0  0
   22.2927  -20.9306  -13.9213 C   0  0  2  0  0  0  0  0  0  0  0  0
   23.7043  -21.3301  -14.0617 N   0  0  0  0  0  0  0  0  0  0  0  0
   21.9574  -20.8834  -12.4874 C   0  0  0  0  0  0  0  0  0  0  0  0
   22.7375  -21.2271  -11.5893 O   0  0  0  0  0  0  0  0  0  0  0  0
   20.6989  -20.4300  -12.1079 O   0  0  0  0  0  0  0  0  0  0  0  0
  2  1  1  6
  3  4  1  0
  3  2  1  0
  5  6  1  0
  5  4  1  0
  6  7  1  0
  8  2  1  0
  8  9  2  0
 10 11  1  0
 11 12  2  0
 12 13  1  0
 14 13  2  0
 14 15  1  0
 16 15  1  1
 16 17  1  0
 17  8  1  0
 18 16  1  0
 19 18  2  0
 20 14  1  0
 21 11  1  0
 21 20  2  0
 22 23  1  0
 23 25  1  0
 24 23  2  0
 26 25  1  6
 26 28  1  0
 26 27  1  0
 27 18  1  0
 28 30  1  0
 29 28  2  0
M  END
$$$$
