KYN.pdb
     RDKit          3D

 30 30  0  0  1  0  0  0  0  0999 V2000
   28.5885  -23.9030  -17.5415 N   0  0  0  0  0  0  0  0  0  0  0  0
   28.3947  -22.5596  -17.1037 C   0  0  1  0  0  0  0  0  0  0  0  0
   27.8364  -21.6397  -18.1673 C   0  0  0  0  0  0  0  0  0  0  0  0
   28.8464  -21.4808  -19.2550 C   0  0  0  0  0  0  0  0  0  0  0  0
   28.4169  -20.5283  -20.3387 C   0  0  0  0  0  0  0  0  0  0  0  0
   29.4795  -20.4278  -21.3976 C   0  0  0  0  0  0  0  0  0  0  0  0
   29.1059  -19.5415  -22.4766 N   0  0  0  0  0  0  0  0  0  0  0  0
   27.4617  -22.5264  -15.9645 C   0  0  0  0  0  0  0  0  0  0  0  0
   26.4781  -23.3289  -15.8659 O   0  0  0  0  0  0  0  0  0  0  0  0
   24.4590  -19.8535   -7.9951 O   0  0  0  0  0  0  0  0  0  0  0  0
   25.1774  -20.0871   -9.1481 C   0  0  0  0  0  0  0  0  0  0  0  0
   25.7839  -21.2987   -9.3806 C   0  0  0  0  0  0  0  0  0  0  0  0
   26.5061  -21.5648  -10.5171 C   0  0  0  0  0  0  0  0  0  0  0  0
   26.6424  -20.5887  -11.4819 C   0  0  0  0  0  0  0  0  0  0  0  0
   27.3948  -20.7666  -12.7242 C   0  0  0  0  0  0  0  0  0  0  0  0
   26.7199  -21.5877  -13.7771 C   0  0  2  0  0  0  0  0  0  0  0  0
   27.6312  -21.5909  -14.9314 N   0  0  0  0  0  0  0  0  0  0  0  0
   25.4249  -20.9961  -14.1821 C   0  0  0  0  0  0  0  0  0  0  0  0
   25.3706  -19.9515  -14.8955 O   0  0  0  0  0  0  0  0  0  0  0  0
   26.0343  -19.3682  -11.2526 C   0  0  0  0  0  0  0  0  0  0  0  0
   25.3049  -19.1009  -10.1039 C   0  0  0  0  0  0  0  0  0  0  0  0
   23.2008  -20.8879  -16.7414 N   0  0  0  0  0  0  0  0  0  0  0  0
   22.3380  -21.8970  -16.2595 C   0  0  0  0  0  0  0  0  0  0  0  0
   21.8192  -22.7002  -17.0575 O   0  0  0  0  0  0  0  0  0  0  0  0
   22.0598  -21.9906  -14.8210 C   0  0  0  0  0  0  0  0  0  0  0  0
   22.9080  -20.9900  -14.0788 C   0  0  2  0  0  0  0  0  0  0  0  0
   24.2103  -21.6051  -13.7668 N   0  0  0  0  0  0  0  0  0  0  0  0
   22.2550  -20.6043  -12.8156 C   0  0  0  0  0  0  0  0  0  0  0  0
   22.6244  -21.0036  -11.7032 O   0  0  0  0  0  0  0  0  0  0  0  0
   21.1626  -19.7453  -12.8608 O   0  0  0  0  0  0  0  0  0  0  0  0
  2  1  1  6
  3  4  1  0
  3  2  1  0
  5  6  1  0
  5  4  1  0
  6  7  1  0
  8  2  1  0
  8  9  2  0
 10 11  1  0
 11 12  2  0
 12 13  1  0
 14 13  2  0
 14 15  1  0
 16 15  1  1
 16 17  1  0
 17  8  1  0
 18 16  1  0
 19 18  2  0
 20 14  1  0
 21 11  1  0
 21 20  2  0
 22 23  1  0
 23 25  1  0
 24 23  2  0
 26 25  1  1
 26 28  1  0
 26 27  1  0
 27 18  1  0
 28 30  1  0
 29 28  2  0
M  END
$$$$
