KYN.pdb
     RDKit          3D

 30 30  0  0  1  0  0  0  0  0999 V2000
   29.0495  -21.0014  -14.0785 N   0  0  0  0  0  0  0  0  0  0  0  0
   27.8756  -20.1916  -14.0706 C   0  0  1  0  0  0  0  0  0  0  0  0
   27.2677  -19.9748  -15.4390 C   0  0  0  0  0  0  0  0  0  0  0  0
   27.8375  -18.7305  -16.0353 C   0  0  0  0  0  0  0  0  0  0  0  0
   27.3376  -17.4689  -15.3837 C   0  0  0  0  0  0  0  0  0  0  0  0
   27.9857  -16.2652  -16.0092 C   0  0  0  0  0  0  0  0  0  0  0  0
   27.4955  -15.0218  -15.4587 N   0  0  0  0  0  0  0  0  0  0  0  0
   26.8390  -20.8083  -13.2253 C   0  0  0  0  0  0  0  0  0  0  0  0
   26.4063  -21.9882  -13.4297 O   0  0  0  0  0  0  0  0  0  0  0  0
   29.6357  -20.8495   -6.7633 O   0  0  0  0  0  0  0  0  0  0  0  0
   28.5395  -20.6136   -7.5651 C   0  0  0  0  0  0  0  0  0  0  0  0
   27.5822  -19.6909   -7.2156 C   0  0  0  0  0  0  0  0  0  0  0  0
   26.4793  -19.4314   -7.9903 C   0  0  0  0  0  0  0  0  0  0  0  0
   26.3030  -20.1145   -9.1755 C   0  0  0  0  0  0  0  0  0  0  0  0
   25.1617  -19.9186  -10.0700 C   0  0  0  0  0  0  0  0  0  0  0  0
   25.2016  -20.6943  -11.3487 C   0  0  2  0  0  0  0  0  0  0  0  0
   26.2851  -20.1008  -12.1466 N   0  0  0  0  0  0  0  0  0  0  0  0
   23.9288  -20.5787  -12.0955 C   0  0  0  0  0  0  0  0  0  0  0  0
   23.6652  -19.5580  -12.7967 O   0  0  0  0  0  0  0  0  0  0  0  0
   27.2632  -21.0438   -9.5312 C   0  0  0  0  0  0  0  0  0  0  0  0
   28.3770  -21.3048   -8.7475 C   0  0  0  0  0  0  0  0  0  0  0  0
   19.5555  -24.0346  -14.5387 N   0  0  0  0  0  0  0  0  0  0  0  0
   20.2238  -22.8293  -14.2295 C   0  0  0  0  0  0  0  0  0  0  0  0
   19.7269  -21.7406  -14.5744 O   0  0  0  0  0  0  0  0  0  0  0  0
   21.4993  -22.8701  -13.5038 C   0  0  0  0  0  0  0  0  0  0  0  0
   21.7156  -21.5587  -12.7931 C   0  0  2  0  0  0  0  0  0  0  0  0
   22.9750  -21.6298  -12.0312 N   0  0  0  0  0  0  0  0  0  0  0  0
   20.6110  -21.2990  -11.8533 C   0  0  0  0  0  0  0  0  0  0  0  0
   20.7283  -21.3656  -10.6224 O   0  0  0  0  0  0  0  0  0  0  0  0
   19.3629  -20.9594  -12.3634 O   0  0  0  0  0  0  0  0  0  0  0  0
  2  1  1  6
  3  4  1  0
  3  2  1  0
  5  6  1  0
  5  4  1  0
  6  7  1  0
  8  2  1  0
  8  9  2  0
 10 11  1  0
 11 12  2  0
 12 13  1  0
 14 13  2  0
 14 15  1  0
 16 15  1  1
 16 17  1  0
 17  8  1  0
 18 16  1  0
 19 18  2  0
 20 14  1  0
 21 11  1  0
 21 20  2  0
 22 23  1  0
 23 25  1  0
 24 23  2  0
 26 25  1  1
 26 28  1  0
 26 27  1  0
 27 18  1  0
 28 30  1  0
 29 28  2  0
M  END
$$$$
