RTY.pdb
     RDKit          3D

 31 31  0  0  1  0  0  0  0  0999 V2000
   18.3957  -17.9859  -16.0992 N   0  0  0  0  0  0  0  0  0  0  0  0
   18.3889  -16.7128  -16.7163 C   0  0  0  0  0  0  0  0  0  0  0  0
   17.3150  -16.0653  -17.0256 N   0  0  0  0  0  0  0  0  0  0  0  0
   19.6529  -16.1104  -17.0167 N   0  0  0  0  0  0  0  0  0  0  0  0
   20.8815  -16.6937  -16.5275 C   0  0  0  0  0  0  0  0  0  0  0  0
   20.7428  -17.0101  -15.0639 C   0  0  0  0  0  0  0  0  0  0  0  0
   22.0975  -17.3474  -14.5090 C   0  0  0  0  0  0  0  0  0  0  0  0
   22.6424  -18.6302  -15.1137 C   0  0  2  0  0  0  0  0  0  0  0  0
   21.5731  -19.2328  -15.8534 N   0  0  0  0  0  0  0  0  0  0  0  0
   23.0278  -19.5158  -13.9771 C   0  0  0  0  0  0  0  0  0  0  0  0
   22.1580  -19.9884  -13.2023 O   0  0  0  0  0  0  0  0  0  0  0  0
   17.3600  -15.1551  -17.5353 C   0  0  0  0  0  0  0  0  0  0  0  0
   24.5935  -22.6382  -14.3974 C   0  0  2  0  0  0  0  0  0  0  0  0
   25.4881  -22.0215  -13.3395 O   0  0  0  0  0  0  0  0  0  0  0  0
   26.6156  -21.5653  -13.9726 C   0  0  2  0  0  0  0  0  0  0  0  0
   24.7123  -20.8540  -12.7480 N   0  0  0  0  0  0  0  0  0  0  0  0
   24.3729  -19.8668  -13.7139 C   0  0  0  0  0  0  0  0  0  0  0  0
   25.4550  -20.2775  -11.5836 O   0  0  0  0  0  0  0  0  0  0  0  0
   25.5045  -19.0379  -11.3740 O   0  0  0  0  0  0  0  0  0  0  0  0
   29.2851  -18.6478   -3.9389 C   0  0  0  0  0  0  0  0  0  0  0  0
   28.4867  -19.0327   -5.0226 C   0  0  0  0  0  0  0  0  0  0  0  0
   27.9107  -20.2791   -5.1002 C   0  0  0  0  0  0  0  0  0  0  0  0
   27.1281  -20.6248   -6.1825 C   0  0  0  0  0  0  0  0  0  0  0  0
   26.8809  -19.7454   -7.2423 C   0  0  0  0  0  0  0  0  0  0  0  0
   26.0639  -20.1380   -8.4045 C   0  0  1  0  0  0  0  0  0  0  0  0
   26.9374  -20.5228   -9.5445 N   0  0  0  0  0  0  0  0  0  0  0  0
   26.1448  -21.0917  -10.6487 C   0  0  0  0  0  0  0  0  0  0  0  0
   28.0354  -21.4121   -9.1757 O   0  0  0  0  0  0  0  0  0  0  0  0
   27.8872  -22.6815   -9.1275 C   0  0  0  0  0  0  0  0  0  0  0  0
   27.4753  -18.5033   -7.1307 C   0  0  0  0  0  0  0  0  0  0  0  0
   28.2668  -18.1390   -6.0456 O   0  0  0  0  0  0  0  0  0  0  0  0
  1  2  1  0
  2  3  2  0
  4  2  1  0
  4  5  1  0
  6  5  1  0
  7  6  1  0
  8  7  1  0
  8  9  1  1
 10  8  1  0
 10 11  2  0
 13 12  1  1
 13 15  1  0
 14 13  1  0
 15 16  1  1
 15 17  1  0
 16 10  1  0
 17 18  2  0
 17 26  1  0
 19 20  1  0
 20 21  2  0
 20 30  1  0
 21 22  1  0
 22 23  2  0
 23 24  1  0
 25 24  1  6
 25 27  1  0
 26 25  1  0
 27 28  2  0
 27 31  1  0
 29 23  1  0
 30 29  2  0
M  END
$$$$
