RTY.pdb
     RDKit          3D

 31 31  0  0  1  0  0  0  0  0999 V2000
   25.6214  -25.5549  -18.2305 N   0  0  0  0  0  0  0  0  0  0  0  0
   26.5355  -26.0952  -17.2956 C   0  0  0  0  0  0  0  0  0  0  0  0
   26.3829  -26.0293  -16.0147 N   0  0  0  0  0  0  0  0  0  0  0  0
   27.7012  -26.7523  -17.8057 N   0  0  0  0  0  0  0  0  0  0  0  0
   27.9596  -26.7955  -19.2270 C   0  0  0  0  0  0  0  0  0  0  0  0
   29.2562  -27.5128  -19.4833 C   0  0  0  0  0  0  0  0  0  0  0  0
   29.0367  -28.9892  -19.3137 C   0  0  0  0  0  0  0  0  0  0  0  0
   29.1672  -29.4073  -17.8589 C   0  0  2  0  0  0  0  0  0  0  0  0
   30.5574  -29.6580  -17.6173 N   0  0  0  0  0  0  0  0  0  0  0  0
   28.3941  -30.6729  -17.7005 C   0  0  0  0  0  0  0  0  0  0  0  0
   28.5840  -31.6472  -18.4718 O   0  0  0  0  0  0  0  0  0  0  0  0
   27.0778  -26.4589  -15.3643 C   0  0  0  0  0  0  0  0  0  0  0  0
   28.4983  -32.7951  -14.8317 C   0  0  2  0  0  0  0  0  0  0  0  0
   27.8187  -33.1989  -16.1259 O   0  0  0  0  0  0  0  0  0  0  0  0
   27.1694  -34.3842  -15.8944 C   0  0  1  0  0  0  0  0  0  0  0  0
   26.8107  -32.1040  -16.4419 N   0  0  0  0  0  0  0  0  0  0  0  0
   27.4202  -30.8428  -16.6883 C   0  0  0  0  0  0  0  0  0  0  0  0
   25.7720  -32.0324  -15.3669 O   0  0  0  0  0  0  0  0  0  0  0  0
   25.8133  -31.1624  -14.4589 O   0  0  0  0  0  0  0  0  0  0  0  0
   20.9452  -29.0909  -18.6880 C   0  0  0  0  0  0  0  0  0  0  0  0
   21.2902  -30.0825  -17.7619 C   0  0  0  0  0  0  0  0  0  0  0  0
   21.9713  -31.2198  -18.1279 C   0  0  0  0  0  0  0  0  0  0  0  0
   22.2965  -32.1764  -17.1885 C   0  0  0  0  0  0  0  0  0  0  0  0
   21.9585  -32.0475  -15.8369 C   0  0  0  0  0  0  0  0  0  0  0  0
   22.2899  -33.0902  -14.8493 C   0  0  2  0  0  0  0  0  0  0  0  0
   23.6379  -32.8457  -14.2716 N   0  0  0  0  0  0  0  0  0  0  0  0
   24.6814  -32.9378  -15.3079 C   0  0  0  0  0  0  0  0  0  0  0  0
   23.9568  -33.6988  -13.1300 O   0  0  0  0  0  0  0  0  0  0  0  0
   24.9287  -34.5296  -13.1605 C   0  0  0  0  0  0  0  0  0  0  0  0
   21.2750  -30.8935  -15.5058 C   0  0  0  0  0  0  0  0  0  0  0  0
   20.9400  -29.9189  -16.4412 O   0  0  0  0  0  0  0  0  0  0  0  0
  1  2  1  0
  2  3  2  0
  4  2  1  0
  4  5  1  0
  6  5  1  0
  7  6  1  0
  8  7  1  0
  8  9  1  6
 10  8  1  0
 10 11  2  0
 13 12  1  6
 13 15  1  0
 14 13  1  0
 15 16  1  6
 15 17  1  0
 16 10  1  0
 17 18  2  0
 17 26  1  0
 19 20  1  0
 20 21  2  0
 20 30  1  0
 21 22  1  0
 22 23  2  0
 23 24  1  0
 25 24  1  6
 25 27  1  0
 26 25  1  0
 27 28  2  0
 27 31  1  0
 29 23  1  0
 30 29  2  0
M  END
$$$$
