RTY.pdb
     RDKit          3D

 31 31  0  0  1  0  0  0  0  0999 V2000
   17.1942  -11.8048  -18.3739 N   0  0  0  0  0  0  0  0  0  0  0  0
   16.8730  -13.1209  -17.9660 C   0  0  0  0  0  0  0  0  0  0  0  0
   15.6950  -13.6411  -18.0653 N   0  0  0  0  0  0  0  0  0  0  0  0
   17.9213  -13.9205  -17.4068 N   0  0  0  0  0  0  0  0  0  0  0  0
   19.2576  -13.3885  -17.2652 C   0  0  0  0  0  0  0  0  0  0  0  0
   20.1189  -13.8780  -18.3966 C   0  0  0  0  0  0  0  0  0  0  0  0
   21.1230  -12.8142  -18.7386 C   0  0  0  0  0  0  0  0  0  0  0  0
   22.4983  -13.1500  -18.1874 C   0  0  2  0  0  0  0  0  0  0  0  0
   22.4410  -14.4998  -17.7096 N   0  0  0  0  0  0  0  0  0  0  0  0
   22.7457  -12.2233  -17.0452 C   0  0  0  0  0  0  0  0  0  0  0  0
   22.1402  -12.3677  -15.9530 O   0  0  0  0  0  0  0  0  0  0  0  0
   15.4950  -14.6003  -17.7043 C   0  0  0  0  0  0  0  0  0  0  0  0
   25.5198  -11.8448  -15.1277 C   0  0  2  0  0  0  0  0  0  0  0  0
   25.3043  -10.3837  -15.4714 O   0  0  0  0  0  0  0  0  0  0  0  0
   26.2180  -10.0519  -16.4385 C   0  0  2  0  0  0  0  0  0  0  0  0
   23.8923  -10.2767  -16.0279 N   0  0  0  0  0  0  0  0  0  0  0  0
   23.6617  -11.1482  -17.1278 C   0  0  0  0  0  0  0  0  0  0  0  0
   23.5730   -8.8518  -16.3555 O   0  0  0  0  0  0  0  0  0  0  0  0
   23.5648   -8.4274  -17.5400 O   0  0  0  0  0  0  0  0  0  0  0  0
   20.8028   -0.9443  -18.0017 C   0  0  0  0  0  0  0  0  0  0  0  0
   21.0899   -2.2781  -17.6883 C   0  0  0  0  0  0  0  0  0  0  0  0
   22.1883   -2.9293  -18.1990 C   0  0  0  0  0  0  0  0  0  0  0  0
   22.4419   -4.2443  -17.8678 C   0  0  0  0  0  0  0  0  0  0  0  0
   21.6127   -4.9766  -17.0112 C   0  0  0  0  0  0  0  0  0  0  0  0
   21.8821   -6.3889  -16.6871 C   0  0  2  0  0  0  0  0  0  0  0  0
   22.9650   -6.4895  -15.6732 N   0  0  0  0  0  0  0  0  0  0  0  0
   23.2603   -7.8974  -15.3536 C   0  0  0  0  0  0  0  0  0  0  0  0
   22.7130   -5.7186  -14.4588 O   0  0  0  0  0  0  0  0  0  0  0  0
   22.1938   -6.2511  -13.4183 C   0  0  0  0  0  0  0  0  0  0  0  0
   20.5195   -4.2911  -16.5177 C   0  0  0  0  0  0  0  0  0  0  0  0
   20.2500   -2.9647  -16.8415 O   0  0  0  0  0  0  0  0  0  0  0  0
  1  2  1  0
  2  3  2  0
  4  2  1  0
  4  5  1  0
  6  5  1  0
  7  6  1  0
  8  7  1  0
  8  9  1  1
 10  8  1  0
 10 11  2  0
 13 12  1  1
 13 15  1  0
 14 13  1  0
 15 16  1  1
 15 17  1  0
 16 10  1  0
 17 18  2  0
 17 26  1  0
 19 20  1  0
 20 21  2  0
 20 30  1  0
 21 22  1  0
 22 23  2  0
 23 24  1  0
 25 24  1  6
 25 27  1  0
 26 25  1  0
 27 28  2  0
 27 31  1  0
 29 23  1  0
 30 29  2  0
M  END
$$$$
