RTY.pdb
     RDKit          3D

 31 31  0  0  1  0  0  0  0  0999 V2000
   25.3025  -17.4521  -21.8010 N   0  0  0  0  0  0  0  0  0  0  0  0
   25.3486  -17.9714  -20.4858 C   0  0  0  0  0  0  0  0  0  0  0  0
   26.4016  -17.9530  -19.7380 N   0  0  0  0  0  0  0  0  0  0  0  0
   24.1525  -18.5547  -19.9565 N   0  0  0  0  0  0  0  0  0  0  0  0
   22.9192  -18.5162  -20.7090 C   0  0  0  0  0  0  0  0  0  0  0  0
   22.3176  -17.1406  -20.6231 C   0  0  0  0  0  0  0  0  0  0  0  0
   21.7058  -16.9616  -19.2628 C   0  0  0  0  0  0  0  0  0  0  0  0
   20.2765  -17.4754  -19.2240 C   0  0  2  0  0  0  0  0  0  0  0  0
   19.4700  -16.5263  -19.9328 N   0  0  0  0  0  0  0  0  0  0  0  0
   19.8671  -17.5102  -17.7902 C   0  0  0  0  0  0  0  0  0  0  0  0
   19.6829  -16.4473  -17.1446 O   0  0  0  0  0  0  0  0  0  0  0  0
   26.3980  -18.3860  -18.7878 C   0  0  0  0  0  0  0  0  0  0  0  0
   16.9823  -18.5600  -16.1893 C   0  0  2  0  0  0  0  0  0  0  0  0
   18.0014  -19.3615  -15.4027 O   0  0  0  0  0  0  0  0  0  0  0  0
   17.9581  -20.6496  -15.8707 C   0  0  2  0  0  0  0  0  0  0  0  0
   19.3587  -18.7423  -15.7016 N   0  0  0  0  0  0  0  0  0  0  0  0
   19.6664  -18.7231  -17.0899 C   0  0  0  0  0  0  0  0  0  0  0  0
   20.4229  -19.4160  -14.8932 O   0  0  0  0  0  0  0  0  0  0  0  0
   21.0563  -20.4130  -15.3266 O   0  0  0  0  0  0  0  0  0  0  0  0
   26.0064  -21.6493   -8.4472 C   0  0  0  0  0  0  0  0  0  0  0  0
   25.0949  -20.9392   -9.2375 C   0  0  0  0  0  0  0  0  0  0  0  0
   23.7862  -20.7544   -8.8574 C   0  0  0  0  0  0  0  0  0  0  0  0
   22.9149  -20.0477   -9.6604 C   0  0  0  0  0  0  0  0  0  0  0  0
   23.3043  -19.4902  -10.8832 C   0  0  0  0  0  0  0  0  0  0  0  0
   22.3555  -18.7600  -11.7427 C   0  0  1  0  0  0  0  0  0  0  0  0
   21.7885  -19.6677  -12.7748 N   0  0  0  0  0  0  0  0  0  0  0  0
   20.7807  -18.9717  -13.5943 C   0  0  0  0  0  0  0  0  0  0  0  0
   21.2548  -20.9161  -12.2372 O   0  0  0  0  0  0  0  0  0  0  0  0
   21.9372  -21.9978  -12.2416 C   0  0  0  0  0  0  0  0  0  0  0  0
   24.6250  -19.6958  -11.2328 C   0  0  0  0  0  0  0  0  0  0  0  0
   25.5165  -20.4056  -10.4338 O   0  0  0  0  0  0  0  0  0  0  0  0
  1  2  1  0
  2  3  2  0
  4  2  1  0
  4  5  1  0
  6  5  1  0
  7  6  1  0
  8  7  1  0
  8  9  1  6
 10  8  1  0
 10 11  2  0
 13 12  1  1
 13 15  1  0
 14 13  1  0
 15 16  1  1
 15 17  1  0
 16 10  1  0
 17 18  2  0
 17 26  1  0
 19 20  1  0
 20 21  2  0
 20 30  1  0
 21 22  1  0
 22 23  2  0
 23 24  1  0
 25 24  1  6
 25 27  1  0
 26 25  1  0
 27 28  2  0
 27 31  1  0
 29 23  1  0
 30 29  2  0
M  END
$$$$
