RTY.pdb
     RDKit          3D

 31 31  0  0  1  0  0  0  0  0999 V2000
   21.8320  -21.7244  -12.6201 N   0  0  0  0  0  0  0  0  0  0  0  0
   21.6448  -21.1004  -11.3643 C   0  0  0  0  0  0  0  0  0  0  0  0
   20.4929  -20.9365  -10.8032 N   0  0  0  0  0  0  0  0  0  0  0  0
   22.8065  -20.6202  -10.6782 N   0  0  0  0  0  0  0  0  0  0  0  0
   24.1233  -20.7969  -11.2471 C   0  0  0  0  0  0  0  0  0  0  0  0
   25.0813  -21.2399  -10.1760 C   0  0  0  0  0  0  0  0  0  0  0  0
   26.4641  -20.7790  -10.5397 C   0  0  0  0  0  0  0  0  0  0  0  0
   26.9011  -21.3378  -11.8832 C   0  0  2  0  0  0  0  0  0  0  0  0
   28.2374  -21.8287  -11.7190 N   0  0  0  0  0  0  0  0  0  0  0  0
   26.8993  -20.1999  -12.8474 C   0  0  0  0  0  0  0  0  0  0  0  0
   27.7825  -19.3069  -12.7948 O   0  0  0  0  0  0  0  0  0  0  0  0
   20.4069  -20.4812   -9.8674 C   0  0  0  0  0  0  0  0  0  0  0  0
   28.4220  -19.0803  -14.4503 C   0  0  2  0  0  0  0  0  0  0  0  0
   27.3886  -19.0821  -15.5601 O   0  0  0  0  0  0  0  0  0  0  0  0
   27.5586  -20.2396  -16.2754 C   0  0  2  0  0  0  0  0  0  0  0  0
   26.0276  -19.0832  -14.8801 N   0  0  0  0  0  0  0  0  0  0  0  0
   25.9184  -20.0663  -13.8582 C   0  0  0  0  0  0  0  0  0  0  0  0
   24.9402  -19.2024  -15.9015 O   0  0  0  0  0  0  0  0  0  0  0  0
   24.2223  -20.2318  -15.9916 O   0  0  0  0  0  0  0  0  0  0  0  0
   19.5516  -15.7687  -13.4805 C   0  0  0  0  0  0  0  0  0  0  0  0
   20.3848  -16.0461  -14.5708 C   0  0  0  0  0  0  0  0  0  0  0  0
   21.5837  -15.3991  -14.7580 C   0  0  0  0  0  0  0  0  0  0  0  0
   22.3811  -15.6984  -15.8434 C   0  0  0  0  0  0  0  0  0  0  0  0
   22.0228  -16.6574  -16.7971 C   0  0  0  0  0  0  0  0  0  0  0  0
   22.8728  -16.9478  -17.9657 C   0  0  2  0  0  0  0  0  0  0  0  0
   23.5512  -18.2603  -17.7985 N   0  0  0  0  0  0  0  0  0  0  0  0
   24.6539  -18.1648  -16.8256 C   0  0  0  0  0  0  0  0  0  0  0  0
   24.0084  -18.8547  -19.0515 O   0  0  0  0  0  0  0  0  0  0  0  0
   25.2518  -18.9774  -19.3249 C   0  0  0  0  0  0  0  0  0  0  0  0
   20.8127  -17.2866  -16.5772 C   0  0  0  0  0  0  0  0  0  0  0  0
   19.9973  -16.9966  -15.4873 O   0  0  0  0  0  0  0  0  0  0  0  0
  1  2  1  0
  2  3  2  0
  4  2  1  0
  4  5  1  0
  6  5  1  0
  7  6  1  0
  8  7  1  0
  8  9  1  1
 10  8  1  0
 10 11  2  0
 13 12  1  6
 13 15  1  0
 14 13  1  0
 15 16  1  6
 15 17  1  0
 16 10  1  0
 17 18  2  0
 17 26  1  0
 19 20  1  0
 20 21  2  0
 20 30  1  0
 21 22  1  0
 22 23  2  0
 23 24  1  0
 25 24  1  1
 25 27  1  0
 26 25  1  0
 27 28  2  0
 27 31  1  0
 29 23  1  0
 30 29  2  0
M  END
$$$$
