RTY.pdb
     RDKit          3D

 31 31  0  0  1  0  0  0  0  0999 V2000
   24.3568  -11.0688  -22.4410 N   0  0  0  0  0  0  0  0  0  0  0  0
   25.0498  -10.8531  -21.2267 C   0  0  0  0  0  0  0  0  0  0  0  0
   24.7345   -9.9427  -20.3664 N   0  0  0  0  0  0  0  0  0  0  0  0
   26.1707  -11.6970  -20.9394 N   0  0  0  0  0  0  0  0  0  0  0  0
   26.5666  -12.7353  -21.8634 C   0  0  0  0  0  0  0  0  0  0  0  0
   27.7065  -13.5235  -21.2795 C   0  0  0  0  0  0  0  0  0  0  0  0
   28.9615  -12.7026  -21.3693 C   0  0  0  0  0  0  0  0  0  0  0  0
   30.1874  -13.5184  -20.9954 C   0  0  2  0  0  0  0  0  0  0  0  0
   29.7236  -14.8141  -20.5958 N   0  0  0  0  0  0  0  0  0  0  0  0
   30.8261  -12.8338  -19.8344 C   0  0  0  0  0  0  0  0  0  0  0  0
   30.3737  -12.9778  -18.6704 O   0  0  0  0  0  0  0  0  0  0  0  0
   25.2867   -9.8124  -19.4898 C   0  0  0  0  0  0  0  0  0  0  0  0
   34.1846  -13.1276  -18.5771 C   0  0  2  0  0  0  0  0  0  0  0  0
   34.0428  -11.6261  -18.7352 O   0  0  0  0  0  0  0  0  0  0  0  0
   34.6888  -11.2738  -19.8922 C   0  0  2  0  0  0  0  0  0  0  0  0
   32.5528  -11.3461  -18.8626 N   0  0  0  0  0  0  0  0  0  0  0  0
   31.9589  -11.9984  -19.9782 C   0  0  0  0  0  0  0  0  0  0  0  0
   32.3033   -9.8705  -18.8685 O   0  0  0  0  0  0  0  0  0  0  0  0
   31.8569   -9.2755  -19.8834 O   0  0  0  0  0  0  0  0  0  0  0  0
   36.9959   -7.7823  -13.4404 C   0  0  0  0  0  0  0  0  0  0  0  0
   35.7974   -7.6327  -14.1483 C   0  0  0  0  0  0  0  0  0  0  0  0
   34.9352   -8.6836  -14.3568 C   0  0  0  0  0  0  0  0  0  0  0  0
   33.7613   -8.5001  -15.0580 C   0  0  0  0  0  0  0  0  0  0  0  0
   33.3882   -7.2597  -15.5872 C   0  0  0  0  0  0  0  0  0  0  0  0
   32.1433   -7.0849  -16.3566 C   0  0  1  0  0  0  0  0  0  0  0  0
   32.3131   -7.6030  -17.7398 N   0  0  0  0  0  0  0  0  0  0  0  0
   32.5534   -9.0568  -17.7336 C   0  0  0  0  0  0  0  0  0  0  0  0
   33.3382   -6.9061  -18.5118 O   0  0  0  0  0  0  0  0  0  0  0  0
   34.4348   -7.4748  -18.8434 C   0  0  0  0  0  0  0  0  0  0  0  0
   34.2779   -6.2278  -15.3587 C   0  0  0  0  0  0  0  0  0  0  0  0
   35.4655   -6.3963  -14.6530 O   0  0  0  0  0  0  0  0  0  0  0  0
  1  2  1  0
  2  3  2  0
  4  2  1  0
  4  5  1  0
  6  5  1  0
  7  6  1  0
  8  7  1  0
  8  9  1  1
 10  8  1  0
 10 11  2  0
 13 12  1  1
 13 15  1  0
 14 13  1  0
 15 16  1  1
 15 17  1  0
 16 10  1  0
 17 18  2  0
 17 26  1  0
 19 20  1  0
 20 21  2  0
 20 30  1  0
 21 22  1  0
 22 23  2  0
 23 24  1  0
 25 24  1  6
 25 27  1  0
 26 25  1  0
 27 28  2  0
 27 31  1  0
 29 23  1  0
 30 29  2  0
M  END
$$$$
