RTY.pdb
     RDKit          3D

 31 31  0  0  1  0  0  0  0  0999 V2000
   27.0661  -28.9355  -16.7065 N   0  0  0  0  0  0  0  0  0  0  0  0
   27.7731  -29.6090  -17.7302 C   0  0  0  0  0  0  0  0  0  0  0  0
   27.2847  -30.5809  -18.4268 N   0  0  0  0  0  0  0  0  0  0  0  0
   29.1131  -29.1852  -18.0056 N   0  0  0  0  0  0  0  0  0  0  0  0
   29.6380  -27.9741  -17.4170 C   0  0  0  0  0  0  0  0  0  0  0  0
   29.2363  -26.7906  -18.2534 C   0  0  0  0  0  0  0  0  0  0  0  0
   28.5849  -25.7675  -17.3669 C   0  0  0  0  0  0  0  0  0  0  0  0
   29.4596  -24.5361  -17.2031 C   0  0  2  0  0  0  0  0  0  0  0  0
   30.6309  -24.9456  -16.4862 N   0  0  0  0  0  0  0  0  0  0  0  0
   28.6851  -23.5601  -16.3833 C   0  0  0  0  0  0  0  0  0  0  0  0
   29.1784  -23.0542  -15.3436 O   0  0  0  0  0  0  0  0  0  0  0  0
   27.8896  -31.1506  -19.0592 C   0  0  0  0  0  0  0  0  0  0  0  0
   29.0904  -21.1200  -16.0916 C   0  0  2  0  0  0  0  0  0  0  0  0
   27.6803  -20.7323  -16.4929 O   0  0  0  0  0  0  0  0  0  0  0  0
   27.7000  -20.4493  -17.8344 C   0  0  2  0  0  0  0  0  0  0  0  0
   26.8079  -21.9504  -16.2285 N   0  0  0  0  0  0  0  0  0  0  0  0
   27.3732  -23.1566  -16.7267 C   0  0  0  0  0  0  0  0  0  0  0  0
   25.4233  -21.7159  -16.7459 O   0  0  0  0  0  0  0  0  0  0  0  0
   25.1538  -21.7710  -17.9737 O   0  0  0  0  0  0  0  0  0  0  0  0
   22.1741  -26.4108  -12.5951 C   0  0  0  0  0  0  0  0  0  0  0  0
   22.2719  -25.5050  -13.6580 C   0  0  0  0  0  0  0  0  0  0  0  0
   23.3718  -25.4611  -14.4824 C   0  0  0  0  0  0  0  0  0  0  0  0
   23.4344  -24.5561  -15.5219 C   0  0  0  0  0  0  0  0  0  0  0  0
   22.4039  -23.6489  -15.7914 C   0  0  0  0  0  0  0  0  0  0  0  0
   22.4963  -22.6703  -16.8896 C   0  0  1  0  0  0  0  0  0  0  0  0
   22.9450  -21.3512  -16.3706 N   0  0  0  0  0  0  0  0  0  0  0  0
   24.3349  -21.4194  -15.8856 C   0  0  0  0  0  0  0  0  0  0  0  0
   22.0632  -20.7833  -15.3545 O   0  0  0  0  0  0  0  0  0  0  0  0
   22.4937  -20.4560  -14.1955 C   0  0  0  0  0  0  0  0  0  0  0  0
   21.3157  -23.7214  -14.9433 C   0  0  0  0  0  0  0  0  0  0  0  0
   21.2369  -24.6286  -13.8909 O   0  0  0  0  0  0  0  0  0  0  0  0
  1  2  1  0
  2  3  2  0
  4  2  1  0
  4  5  1  0
  6  5  1  0
  7  6  1  0
  8  7  1  0
  8  9  1  1
 10  8  1  0
 10 11  2  0
 13 12  1  1
 13 15  1  0
 14 13  1  0
 15 16  1  1
 15 17  1  0
 16 10  1  0
 17 18  2  0
 17 26  1  0
 19 20  1  0
 20 21  2  0
 20 30  1  0
 21 22  1  0
 22 23  2  0
 23 24  1  0
 25 24  1  6
 25 27  1  0
 26 25  1  0
 27 28  2  0
 27 31  1  0
 29 23  1  0
 30 29  2  0
M  END
$$$$
