RTY.pdb
     RDKit          3D

 31 31  0  0  1  0  0  0  0  0999 V2000
   24.6257  -26.0151  -16.3078 N   0  0  0  0  0  0  0  0  0  0  0  0
   23.2917  -26.2207  -15.8840 C   0  0  0  0  0  0  0  0  0  0  0  0
   22.5712  -27.2350  -16.2310 N   0  0  0  0  0  0  0  0  0  0  0  0
   22.7078  -25.2397  -15.0192 N   0  0  0  0  0  0  0  0  0  0  0  0
   23.3239  -23.9427  -14.8552 C   0  0  0  0  0  0  0  0  0  0  0  0
   24.5602  -24.0739  -14.0091 C   0  0  0  0  0  0  0  0  0  0  0  0
   25.2012  -22.7221  -13.8721 C   0  0  0  0  0  0  0  0  0  0  0  0
   25.5811  -22.1471  -15.2261 C   0  0  2  0  0  0  0  0  0  0  0  0
   27.0117  -22.0725  -15.2641 N   0  0  0  0  0  0  0  0  0  0  0  0
   25.0049  -20.7729  -15.2906 C   0  0  0  0  0  0  0  0  0  0  0  0
   25.4155  -19.8634  -14.5259 O   0  0  0  0  0  0  0  0  0  0  0  0
   21.5798  -27.3272  -15.9166 C   0  0  0  0  0  0  0  0  0  0  0  0
   25.0072  -18.3830  -17.9471 C   0  0  2  0  0  0  0  0  0  0  0  0
   23.5292  -18.4704  -17.6189 O   0  0  0  0  0  0  0  0  0  0  0  0
   22.9487  -19.2817  -18.5596 C   0  0  2  0  0  0  0  0  0  0  0  0
   23.4317  -19.1126  -16.2431 N   0  0  0  0  0  0  0  0  0  0  0  0
   23.9810  -20.4238  -16.2024 C   0  0  0  0  0  0  0  0  0  0  0  0
   22.0177  -19.0737  -15.7542 O   0  0  0  0  0  0  0  0  0  0  0  0
   21.2646  -20.0797  -15.8164 O   0  0  0  0  0  0  0  0  0  0  0  0
   19.6463  -21.4536   -9.5240 C   0  0  0  0  0  0  0  0  0  0  0  0
   19.6922  -20.4289  -10.4767 C   0  0  0  0  0  0  0  0  0  0  0  0
   18.6633  -20.2066  -11.3618 C   0  0  0  0  0  0  0  0  0  0  0  0
   18.7413  -19.1863  -12.2872 C   0  0  0  0  0  0  0  0  0  0  0  0
   19.8493  -18.3367  -12.3772 C   0  0  0  0  0  0  0  0  0  0  0  0
   19.9295  -17.2674  -13.3883 C   0  0  2  0  0  0  0  0  0  0  0  0
   20.0389  -17.8514  -14.7512 N   0  0  0  0  0  0  0  0  0  0  0  0
   21.4440  -17.9043  -15.1922 C   0  0  0  0  0  0  0  0  0  0  0  0
   19.2018  -17.1898  -15.7482 O   0  0  0  0  0  0  0  0  0  0  0  0
   17.9248  -17.2227  -15.6848 C   0  0  0  0  0  0  0  0  0  0  0  0
   20.8631  -18.5894  -11.4733 C   0  0  0  0  0  0  0  0  0  0  0  0
   20.7996  -19.6139  -10.5335 O   0  0  0  0  0  0  0  0  0  0  0  0
  1  2  1  0
  2  3  2  0
  4  2  1  0
  4  5  1  0
  6  5  1  0
  7  6  1  0
  8  7  1  0
  8  9  1  1
 10  8  1  0
 10 11  2  0
 13 12  1  6
 13 15  1  0
 14 13  1  0
 15 16  1  1
 15 17  1  0
 16 10  1  0
 17 18  2  0
 17 26  1  0
 19 20  1  0
 20 21  2  0
 20 30  1  0
 21 22  1  0
 22 23  2  0
 23 24  1  0
 25 24  1  1
 25 27  1  0
 26 25  1  0
 27 28  2  0
 27 31  1  0
 29 23  1  0
 30 29  2  0
M  END
$$$$
