RTY.pdb
     RDKit          3D

 31 31  0  0  1  0  0  0  0  0999 V2000
   30.6270  -22.4345  -19.6616 N   0  0  0  0  0  0  0  0  0  0  0  0
   29.8779  -23.6205  -19.4775 C   0  0  0  0  0  0  0  0  0  0  0  0
   29.6787  -24.5003  -20.4020 N   0  0  0  0  0  0  0  0  0  0  0  0
   29.3051  -23.8540  -18.1859 N   0  0  0  0  0  0  0  0  0  0  0  0
   29.4326  -22.8700  -17.1350 C   0  0  0  0  0  0  0  0  0  0  0  0
   28.8532  -21.5609  -17.5955 C   0  0  0  0  0  0  0  0  0  0  0  0
   27.3952  -21.5212  -17.2357 C   0  0  0  0  0  0  0  0  0  0  0  0
   27.1946  -21.4947  -15.7300 C   0  0  2  0  0  0  0  0  0  0  0  0
   26.7725  -22.8074  -15.3396 N   0  0  0  0  0  0  0  0  0  0  0  0
   26.1046  -20.5145  -15.4550 C   0  0  0  0  0  0  0  0  0  0  0  0
   26.1483  -19.3501  -15.9270 O   0  0  0  0  0  0  0  0  0  0  0  0
   29.1292  -25.3680  -20.2136 C   0  0  0  0  0  0  0  0  0  0  0  0
   24.5634  -18.7963  -16.5536 C   0  0  2  0  0  0  0  0  0  0  0  0
   23.3708  -19.4150  -15.8504 O   0  0  0  0  0  0  0  0  0  0  0  0
   22.9298  -20.4533  -16.6299 C   0  0  2  0  0  0  0  0  0  0  0  0
   23.8832  -19.9424  -14.5185 N   0  0  0  0  0  0  0  0  0  0  0  0
   24.9793  -20.8374  -14.6606 C   0  0  0  0  0  0  0  0  0  0  0  0
   22.7587  -20.5416  -13.7333 O   0  0  0  0  0  0  0  0  0  0  0  0
   22.5325  -21.7793  -13.7341 O   0  0  0  0  0  0  0  0  0  0  0  0
   20.1602  -22.7172   -6.2700 C   0  0  0  0  0  0  0  0  0  0  0  0
   20.2566  -21.9284   -7.4224 C   0  0  0  0  0  0  0  0  0  0  0  0
   21.3845  -21.1986   -7.7169 C   0  0  0  0  0  0  0  0  0  0  0  0
   21.4460  -20.4327   -8.8627 C   0  0  0  0  0  0  0  0  0  0  0  0
   20.3857  -20.3551   -9.7724 C   0  0  0  0  0  0  0  0  0  0  0  0
   20.4561  -19.5119  -10.9791 C   0  0  2  0  0  0  0  0  0  0  0  0
   20.7748  -20.3409  -12.1715 N   0  0  0  0  0  0  0  0  0  0  0  0
   21.8839  -19.7526  -12.9429 C   0  0  0  0  0  0  0  0  0  0  0  0
   19.6248  -20.6103  -13.0303 O   0  0  0  0  0  0  0  0  0  0  0  0
   19.4107  -19.9413  -14.0991 C   0  0  0  0  0  0  0  0  0  0  0  0
   19.2697  -21.1004   -9.4444 C   0  0  0  0  0  0  0  0  0  0  0  0
   19.1921  -21.8784   -8.2930 O   0  0  0  0  0  0  0  0  0  0  0  0
  1  2  1  0
  2  3  2  0
  4  2  1  0
  4  5  1  0
  6  5  1  0
  7  6  1  0
  8  7  1  0
  8  9  1  6
 10  8  1  0
 10 11  2  0
 13 12  1  6
 13 15  1  0
 14 13  1  0
 15 16  1  1
 15 17  1  0
 16 10  1  0
 17 18  2  0
 17 26  1  0
 19 20  1  0
 20 21  2  0
 20 30  1  0
 21 22  1  0
 22 23  2  0
 23 24  1  0
 25 24  1  1
 25 27  1  0
 26 25  1  0
 27 28  2  0
 27 31  1  0
 29 23  1  0
 30 29  2  0
M  END
$$$$
