RTY.pdb
     RDKit          3D

 31 31  0  0  1  0  0  0  0  0999 V2000
   26.9279  -26.2873  -16.4149 N   0  0  0  0  0  0  0  0  0  0  0  0
   27.4358  -27.5868  -16.6495 C   0  0  0  0  0  0  0  0  0  0  0  0
   28.6807  -27.9090  -16.5284 N   0  0  0  0  0  0  0  0  0  0  0  0
   26.5090  -28.6033  -17.0480 N   0  0  0  0  0  0  0  0  0  0  0  0
   25.0844  -28.3722  -16.9707 C   0  0  0  0  0  0  0  0  0  0  0  0
   24.8210  -26.9072  -16.7567 C   0  0  0  0  0  0  0  0  0  0  0  0
   23.3498  -26.7059  -16.5292 C   0  0  0  0  0  0  0  0  0  0  0  0
   22.5250  -27.3215  -17.6468 C   0  0  2  0  0  0  0  0  0  0  0  0
   22.3196  -26.2986  -18.6292 N   0  0  0  0  0  0  0  0  0  0  0  0
   21.2154  -27.7165  -17.0522 C   0  0  0  0  0  0  0  0  0  0  0  0
   20.1370  -27.4954  -17.6593 O   0  0  0  0  0  0  0  0  0  0  0  0
   29.0195  -28.8637  -16.7816 C   0  0  0  0  0  0  0  0  0  0  0  0
   18.0189  -30.3266  -15.1744 C   0  0  1  0  0  0  0  0  0  0  0  0
   19.2371  -29.9190  -15.9801 O   0  0  0  0  0  0  0  0  0  0  0  0
   18.7960  -29.5229  -17.2165 C   0  0  1  0  0  0  0  0  0  0  0  0
   19.8632  -28.7420  -15.2470 N   0  0  0  0  0  0  0  0  0  0  0  0
   21.1177  -28.3523  -15.7921 C   0  0  0  0  0  0  0  0  0  0  0  0
   19.9463  -29.0318  -13.7811 O   0  0  0  0  0  0  0  0  0  0  0  0
   20.6124  -29.9998  -13.3311 O   0  0  0  0  0  0  0  0  0  0  0  0
   23.3484  -24.0224  -14.2248 C   0  0  0  0  0  0  0  0  0  0  0  0
   22.4785  -24.7366  -13.3923 C   0  0  0  0  0  0  0  0  0  0  0  0
   21.2110  -24.2885  -13.1027 C   0  0  0  0  0  0  0  0  0  0  0  0
   20.3792  -25.0187  -12.2790 C   0  0  0  0  0  0  0  0  0  0  0  0
   20.7696  -26.2322  -11.7021 C   0  0  0  0  0  0  0  0  0  0  0  0
   19.8794  -26.9882  -10.8032 C   0  0  2  0  0  0  0  0  0  0  0  0
   19.5843  -28.3287  -11.3748 N   0  0  0  0  0  0  0  0  0  0  0  0
   19.2819  -28.2344  -12.8139 C   0  0  0  0  0  0  0  0  0  0  0  0
   18.5357  -29.0572  -10.6660 O   0  0  0  0  0  0  0  0  0  0  0  0
   17.4024  -29.3018  -11.2059 C   0  0  0  0  0  0  0  0  0  0  0  0
   22.0485  -26.6509  -12.0146 C   0  0  0  0  0  0  0  0  0  0  0  0
   22.8994  -25.9265  -12.8440 O   0  0  0  0  0  0  0  0  0  0  0  0
  1  2  1  0
  2  3  2  0
  4  2  1  0
  4  5  1  0
  6  5  1  0
  7  6  1  0
  8  7  1  0
  8  9  1  6
 10  8  1  0
 10 11  2  0
 13 12  1  6
 13 15  1  0
 14 13  1  0
 15 16  1  6
 15 17  1  0
 16 10  1  0
 17 18  2  0
 17 26  1  0
 19 20  1  0
 20 21  2  0
 20 30  1  0
 21 22  1  0
 22 23  2  0
 23 24  1  0
 25 24  1  6
 25 27  1  0
 26 25  1  0
 27 28  2  0
 27 31  1  0
 29 23  1  0
 30 29  2  0
M  END
$$$$
