RTY.pdb
     RDKit          3D

 31 31  0  0  1  0  0  0  0  0999 V2000
   30.0307  -25.5415  -16.2846 N   0  0  0  0  0  0  0  0  0  0  0  0
   29.6801  -25.8618  -17.6172 C   0  0  0  0  0  0  0  0  0  0  0  0
   29.7414  -27.0523  -18.1145 N   0  0  0  0  0  0  0  0  0  0  0  0
   29.2327  -24.7967  -18.4637 N   0  0  0  0  0  0  0  0  0  0  0  0
   28.9449  -23.4912  -17.9147 C   0  0  0  0  0  0  0  0  0  0  0  0
   27.9463  -23.6216  -16.7979 C   0  0  0  0  0  0  0  0  0  0  0  0
   27.7092  -22.2653  -16.1969 C   0  0  0  0  0  0  0  0  0  0  0  0
   27.2506  -21.2653  -17.2448 C   0  0  2  0  0  0  0  0  0  0  0  0
   28.4083  -20.5274  -17.6558 N   0  0  0  0  0  0  0  0  0  0  0  0
   26.2828  -20.3489  -16.5754 C   0  0  0  0  0  0  0  0  0  0  0  0
   26.3957  -19.1013  -16.6802 O   0  0  0  0  0  0  0  0  0  0  0  0
   29.5585  -27.2253  -19.1279 C   0  0  0  0  0  0  0  0  0  0  0  0
   24.8253  -18.3897  -17.0591 C   0  0  2  0  0  0  0  0  0  0  0  0
   23.6306  -19.0332  -16.3821 O   0  0  0  0  0  0  0  0  0  0  0  0
   22.9669  -19.7652  -17.3328 C   0  0  2  0  0  0  0  0  0  0  0  0
   24.1899  -19.9554  -15.3090 N   0  0  0  0  0  0  0  0  0  0  0  0
   25.2015  -20.8271  -15.7984 C   0  0  0  0  0  0  0  0  0  0  0  0
   23.0784  -20.6970  -14.6349 O   0  0  0  0  0  0  0  0  0  0  0  0
   22.6874  -21.8220  -15.0407 O   0  0  0  0  0  0  0  0  0  0  0  0
   27.3707  -21.3727  -10.2636 C   0  0  0  0  0  0  0  0  0  0  0  0
   25.9982  -21.2255  -10.4965 C   0  0  0  0  0  0  0  0  0  0  0  0
   25.2794  -20.1688   -9.9885 C   0  0  0  0  0  0  0  0  0  0  0  0
   23.9276  -20.0541  -10.2391 C   0  0  0  0  0  0  0  0  0  0  0  0
   23.2241  -20.9875  -11.0082 C   0  0  0  0  0  0  0  0  0  0  0  0
   21.7747  -20.8656  -11.2456 C   0  0  2  0  0  0  0  0  0  0  0  0
   21.4755  -20.9941  -12.6963 N   0  0  0  0  0  0  0  0  0  0  0  0
   22.4019  -20.1781  -13.5010 C   0  0  0  0  0  0  0  0  0  0  0  0
   20.0867  -20.7046  -13.0427 O   0  0  0  0  0  0  0  0  0  0  0  0
   19.7659  -19.6846  -13.7445 C   0  0  0  0  0  0  0  0  0  0  0  0
   23.9777  -22.0350  -11.5015 C   0  0  0  0  0  0  0  0  0  0  0  0
   25.3419  -22.1648  -11.2584 O   0  0  0  0  0  0  0  0  0  0  0  0
  1  2  1  0
  2  3  2  0
  4  2  1  0
  4  5  1  0
  6  5  1  0
  7  6  1  0
  8  7  1  0
  8  9  1  1
 10  8  1  0
 10 11  2  0
 13 12  1  6
 13 15  1  0
 14 13  1  0
 15 16  1  1
 15 17  1  0
 16 10  1  0
 17 18  2  0
 17 26  1  0
 19 20  1  0
 20 21  2  0
 20 30  1  0
 21 22  1  0
 22 23  2  0
 23 24  1  0
 25 24  1  6
 25 27  1  0
 26 25  1  0
 27 28  2  0
 27 31  1  0
 29 23  1  0
 30 29  2  0
M  END
$$$$
