RTY.pdb
     RDKit          3D

 31 31  0  0  1  0  0  0  0  0999 V2000
   16.3525  -24.9007   -2.6572 N   0  0  0  0  0  0  0  0  0  0  0  0
   15.8679  -24.0095   -3.6433 C   0  0  0  0  0  0  0  0  0  0  0  0
   16.5677  -23.5892   -4.6443 N   0  0  0  0  0  0  0  0  0  0  0  0
   14.5187  -23.5457   -3.5183 N   0  0  0  0  0  0  0  0  0  0  0  0
   14.1865  -22.4888   -2.5902 C   0  0  0  0  0  0  0  0  0  0  0  0
   14.0952  -23.0492   -1.1977 C   0  0  0  0  0  0  0  0  0  0  0  0
   13.7428  -21.9390   -0.2490 C   0  0  0  0  0  0  0  0  0  0  0  0
   13.5662  -22.4546    1.1692 C   0  0  2  0  0  0  0  0  0  0  0  0
   12.3274  -23.1742    1.2030 N   0  0  0  0  0  0  0  0  0  0  0  0
   13.4767  -21.2594    2.0570 C   0  0  0  0  0  0  0  0  0  0  0  0
   12.5305  -20.4396    1.9438 O   0  0  0  0  0  0  0  0  0  0  0  0
   16.1929  -22.8706   -5.3027 C   0  0  0  0  0  0  0  0  0  0  0  0
   12.8450  -21.1385    5.5053 C   0  0  2  0  0  0  0  0  0  0  0  0
   14.1485  -20.3687    5.4175 O   0  0  0  0  0  0  0  0  0  0  0  0
   15.1601  -21.2404    5.7286 C   0  0  2  0  0  0  0  0  0  0  0  0
   14.2801  -19.9095    3.9730 N   0  0  0  0  0  0  0  0  0  0  0  0
   14.4373  -20.9883    3.0598 C   0  0  0  0  0  0  0  0  0  0  0  0
   15.3759  -18.8975    3.8507 O   0  0  0  0  0  0  0  0  0  0  0  0
   16.4971  -19.1874    3.3587 O   0  0  0  0  0  0  0  0  0  0  0  0
   20.4094  -11.7266    4.5143 C   0  0  0  0  0  0  0  0  0  0  0  0
   19.3088  -12.5828    4.3903 C   0  0  0  0  0  0  0  0  0  0  0  0
   18.3453  -12.6813    5.3667 C   0  0  0  0  0  0  0  0  0  0  0  0
   17.2725  -13.5348    5.2110 C   0  0  0  0  0  0  0  0  0  0  0  0
   17.1067  -14.3335    4.0742 C   0  0  0  0  0  0  0  0  0  0  0  0
   15.9691  -15.2598    3.9335 C   0  0  1  0  0  0  0  0  0  0  0  0
   16.3528  -16.6229    4.3868 N   0  0  0  0  0  0  0  0  0  0  0  0
   15.2163  -17.5547    4.2797 C   0  0  0  0  0  0  0  0  0  0  0  0
   16.9360  -16.6599    5.7251 O   0  0  0  0  0  0  0  0  0  0  0  0
   16.2098  -16.7449    6.7744 C   0  0  0  0  0  0  0  0  0  0  0  0
   18.0932  -14.2087    3.1151 C   0  0  0  0  0  0  0  0  0  0  0  0
   19.1809  -13.3523    3.2567 O   0  0  0  0  0  0  0  0  0  0  0  0
  1  2  1  0
  2  3  2  0
  4  2  1  0
  4  5  1  0
  6  5  1  0
  7  6  1  0
  8  7  1  0
  8  9  1  6
 10  8  1  0
 10 11  2  0
 13 12  1  1
 13 15  1  0
 14 13  1  0
 15 16  1  1
 15 17  1  0
 16 10  1  0
 17 18  2  0
 17 26  1  0
 19 20  1  0
 20 21  2  0
 20 30  1  0
 21 22  1  0
 22 23  2  0
 23 24  1  0
 25 24  1  6
 25 27  1  0
 26 25  1  0
 27 28  2  0
 27 31  1  0
 29 23  1  0
 30 29  2  0
M  END
$$$$
