RTY.pdb
     RDKit          3D

 31 31  0  0  1  0  0  0  0  0999 V2000
   14.5129  -12.9208  -15.5022 N   0  0  0  0  0  0  0  0  0  0  0  0
   14.8356  -12.3566  -16.7588 C   0  0  0  0  0  0  0  0  0  0  0  0
   14.0027  -11.6902  -17.4872 N   0  0  0  0  0  0  0  0  0  0  0  0
   16.1681  -12.5406  -17.2503 N   0  0  0  0  0  0  0  0  0  0  0  0
   17.1450  -13.2701  -16.4742 C   0  0  0  0  0  0  0  0  0  0  0  0
   18.4484  -13.3218  -17.2225 C   0  0  0  0  0  0  0  0  0  0  0  0
   19.3405  -12.2218  -16.7216 C   0  0  0  0  0  0  0  0  0  0  0  0
   20.6440  -12.1651  -17.5000 C   0  0  2  0  0  0  0  0  0  0  0  0
   21.3391  -13.3919  -17.2446 N   0  0  0  0  0  0  0  0  0  0  0  0
   21.4274  -11.0207  -16.9510 C   0  0  0  0  0  0  0  0  0  0  0  0
   22.1233  -11.1530  -15.9125 O   0  0  0  0  0  0  0  0  0  0  0  0
   14.2695  -11.3450  -18.4358 C   0  0  0  0  0  0  0  0  0  0  0  0
   23.5003   -8.5993  -19.0954 C   0  0  2  0  0  0  0  0  0  0  0  0
   22.7241   -7.7346  -18.1210 O   0  0  0  0  0  0  0  0  0  0  0  0
   21.6769   -7.1799  -18.8107 C   0  0  2  0  0  0  0  0  0  0  0  0
   22.2014   -8.6687  -17.0397 N   0  0  0  0  0  0  0  0  0  0  0  0
   21.4299   -9.7439  -17.5605 C   0  0  0  0  0  0  0  0  0  0  0  0
   21.4602   -7.8898  -15.9986 O   0  0  0  0  0  0  0  0  0  0  0  0
   20.2030   -7.8557  -15.9631 O   0  0  0  0  0  0  0  0  0  0  0  0
   18.4892   -3.8459   -8.9039 C   0  0  0  0  0  0  0  0  0  0  0  0
   19.3003   -4.5364   -9.8122 C   0  0  0  0  0  0  0  0  0  0  0  0
   19.5392   -5.8861   -9.6997 C   0  0  0  0  0  0  0  0  0  0  0  0
   20.3430   -6.5355  -10.6139 C   0  0  0  0  0  0  0  0  0  0  0  0
   20.9496   -5.8717  -11.6859 C   0  0  0  0  0  0  0  0  0  0  0  0
   21.8270   -6.5738  -12.6395 C   0  0  2  0  0  0  0  0  0  0  0  0
   21.4053   -6.2889  -14.0366 N   0  0  0  0  0  0  0  0  0  0  0  0
   22.1286   -7.1465  -14.9920 C   0  0  0  0  0  0  0  0  0  0  0  0
   21.5112   -4.8816  -14.4120 O   0  0  0  0  0  0  0  0  0  0  0  0
   22.5938   -4.3895  -14.8828 C   0  0  0  0  0  0  0  0  0  0  0  0
   20.6879   -4.5176  -11.7672 C   0  0  0  0  0  0  0  0  0  0  0  0
   19.8791   -3.8481  -10.8537 O   0  0  0  0  0  0  0  0  0  0  0  0
  1  2  1  0
  2  3  2  0
  4  2  1  0
  4  5  1  0
  6  5  1  0
  7  6  1  0
  8  7  1  0
  8  9  1  1
 10  8  1  0
 10 11  2  0
 13 12  1  6
 13 15  1  0
 14 13  1  0
 15 16  1  1
 15 17  1  0
 16 10  1  0
 17 18  2  0
 17 26  1  0
 19 20  1  0
 20 21  2  0
 20 30  1  0
 21 22  1  0
 22 23  2  0
 23 24  1  0
 25 24  1  1
 25 27  1  0
 26 25  1  0
 27 28  2  0
 27 31  1  0
 29 23  1  0
 30 29  2  0
M  END
$$$$
