RTY.pdb
     RDKit          3D

 31 31  0  0  1  0  0  0  0  0999 V2000
   29.1162  -26.2715  -17.5702 N   0  0  0  0  0  0  0  0  0  0  0  0
   27.9210  -26.4846  -16.8439 C   0  0  0  0  0  0  0  0  0  0  0  0
   27.7022  -27.5169  -16.0990 N   0  0  0  0  0  0  0  0  0  0  0  0
   26.8925  -25.4933  -16.9461 N   0  0  0  0  0  0  0  0  0  0  0  0
   27.0104  -24.4044  -17.8890 C   0  0  0  0  0  0  0  0  0  0  0  0
   27.9228  -23.3480  -17.3295 C   0  0  0  0  0  0  0  0  0  0  0  0
   27.0928  -22.1853  -16.8647 C   0  0  0  0  0  0  0  0  0  0  0  0
   26.4648  -21.4474  -18.0349 C   0  0  2  0  0  0  0  0  0  0  0  0
   27.4813  -20.6070  -18.5955 N   0  0  0  0  0  0  0  0  0  0  0  0
   25.3677  -20.6046  -17.4776 C   0  0  0  0  0  0  0  0  0  0  0  0
   25.6081  -19.4725  -16.9867 O   0  0  0  0  0  0  0  0  0  0  0  0
   26.8122  -27.6180  -15.5624 C   0  0  0  0  0  0  0  0  0  0  0  0
   22.2499  -19.4206  -19.0782 C   0  0  2  0  0  0  0  0  0  0  0  0
   21.7702  -20.0985  -17.8094 O   0  0  0  0  0  0  0  0  0  0  0  0
   21.3089  -21.3415  -18.1589 C   0  0  2  0  0  0  0  0  0  0  0  0
   22.9868  -20.2278  -16.9049 N   0  0  0  0  0  0  0  0  0  0  0  0
   24.0175  -21.0271  -17.4719 C   0  0  0  0  0  0  0  0  0  0  0  0
   22.5738  -20.7110  -15.5499 O   0  0  0  0  0  0  0  0  0  0  0  0
   22.6696  -21.9207  -15.2175 O   0  0  0  0  0  0  0  0  0  0  0  0
   27.5548  -21.8621  -11.3051 C   0  0  0  0  0  0  0  0  0  0  0  0
   26.2881  -21.2972  -11.4952 C   0  0  0  0  0  0  0  0  0  0  0  0
   25.2325  -21.5701  -10.6570 C   0  0  0  0  0  0  0  0  0  0  0  0
   23.9974  -20.9946  -10.8730 C   0  0  0  0  0  0  0  0  0  0  0  0
   23.7524  -20.1184  -11.9361 C   0  0  0  0  0  0  0  0  0  0  0  0
   22.4207  -19.5316  -12.1695 C   0  0  2  0  0  0  0  0  0  0  0  0
   21.6913  -20.3020  -13.2112 N   0  0  0  0  0  0  0  0  0  0  0  0
   22.0523  -19.8366  -14.5620 C   0  0  0  0  0  0  0  0  0  0  0  0
   20.2421  -20.3157  -13.0320 O   0  0  0  0  0  0  0  0  0  0  0  0
   19.4699  -19.5717  -13.7291 C   0  0  0  0  0  0  0  0  0  0  0  0
   24.8348  -19.8678  -12.7571 C   0  0  0  0  0  0  0  0  0  0  0  0
   26.0870  -20.4397  -12.5525 O   0  0  0  0  0  0  0  0  0  0  0  0
  1  2  1  0
  2  3  2  0
  4  2  1  0
  4  5  1  0
  6  5  1  0
  7  6  1  0
  8  7  1  0
  8  9  1  1
 10  8  1  0
 10 11  2  0
 13 12  1  6
 13 15  1  0
 14 13  1  0
 15 16  1  1
 15 17  1  0
 16 10  1  0
 17 18  2  0
 17 26  1  0
 19 20  1  0
 20 21  2  0
 20 30  1  0
 21 22  1  0
 22 23  2  0
 23 24  1  0
 25 24  1  6
 25 27  1  0
 26 25  1  0
 27 28  2  0
 27 31  1  0
 29 23  1  0
 30 29  2  0
M  END
$$$$
