SPH.pdb
     RDKit          3D

 24 25  0  0  1  0  0  0  0  0999 V2000
   26.6205  -23.1654  -14.9877 O   0  0  0  0  0  0  0  0  0  0  0  0
   25.3115  -23.1068  -14.5146 C   0  0  0  0  0  0  0  0  0  0  0  0
   25.2102  -22.0308  -13.4178 C   0  0  2  0  0  0  0  0  0  0  0  0
   25.6770  -22.6394  -12.2219 N   0  0  0  0  0  0  0  0  0  0  0  0
   23.8606  -21.5057  -13.4334 C   0  0  0  0  0  0  0  0  0  0  0  0
   23.0005  -22.0678  -12.7088 O   0  0  0  0  0  0  0  0  0  0  0  0
   23.3823  -20.3720  -14.2141 N   0  0  0  0  0  0  0  0  0  0  0  0
   24.1417  -19.6243  -15.1641 C   0  0  0  0  0  0  0  0  0  0  0  0
   23.1344  -19.0114  -16.0914 C   0  0  0  0  0  0  0  0  0  0  0  0
   22.0065  -18.6956  -15.0948 C   0  0  0  0  0  0  0  0  0  0  0  0
   22.0519  -19.8385  -14.1299 C   0  0  1  0  0  0  0  0  0  0  0  0
   21.0097  -20.8561  -14.4235 C   0  0  0  0  0  0  0  0  0  0  0  0
   21.2257  -21.6741  -15.3494 O   0  0  0  0  0  0  0  0  0  0  0  0
   19.7865  -20.9598  -13.7221 N   0  0  0  0  0  0  0  0  0  0  0  0
   18.7790  -21.9630  -13.9848 C   0  0  1  0  0  0  0  0  0  0  0  0
   17.8952  -22.2057  -12.7786 C   0  0  0  0  0  0  0  0  0  0  0  0
   16.7760  -23.1296  -13.0747 C   0  0  0  0  0  0  0  0  0  0  0  0
   15.5457  -22.8856  -13.6486 C   0  0  0  0  0  0  0  0  0  0  0  0
   14.8456  -24.0185  -13.7244 N   0  0  0  0  0  0  0  0  0  0  0  0
   15.6153  -24.9970  -13.2025 C   0  0  0  0  0  0  0  0  0  0  0  0
   16.7978  -24.4466  -12.8057 N   0  0  0  0  0  0  0  0  0  0  0  0
   17.8990  -21.4583  -15.0662 C   0  0  0  0  0  0  0  0  0  0  0  0
   17.2767  -22.3207  -15.9681 O   0  0  0  0  0  0  0  0  0  0  0  0
   17.7138  -20.2253  -15.1670 O   0  0  0  0  0  0  0  0  0  0  0  0
  1  2  1  0
  2  3  1  0
  3  5  1  0
  3  4  1  1
  5  6  2  0
  7 11  1  0
  7  5  1  0
  8  7  1  0
  9  8  1  0
  9 10  1  0
 10 11  1  0
 11 12  1  6
 12 14  1  0
 12 13  2  0
 14 15  1  0
 15 22  1  0
 15 16  1  1
 17 18  2  0
 17 16  1  0
 19 18  1  0
 20 21  2  0
 20 19  1  0
 21 17  1  0
 22 24  2  0
 22 23  1  0
M  END
$$$$
