SPH.pdb
     RDKit          3D

 24 25  0  0  1  0  0  0  0  0999 V2000
   18.0636   -8.5251  -17.2932 O   0  0  0  0  0  0  0  0  0  0  0  0
   17.7216   -8.6594  -15.9493 C   0  0  0  0  0  0  0  0  0  0  0  0
   18.7502   -9.5644  -15.2464 C   0  0  2  0  0  0  0  0  0  0  0  0
   18.4187  -10.8972  -15.6102 N   0  0  0  0  0  0  0  0  0  0  0  0
   18.7542   -9.2231  -13.8390 C   0  0  0  0  0  0  0  0  0  0  0  0
   17.8342   -9.6852  -13.1173 O   0  0  0  0  0  0  0  0  0  0  0  0
   19.7304   -8.3851  -13.1547 N   0  0  0  0  0  0  0  0  0  0  0  0
   20.9125   -7.8290  -13.7306 C   0  0  0  0  0  0  0  0  0  0  0  0
   21.2422   -6.6293  -12.8925 C   0  0  0  0  0  0  0  0  0  0  0  0
   20.8384   -7.1508  -11.5032 C   0  0  0  0  0  0  0  0  0  0  0  0
   19.6354   -7.9981  -11.7753 C   0  0  1  0  0  0  0  0  0  0  0  0
   18.3699   -7.2816  -11.4699 C   0  0  0  0  0  0  0  0  0  0  0  0
   17.9255   -6.4761  -12.3223 O   0  0  0  0  0  0  0  0  0  0  0  0
   17.6338   -7.4520  -10.2748 N   0  0  0  0  0  0  0  0  0  0  0  0
   16.3549   -6.8319  -10.0100 C   0  0  1  0  0  0  0  0  0  0  0  0
   15.4139   -7.7672   -9.2790 C   0  0  0  0  0  0  0  0  0  0  0  0
   15.1137   -8.9901  -10.0589 C   0  0  0  0  0  0  0  0  0  0  0  0
   14.0279   -9.2986  -10.8517 C   0  0  0  0  0  0  0  0  0  0  0  0
   14.1731  -10.5199  -11.3681 N   0  0  0  0  0  0  0  0  0  0  0  0
   15.3478  -11.0061  -10.9145 C   0  0  0  0  0  0  0  0  0  0  0  0
   15.9205  -10.0642  -10.1122 N   0  0  0  0  0  0  0  0  0  0  0  0
   16.5835   -5.6702   -9.1173 C   0  0  0  0  0  0  0  0  0  0  0  0
   17.8037   -5.4692   -8.4730 O   0  0  0  0  0  0  0  0  0  0  0  0
   15.6535   -4.8524   -8.9416 O   0  0  0  0  0  0  0  0  0  0  0  0
  1  2  1  0
  2  3  1  0
  3  5  1  0
  3  4  1  1
  5  6  2  0
  7 11  1  0
  7  5  1  0
  8  7  1  0
  9  8  1  0
  9 10  1  0
 10 11  1  0
 11 12  1  6
 12 14  1  0
 12 13  2  0
 14 15  1  0
 15 22  1  0
 15 16  1  1
 17 18  2  0
 17 16  1  0
 19 18  1  0
 20 21  2  0
 20 19  1  0
 21 17  1  0
 22 24  2  0
 22 23  1  0
M  END
$$$$
