SPH.pdb
     RDKit          3D

 24 25  0  0  1  0  0  0  0  0999 V2000
   28.0866  -17.1374  -16.4958 O   0  0  0  0  0  0  0  0  0  0  0  0
   27.2953  -17.9973  -15.7372 C   0  0  0  0  0  0  0  0  0  0  0  0
   27.8287  -19.4357  -15.8695 C   0  0  2  0  0  0  0  0  0  0  0  0
   27.3231  -19.9337  -17.1002 N   0  0  0  0  0  0  0  0  0  0  0  0
   27.4902  -20.1487  -14.6552 C   0  0  0  0  0  0  0  0  0  0  0  0
   26.2895  -20.4775  -14.4794 O   0  0  0  0  0  0  0  0  0  0  0  0
   28.4107  -20.5350  -13.5936 N   0  0  0  0  0  0  0  0  0  0  0  0
   29.8202  -20.3087  -13.5784 C   0  0  0  0  0  0  0  0  0  0  0  0
   30.2130  -20.3141  -12.1307 C   0  0  0  0  0  0  0  0  0  0  0  0
   29.2708  -21.4072  -11.5990 C   0  0  0  0  0  0  0  0  0  0  0  0
   28.0162  -21.2141  -12.3915 C   0  0  1  0  0  0  0  0  0  0  0  0
   26.9847  -20.4667  -11.6265 C   0  0  0  0  0  0  0  0  0  0  0  0
   27.0825  -19.2179  -11.5655 O   0  0  0  0  0  0  0  0  0  0  0  0
   25.8969  -21.0777  -10.9613 N   0  0  0  0  0  0  0  0  0  0  0  0
   24.8992  -20.3590  -10.2006 C   0  0  1  0  0  0  0  0  0  0  0  0
   23.4955  -20.8267  -10.5257 C   0  0  0  0  0  0  0  0  0  0  0  0
   23.1311  -20.5804  -11.9401 C   0  0  0  0  0  0  0  0  0  0  0  0
   23.5933  -19.6316  -12.8283 C   0  0  0  0  0  0  0  0  0  0  0  0
   22.9853  -19.7763  -14.0067 N   0  0  0  0  0  0  0  0  0  0  0  0
   22.1304  -20.8142  -13.8881 C   0  0  0  0  0  0  0  0  0  0  0  0
   22.2238  -21.3036  -12.6191 N   0  0  0  0  0  0  0  0  0  0  0  0
   25.1238  -20.6445   -8.7630 C   0  0  0  0  0  0  0  0  0  0  0  0
   24.4038  -19.9903   -7.7640 O   0  0  0  0  0  0  0  0  0  0  0  0
   25.9833  -21.4957   -8.4442 O   0  0  0  0  0  0  0  0  0  0  0  0
  1  2  1  0
  2  3  1  0
  3  5  1  0
  3  4  1  6
  5  6  2  0
  7 11  1  0
  7  5  1  0
  8  7  1  0
  9  8  1  0
  9 10  1  0
 10 11  1  0
 11 12  1  1
 12 14  1  0
 12 13  2  0
 14 15  1  0
 15 22  1  0
 15 16  1  6
 17 18  2  0
 17 16  1  0
 19 18  1  0
 20 21  2  0
 20 19  1  0
 21 17  1  0
 22 24  2  0
 22 23  1  0
M  END
$$$$
