SPH.pdb
     RDKit          3D

 24 25  0  0  1  0  0  0  0  0999 V2000
   22.4270  -16.1471  -14.1364 O   0  0  0  0  0  0  0  0  0  0  0  0
   22.6415  -14.8478  -14.5912 C   0  0  0  0  0  0  0  0  0  0  0  0
   22.4213  -14.7947  -16.1142 C   0  0  2  0  0  0  0  0  0  0  0  0
   23.5077  -15.5014  -16.6962 N   0  0  0  0  0  0  0  0  0  0  0  0
   22.2318  -13.4084  -16.4879 C   0  0  0  0  0  0  0  0  0  0  0  0
   23.2507  -12.7304  -16.7758 O   0  0  0  0  0  0  0  0  0  0  0  0
   20.9608  -12.7001  -16.5687 N   0  0  0  0  0  0  0  0  0  0  0  0
   19.6731  -13.2472  -16.2844 C   0  0  0  0  0  0  0  0  0  0  0  0
   18.8082  -12.0752  -15.9263 C   0  0  0  0  0  0  0  0  0  0  0  0
   19.3629  -11.0221  -16.9002 C   0  0  0  0  0  0  0  0  0  0  0  0
   20.8275  -11.3242  -16.9569 C   0  0  1  0  0  0  0  0  0  0  0  0
   21.6179  -10.4088  -16.0935 C   0  0  0  0  0  0  0  0  0  0  0  0
   21.7363  -10.6965  -14.8786 O   0  0  0  0  0  0  0  0  0  0  0  0
   22.2464   -9.2305  -16.5579 N   0  0  0  0  0  0  0  0  0  0  0  0
   23.0684   -8.3682  -15.7387 C   0  0  1  0  0  0  0  0  0  0  0  0
   24.4222   -8.1128  -16.3685 C   0  0  0  0  0  0  0  0  0  0  0  0
   25.2514   -9.3380  -16.4423 C   0  0  0  0  0  0  0  0  0  0  0  0
   26.2517   -9.7899  -15.6070 C   0  0  0  0  0  0  0  0  0  0  0  0
   26.7312  -10.9506  -16.0568 N   0  0  0  0  0  0  0  0  0  0  0  0
   26.0472  -11.2545  -17.1801 C   0  0  0  0  0  0  0  0  0  0  0  0
   25.1411  -10.2625  -17.4120 N   0  0  0  0  0  0  0  0  0  0  0  0
   22.3908   -7.0537  -15.6315 C   0  0  0  0  0  0  0  0  0  0  0  0
   21.2203   -6.7722  -16.3351 O   0  0  0  0  0  0  0  0  0  0  0  0
   22.8871   -6.1780  -14.8887 O   0  0  0  0  0  0  0  0  0  0  0  0
  1  2  1  0
  2  3  1  0
  3  5  1  0
  3  4  1  6
  5  6  2  0
  7 11  1  0
  7  5  1  0
  8  7  1  0
  9  8  1  0
  9 10  1  0
 10 11  1  0
 11 12  1  1
 12 14  1  0
 12 13  2  0
 14 15  1  0
 15 22  1  0
 15 16  1  6
 17 18  2  0
 17 16  1  0
 19 18  1  0
 20 21  2  0
 20 19  1  0
 21 17  1  0
 22 24  2  0
 22 23  1  0
M  END
$$$$
