SPH.pdb
     RDKit          3D

 24 25  0  0  1  0  0  0  0  0999 V2000
   16.2154  -11.8991  -10.3286 O   0  0  0  0  0  0  0  0  0  0  0  0
   16.5250  -10.9536  -11.3039 C   0  0  0  0  0  0  0  0  0  0  0  0
   15.4318   -9.8696  -11.3325 C   0  0  2  0  0  0  0  0  0  0  0  0
   14.4863  -10.2866  -12.3075 N   0  0  0  0  0  0  0  0  0  0  0  0
   16.0812   -8.5882  -11.5172 C   0  0  0  0  0  0  0  0  0  0  0  0
   16.7151   -8.3967  -12.5859 O   0  0  0  0  0  0  0  0  0  0  0  0
   16.0781   -7.4735  -10.5786 N   0  0  0  0  0  0  0  0  0  0  0  0
   15.3867   -7.4265   -9.3304 C   0  0  0  0  0  0  0  0  0  0  0  0
   16.1249   -6.4192   -8.4994 C   0  0  0  0  0  0  0  0  0  0  0  0
   16.5016   -5.3970   -9.5849 C   0  0  0  0  0  0  0  0  0  0  0  0
   16.7844   -6.2410  -10.7878 C   0  0  1  0  0  0  0  0  0  0  0  0
   18.2417   -6.4465  -10.9929 C   0  0  0  0  0  0  0  0  0  0  0  0
   18.8756   -7.0945  -10.1263 O   0  0  0  0  0  0  0  0  0  0  0  0
   18.9599   -5.9554  -12.1074 N   0  0  0  0  0  0  0  0  0  0  0  0
   20.3548   -6.2349  -12.3654 C   0  0  1  0  0  0  0  0  0  0  0  0
   20.5580   -6.9029  -13.7098 C   0  0  0  0  0  0  0  0  0  0  0  0
   19.8485   -8.1993  -13.8097 C   0  0  0  0  0  0  0  0  0  0  0  0
   19.7217   -9.2201  -12.8908 C   0  0  0  0  0  0  0  0  0  0  0  0
   18.9901  -10.2091  -13.4065 N   0  0  0  0  0  0  0  0  0  0  0  0
   18.6412   -9.8355  -14.6558 C   0  0  0  0  0  0  0  0  0  0  0  0
   19.1700   -8.6025  -14.8980 N   0  0  0  0  0  0  0  0  0  0  0  0
   21.0808   -4.9429  -12.4148 C   0  0  0  0  0  0  0  0  0  0  0  0
   22.4736   -4.8847  -12.4428 O   0  0  0  0  0  0  0  0  0  0  0  0
   20.4206   -3.8805  -12.4316 O   0  0  0  0  0  0  0  0  0  0  0  0
  1  2  1  0
  2  3  1  0
  3  5  1  0
  3  4  1  6
  5  6  2  0
  7 11  1  0
  7  5  1  0
  8  7  1  0
  9  8  1  0
  9 10  1  0
 10 11  1  0
 11 12  1  1
 12 14  1  0
 12 13  2  0
 14 15  1  0
 15 22  1  0
 15 16  1  6
 17 18  2  0
 17 16  1  0
 19 18  1  0
 20 21  2  0
 20 19  1  0
 21 17  1  0
 22 24  2  0
 22 23  1  0
M  END
$$$$
