SPH.pdb
     RDKit          3D

 24 25  0  0  1  0  0  0  0  0999 V2000
   25.2235  -23.4842  -13.6906 O   0  0  0  0  0  0  0  0  0  0  0  0
   24.3045  -22.4848  -13.3779 C   0  0  0  0  0  0  0  0  0  0  0  0
   24.9696  -21.4472  -12.4549 C   0  0  2  0  0  0  0  0  0  0  0  0
   24.0868  -21.2718  -11.3557 N   0  0  0  0  0  0  0  0  0  0  0  0
   25.2996  -20.2866  -13.2558 C   0  0  0  0  0  0  0  0  0  0  0  0
   24.3549  -19.5687  -13.6716 O   0  0  0  0  0  0  0  0  0  0  0  0
   26.6366  -19.8516  -13.6390 N   0  0  0  0  0  0  0  0  0  0  0  0
   27.8673  -20.3862  -13.1513 C   0  0  0  0  0  0  0  0  0  0  0  0
   28.8861  -20.0797  -14.2089 C   0  0  0  0  0  0  0  0  0  0  0  0
   28.3945  -18.6957  -14.6649 C   0  0  0  0  0  0  0  0  0  0  0  0
   26.9042  -18.7997  -14.5789 C   0  0  1  0  0  0  0  0  0  0  0  0
   26.2866  -19.0508  -15.9070 C   0  0  0  0  0  0  0  0  0  0  0  0
   26.4652  -20.1719  -16.4400 O   0  0  0  0  0  0  0  0  0  0  0  0
   25.5082  -18.1018  -16.6087 N   0  0  0  0  0  0  0  0  0  0  0  0
   24.8803  -18.3485  -17.8876 C   0  0  1  0  0  0  0  0  0  0  0  0
   23.7774  -19.3820  -17.7856 C   0  0  0  0  0  0  0  0  0  0  0  0
   22.7375  -19.0035  -16.8010 C   0  0  0  0  0  0  0  0  0  0  0  0
   21.8140  -17.9792  -16.8278 C   0  0  0  0  0  0  0  0  0  0  0  0
   21.0668  -18.0105  -15.7233 N   0  0  0  0  0  0  0  0  0  0  0  0
   21.5005  -19.0500  -14.9794 C   0  0  0  0  0  0  0  0  0  0  0  0
   22.5250  -19.6555  -15.6447 N   0  0  0  0  0  0  0  0  0  0  0  0
   24.2450  -17.0869  -18.3385 C   0  0  0  0  0  0  0  0  0  0  0  0
   23.6414  -16.9761  -19.5906 O   0  0  0  0  0  0  0  0  0  0  0  0
   24.2540  -16.0992  -17.5709 O   0  0  0  0  0  0  0  0  0  0  0  0
  1  2  1  0
  2  3  1  0
  3  5  1  0
  3  4  1  1
  5  6  2  0
  7 11  1  0
  7  5  1  0
  8  7  1  0
  9  8  1  0
  9 10  1  0
 10 11  1  0
 11 12  1  6
 12 14  1  0
 12 13  2  0
 14 15  1  0
 15 22  1  0
 15 16  1  1
 17 18  2  0
 17 16  1  0
 19 18  1  0
 20 21  2  0
 20 19  1  0
 21 17  1  0
 22 24  2  0
 22 23  1  0
M  END
$$$$
