SPH.pdb
     RDKit          3D

 24 25  0  0  1  0  0  0  0  0999 V2000
   26.8006  -22.7013  -18.8474 O   0  0  0  0  0  0  0  0  0  0  0  0
   27.7668  -23.6123  -18.4260 C   0  0  0  0  0  0  0  0  0  0  0  0
   28.9649  -22.8504  -17.8301 C   0  0  2  0  0  0  0  0  0  0  0  0
   29.9792  -23.8198  -17.6070 N   0  0  0  0  0  0  0  0  0  0  0  0
   28.4874  -22.0897  -16.6939 C   0  0  0  0  0  0  0  0  0  0  0  0
   28.1951  -22.7176  -15.6445 O   0  0  0  0  0  0  0  0  0  0  0  0
   28.3062  -20.6451  -16.6344 N   0  0  0  0  0  0  0  0  0  0  0  0
   28.4977  -19.7280  -17.7117 C   0  0  0  0  0  0  0  0  0  0  0  0
   27.6575  -18.5316  -17.3757 C   0  0  0  0  0  0  0  0  0  0  0  0
   27.8467  -18.4881  -15.8501 C   0  0  0  0  0  0  0  0  0  0  0  0
   27.9038  -19.9305  -15.4558 C   0  0  1  0  0  0  0  0  0  0  0  0
   26.6064  -20.4104  -14.9130 C   0  0  0  0  0  0  0  0  0  0  0  0
   25.7605  -20.8668  -15.7187 O   0  0  0  0  0  0  0  0  0  0  0  0
   26.2656  -20.3844  -13.5411 N   0  0  0  0  0  0  0  0  0  0  0  0
   25.0234  -20.8894  -13.0003 C   0  0  1  0  0  0  0  0  0  0  0  0
   24.9913  -20.8088  -11.4879 C   0  0  0  0  0  0  0  0  0  0  0  0
   23.6736  -21.1905  -10.9294 C   0  0  0  0  0  0  0  0  0  0  0  0
   22.5433  -21.6703  -11.5579 C   0  0  0  0  0  0  0  0  0  0  0  0
   21.5789  -21.8825  -10.6612 N   0  0  0  0  0  0  0  0  0  0  0  0
   22.0772  -21.5428   -9.4536 C   0  0  0  0  0  0  0  0  0  0  0  0
   23.3618  -21.1191   -9.6237 N   0  0  0  0  0  0  0  0  0  0  0  0
   23.9224  -20.0302  -13.4987 C   0  0  0  0  0  0  0  0  0  0  0  0
   22.6976  -20.5646  -13.8969 O   0  0  0  0  0  0  0  0  0  0  0  0
   24.1032  -18.7940  -13.5611 O   0  0  0  0  0  0  0  0  0  0  0  0
  1  2  1  0
  2  3  1  0
  3  5  1  0
  3  4  1  1
  5  6  2  0
  7 11  1  0
  7  5  1  0
  8  7  1  0
  9  8  1  0
  9 10  1  0
 10 11  1  0
 11 12  1  6
 12 14  1  0
 12 13  2  0
 14 15  1  0
 15 22  1  0
 15 16  1  1
 17 18  2  0
 17 16  1  0
 19 18  1  0
 20 21  2  0
 20 19  1  0
 21 17  1  0
 22 24  2  0
 22 23  1  0
M  END
$$$$
