SPH.pdb
     RDKit          3D

 24 25  0  0  1  0  0  0  0  0999 V2000
   21.5085  -18.3461  -14.3130 O   0  0  0  0  0  0  0  0  0  0  0  0
   21.3792  -19.7330  -14.2834 C   0  0  0  0  0  0  0  0  0  0  0  0
   22.5535  -20.3408  -13.4942 C   0  0  2  0  0  0  0  0  0  0  0  0
   23.4275  -20.9084  -14.4597 N   0  0  0  0  0  0  0  0  0  0  0  0
   22.0020  -21.2128  -12.4779 C   0  0  0  0  0  0  0  0  0  0  0  0
   21.4884  -22.2991  -12.8480 O   0  0  0  0  0  0  0  0  0  0  0  0
   21.9786  -20.9621  -11.0426 N   0  0  0  0  0  0  0  0  0  0  0  0
   22.4857  -19.8021  -10.3828 C   0  0  0  0  0  0  0  0  0  0  0  0
   21.7371  -19.7176   -9.0856 C   0  0  0  0  0  0  0  0  0  0  0  0
   21.6201  -21.2123   -8.7431 C   0  0  0  0  0  0  0  0  0  0  0  0
   21.4319  -21.8702  -10.0740 C   0  0  1  0  0  0  0  0  0  0  0  0
   20.0059  -22.1945  -10.3374 C   0  0  0  0  0  0  0  0  0  0  0  0
   19.2664  -21.2875  -10.7882 O   0  0  0  0  0  0  0  0  0  0  0  0
   19.4297  -23.4656  -10.1108 N   0  0  0  0  0  0  0  0  0  0  0  0
   18.0665  -23.8135  -10.4443 C   0  0  1  0  0  0  0  0  0  0  0  0
   17.9631  -25.2153  -11.0092 C   0  0  0  0  0  0  0  0  0  0  0  0
   16.5778  -25.5671  -11.3981 C   0  0  0  0  0  0  0  0  0  0  0  0
   15.4424  -24.7861  -11.4583 C   0  0  0  0  0  0  0  0  0  0  0  0
   14.4052  -25.5206  -11.8634 N   0  0  0  0  0  0  0  0  0  0  0  0
   14.8615  -26.7747  -12.0665 C   0  0  0  0  0  0  0  0  0  0  0  0
   16.1942  -26.7977  -11.7797 N   0  0  0  0  0  0  0  0  0  0  0  0
   17.2687  -23.7952   -9.1945 C   0  0  0  0  0  0  0  0  0  0  0  0
   15.9010  -23.5241   -9.2012 O   0  0  0  0  0  0  0  0  0  0  0  0
   17.8436  -24.0299   -8.1086 O   0  0  0  0  0  0  0  0  0  0  0  0
  1  2  1  0
  2  3  1  0
  3  5  1  0
  3  4  1  6
  5  6  2  0
  7 11  1  0
  7  5  1  0
  8  7  1  0
  9  8  1  0
  9 10  1  0
 10 11  1  0
 11 12  1  6
 12 14  1  0
 12 13  2  0
 14 15  1  0
 15 22  1  0
 15 16  1  1
 17 18  2  0
 17 16  1  0
 19 18  1  0
 20 21  2  0
 20 19  1  0
 21 17  1  0
 22 24  2  0
 22 23  1  0
M  END
$$$$
