QWG.pdb
     RDKit          3D

 28 29  0  0  1  0  0  0  0  0999 V2000
   28.5469  -34.8548  -16.4739 N   0  0  0  0  0  0  0  0  0  0  0  0
   29.6619  -33.9930  -16.7316 C   0  0  0  0  0  0  0  0  0  0  0  0
   30.5577  -34.3451  -17.5374 O   0  0  0  0  0  0  0  0  0  0  0  0
   29.6814  -32.7136  -16.0156 C   0  0  0  0  0  0  0  0  0  0  0  0
   28.5221  -32.5751  -15.1107 C   0  0  0  0  0  0  0  0  0  0  0  0
   27.3443  -31.8123  -15.5813 C   0  0  2  0  0  0  0  0  0  0  0  0
   27.5445  -30.5362  -16.1452 N   0  0  0  0  0  0  0  0  0  0  0  0
   26.2565  -31.8793  -14.5404 C   0  0  0  0  0  0  0  0  0  0  0  0
   26.2826  -30.9429  -13.7056 O   0  0  0  0  0  0  0  0  0  0  0  0
   25.2783  -32.8672  -14.4529 N   0  0  0  0  0  0  0  0  0  0  0  0
   24.1862  -32.8647  -13.5026 C   0  0  1  0  0  0  0  0  0  0  0  0
   22.9339  -33.3028  -14.1781 C   0  0  0  0  0  0  0  0  0  0  0  0
   22.2510  -32.2381  -14.9148 C   0  0  0  0  0  0  0  0  0  0  0  0
   22.6008  -31.7127  -16.1384 C   0  0  0  0  0  0  0  0  0  0  0  0
   21.7085  -30.7504  -16.4590 N   0  0  0  0  0  0  0  0  0  0  0  0
   20.7909  -30.6293  -15.4903 C   0  0  0  0  0  0  0  0  0  0  0  0
   19.7015  -29.7939  -15.3738 C   0  0  0  0  0  0  0  0  0  0  0  0
   18.9303  -29.9153  -14.2260 C   0  0  0  0  0  0  0  0  0  0  0  0
   19.2612  -30.8498  -13.2436 C   0  0  0  0  0  0  0  0  0  0  0  0
   20.3535  -31.6762  -13.3770 C   0  0  0  0  0  0  0  0  0  0  0  0
   21.1241  -31.5626  -14.5126 C   0  0  0  0  0  0  0  0  0  0  0  0
   24.5471  -33.7272  -12.3477 C   0  0  0  0  0  0  0  0  0  0  0  0
   23.8032  -34.0128  -11.3868 O   0  0  0  0  0  0  0  0  0  0  0  0
   25.8726  -34.2816  -12.3386 N   0  0  0  0  0  0  0  0  0  0  0  0
   26.2640  -35.1005  -11.2184 C   0  0  0  0  0  0  0  0  0  0  0  0
   26.1465  -36.5146  -11.5863 C   0  0  0  0  0  0  0  0  0  0  0  0
   25.6593  -36.8647  -12.6943 O   0  0  0  0  0  0  0  0  0  0  0  0
   26.5704  -37.4947  -10.7193 O   0  0  0  0  0  0  0  0  0  0  0  0
  1  2  1  0
  2  4  1  0
  3  2  2  0
  4  5  1  0
  5  6  1  0
  6  8  1  0
  6  7  1  1
  8  9  2  0
 10  8  1  0
 11 10  1  0
 11 12  1  6
 13 12  1  0
 13 21  1  0
 14 15  1  0
 14 13  2  0
 15 16  1  0
 16 21  2  0
 16 17  1  0
 17 18  2  0
 18 19  1  0
 20 19  2  0
 21 20  1  0
 22 11  1  0
 23 22  2  0
 24 22  1  0
 25 24  1  0
 25 26  1  0
 26 28  1  0
 27 26  2  0
M  END
$$$$
