QWG.pdb
     RDKit          3D

 28 29  0  0  1  0  0  0  0  0999 V2000
   26.8534  -22.1661  -14.2691 N   0  0  0  0  0  0  0  0  0  0  0  0
   27.1242  -20.7866  -14.5447 C   0  0  0  0  0  0  0  0  0  0  0  0
   27.3710  -20.4149  -15.7180 O   0  0  0  0  0  0  0  0  0  0  0  0
   27.0906  -19.8702  -13.4007 C   0  0  0  0  0  0  0  0  0  0  0  0
   26.7894  -20.5791  -12.1402 C   0  0  0  0  0  0  0  0  0  0  0  0
   25.3893  -20.6072  -11.6613 C   0  0  2  0  0  0  0  0  0  0  0  0
   24.5582  -19.5015  -11.9320 N   0  0  0  0  0  0  0  0  0  0  0  0
   25.3588  -21.0853  -10.2324 C   0  0  0  0  0  0  0  0  0  0  0  0
   26.0623  -22.1008  -10.0129 O   0  0  0  0  0  0  0  0  0  0  0  0
   24.6330  -20.5002   -9.1974 N   0  0  0  0  0  0  0  0  0  0  0  0
   24.3918  -21.1148   -7.9090 C   0  0  1  0  0  0  0  0  0  0  0  0
   24.8213  -20.1893   -6.8248 C   0  0  0  0  0  0  0  0  0  0  0  0
   26.2375  -19.8233   -6.8807 C   0  0  0  0  0  0  0  0  0  0  0  0
   26.9442  -19.3867   -7.9787 C   0  0  0  0  0  0  0  0  0  0  0  0
   28.2209  -19.1589   -7.6000 N   0  0  0  0  0  0  0  0  0  0  0  0
   28.3721  -19.4308   -6.2968 C   0  0  0  0  0  0  0  0  0  0  0  0
   29.4765  -19.3507   -5.4770 C   0  0  0  0  0  0  0  0  0  0  0  0
   29.3053  -19.7093   -4.1469 C   0  0  0  0  0  0  0  0  0  0  0  0
   28.0593  -20.1303   -3.6798 C   0  0  0  0  0  0  0  0  0  0  0  0
   26.9669  -20.2041   -4.5133 C   0  0  0  0  0  0  0  0  0  0  0  0
   27.1278  -19.8502   -5.8344 C   0  0  0  0  0  0  0  0  0  0  0  0
   22.9566  -21.4868   -7.8108 C   0  0  0  0  0  0  0  0  0  0  0  0
   21.9982  -20.8350   -8.2743 O   0  0  0  0  0  0  0  0  0  0  0  0
   22.6466  -22.7077   -7.1196 N   0  0  0  0  0  0  0  0  0  0  0  0
   21.2828  -23.1752   -7.1350 C   0  0  0  0  0  0  0  0  0  0  0  0
   20.5276  -22.5042   -6.0730 C   0  0  0  0  0  0  0  0  0  0  0  0
   21.0553  -21.6107   -5.3583 O   0  0  0  0  0  0  0  0  0  0  0  0
   19.2156  -22.8417   -5.8351 O   0  0  0  0  0  0  0  0  0  0  0  0
  1  2  1  0
  2  4  1  0
  3  2  2  0
  4  5  1  0
  5  6  1  0
  6  8  1  0
  6  7  1  1
  8  9  2  0
 10  8  1  0
 11 10  1  0
 11 12  1  1
 13 12  1  0
 13 21  1  0
 14 15  1  0
 14 13  2  0
 15 16  1  0
 16 21  2  0
 16 17  1  0
 17 18  2  0
 18 19  1  0
 20 19  2  0
 21 20  1  0
 22 11  1  0
 23 22  2  0
 24 22  1  0
 25 24  1  0
 25 26  1  0
 26 28  1  0
 27 26  2  0
M  END
$$$$
