QWG.pdb
     RDKit          3D

 28 29  0  0  1  0  0  0  0  0999 V2000
   29.5261  -23.0055  -16.6523 N   0  0  0  0  0  0  0  0  0  0  0  0
   28.4647  -22.1158  -17.0183 C   0  0  0  0  0  0  0  0  0  0  0  0
   27.2865  -22.5409  -17.1021 O   0  0  0  0  0  0  0  0  0  0  0  0
   28.8371  -20.7213  -17.2760 C   0  0  0  0  0  0  0  0  0  0  0  0
   27.6531  -19.8399  -17.3318 C   0  0  0  0  0  0  0  0  0  0  0  0
   26.9966  -19.4554  -16.0622 C   0  0  2  0  0  0  0  0  0  0  0  0
   27.3489  -20.1413  -14.8824 N   0  0  0  0  0  0  0  0  0  0  0  0
   25.5139  -19.3105  -16.2897 C   0  0  0  0  0  0  0  0  0  0  0  0
   25.2088  -18.5278  -17.2217 O   0  0  0  0  0  0  0  0  0  0  0  0
   24.5157  -19.9567  -15.5639 N   0  0  0  0  0  0  0  0  0  0  0  0
   23.0992  -19.8672  -15.8492 C   0  0  1  0  0  0  0  0  0  0  0  0
   22.6471  -21.1095  -16.5337 C   0  0  0  0  0  0  0  0  0  0  0  0
   22.9659  -21.1522  -17.9618 C   0  0  0  0  0  0  0  0  0  0  0  0
   24.1516  -21.5447  -18.5411 C   0  0  0  0  0  0  0  0  0  0  0  0
   24.0274  -21.4339  -19.8817 N   0  0  0  0  0  0  0  0  0  0  0  0
   22.8054  -20.9841  -20.1973 C   0  0  0  0  0  0  0  0  0  0  0  0
   22.2258  -20.7175  -21.4184 C   0  0  0  0  0  0  0  0  0  0  0  0
   20.9176  -20.2530  -21.4105 C   0  0  0  0  0  0  0  0  0  0  0  0
   20.2361  -20.0707  -20.2063 C   0  0  0  0  0  0  0  0  0  0  0  0
   20.8312  -20.3424  -18.9956 C   0  0  0  0  0  0  0  0  0  0  0  0
   22.1288  -20.8035  -18.9942 C   0  0  0  0  0  0  0  0  0  0  0  0
   22.3654  -19.6101  -14.5830 C   0  0  0  0  0  0  0  0  0  0  0  0
   22.8232  -19.7506  -13.4302 O   0  0  0  0  0  0  0  0  0  0  0  0
   21.0061  -19.1590  -14.6986 N   0  0  0  0  0  0  0  0  0  0  0  0
   20.2692  -18.8905  -13.4889 C   0  0  0  0  0  0  0  0  0  0  0  0
   18.9409  -19.5031  -13.5836 C   0  0  0  0  0  0  0  0  0  0  0  0
   18.6153  -20.2110  -14.5738 O   0  0  0  0  0  0  0  0  0  0  0  0
   18.0166  -19.3141  -12.5827 O   0  0  0  0  0  0  0  0  0  0  0  0
  1  2  1  0
  2  4  1  0
  3  2  2  0
  4  5  1  0
  5  6  1  0
  6  8  1  0
  6  7  1  1
  8  9  2  0
 10  8  1  0
 11 10  1  0
 11 12  1  1
 13 12  1  0
 13 21  1  0
 14 15  1  0
 14 13  2  0
 15 16  1  0
 16 21  2  0
 16 17  1  0
 17 18  2  0
 18 19  1  0
 20 19  2  0
 21 20  1  0
 22 11  1  0
 23 22  2  0
 24 22  1  0
 25 24  1  0
 25 26  1  0
 26 28  1  0
 27 26  2  0
M  END
$$$$
