QWG.pdb
     RDKit          3D

 28 29  0  0  1  0  0  0  0  0999 V2000
   16.0609  -13.0981  -15.0648 N   0  0  0  0  0  0  0  0  0  0  0  0
   15.5884  -13.8158  -16.2110 C   0  0  0  0  0  0  0  0  0  0  0  0
   15.8216  -15.0439  -16.3259 O   0  0  0  0  0  0  0  0  0  0  0  0
   14.8365  -13.0432  -17.2047 C   0  0  0  0  0  0  0  0  0  0  0  0
   14.7430  -11.6168  -16.8326 C   0  0  0  0  0  0  0  0  0  0  0  0
   15.8985  -10.7353  -17.1121 C   0  0  2  0  0  0  0  0  0  0  0  0
   17.0799  -11.3086  -17.6242 N   0  0  0  0  0  0  0  0  0  0  0  0
   16.1038   -9.7964  -15.9512 C   0  0  0  0  0  0  0  0  0  0  0  0
   15.0596   -9.2186  -15.5639 O   0  0  0  0  0  0  0  0  0  0  0  0
   17.3189   -9.5435  -15.3187 N   0  0  0  0  0  0  0  0  0  0  0  0
   17.5167   -8.5586  -14.2763 C   0  0  1  0  0  0  0  0  0  0  0  0
   18.4776   -9.0836  -13.2675 C   0  0  0  0  0  0  0  0  0  0  0  0
   18.7397   -8.1635  -12.1596 C   0  0  0  0  0  0  0  0  0  0  0  0
   18.0542   -8.0737  -10.9690 C   0  0  0  0  0  0  0  0  0  0  0  0
   18.6176   -7.0960  -10.2263 N   0  0  0  0  0  0  0  0  0  0  0  0
   19.6443   -6.5457  -10.8883 C   0  0  0  0  0  0  0  0  0  0  0  0
   20.5072   -5.5300  -10.5392 C   0  0  0  0  0  0  0  0  0  0  0  0
   21.4849   -5.1845  -11.4620 C   0  0  0  0  0  0  0  0  0  0  0  0
   21.5733   -5.8498  -12.6857 C   0  0  0  0  0  0  0  0  0  0  0  0
   20.7025   -6.8624  -13.0175 C   0  0  0  0  0  0  0  0  0  0  0  0
   19.7294   -7.2116  -12.1079 C   0  0  0  0  0  0  0  0  0  0  0  0
   17.9709   -7.2852  -14.8929 C   0  0  0  0  0  0  0  0  0  0  0  0
   18.7909   -7.1762  -15.8277 O   0  0  0  0  0  0  0  0  0  0  0  0
   17.4141   -6.0709  -14.3636 N   0  0  0  0  0  0  0  0  0  0  0  0
   17.8432   -4.8171  -14.9315 C   0  0  0  0  0  0  0  0  0  0  0  0
   18.7544   -4.1482  -13.9984 C   0  0  0  0  0  0  0  0  0  0  0  0
   18.3260   -3.5802  -12.9584 O   0  0  0  0  0  0  0  0  0  0  0  0
   20.1076   -4.1282  -14.2440 O   0  0  0  0  0  0  0  0  0  0  0  0
  1  2  1  0
  2  4  1  0
  3  2  2  0
  4  5  1  0
  5  6  1  0
  6  8  1  0
  6  7  1  1
  8  9  2  0
 10  8  1  0
 11 10  1  0
 11 12  1  1
 13 12  1  0
 13 21  1  0
 14 15  1  0
 14 13  2  0
 15 16  1  0
 16 21  2  0
 16 17  1  0
 17 18  2  0
 18 19  1  0
 20 19  2  0
 21 20  1  0
 22 11  1  0
 23 22  2  0
 24 22  1  0
 25 24  1  0
 25 26  1  0
 26 28  1  0
 27 26  2  0
M  END
$$$$
