QWG.pdb
     RDKit          3D

 28 29  0  0  1  0  0  0  0  0999 V2000
   17.9433  -11.2618  -22.7243 N   0  0  0  0  0  0  0  0  0  0  0  0
   16.8673  -10.7369  -21.9376 C   0  0  0  0  0  0  0  0  0  0  0  0
   16.5182   -9.5382  -22.0670 O   0  0  0  0  0  0  0  0  0  0  0  0
   16.2222  -11.6666  -21.0052 C   0  0  0  0  0  0  0  0  0  0  0  0
   16.3339  -11.2047  -19.6066 C   0  0  0  0  0  0  0  0  0  0  0  0
   17.3426  -11.8406  -18.7298 C   0  0  2  0  0  0  0  0  0  0  0  0
   17.2652  -13.2298  -18.5045 N   0  0  0  0  0  0  0  0  0  0  0  0
   17.5203  -11.0081  -17.4861 C   0  0  0  0  0  0  0  0  0  0  0  0
   16.6379  -11.1899  -16.6129 O   0  0  0  0  0  0  0  0  0  0  0  0
   18.5490  -10.0959  -17.2618 N   0  0  0  0  0  0  0  0  0  0  0  0
   18.6746   -9.2685  -16.0805 C   0  0  1  0  0  0  0  0  0  0  0  0
   19.9249   -9.6210  -15.3532 C   0  0  0  0  0  0  0  0  0  0  0  0
   20.2264   -8.7385  -14.2250 C   0  0  0  0  0  0  0  0  0  0  0  0
   19.8116   -8.8806  -12.9199 C   0  0  0  0  0  0  0  0  0  0  0  0
   20.3098   -7.8512  -12.2006 N   0  0  0  0  0  0  0  0  0  0  0  0
   21.0334   -7.0442  -12.9882 C   0  0  0  0  0  0  0  0  0  0  0  0
   21.7242   -5.8857  -12.7073 C   0  0  0  0  0  0  0  0  0  0  0  0
   22.3865   -5.2720  -13.7617 C   0  0  0  0  0  0  0  0  0  0  0  0
   22.3422   -5.8210  -15.0440 C   0  0  0  0  0  0  0  0  0  0  0  0
   21.6469   -6.9793  -15.3061 C   0  0  0  0  0  0  0  0  0  0  0  0
   20.9869   -7.5948  -14.2659 C   0  0  0  0  0  0  0  0  0  0  0  0
   18.6287   -7.8390  -16.4832 C   0  0  0  0  0  0  0  0  0  0  0  0
   19.1859   -7.3422  -17.4837 O   0  0  0  0  0  0  0  0  0  0  0  0
   17.8739   -6.9502  -15.6436 N   0  0  0  0  0  0  0  0  0  0  0  0
   17.6721   -5.5942  -16.0897 C   0  0  0  0  0  0  0  0  0  0  0  0
   16.9140   -4.8570  -15.0747 C   0  0  0  0  0  0  0  0  0  0  0  0
   16.4535   -5.4342  -14.0537 O   0  0  0  0  0  0  0  0  0  0  0  0
   16.6892   -3.5078  -15.2203 O   0  0  0  0  0  0  0  0  0  0  0  0
  1  2  1  0
  2  4  1  0
  3  2  2  0
  4  5  1  0
  5  6  1  0
  6  8  1  0
  6  7  1  1
  8  9  2  0
 10  8  1  0
 11 10  1  0
 11 12  1  6
 13 12  1  0
 13 21  1  0
 14 15  1  0
 14 13  2  0
 15 16  1  0
 16 21  2  0
 16 17  1  0
 17 18  2  0
 18 19  1  0
 20 19  2  0
 21 20  1  0
 22 11  1  0
 23 22  2  0
 24 22  1  0
 25 24  1  0
 25 26  1  0
 26 28  1  0
 27 26  2  0
M  END
$$$$
