QWG.pdb
     RDKit          3D

 28 29  0  0  1  0  0  0  0  0999 V2000
   26.2278  -23.6178  -16.9279 N   0  0  0  0  0  0  0  0  0  0  0  0
   26.6397  -22.2728  -17.1990 C   0  0  0  0  0  0  0  0  0  0  0  0
   26.0732  -21.6099  -18.1020 O   0  0  0  0  0  0  0  0  0  0  0  0
   27.7294  -21.7416  -16.3742 C   0  0  0  0  0  0  0  0  0  0  0  0
   27.4791  -21.9535  -14.9340 C   0  0  0  0  0  0  0  0  0  0  0  0
   26.9758  -20.8182  -14.1287 C   0  0  2  0  0  0  0  0  0  0  0  0
   27.5989  -19.5614  -14.2657 N   0  0  0  0  0  0  0  0  0  0  0  0
   26.7675  -21.2681  -12.7054 C   0  0  0  0  0  0  0  0  0  0  0  0
   26.4474  -22.4755  -12.5874 O   0  0  0  0  0  0  0  0  0  0  0  0
   26.8992  -20.4656  -11.5744 N   0  0  0  0  0  0  0  0  0  0  0  0
   26.3993  -20.8057  -10.2590 C   0  0  1  0  0  0  0  0  0  0  0  0
   27.3632  -20.3440   -9.2226 C   0  0  0  0  0  0  0  0  0  0  0  0
   26.9161  -20.5763   -7.8482 C   0  0  0  0  0  0  0  0  0  0  0  0
   25.7796  -21.2380   -7.4405 C   0  0  0  0  0  0  0  0  0  0  0  0
   25.7428  -21.2282   -6.0901 N   0  0  0  0  0  0  0  0  0  0  0  0
   26.8124  -20.5850   -5.6030 C   0  0  0  0  0  0  0  0  0  0  0  0
   27.2006  -20.3254   -4.3068 C   0  0  0  0  0  0  0  0  0  0  0  0
   28.3842  -19.6220   -4.1291 C   0  0  0  0  0  0  0  0  0  0  0  0
   29.1343  -19.2047   -5.2295 C   0  0  0  0  0  0  0  0  0  0  0  0
   28.7310  -19.4732   -6.5175 C   0  0  0  0  0  0  0  0  0  0  0  0
   27.5580  -20.1704   -6.7031 C   0  0  0  0  0  0  0  0  0  0  0  0
   25.0462  -20.2161  -10.0876 C   0  0  0  0  0  0  0  0  0  0  0  0
   24.7597  -19.0041  -10.1735 O   0  0  0  0  0  0  0  0  0  0  0  0
   23.9722  -21.1252   -9.7969 N   0  0  0  0  0  0  0  0  0  0  0  0
   22.6489  -20.5837   -9.6117 C   0  0  0  0  0  0  0  0  0  0  0  0
   21.8592  -20.8058  -10.8265 C   0  0  0  0  0  0  0  0  0  0  0  0
   22.4105  -21.0915  -11.9229 O   0  0  0  0  0  0  0  0  0  0  0  0
   20.4879  -20.7051  -10.7909 O   0  0  0  0  0  0  0  0  0  0  0  0
  1  2  1  0
  2  4  1  0
  3  2  2  0
  4  5  1  0
  5  6  1  0
  6  8  1  0
  6  7  1  1
  8  9  2  0
 10  8  1  0
 11 10  1  0
 11 12  1  1
 13 12  1  0
 13 21  1  0
 14 15  1  0
 14 13  2  0
 15 16  1  0
 16 21  2  0
 16 17  1  0
 17 18  2  0
 18 19  1  0
 20 19  2  0
 21 20  1  0
 22 11  1  0
 23 22  2  0
 24 22  1  0
 25 24  1  0
 25 26  1  0
 26 28  1  0
 27 26  2  0
M  END
$$$$
