QWG.pdb
     RDKit          3D

 28 29  0  0  1  0  0  0  0  0999 V2000
   28.5553  -21.3683  -15.8678 N   0  0  0  0  0  0  0  0  0  0  0  0
   28.7756  -19.9530  -15.8897 C   0  0  0  0  0  0  0  0  0  0  0  0
   28.9897  -19.3652  -16.9780 O   0  0  0  0  0  0  0  0  0  0  0  0
   28.7317  -19.2622  -14.5972 C   0  0  0  0  0  0  0  0  0  0  0  0
   28.4287  -20.1916  -13.4898 C   0  0  0  0  0  0  0  0  0  0  0  0
   27.0114  -20.4806  -13.1763 C   0  0  2  0  0  0  0  0  0  0  0  0
   26.0217  -19.5820  -13.6232 N   0  0  0  0  0  0  0  0  0  0  0  0
   26.8914  -20.8836  -11.7290 C   0  0  0  0  0  0  0  0  0  0  0  0
   27.5306  -21.9203  -11.4273 O   0  0  0  0  0  0  0  0  0  0  0  0
   26.1506  -20.2115  -10.7594 N   0  0  0  0  0  0  0  0  0  0  0  0
   25.9813  -20.6596   -9.3933 C   0  0  1  0  0  0  0  0  0  0  0  0
   26.5655  -19.6562   -8.4615 C   0  0  0  0  0  0  0  0  0  0  0  0
   27.8557  -20.0511   -7.8940 C   0  0  0  0  0  0  0  0  0  0  0  0
   28.8881  -20.6966   -8.5368 C   0  0  0  0  0  0  0  0  0  0  0  0
   29.8952  -20.8730   -7.6538 N   0  0  0  0  0  0  0  0  0  0  0  0
   29.5576  -20.3666   -6.4601 C   0  0  0  0  0  0  0  0  0  0  0  0
   30.2501  -20.3131   -5.2703 C   0  0  0  0  0  0  0  0  0  0  0  0
   29.6135  -19.7109   -4.1937 C   0  0  0  0  0  0  0  0  0  0  0  0
   28.3268  -19.1882   -4.3313 C   0  0  0  0  0  0  0  0  0  0  0  0
   27.6500  -19.2506   -5.5279 C   0  0  0  0  0  0  0  0  0  0  0  0
   28.2741  -19.8464   -6.6012 C   0  0  0  0  0  0  0  0  0  0  0  0
   24.5381  -20.9061   -9.1396 C   0  0  0  0  0  0  0  0  0  0  0  0
   23.9715  -20.8573   -8.0284 O   0  0  0  0  0  0  0  0  0  0  0  0
   23.7232  -21.2295  -10.2780 N   0  0  0  0  0  0  0  0  0  0  0  0
   22.3233  -21.4989  -10.0628 C   0  0  0  0  0  0  0  0  0  0  0  0
   21.5213  -20.5167  -10.7980 C   0  0  0  0  0  0  0  0  0  0  0  0
   22.0572  -19.6887  -11.5821 O   0  0  0  0  0  0  0  0  0  0  0  0
   20.1550  -20.4809  -10.6434 O   0  0  0  0  0  0  0  0  0  0  0  0
  1  2  1  0
  2  4  1  0
  3  2  2  0
  4  5  1  0
  5  6  1  0
  6  8  1  0
  6  7  1  1
  8  9  2  0
 10  8  1  0
 11 10  1  0
 11 12  1  1
 13 12  1  0
 13 21  1  0
 14 15  1  0
 14 13  2  0
 15 16  1  0
 16 21  2  0
 16 17  1  0
 17 18  2  0
 18 19  1  0
 20 19  2  0
 21 20  1  0
 22 11  1  0
 23 22  2  0
 24 22  1  0
 25 24  1  0
 25 26  1  0
 26 28  1  0
 27 26  2  0
M  END
$$$$
