QWG.pdb
     RDKit          3D

 28 29  0  0  1  0  0  0  0  0999 V2000
   30.8030  -23.9201  -15.7274 N   0  0  0  0  0  0  0  0  0  0  0  0
   31.1538  -23.7823  -17.1095 C   0  0  0  0  0  0  0  0  0  0  0  0
   31.9254  -24.6120  -17.6497 O   0  0  0  0  0  0  0  0  0  0  0  0
   30.5661  -22.6455  -17.8252 C   0  0  0  0  0  0  0  0  0  0  0  0
   29.6616  -21.8619  -16.9593 C   0  0  0  0  0  0  0  0  0  0  0  0
   28.3288  -22.4202  -16.6390 C   0  0  2  0  0  0  0  0  0  0  0  0
   27.6363  -23.1355  -17.6366 N   0  0  0  0  0  0  0  0  0  0  0  0
   27.5082  -21.3773  -15.9246 C   0  0  0  0  0  0  0  0  0  0  0  0
   28.1736  -20.6181  -15.1796 O   0  0  0  0  0  0  0  0  0  0  0  0
   26.1287  -21.2168  -16.0342 N   0  0  0  0  0  0  0  0  0  0  0  0
   25.3666  -20.1687  -15.3889 C   0  0  1  0  0  0  0  0  0  0  0  0
   24.8171  -19.2435  -16.4177 C   0  0  0  0  0  0  0  0  0  0  0  0
   25.8293  -18.4151  -17.0748 C   0  0  0  0  0  0  0  0  0  0  0  0
   26.4110  -18.6263  -18.3047 C   0  0  0  0  0  0  0  0  0  0  0  0
   27.2930  -17.6292  -18.5352 N   0  0  0  0  0  0  0  0  0  0  0  0
   27.3075  -16.7766  -17.5017 C   0  0  0  0  0  0  0  0  0  0  0  0
   28.0353  -15.6269  -17.2862 C   0  0  0  0  0  0  0  0  0  0  0  0
   27.8183  -14.9547  -16.0911 C   0  0  0  0  0  0  0  0  0  0  0  0
   26.8977  -15.4395  -15.1608 C   0  0  0  0  0  0  0  0  0  0  0  0
   26.1794  -16.5900  -15.3932 C   0  0  0  0  0  0  0  0  0  0  0  0
   26.3885  -17.2632  -16.5762 C   0  0  0  0  0  0  0  0  0  0  0  0
   24.3080  -20.7865  -14.5488 C   0  0  0  0  0  0  0  0  0  0  0  0
   23.8821  -21.9555  -14.6507 O   0  0  0  0  0  0  0  0  0  0  0  0
   23.7236  -19.9619  -13.5276 N   0  0  0  0  0  0  0  0  0  0  0  0
   22.6957  -20.5323  -12.6928 C   0  0  0  0  0  0  0  0  0  0  0  0
   21.4286  -20.5536  -13.4294 C   0  0  0  0  0  0  0  0  0  0  0  0
   21.3700  -20.2154  -14.6417 O   0  0  0  0  0  0  0  0  0  0  0  0
   20.2687  -20.9473  -12.8036 O   0  0  0  0  0  0  0  0  0  0  0  0
  1  2  1  0
  2  4  1  0
  3  2  2  0
  4  5  1  0
  5  6  1  0
  6  8  1  0
  6  7  1  6
  8  9  2  0
 10  8  1  0
 11 10  1  0
 11 12  1  6
 13 12  1  0
 13 21  1  0
 14 15  1  0
 14 13  2  0
 15 16  1  0
 16 21  2  0
 16 17  1  0
 17 18  2  0
 18 19  1  0
 20 19  2  0
 21 20  1  0
 22 11  1  0
 23 22  2  0
 24 22  1  0
 25 24  1  0
 25 26  1  0
 26 28  1  0
 27 26  2  0
M  END
$$$$
