QWG.pdb
     RDKit          3D

 28 29  0  0  1  0  0  0  0  0999 V2000
   28.0509  -18.8119  -17.7946 N   0  0  0  0  0  0  0  0  0  0  0  0
   28.7483  -17.6071  -17.4565 C   0  0  0  0  0  0  0  0  0  0  0  0
   28.9078  -16.7082  -18.3181 O   0  0  0  0  0  0  0  0  0  0  0  0
   29.2427  -17.4995  -16.0804 C   0  0  0  0  0  0  0  0  0  0  0  0
   28.8405  -18.6613  -15.2618 C   0  0  0  0  0  0  0  0  0  0  0  0
   27.4369  -18.7500  -14.8005 C   0  0  2  0  0  0  0  0  0  0  0  0
   26.8692  -17.6414  -14.1408 N   0  0  0  0  0  0  0  0  0  0  0  0
   27.2189  -20.0735  -14.1134 C   0  0  0  0  0  0  0  0  0  0  0  0
   27.6714  -21.0614  -14.7407 O   0  0  0  0  0  0  0  0  0  0  0  0
   26.5769  -20.2557  -12.8906 N   0  0  0  0  0  0  0  0  0  0  0  0
   26.2007  -21.5406  -12.3399 C   0  0  1  0  0  0  0  0  0  0  0  0
   27.0186  -21.8250  -11.1289 C   0  0  0  0  0  0  0  0  0  0  0  0
   26.6566  -21.0175   -9.9629 C   0  0  0  0  0  0  0  0  0  0  0  0
   25.4367  -20.4385   -9.6946 C   0  0  0  0  0  0  0  0  0  0  0  0
   25.5272  -19.7809   -8.5180 N   0  0  0  0  0  0  0  0  0  0  0  0
   26.7603  -19.9099   -8.0099 C   0  0  0  0  0  0  0  0  0  0  0  0
   27.3168  -19.4219   -6.8479 C   0  0  0  0  0  0  0  0  0  0  0  0
   28.6460  -19.7372   -6.6013 C   0  0  0  0  0  0  0  0  0  0  0  0
   29.3703  -20.5165   -7.5045 C   0  0  0  0  0  0  0  0  0  0  0  0
   28.7978  -20.9955   -8.6606 C   0  0  0  0  0  0  0  0  0  0  0  0
   27.4796  -20.6875   -8.9132 C   0  0  0  0  0  0  0  0  0  0  0  0
   24.7415  -21.5389  -12.0594 C   0  0  0  0  0  0  0  0  0  0  0  0
   24.1090  -22.4376  -11.4673 O   0  0  0  0  0  0  0  0  0  0  0  0
   23.9932  -20.3987  -12.5113 N   0  0  0  0  0  0  0  0  0  0  0  0
   22.5686  -20.3840  -12.2903 C   0  0  0  0  0  0  0  0  0  0  0  0
   21.8844  -20.8406  -13.5035 C   0  0  0  0  0  0  0  0  0  0  0  0
   20.9126  -21.6404  -13.4457 O   0  0  0  0  0  0  0  0  0  0  0  0
   22.2956  -20.3995  -14.7398 O   0  0  0  0  0  0  0  0  0  0  0  0
  1  2  1  0
  2  4  1  0
  3  2  2  0
  4  5  1  0
  5  6  1  0
  6  8  1  0
  6  7  1  1
  8  9  2  0
 10  8  1  0
 11 10  1  0
 11 12  1  1
 13 12  1  0
 13 21  1  0
 14 15  1  0
 14 13  2  0
 15 16  1  0
 16 21  2  0
 16 17  1  0
 17 18  2  0
 18 19  1  0
 20 19  2  0
 21 20  1  0
 22 11  1  0
 23 22  2  0
 24 22  1  0
 25 24  1  0
 25 26  1  0
 26 28  1  0
 27 26  2  0
M  END
$$$$
