QWG.pdb
     RDKit          3D

 28 29  0  0  1  0  0  0  0  0999 V2000
   26.5314  -22.3908  -17.0779 N   0  0  0  0  0  0  0  0  0  0  0  0
   27.8667  -21.9723  -17.3847 C   0  0  0  0  0  0  0  0  0  0  0  0
   28.2229  -21.8272  -18.5796 O   0  0  0  0  0  0  0  0  0  0  0  0
   28.7565  -21.7305  -16.2448 C   0  0  0  0  0  0  0  0  0  0  0  0
   28.0731  -21.9679  -14.9569 C   0  0  0  0  0  0  0  0  0  0  0  0
   27.3813  -20.8343  -14.3034 C   0  0  2  0  0  0  0  0  0  0  0  0
   27.9355  -19.5437  -14.4207 N   0  0  0  0  0  0  0  0  0  0  0  0
   26.9891  -21.2282  -12.9025 C   0  0  0  0  0  0  0  0  0  0  0  0
   26.6019  -22.4164  -12.7898 O   0  0  0  0  0  0  0  0  0  0  0  0
   27.0261  -20.3957  -11.7863 N   0  0  0  0  0  0  0  0  0  0  0  0
   26.4806  -20.7320  -10.4881 C   0  0  1  0  0  0  0  0  0  0  0  0
   27.3753  -20.2100   -9.4188 C   0  0  0  0  0  0  0  0  0  0  0  0
   26.8674  -20.4206   -8.0622 C   0  0  0  0  0  0  0  0  0  0  0  0
   25.6149  -20.8618   -7.6988 C   0  0  0  0  0  0  0  0  0  0  0  0
   25.5576  -20.9165   -6.3502 N   0  0  0  0  0  0  0  0  0  0  0  0
   26.7257  -20.5275   -5.8216 C   0  0  0  0  0  0  0  0  0  0  0  0
   27.1357  -20.4201   -4.5107 C   0  0  0  0  0  0  0  0  0  0  0  0
   28.4327  -19.9786   -4.2870 C   0  0  0  0  0  0  0  0  0  0  0  0
   29.2698  -19.6623   -5.3580 C   0  0  0  0  0  0  0  0  0  0  0  0
   28.8431  -19.7757   -6.6614 C   0  0  0  0  0  0  0  0  0  0  0  0
   27.5578  -20.2129   -6.8924 C   0  0  0  0  0  0  0  0  0  0  0  0
   25.0975  -20.1976  -10.3906 C   0  0  0  0  0  0  0  0  0  0  0  0
   24.7685  -18.9970  -10.4840 O   0  0  0  0  0  0  0  0  0  0  0  0
   24.0455  -21.1509  -10.1691 N   0  0  0  0  0  0  0  0  0  0  0  0
   22.6967  -20.6611  -10.0301 C   0  0  0  0  0  0  0  0  0  0  0  0
   21.9885  -20.8210  -11.3035 C   0  0  0  0  0  0  0  0  0  0  0  0
   21.2872  -21.8409  -11.5393 O   0  0  0  0  0  0  0  0  0  0  0  0
   22.0781  -19.8504  -12.2739 O   0  0  0  0  0  0  0  0  0  0  0  0
  1  2  1  0
  2  4  1  0
  3  2  2  0
  4  5  1  0
  5  6  1  0
  6  8  1  0
  6  7  1  1
  8  9  2  0
 10  8  1  0
 11 10  1  0
 11 12  1  1
 13 12  1  0
 13 21  1  0
 14 15  1  0
 14 13  2  0
 15 16  1  0
 16 21  2  0
 16 17  1  0
 17 18  2  0
 18 19  1  0
 20 19  2  0
 21 20  1  0
 22 11  1  0
 23 22  2  0
 24 22  1  0
 25 24  1  0
 25 26  1  0
 26 28  1  0
 27 26  2  0
M  END
$$$$
