QWG.pdb
     RDKit          3D

 28 29  0  0  1  0  0  0  0  0999 V2000
   27.6403  -34.1512   -0.0965 N   0  0  0  0  0  0  0  0  0  0  0  0
   26.2621  -34.3710   -0.4194 C   0  0  0  0  0  0  0  0  0  0  0  0
   25.9468  -34.8850   -1.5204 O   0  0  0  0  0  0  0  0  0  0  0  0
   25.2793  -33.9705    0.5923 C   0  0  0  0  0  0  0  0  0  0  0  0
   25.9306  -33.4727    1.8211 C   0  0  0  0  0  0  0  0  0  0  0  0
   25.3032  -32.3465    2.5481 C   0  0  2  0  0  0  0  0  0  0  0  0
   24.6501  -31.3413    1.8068 N   0  0  0  0  0  0  0  0  0  0  0  0
   26.2551  -31.8379    3.6000 C   0  0  0  0  0  0  0  0  0  0  0  0
   26.8913  -30.8092    3.2663 O   0  0  0  0  0  0  0  0  0  0  0  0
   26.4615  -32.4125    4.8521 N   0  0  0  0  0  0  0  0  0  0  0  0
   26.5361  -31.6753    6.0958 C   0  0  1  0  0  0  0  0  0  0  0  0
   25.4702  -30.6364    6.1264 C   0  0  0  0  0  0  0  0  0  0  0  0
   25.9551  -29.2954    6.4568 C   0  0  0  0  0  0  0  0  0  0  0  0
   26.8969  -28.5570    5.7761 C   0  0  0  0  0  0  0  0  0  0  0  0
   27.0536  -27.3760    6.4132 N   0  0  0  0  0  0  0  0  0  0  0  0
   26.2494  -27.3176    7.4832 C   0  0  0  0  0  0  0  0  0  0  0  0
   26.0632  -26.3279    8.4234 C   0  0  0  0  0  0  0  0  0  0  0  0
   25.1392  -26.5758    9.4294 C   0  0  0  0  0  0  0  0  0  0  0  0
   24.4391  -27.7825    9.4688 C   0  0  0  0  0  0  0  0  0  0  0  0
   24.6381  -28.7600    8.5209 C   0  0  0  0  0  0  0  0  0  0  0  0
   25.5530  -28.5224    7.5193 C   0  0  0  0  0  0  0  0  0  0  0  0
   26.4403  -32.6293    7.2310 C   0  0  0  0  0  0  0  0  0  0  0  0
   25.3926  -32.9571    7.8251 O   0  0  0  0  0  0  0  0  0  0  0  0
   27.6659  -33.2273    7.6837 N   0  0  0  0  0  0  0  0  0  0  0  0
   27.6293  -34.0500    8.8671 C   0  0  0  0  0  0  0  0  0  0  0  0
   27.0805  -35.3659    8.5266 C   0  0  0  0  0  0  0  0  0  0  0  0
   26.6927  -35.6312    7.3575 O   0  0  0  0  0  0  0  0  0  0  0  0
   26.9781  -36.3448    9.4875 O   0  0  0  0  0  0  0  0  0  0  0  0
  1  2  1  0
  2  4  1  0
  3  2  2  0
  4  5  1  0
  5  6  1  0
  6  8  1  0
  6  7  1  6
  8  9  2  0
 10  8  1  0
 11 10  1  0
 11 12  1  1
 13 12  1  0
 13 21  1  0
 14 15  1  0
 14 13  2  0
 15 16  1  0
 16 21  2  0
 16 17  1  0
 17 18  2  0
 18 19  1  0
 20 19  2  0
 21 20  1  0
 22 11  1  0
 23 22  2  0
 24 22  1  0
 25 24  1  0
 25 26  1  0
 26 28  1  0
 27 26  2  0
M  END
$$$$
