QWG.pdb
     RDKit          3D

 28 29  0  0  1  0  0  0  0  0999 V2000
   25.9794  -17.9679  -13.5850 N   0  0  0  0  0  0  0  0  0  0  0  0
   26.0909  -18.8502  -14.7082 C   0  0  0  0  0  0  0  0  0  0  0  0
   26.5097  -18.4182  -15.8099 O   0  0  0  0  0  0  0  0  0  0  0  0
   25.6986  -20.2456  -14.4877 C   0  0  0  0  0  0  0  0  0  0  0  0
   25.4194  -20.5171  -13.0628 C   0  0  0  0  0  0  0  0  0  0  0  0
   26.5622  -20.6920  -12.1387 C   0  0  2  0  0  0  0  0  0  0  0  0
   27.7172  -21.3507  -12.6064 N   0  0  0  0  0  0  0  0  0  0  0  0
   26.0565  -21.1752  -10.8037 C   0  0  0  0  0  0  0  0  0  0  0  0
   26.2063  -22.4058  -10.6097 O   0  0  0  0  0  0  0  0  0  0  0  0
   25.4621  -20.3803   -9.8263 N   0  0  0  0  0  0  0  0  0  0  0  0
   24.8650  -20.8814   -8.6064 C   0  0  1  0  0  0  0  0  0  0  0  0
   25.2785  -20.0273   -7.4592 C   0  0  0  0  0  0  0  0  0  0  0  0
   26.7284  -19.9183   -7.2904 C   0  0  0  0  0  0  0  0  0  0  0  0
   27.6626  -19.6310   -8.2601 C   0  0  0  0  0  0  0  0  0  0  0  0
   28.8852  -19.6265   -7.6853 N   0  0  0  0  0  0  0  0  0  0  0  0
   28.7823  -19.9002   -6.3778 C   0  0  0  0  0  0  0  0  0  0  0  0
   29.7431  -20.0036   -5.3957 C   0  0  0  0  0  0  0  0  0  0  0  0
   29.3072  -20.3052   -4.1127 C   0  0  0  0  0  0  0  0  0  0  0  0
   27.9494  -20.4918   -3.8495 C   0  0  0  0  0  0  0  0  0  0  0  0
   27.0035  -20.3845   -4.8433 C   0  0  0  0  0  0  0  0  0  0  0  0
   27.4271  -20.0857   -6.1191 C   0  0  0  0  0  0  0  0  0  0  0  0
   23.3900  -20.9383   -8.7769 C   0  0  0  0  0  0  0  0  0  0  0  0
   22.7424  -20.4391   -9.7202 O   0  0  0  0  0  0  0  0  0  0  0  0
   22.6439  -21.6313   -7.7632 N   0  0  0  0  0  0  0  0  0  0  0  0
   21.8691  -22.7835   -8.1515 C   0  0  0  0  0  0  0  0  0  0  0  0
   20.7317  -22.3507   -8.9686 C   0  0  0  0  0  0  0  0  0  0  0  0
   20.7104  -22.5399  -10.2141 O   0  0  0  0  0  0  0  0  0  0  0  0
   19.6561  -21.7236   -8.3840 O   0  0  0  0  0  0  0  0  0  0  0  0
  1  2  1  0
  2  4  1  0
  3  2  2  0
  4  5  1  0
  5  6  1  0
  6  8  1  0
  6  7  1  6
  8  9  2  0
 10  8  1  0
 11 10  1  0
 11 12  1  1
 13 12  1  0
 13 21  1  0
 14 15  1  0
 14 13  2  0
 15 16  1  0
 16 21  2  0
 16 17  1  0
 17 18  2  0
 18 19  1  0
 20 19  2  0
 21 20  1  0
 22 11  1  0
 23 22  2  0
 24 22  1  0
 25 24  1  0
 25 26  1  0
 26 28  1  0
 27 26  2  0
M  END
$$$$
