QWG.pdb
     RDKit          3D

 28 29  0  0  1  0  0  0  0  0999 V2000
   19.6625  -12.4225  -18.6479 N   0  0  0  0  0  0  0  0  0  0  0  0
   20.1229  -13.3775  -19.6113 C   0  0  0  0  0  0  0  0  0  0  0  0
   19.3432  -13.8052  -20.4972 O   0  0  0  0  0  0  0  0  0  0  0  0
   21.5213  -13.8033  -19.4964 C   0  0  0  0  0  0  0  0  0  0  0  0
   22.1923  -13.1726  -18.3415 C   0  0  0  0  0  0  0  0  0  0  0  0
   23.2890  -12.2123  -18.5981 C   0  0  2  0  0  0  0  0  0  0  0  0
   24.3178  -12.5806  -19.4883 N   0  0  0  0  0  0  0  0  0  0  0  0
   23.7630  -11.6332  -17.2899 C   0  0  0  0  0  0  0  0  0  0  0  0
   24.0072  -12.4887  -16.4051 O   0  0  0  0  0  0  0  0  0  0  0  0
   23.9342  -10.2776  -17.0184 N   0  0  0  0  0  0  0  0  0  0  0  0
   24.4575   -9.7445  -15.7783 C   0  0  1  0  0  0  0  0  0  0  0  0
   25.7001   -8.9711  -16.0510 C   0  0  0  0  0  0  0  0  0  0  0  0
   26.8021   -9.7800  -16.5743 C   0  0  0  0  0  0  0  0  0  0  0  0
   27.5937   -9.5053  -17.6668 C   0  0  0  0  0  0  0  0  0  0  0  0
   28.4900  -10.5066  -17.8054 N   0  0  0  0  0  0  0  0  0  0  0  0
   28.3118  -11.4230  -16.8443 C   0  0  0  0  0  0  0  0  0  0  0  0
   28.9758  -12.6013  -16.5820 C   0  0  0  0  0  0  0  0  0  0  0  0
   28.5434  -13.3424  -15.4907 C   0  0  0  0  0  0  0  0  0  0  0  0
   27.4796  -12.8956  -14.7055 C   0  0  0  0  0  0  0  0  0  0  0  0
   26.8279  -11.7157  -14.9826 C   0  0  0  0  0  0  0  0  0  0  0  0
   27.2504  -10.9742  -16.0634 C   0  0  0  0  0  0  0  0  0  0  0  0
   23.4055   -8.9270  -15.1203 C   0  0  0  0  0  0  0  0  0  0  0  0
   23.5347   -8.2866  -14.0566 O   0  0  0  0  0  0  0  0  0  0  0  0
   22.1248   -8.8699  -15.7691 N   0  0  0  0  0  0  0  0  0  0  0  0
   21.0453   -8.1939  -15.0937 C   0  0  0  0  0  0  0  0  0  0  0  0
   20.8007   -6.9020  -15.7416 C   0  0  0  0  0  0  0  0  0  0  0  0
   21.4671   -6.5368  -16.7466 O   0  0  0  0  0  0  0  0  0  0  0  0
   19.8291   -6.0565  -15.2588 O   0  0  0  0  0  0  0  0  0  0  0  0
  1  2  1  0
  2  4  1  0
  3  2  2  0
  4  5  1  0
  5  6  1  0
  6  8  1  0
  6  7  1  1
  8  9  2  0
 10  8  1  0
 11 10  1  0
 11 12  1  6
 13 12  1  0
 13 21  1  0
 14 15  1  0
 14 13  2  0
 15 16  1  0
 16 21  2  0
 16 17  1  0
 17 18  2  0
 18 19  1  0
 20 19  2  0
 21 20  1  0
 22 11  1  0
 23 22  2  0
 24 22  1  0
 25 24  1  0
 25 26  1  0
 26 28  1  0
 27 26  2  0
M  END
$$$$
