QWG.pdb
     RDKit          3D

 28 29  0  0  1  0  0  0  0  0999 V2000
   29.4099  -22.4913  -14.8632 N   0  0  0  0  0  0  0  0  0  0  0  0
   29.0466  -21.9184  -16.1250 C   0  0  0  0  0  0  0  0  0  0  0  0
   29.9211  -21.3837  -16.8496 O   0  0  0  0  0  0  0  0  0  0  0  0
   27.6315  -22.0005  -16.4996 C   0  0  0  0  0  0  0  0  0  0  0  0
   26.7719  -22.2844  -15.3324 C   0  0  0  0  0  0  0  0  0  0  0  0
   25.9540  -21.1856  -14.7719 C   0  0  2  0  0  0  0  0  0  0  0  0
   26.2942  -19.8560  -15.0928 N   0  0  0  0  0  0  0  0  0  0  0  0
   25.7122  -21.4395  -13.3061 C   0  0  0  0  0  0  0  0  0  0  0  0
   25.6360  -22.6535  -12.9983 O   0  0  0  0  0  0  0  0  0  0  0  0
   25.5731  -20.4593  -12.3261 N   0  0  0  0  0  0  0  0  0  0  0  0
   25.0128  -20.6826  -11.0100 C   0  0  1  0  0  0  0  0  0  0  0  0
   25.7526  -19.8688  -10.0065 C   0  0  0  0  0  0  0  0  0  0  0  0
   27.0660  -20.4097   -9.6528 C   0  0  0  0  0  0  0  0  0  0  0  0
   27.8618  -21.2351  -10.4150 C   0  0  0  0  0  0  0  0  0  0  0  0
   28.9892  -21.5002   -9.7195 N   0  0  0  0  0  0  0  0  0  0  0  0
   28.9576  -20.8784   -8.5331 C   0  0  0  0  0  0  0  0  0  0  0  0
   29.8683  -20.8523   -7.4996 C   0  0  0  0  0  0  0  0  0  0  0  0
   29.5357  -20.1000   -6.3813 C   0  0  0  0  0  0  0  0  0  0  0  0
   28.3255  -19.4071   -6.3260 C   0  0  0  0  0  0  0  0  0  0  0  0
   27.4277  -19.4446   -7.3682 C   0  0  0  0  0  0  0  0  0  0  0  0
   27.7496  -20.1885   -8.4815 C   0  0  0  0  0  0  0  0  0  0  0  0
   23.5602  -20.3715  -11.0426 C   0  0  0  0  0  0  0  0  0  0  0  0
   23.0433  -19.3388  -11.5167 O   0  0  0  0  0  0  0  0  0  0  0  0
   22.6723  -21.3495  -10.4771 N   0  0  0  0  0  0  0  0  0  0  0  0
   21.2695  -21.0292  -10.3877 C   0  0  0  0  0  0  0  0  0  0  0  0
   20.5863  -21.4998  -11.5962 C   0  0  0  0  0  0  0  0  0  0  0  0
   19.8085  -22.4905  -11.5651 O   0  0  0  0  0  0  0  0  0  0  0  0
   20.7842  -20.8614  -12.7984 O   0  0  0  0  0  0  0  0  0  0  0  0
  1  2  1  0
  2  4  1  0
  3  2  2  0
  4  5  1  0
  5  6  1  0
  6  8  1  0
  6  7  1  1
  8  9  2  0
 10  8  1  0
 11 10  1  0
 11 12  1  1
 13 12  1  0
 13 21  1  0
 14 15  1  0
 14 13  2  0
 15 16  1  0
 16 21  2  0
 16 17  1  0
 17 18  2  0
 18 19  1  0
 20 19  2  0
 21 20  1  0
 22 11  1  0
 23 22  2  0
 24 22  1  0
 25 24  1  0
 25 26  1  0
 26 28  1  0
 27 26  2  0
M  END
$$$$
