TNY.pdb
     RDKit          3D

 28 28  0  0  1  0  0  0  0  0999 V2000
   16.7042  -12.2307  -15.4388 C   0  0  0  0  0  0  0  0  0  0  0  0
   17.1336  -10.8996  -14.8596 C   0  0  1  0  0  0  0  0  0  0  0  0
   17.7086  -10.1721  -15.9011 O   0  0  0  0  0  0  0  0  0  0  0  0
   15.9438  -10.1644  -14.2864 C   0  0  2  0  0  0  0  0  0  0  0  0
   14.9301  -10.0639  -15.2883 N   0  0  0  0  0  0  0  0  0  0  0  0
   16.3047   -8.8774  -13.6816 C   0  0  0  0  0  0  0  0  0  0  0  0
   16.0327   -7.8183  -14.2999 O   0  0  0  0  0  0  0  0  0  0  0  0
   17.1472   -5.0139   -9.6611 N   0  0  0  0  0  0  0  0  0  0  0  0
   17.9451   -6.1602   -9.8480 C   0  0  0  0  0  0  0  0  0  0  0  0
   19.1531   -6.1239   -9.5554 O   0  0  0  0  0  0  0  0  0  0  0  0
   17.3382   -7.3883  -10.3880 C   0  0  0  0  0  0  0  0  0  0  0  0
   17.3830   -7.4901  -11.8744 C   0  0  2  0  0  0  0  0  0  0  0  0
   16.9525   -8.7238  -12.4237 N   0  0  0  0  0  0  0  0  0  0  0  0
   18.7435   -7.0721  -12.3257 C   0  0  0  0  0  0  0  0  0  0  0  0
   19.6154   -7.9744  -12.4113 O   0  0  0  0  0  0  0  0  0  0  0  0
   24.9332   -4.7934  -17.7003 O   0  0  0  0  0  0  0  0  0  0  0  0
   23.7992   -5.1430  -16.9611 C   0  0  0  0  0  0  0  0  0  0  0  0
   22.5626   -4.6583  -17.3421 C   0  0  0  0  0  0  0  0  0  0  0  0
   21.4624   -5.0110  -16.6064 C   0  0  0  0  0  0  0  0  0  0  0  0
   21.4997   -5.8293  -15.4926 C   0  0  0  0  0  0  0  0  0  0  0  0
   20.3231   -6.2032  -14.6934 C   0  0  0  0  0  0  0  0  0  0  0  0
   20.3148   -5.4733  -13.3965 C   0  0  2  0  0  0  0  0  0  0  0  0
   19.0750   -5.7472  -12.6486 N   0  0  0  0  0  0  0  0  0  0  0  0
   20.3904   -4.0167  -13.5796 C   0  0  0  0  0  0  0  0  0  0  0  0
   19.3517   -3.3188  -13.6698 O   0  0  0  0  0  0  0  0  0  0  0  0
   22.7688   -6.2962  -15.1438 C   0  0  0  0  0  0  0  0  0  0  0  0
   23.8917   -5.9575  -15.8659 C   0  0  0  0  0  0  0  0  0  0  0  0
   21.6354   -3.3635  -13.6590 O   0  0  0  0  0  0  0  0  0  0  0  0
  2  1  1  6
  2  4  1  0
  3  2  1  0
  4  5  1  6
  4  6  1  0
  6  7  2  0
  9  8  1  0
 10  9  2  0
 12 11  1  1
 11  9  1  0
 13  6  1  0
 13 12  1  0
 14 12  1  0
 14 15  2  0
 16 17  1  0
 17 27  2  0
 17 18  1  0
 18 19  2  0
 19 20  1  0
 20 21  1  0
 22 21  1  6
 22 23  1  0
 23 14  1  0
 24 22  1  0
 25 24  2  0
 26 20  2  0
 27 26  1  0
 28 24  1  0
M  END
$$$$
