TNY.pdb
     RDKit          3D

 28 28  0  0  1  0  0  0  0  0999 V2000
   31.2261  -28.3678  -18.0690 C   0  0  0  0  0  0  0  0  0  0  0  0
   31.5995  -27.3278  -19.1037 C   0  0  1  0  0  0  0  0  0  0  0  0
   31.1235  -26.1034  -18.6363 O   0  0  0  0  0  0  0  0  0  0  0  0
   33.0988  -27.2832  -19.2908 C   0  0  2  0  0  0  0  0  0  0  0  0
   33.4254  -26.2237  -20.1923 N   0  0  0  0  0  0  0  0  0  0  0  0
   33.6653  -28.5805  -19.6758 C   0  0  0  0  0  0  0  0  0  0  0  0
   34.2177  -28.6930  -20.7983 O   0  0  0  0  0  0  0  0  0  0  0  0
   35.6165  -33.2721  -20.0105 N   0  0  0  0  0  0  0  0  0  0  0  0
   36.4079  -32.1216  -19.8224 C   0  0  0  0  0  0  0  0  0  0  0  0
   37.6283  -32.1688  -20.0562 O   0  0  0  0  0  0  0  0  0  0  0  0
   35.7798  -30.8761  -19.3510 C   0  0  0  0  0  0  0  0  0  0  0  0
   34.3030  -30.9661  -19.1704 C   0  0  2  0  0  0  0  0  0  0  0  0
   33.6412  -29.7504  -18.8655 N   0  0  0  0  0  0  0  0  0  0  0  0
   34.0221  -32.0646  -18.1988 C   0  0  0  0  0  0  0  0  0  0  0  0
   34.6043  -32.0007  -17.0858 O   0  0  0  0  0  0  0  0  0  0  0  0
   26.2137  -32.5924  -14.9761 O   0  0  0  0  0  0  0  0  0  0  0  0
   27.4214  -32.4419  -15.6641 C   0  0  0  0  0  0  0  0  0  0  0  0
   27.4044  -32.2166  -17.0272 C   0  0  0  0  0  0  0  0  0  0  0  0
   28.5970  -32.0715  -17.6852 C   0  0  0  0  0  0  0  0  0  0  0  0
   29.8360  -32.1355  -17.0750 C   0  0  0  0  0  0  0  0  0  0  0  0
   31.1196  -31.9902  -17.7780 C   0  0  0  0  0  0  0  0  0  0  0  0
   31.8963  -33.2584  -17.7221 C   0  0  2  0  0  0  0  0  0  0  0  0
   33.1571  -33.1349  -18.4746 N   0  0  0  0  0  0  0  0  0  0  0  0
   31.1582  -34.3869  -18.3073 C   0  0  0  0  0  0  0  0  0  0  0  0
   31.0213  -34.4990  -19.5495 O   0  0  0  0  0  0  0  0  0  0  0  0
   29.8061  -32.3644  -15.6978 C   0  0  0  0  0  0  0  0  0  0  0  0
   28.6215  -32.5138  -15.0113 C   0  0  0  0  0  0  0  0  0  0  0  0
   30.5830  -35.3760  -17.4863 O   0  0  0  0  0  0  0  0  0  0  0  0
  2  1  1  1
  2  4  1  0
  3  2  1  0
  4  5  1  6
  4  6  1  0
  6  7  2  0
  9  8  1  0
 10  9  2  0
 12 11  1  1
 11  9  1  0
 13  6  1  0
 13 12  1  0
 14 12  1  0
 14 15  2  0
 16 17  1  0
 17 27  2  0
 17 18  1  0
 18 19  2  0
 19 20  1  0
 20 21  1  0
 22 21  1  6
 22 23  1  0
 23 14  1  0
 24 22  1  0
 25 24  2  0
 26 20  2  0
 27 26  1  0
 28 24  1  0
M  END
$$$$
