TNY.pdb
     RDKit          3D

 28 28  0  0  1  0  0  0  0  0999 V2000
   16.2654  -10.2819  -15.2123 C   0  0  0  0  0  0  0  0  0  0  0  0
   17.0824   -9.0965  -15.6804 C   0  0  1  0  0  0  0  0  0  0  0  0
   17.4592   -8.3893  -14.5393 O   0  0  0  0  0  0  0  0  0  0  0  0
   18.2988   -9.5629  -16.4471 C   0  0  2  0  0  0  0  0  0  0  0  0
   18.9866  -10.5497  -15.6759 N   0  0  0  0  0  0  0  0  0  0  0  0
   19.1554   -8.4562  -16.8874 C   0  0  0  0  0  0  0  0  0  0  0  0
   20.3992   -8.6280  -16.9228 O   0  0  0  0  0  0  0  0  0  0  0  0
   19.5668   -3.3503  -20.2800 N   0  0  0  0  0  0  0  0  0  0  0  0
   20.0139   -4.4437  -19.5117 C   0  0  0  0  0  0  0  0  0  0  0  0
   21.2317   -4.6022  -19.3167 O   0  0  0  0  0  0  0  0  0  0  0  0
   19.0328   -5.3862  -18.9484 C   0  0  0  0  0  0  0  0  0  0  0  0
   19.5057   -6.1077  -17.7330 C   0  0  2  0  0  0  0  0  0  0  0  0
   18.6849   -7.1739  -17.2873 N   0  0  0  0  0  0  0  0  0  0  0  0
   19.8000   -5.0929  -16.6780 C   0  0  0  0  0  0  0  0  0  0  0  0
   18.8141   -4.6070  -16.0667 O   0  0  0  0  0  0  0  0  0  0  0  0
   19.7941   -8.9017  -11.7676 O   0  0  0  0  0  0  0  0  0  0  0  0
   20.3879   -7.7878  -12.3688 C   0  0  0  0  0  0  0  0  0  0  0  0
   21.3680   -7.9724  -13.3250 C   0  0  0  0  0  0  0  0  0  0  0  0
   21.9388   -6.8699  -13.9036 C   0  0  0  0  0  0  0  0  0  0  0  0
   21.6006   -5.5652  -13.5952 C   0  0  0  0  0  0  0  0  0  0  0  0
   22.2171   -4.3779  -14.2060 C   0  0  0  0  0  0  0  0  0  0  0  0
   21.3024   -3.7676  -15.2090 C   0  0  2  0  0  0  0  0  0  0  0  0
   21.0994   -4.6735  -16.3532 N   0  0  0  0  0  0  0  0  0  0  0  0
   21.8338   -2.5083  -15.7499 C   0  0  0  0  0  0  0  0  0  0  0  0
   22.0921   -1.5368  -14.9991 O   0  0  0  0  0  0  0  0  0  0  0  0
   20.6064   -5.4254  -12.6245 C   0  0  0  0  0  0  0  0  0  0  0  0
   20.0155   -6.5166  -12.0269 C   0  0  0  0  0  0  0  0  0  0  0  0
   22.0679   -2.3582  -17.1304 O   0  0  0  0  0  0  0  0  0  0  0  0
  2  1  1  1
  2  4  1  0
  3  2  1  0
  4  5  1  1
  4  6  1  0
  6  7  2  0
  9  8  1  0
 10  9  2  0
 12 11  1  6
 11  9  1  0
 13  6  1  0
 13 12  1  0
 14 12  1  0
 14 15  2  0
 16 17  1  0
 17 27  2  0
 17 18  1  0
 18 19  2  0
 19 20  1  0
 20 21  1  0
 22 21  1  1
 22 23  1  0
 23 14  1  0
 24 22  1  0
 25 24  2  0
 26 20  2  0
 27 26  1  0
 28 24  1  0
M  END
$$$$
