TNY.pdb
     RDKit          3D

 28 28  0  0  1  0  0  0  0  0999 V2000
   27.1473  -17.6152  -20.2114 C   0  0  0  0  0  0  0  0  0  0  0  0
   26.2423  -16.4059  -20.3130 C   0  0  1  0  0  0  0  0  0  0  0  0
   26.1799  -16.0599  -21.6623 O   0  0  0  0  0  0  0  0  0  0  0  0
   24.8657  -16.7298  -19.7792 C   0  0  2  0  0  0  0  0  0  0  0  0
   23.9826  -15.6469  -20.0778 N   0  0  0  0  0  0  0  0  0  0  0  0
   24.8771  -17.1077  -18.3617 C   0  0  0  0  0  0  0  0  0  0  0  0
   25.7335  -16.5905  -17.6022 O   0  0  0  0  0  0  0  0  0  0  0  0
   22.2890  -16.9345  -14.9027 N   0  0  0  0  0  0  0  0  0  0  0  0
   21.9212  -18.2746  -15.1356 C   0  0  0  0  0  0  0  0  0  0  0  0
   20.8371  -18.7002  -14.6999 O   0  0  0  0  0  0  0  0  0  0  0  0
   22.8258  -19.1558  -15.8927 C   0  0  0  0  0  0  0  0  0  0  0  0
   24.0452  -18.4767  -16.4156 C   0  0  2  0  0  0  0  0  0  0  0  0
   23.9783  -18.0328  -17.7601 N   0  0  0  0  0  0  0  0  0  0  0  0
   25.2208  -19.3513  -16.1282 C   0  0  0  0  0  0  0  0  0  0  0  0
   25.5502  -20.1717  -17.0227 O   0  0  0  0  0  0  0  0  0  0  0  0
   24.4200  -20.6401   -8.9895 O   0  0  0  0  0  0  0  0  0  0  0  0
   25.2588  -20.4513  -10.0919 C   0  0  0  0  0  0  0  0  0  0  0  0
   25.1290  -19.3087  -10.8579 C   0  0  0  0  0  0  0  0  0  0  0  0
   25.9591  -19.1401  -11.9343 C   0  0  0  0  0  0  0  0  0  0  0  0
   26.9326  -20.0446  -12.3163 C   0  0  0  0  0  0  0  0  0  0  0  0
   27.8200  -19.8733  -13.4766 C   0  0  0  0  0  0  0  0  0  0  0  0
   27.1012  -20.1929  -14.7399 C   0  0  2  0  0  0  0  0  0  0  0  0
   25.9503  -19.2928  -14.9306 N   0  0  0  0  0  0  0  0  0  0  0  0
   26.5758  -21.5657  -14.7469 C   0  0  0  0  0  0  0  0  0  0  0  0
   25.3659  -21.7991  -14.5104 O   0  0  0  0  0  0  0  0  0  0  0  0
   27.0289  -21.1839  -11.5146 C   0  0  0  0  0  0  0  0  0  0  0  0
   26.2072  -21.3787  -10.4266 C   0  0  0  0  0  0  0  0  0  0  0  0
   27.4196  -22.6596  -15.0202 O   0  0  0  0  0  0  0  0  0  0  0  0
  2  1  1  6
  2  4  1  0
  3  2  1  0
  4  5  1  1
  4  6  1  0
  6  7  2  0
  9  8  1  0
 10  9  2  0
 12 11  1  6
 11  9  1  0
 13  6  1  0
 13 12  1  0
 14 12  1  0
 14 15  2  0
 16 17  1  0
 17 27  2  0
 17 18  1  0
 18 19  2  0
 19 20  1  0
 20 21  1  0
 22 21  1  1
 22 23  1  0
 23 14  1  0
 24 22  1  0
 25 24  2  0
 26 20  2  0
 27 26  1  0
 28 24  1  0
M  END
$$$$
