TNY.pdb
     RDKit          3D

 28 28  0  0  1  0  0  0  0  0999 V2000
   18.5667  -11.9720  -16.3352 C   0  0  0  0  0  0  0  0  0  0  0  0
   19.4880  -13.0487  -16.8679 C   0  0  1  0  0  0  0  0  0  0  0  0
   18.7100  -14.1909  -17.0538 O   0  0  0  0  0  0  0  0  0  0  0  0
   20.1149  -12.6100  -18.1715 C   0  0  2  0  0  0  0  0  0  0  0  0
   20.8494  -13.7025  -18.7271 N   0  0  0  0  0  0  0  0  0  0  0  0
   20.8997  -11.3773  -18.0416 C   0  0  0  0  0  0  0  0  0  0  0  0
   21.9731  -11.2702  -18.6851 O   0  0  0  0  0  0  0  0  0  0  0  0
   23.3582   -6.9598  -18.7223 N   0  0  0  0  0  0  0  0  0  0  0  0
   21.9620   -7.0324  -18.5462 C   0  0  0  0  0  0  0  0  0  0  0  0
   21.3088   -5.9894  -18.3684 O   0  0  0  0  0  0  0  0  0  0  0  0
   21.2927   -8.3437  -18.5749 C   0  0  0  0  0  0  0  0  0  0  0  0
   21.1826   -9.0034  -17.2429 C   0  0  2  0  0  0  0  0  0  0  0  0
   20.5388  -10.2661  -17.2288 N   0  0  0  0  0  0  0  0  0  0  0  0
   20.5969   -8.0182  -16.2860 C   0  0  0  0  0  0  0  0  0  0  0  0
   19.3656   -7.7856  -16.3933 O   0  0  0  0  0  0  0  0  0  0  0  0
   18.7354   -4.0318   -8.7492 O   0  0  0  0  0  0  0  0  0  0  0  0
   19.4346   -4.6103   -9.8127 C   0  0  0  0  0  0  0  0  0  0  0  0
   19.9529   -3.8018  -10.8061 C   0  0  0  0  0  0  0  0  0  0  0  0
   20.6351   -4.3855  -11.8405 C   0  0  0  0  0  0  0  0  0  0  0  0
   20.8459   -5.7463  -11.9651 C   0  0  0  0  0  0  0  0  0  0  0  0
   21.5690   -6.3791  -13.0784 C   0  0  0  0  0  0  0  0  0  0  0  0
   20.6524   -6.6362  -14.2223 C   0  0  2  0  0  0  0  0  0  0  0  0
   21.3488   -7.3614  -15.2996 N   0  0  0  0  0  0  0  0  0  0  0  0
   20.1360   -5.3915  -14.8095 C   0  0  0  0  0  0  0  0  0  0  0  0
   18.9370   -5.0525  -14.6618 O   0  0  0  0  0  0  0  0  0  0  0  0
   20.3054   -6.5250  -10.9396 C   0  0  0  0  0  0  0  0  0  0  0  0
   19.6152   -5.9643   -9.8878 C   0  0  0  0  0  0  0  0  0  0  0  0
   20.9763   -4.5433  -15.5562 O   0  0  0  0  0  0  0  0  0  0  0  0
  2  1  1  6
  2  4  1  0
  3  2  1  0
  4  5  1  1
  4  6  1  0
  6  7  2  0
  9  8  1  0
 10  9  2  0
 12 11  1  6
 11  9  1  0
 13  6  1  0
 13 12  1  0
 14 12  1  0
 14 15  2  0
 16 17  1  0
 17 27  2  0
 17 18  1  0
 18 19  2  0
 19 20  1  0
 20 21  1  0
 22 21  1  1
 22 23  1  0
 23 14  1  0
 24 22  1  0
 25 24  2  0
 26 20  2  0
 27 26  1  0
 28 24  1  0
M  END
$$$$
