TNY.pdb
     RDKit          3D

 28 28  0  0  1  0  0  0  0  0999 V2000
   25.2773  -20.8739  -28.4395 C   0  0  0  0  0  0  0  0  0  0  0  0
   26.5327  -20.1695  -28.9078 C   0  0  1  0  0  0  0  0  0  0  0  0
   26.6707  -20.4498  -30.2668 O   0  0  0  0  0  0  0  0  0  0  0  0
   26.4199  -18.6798  -28.6773 C   0  0  2  0  0  0  0  0  0  0  0  0
   27.3119  -18.0015  -29.5638 N   0  0  0  0  0  0  0  0  0  0  0  0
   26.5901  -18.3052  -27.2691 C   0  0  0  0  0  0  0  0  0  0  0  0
   25.6077  -18.4011  -26.4923 O   0  0  0  0  0  0  0  0  0  0  0  0
   28.2615  -16.6357  -22.6943 N   0  0  0  0  0  0  0  0  0  0  0  0
   29.2757  -17.4431  -23.2466 C   0  0  0  0  0  0  0  0  0  0  0  0
   30.2308  -17.8034  -22.5366 O   0  0  0  0  0  0  0  0  0  0  0  0
   29.1923  -17.8506  -24.6590 C   0  0  0  0  0  0  0  0  0  0  0  0
   27.9547  -17.3966  -25.3546 C   0  0  2  0  0  0  0  0  0  0  0  0
   27.8031  -17.8311  -26.6952 N   0  0  0  0  0  0  0  0  0  0  0  0
   27.8453  -15.9172  -25.1851 C   0  0  0  0  0  0  0  0  0  0  0  0
   28.8083  -15.2250  -25.6037 O   0  0  0  0  0  0  0  0  0  0  0  0
   20.9713  -15.9797  -22.7623 O   0  0  0  0  0  0  0  0  0  0  0  0
   22.0558  -15.3303  -23.3596 C   0  0  0  0  0  0  0  0  0  0  0  0
   22.5873  -15.8318  -24.5322 C   0  0  0  0  0  0  0  0  0  0  0  0
   23.6496  -15.1830  -25.1036 C   0  0  0  0  0  0  0  0  0  0  0  0
   24.2384  -14.0450  -24.5840 C   0  0  0  0  0  0  0  0  0  0  0  0
   25.3851  -13.3500  -25.1880 C   0  0  0  0  0  0  0  0  0  0  0  0
   26.6618  -13.8176  -24.5827 C   0  0  2  0  0  0  0  0  0  0  0  0
   26.7388  -15.2891  -24.5927 N   0  0  0  0  0  0  0  0  0  0  0  0
   26.8002  -13.3920  -23.1826 C   0  0  0  0  0  0  0  0  0  0  0  0
   26.9316  -14.2309  -22.2588 O   0  0  0  0  0  0  0  0  0  0  0  0
   23.6697  -13.5731  -23.3991 C   0  0  0  0  0  0  0  0  0  0  0  0
   22.6012  -14.2058  -22.8033 C   0  0  0  0  0  0  0  0  0  0  0  0
   26.7890  -12.0263  -22.8394 O   0  0  0  0  0  0  0  0  0  0  0  0
  2  1  1  6
  2  4  1  0
  3  2  1  0
  4  5  1  6
  4  6  1  0
  6  7  2  0
  9  8  1  0
 10  9  2  0
 12 11  1  6
 11  9  1  0
 13  6  1  0
 13 12  1  0
 14 12  1  0
 14 15  2  0
 16 17  1  0
 17 27  2  0
 17 18  1  0
 18 19  2  0
 19 20  1  0
 20 21  1  0
 22 21  1  1
 22 23  1  0
 23 14  1  0
 24 22  1  0
 25 24  2  0
 26 20  2  0
 27 26  1  0
 28 24  1  0
M  END
$$$$
