TNY.pdb
     RDKit          3D

 28 28  0  0  1  0  0  0  0  0999 V2000
   26.0012  -32.6574  -10.8114 C   0  0  0  0  0  0  0  0  0  0  0  0
   25.0034  -32.2287   -9.7568 C   0  0  1  0  0  0  0  0  0  0  0  0
   23.9066  -31.6938  -10.4316 O   0  0  0  0  0  0  0  0  0  0  0  0
   24.5874  -33.4107   -8.9115 C   0  0  2  0  0  0  0  0  0  0  0  0
   24.0024  -34.4049   -9.7548 N   0  0  0  0  0  0  0  0  0  0  0  0
   23.7420  -33.0305   -7.7744 C   0  0  0  0  0  0  0  0  0  0  0  0
   24.2070  -32.2512   -6.9059 O   0  0  0  0  0  0  0  0  0  0  0  0
   19.6538  -31.2959   -7.4530 N   0  0  0  0  0  0  0  0  0  0  0  0
   19.4395  -32.6886   -7.4593 C   0  0  0  0  0  0  0  0  0  0  0  0
   18.6283  -33.1831   -8.2616 O   0  0  0  0  0  0  0  0  0  0  0  0
   20.1795  -33.5424   -6.5151 C   0  0  0  0  0  0  0  0  0  0  0  0
   21.6315  -33.2224   -6.4098 C   0  0  2  0  0  0  0  0  0  0  0  0
   22.4078  -33.4806   -7.5673 N   0  0  0  0  0  0  0  0  0  0  0  0
   22.1596  -33.8718   -5.1734 C   0  0  0  0  0  0  0  0  0  0  0  0
   22.3015  -35.1211   -5.2045 O   0  0  0  0  0  0  0  0  0  0  0  0
   28.2674  -35.2170   -6.1466 O   0  0  0  0  0  0  0  0  0  0  0  0
   27.3058  -34.7691   -5.2360 C   0  0  0  0  0  0  0  0  0  0  0  0
   26.7374  -35.6650   -4.3509 C   0  0  0  0  0  0  0  0  0  0  0  0
   25.7969  -35.2089   -3.4657 C   0  0  0  0  0  0  0  0  0  0  0  0
   25.3680  -33.8965   -3.3925 C   0  0  0  0  0  0  0  0  0  0  0  0
   24.3517  -33.4033   -2.4508 C   0  0  0  0  0  0  0  0  0  0  0  0
   22.9987  -33.8894   -2.8352 C   0  0  2  0  0  0  0  0  0  0  0  0
   22.4937  -33.1594   -4.0113 N   0  0  0  0  0  0  0  0  0  0  0  0
   22.0150  -33.6994   -1.7595 C   0  0  0  0  0  0  0  0  0  0  0  0
   20.9483  -33.0697   -1.9589 O   0  0  0  0  0  0  0  0  0  0  0  0
   25.9685  -33.0261   -4.3045 C   0  0  0  0  0  0  0  0  0  0  0  0
   26.9168  -33.4579   -5.2052 C   0  0  0  0  0  0  0  0  0  0  0  0
   22.2446  -34.2211   -0.4717 O   0  0  0  0  0  0  0  0  0  0  0  0
  2  1  1  6
  2  4  1  0
  3  2  1  0
  4  5  1  6
  4  6  1  0
  6  7  2  0
  9  8  1  0
 10  9  2  0
 12 11  1  6
 11  9  1  0
 13  6  1  0
 13 12  1  0
 14 12  1  0
 14 15  2  0
 16 17  1  0
 17 27  2  0
 17 18  1  0
 18 19  2  0
 19 20  1  0
 20 21  1  0
 22 21  1  1
 22 23  1  0
 23 14  1  0
 24 22  1  0
 25 24  2  0
 26 20  2  0
 27 26  1  0
 28 24  1  0
M  END
$$$$
