TNY.pdb
     RDKit          3D

 28 28  0  0  1  0  0  0  0  0999 V2000
   20.7678  -12.9089    5.7148 C   0  0  0  0  0  0  0  0  0  0  0  0
   19.8085  -11.9610    6.4026 C   0  0  1  0  0  0  0  0  0  0  0  0
   19.8623  -10.7548    5.7052 O   0  0  0  0  0  0  0  0  0  0  0  0
   18.4065  -12.5256    6.3882 C   0  0  2  0  0  0  0  0  0  0  0  0
   17.5134  -11.5724    6.9673 N   0  0  0  0  0  0  0  0  0  0  0  0
   18.3211  -13.8583    6.9956 C   0  0  0  0  0  0  0  0  0  0  0  0
   18.3520  -13.9584    8.2473 O   0  0  0  0  0  0  0  0  0  0  0  0
   18.2425  -18.9121    7.9810 N   0  0  0  0  0  0  0  0  0  0  0  0
   17.5859  -18.7636    6.7431 C   0  0  0  0  0  0  0  0  0  0  0  0
   16.9945  -19.7346    6.2396 O   0  0  0  0  0  0  0  0  0  0  0  0
   17.6079  -17.4594    6.0602 C   0  0  0  0  0  0  0  0  0  0  0  0
   18.2706  -16.3734    6.8369 C   0  0  2  0  0  0  0  0  0  0  0  0
   18.2034  -15.0765    6.2690 N   0  0  0  0  0  0  0  0  0  0  0  0
   19.6588  -16.8177    7.1609 C   0  0  0  0  0  0  0  0  0  0  0  0
   20.5489  -16.5658    6.3088 O   0  0  0  0  0  0  0  0  0  0  0  0
   27.0738  -15.7373   11.0959 O   0  0  0  0  0  0  0  0  0  0  0  0
   25.7791  -15.7959   10.5717 C   0  0  0  0  0  0  0  0  0  0  0  0
   24.7676  -15.0728   11.1744 C   0  0  0  0  0  0  0  0  0  0  0  0
   23.5052  -15.1419   10.6474 C   0  0  0  0  0  0  0  0  0  0  0  0
   23.1640  -15.8946    9.5390 C   0  0  0  0  0  0  0  0  0  0  0  0
   21.8085  -15.9801    8.9749 C   0  0  0  0  0  0  0  0  0  0  0  0
   21.3753  -17.3992    8.8600 C   0  0  2  0  0  0  0  0  0  0  0  0
   19.9966  -17.4868    8.3474 N   0  0  0  0  0  0  0  0  0  0  0  0
   21.3938  -18.0913   10.1568 C   0  0  0  0  0  0  0  0  0  0  0  0
   20.4244  -18.0114   10.9493 O   0  0  0  0  0  0  0  0  0  0  0  0
   24.2162  -16.6086    8.9620 C   0  0  0  0  0  0  0  0  0  0  0  0
   25.4950  -16.5572    9.4711 C   0  0  0  0  0  0  0  0  0  0  0  0
   22.5042  -18.8653   10.5454 O   0  0  0  0  0  0  0  0  0  0  0  0
  2  1  1  6
  2  4  1  0
  3  2  1  0
  4  5  1  1
  4  6  1  0
  6  7  2  0
  9  8  1  0
 10  9  2  0
 12 11  1  6
 11  9  1  0
 13  6  1  0
 13 12  1  0
 14 12  1  0
 14 15  2  0
 16 17  1  0
 17 27  2  0
 17 18  1  0
 18 19  2  0
 19 20  1  0
 20 21  1  0
 22 21  1  1
 22 23  1  0
 23 14  1  0
 24 22  1  0
 25 24  2  0
 26 20  2  0
 27 26  1  0
 28 24  1  0
M  END
$$$$
