TNY.pdb
     RDKit          3D

 28 28  0  0  1  0  0  0  0  0999 V2000
   20.6863  -11.5574    5.5983 C   0  0  0  0  0  0  0  0  0  0  0  0
   21.8683  -11.3499    6.5211 C   0  0  1  0  0  0  0  0  0  0  0  0
   22.7792  -10.5458    5.8369 O   0  0  0  0  0  0  0  0  0  0  0  0
   21.4262  -10.6851    7.8047 C   0  0  2  0  0  0  0  0  0  0  0  0
   22.5781  -10.3799    8.5931 N   0  0  0  0  0  0  0  0  0  0  0  0
   20.4059  -11.4551    8.5247 C   0  0  0  0  0  0  0  0  0  0  0  0
   20.7608  -12.1879    9.4811 O   0  0  0  0  0  0  0  0  0  0  0  0
   17.4627  -10.0704   10.5439 N   0  0  0  0  0  0  0  0  0  0  0  0
   16.4279  -10.5128    9.6959 C   0  0  0  0  0  0  0  0  0  0  0  0
   15.3447   -9.9026    9.6764 O   0  0  0  0  0  0  0  0  0  0  0  0
   16.6420  -11.6933    8.8424 C   0  0  0  0  0  0  0  0  0  0  0  0
   18.0328  -12.2284    8.8761 C   0  0  2  0  0  0  0  0  0  0  0  0
   19.0149  -11.4415    8.2239 N   0  0  0  0  0  0  0  0  0  0  0  0
   17.9935  -13.6475    8.4134 C   0  0  0  0  0  0  0  0  0  0  0  0
   18.1551  -13.8480    7.1824 O   0  0  0  0  0  0  0  0  0  0  0  0
   20.0714  -21.7338    6.6626 O   0  0  0  0  0  0  0  0  0  0  0  0
   19.8792  -20.4022    7.0425 C   0  0  0  0  0  0  0  0  0  0  0  0
   19.0538  -19.5914    6.2872 C   0  0  0  0  0  0  0  0  0  0  0  0
   18.8770  -18.2895    6.6740 C   0  0  0  0  0  0  0  0  0  0  0  0
   19.4740  -17.7183    7.7826 C   0  0  0  0  0  0  0  0  0  0  0  0
   19.2955  -16.3186    8.1970 C   0  0  0  0  0  0  0  0  0  0  0  0
   17.9346  -16.1066    8.7609 C   0  0  2  0  0  0  0  0  0  0  0  0
   17.7889  -14.7343    9.2775 N   0  0  0  0  0  0  0  0  0  0  0  0
   17.6501  -17.0168    9.8796 C   0  0  0  0  0  0  0  0  0  0  0  0
   17.9518  -16.7108   11.0585 O   0  0  0  0  0  0  0  0  0  0  0  0
   20.2992  -18.5732    8.5165 C   0  0  0  0  0  0  0  0  0  0  0  0
   20.4945  -19.8864    8.1502 C   0  0  0  0  0  0  0  0  0  0  0  0
   17.0290  -18.2609    9.6572 O   0  0  0  0  0  0  0  0  0  0  0  0
  2  1  1  6
  2  4  1  0
  3  2  1  0
  4  5  1  1
  4  6  1  0
  6  7  2  0
  9  8  1  0
 10  9  2  0
 12 11  1  6
 11  9  1  0
 13  6  1  0
 13 12  1  0
 14 12  1  0
 14 15  2  0
 16 17  1  0
 17 27  2  0
 17 18  1  0
 18 19  2  0
 19 20  1  0
 20 21  1  0
 22 21  1  1
 22 23  1  0
 23 14  1  0
 24 22  1  0
 25 24  2  0
 26 20  2  0
 27 26  1  0
 28 24  1  0
M  END
$$$$
