TNY.pdb
     RDKit          3D

 28 28  0  0  1  0  0  0  0  0999 V2000
   23.8680  -13.6561  -18.5702 C   0  0  0  0  0  0  0  0  0  0  0  0
   24.9065  -12.9548  -19.4194 C   0  0  1  0  0  0  0  0  0  0  0  0
   25.1967  -13.8039  -20.4866 O   0  0  0  0  0  0  0  0  0  0  0  0
   24.3747  -11.6307  -19.9182 C   0  0  2  0  0  0  0  0  0  0  0  0
   25.0593  -11.2759  -21.1211 N   0  0  0  0  0  0  0  0  0  0  0  0
   24.4017  -10.5816  -18.8930 C   0  0  0  0  0  0  0  0  0  0  0  0
   24.2353  -10.9034  -17.6903 O   0  0  0  0  0  0  0  0  0  0  0  0
   27.2029   -8.0501  -18.6470 N   0  0  0  0  0  0  0  0  0  0  0  0
   26.4902   -6.8398  -18.7609 C   0  0  0  0  0  0  0  0  0  0  0  0
   27.1015   -5.7866  -19.0124 O   0  0  0  0  0  0  0  0  0  0  0  0
   25.0288   -6.8369  -18.5807 C   0  0  0  0  0  0  0  0  0  0  0  0
   24.4571   -8.1593  -18.1984 C   0  0  2  0  0  0  0  0  0  0  0  0
   24.6052   -9.1970  -19.1524 N   0  0  0  0  0  0  0  0  0  0  0  0
   23.0469   -7.9433  -17.7577 C   0  0  0  0  0  0  0  0  0  0  0  0
   22.1422   -8.2783  -18.5647 O   0  0  0  0  0  0  0  0  0  0  0  0
   15.6359   -9.3952  -13.8977 O   0  0  0  0  0  0  0  0  0  0  0  0
   16.9380   -9.2897  -14.3957 C   0  0  0  0  0  0  0  0  0  0  0  0
   18.0073   -9.5889  -13.5734 C   0  0  0  0  0  0  0  0  0  0  0  0
   19.2760   -9.4801  -14.0778 C   0  0  0  0  0  0  0  0  0  0  0  0
   19.5692   -9.0861  -15.3703 C   0  0  0  0  0  0  0  0  0  0  0  0
   20.9297   -8.9582  -15.9142 C   0  0  0  0  0  0  0  0  0  0  0  0
   21.3213   -7.5264  -16.0198 C   0  0  2  0  0  0  0  0  0  0  0  0
   22.7041   -7.3958  -16.5117 N   0  0  0  0  0  0  0  0  0  0  0  0
   21.2626   -6.8383  -14.7222 C   0  0  0  0  0  0  0  0  0  0  0  0
   22.2787   -6.7402  -13.9927 O   0  0  0  0  0  0  0  0  0  0  0  0
   18.4594   -8.7939  -16.1659 C   0  0  0  0  0  0  0  0  0  0  0  0
   17.1730   -8.8950  -15.6843 C   0  0  0  0  0  0  0  0  0  0  0  0
   20.0598   -6.2688  -14.2615 O   0  0  0  0  0  0  0  0  0  0  0  0
  2  1  1  1
  2  4  1  0
  3  2  1  0
  4  5  1  6
  4  6  1  0
  6  7  2  0
  9  8  1  0
 10  9  2  0
 12 11  1  6
 11  9  1  0
 13  6  1  0
 13 12  1  0
 14 12  1  0
 14 15  2  0
 16 17  1  0
 17 27  2  0
 17 18  1  0
 18 19  2  0
 19 20  1  0
 20 21  1  0
 22 21  1  1
 22 23  1  0
 23 14  1  0
 24 22  1  0
 25 24  2  0
 26 20  2  0
 27 26  1  0
 28 24  1  0
M  END
$$$$
