VFR.pdb
     RDKit          3D

 30 30  0  0  1  0  0  0  0  0999 V2000
   25.3677  -19.0263  -18.6757 C   0  0  0  0  0  0  0  0  0  0  0  0
   26.5743  -19.7462  -19.2044 C   0  0  1  0  0  0  0  0  0  0  0  0
   27.0967  -19.2501  -20.5020 C   0  0  0  0  0  0  0  0  0  0  0  0
   27.6074  -19.7905  -18.1041 C   0  0  2  0  0  0  0  0  0  0  0  0
   28.6478  -20.7131  -18.6059 N   0  0  0  0  0  0  0  0  0  0  0  0
   27.1236  -20.3456  -16.8359 C   0  0  0  0  0  0  0  0  0  0  0  0
   26.7057  -21.5548  -16.7606 O   0  0  0  0  0  0  0  0  0  0  0  0
   27.0736  -19.6220  -15.6090 N   0  0  0  0  0  0  0  0  0  0  0  0
   26.4900  -20.1883  -14.3954 C   0  0  1  0  0  0  0  0  0  0  0  0
   27.1305  -19.6025  -13.1641 C   0  0  0  0  0  0  0  0  0  0  0  0
   26.5508  -20.0913  -11.9142 C   0  0  0  0  0  0  0  0  0  0  0  0
   25.6097  -19.3566  -11.2360 C   0  0  0  0  0  0  0  0  0  0  0  0
   25.0725  -19.8458  -10.0442 C   0  0  0  0  0  0  0  0  0  0  0  0
   25.4680  -21.0595   -9.5279 C   0  0  0  0  0  0  0  0  0  0  0  0
   26.4074  -21.8069  -10.1928 C   0  0  0  0  0  0  0  0  0  0  0  0
   26.9236  -21.3065  -11.3648 C   0  0  0  0  0  0  0  0  0  0  0  0
   25.0436  -20.0245  -14.3900 C   0  0  0  0  0  0  0  0  0  0  0  0
   24.4681  -18.9071  -14.6331 O   0  0  0  0  0  0  0  0  0  0  0  0
   18.6409  -25.7456  -16.0824 N   0  0  0  0  0  0  0  0  0  0  0  0
   17.9542  -24.5190  -15.8041 C   0  0  0  0  0  0  0  0  0  0  0  0
   16.6911  -24.4317  -16.0103 N   0  0  0  0  0  0  0  0  0  0  0  0
   18.6831  -23.4178  -15.3051 N   0  0  0  0  0  0  0  0  0  0  0  0
   20.1149  -23.5074  -15.1507 C   0  0  0  0  0  0  0  0  0  0  0  0
   20.6218  -22.1770  -14.6497 C   0  0  0  0  0  0  0  0  0  0  0  0
   22.1077  -22.1774  -14.6288 C   0  0  0  0  0  0  0  0  0  0  0  0
   22.7050  -20.8979  -14.0685 C   0  0  2  0  0  0  0  0  0  0  0  0
   24.1643  -21.1148  -14.1137 N   0  0  0  0  0  0  0  0  0  0  0  0
   22.3301  -20.7141  -12.6571 C   0  0  0  0  0  0  0  0  0  0  0  0
   22.8651  -21.3573  -11.7215 O   0  0  0  0  0  0  0  0  0  0  0  0
   21.3542  -19.8052  -12.2995 O   0  0  0  0  0  0  0  0  0  0  0  0
  2  1  1  1
  3  2  1  0
  4  2  1  0
  4  5  1  6
  6  4  1  0
  7  6  2  0
  8  6  1  0
  9  8  1  0
 10 11  1  0
  9 10  1  1
 11 12  2  0
 12 13  1  0
 14 13  2  0
 15 14  1  0
 16 11  1  0
 16 15  2  0
 17  9  1  0
 17 27  1  0
 18 17  2  0
 19 20  1  0
 20 22  1  0
 21 20  2  0
 22 23  1  0
 23 24  1  0
 24 25  1  0
 26 25  1  1
 26 27  1  0
 26 28  1  0
 28 30  1  0
 29 28  2  0
M  END
$$$$
