VFR.pdb
     RDKit          3D

 30 30  0  0  1  0  0  0  0  0999 V2000
   24.1932  -21.0324  -17.1485 C   0  0  0  0  0  0  0  0  0  0  0  0
   24.9636  -22.2510  -17.5669 C   0  0  1  0  0  0  0  0  0  0  0  0
   25.2670  -22.3485  -19.0165 C   0  0  0  0  0  0  0  0  0  0  0  0
   26.1788  -22.3599  -16.6774 C   0  0  2  0  0  0  0  0  0  0  0  0
   26.7084  -23.7162  -16.9333 N   0  0  0  0  0  0  0  0  0  0  0  0
   25.8921  -22.2801  -15.2415 C   0  0  0  0  0  0  0  0  0  0  0  0
   25.1873  -23.1772  -14.6576 O   0  0  0  0  0  0  0  0  0  0  0  0
   26.3526  -21.2366  -14.3868 N   0  0  0  0  0  0  0  0  0  0  0  0
   26.0594  -21.2171  -12.9558 C   0  0  1  0  0  0  0  0  0  0  0  0
   27.0401  -20.3453  -12.2156 C   0  0  0  0  0  0  0  0  0  0  0  0
   26.8460  -20.3465  -10.7666 C   0  0  0  0  0  0  0  0  0  0  0  0
   27.4236  -21.3096   -9.9764 C   0  0  0  0  0  0  0  0  0  0  0  0
   27.2218  -21.2885   -8.5954 C   0  0  0  0  0  0  0  0  0  0  0  0
   26.4498  -20.3152   -8.0014 C   0  0  0  0  0  0  0  0  0  0  0  0
   25.8653  -19.3450   -8.7761 C   0  0  0  0  0  0  0  0  0  0  0  0
   26.0769  -19.3843  -10.1341 C   0  0  0  0  0  0  0  0  0  0  0  0
   24.6809  -20.8168  -12.7141 C   0  0  0  0  0  0  0  0  0  0  0  0
   24.1363  -19.8114  -13.2899 O   0  0  0  0  0  0  0  0  0  0  0  0
   18.9489  -24.0891   -7.3911 N   0  0  0  0  0  0  0  0  0  0  0  0
   18.2506  -24.2246   -8.6352 C   0  0  0  0  0  0  0  0  0  0  0  0
   17.1875  -24.9399   -8.6977 N   0  0  0  0  0  0  0  0  0  0  0  0
   18.7469  -23.5655   -9.7808 N   0  0  0  0  0  0  0  0  0  0  0  0
   19.8798  -22.6786   -9.6718 C   0  0  0  0  0  0  0  0  0  0  0  0
   20.2381  -22.1952  -11.0559 C   0  0  0  0  0  0  0  0  0  0  0  0
   21.6894  -22.3986  -11.3025 C   0  0  0  0  0  0  0  0  0  0  0  0
   22.4356  -21.1130  -11.6161 C   0  0  2  0  0  0  0  0  0  0  0  0
   23.8374  -21.5319  -11.8111 N   0  0  0  0  0  0  0  0  0  0  0  0
   22.4062  -20.1922  -10.4681 C   0  0  0  0  0  0  0  0  0  0  0  0
   23.2037  -20.2820   -9.5031 O   0  0  0  0  0  0  0  0  0  0  0  0
   21.4802  -19.1699  -10.4079 O   0  0  0  0  0  0  0  0  0  0  0  0
  2  1  1  6
  3  2  1  0
  4  2  1  0
  4  5  1  1
  6  4  1  0
  7  6  2  0
  8  6  1  0
  9  8  1  0
 10 11  1  0
  9 10  1  1
 11 12  2  0
 12 13  1  0
 14 13  2  0
 15 14  1  0
 16 11  1  0
 16 15  2  0
 17  9  1  0
 17 27  1  0
 18 17  2  0
 19 20  1  0
 20 22  1  0
 21 20  2  0
 22 23  1  0
 23 24  1  0
 24 25  1  0
 26 25  1  1
 26 27  1  0
 26 28  1  0
 28 30  1  0
 29 28  2  0
M  END
$$$$
