VFR.pdb
     RDKit          3D

 30 30  0  0  1  0  0  0  0  0999 V2000
   26.0739  -17.3377  -17.8321 C   0  0  0  0  0  0  0  0  0  0  0  0
   26.6477  -18.3645  -18.7649 C   0  0  1  0  0  0  0  0  0  0  0  0
   27.2918  -17.8265  -19.9891 C   0  0  0  0  0  0  0  0  0  0  0  0
   27.5352  -19.2809  -17.9573 C   0  0  2  0  0  0  0  0  0  0  0  0
   27.8103  -20.4218  -18.8563 N   0  0  0  0  0  0  0  0  0  0  0  0
   26.9065  -19.8319  -16.7524 C   0  0  0  0  0  0  0  0  0  0  0  0
   25.9557  -20.6870  -16.8354 O   0  0  0  0  0  0  0  0  0  0  0  0
   27.2783  -19.4838  -15.4212 N   0  0  0  0  0  0  0  0  0  0  0  0
   26.5674  -20.0014  -14.2547 C   0  0  1  0  0  0  0  0  0  0  0  0
   27.3820  -19.8180  -13.0008 C   0  0  0  0  0  0  0  0  0  0  0  0
   26.7015  -20.2729  -11.7894 C   0  0  0  0  0  0  0  0  0  0  0  0
   26.5040  -21.6102  -11.5488 C   0  0  0  0  0  0  0  0  0  0  0  0
   25.8506  -22.0180  -10.3847 C   0  0  0  0  0  0  0  0  0  0  0  0
   25.3952  -21.1017   -9.4633 C   0  0  0  0  0  0  0  0  0  0  0  0
   25.5842  -19.7612   -9.6877 C   0  0  0  0  0  0  0  0  0  0  0  0
   26.2301  -19.3812  -10.8406 C   0  0  0  0  0  0  0  0  0  0  0  0
   25.2471  -19.3988  -14.1422 C   0  0  0  0  0  0  0  0  0  0  0  0
   25.0668  -18.1662  -13.8473 O   0  0  0  0  0  0  0  0  0  0  0  0
   17.3217  -17.9209  -15.9703 N   0  0  0  0  0  0  0  0  0  0  0  0
   17.6368  -19.2415  -16.4288 C   0  0  0  0  0  0  0  0  0  0  0  0
   16.9573  -19.7673  -17.3814 N   0  0  0  0  0  0  0  0  0  0  0  0
   18.6964  -19.9490  -15.8206 N   0  0  0  0  0  0  0  0  0  0  0  0
   19.4455  -19.3465  -14.7446 C   0  0  0  0  0  0  0  0  0  0  0  0
   20.7736  -18.8841  -15.2927 C   0  0  0  0  0  0  0  0  0  0  0  0
   21.8038  -19.9324  -15.0728 C   0  0  0  0  0  0  0  0  0  0  0  0
   22.7493  -19.6198  -13.9255 C   0  0  2  0  0  0  0  0  0  0  0  0
   24.0549  -20.1533  -14.3605 N   0  0  0  0  0  0  0  0  0  0  0  0
   22.3594  -20.3476  -12.7069 C   0  0  0  0  0  0  0  0  0  0  0  0
   21.6294  -19.8450  -11.8182 O   0  0  0  0  0  0  0  0  0  0  0  0
   22.7904  -21.6412  -12.4901 O   0  0  0  0  0  0  0  0  0  0  0  0
  2  1  1  1
  3  2  1  0
  4  2  1  0
  4  5  1  6
  6  4  1  0
  7  6  2  0
  8  6  1  0
  9  8  1  0
 10 11  1  0
  9 10  1  1
 11 12  2  0
 12 13  1  0
 14 13  2  0
 15 14  1  0
 16 11  1  0
 16 15  2  0
 17  9  1  0
 17 27  1  0
 18 17  2  0
 19 20  1  0
 20 22  1  0
 21 20  2  0
 22 23  1  0
 23 24  1  0
 24 25  1  0
 26 25  1  6
 26 27  1  0
 26 28  1  0
 28 30  1  0
 29 28  2  0
M  END
$$$$
