VFR.pdb
     RDKit          3D

 30 30  0  0  1  0  0  0  0  0999 V2000
   24.7618  -18.2794  -18.5559 C   0  0  0  0  0  0  0  0  0  0  0  0
   26.1145  -18.5372  -19.1537 C   0  0  1  0  0  0  0  0  0  0  0  0
   26.4489  -17.7266  -20.3512 C   0  0  0  0  0  0  0  0  0  0  0  0
   27.1366  -18.4454  -18.0461 C   0  0  2  0  0  0  0  0  0  0  0  0
   28.3930  -18.9295  -18.6565 N   0  0  0  0  0  0  0  0  0  0  0  0
   26.8646  -19.3092  -16.8927 C   0  0  0  0  0  0  0  0  0  0  0  0
   26.9105  -20.5856  -16.9978 O   0  0  0  0  0  0  0  0  0  0  0  0
   26.5359  -18.8315  -15.5908 N   0  0  0  0  0  0  0  0  0  0  0  0
   26.2673  -19.7359  -14.4754 C   0  0  1  0  0  0  0  0  0  0  0  0
   26.5184  -19.0546  -13.1554 C   0  0  0  0  0  0  0  0  0  0  0  0
   26.1780  -19.8794  -11.9973 C   0  0  0  0  0  0  0  0  0  0  0  0
   26.9722  -20.9350  -11.6227 C   0  0  0  0  0  0  0  0  0  0  0  0
   26.6241  -21.7074  -10.5133 C   0  0  0  0  0  0  0  0  0  0  0  0
   25.4921  -21.4328   -9.7790 C   0  0  0  0  0  0  0  0  0  0  0  0
   24.6870  -20.3815  -10.1393 C   0  0  0  0  0  0  0  0  0  0  0  0
   25.0483  -19.6337  -11.2351 C   0  0  0  0  0  0  0  0  0  0  0  0
   24.9204  -20.2809  -14.5621 C   0  0  0  0  0  0  0  0  0  0  0  0
   23.8750  -19.5459  -14.6379 O   0  0  0  0  0  0  0  0  0  0  0  0
   18.0242  -20.4944  -12.3913 N   0  0  0  0  0  0  0  0  0  0  0  0
   18.3549  -21.5452  -11.4747 C   0  0  0  0  0  0  0  0  0  0  0  0
   17.4207  -22.2036  -10.8921 N   0  0  0  0  0  0  0  0  0  0  0  0
   19.7123  -21.8411  -11.2243 N   0  0  0  0  0  0  0  0  0  0  0  0
   20.7511  -21.0640  -11.8560 C   0  0  0  0  0  0  0  0  0  0  0  0
   21.2749  -21.8441  -13.0371 C   0  0  0  0  0  0  0  0  0  0  0  0
   22.7056  -21.5141  -13.2666 C   0  0  0  0  0  0  0  0  0  0  0  0
   23.2971  -22.2029  -14.4846 C   0  0  2  0  0  0  0  0  0  0  0  0
   24.6775  -21.6878  -14.5723 N   0  0  0  0  0  0  0  0  0  0  0  0
   22.5960  -21.7966  -15.7133 C   0  0  0  0  0  0  0  0  0  0  0  0
   21.4674  -22.2437  -16.0325 O   0  0  0  0  0  0  0  0  0  0  0  0
   23.1649  -20.8861  -16.5814 O   0  0  0  0  0  0  0  0  0  0  0  0
  2  1  1  1
  3  2  1  0
  4  2  1  0
  4  5  1  6
  6  4  1  0
  7  6  2  0
  8  6  1  0
  9  8  1  0
 10 11  1  0
  9 10  1  1
 11 12  2  0
 12 13  1  0
 14 13  2  0
 15 14  1  0
 16 11  1  0
 16 15  2  0
 17  9  1  0
 17 27  1  0
 18 17  2  0
 19 20  1  0
 20 22  1  0
 21 20  2  0
 22 23  1  0
 23 24  1  0
 24 25  1  0
 26 25  1  1
 26 27  1  0
 26 28  1  0
 28 30  1  0
 29 28  2  0
M  END
$$$$
