VFR.pdb
     RDKit          3D

 30 30  0  0  1  0  0  0  0  0999 V2000
   21.8091  -20.0225  -13.8774 C   0  0  0  0  0  0  0  0  0  0  0  0
   21.8430  -21.3410  -13.1605 C   0  0  1  0  0  0  0  0  0  0  0  0
   22.4613  -22.4614  -13.9124 C   0  0  0  0  0  0  0  0  0  0  0  0
   22.4464  -21.1118  -11.7955 C   0  0  2  0  0  0  0  0  0  0  0  0
   21.6283  -20.0329  -11.2021 N   0  0  0  0  0  0  0  0  0  0  0  0
   23.8321  -20.6323  -11.8145 C   0  0  0  0  0  0  0  0  0  0  0  0
   24.1006  -19.3956  -12.0164 O   0  0  0  0  0  0  0  0  0  0  0  0
   24.9729  -21.4636  -11.6167 N   0  0  0  0  0  0  0  0  0  0  0  0
   26.3364  -20.9627  -11.7718 C   0  0  1  0  0  0  0  0  0  0  0  0
   27.2701  -21.6270  -10.7938 C   0  0  0  0  0  0  0  0  0  0  0  0
   27.1925  -21.0738   -9.4428 C   0  0  0  0  0  0  0  0  0  0  0  0
   25.9988  -20.6337   -8.9262 C   0  0  0  0  0  0  0  0  0  0  0  0
   25.9521  -20.1090   -7.6336 C   0  0  0  0  0  0  0  0  0  0  0  0
   27.0859  -20.0215   -6.8571 C   0  0  0  0  0  0  0  0  0  0  0  0
   28.2872  -20.4567   -7.3576 C   0  0  0  0  0  0  0  0  0  0  0  0
   28.3109  -20.9701   -8.6330 C   0  0  0  0  0  0  0  0  0  0  0  0
   26.7899  -21.1097  -13.1472 C   0  0  0  0  0  0  0  0  0  0  0  0
   26.5209  -22.1361  -13.8634 O   0  0  0  0  0  0  0  0  0  0  0  0
   24.6345  -16.5555  -18.7737 N   0  0  0  0  0  0  0  0  0  0  0  0
   23.6865  -17.6193  -18.9261 C   0  0  0  0  0  0  0  0  0  0  0  0
   23.0153  -17.7275  -20.0140 N   0  0  0  0  0  0  0  0  0  0  0  0
   23.5034  -18.5374  -17.8694 N   0  0  0  0  0  0  0  0  0  0  0  0
   24.0909  -18.2800  -16.5769 C   0  0  0  0  0  0  0  0  0  0  0  0
   25.5256  -18.7476  -16.6067 C   0  0  0  0  0  0  0  0  0  0  0  0
   25.9081  -19.2906  -15.2773 C   0  0  0  0  0  0  0  0  0  0  0  0
   27.3419  -19.7892  -15.2176 C   0  0  2  0  0  0  0  0  0  0  0  0
   27.5698  -20.1037  -13.7936 N   0  0  0  0  0  0  0  0  0  0  0  0
   28.2871  -18.7245  -15.5907 C   0  0  0  0  0  0  0  0  0  0  0  0
   28.7555  -17.9083  -14.7601 O   0  0  0  0  0  0  0  0  0  0  0  0
   28.7059  -18.5799  -16.8984 O   0  0  0  0  0  0  0  0  0  0  0  0
  2  1  1  6
  3  2  1  0
  4  2  1  0
  4  5  1  6
  6  4  1  0
  7  6  2  0
  8  6  1  0
  9  8  1  0
 10 11  1  0
  9 10  1  1
 11 12  2  0
 12 13  1  0
 14 13  2  0
 15 14  1  0
 16 11  1  0
 16 15  2  0
 17  9  1  0
 17 27  1  0
 18 17  2  0
 19 20  1  0
 20 22  1  0
 21 20  2  0
 22 23  1  0
 23 24  1  0
 24 25  1  0
 26 25  1  1
 26 27  1  0
 26 28  1  0
 28 30  1  0
 29 28  2  0
M  END
$$$$
