VFR.pdb
     RDKit          3D

 30 30  0  0  1  0  0  0  0  0999 V2000
   21.7659  -22.0275  -10.3160 C   0  0  0  0  0  0  0  0  0  0  0  0
   21.2329  -21.8002   -8.9310 C   0  0  1  0  0  0  0  0  0  0  0  0
   20.0546  -22.6217   -8.5570 C   0  0  0  0  0  0  0  0  0  0  0  0
   22.3883  -21.9098   -7.9652 C   0  0  2  0  0  0  0  0  0  0  0  0
   21.8554  -21.3958   -6.6857 N   0  0  0  0  0  0  0  0  0  0  0  0
   23.5482  -21.0797   -8.3060 C   0  0  0  0  0  0  0  0  0  0  0  0
   23.4340  -19.8113   -8.4485 O   0  0  0  0  0  0  0  0  0  0  0  0
   24.8667  -21.5836   -8.5037 N   0  0  0  0  0  0  0  0  0  0  0  0
   25.9626  -20.7348   -8.9648 C   0  0  1  0  0  0  0  0  0  0  0  0
   27.2549  -21.1044   -8.2845 C   0  0  0  0  0  0  0  0  0  0  0  0
   27.4678  -20.4095   -7.0159 C   0  0  0  0  0  0  0  0  0  0  0  0
   27.6096  -21.1077   -5.8421 C   0  0  0  0  0  0  0  0  0  0  0  0
   27.8110  -20.4199   -4.6443 C   0  0  0  0  0  0  0  0  0  0  0  0
   27.8714  -19.0446   -4.6121 C   0  0  0  0  0  0  0  0  0  0  0  0
   27.7318  -18.3311   -5.7759 C   0  0  0  0  0  0  0  0  0  0  0  0
   27.5342  -19.0282   -6.9445 C   0  0  0  0  0  0  0  0  0  0  0  0
   26.0766  -20.7771  -10.4154 C   0  0  0  0  0  0  0  0  0  0  0  0
   25.9419  -21.8545  -11.0936 O   0  0  0  0  0  0  0  0  0  0  0  0
   25.8263  -16.9801  -17.3450 N   0  0  0  0  0  0  0  0  0  0  0  0
   25.3307  -16.0976  -16.3305 C   0  0  0  0  0  0  0  0  0  0  0  0
   24.2840  -15.3903  -16.5532 N   0  0  0  0  0  0  0  0  0  0  0  0
   26.0070  -16.0186  -15.0938 N   0  0  0  0  0  0  0  0  0  0  0  0
   27.2661  -16.6996  -14.9124 C   0  0  0  0  0  0  0  0  0  0  0  0
   26.9800  -18.1391  -14.5606 C   0  0  0  0  0  0  0  0  0  0  0  0
   26.7304  -18.2628  -13.1008 C   0  0  0  0  0  0  0  0  0  0  0  0
   26.4594  -19.6888  -12.6524 C   0  0  2  0  0  0  0  0  0  0  0  0
   26.3452  -19.6038  -11.1832 N   0  0  0  0  0  0  0  0  0  0  0  0
   27.6033  -20.5640  -12.9558 C   0  0  0  0  0  0  0  0  0  0  0  0
   28.6525  -20.5761  -12.2670 O   0  0  0  0  0  0  0  0  0  0  0  0
   27.5649  -21.4262  -14.0334 O   0  0  0  0  0  0  0  0  0  0  0  0
  2  1  1  6
  3  2  1  0
  4  2  1  0
  4  5  1  1
  6  4  1  0
  7  6  2  0
  8  6  1  0
  9  8  1  0
 10 11  1  0
  9 10  1  1
 11 12  2  0
 12 13  1  0
 14 13  2  0
 15 14  1  0
 16 11  1  0
 16 15  2  0
 17  9  1  0
 17 27  1  0
 18 17  2  0
 19 20  1  0
 20 22  1  0
 21 20  2  0
 22 23  1  0
 23 24  1  0
 24 25  1  0
 26 25  1  1
 26 27  1  0
 26 28  1  0
 28 30  1  0
 29 28  2  0
M  END
$$$$
