VFR.pdb
     RDKit          3D

 30 30  0  0  1  0  0  0  0  0999 V2000
   25.0217  -18.5975  -18.5723 C   0  0  0  0  0  0  0  0  0  0  0  0
   26.3443  -18.9594  -19.1835 C   0  0  1  0  0  0  0  0  0  0  0  0
   26.7002  -18.2200  -20.4202 C   0  0  0  0  0  0  0  0  0  0  0  0
   27.3929  -18.8826  -18.0998 C   0  0  2  0  0  0  0  0  0  0  0  0
   28.5751  -19.5579  -18.6759 N   0  0  0  0  0  0  0  0  0  0  0  0
   27.0509  -19.6022  -16.8688 C   0  0  0  0  0  0  0  0  0  0  0  0
   26.9519  -20.8799  -16.8561 O   0  0  0  0  0  0  0  0  0  0  0  0
   26.8051  -18.9746  -15.6129 N   0  0  0  0  0  0  0  0  0  0  0  0
   26.3686  -19.7274  -14.4395 C   0  0  1  0  0  0  0  0  0  0  0  0
   26.9583  -19.1515  -13.1785 C   0  0  0  0  0  0  0  0  0  0  0  0
   26.5141  -19.8301  -11.9621 C   0  0  0  0  0  0  0  0  0  0  0  0
   25.5228  -19.2962  -11.1761 C   0  0  0  0  0  0  0  0  0  0  0  0
   25.1178  -19.9639  -10.0192 C   0  0  0  0  0  0  0  0  0  0  0  0
   25.6946  -21.1567   -9.6442 C   0  0  0  0  0  0  0  0  0  0  0  0
   26.6866  -21.7045  -10.4181 C   0  0  0  0  0  0  0  0  0  0  0  0
   27.0704  -21.0305  -11.5534 C   0  0  0  0  0  0  0  0  0  0  0  0
   24.9160  -19.8000  -14.3805 C   0  0  0  0  0  0  0  0  0  0  0  0
   24.1657  -18.7629  -14.3918 O   0  0  0  0  0  0  0  0  0  0  0  0
   18.7145  -24.5578  -17.6190 N   0  0  0  0  0  0  0  0  0  0  0  0
   18.1007  -23.9633  -16.4686 C   0  0  0  0  0  0  0  0  0  0  0  0
   16.8261  -23.8260  -16.4225 N   0  0  0  0  0  0  0  0  0  0  0  0
   18.9133  -23.5338  -15.3970 N   0  0  0  0  0  0  0  0  0  0  0  0
   20.3380  -23.3959  -15.5790 C   0  0  0  0  0  0  0  0  0  0  0  0
   20.9180  -22.7799  -14.3292 C   0  0  0  0  0  0  0  0  0  0  0  0
   22.3635  -22.4983  -14.5283 C   0  0  0  0  0  0  0  0  0  0  0  0
   22.7597  -21.0791  -14.1583 C   0  0  2  0  0  0  0  0  0  0  0  0
   24.2276  -21.0488  -14.3096 N   0  0  0  0  0  0  0  0  0  0  0  0
   22.4561  -20.7975  -12.7459 C   0  0  0  0  0  0  0  0  0  0  0  0
   23.1661  -21.2180  -11.8001 O   0  0  0  0  0  0  0  0  0  0  0  0
   21.3543  -20.0412  -12.3988 O   0  0  0  0  0  0  0  0  0  0  0  0
  2  1  1  1
  3  2  1  0
  4  2  1  0
  4  5  1  6
  6  4  1  0
  7  6  2  0
  8  6  1  0
  9  8  1  0
 10 11  1  0
  9 10  1  1
 11 12  2  0
 12 13  1  0
 14 13  2  0
 15 14  1  0
 16 11  1  0
 16 15  2  0
 17  9  1  0
 17 27  1  0
 18 17  2  0
 19 20  1  0
 20 22  1  0
 21 20  2  0
 22 23  1  0
 23 24  1  0
 24 25  1  0
 26 25  1  1
 26 27  1  0
 26 28  1  0
 28 30  1  0
 29 28  2  0
M  END
$$$$
