VFR.pdb
     RDKit          3D

 30 30  0  0  1  0  0  0  0  0999 V2000
   28.3304  -19.5196  -14.7791 C   0  0  0  0  0  0  0  0  0  0  0  0
   27.6975  -19.8676  -13.4630 C   0  0  1  0  0  0  0  0  0  0  0  0
   26.2642  -20.2483  -13.5242 C   0  0  0  0  0  0  0  0  0  0  0  0
   28.5750  -20.8901  -12.7818 C   0  0  2  0  0  0  0  0  0  0  0  0
   28.3398  -22.1425  -13.5313 N   0  0  0  0  0  0  0  0  0  0  0  0
   28.2240  -21.1598  -11.3837 C   0  0  0  0  0  0  0  0  0  0  0  0
   27.3146  -22.0112  -11.0832 O   0  0  0  0  0  0  0  0  0  0  0  0
   28.8376  -20.5256  -10.2645 N   0  0  0  0  0  0  0  0  0  0  0  0
   28.3043  -20.6517   -8.9103 C   0  0  1  0  0  0  0  0  0  0  0  0
   29.1571  -19.8998   -7.9219 C   0  0  0  0  0  0  0  0  0  0  0  0
   28.6115  -19.8920   -6.5656 C   0  0  0  0  0  0  0  0  0  0  0  0
   28.7945  -20.9610   -5.7234 C   0  0  0  0  0  0  0  0  0  0  0  0
   28.2625  -20.9285   -4.4333 C   0  0  0  0  0  0  0  0  0  0  0  0
   27.5518  -19.8392   -3.9813 C   0  0  0  0  0  0  0  0  0  0  0  0
   27.3595  -18.7621   -4.8097 C   0  0  0  0  0  0  0  0  0  0  0  0
   27.8920  -18.8148   -6.0764 C   0  0  0  0  0  0  0  0  0  0  0  0
   26.9110  -20.2330   -8.8604 C   0  0  0  0  0  0  0  0  0  0  0  0
   26.5043  -19.1097   -9.3203 O   0  0  0  0  0  0  0  0  0  0  0  0
   20.2492  -21.0635  -13.3617 N   0  0  0  0  0  0  0  0  0  0  0  0
   20.7387  -19.7517  -13.0567 C   0  0  0  0  0  0  0  0  0  0  0  0
   20.1315  -18.7193  -13.5162 N   0  0  0  0  0  0  0  0  0  0  0  0
   21.8898  -19.6144  -12.2510 N   0  0  0  0  0  0  0  0  0  0  0  0
   22.5858  -20.7863  -11.7775 C   0  0  0  0  0  0  0  0  0  0  0  0
   22.7648  -20.6602  -10.2842 C   0  0  0  0  0  0  0  0  0  0  0  0
   24.1977  -20.8339   -9.9303 C   0  0  0  0  0  0  0  0  0  0  0  0
   24.4735  -20.7005   -8.4423 C   0  0  2  0  0  0  0  0  0  0  0  0
   25.8967  -21.0613   -8.2916 N   0  0  0  0  0  0  0  0  0  0  0  0
   23.6871  -21.6761   -7.6701 C   0  0  0  0  0  0  0  0  0  0  0  0
   24.0842  -22.8454   -7.4458 O   0  0  0  0  0  0  0  0  0  0  0  0
   22.4549  -21.3344   -7.1493 O   0  0  0  0  0  0  0  0  0  0  0  0
  2  1  1  6
  3  2  1  0
  4  2  1  0
  4  5  1  6
  6  4  1  0
  7  6  2  0
  8  6  1  0
  9  8  1  0
 10 11  1  0
  9 10  1  1
 11 12  2  0
 12 13  1  0
 14 13  2  0
 15 14  1  0
 16 11  1  0
 16 15  2  0
 17  9  1  0
 17 27  1  0
 18 17  2  0
 19 20  1  0
 20 22  1  0
 21 20  2  0
 22 23  1  0
 23 24  1  0
 24 25  1  0
 26 25  1  6
 26 27  1  0
 26 28  1  0
 28 30  1  0
 29 28  2  0
M  END
$$$$
