VFR.pdb
     RDKit          3D

 30 30  0  0  1  0  0  0  0  0999 V2000
   27.1653  -20.8198  -18.5416 C   0  0  0  0  0  0  0  0  0  0  0  0
   26.5066  -20.8897  -17.1944 C   0  0  1  0  0  0  0  0  0  0  0  0
   25.0701  -21.2631  -17.2041 C   0  0  0  0  0  0  0  0  0  0  0  0
   27.3606  -21.7609  -16.3047 C   0  0  2  0  0  0  0  0  0  0  0  0
   27.2221  -23.1202  -16.8694 N   0  0  0  0  0  0  0  0  0  0  0  0
   26.9122  -21.8328  -14.9104 C   0  0  0  0  0  0  0  0  0  0  0  0
   26.0291  -22.6859  -14.5434 O   0  0  0  0  0  0  0  0  0  0  0  0
   27.3972  -20.9929  -13.8660 N   0  0  0  0  0  0  0  0  0  0  0  0
   26.7996  -20.9856  -12.5330 C   0  0  1  0  0  0  0  0  0  0  0  0
   27.7292  -20.3570  -11.5279 C   0  0  0  0  0  0  0  0  0  0  0  0
   27.1667  -20.2771  -10.1809 C   0  0  0  0  0  0  0  0  0  0  0  0
   27.3481  -21.2948   -9.2771 C   0  0  0  0  0  0  0  0  0  0  0  0
   26.7997  -21.1940   -7.9974 C   0  0  0  0  0  0  0  0  0  0  0  0
   26.0744  -20.0872   -7.6167 C   0  0  0  0  0  0  0  0  0  0  0  0
   25.8835  -19.0607   -8.5072 C   0  0  0  0  0  0  0  0  0  0  0  0
   26.4322  -19.1804   -9.7623 C   0  0  0  0  0  0  0  0  0  0  0  0
   25.4961  -20.3377  -12.5524 C   0  0  0  0  0  0  0  0  0  0  0  0
   25.2543  -19.2793  -13.2307 O   0  0  0  0  0  0  0  0  0  0  0  0
   19.0045  -19.2234  -16.5952 N   0  0  0  0  0  0  0  0  0  0  0  0
   20.4214  -19.1371  -16.7918 C   0  0  0  0  0  0  0  0  0  0  0  0
   20.8964  -18.3513  -17.6877 N   0  0  0  0  0  0  0  0  0  0  0  0
   21.2784  -19.9241  -15.9923 N   0  0  0  0  0  0  0  0  0  0  0  0
   20.7364  -20.7251  -14.9216 C   0  0  0  0  0  0  0  0  0  0  0  0
   21.1978  -20.1378  -13.6100 C   0  0  0  0  0  0  0  0  0  0  0  0
   22.5968  -20.5556  -13.3332 C   0  0  0  0  0  0  0  0  0  0  0  0
   23.0612  -20.2193  -11.9264 C   0  0  2  0  0  0  0  0  0  0  0  0
   24.3901  -20.8510  -11.8098 N   0  0  0  0  0  0  0  0  0  0  0  0
   22.1872  -20.8418  -10.9189 C   0  0  0  0  0  0  0  0  0  0  0  0
   22.4801  -21.9116  -10.3315 O   0  0  0  0  0  0  0  0  0  0  0  0
   20.9846  -20.2590  -10.5721 O   0  0  0  0  0  0  0  0  0  0  0  0
  2  1  1  6
  3  2  1  0
  4  2  1  0
  4  5  1  6
  6  4  1  0
  7  6  2  0
  8  6  1  0
  9  8  1  0
 10 11  1  0
  9 10  1  1
 11 12  2  0
 12 13  1  0
 14 13  2  0
 15 14  1  0
 16 11  1  0
 16 15  2  0
 17  9  1  0
 17 27  1  0
 18 17  2  0
 19 20  1  0
 20 22  1  0
 21 20  2  0
 22 23  1  0
 23 24  1  0
 24 25  1  0
 26 25  1  6
 26 27  1  0
 26 28  1  0
 28 30  1  0
 29 28  2  0
M  END
$$$$
