VFR.pdb
     RDKit          3D

 30 30  0  0  1  0  0  0  0  0999 V2000
   27.3875  -24.8935  -18.5541 C   0  0  0  0  0  0  0  0  0  0  0  0
   26.9853  -24.6500  -17.1284 C   0  0  1  0  0  0  0  0  0  0  0  0
   27.9653  -23.8953  -16.3081 C   0  0  0  0  0  0  0  0  0  0  0  0
   25.5992  -24.0511  -17.1330 C   0  0  2  0  0  0  0  0  0  0  0  0
   25.7413  -22.7868  -17.8857 N   0  0  0  0  0  0  0  0  0  0  0  0
   25.0829  -23.6995  -15.8062 C   0  0  0  0  0  0  0  0  0  0  0  0
   24.6928  -24.6052  -14.9877 O   0  0  0  0  0  0  0  0  0  0  0  0
   24.9697  -22.3662  -15.3154 N   0  0  0  0  0  0  0  0  0  0  0  0
   24.4150  -22.0671  -13.9975 C   0  0  1  0  0  0  0  0  0  0  0  0
   25.1366  -20.9095  -13.3580 C   0  0  0  0  0  0  0  0  0  0  0  0
   24.7539  -20.6786  -11.9660 C   0  0  0  0  0  0  0  0  0  0  0  0
   25.5477  -21.1124  -10.9329 C   0  0  0  0  0  0  0  0  0  0  0  0
   25.1588  -20.8798   -9.6127 C   0  0  0  0  0  0  0  0  0  0  0  0
   23.9867  -20.2193   -9.3194 C   0  0  0  0  0  0  0  0  0  0  0  0
   23.1815  -19.7789  -10.3396 C   0  0  0  0  0  0  0  0  0  0  0  0
   23.5833  -20.0184  -11.6326 C   0  0  0  0  0  0  0  0  0  0  0  0
   22.9796  -21.8395  -14.0782 C   0  0  0  0  0  0  0  0  0  0  0  0
   22.4276  -21.2092  -15.0462 O   0  0  0  0  0  0  0  0  0  0  0  0
   17.8149  -26.1069   -8.7270 N   0  0  0  0  0  0  0  0  0  0  0  0
   17.7420  -26.6281  -10.0599 C   0  0  0  0  0  0  0  0  0  0  0  0
   17.1993  -27.7711  -10.2713 N   0  0  0  0  0  0  0  0  0  0  0  0
   18.2731  -25.8716  -11.1270 N   0  0  0  0  0  0  0  0  0  0  0  0
   18.8811  -24.5881  -10.8721 C   0  0  0  0  0  0  0  0  0  0  0  0
   19.3877  -24.0351  -12.1819 C   0  0  0  0  0  0  0  0  0  0  0  0
   20.0298  -22.7137  -11.9582 C   0  0  0  0  0  0  0  0  0  0  0  0
   20.6302  -22.1123  -13.2175 C   0  0  2  0  0  0  0  0  0  0  0  0
   22.0850  -22.3144  -13.0720 N   0  0  0  0  0  0  0  0  0  0  0  0
   20.3903  -20.6612  -13.2757 C   0  0  0  0  0  0  0  0  0  0  0  0
   21.1462  -19.8239  -12.7254 O   0  0  0  0  0  0  0  0  0  0  0  0
   19.3006  -20.1535  -13.9545 O   0  0  0  0  0  0  0  0  0  0  0  0
  2  1  1  6
  3  2  1  0
  4  2  1  0
  4  5  1  6
  6  4  1  0
  7  6  2  0
  8  6  1  0
  9  8  1  0
 10 11  1  0
  9 10  1  6
 11 12  2  0
 12 13  1  0
 14 13  2  0
 15 14  1  0
 16 11  1  0
 16 15  2  0
 17  9  1  0
 17 27  1  0
 18 17  2  0
 19 20  1  0
 20 22  1  0
 21 20  2  0
 22 23  1  0
 23 24  1  0
 24 25  1  0
 26 25  1  1
 26 27  1  0
 26 28  1  0
 28 30  1  0
 29 28  2  0
M  END
$$$$
