VFR.pdb
     RDKit          3D

 30 30  0  0  1  0  0  0  0  0999 V2000
   24.1043  -19.7115  -14.4791 C   0  0  0  0  0  0  0  0  0  0  0  0
   24.0846  -20.1169  -13.0338 C   0  0  1  0  0  0  0  0  0  0  0  0
   22.9569  -20.9940  -12.6315 C   0  0  0  0  0  0  0  0  0  0  0  0
   25.4460  -20.6713  -12.6886 C   0  0  2  0  0  0  0  0  0  0  0  0
   25.5235  -21.9534  -13.4204 N   0  0  0  0  0  0  0  0  0  0  0  0
   25.6352  -20.9814  -11.2678 C   0  0  0  0  0  0  0  0  0  0  0  0
   25.1938  -22.0747  -10.7657 O   0  0  0  0  0  0  0  0  0  0  0  0
   26.3043  -20.1295  -10.3415 N   0  0  0  0  0  0  0  0  0  0  0  0
   26.4192  -20.4606   -8.9234 C   0  0  1  0  0  0  0  0  0  0  0  0
   27.6066  -19.7719   -8.3025 C   0  0  0  0  0  0  0  0  0  0  0  0
   27.7235  -19.9924   -6.8620 C   0  0  0  0  0  0  0  0  0  0  0  0
   28.0905  -21.2173   -6.3615 C   0  0  0  0  0  0  0  0  0  0  0  0
   28.1940  -21.4016   -4.9817 C   0  0  0  0  0  0  0  0  0  0  0  0
   27.9342  -20.3741   -4.1027 C   0  0  0  0  0  0  0  0  0  0  0  0
   27.5664  -19.1434   -4.5857 C   0  0  0  0  0  0  0  0  0  0  0  0
   27.4705  -18.9835   -5.9480 C   0  0  0  0  0  0  0  0  0  0  0  0
   25.1818  -20.1592   -8.2184 C   0  0  0  0  0  0  0  0  0  0  0  0
   24.6213  -19.0089   -8.2557 O   0  0  0  0  0  0  0  0  0  0  0  0
   17.9473  -24.0223   -7.3357 N   0  0  0  0  0  0  0  0  0  0  0  0
   19.0272  -23.9067   -8.2707 C   0  0  0  0  0  0  0  0  0  0  0  0
   18.8149  -24.1011   -9.5208 N   0  0  0  0  0  0  0  0  0  0  0  0
   20.3169  -23.5797   -7.7987 N   0  0  0  0  0  0  0  0  0  0  0  0
   20.5331  -23.3363   -6.3930 C   0  0  0  0  0  0  0  0  0  0  0  0
   21.9484  -22.8453   -6.2092 C   0  0  0  0  0  0  0  0  0  0  0  0
   22.2255  -21.7350   -7.1572 C   0  0  0  0  0  0  0  0  0  0  0  0
   23.2971  -20.7756   -6.6682 C   0  0  2  0  0  0  0  0  0  0  0  0
   24.5047  -21.1414   -7.4341 N   0  0  0  0  0  0  0  0  0  0  0  0
   23.5943  -20.9976   -5.2439 C   0  0  0  0  0  0  0  0  0  0  0  0
   24.5019  -21.7702   -4.8504 O   0  0  0  0  0  0  0  0  0  0  0  0
   22.8708  -20.3487   -4.2632 O   0  0  0  0  0  0  0  0  0  0  0  0
  2  1  1  6
  3  2  1  0
  4  2  1  0
  4  5  1  6
  6  4  1  0
  7  6  2  0
  8  6  1  0
  9  8  1  0
 10 11  1  0
  9 10  1  1
 11 12  2  0
 12 13  1  0
 14 13  2  0
 15 14  1  0
 16 11  1  0
 16 15  2  0
 17  9  1  0
 17 27  1  0
 18 17  2  0
 19 20  1  0
 20 22  1  0
 21 20  2  0
 22 23  1  0
 23 24  1  0
 24 25  1  0
 26 25  1  6
 26 27  1  0
 26 28  1  0
 28 30  1  0
 29 28  2  0
M  END
$$$$
