INL.pdb
     RDKit          3D

 25 24  0  0  1  0  0  0  0  0999 V2000
    6.8699  -13.7324   17.7950 C   0  0  0  0  0  0  0  0  0  0  0  0
    8.1417  -14.1015   18.5643 C   0  0  0  0  0  0  0  0  0  0  0  0
    8.3896  -13.1379   19.6785 C   0  0  2  0  0  0  0  0  0  0  0  0
    8.4163  -11.7137   19.1905 C   0  0  0  0  0  0  0  0  0  0  0  0
    9.5553  -13.4950   20.5660 C   0  0  2  0  0  0  0  0  0  0  0  0
   10.6355  -13.9203   19.6683 N   0  0  0  0  0  0  0  0  0  0  0  0
    9.2957  -14.6118   21.4891 C   0  0  0  0  0  0  0  0  0  0  0  0
    8.2704  -14.6110   22.2246 O   0  0  0  0  0  0  0  0  0  0  0  0
    9.5420  -19.3406   20.8069 N   0  0  0  0  0  0  0  0  0  0  0  0
   10.5850  -18.4418   21.0496 C   0  0  0  0  0  0  0  0  0  0  0  0
   11.3059  -18.0887   20.0748 O   0  0  0  0  0  0  0  0  0  0  0  0
   10.9011  -17.8702   22.3979 C   0  0  0  0  0  0  0  0  0  0  0  0
    9.9362  -16.7169   22.6984 C   0  0  2  0  0  0  0  0  0  0  0  0
   10.1400  -15.7625   21.6370 N   0  0  0  0  0  0  0  0  0  0  0  0
   10.1616  -16.1923   24.0569 C   0  0  0  0  0  0  0  0  0  0  0  0
   10.8279  -15.1093   24.1214 O   0  0  0  0  0  0  0  0  0  0  0  0
    6.8621  -13.1822   26.8510 C   0  0  0  0  0  0  0  0  0  0  0  0
    7.9955  -14.0701   27.1881 C   0  0  2  0  0  0  0  0  0  0  0  0
    9.1827  -13.2012   27.6620 C   0  0  0  0  0  0  0  0  0  0  0  0
    8.5374  -14.9727   26.1655 C   0  0  0  0  0  0  0  0  0  0  0  0
    9.5468  -15.9962   26.5058 C   0  0  2  0  0  0  0  0  0  0  0  0
    9.6981  -16.7955   25.2538 N   0  0  0  0  0  0  0  0  0  0  0  0
    9.2214  -16.9676   27.5516 C   0  0  0  0  0  0  0  0  0  0  0  0
    8.2609  -17.9894   27.3246 O   0  0  0  0  0  0  0  0  0  0  0  0
    9.7228  -17.0129   28.7097 O   0  0  0  0  0  0  0  0  0  0  0  0
  2  1  1  0
  2  3  1  0
  3  4  1  6
  5  3  1  0
  5  6  1  6
  7  5  1  0
  7  8  2  0
 10 12  1  0
 10  9  1  0
 11 10  2  0
 13 12  1  6
 13 14  1  0
 14  7  1  0
 15 13  1  0
 16 15  2  0
 18 20  1  0
 18 17  1  6
 19 18  1  0
 21 20  1  6
 21 22  1  0
 21 23  1  0
 22 15  1  0
 23 24  1  0
 25 23  2  0
M  END
$$$$
