INL.pdb
     RDKit          3D

 25 24  0  0  1  0  0  0  0  0999 V2000
    7.7902  -11.9497   19.6233 C   0  0  0  0  0  0  0  0  0  0  0  0
    7.6291  -13.4694   19.5225 C   0  0  0  0  0  0  0  0  0  0  0  0
    8.9409  -14.1584   19.7118 C   0  0  2  0  0  0  0  0  0  0  0  0
    9.9749  -13.6717   18.7314 C   0  0  0  0  0  0  0  0  0  0  0  0
    8.8507  -15.6611   19.7993 C   0  0  2  0  0  0  0  0  0  0  0  0
    8.3788  -16.1180   18.4870 N   0  0  0  0  0  0  0  0  0  0  0  0
    7.8900  -16.1544   20.7996 C   0  0  0  0  0  0  0  0  0  0  0  0
    6.9125  -16.8720   20.4510 O   0  0  0  0  0  0  0  0  0  0  0  0
    7.3400  -19.9441   24.6469 N   0  0  0  0  0  0  0  0  0  0  0  0
    6.7409  -18.9618   23.8527 C   0  0  0  0  0  0  0  0  0  0  0  0
    5.4955  -18.7847   23.9628 O   0  0  0  0  0  0  0  0  0  0  0  0
    7.4870  -18.1042   22.8768 C   0  0  0  0  0  0  0  0  0  0  0  0
    7.1807  -16.6288   23.1610 C   0  0  2  0  0  0  0  0  0  0  0  0
    7.9658  -15.8855   22.2070 N   0  0  0  0  0  0  0  0  0  0  0  0
    7.4504  -16.3055   24.5732 C   0  0  0  0  0  0  0  0  0  0  0  0
    6.4270  -16.2629   25.3296 O   0  0  0  0  0  0  0  0  0  0  0  0
    8.2279  -12.1403   26.6059 C   0  0  0  0  0  0  0  0  0  0  0  0
    7.3124  -13.2059   26.1443 C   0  0  2  0  0  0  0  0  0  0  0  0
    5.8815  -12.8733   26.6247 C   0  0  0  0  0  0  0  0  0  0  0  0
    7.5602  -14.5965   26.5429 C   0  0  0  0  0  0  0  0  0  0  0  0
    8.8856  -15.2214   26.3559 C   0  0  2  0  0  0  0  0  0  0  0  0
    8.7322  -16.0497   25.1233 N   0  0  0  0  0  0  0  0  0  0  0  0
    9.3677  -16.1422   27.3870 C   0  0  0  0  0  0  0  0  0  0  0  0
   10.2426  -15.6947   28.4130 O   0  0  0  0  0  0  0  0  0  0  0  0
    9.0830  -17.3686   27.4841 O   0  0  0  0  0  0  0  0  0  0  0  0
  2  1  1  0
  2  3  1  0
  3  4  1  6
  5  3  1  0
  5  6  1  6
  7  5  1  0
  7  8  2  0
 10 12  1  0
 10  9  1  0
 11 10  2  0
 13 12  1  1
 13 14  1  0
 14  7  1  0
 15 13  1  0
 16 15  2  0
 18 20  1  0
 18 17  1  1
 19 18  1  0
 21 20  1  1
 21 22  1  0
 21 23  1  0
 22 15  1  0
 23 24  1  0
 25 23  2  0
M  END
$$$$
