INL.pdb
     RDKit          3D

 25 24  0  0  1  0  0  0  0  0999 V2000
    7.4042  -11.5800   19.0069 C   0  0  0  0  0  0  0  0  0  0  0  0
    7.9560  -12.9825   18.7348 C   0  0  0  0  0  0  0  0  0  0  0  0
    7.9736  -13.8005   19.9845 C   0  0  2  0  0  0  0  0  0  0  0  0
    8.5970  -13.0530   21.1334 C   0  0  0  0  0  0  0  0  0  0  0  0
    8.5119  -15.1982   19.8093 C   0  0  2  0  0  0  0  0  0  0  0  0
    7.5868  -15.8795   18.8963 N   0  0  0  0  0  0  0  0  0  0  0  0
    8.5579  -15.9909   21.0488 C   0  0  0  0  0  0  0  0  0  0  0  0
    7.5017  -16.4772   21.5387 O   0  0  0  0  0  0  0  0  0  0  0  0
   11.2098  -19.1691   20.7665 N   0  0  0  0  0  0  0  0  0  0  0  0
   10.5665  -19.0473   22.0017 C   0  0  0  0  0  0  0  0  0  0  0  0
    9.6731  -19.8906   22.2937 O   0  0  0  0  0  0  0  0  0  0  0  0
   10.8723  -17.9756   23.0030 C   0  0  0  0  0  0  0  0  0  0  0  0
    9.7081  -16.9788   23.0501 C   0  0  2  0  0  0  0  0  0  0  0  0
    9.7522  -16.2807   21.7892 N   0  0  0  0  0  0  0  0  0  0  0  0
    9.8108  -16.1168   24.2409 C   0  0  0  0  0  0  0  0  0  0  0  0
   10.8291  -15.3534   24.2774 O   0  0  0  0  0  0  0  0  0  0  0  0
    8.3451  -12.1336   26.0777 C   0  0  0  0  0  0  0  0  0  0  0  0
    7.4829  -13.3311   25.9805 C   0  0  2  0  0  0  0  0  0  0  0  0
    6.0535  -12.9511   26.4290 C   0  0  0  0  0  0  0  0  0  0  0  0
    7.8354  -14.5403   26.7337 C   0  0  0  0  0  0  0  0  0  0  0  0
    9.1215  -15.2324   26.5116 C   0  0  2  0  0  0  0  0  0  0  0  0
    8.8791  -16.0842   25.3097 N   0  0  0  0  0  0  0  0  0  0  0  0
    9.6022  -16.1479   27.5479 C   0  0  0  0  0  0  0  0  0  0  0  0
    9.4582  -17.5538   27.4030 O   0  0  0  0  0  0  0  0  0  0  0  0
   10.1675  -15.8206   28.6286 O   0  0  0  0  0  0  0  0  0  0  0  0
  2  1  1  0
  2  3  1  0
  3  4  1  1
  5  3  1  0
  5  6  1  6
  7  5  1  0
  7  8  2  0
 10 12  1  0
 10  9  1  0
 11 10  2  0
 13 12  1  6
 13 14  1  0
 14  7  1  0
 15 13  1  0
 16 15  2  0
 18 20  1  0
 18 17  1  1
 19 18  1  0
 21 20  1  1
 21 22  1  0
 21 23  1  0
 22 15  1  0
 23 24  1  0
 25 23  2  0
M  END
$$$$
