INL.pdb
     RDKit          3D

 25 24  0  0  1  0  0  0  0  0999 V2000
    7.2961  -12.9545   17.1642 C   0  0  0  0  0  0  0  0  0  0  0  0
    8.3132  -13.8075   17.9279 C   0  0  0  0  0  0  0  0  0  0  0  0
    7.9131  -13.9612   19.3588 C   0  0  2  0  0  0  0  0  0  0  0  0
    7.6611  -12.6297   20.0152 C   0  0  0  0  0  0  0  0  0  0  0  0
    8.8055  -14.8726   20.1631 C   0  0  2  0  0  0  0  0  0  0  0  0
    8.9739  -16.0897   19.3607 N   0  0  0  0  0  0  0  0  0  0  0  0
    8.2426  -15.2842   21.4595 C   0  0  0  0  0  0  0  0  0  0  0  0
    7.6788  -14.4416   22.2106 O   0  0  0  0  0  0  0  0  0  0  0  0
    5.8807  -19.1911   24.9002 N   0  0  0  0  0  0  0  0  0  0  0  0
    7.2341  -18.9135   24.6858 C   0  0  0  0  0  0  0  0  0  0  0  0
    8.0293  -19.0390   25.6587 O   0  0  0  0  0  0  0  0  0  0  0  0
    7.8007  -18.4755   23.3699 C   0  0  0  0  0  0  0  0  0  0  0  0
    7.7139  -16.9483   23.2638 C   0  0  2  0  0  0  0  0  0  0  0  0
    8.2729  -16.6228   21.9751 N   0  0  0  0  0  0  0  0  0  0  0  0
    8.3839  -16.3095   24.4104 C   0  0  0  0  0  0  0  0  0  0  0  0
    9.6566  -16.3182   24.3746 O   0  0  0  0  0  0  0  0  0  0  0  0
    8.2322  -11.8817   25.6701 C   0  0  0  0  0  0  0  0  0  0  0  0
    7.2148  -12.8470   26.1391 C   0  0  2  0  0  0  0  0  0  0  0  0
    6.0943  -12.0718   26.8686 C   0  0  0  0  0  0  0  0  0  0  0  0
    7.6098  -13.9336   27.0430 C   0  0  0  0  0  0  0  0  0  0  0  0
    8.4990  -15.0221   26.5882 C   0  0  2  0  0  0  0  0  0  0  0  0
    7.7238  -15.7059   25.5110 N   0  0  0  0  0  0  0  0  0  0  0  0
    8.8494  -16.0739   27.5442 C   0  0  0  0  0  0  0  0  0  0  0  0
    9.9000  -15.8865   28.4821 O   0  0  0  0  0  0  0  0  0  0  0  0
    8.2960  -17.2044   27.6456 O   0  0  0  0  0  0  0  0  0  0  0  0
  2  1  1  0
  2  3  1  0
  3  4  1  1
  5  3  1  0
  5  6  1  6
  7  5  1  0
  7  8  2  0
 10 12  1  0
 10  9  1  0
 11 10  2  0
 13 12  1  1
 13 14  1  0
 14  7  1  0
 15 13  1  0
 16 15  2  0
 18 20  1  0
 18 17  1  1
 19 18  1  0
 21 20  1  1
 21 22  1  0
 21 23  1  0
 22 15  1  0
 23 24  1  0
 25 23  2  0
M  END
$$$$
