INL.pdb
     RDKit          3D

 25 24  0  0  1  0  0  0  0  0999 V2000
    7.3699  -12.3750   18.5545 C   0  0  0  0  0  0  0  0  0  0  0  0
    8.4177  -13.4909   18.6049 C   0  0  0  0  0  0  0  0  0  0  0  0
    8.3013  -14.2751   19.8709 C   0  0  2  0  0  0  0  0  0  0  0  0
    8.3230  -13.3841   21.0845 C   0  0  0  0  0  0  0  0  0  0  0  0
    9.2410  -15.4505   19.9668 C   0  0  2  0  0  0  0  0  0  0  0  0
    8.8440  -16.3775   18.9007 N   0  0  0  0  0  0  0  0  0  0  0  0
    9.1590  -16.1913   21.2362 C   0  0  0  0  0  0  0  0  0  0  0  0
    8.8817  -17.4222   21.2439 O   0  0  0  0  0  0  0  0  0  0  0  0
    8.7167  -19.0872   23.2230 N   0  0  0  0  0  0  0  0  0  0  0  0
   10.0778  -18.7739   23.1609 C   0  0  0  0  0  0  0  0  0  0  0  0
   10.8877  -19.6946   22.8592 O   0  0  0  0  0  0  0  0  0  0  0  0
   10.6362  -17.4101   23.4307 C   0  0  0  0  0  0  0  0  0  0  0  0
    9.4847  -16.4378   23.7136 C   0  0  2  0  0  0  0  0  0  0  0  0
    9.3793  -15.6173   22.5326 N   0  0  0  0  0  0  0  0  0  0  0  0
    9.7262  -15.6973   24.9646 C   0  0  0  0  0  0  0  0  0  0  0  0
   10.8821  -15.1754   25.0768 O   0  0  0  0  0  0  0  0  0  0  0  0
    5.9498  -12.4952   26.6418 C   0  0  0  0  0  0  0  0  0  0  0  0
    7.3454  -12.7287   27.0715 C   0  0  2  0  0  0  0  0  0  0  0  0
    8.2913  -12.3666   25.9040 C   0  0  0  0  0  0  0  0  0  0  0  0
    7.7506  -14.0657   27.5210 C   0  0  0  0  0  0  0  0  0  0  0  0
    9.0698  -14.6260   27.1634 C   0  0  2  0  0  0  0  0  0  0  0  0
    8.7853  -15.5341   26.0130 N   0  0  0  0  0  0  0  0  0  0  0  0
    9.7605  -15.4549   28.1529 C   0  0  0  0  0  0  0  0  0  0  0  0
    9.8065  -16.8682   28.0159 O   0  0  0  0  0  0  0  0  0  0  0  0
   10.3613  -15.0413   29.1837 O   0  0  0  0  0  0  0  0  0  0  0  0
  2  1  1  0
  2  3  1  0
  3  4  1  1
  5  3  1  0
  5  6  1  6
  7  5  1  0
  7  8  2  0
 10 12  1  0
 10  9  1  0
 11 10  2  0
 13 12  1  6
 13 14  1  0
 14  7  1  0
 15 13  1  0
 16 15  2  0
 18 20  1  0
 18 17  1  6
 19 18  1  0
 21 20  1  1
 21 22  1  0
 21 23  1  0
 22 15  1  0
 23 24  1  0
 25 23  2  0
M  END
$$$$
