INL.pdb
     RDKit          3D

 25 24  0  0  1  0  0  0  0  0999 V2000
    6.9044  -11.6850   19.5357 C   0  0  0  0  0  0  0  0  0  0  0  0
    7.3732  -13.1133   19.2427 C   0  0  0  0  0  0  0  0  0  0  0  0
    7.7848  -13.8079   20.4995 C   0  0  2  0  0  0  0  0  0  0  0  0
    8.7034  -12.9557   21.3343 C   0  0  0  0  0  0  0  0  0  0  0  0
    8.2821  -15.2175   20.3006 C   0  0  2  0  0  0  0  0  0  0  0  0
    7.1872  -15.9480   19.6517 N   0  0  0  0  0  0  0  0  0  0  0  0
    8.5981  -15.9316   21.5484 C   0  0  0  0  0  0  0  0  0  0  0  0
    7.6779  -16.4327   22.2514 O   0  0  0  0  0  0  0  0  0  0  0  0
   10.5846  -19.0510   24.9041 N   0  0  0  0  0  0  0  0  0  0  0  0
   11.6639  -18.5235   24.1889 C   0  0  0  0  0  0  0  0  0  0  0  0
   12.7988  -19.0545   24.3458 O   0  0  0  0  0  0  0  0  0  0  0  0
   11.5570  -17.3645   23.2456 C   0  0  0  0  0  0  0  0  0  0  0  0
   10.1495  -16.7632   23.3389 C   0  0  2  0  0  0  0  0  0  0  0  0
    9.9223  -16.1246   22.0662 N   0  0  0  0  0  0  0  0  0  0  0  0
   10.0420  -15.8729   24.5082 C   0  0  0  0  0  0  0  0  0  0  0  0
    9.7583  -14.6594   24.2475 O   0  0  0  0  0  0  0  0  0  0  0  0
    8.3075  -12.6863   26.8065 C   0  0  0  0  0  0  0  0  0  0  0  0
    7.9799  -13.8074   25.8995 C   0  0  2  0  0  0  0  0  0  0  0  0
    6.4843  -13.7180   25.5201 C   0  0  0  0  0  0  0  0  0  0  0  0
    8.2028  -15.1880   26.3447 C   0  0  0  0  0  0  0  0  0  0  0  0
    9.4813  -15.5958   26.9622 C   0  0  2  0  0  0  0  0  0  0  0  0
   10.2264  -16.2690   25.8574 N   0  0  0  0  0  0  0  0  0  0  0  0
    9.4420  -16.5686   28.0555 C   0  0  0  0  0  0  0  0  0  0  0  0
    8.9588  -17.8873   27.8412 O   0  0  0  0  0  0  0  0  0  0  0  0
    9.8092  -16.3673   29.2468 O   0  0  0  0  0  0  0  0  0  0  0  0
  2  1  1  0
  2  3  1  0
  3  4  1  6
  5  3  1  0
  5  6  1  1
  7  5  1  0
  7  8  2  0
 10 12  1  0
 10  9  1  0
 11 10  2  0
 13 12  1  6
 13 14  1  0
 14  7  1  0
 15 13  1  0
 16 15  2  0
 18 20  1  0
 18 17  1  1
 19 18  1  0
 21 20  1  6
 21 22  1  0
 21 23  1  0
 22 15  1  0
 23 24  1  0
 25 23  2  0
M  END
$$$$
