INL.pdb
     RDKit          3D

 25 24  0  0  1  0  0  0  0  0999 V2000
    7.7910  -11.8921   20.0101 C   0  0  0  0  0  0  0  0  0  0  0  0
    7.5313  -13.4006   20.0605 C   0  0  0  0  0  0  0  0  0  0  0  0
    8.4749  -14.1345   19.1647 C   0  0  2  0  0  0  0  0  0  0  0  0
    8.4982  -13.5496   17.7775 C   0  0  0  0  0  0  0  0  0  0  0  0
    8.3186  -15.6342   19.1862 C   0  0  2  0  0  0  0  0  0  0  0  0
    7.0021  -15.9149   18.6017 N   0  0  0  0  0  0  0  0  0  0  0  0
    8.3281  -16.2263   20.5338 C   0  0  0  0  0  0  0  0  0  0  0  0
    7.2490  -16.4110   21.1610 O   0  0  0  0  0  0  0  0  0  0  0  0
   10.0299  -19.9401   24.3965 N   0  0  0  0  0  0  0  0  0  0  0  0
   10.6200  -18.7101   24.0906 C   0  0  0  0  0  0  0  0  0  0  0  0
   11.1809  -18.0702   25.0236 O   0  0  0  0  0  0  0  0  0  0  0  0
   10.6281  -18.1029   22.7210 C   0  0  0  0  0  0  0  0  0  0  0  0
    9.4488  -17.1316   22.5902 C   0  0  2  0  0  0  0  0  0  0  0  0
    9.5092  -16.6379   21.2369 N   0  0  0  0  0  0  0  0  0  0  0  0
    9.5137  -16.0929   23.6335 C   0  0  0  0  0  0  0  0  0  0  0  0
   10.5096  -15.3031   23.5578 O   0  0  0  0  0  0  0  0  0  0  0  0
    5.7853  -12.5579   26.8279 C   0  0  0  0  0  0  0  0  0  0  0  0
    7.1677  -13.0511   26.6479 C   0  0  2  0  0  0  0  0  0  0  0  0
    8.0521  -11.8817   26.1590 C   0  0  0  0  0  0  0  0  0  0  0  0
    7.4251  -14.1654   25.7281 C   0  0  0  0  0  0  0  0  0  0  0  0
    8.7379  -14.8418   25.6941 C   0  0  2  0  0  0  0  0  0  0  0  0
    8.5697  -15.9227   24.6781 N   0  0  0  0  0  0  0  0  0  0  0  0
    9.1998  -15.5165   26.9085 C   0  0  0  0  0  0  0  0  0  0  0  0
   10.2352  -14.9574   27.7045 O   0  0  0  0  0  0  0  0  0  0  0  0
    8.7623  -16.6085   27.3675 O   0  0  0  0  0  0  0  0  0  0  0  0
  2  1  1  0
  2  3  1  0
  3  4  1  6
  5  3  1  0
  5  6  1  1
  7  5  1  0
  7  8  2  0
 10 12  1  0
 10  9  1  0
 11 10  2  0
 13 12  1  1
 13 14  1  0
 14  7  1  0
 15 13  1  0
 16 15  2  0
 18 20  1  0
 18 17  1  6
 19 18  1  0
 21 20  1  1
 21 22  1  0
 21 23  1  0
 22 15  1  0
 23 24  1  0
 25 23  2  0
M  END
$$$$
