INL.pdb
     RDKit          3D

 25 24  0  0  1  0  0  0  0  0999 V2000
    8.1521  -12.0590   19.5329 C   0  0  0  0  0  0  0  0  0  0  0  0
    8.9829  -13.2799   19.1270 C   0  0  0  0  0  0  0  0  0  0  0  0
    8.1018  -14.4467   18.8209 C   0  0  2  0  0  0  0  0  0  0  0  0
    6.8580  -14.0296   18.0820 C   0  0  0  0  0  0  0  0  0  0  0  0
    7.8320  -15.3517   19.9966 C   0  0  2  0  0  0  0  0  0  0  0  0
    6.9985  -14.5776   20.9236 N   0  0  0  0  0  0  0  0  0  0  0  0
    9.0367  -15.7605   20.7371 C   0  0  0  0  0  0  0  0  0  0  0  0
    9.6303  -16.8369   20.4524 O   0  0  0  0  0  0  0  0  0  0  0  0
   12.6828  -13.8370   20.2169 N   0  0  0  0  0  0  0  0  0  0  0  0
   12.4628  -14.8706   21.1323 C   0  0  0  0  0  0  0  0  0  0  0  0
   12.7812  -16.0444   20.7930 O   0  0  0  0  0  0  0  0  0  0  0  0
   11.8713  -14.6710   22.4942 C   0  0  0  0  0  0  0  0  0  0  0  0
   10.6483  -15.5821   22.6542 C   0  0  2  0  0  0  0  0  0  0  0  0
    9.6328  -15.0104   21.8051 N   0  0  0  0  0  0  0  0  0  0  0  0
   10.2741  -15.7039   24.0743 C   0  0  0  0  0  0  0  0  0  0  0  0
   11.2353  -15.9410   24.8749 O   0  0  0  0  0  0  0  0  0  0  0  0
    8.3324  -12.4483   26.7793 C   0  0  0  0  0  0  0  0  0  0  0  0
    7.5206  -13.3599   25.9447 C   0  0  2  0  0  0  0  0  0  0  0  0
    6.0478  -12.8935   25.9886 C   0  0  0  0  0  0  0  0  0  0  0  0
    7.4999  -14.7954   26.2497 C   0  0  0  0  0  0  0  0  0  0  0  0
    8.6990  -15.6361   26.0561 C   0  0  2  0  0  0  0  0  0  0  0  0
    8.9580  -15.5765   24.5870 N   0  0  0  0  0  0  0  0  0  0  0  0
    8.6037  -17.0611   26.3778 C   0  0  0  0  0  0  0  0  0  0  0  0
    8.3718  -18.0246   25.3599 O   0  0  0  0  0  0  0  0  0  0  0  0
    8.7091  -17.5753   27.5263 O   0  0  0  0  0  0  0  0  0  0  0  0
  2  1  1  0
  2  3  1  0
  3  4  1  1
  5  3  1  0
  5  6  1  1
  7  5  1  0
  7  8  2  0
 10 12  1  0
 10  9  1  0
 11 10  2  0
 13 12  1  1
 13 14  1  0
 14  7  1  0
 15 13  1  0
 16 15  2  0
 18 20  1  0
 18 17  1  1
 19 18  1  0
 21 20  1  6
 21 22  1  0
 21 23  1  0
 22 15  1  0
 23 24  1  0
 25 23  2  0
M  END
$$$$
