INL.pdb
     RDKit          3D

 25 24  0  0  1  0  0  0  0  0999 V2000
    7.2118  -11.7879   19.8279 C   0  0  0  0  0  0  0  0  0  0  0  0
    7.2996  -13.2971   19.5824 C   0  0  0  0  0  0  0  0  0  0  0  0
    7.8338  -14.0030   20.7856 C   0  0  2  0  0  0  0  0  0  0  0  0
    9.0129  -13.2799   21.3805 C   0  0  0  0  0  0  0  0  0  0  0  0
    8.0653  -15.4804   20.5921 C   0  0  2  0  0  0  0  0  0  0  0  0
    6.7639  -16.0524   20.2279 N   0  0  0  0  0  0  0  0  0  0  0  0
    8.5248  -16.1861   21.7994 C   0  0  0  0  0  0  0  0  0  0  0  0
    7.6970  -16.7484   22.5679 O   0  0  0  0  0  0  0  0  0  0  0  0
   12.3792  -18.3299   20.8159 N   0  0  0  0  0  0  0  0  0  0  0  0
   11.7152  -18.5093   22.0331 C   0  0  0  0  0  0  0  0  0  0  0  0
   11.0800  -19.5859   22.2120 O   0  0  0  0  0  0  0  0  0  0  0  0
   11.7106  -17.5007   23.1409 C   0  0  0  0  0  0  0  0  0  0  0  0
   10.2730  -17.0300   23.3919 C   0  0  2  0  0  0  0  0  0  0  0  0
    9.8962  -16.3042   22.2043 N   0  0  0  0  0  0  0  0  0  0  0  0
   10.1910  -16.2572   24.6440 C   0  0  0  0  0  0  0  0  0  0  0  0
   11.3036  -16.0284   25.2193 O   0  0  0  0  0  0  0  0  0  0  0  0
    7.9114  -12.1742   25.9545 C   0  0  0  0  0  0  0  0  0  0  0  0
    7.2087  -13.4734   25.8835 C   0  0  2  0  0  0  0  0  0  0  0  0
    5.7153  -13.2485   26.2123 C   0  0  0  0  0  0  0  0  0  0  0  0
    7.6488  -14.5824   26.7380 C   0  0  0  0  0  0  0  0  0  0  0  0
    8.9962  -15.1707   26.5946 C   0  0  2  0  0  0  0  0  0  0  0  0
    8.9940  -15.7685   25.2266 N   0  0  0  0  0  0  0  0  0  0  0  0
    9.3744  -16.2606   27.4959 C   0  0  0  0  0  0  0  0  0  0  0  0
   10.0978  -16.0012   28.6908 O   0  0  0  0  0  0  0  0  0  0  0  0
    9.1202  -17.4866   27.3317 O   0  0  0  0  0  0  0  0  0  0  0  0
  2  1  1  0
  2  3  1  0
  3  4  1  6
  5  3  1  0
  5  6  1  1
  7  5  1  0
  7  8  2  0
 10 12  1  0
 10  9  1  0
 11 10  2  0
 13 12  1  6
 13 14  1  0
 14  7  1  0
 15 13  1  0
 16 15  2  0
 18 20  1  0
 18 17  1  1
 19 18  1  0
 21 20  1  1
 21 22  1  0
 21 23  1  0
 22 15  1  0
 23 24  1  0
 25 23  2  0
M  END
$$$$
