INL.pdb
     RDKit          3D

 25 24  0  0  1  0  0  0  0  0999 V2000
    7.6559  -11.8015   18.5431 C   0  0  0  0  0  0  0  0  0  0  0  0
    8.2436  -13.1970   18.3137 C   0  0  0  0  0  0  0  0  0  0  0  0
    8.3307  -13.9566   19.5969 C   0  0  2  0  0  0  0  0  0  0  0  0
    9.0389  -13.1682   20.6665 C   0  0  0  0  0  0  0  0  0  0  0  0
    8.8355  -15.3703   19.4535 C   0  0  2  0  0  0  0  0  0  0  0  0
    7.9015  -16.0463   18.5456 N   0  0  0  0  0  0  0  0  0  0  0  0
    8.8513  -16.1396   20.7084 C   0  0  0  0  0  0  0  0  0  0  0  0
    7.7789  -16.5869   21.2001 O   0  0  0  0  0  0  0  0  0  0  0  0
   10.4191  -20.2292   22.1311 N   0  0  0  0  0  0  0  0  0  0  0  0
   11.1496  -19.0584   21.9070 C   0  0  0  0  0  0  0  0  0  0  0  0
   11.7839  -18.9510   20.8204 O   0  0  0  0  0  0  0  0  0  0  0  0
   11.2266  -17.9207   22.8786 C   0  0  0  0  0  0  0  0  0  0  0  0
    9.9575  -17.0680   22.7623 C   0  0  2  0  0  0  0  0  0  0  0  0
   10.0323  -16.4477   21.4628 N   0  0  0  0  0  0  0  0  0  0  0  0
    9.8577  -16.1290   23.8937 C   0  0  0  0  0  0  0  0  0  0  0  0
   10.8095  -15.2892   23.9931 O   0  0  0  0  0  0  0  0  0  0  0  0
    5.7274  -12.7912   26.6587 C   0  0  0  0  0  0  0  0  0  0  0  0
    7.1186  -13.2921   26.6750 C   0  0  2  0  0  0  0  0  0  0  0  0
    8.0715  -12.1212   26.3435 C   0  0  0  0  0  0  0  0  0  0  0  0
    7.5029  -14.3919   25.7825 C   0  0  0  0  0  0  0  0  0  0  0  0
    8.7925  -15.0940   25.9448 C   0  0  2  0  0  0  0  0  0  0  0  0
    8.8049  -16.1019   24.8435 N   0  0  0  0  0  0  0  0  0  0  0  0
    9.0145  -15.8570   27.1743 C   0  0  0  0  0  0  0  0  0  0  0  0
    9.8028  -15.3257   28.2301 O   0  0  0  0  0  0  0  0  0  0  0  0
    8.5615  -17.0076   27.4303 O   0  0  0  0  0  0  0  0  0  0  0  0
  2  1  1  0
  2  3  1  0
  3  4  1  1
  5  3  1  0
  5  6  1  6
  7  5  1  0
  7  8  2  0
 10 12  1  0
 10  9  1  0
 11 10  2  0
 13 12  1  1
 13 14  1  0
 14  7  1  0
 15 13  1  0
 16 15  2  0
 18 20  1  0
 18 17  1  6
 19 18  1  0
 21 20  1  1
 21 22  1  0
 21 23  1  0
 22 15  1  0
 23 24  1  0
 25 23  2  0
M  END
$$$$
