INL.pdb
     RDKit          3D

 25 24  0  0  1  0  0  0  0  0999 V2000
    7.3826  -12.7427   17.2391 C   0  0  0  0  0  0  0  0  0  0  0  0
    8.5762  -12.8538   18.1921 C   0  0  0  0  0  0  0  0  0  0  0  0
    8.2011  -13.5968   19.4325 C   0  0  2  0  0  0  0  0  0  0  0  0
    6.9213  -13.0760   20.0309 C   0  0  0  0  0  0  0  0  0  0  0  0
    9.3191  -13.7476   20.4331 C   0  0  2  0  0  0  0  0  0  0  0  0
   10.4862  -14.2105   19.6733 N   0  0  0  0  0  0  0  0  0  0  0  0
    9.0632  -14.7469   21.4833 C   0  0  0  0  0  0  0  0  0  0  0  0
    8.0705  -14.6286   22.2531 O   0  0  0  0  0  0  0  0  0  0  0  0
   11.0401  -20.1848   23.8327 N   0  0  0  0  0  0  0  0  0  0  0  0
   10.2339  -19.0666   23.5999 C   0  0  0  0  0  0  0  0  0  0  0  0
    9.1565  -18.9633   24.2503 O   0  0  0  0  0  0  0  0  0  0  0  0
   10.5700  -17.9805   22.6242 C   0  0  0  0  0  0  0  0  0  0  0  0
    9.5910  -16.8145   22.8064 C   0  0  2  0  0  0  0  0  0  0  0  0
    9.8758  -15.9045   21.7248 N   0  0  0  0  0  0  0  0  0  0  0  0
    9.7192  -16.2352   24.1553 C   0  0  0  0  0  0  0  0  0  0  0  0
   10.9118  -16.0313   24.5519 O   0  0  0  0  0  0  0  0  0  0  0  0
    8.1593  -12.2142   26.3134 C   0  0  0  0  0  0  0  0  0  0  0  0
    7.3353  -13.4170   26.0667 C   0  0  2  0  0  0  0  0  0  0  0  0
    5.8691  -13.0987   26.4374 C   0  0  0  0  0  0  0  0  0  0  0  0
    7.6629  -14.6724   26.7527 C   0  0  0  0  0  0  0  0  0  0  0  0
    8.8776  -15.4388   26.4071 C   0  0  2  0  0  0  0  0  0  0  0  0
    8.6365  -15.9010   25.0081 N   0  0  0  0  0  0  0  0  0  0  0  0
    9.1716  -16.6512   27.1731 C   0  0  0  0  0  0  0  0  0  0  0  0
    9.8429  -16.5793   28.4232 O   0  0  0  0  0  0  0  0  0  0  0  0
    8.8830  -17.8339   26.8377 O   0  0  0  0  0  0  0  0  0  0  0  0
  2  1  1  0
  2  3  1  0
  3  4  1  1
  5  3  1  0
  5  6  1  6
  7  5  1  0
  7  8  2  0
 10 12  1  0
 10  9  1  0
 11 10  2  0
 13 12  1  1
 13 14  1  0
 14  7  1  0
 15 13  1  0
 16 15  2  0
 18 20  1  0
 18 17  1  1
 19 18  1  0
 21 20  1  1
 21 22  1  0
 21 23  1  0
 22 15  1  0
 23 24  1  0
 25 23  2  0
M  END
$$$$
