INL.pdb
     RDKit          3D

 25 24  0  0  1  0  0  0  0  0999 V2000
    7.4456  -11.9969   18.5628 C   0  0  0  0  0  0  0  0  0  0  0  0
    7.9104  -13.4434   18.3702 C   0  0  0  0  0  0  0  0  0  0  0  0
    8.1206  -14.1160   19.6873 C   0  0  2  0  0  0  0  0  0  0  0  0
    8.9431  -13.2696   20.6224 C   0  0  0  0  0  0  0  0  0  0  0  0
    8.5931  -15.5448   19.5913 C   0  0  2  0  0  0  0  0  0  0  0  0
    7.5671  -16.2625   18.8259 N   0  0  0  0  0  0  0  0  0  0  0  0
    8.7230  -16.2296   20.8878 C   0  0  0  0  0  0  0  0  0  0  0  0
    7.6977  -16.5504   21.5495 O   0  0  0  0  0  0  0  0  0  0  0  0
   11.3602  -20.4317   23.2217 N   0  0  0  0  0  0  0  0  0  0  0  0
   11.1711  -19.1388   23.7190 C   0  0  0  0  0  0  0  0  0  0  0  0
   10.8235  -19.0099   24.9261 O   0  0  0  0  0  0  0  0  0  0  0  0
   11.3558  -17.8939   22.9063 C   0  0  0  0  0  0  0  0  0  0  0  0
   10.0261  -17.1336   22.8344 C   0  0  2  0  0  0  0  0  0  0  0  0
    9.9698  -16.5886   21.5006 N   0  0  0  0  0  0  0  0  0  0  0  0
    9.9389  -16.1370   23.9164 C   0  0  0  0  0  0  0  0  0  0  0  0
   10.8445  -15.2421   23.9101 O   0  0  0  0  0  0  0  0  0  0  0  0
    8.4217  -12.3904   27.2374 C   0  0  0  0  0  0  0  0  0  0  0  0
    7.5740  -12.8461   26.1147 C   0  0  2  0  0  0  0  0  0  0  0  0
    6.0915  -12.7482   26.5407 C   0  0  0  0  0  0  0  0  0  0  0  0
    7.7518  -14.1996   25.5759 C   0  0  0  0  0  0  0  0  0  0  0  0
    8.9185  -15.0249   25.9500 C   0  0  2  0  0  0  0  0  0  0  0  0
    8.9444  -16.1122   24.9272 N   0  0  0  0  0  0  0  0  0  0  0  0
    8.8959  -15.7079   27.2447 C   0  0  0  0  0  0  0  0  0  0  0  0
    9.5964  -15.1778   28.3612 O   0  0  0  0  0  0  0  0  0  0  0  0
    8.2897  -16.7833   27.5103 O   0  0  0  0  0  0  0  0  0  0  0  0
  2  1  1  0
  2  3  1  0
  3  4  1  1
  5  3  1  0
  5  6  1  6
  7  5  1  0
  7  8  2  0
 10 12  1  0
 10  9  1  0
 11 10  2  0
 13 12  1  6
 13 14  1  0
 14  7  1  0
 15 13  1  0
 16 15  2  0
 18 20  1  0
 18 17  1  1
 19 18  1  0
 21 20  1  6
 21 22  1  0
 21 23  1  0
 22 15  1  0
 23 24  1  0
 25 23  2  0
M  END
$$$$
