INL.pdb
     RDKit          3D

 25 24  0  0  1  0  0  0  0  0999 V2000
    7.2686  -11.7805   18.7932 C   0  0  0  0  0  0  0  0  0  0  0  0
    7.8303  -13.1969   18.6389 C   0  0  0  0  0  0  0  0  0  0  0  0
    8.0515  -13.8313   19.9731 C   0  0  2  0  0  0  0  0  0  0  0  0
    8.8783  -12.9567   20.8780 C   0  0  0  0  0  0  0  0  0  0  0  0
    8.5269  -15.2611   19.9144 C   0  0  2  0  0  0  0  0  0  0  0  0
    7.5245  -15.9918   19.1305 N   0  0  0  0  0  0  0  0  0  0  0  0
    8.6182  -15.9248   21.2252 C   0  0  0  0  0  0  0  0  0  0  0  0
    7.5873  -16.3980   21.7777 O   0  0  0  0  0  0  0  0  0  0  0  0
   11.5055  -18.6422   21.0097 N   0  0  0  0  0  0  0  0  0  0  0  0
   10.9816  -18.6909   22.3050 C   0  0  0  0  0  0  0  0  0  0  0  0
   10.3635  -19.7337   22.6587 O   0  0  0  0  0  0  0  0  0  0  0  0
   11.1085  -17.5797   23.3018 C   0  0  0  0  0  0  0  0  0  0  0  0
    9.8375  -16.7225   23.2700 C   0  0  2  0  0  0  0  0  0  0  0  0
    9.8318  -16.0965   21.9711 N   0  0  0  0  0  0  0  0  0  0  0  0
    9.8127  -15.7884   24.4095 C   0  0  0  0  0  0  0  0  0  0  0  0
    9.4758  -14.5929   24.1295 O   0  0  0  0  0  0  0  0  0  0  0  0
    8.2882  -12.6536   26.6862 C   0  0  0  0  0  0  0  0  0  0  0  0
    7.8065  -13.7790   25.8567 C   0  0  2  0  0  0  0  0  0  0  0  0
    6.2741  -13.6575   25.6971 C   0  0  0  0  0  0  0  0  0  0  0  0
    8.0604  -15.1582   26.2895 C   0  0  0  0  0  0  0  0  0  0  0  0
    9.3538  -15.5465   26.8882 C   0  0  2  0  0  0  0  0  0  0  0  0
   10.1278  -16.1257   25.7504 N   0  0  0  0  0  0  0  0  0  0  0  0
    9.3534  -16.5795   27.9255 C   0  0  0  0  0  0  0  0  0  0  0  0
    9.6013  -16.2484   29.2846 O   0  0  0  0  0  0  0  0  0  0  0  0
    9.1461  -17.8127   27.7501 O   0  0  0  0  0  0  0  0  0  0  0  0
  2  1  1  0
  2  3  1  0
  3  4  1  6
  5  3  1  0
  5  6  1  6
  7  5  1  0
  7  8  2  0
 10 12  1  0
 10  9  1  0
 11 10  2  0
 13 12  1  1
 13 14  1  0
 14  7  1  0
 15 13  1  0
 16 15  2  0
 18 20  1  0
 18 17  1  1
 19 18  1  0
 21 20  1  6
 21 22  1  0
 21 23  1  0
 22 15  1  0
 23 24  1  0
 25 23  2  0
M  END
$$$$
