INL.pdb
     RDKit          3D

 25 24  0  0  1  0  0  0  0  0999 V2000
    6.2869  -12.4689   19.9784 C   0  0  0  0  0  0  0  0  0  0  0  0
    6.9965  -13.7816   19.6335 C   0  0  0  0  0  0  0  0  0  0  0  0
    7.7726  -14.2917   20.8034 C   0  0  2  0  0  0  0  0  0  0  0  0
    8.6804  -13.2356   21.3758 C   0  0  0  0  0  0  0  0  0  0  0  0
    8.4563  -15.6154   20.5708 C   0  0  2  0  0  0  0  0  0  0  0  0
    7.4006  -16.5557   20.1773 N   0  0  0  0  0  0  0  0  0  0  0  0
    9.1130  -16.1772   21.7624 C   0  0  0  0  0  0  0  0  0  0  0  0
    8.5437  -17.0711   22.4472 O   0  0  0  0  0  0  0  0  0  0  0  0
   12.9625  -18.4695   23.8980 N   0  0  0  0  0  0  0  0  0  0  0  0
   13.4195  -17.1950   23.5496 C   0  0  0  0  0  0  0  0  0  0  0  0
   14.6656  -17.0146   23.4539 O   0  0  0  0  0  0  0  0  0  0  0  0
   12.5199  -16.0272   23.2820 C   0  0  0  0  0  0  0  0  0  0  0  0
   11.0597  -16.4939   23.3163 C   0  0  2  0  0  0  0  0  0  0  0  0
   10.4078  -15.7868   22.2420 N   0  0  0  0  0  0  0  0  0  0  0  0
   10.4750  -16.2717   24.6506 C   0  0  0  0  0  0  0  0  0  0  0  0
   11.0767  -16.8468   25.6141 O   0  0  0  0  0  0  0  0  0  0  0  0
    8.5958  -12.2183   26.5905 C   0  0  0  0  0  0  0  0  0  0  0  0
    7.7786  -13.1190   25.7494 C   0  0  2  0  0  0  0  0  0  0  0  0
    6.3620  -12.5172   25.6088 C   0  0  0  0  0  0  0  0  0  0  0  0
    7.5865  -14.5154   26.1582 C   0  0  0  0  0  0  0  0  0  0  0  0
    8.7319  -15.4391   26.2882 C   0  0  2  0  0  0  0  0  0  0  0  0
    9.3265  -15.4844   24.9195 N   0  0  0  0  0  0  0  0  0  0  0  0
    8.4593  -16.8335   26.6413 C   0  0  0  0  0  0  0  0  0  0  0  0
    8.5588  -17.2779   27.9870 O   0  0  0  0  0  0  0  0  0  0  0  0
    8.1239  -17.7531   25.8436 O   0  0  0  0  0  0  0  0  0  0  0  0
  2  1  1  0
  2  3  1  0
  3  4  1  6
  5  3  1  0
  5  6  1  1
  7  5  1  0
  7  8  2  0
 10 12  1  0
 10  9  1  0
 11 10  2  0
 13 12  1  1
 13 14  1  0
 14  7  1  0
 15 13  1  0
 16 15  2  0
 18 20  1  0
 18 17  1  1
 19 18  1  0
 21 20  1  6
 21 22  1  0
 21 23  1  0
 22 15  1  0
 23 24  1  0
 25 23  2  0
M  END
$$$$
