YPQ.pdb
     RDKit          3D

 29 30  0  0  1  0  0  0  0  0999 V2000
    5.3299  -10.6027   28.4164 O   0  0  0  0  0  0  0  0  0  0  0  0
    5.9448  -11.5055   27.5442 C   0  0  0  0  0  0  0  0  0  0  0  0
    7.2258  -11.9597   27.7947 C   0  0  0  0  0  0  0  0  0  0  0  0
    7.8560  -12.8475   26.9552 C   0  0  0  0  0  0  0  0  0  0  0  0
    7.2291  -13.3222   25.8227 C   0  0  0  0  0  0  0  0  0  0  0  0
    7.9175  -14.2884   24.9137 C   0  0  0  0  0  0  0  0  0  0  0  0
    6.9702  -15.3822   24.4714 C   0  0  2  0  0  0  0  0  0  0  0  0
    6.5999  -16.2570   25.5395 N   0  0  0  0  0  0  0  0  0  0  0  0
    7.4866  -16.0868   23.2711 C   0  0  0  0  0  0  0  0  0  0  0  0
    7.6742  -17.3511   23.3273 O   0  0  0  0  0  0  0  0  0  0  0  0
    5.9513  -12.8753   25.5640 C   0  0  0  0  0  0  0  0  0  0  0  0
    5.3367  -11.9864   26.4162 C   0  0  0  0  0  0  0  0  0  0  0  0
    7.7953  -15.4512   22.0369 N   0  0  0  0  0  0  0  0  0  0  0  0
    7.4725  -14.0762   21.6899 C   0  0  0  0  0  0  0  0  0  0  0  0
    8.2392  -13.8564   20.4171 C   0  0  0  0  0  0  0  0  0  0  0  0
    8.1987  -15.1955   19.7487 C   0  0  0  0  0  0  0  0  0  0  0  0
    8.4869  -16.1091   20.9476 C   0  0  1  0  0  0  0  0  0  0  0  0
    9.9668  -16.0751   21.1487 C   0  0  0  0  0  0  0  0  0  0  0  0
   10.5814  -15.0337   21.5023 O   0  0  0  0  0  0  0  0  0  0  0  0
   12.5903  -18.7104   25.3564 N   0  0  0  0  0  0  0  0  0  0  0  0
   11.4531  -19.2546   24.7165 C   0  0  0  0  0  0  0  0  0  0  0  0
   10.8201  -20.1828   25.3115 O   0  0  0  0  0  0  0  0  0  0  0  0
   11.0054  -18.7547   23.3783 C   0  0  0  0  0  0  0  0  0  0  0  0
   11.8526  -17.5811   23.0227 C   0  0  0  0  0  0  0  0  0  0  0  0
   12.0579  -17.4394   21.5245 C   0  0  2  0  0  0  0  0  0  0  0  0
   10.7241  -17.2591   20.9356 N   0  0  0  0  0  0  0  0  0  0  0  0
   12.6748  -18.7040   21.0637 C   0  0  0  0  0  0  0  0  0  0  0  0
   13.9002  -18.8630   21.2617 O   0  0  0  0  0  0  0  0  0  0  0  0
   11.9446  -19.6699   20.4438 O   0  0  0  0  0  0  0  0  0  0  0  0
  2  1  1  0
  3  2  2  0
  4  3  1  0
  5 11  1  0
  5  4  2  0
  6  5  1  0
  7  6  1  0
  7  8  1  1
  9  7  1  0
 10  9  2  0
 11 12  2  0
 12  2  1  0
 13  9  1  0
 13 17  1  0
 14 15  1  0
 14 13  1  0
 15 16  1  0
 16 17  1  0
 18 26  1  0
 17 18  1  1
 19 18  2  0
 20 21  1  0
 21 22  2  0
 23 24  1  0
 23 21  1  0
 25 24  1  1
 25 27  1  0
 25 26  1  0
 27 29  1  0
 28 27  2  0
M  END
$$$$
