YPQ.pdb
     RDKit          3D

 29 30  0  0  1  0  0  0  0  0999 V2000
    9.7074  -13.9018   30.6990 O   0  0  0  0  0  0  0  0  0  0  0  0
    9.5896  -14.2689   29.3554 C   0  0  0  0  0  0  0  0  0  0  0  0
   10.1492  -15.4475   28.8996 C   0  0  0  0  0  0  0  0  0  0  0  0
   10.0496  -15.8346   27.5841 C   0  0  0  0  0  0  0  0  0  0  0  0
    9.3827  -15.0557   26.6625 C   0  0  0  0  0  0  0  0  0  0  0  0
    9.2757  -15.4812   25.2339 C   0  0  0  0  0  0  0  0  0  0  0  0
    7.9026  -16.0450   24.9398 C   0  0  2  0  0  0  0  0  0  0  0  0
    7.5360  -17.0991   25.8328 N   0  0  0  0  0  0  0  0  0  0  0  0
    7.7637  -16.3991   23.5048 C   0  0  0  0  0  0  0  0  0  0  0  0
    7.5807  -17.6240   23.1836 O   0  0  0  0  0  0  0  0  0  0  0  0
    8.8211  -13.8783   27.1072 C   0  0  0  0  0  0  0  0  0  0  0  0
    8.9312  -13.5075   28.4280 C   0  0  0  0  0  0  0  0  0  0  0  0
    7.8194  -15.4619   22.4367 N   0  0  0  0  0  0  0  0  0  0  0  0
    7.7881  -14.0148   22.5789 C   0  0  0  0  0  0  0  0  0  0  0  0
    8.1339  -13.5288   21.2004 C   0  0  0  0  0  0  0  0  0  0  0  0
    7.5190  -14.5569   20.3025 C   0  0  0  0  0  0  0  0  0  0  0  0
    7.9180  -15.8409   21.0423 C   0  0  1  0  0  0  0  0  0  0  0  0
    9.3344  -16.1184   20.6570 C   0  0  0  0  0  0  0  0  0  0  0  0
   10.2950  -15.3929   21.0287 O   0  0  0  0  0  0  0  0  0  0  0  0
   11.2598  -21.1356   22.0709 N   0  0  0  0  0  0  0  0  0  0  0  0
   11.3097  -19.8846   22.7278 C   0  0  0  0  0  0  0  0  0  0  0  0
   11.4694  -19.8784   23.9890 O   0  0  0  0  0  0  0  0  0  0  0  0
   11.1786  -18.6040   21.9637 C   0  0  0  0  0  0  0  0  0  0  0  0
   11.1764  -18.9376   20.5109 C   0  0  0  0  0  0  0  0  0  0  0  0
   10.9999  -17.7137   19.6292 C   0  0  2  0  0  0  0  0  0  0  0  0
    9.6237  -17.2437   19.8380 N   0  0  0  0  0  0  0  0  0  0  0  0
   11.1992  -18.1687   18.2344 C   0  0  0  0  0  0  0  0  0  0  0  0
   10.1824  -18.3561   17.5295 O   0  0  0  0  0  0  0  0  0  0  0  0
   12.4420  -18.3799   17.7233 O   0  0  0  0  0  0  0  0  0  0  0  0
  2  1  1  0
  3  2  2  0
  4  3  1  0
  5 11  1  0
  5  4  2  0
  6  5  1  0
  7  6  1  0
  7  8  1  1
  9  7  1  0
 10  9  2  0
 11 12  2  0
 12  2  1  0
 13  9  1  0
 13 17  1  0
 14 15  1  0
 14 13  1  0
 15 16  1  0
 16 17  1  0
 18 26  1  0
 17 18  1  6
 19 18  2  0
 20 21  1  0
 21 22  2  0
 23 24  1  0
 23 21  1  0
 25 24  1  1
 25 27  1  0
 25 26  1  0
 27 29  1  0
 28 27  2  0
M  END
$$$$
