YPQ.pdb
     RDKit          3D

 29 30  0  0  1  0  0  0  0  0999 V2000
    3.0308  -18.4867   19.1442 O   0  0  0  0  0  0  0  0  0  0  0  0
    3.8562  -17.9709   20.1476 C   0  0  0  0  0  0  0  0  0  0  0  0
    4.8512  -18.7507   20.7059 C   0  0  0  0  0  0  0  0  0  0  0  0
    5.6780  -18.2708   21.6940 C   0  0  0  0  0  0  0  0  0  0  0  0
    5.5449  -16.9833   22.1690 C   0  0  0  0  0  0  0  0  0  0  0  0
    6.4468  -16.4653   23.2421 C   0  0  0  0  0  0  0  0  0  0  0  0
    7.4114  -15.4395   22.6882 C   0  0  2  0  0  0  0  0  0  0  0  0
    8.0252  -15.8612   21.4682 N   0  0  0  0  0  0  0  0  0  0  0  0
    8.3782  -14.9971   23.7243 C   0  0  0  0  0  0  0  0  0  0  0  0
    9.6022  -15.3555   23.6232 O   0  0  0  0  0  0  0  0  0  0  0  0
    4.5555  -16.1976   21.6185 C   0  0  0  0  0  0  0  0  0  0  0  0
    3.7374  -16.6956   20.6301 C   0  0  0  0  0  0  0  0  0  0  0  0
    8.0417  -14.1881   24.8444 N   0  0  0  0  0  0  0  0  0  0  0  0
    6.7423  -13.5829   25.0906 C   0  0  0  0  0  0  0  0  0  0  0  0
    6.8630  -13.0768   26.4996 C   0  0  0  0  0  0  0  0  0  0  0  0
    8.3002  -12.6707   26.6036 C   0  0  0  0  0  0  0  0  0  0  0  0
    8.9724  -13.8601   25.9046 C   0  0  1  0  0  0  0  0  0  0  0  0
    9.0409  -14.9534   26.9204 C   0  0  0  0  0  0  0  0  0  0  0  0
    8.0215  -15.5787   27.3166 O   0  0  0  0  0  0  0  0  0  0  0  0
   14.2213  -19.9792   28.1652 N   0  0  0  0  0  0  0  0  0  0  0  0
   13.4632  -18.9276   27.6008 C   0  0  0  0  0  0  0  0  0  0  0  0
   13.8818  -18.4025   26.5213 O   0  0  0  0  0  0  0  0  0  0  0  0
   12.2050  -18.4448   28.2526 C   0  0  0  0  0  0  0  0  0  0  0  0
   11.8088  -17.1692   27.5912 C   0  0  0  0  0  0  0  0  0  0  0  0
   10.5122  -16.6019   28.1422 C   0  0  2  0  0  0  0  0  0  0  0  0
   10.3017  -15.3126   27.4701 N   0  0  0  0  0  0  0  0  0  0  0  0
   10.7201  -16.4146   29.5962 C   0  0  0  0  0  0  0  0  0  0  0  0
   10.8277  -15.2440   30.0254 O   0  0  0  0  0  0  0  0  0  0  0  0
   10.7937  -17.4719   30.4487 O   0  0  0  0  0  0  0  0  0  0  0  0
  2  1  1  0
  3  2  2  0
  4  3  1  0
  5 11  1  0
  5  4  2  0
  6  5  1  0
  7  6  1  0
  7  8  1  6
  9  7  1  0
 10  9  2  0
 11 12  2  0
 12  2  1  0
 13  9  1  0
 13 17  1  0
 14 15  1  0
 14 13  1  0
 15 16  1  0
 16 17  1  0
 18 26  1  0
 17 18  1  1
 19 18  2  0
 20 21  1  0
 21 22  2  0
 23 24  1  0
 23 21  1  0
 25 24  1  6
 25 27  1  0
 25 26  1  0
 27 29  1  0
 28 27  2  0
M  END
$$$$
