YPQ.pdb
     RDKit          3D

 29 30  0  0  1  0  0  0  0  0999 V2000
   11.6319  -14.8775   28.7913 O   0  0  0  0  0  0  0  0  0  0  0  0
   10.4296  -14.9198   28.0795 C   0  0  0  0  0  0  0  0  0  0  0  0
    9.7671  -16.1184   27.8939 C   0  0  0  0  0  0  0  0  0  0  0  0
    8.5834  -16.1909   27.1984 C   0  0  0  0  0  0  0  0  0  0  0  0
    8.0077  -15.0618   26.6556 C   0  0  0  0  0  0  0  0  0  0  0  0
    6.7200  -15.1451   25.9017 C   0  0  0  0  0  0  0  0  0  0  0  0
    6.5265  -16.5261   25.3144 C   0  0  2  0  0  0  0  0  0  0  0  0
    6.7657  -17.5680   26.2632 N   0  0  0  0  0  0  0  0  0  0  0  0
    7.2858  -16.6823   24.0483 C   0  0  0  0  0  0  0  0  0  0  0  0
    7.8117  -17.8167   23.7768 O   0  0  0  0  0  0  0  0  0  0  0  0
    8.6605  -13.8615   26.8353 C   0  0  0  0  0  0  0  0  0  0  0  0
    9.8449  -13.8087   27.5345 C   0  0  0  0  0  0  0  0  0  0  0  0
    7.4777  -15.6463   23.0932 N   0  0  0  0  0  0  0  0  0  0  0  0
    6.8862  -14.3190   23.1550 C   0  0  0  0  0  0  0  0  0  0  0  0
    7.6120  -13.5712   22.0733 C   0  0  0  0  0  0  0  0  0  0  0  0
    7.8569  -14.6161   21.0294 C   0  0  0  0  0  0  0  0  0  0  0  0
    8.3066  -15.7870   21.9138 C   0  0  1  0  0  0  0  0  0  0  0  0
    9.7448  -15.5379   22.2318 C   0  0  0  0  0  0  0  0  0  0  0  0
   10.1425  -14.4912   22.8093 O   0  0  0  0  0  0  0  0  0  0  0  0
   11.2249  -19.7413   25.4328 N   0  0  0  0  0  0  0  0  0  0  0  0
   12.5204  -19.1748   25.4425 C   0  0  0  0  0  0  0  0  0  0  0  0
   13.3558  -19.6093   26.2966 O   0  0  0  0  0  0  0  0  0  0  0  0
   12.8997  -18.0955   24.4769 C   0  0  0  0  0  0  0  0  0  0  0  0
   11.7106  -17.8057   23.6262 C   0  0  0  0  0  0  0  0  0  0  0  0
   11.9593  -16.6819   22.6353 C   0  0  2  0  0  0  0  0  0  0  0  0
   10.7144  -16.5139   21.8735 N   0  0  0  0  0  0  0  0  0  0  0  0
   13.0622  -17.1332   21.7566 C   0  0  0  0  0  0  0  0  0  0  0  0
   12.7598  -17.7093   20.6876 O   0  0  0  0  0  0  0  0  0  0  0  0
   14.3662  -16.9344   22.0886 O   0  0  0  0  0  0  0  0  0  0  0  0
  2  1  1  0
  3  2  2  0
  4  3  1  0
  5 11  1  0
  5  4  2  0
  6  5  1  0
  7  6  1  0
  7  8  1  1
  9  7  1  0
 10  9  2  0
 11 12  2  0
 12  2  1  0
 13  9  1  0
 13 17  1  0
 14 15  1  0
 14 13  1  0
 15 16  1  0
 16 17  1  0
 18 26  1  0
 17 18  1  1
 19 18  2  0
 20 21  1  0
 21 22  2  0
 23 24  1  0
 23 21  1  0
 25 24  1  1
 25 27  1  0
 25 26  1  0
 27 29  1  0
 28 27  2  0
M  END
$$$$
