YPQ.pdb
     RDKit          3D

 29 30  0  0  1  0  0  0  0  0999 V2000
   11.0961  -14.9430   29.5687 O   0  0  0  0  0  0  0  0  0  0  0  0
   10.2035  -14.6859   28.5241 C   0  0  0  0  0  0  0  0  0  0  0  0
   10.2504  -15.4334   27.3626 C   0  0  0  0  0  0  0  0  0  0  0  0
    9.3858  -15.2036   26.3187 C   0  0  0  0  0  0  0  0  0  0  0  0
    8.4316  -14.2110   26.3915 C   0  0  0  0  0  0  0  0  0  0  0  0
    7.4928  -13.9657   25.2548 C   0  0  0  0  0  0  0  0  0  0  0  0
    6.7148  -15.2188   24.9171 C   0  0  2  0  0  0  0  0  0  0  0  0
    6.5929  -16.1092   26.0285 N   0  0  0  0  0  0  0  0  0  0  0  0
    7.2418  -15.8629   23.6877 C   0  0  0  0  0  0  0  0  0  0  0  0
    7.4021  -17.1322   23.6730 O   0  0  0  0  0  0  0  0  0  0  0  0
    8.3767  -13.4599   27.5457 C   0  0  0  0  0  0  0  0  0  0  0  0
    9.2509  -13.7048   28.5802 C   0  0  0  0  0  0  0  0  0  0  0  0
    7.5896  -15.1631   22.4996 N   0  0  0  0  0  0  0  0  0  0  0  0
    7.3533  -13.7498   22.2508 C   0  0  0  0  0  0  0  0  0  0  0  0
    8.1321  -13.4897   20.9931 C   0  0  0  0  0  0  0  0  0  0  0  0
    8.0081  -14.7736   20.2330 C   0  0  0  0  0  0  0  0  0  0  0  0
    8.2387  -15.7850   21.3640 C   0  0  1  0  0  0  0  0  0  0  0  0
    9.7179  -15.8573   21.5605 C   0  0  0  0  0  0  0  0  0  0  0  0
   10.3850  -14.9118   22.0587 O   0  0  0  0  0  0  0  0  0  0  0  0
   11.2327  -20.8044   23.9452 N   0  0  0  0  0  0  0  0  0  0  0  0
   11.0500  -19.5730   24.6154 C   0  0  0  0  0  0  0  0  0  0  0  0
   10.7579  -19.6039   25.8523 O   0  0  0  0  0  0  0  0  0  0  0  0
   11.1957  -18.2701   23.8927 C   0  0  0  0  0  0  0  0  0  0  0  0
   11.6779  -18.5647   22.5135 C   0  0  0  0  0  0  0  0  0  0  0  0
   11.7740  -17.3201   21.6483 C   0  0  2  0  0  0  0  0  0  0  0  0
   10.4131  -17.0354   21.1738 N   0  0  0  0  0  0  0  0  0  0  0  0
   12.6690  -17.6616   20.5193 C   0  0  0  0  0  0  0  0  0  0  0  0
   13.8994  -17.7104   20.7426 O   0  0  0  0  0  0  0  0  0  0  0  0
   12.1826  -17.9163   19.2748 O   0  0  0  0  0  0  0  0  0  0  0  0
  2  1  1  0
  3  2  2  0
  4  3  1  0
  5 11  1  0
  5  4  2  0
  6  5  1  0
  7  6  1  0
  7  8  1  1
  9  7  1  0
 10  9  2  0
 11 12  2  0
 12  2  1  0
 13  9  1  0
 13 17  1  0
 14 15  1  0
 14 13  1  0
 15 16  1  0
 16 17  1  0
 18 26  1  0
 17 18  1  1
 19 18  2  0
 20 21  1  0
 21 22  2  0
 23 24  1  0
 23 21  1  0
 25 24  1  1
 25 27  1  0
 25 26  1  0
 27 29  1  0
 28 27  2  0
M  END
$$$$
