YPQ.pdb
     RDKit          3D

 29 30  0  0  1  0  0  0  0  0999 V2000
    5.4681  -12.0034   27.2832 O   0  0  0  0  0  0  0  0  0  0  0  0
    6.1394  -12.7281   26.2942 C   0  0  0  0  0  0  0  0  0  0  0  0
    6.2004  -14.1073   26.3560 C   0  0  0  0  0  0  0  0  0  0  0  0
    6.8533  -14.8465   25.3981 C   0  0  0  0  0  0  0  0  0  0  0  0
    7.4768  -14.2352   24.3312 C   0  0  0  0  0  0  0  0  0  0  0  0
    8.1841  -15.0428   23.2915 C   0  0  0  0  0  0  0  0  0  0  0  0
    9.6782  -15.0410   23.5304 C   0  0  2  0  0  0  0  0  0  0  0  0
   10.4134  -15.5863   22.4326 N   0  0  0  0  0  0  0  0  0  0  0  0
   10.0132  -15.6544   24.8401 C   0  0  0  0  0  0  0  0  0  0  0  0
   10.3646  -16.8841   24.8769 O   0  0  0  0  0  0  0  0  0  0  0  0
    7.4216  -12.8599   24.2605 C   0  0  0  0  0  0  0  0  0  0  0  0
    6.7633  -12.1369   25.2290 C   0  0  0  0  0  0  0  0  0  0  0  0
    9.9730  -14.9659   26.0838 N   0  0  0  0  0  0  0  0  0  0  0  0
    9.3620  -13.6659   26.3113 C   0  0  0  0  0  0  0  0  0  0  0  0
    9.3730  -13.5408   27.8081 C   0  0  0  0  0  0  0  0  0  0  0  0
   10.6303  -14.2477   28.2090 C   0  0  0  0  0  0  0  0  0  0  0  0
   10.5477  -15.4867   27.3071 C   0  0  1  0  0  0  0  0  0  0  0  0
    9.6097  -16.4313   27.9849 C   0  0  0  0  0  0  0  0  0  0  0  0
    8.4892  -16.0716   28.4349 O   0  0  0  0  0  0  0  0  0  0  0  0
    6.3121  -19.9492   25.7288 N   0  0  0  0  0  0  0  0  0  0  0  0
    7.6818  -20.0934   25.4091 C   0  0  0  0  0  0  0  0  0  0  0  0
    7.9819  -20.5934   24.2795 O   0  0  0  0  0  0  0  0  0  0  0  0
    8.7489  -19.6707   26.3701 C   0  0  0  0  0  0  0  0  0  0  0  0
    8.0791  -19.1382   27.5906 C   0  0  0  0  0  0  0  0  0  0  0  0
    9.0628  -18.7919   28.6947 C   0  0  2  0  0  0  0  0  0  0  0  0
    9.9846  -17.7943   28.1349 N   0  0  0  0  0  0  0  0  0  0  0  0
    9.7767  -20.0451   29.0294 C   0  0  0  0  0  0  0  0  0  0  0  0
    9.1405  -20.9367   29.6347 O   0  0  0  0  0  0  0  0  0  0  0  0
   11.0817  -20.2340   28.6956 O   0  0  0  0  0  0  0  0  0  0  0  0
  2  1  1  0
  3  2  2  0
  4  3  1  0
  5 11  1  0
  5  4  2  0
  6  5  1  0
  7  6  1  0
  7  8  1  6
  9  7  1  0
 10  9  2  0
 11 12  2  0
 12  2  1  0
 13  9  1  0
 13 17  1  0
 14 15  1  0
 14 13  1  0
 15 16  1  0
 16 17  1  0
 18 26  1  0
 17 18  1  1
 19 18  2  0
 20 21  1  0
 21 22  2  0
 23 24  1  0
 23 21  1  0
 25 24  1  6
 25 27  1  0
 25 26  1  0
 27 29  1  0
 28 27  2  0
M  END
$$$$
