YPQ.pdb
     RDKit          3D

 29 30  0  0  1  0  0  0  0  0999 V2000
   11.1231  -14.8134   29.3127 O   0  0  0  0  0  0  0  0  0  0  0  0
   10.0079  -14.8501   28.4706 C   0  0  0  0  0  0  0  0  0  0  0  0
    9.2627  -16.0071   28.3451 C   0  0  0  0  0  0  0  0  0  0  0  0
    8.1613  -16.0730   27.5248 C   0  0  0  0  0  0  0  0  0  0  0  0
    7.7553  -14.9789   26.7907 C   0  0  0  0  0  0  0  0  0  0  0  0
    6.5566  -15.0547   25.9014 C   0  0  0  0  0  0  0  0  0  0  0  0
    6.3957  -16.4463   25.3295 C   0  0  2  0  0  0  0  0  0  0  0  0
    6.4893  -17.4668   26.3258 N   0  0  0  0  0  0  0  0  0  0  0  0
    7.2968  -16.6571   24.1687 C   0  0  0  0  0  0  0  0  0  0  0  0
    7.8848  -17.7858   24.0375 O   0  0  0  0  0  0  0  0  0  0  0  0
    8.4920  -13.8202   26.9090 C   0  0  0  0  0  0  0  0  0  0  0  0
    9.5917  -13.7733   27.7353 C   0  0  0  0  0  0  0  0  0  0  0  0
    7.5625  -15.6805   23.1697 N   0  0  0  0  0  0  0  0  0  0  0  0
    7.0223  -14.3304   23.1421 C   0  0  0  0  0  0  0  0  0  0  0  0
    7.8140  -13.6682   22.0509 C   0  0  0  0  0  0  0  0  0  0  0  0
    8.0530  -14.7749   21.0712 C   0  0  0  0  0  0  0  0  0  0  0  0
    8.4252  -15.9140   22.0299 C   0  0  1  0  0  0  0  0  0  0  0  0
    9.8604  -15.7033   22.3870 C   0  0  0  0  0  0  0  0  0  0  0  0
   10.2480  -14.7484   23.1117 O   0  0  0  0  0  0  0  0  0  0  0  0
   12.5699  -18.3367   26.1416 N   0  0  0  0  0  0  0  0  0  0  0  0
   11.9064  -19.0926   25.1479 C   0  0  0  0  0  0  0  0  0  0  0  0
   11.5025  -20.2583   25.4547 O   0  0  0  0  0  0  0  0  0  0  0  0
   11.6849  -18.5394   23.7746 C   0  0  0  0  0  0  0  0  0  0  0  0
   12.2650  -17.1669   23.7364 C   0  0  0  0  0  0  0  0  0  0  0  0
   12.2361  -16.5573   22.3456 C   0  0  2  0  0  0  0  0  0  0  0  0
   10.8387  -16.6101   21.8955 N   0  0  0  0  0  0  0  0  0  0  0  0
   13.0997  -17.4086   21.4960 C   0  0  0  0  0  0  0  0  0  0  0  0
   12.5483  -18.1056   20.6150 O   0  0  0  0  0  0  0  0  0  0  0  0
   14.4499  -17.4413   21.6574 O   0  0  0  0  0  0  0  0  0  0  0  0
  2  1  1  0
  3  2  2  0
  4  3  1  0
  5 11  1  0
  5  4  2  0
  6  5  1  0
  7  6  1  0
  7  8  1  1
  9  7  1  0
 10  9  2  0
 11 12  2  0
 12  2  1  0
 13  9  1  0
 13 17  1  0
 14 15  1  0
 14 13  1  0
 15 16  1  0
 16 17  1  0
 18 26  1  0
 17 18  1  1
 19 18  2  0
 20 21  1  0
 21 22  2  0
 23 24  1  0
 23 21  1  0
 25 24  1  1
 25 27  1  0
 25 26  1  0
 27 29  1  0
 28 27  2  0
M  END
$$$$
