YPQ.pdb
     RDKit          3D

 29 30  0  0  1  0  0  0  0  0999 V2000
   10.9611  -15.2543   32.4142 O   0  0  0  0  0  0  0  0  0  0  0  0
   10.5814  -15.5570   31.1034 C   0  0  0  0  0  0  0  0  0  0  0  0
   10.1032  -14.5669   30.2662 C   0  0  0  0  0  0  0  0  0  0  0  0
    9.7222  -14.8346   28.9726 C   0  0  0  0  0  0  0  0  0  0  0  0
    9.8034  -16.1109   28.4574 C   0  0  0  0  0  0  0  0  0  0  0  0
    9.3896  -16.3971   27.0502 C   0  0  0  0  0  0  0  0  0  0  0  0
    7.9082  -16.6958   26.9732 C   0  0  2  0  0  0  0  0  0  0  0  0
    7.5887  -18.0194   27.4079 N   0  0  0  0  0  0  0  0  0  0  0  0
    7.3607  -16.3553   25.6360 C   0  0  0  0  0  0  0  0  0  0  0  0
    6.9791  -17.3010   24.8633 O   0  0  0  0  0  0  0  0  0  0  0  0
   10.2791  -17.1054   29.2845 C   0  0  0  0  0  0  0  0  0  0  0  0
   10.6557  -16.8181   30.5767 C   0  0  0  0  0  0  0  0  0  0  0  0
    7.2244  -15.0307   25.1368 N   0  0  0  0  0  0  0  0  0  0  0  0
    7.3477  -13.8137   25.9235 C   0  0  0  0  0  0  0  0  0  0  0  0
    7.3773  -12.7340   24.8797 C   0  0  0  0  0  0  0  0  0  0  0  0
    6.4761  -13.2604   23.8063 C   0  0  0  0  0  0  0  0  0  0  0  0
    6.9409  -14.7219   23.7504 C   0  0  1  0  0  0  0  0  0  0  0  0
    8.1890  -14.7290   22.9295 C   0  0  0  0  0  0  0  0  0  0  0  0
    9.3258  -14.4912   23.4178 O   0  0  0  0  0  0  0  0  0  0  0  0
    7.3469  -16.7133   17.0763 N   0  0  0  0  0  0  0  0  0  0  0  0
    8.5791  -17.3440   17.3646 C   0  0  0  0  0  0  0  0  0  0  0  0
    9.0999  -18.0762   16.4653 O   0  0  0  0  0  0  0  0  0  0  0  0
    9.2525  -17.1569   18.6884 C   0  0  0  0  0  0  0  0  0  0  0  0
    8.4105  -16.2352   19.5027 C   0  0  0  0  0  0  0  0  0  0  0  0
    8.9527  -16.0332   20.9069 C   0  0  2  0  0  0  0  0  0  0  0  0
    8.1044  -15.0141   21.5394 N   0  0  0  0  0  0  0  0  0  0  0  0
   10.3426  -15.5463   20.7544 C   0  0  0  0  0  0  0  0  0  0  0  0
   11.2137  -16.3684   20.3916 O   0  0  0  0  0  0  0  0  0  0  0  0
   10.6755  -14.2501   20.9975 O   0  0  0  0  0  0  0  0  0  0  0  0
  2  1  1  0
  3  2  2  0
  4  3  1  0
  5 11  1  0
  5  4  2  0
  6  5  1  0
  7  6  1  0
  7  8  1  6
  9  7  1  0
 10  9  2  0
 11 12  2  0
 12  2  1  0
 13  9  1  0
 13 17  1  0
 14 15  1  0
 14 13  1  0
 15 16  1  0
 16 17  1  0
 18 26  1  0
 17 18  1  6
 19 18  2  0
 20 21  1  0
 21 22  2  0
 23 24  1  0
 23 21  1  0
 25 24  1  6
 25 27  1  0
 25 26  1  0
 27 29  1  0
 28 27  2  0
M  END
$$$$
