YPQ.pdb
     RDKit          3D

 29 30  0  0  1  0  0  0  0  0999 V2000
    5.8837  -10.3751   26.9814 O   0  0  0  0  0  0  0  0  0  0  0  0
    6.2812  -11.6901   26.7229 C   0  0  0  0  0  0  0  0  0  0  0  0
    7.6181  -11.9977   26.5557 C   0  0  0  0  0  0  0  0  0  0  0  0
    8.0389  -13.2815   26.3005 C   0  0  0  0  0  0  0  0  0  0  0  0
    7.1360  -14.3187   26.2008 C   0  0  0  0  0  0  0  0  0  0  0  0
    7.5980  -15.7130   25.9247 C   0  0  0  0  0  0  0  0  0  0  0  0
    6.6786  -16.4012   24.9396 C   0  0  2  0  0  0  0  0  0  0  0  0
    5.9511  -17.4827   25.5262 N   0  0  0  0  0  0  0  0  0  0  0  0
    7.4025  -16.7698   23.6969 C   0  0  0  0  0  0  0  0  0  0  0  0
    7.7216  -17.9939   23.5053 O   0  0  0  0  0  0  0  0  0  0  0  0
    5.8003  -14.0222   26.3660 C   0  0  0  0  0  0  0  0  0  0  0  0
    5.3982  -12.7308   26.6209 C   0  0  0  0  0  0  0  0  0  0  0  0
    7.7765  -15.8474   22.6811 N   0  0  0  0  0  0  0  0  0  0  0  0
    7.3435  -14.4616   22.5961 C   0  0  0  0  0  0  0  0  0  0  0  0
    8.2205  -13.8956   21.5160 C   0  0  0  0  0  0  0  0  0  0  0  0
    8.4064  -15.0470   20.5772 C   0  0  0  0  0  0  0  0  0  0  0  0
    8.6567  -16.1810   21.5803 C   0  0  1  0  0  0  0  0  0  0  0  0
   10.0910  -16.0694   21.9830 C   0  0  0  0  0  0  0  0  0  0  0  0
   10.5227  -15.1354   22.7100 O   0  0  0  0  0  0  0  0  0  0  0  0
   10.5015  -20.2320   23.8996 N   0  0  0  0  0  0  0  0  0  0  0  0
   11.1174  -19.3513   24.8184 C   0  0  0  0  0  0  0  0  0  0  0  0
   10.7838  -19.4360   26.0422 O   0  0  0  0  0  0  0  0  0  0  0  0
   12.1324  -18.3481   24.3664 C   0  0  0  0  0  0  0  0  0  0  0  0
   12.3235  -18.5218   22.8984 C   0  0  0  0  0  0  0  0  0  0  0  0
   12.3423  -17.2005   22.1498 C   0  0  2  0  0  0  0  0  0  0  0  0
   11.0167  -17.0505   21.5344 N   0  0  0  0  0  0  0  0  0  0  0  0
   13.3965  -17.3179   21.1169 C   0  0  0  0  0  0  0  0  0  0  0  0
   14.5896  -17.2950   21.4938 O   0  0  0  0  0  0  0  0  0  0  0  0
   13.0918  -17.4470   19.7975 O   0  0  0  0  0  0  0  0  0  0  0  0
  2  1  1  0
  3  2  2  0
  4  3  1  0
  5 11  1  0
  5  4  2  0
  6  5  1  0
  7  6  1  0
  7  8  1  1
  9  7  1  0
 10  9  2  0
 11 12  2  0
 12  2  1  0
 13  9  1  0
 13 17  1  0
 14 15  1  0
 14 13  1  0
 15 16  1  0
 16 17  1  0
 18 26  1  0
 17 18  1  1
 19 18  2  0
 20 21  1  0
 21 22  2  0
 23 24  1  0
 23 21  1  0
 25 24  1  6
 25 27  1  0
 25 26  1  0
 27 29  1  0
 28 27  2  0
M  END
$$$$
