YPQ.pdb
     RDKit          3D

 29 30  0  0  1  0  0  0  0  0999 V2000
    5.1671  -10.5814   28.3031 O   0  0  0  0  0  0  0  0  0  0  0  0
    5.8585  -11.4589   27.4630 C   0  0  0  0  0  0  0  0  0  0  0  0
    5.8983  -11.2379   26.0993 C   0  0  0  0  0  0  0  0  0  0  0  0
    6.5701  -12.0834   25.2484 C   0  0  0  0  0  0  0  0  0  0  0  0
    7.2347  -13.1926   25.7269 C   0  0  0  0  0  0  0  0  0  0  0  0
    7.9649  -14.1081   24.7985 C   0  0  0  0  0  0  0  0  0  0  0  0
    7.0348  -15.1607   24.2359 C   0  0  2  0  0  0  0  0  0  0  0  0
    6.6003  -16.0982   25.2235 N   0  0  0  0  0  0  0  0  0  0  0  0
    7.6103  -15.7922   23.0218 C   0  0  0  0  0  0  0  0  0  0  0  0
    7.9311  -17.0302   23.0599 O   0  0  0  0  0  0  0  0  0  0  0  0
    7.2010  -13.4218   27.0855 C   0  0  0  0  0  0  0  0  0  0  0  0
    6.5231  -12.5640   27.9216 C   0  0  0  0  0  0  0  0  0  0  0  0
    7.8374  -15.1128   21.7933 N   0  0  0  0  0  0  0  0  0  0  0  0
    7.4990  -13.7252   21.5193 C   0  0  0  0  0  0  0  0  0  0  0  0
    8.1780  -13.4612   20.2058 C   0  0  0  0  0  0  0  0  0  0  0  0
    8.0849  -14.7748   19.4936 C   0  0  0  0  0  0  0  0  0  0  0  0
    8.4494  -15.7324   20.6360 C   0  0  1  0  0  0  0  0  0  0  0  0
    9.9398  -15.7099   20.7364 C   0  0  0  0  0  0  0  0  0  0  0  0
   10.5817  -14.6888   21.1006 O   0  0  0  0  0  0  0  0  0  0  0  0
   12.6125  -18.1454   24.9472 N   0  0  0  0  0  0  0  0  0  0  0  0
   11.9468  -19.1620   24.2244 C   0  0  0  0  0  0  0  0  0  0  0  0
   11.7867  -20.2895   24.7896 O   0  0  0  0  0  0  0  0  0  0  0  0
   11.4443  -18.9208   22.8351 C   0  0  0  0  0  0  0  0  0  0  0  0
   11.6099  -17.4701   22.5353 C   0  0  0  0  0  0  0  0  0  0  0  0
   11.9437  -17.2078   21.0771 C   0  0  2  0  0  0  0  0  0  0  0  0
   10.6757  -16.8818   20.4107 N   0  0  0  0  0  0  0  0  0  0  0  0
   12.5150  -18.4655   20.5442 C   0  0  0  0  0  0  0  0  0  0  0  0
   13.7183  -18.7098   20.7862 O   0  0  0  0  0  0  0  0  0  0  0  0
   11.7673  -19.3359   19.8137 O   0  0  0  0  0  0  0  0  0  0  0  0
  2  1  1  0
  3  2  2  0
  4  3  1  0
  5 11  1  0
  5  4  2  0
  6  5  1  0
  7  6  1  0
  7  8  1  1
  9  7  1  0
 10  9  2  0
 11 12  2  0
 12  2  1  0
 13  9  1  0
 13 17  1  0
 14 15  1  0
 14 13  1  0
 15 16  1  0
 16 17  1  0
 18 26  1  0
 17 18  1  1
 19 18  2  0
 20 21  1  0
 21 22  2  0
 23 24  1  0
 23 21  1  0
 25 24  1  1
 25 27  1  0
 25 26  1  0
 27 29  1  0
 28 27  2  0
M  END
$$$$
