YPQ.pdb
     RDKit          3D

 29 30  0  0  1  0  0  0  0  0999 V2000
    5.8461  -10.5781   28.2843 O   0  0  0  0  0  0  0  0  0  0  0  0
    6.3847  -11.5074   27.3897 C   0  0  0  0  0  0  0  0  0  0  0  0
    5.6398  -11.9606   26.3174 C   0  0  0  0  0  0  0  0  0  0  0  0
    6.1428  -12.8741   25.4214 C   0  0  0  0  0  0  0  0  0  0  0  0
    7.4192  -13.3766   25.5596 C   0  0  0  0  0  0  0  0  0  0  0  0
    7.9624  -14.3682   24.5824 C   0  0  0  0  0  0  0  0  0  0  0  0
    6.8449  -15.1603   23.9393 C   0  0  2  0  0  0  0  0  0  0  0  0
    6.2644  -16.1174   24.8281 N   0  0  0  0  0  0  0  0  0  0  0  0
    7.2724  -15.7326   22.6380 C   0  0  0  0  0  0  0  0  0  0  0  0
    7.2310  -17.0009   22.4751 O   0  0  0  0  0  0  0  0  0  0  0  0
    8.1702  -12.9307   26.6258 C   0  0  0  0  0  0  0  0  0  0  0  0
    7.6495  -12.0158   27.5124 C   0  0  0  0  0  0  0  0  0  0  0  0
    7.7342  -14.9634   21.5346 N   0  0  0  0  0  0  0  0  0  0  0  0
    7.8105  -13.5117   21.4886 C   0  0  0  0  0  0  0  0  0  0  0  0
    8.5931  -13.2506   20.2334 C   0  0  0  0  0  0  0  0  0  0  0  0
    8.1667  -14.3567   19.3189 C   0  0  0  0  0  0  0  0  0  0  0  0
    8.1980  -15.5437   20.2912 C   0  0  1  0  0  0  0  0  0  0  0  0
    9.6291  -15.9606   20.3907 C   0  0  0  0  0  0  0  0  0  0  0  0
   10.4885  -15.2960   21.0286 O   0  0  0  0  0  0  0  0  0  0  0  0
   11.6107  -20.8072   23.5338 N   0  0  0  0  0  0  0  0  0  0  0  0
   10.7696  -20.2940   22.5198 C   0  0  0  0  0  0  0  0  0  0  0  0
    9.8500  -21.0470   22.0688 O   0  0  0  0  0  0  0  0  0  0  0  0
   10.9541  -18.9056   21.9911 C   0  0  0  0  0  0  0  0  0  0  0  0
   11.3283  -19.0112   20.5522 C   0  0  0  0  0  0  0  0  0  0  0  0
   11.4258  -17.6570   19.8715 C   0  0  2  0  0  0  0  0  0  0  0  0
   10.0514  -17.1540   19.7439 N   0  0  0  0  0  0  0  0  0  0  0  0
   12.0282  -17.8983   18.5407 C   0  0  0  0  0  0  0  0  0  0  0  0
   11.2660  -17.9163   17.5484 O   0  0  0  0  0  0  0  0  0  0  0  0
   13.3654  -18.0955   18.3877 O   0  0  0  0  0  0  0  0  0  0  0  0
  2  1  1  0
  3  2  2  0
  4  3  1  0
  5 11  1  0
  5  4  2  0
  6  5  1  0
  7  6  1  0
  7  8  1  1
  9  7  1  0
 10  9  2  0
 11 12  2  0
 12  2  1  0
 13  9  1  0
 13 17  1  0
 14 15  1  0
 14 13  1  0
 15 16  1  0
 16 17  1  0
 18 26  1  0
 17 18  1  1
 19 18  2  0
 20 21  1  0
 21 22  2  0
 23 24  1  0
 23 21  1  0
 25 24  1  1
 25 27  1  0
 25 26  1  0
 27 29  1  0
 28 27  2  0
M  END
$$$$
