YPQ.pdb
     RDKit          3D

 29 30  0  0  1  0  0  0  0  0999 V2000
    8.0831  -20.6761   20.1125 O   0  0  0  0  0  0  0  0  0  0  0  0
    7.7062  -19.3473   20.3274 C   0  0  0  0  0  0  0  0  0  0  0  0
    8.1653  -18.3453   19.4937 C   0  0  0  0  0  0  0  0  0  0  0  0
    7.8117  -17.0299   19.6803 C   0  0  0  0  0  0  0  0  0  0  0  0
    6.9792  -16.6575   20.7143 C   0  0  0  0  0  0  0  0  0  0  0  0
    6.5963  -15.2266   20.9125 C   0  0  0  0  0  0  0  0  0  0  0  0
    7.8215  -14.3392   20.9443 C   0  0  2  0  0  0  0  0  0  0  0  0
    8.6319  -14.4750   19.7748 N   0  0  0  0  0  0  0  0  0  0  0  0
    8.5706  -14.5037   22.2154 C   0  0  0  0  0  0  0  0  0  0  0  0
    9.7846  -14.9054   22.1719 O   0  0  0  0  0  0  0  0  0  0  0  0
    6.5159  -17.6495   21.5514 C   0  0  0  0  0  0  0  0  0  0  0  0
    6.8809  -18.9609   21.3487 C   0  0  0  0  0  0  0  0  0  0  0  0
    8.0316  -14.2434   23.5054 N   0  0  0  0  0  0  0  0  0  0  0  0
    6.6491  -13.8921   23.7891 C   0  0  0  0  0  0  0  0  0  0  0  0
    6.5726  -13.9887   25.2861 C   0  0  0  0  0  0  0  0  0  0  0  0
    7.9312  -13.5480   25.7349 C   0  0  0  0  0  0  0  0  0  0  0  0
    8.8103  -14.2986   24.7255 C   0  0  1  0  0  0  0  0  0  0  0  0
    8.9205  -15.6995   25.2327 C   0  0  0  0  0  0  0  0  0  0  0  0
    7.9854  -16.5371   25.1261 O   0  0  0  0  0  0  0  0  0  0  0  0
   14.4720  -20.3509   25.2171 N   0  0  0  0  0  0  0  0  0  0  0  0
   13.5960  -19.2911   24.8875 C   0  0  0  0  0  0  0  0  0  0  0  0
   13.9988  -18.4211   24.0526 O   0  0  0  0  0  0  0  0  0  0  0  0
   12.2343  -19.1938   25.5017 C   0  0  0  0  0  0  0  0  0  0  0  0
   11.8060  -17.7676   25.4386 C   0  0  0  0  0  0  0  0  0  0  0  0
   10.4397  -17.5382   26.0610 C   0  0  2  0  0  0  0  0  0  0  0  0
   10.1241  -16.1171   25.8633 N   0  0  0  0  0  0  0  0  0  0  0  0
   10.5754  -17.8563   27.5007 C   0  0  0  0  0  0  0  0  0  0  0  0
   10.5458  -16.9062   28.3147 O   0  0  0  0  0  0  0  0  0  0  0  0
   10.7278  -19.1353   27.9378 O   0  0  0  0  0  0  0  0  0  0  0  0
  2  1  1  0
  3  2  2  0
  4  3  1  0
  5 11  1  0
  5  4  2  0
  6  5  1  0
  7  6  1  0
  7  8  1  6
  9  7  1  0
 10  9  2  0
 11 12  2  0
 12  2  1  0
 13  9  1  0
 13 17  1  0
 14 15  1  0
 14 13  1  0
 15 16  1  0
 16 17  1  0
 18 26  1  0
 17 18  1  1
 19 18  2  0
 20 21  1  0
 21 22  2  0
 23 24  1  0
 23 21  1  0
 25 24  1  6
 25 27  1  0
 25 26  1  0
 27 29  1  0
 28 27  2  0
M  END
$$$$
