YPQ.pdb
     RDKit          3D

 29 30  0  0  1  0  0  0  0  0999 V2000
    9.7968  -13.8470   30.3837 O   0  0  0  0  0  0  0  0  0  0  0  0
    9.6418  -14.2074   29.0420 C   0  0  0  0  0  0  0  0  0  0  0  0
    8.9793  -13.3708   28.1639 C   0  0  0  0  0  0  0  0  0  0  0  0
    8.8116  -13.6984   26.8392 C   0  0  0  0  0  0  0  0  0  0  0  0
    9.3016  -14.8834   26.3326 C   0  0  0  0  0  0  0  0  0  0  0  0
    9.1182  -15.2348   24.8917 C   0  0  0  0  0  0  0  0  0  0  0  0
    7.7038  -15.7019   24.6256 C   0  0  2  0  0  0  0  0  0  0  0  0
    7.3103  -16.7822   25.4748 N   0  0  0  0  0  0  0  0  0  0  0  0
    7.4884  -15.9659   23.1807 C   0  0  0  0  0  0  0  0  0  0  0  0
    7.0866  -17.1244   22.8155 O   0  0  0  0  0  0  0  0  0  0  0  0
    9.9639  -15.7247   27.2004 C   0  0  0  0  0  0  0  0  0  0  0  0
   10.1220  -15.3794   28.5232 C   0  0  0  0  0  0  0  0  0  0  0  0
    7.6986  -15.0100   22.1490 N   0  0  0  0  0  0  0  0  0  0  0  0
    7.8868  -13.5813   22.3455 C   0  0  0  0  0  0  0  0  0  0  0  0
    8.3184  -13.1040   20.9883 C   0  0  0  0  0  0  0  0  0  0  0  0
    7.5640  -13.9927   20.0487 C   0  0  0  0  0  0  0  0  0  0  0  0
    7.7540  -15.3487   20.7418 C   0  0  1  0  0  0  0  0  0  0  0  0
    9.1159  -15.8252   20.3545 C   0  0  0  0  0  0  0  0  0  0  0  0
   10.1671  -15.2012   20.6592 O   0  0  0  0  0  0  0  0  0  0  0  0
    9.2397  -20.8124   21.5159 N   0  0  0  0  0  0  0  0  0  0  0  0
    9.9895  -19.8746   22.2625 C   0  0  0  0  0  0  0  0  0  0  0  0
   10.0499  -20.0264   23.5233 O   0  0  0  0  0  0  0  0  0  0  0  0
   10.6924  -18.7361   21.5912 C   0  0  0  0  0  0  0  0  0  0  0  0
   10.5931  -18.9430   20.1185 C   0  0  0  0  0  0  0  0  0  0  0  0
   10.5560  -17.6367   19.3447 C   0  0  2  0  0  0  0  0  0  0  0  0
    9.2448  -17.0304   19.6117 N   0  0  0  0  0  0  0  0  0  0  0  0
   10.6948  -17.9920   17.9140 C   0  0  0  0  0  0  0  0  0  0  0  0
   11.8112  -18.3947   17.5172 O   0  0  0  0  0  0  0  0  0  0  0  0
    9.6506  -17.8885   17.0484 O   0  0  0  0  0  0  0  0  0  0  0  0
  2  1  1  0
  3  2  2  0
  4  3  1  0
  5 11  1  0
  5  4  2  0
  6  5  1  0
  7  6  1  0
  7  8  1  1
  9  7  1  0
 10  9  2  0
 11 12  2  0
 12  2  1  0
 13  9  1  0
 13 17  1  0
 14 15  1  0
 14 13  1  0
 15 16  1  0
 16 17  1  0
 18 26  1  0
 17 18  1  1
 19 18  2  0
 20 21  1  0
 21 22  2  0
 23 24  1  0
 23 21  1  0
 25 24  1  1
 25 27  1  0
 25 26  1  0
 27 29  1  0
 28 27  2  0
M  END
$$$$
