YPQ.pdb
     RDKit          3D

 29 30  0  0  1  0  0  0  0  0999 V2000
    5.2910  -11.2661   28.5010 O   0  0  0  0  0  0  0  0  0  0  0  0
    5.9033  -12.0602   27.5271 C   0  0  0  0  0  0  0  0  0  0  0  0
    6.1698  -11.5479   26.2715 C   0  0  0  0  0  0  0  0  0  0  0  0
    6.7708  -12.3049   25.2936 C   0  0  0  0  0  0  0  0  0  0  0  0
    7.1332  -13.6139   25.5303 C   0  0  0  0  0  0  0  0  0  0  0  0
    7.7876  -14.4325   24.4649 C   0  0  0  0  0  0  0  0  0  0  0  0
    6.7670  -15.2653   23.7206 C   0  0  2  0  0  0  0  0  0  0  0  0
    6.2482  -16.3380   24.5101 N   0  0  0  0  0  0  0  0  0  0  0  0
    7.2847  -15.6916   22.3961 C   0  0  0  0  0  0  0  0  0  0  0  0
    7.4356  -16.9403   22.1622 O   0  0  0  0  0  0  0  0  0  0  0  0
    6.8718  -14.1340   26.7795 C   0  0  0  0  0  0  0  0  0  0  0  0
    6.2693  -13.3608   27.7457 C   0  0  0  0  0  0  0  0  0  0  0  0
    7.6331  -14.7998   21.3446 N   0  0  0  0  0  0  0  0  0  0  0  0
    7.5835  -13.3480   21.4156 C   0  0  0  0  0  0  0  0  0  0  0  0
    8.2883  -12.9205   20.1600 C   0  0  0  0  0  0  0  0  0  0  0  0
    7.9203  -13.9842   19.1728 C   0  0  0  0  0  0  0  0  0  0  0  0
    8.0928  -15.2368   20.0424 C   0  0  1  0  0  0  0  0  0  0  0  0
    9.5572  -15.5323   20.0581 C   0  0  0  0  0  0  0  0  0  0  0  0
   10.4192  -14.6814   20.4044 O   0  0  0  0  0  0  0  0  0  0  0  0
   12.9157  -15.8084   22.6716 N   0  0  0  0  0  0  0  0  0  0  0  0
   13.3864  -17.1400   22.6052 C   0  0  0  0  0  0  0  0  0  0  0  0
   14.5614  -17.3798   23.0271 O   0  0  0  0  0  0  0  0  0  0  0  0
   12.5289  -18.2368   22.0551 C   0  0  0  0  0  0  0  0  0  0  0  0
   11.2742  -17.6198   21.5387 C   0  0  0  0  0  0  0  0  0  0  0  0
   11.3366  -17.3236   20.0504 C   0  0  2  0  0  0  0  0  0  0  0  0
   10.0095  -16.8225   19.6684 N   0  0  0  0  0  0  0  0  0  0  0  0
   11.6318  -18.6094   19.3783 C   0  0  0  0  0  0  0  0  0  0  0  0
   12.7920  -18.7901   18.9454 O   0  0  0  0  0  0  0  0  0  0  0  0
   10.6819  -19.5716   19.2297 O   0  0  0  0  0  0  0  0  0  0  0  0
  2  1  1  0
  3  2  2  0
  4  3  1  0
  5 11  1  0
  5  4  2  0
  6  5  1  0
  7  6  1  0
  7  8  1  1
  9  7  1  0
 10  9  2  0
 11 12  2  0
 12  2  1  0
 13  9  1  0
 13 17  1  0
 14 15  1  0
 14 13  1  0
 15 16  1  0
 16 17  1  0
 18 26  1  0
 17 18  1  1
 19 18  2  0
 20 21  1  0
 21 22  2  0
 23 24  1  0
 23 21  1  0
 25 24  1  1
 25 27  1  0
 25 26  1  0
 27 29  1  0
 28 27  2  0
M  END
$$$$
