YPQ.pdb
     RDKit          3D

 29 30  0  0  1  0  0  0  0  0999 V2000
    5.5996  -10.7887   28.4734 O   0  0  0  0  0  0  0  0  0  0  0  0
    6.1756  -11.6664   27.5504 C   0  0  0  0  0  0  0  0  0  0  0  0
    5.4700  -12.0696   26.4326 C   0  0  0  0  0  0  0  0  0  0  0  0
    6.0103  -12.9317   25.5078 C   0  0  0  0  0  0  0  0  0  0  0  0
    7.2864  -13.4305   25.6617 C   0  0  0  0  0  0  0  0  0  0  0  0
    7.8702  -14.3662   24.6532 C   0  0  0  0  0  0  0  0  0  0  0  0
    6.7938  -15.2269   24.0286 C   0  0  2  0  0  0  0  0  0  0  0  0
    6.2762  -16.2059   24.9323 N   0  0  0  0  0  0  0  0  0  0  0  0
    7.2416  -15.7879   22.7291 C   0  0  0  0  0  0  0  0  0  0  0  0
    7.3455  -17.0570   22.6046 O   0  0  0  0  0  0  0  0  0  0  0  0
    7.9983  -13.0343   26.7733 C   0  0  0  0  0  0  0  0  0  0  0  0
    7.4405  -12.1706   27.6882 C   0  0  0  0  0  0  0  0  0  0  0  0
    7.5711  -15.0067   21.5873 N   0  0  0  0  0  0  0  0  0  0  0  0
    7.3510  -13.5757   21.4496 C   0  0  0  0  0  0  0  0  0  0  0  0
    8.1028  -13.2339   20.1949 C   0  0  0  0  0  0  0  0  0  0  0  0
    7.9400  -14.4561   19.3457 C   0  0  0  0  0  0  0  0  0  0  0  0
    8.1824  -15.5517   20.3927 C   0  0  1  0  0  0  0  0  0  0  0  0
    9.6646  -15.6588   20.5454 C   0  0  0  0  0  0  0  0  0  0  0  0
   10.3775  -14.7028   20.9515 O   0  0  0  0  0  0  0  0  0  0  0  0
   12.0196  -20.1206   24.7746 N   0  0  0  0  0  0  0  0  0  0  0  0
   11.9149  -18.7812   24.3341 C   0  0  0  0  0  0  0  0  0  0  0  0
   11.4174  -17.9269   25.1335 O   0  0  0  0  0  0  0  0  0  0  0  0
   12.3752  -18.3781   22.9679 C   0  0  0  0  0  0  0  0  0  0  0  0
   11.2048  -17.8090   22.2414 C   0  0  0  0  0  0  0  0  0  0  0  0
   11.5690  -17.2861   20.8628 C   0  0  2  0  0  0  0  0  0  0  0  0
   10.3093  -16.8840   20.2226 N   0  0  0  0  0  0  0  0  0  0  0  0
   12.1960  -18.4145   20.1377 C   0  0  0  0  0  0  0  0  0  0  0  0
   11.4754  -19.0866   19.3664 O   0  0  0  0  0  0  0  0  0  0  0  0
   13.5118  -18.7213   20.2958 O   0  0  0  0  0  0  0  0  0  0  0  0
  2  1  1  0
  3  2  2  0
  4  3  1  0
  5 11  1  0
  5  4  2  0
  6  5  1  0
  7  6  1  0
  7  8  1  1
  9  7  1  0
 10  9  2  0
 11 12  2  0
 12  2  1  0
 13  9  1  0
 13 17  1  0
 14 15  1  0
 14 13  1  0
 15 16  1  0
 16 17  1  0
 18 26  1  0
 17 18  1  1
 19 18  2  0
 20 21  1  0
 21 22  2  0
 23 24  1  0
 23 21  1  0
 25 24  1  1
 25 27  1  0
 25 26  1  0
 27 29  1  0
 28 27  2  0
M  END
$$$$
