YPQ.pdb
     RDKit          3D

 29 30  0  0  1  0  0  0  0  0999 V2000
    9.9934  -13.9474   30.4278 O   0  0  0  0  0  0  0  0  0  0  0  0
    9.8546  -14.2786   29.0769 C   0  0  0  0  0  0  0  0  0  0  0  0
    9.2128  -13.4177   28.2069 C   0  0  0  0  0  0  0  0  0  0  0  0
    9.0613  -13.7163   26.8735 C   0  0  0  0  0  0  0  0  0  0  0  0
    9.5476  -14.8952   26.3495 C   0  0  0  0  0  0  0  0  0  0  0  0
    9.3819  -15.2151   24.8991 C   0  0  0  0  0  0  0  0  0  0  0  0
    7.9702  -15.6736   24.6051 C   0  0  2  0  0  0  0  0  0  0  0  0
    7.5526  -16.7497   25.4481 N   0  0  0  0  0  0  0  0  0  0  0  0
    7.7825  -15.9391   23.1566 C   0  0  0  0  0  0  0  0  0  0  0  0
    7.6308  -17.1467   22.7623 O   0  0  0  0  0  0  0  0  0  0  0  0
   10.1893  -15.7606   27.2090 C   0  0  0  0  0  0  0  0  0  0  0  0
   10.3314  -15.4442   28.5409 C   0  0  0  0  0  0  0  0  0  0  0  0
    7.7577  -14.9330   22.1518 N   0  0  0  0  0  0  0  0  0  0  0  0
    7.7163  -13.4991   22.3917 C   0  0  0  0  0  0  0  0  0  0  0  0
    7.9672  -12.9178   21.0296 C   0  0  0  0  0  0  0  0  0  0  0  0
    7.3101  -13.8954   20.1055 C   0  0  0  0  0  0  0  0  0  0  0  0
    7.7724  -15.2180   20.7318 C   0  0  1  0  0  0  0  0  0  0  0  0
    9.1650  -15.4448   20.2410 C   0  0  0  0  0  0  0  0  0  0  0  0
   10.1432  -14.7498   20.6249 O   0  0  0  0  0  0  0  0  0  0  0  0
   11.0910  -19.6789   23.1479 N   0  0  0  0  0  0  0  0  0  0  0  0
   12.0391  -19.0730   22.2916 C   0  0  0  0  0  0  0  0  0  0  0  0
   13.1139  -18.6319   22.8078 O   0  0  0  0  0  0  0  0  0  0  0  0
   11.7875  -18.9530   20.8208 C   0  0  0  0  0  0  0  0  0  0  0  0
   10.5869  -18.0902   20.6320 C   0  0  0  0  0  0  0  0  0  0  0  0
   10.6389  -17.2880   19.3435 C   0  0  2  0  0  0  0  0  0  0  0  0
    9.4100  -16.4839   19.3024 N   0  0  0  0  0  0  0  0  0  0  0  0
   10.6665  -18.2717   18.2372 C   0  0  0  0  0  0  0  0  0  0  0  0
   11.7705  -18.5198   17.7027 O   0  0  0  0  0  0  0  0  0  0  0  0
    9.5357  -18.8927   17.8060 O   0  0  0  0  0  0  0  0  0  0  0  0
  2  1  1  0
  3  2  2  0
  4  3  1  0
  5 11  1  0
  5  4  2  0
  6  5  1  0
  7  6  1  0
  7  8  1  1
  9  7  1  0
 10  9  2  0
 11 12  2  0
 12  2  1  0
 13  9  1  0
 13 17  1  0
 14 15  1  0
 14 13  1  0
 15 16  1  0
 16 17  1  0
 18 26  1  0
 17 18  1  6
 19 18  2  0
 20 21  1  0
 21 22  2  0
 23 24  1  0
 23 21  1  0
 25 24  1  1
 25 27  1  0
 25 26  1  0
 27 29  1  0
 28 27  2  0
M  END
$$$$
