RPF.pdb
     RDKit          3D

 30 31  0  0  1  0  0  0  0  0999 V2000
   26.5144  -27.0798  -16.6506 N   0  0  0  0  0  0  0  0  0  0  0  0
   27.8985  -26.8240  -16.6852 C   0  0  0  0  0  0  0  0  0  0  0  0
   28.7054  -27.8166  -16.7050 N   0  0  0  0  0  0  0  0  0  0  0  0
   28.3713  -25.4869  -16.6974 N   0  0  0  0  0  0  0  0  0  0  0  0
   27.4137  -24.4118  -16.6982 C   0  0  0  0  0  0  0  0  0  0  0  0
   26.2552  -24.6741  -15.7852 C   0  0  0  0  0  0  0  0  0  0  0  0
   25.3303  -23.4931  -15.6442 C   0  0  0  0  0  0  0  0  0  0  0  0
   25.7097  -22.6384  -14.4524 C   0  0  2  0  0  0  0  0  0  0  0  0
   25.0295  -23.2019  -13.2733 N   0  0  0  0  0  0  0  0  0  0  0  0
   25.2241  -21.2491  -14.6715 C   0  0  0  0  0  0  0  0  0  0  0  0
   24.1023  -20.9116  -14.1886 O   0  0  0  0  0  0  0  0  0  0  0  0
   29.7331  -27.7135  -16.6915 N   0  0  0  0  0  0  0  0  0  0  0  0
   25.9688  -20.3151  -15.3883 C   0  0  0  0  0  0  0  0  0  0  0  0
   27.2777  -20.5221  -16.0025 C   0  0  0  0  0  0  0  0  0  0  0  0
   27.9551  -19.1592  -15.8362 C   0  0  0  0  0  0  0  0  0  0  0  0
   26.7844  -18.2555  -16.2544 C   0  0  2  0  0  0  0  0  0  0  0  0
   25.5994  -18.9433  -15.6578 C   0  0  0  0  0  0  0  0  0  0  0  0
   24.3490  -18.8274  -16.4362 O   0  0  0  0  0  0  0  0  0  0  0  0
   24.1349  -19.6515  -17.3712 N   0  0  0  0  0  0  0  0  0  0  0  0
   23.3434  -17.8531  -16.2287 C   0  0  1  0  0  0  0  0  0  0  0  0
   22.1194  -17.7601  -16.9533 C   0  0  0  0  0  0  0  0  0  0  0  0
   20.9525  -18.4730  -16.3932 C   0  0  0  0  0  0  0  0  0  0  0  0
   20.6801  -18.2924  -14.9677 C   0  0  0  0  0  0  0  0  0  0  0  0
   21.2373  -19.1079  -13.9852 C   0  0  0  0  0  0  0  0  0  0  0  0
   21.0284  -18.9603  -12.6491 C   0  0  0  0  0  0  0  0  0  0  0  0
   20.2268  -17.9610  -12.1935 C   0  0  0  0  0  0  0  0  0  0  0  0
   19.6479  -17.1235  -13.1175 C   0  0  0  0  0  0  0  0  0  0  0  0
   19.8578  -17.2738  -14.4580 C   0  0  0  0  0  0  0  0  0  0  0  0
   21.8129  -16.2723  -17.0334 O   0  0  0  0  0  0  0  0  0  0  0  0
   22.6651  -15.4159  -16.3627 O   0  0  0  0  0  0  0  0  0  0  0  0
  2  1  1  0
  2  4  1  0
  3  2  2  0
  4  5  1  0
  5  6  1  0
  7  8  1  0
  7  6  1  0
  8  9  1  1
 10  8  1  0
 11 10  2  0
 12 16  1  0
 12 10  1  0
 13 12  1  0
 14 13  1  0
 14 15  1  0
 15 16  1  0
 17 19  1  0
 16 17  1  6
 18 17  2  0
 20 21  1  6
 20 19  1  0
 21 22  1  0
 22 27  1  0
 23 22  2  0
 23 24  1  0
 24 25  2  0
 25 26  1  0
 27 26  2  0
 28 29  1  0
 28 20  1  0
 30 28  2  0
M  END
$$$$
