RPF.pdb
     RDKit          3D

 30 31  0  0  1  0  0  0  0  0999 V2000
   27.5323  -16.3095  -18.8984 N   0  0  0  0  0  0  0  0  0  0  0  0
   27.7100  -15.0660  -18.2626 C   0  0  0  0  0  0  0  0  0  0  0  0
   28.1404  -14.0794  -18.9540 N   0  0  0  0  0  0  0  0  0  0  0  0
   27.4130  -14.9275  -16.8826 N   0  0  0  0  0  0  0  0  0  0  0  0
   26.6854  -15.9785  -16.2202 C   0  0  0  0  0  0  0  0  0  0  0  0
   25.3068  -16.1618  -16.7773 C   0  0  0  0  0  0  0  0  0  0  0  0
   24.5176  -17.2330  -16.0702 C   0  0  0  0  0  0  0  0  0  0  0  0
   24.9006  -18.6129  -16.5643 C   0  0  2  0  0  0  0  0  0  0  0  0
   23.7769  -19.1179  -17.3722 N   0  0  0  0  0  0  0  0  0  0  0  0
   25.0987  -19.5137  -15.3968 C   0  0  0  0  0  0  0  0  0  0  0  0
   24.0999  -19.8023  -14.6724 O   0  0  0  0  0  0  0  0  0  0  0  0
   28.3249  -13.1443  -18.5559 N   0  0  0  0  0  0  0  0  0  0  0  0
   26.3472  -20.0462  -15.0833 C   0  0  0  0  0  0  0  0  0  0  0  0
   27.5828  -19.8928  -15.8468 C   0  0  0  0  0  0  0  0  0  0  0  0
   28.2852  -21.2371  -15.6384 C   0  0  0  0  0  0  0  0  0  0  0  0
   28.0552  -21.3976  -14.1272 C   0  0  2  0  0  0  0  0  0  0  0  0
   26.6685  -20.8725  -13.9409 C   0  0  0  0  0  0  0  0  0  0  0  0
   26.4230  -20.1922  -12.6526 O   0  0  0  0  0  0  0  0  0  0  0  0
   26.5093  -18.9315  -12.6033 N   0  0  0  0  0  0  0  0  0  0  0  0
   26.0939  -20.8373  -11.4365 C   0  0  1  0  0  0  0  0  0  0  0  0
   25.9250  -20.1918  -10.1768 C   0  0  0  0  0  0  0  0  0  0  0  0
   24.6875  -19.4069   -9.9860 C   0  0  0  0  0  0  0  0  0  0  0  0
   23.4193  -20.0813  -10.2611 C   0  0  0  0  0  0  0  0  0  0  0  0
   22.5145  -20.4222   -9.2582 C   0  0  0  0  0  0  0  0  0  0  0  0
   21.3158  -21.0285   -9.4728 C   0  0  0  0  0  0  0  0  0  0  0  0
   20.9313  -21.3436  -10.7384 C   0  0  0  0  0  0  0  0  0  0  0  0
   21.7842  -21.0315  -11.7705 C   0  0  0  0  0  0  0  0  0  0  0  0
   22.9872  -20.4240  -11.5531 C   0  0  0  0  0  0  0  0  0  0  0  0
   25.9812  -21.3071   -9.1440 O   0  0  0  0  0  0  0  0  0  0  0  0
   25.9505  -20.9362   -7.8132 O   0  0  0  0  0  0  0  0  0  0  0  0
  2  1  1  0
  2  4  1  0
  3  2  2  0
  4  5  1  0
  5  6  1  0
  7  8  1  0
  7  6  1  0
  8  9  1  6
 10  8  1  0
 11 10  2  0
 12 16  1  0
 12 10  1  0
 13 12  1  0
 14 13  1  0
 14 15  1  0
 15 16  1  0
 17 19  1  0
 16 17  1  1
 18 17  2  0
 20 21  1  1
 20 19  1  0
 21 22  1  0
 22 27  1  0
 23 22  2  0
 23 24  1  0
 24 25  2  0
 25 26  1  0
 27 26  2  0
 28 29  1  0
 28 20  1  0
 30 28  2  0
M  END
$$$$
