RPF.pdb
     RDKit          3D

 30 31  0  0  1  0  0  0  0  0999 V2000
   27.8465  -21.3780  -10.2501 N   0  0  0  0  0  0  0  0  0  0  0  0
   26.4851  -21.4767   -9.9051 C   0  0  0  0  0  0  0  0  0  0  0  0
   26.0850  -20.9244   -8.8228 N   0  0  0  0  0  0  0  0  0  0  0  0
   25.5892  -22.1782  -10.7518 N   0  0  0  0  0  0  0  0  0  0  0  0
   24.8671  -21.4446  -11.7584 C   0  0  0  0  0  0  0  0  0  0  0  0
   25.6586  -21.2666  -13.0178 C   0  0  0  0  0  0  0  0  0  0  0  0
   24.9792  -20.3766  -14.0262 C   0  0  0  0  0  0  0  0  0  0  0  0
   25.2709  -20.8294  -15.4420 C   0  0  2  0  0  0  0  0  0  0  0  0
   26.6003  -20.3081  -15.8048 N   0  0  0  0  0  0  0  0  0  0  0  0
   24.2567  -20.2465  -16.3615 C   0  0  0  0  0  0  0  0  0  0  0  0
   24.3076  -19.0070  -16.6193 O   0  0  0  0  0  0  0  0  0  0  0  0
   25.1172  -21.0012   -8.4699 N   0  0  0  0  0  0  0  0  0  0  0  0
   23.2596  -21.0257  -16.9442 C   0  0  0  0  0  0  0  0  0  0  0  0
   23.1398  -22.4803  -16.8908 C   0  0  0  0  0  0  0  0  0  0  0  0
   22.5477  -22.8272  -18.2594 C   0  0  0  0  0  0  0  0  0  0  0  0
   21.4685  -21.7358  -18.3388 C   0  0  2  0  0  0  0  0  0  0  0  0
   22.1457  -20.5491  -17.7336 C   0  0  0  0  0  0  0  0  0  0  0  0
   21.2593  -19.6356  -16.9836 O   0  0  0  0  0  0  0  0  0  0  0  0
   21.2472  -19.6991  -15.7206 N   0  0  0  0  0  0  0  0  0  0  0  0
   20.3984  -18.6726  -17.5623 C   0  0  1  0  0  0  0  0  0  0  0  0
   19.4986  -17.8305  -16.8461 C   0  0  0  0  0  0  0  0  0  0  0  0
   19.8675  -16.4047  -16.7242 C   0  0  0  0  0  0  0  0  0  0  0  0
   20.1948  -15.6913  -17.9583 C   0  0  0  0  0  0  0  0  0  0  0  0
   21.4978  -15.5725  -18.4365 C   0  0  0  0  0  0  0  0  0  0  0  0
   21.8425  -14.9382  -19.5895 C   0  0  0  0  0  0  0  0  0  0  0  0
   20.8820  -14.3645  -20.3622 C   0  0  0  0  0  0  0  0  0  0  0  0
   19.5761  -14.4492  -19.9405 C   0  0  0  0  0  0  0  0  0  0  0  0
   19.2322  -15.0852  -18.7826 C   0  0  0  0  0  0  0  0  0  0  0  0
   18.1702  -17.9488  -17.5776 O   0  0  0  0  0  0  0  0  0  0  0  0
   18.1761  -18.6058  -18.7932 O   0  0  0  0  0  0  0  0  0  0  0  0
  2  1  1  0
  2  4  1  0
  3  2  2  0
  4  5  1  0
  5  6  1  0
  7  8  1  0
  7  6  1  0
  8  9  1  6
 10  8  1  0
 11 10  2  0
 12 16  1  0
 12 10  1  0
 13 12  1  0
 14 13  1  0
 14 15  1  0
 15 16  1  0
 17 19  1  0
 16 17  1  1
 18 17  2  0
 20 21  1  1
 20 19  1  0
 21 22  1  0
 22 27  1  0
 23 22  2  0
 23 24  1  0
 24 25  2  0
 25 26  1  0
 27 26  2  0
 28 29  1  0
 28 20  1  0
 30 28  2  0
M  END
$$$$
