RPF.pdb
     RDKit          3D

 30 31  0  0  1  0  0  0  0  0999 V2000
   20.2824  -22.9354   -9.5375 N   0  0  0  0  0  0  0  0  0  0  0  0
   19.9152  -22.8741  -10.8953 C   0  0  0  0  0  0  0  0  0  0  0  0
   18.8231  -23.4309  -11.2612 N   0  0  0  0  0  0  0  0  0  0  0  0
   20.7510  -22.2045  -11.8253 N   0  0  0  0  0  0  0  0  0  0  0  0
   22.0496  -22.7551  -12.1134 C   0  0  0  0  0  0  0  0  0  0  0  0
   23.1204  -21.7082  -12.1569 C   0  0  0  0  0  0  0  0  0  0  0  0
   23.3566  -21.0439  -10.8253 C   0  0  0  0  0  0  0  0  0  0  0  0
   24.8359  -20.9548  -10.5115 C   0  0  2  0  0  0  0  0  0  0  0  0
   24.9755  -20.1724   -9.2708 N   0  0  0  0  0  0  0  0  0  0  0  0
   25.5284  -20.2366  -11.6153 C   0  0  0  0  0  0  0  0  0  0  0  0
   25.0028  -19.1821  -12.0815 O   0  0  0  0  0  0  0  0  0  0  0  0
   18.4694  -23.4049  -12.2313 N   0  0  0  0  0  0  0  0  0  0  0  0
   26.7344  -20.6909  -12.1444 C   0  0  0  0  0  0  0  0  0  0  0  0
   27.5283  -21.8224  -11.6725 C   0  0  0  0  0  0  0  0  0  0  0  0
   28.9666  -21.3619  -11.9232 C   0  0  0  0  0  0  0  0  0  0  0  0
   28.7913  -20.7814  -13.3355 C   0  0  2  0  0  0  0  0  0  0  0  0
   27.4520  -20.1224  -13.2637 C   0  0  0  0  0  0  0  0  0  0  0  0
   26.6723  -20.1476  -14.5185 O   0  0  0  0  0  0  0  0  0  0  0  0
   25.6262  -20.8561  -14.5714 N   0  0  0  0  0  0  0  0  0  0  0  0
   26.9971  -19.4357  -15.6979 C   0  0  1  0  0  0  0  0  0  0  0  0
   26.2602  -19.4750  -16.9174 C   0  0  0  0  0  0  0  0  0  0  0  0
   24.9331  -18.8249  -16.9205 C   0  0  0  0  0  0  0  0  0  0  0  0
   24.8548  -17.4632  -16.3925 C   0  0  0  0  0  0  0  0  0  0  0  0
   24.2817  -17.1659  -15.1581 C   0  0  0  0  0  0  0  0  0  0  0  0
   24.2090  -15.9183  -14.6208 C   0  0  0  0  0  0  0  0  0  0  0  0
   24.7177  -14.8558  -15.2999 C   0  0  0  0  0  0  0  0  0  0  0  0
   25.2961  -15.0878  -16.5254 C   0  0  0  0  0  0  0  0  0  0  0  0
   25.3671  -16.3404  -17.0635 C   0  0  0  0  0  0  0  0  0  0  0  0
   27.1548  -18.8038  -17.9484 O   0  0  0  0  0  0  0  0  0  0  0  0
   28.3310  -18.2405  -17.4915 O   0  0  0  0  0  0  0  0  0  0  0  0
  2  1  1  0
  2  4  1  0
  3  2  2  0
  4  5  1  0
  5  6  1  0
  7  8  1  0
  7  6  1  0
  8  9  1  1
 10  8  1  0
 11 10  2  0
 12 16  1  0
 12 10  1  0
 13 12  1  0
 14 13  1  0
 14 15  1  0
 15 16  1  0
 17 19  1  0
 16 17  1  6
 18 17  2  0
 20 21  1  6
 20 19  1  0
 21 22  1  0
 22 27  1  0
 23 22  2  0
 23 24  1  0
 24 25  2  0
 25 26  1  0
 27 26  2  0
 28 29  1  0
 28 20  1  0
 30 28  2  0
M  END
$$$$
