RPF.pdb
     RDKit          3D

 30 31  0  0  1  0  0  0  0  0999 V2000
   20.3872  -20.5939  -15.9127 N   0  0  0  0  0  0  0  0  0  0  0  0
   21.0425  -19.4422  -15.4369 C   0  0  0  0  0  0  0  0  0  0  0  0
   20.4647  -18.7331  -14.5425 N   0  0  0  0  0  0  0  0  0  0  0  0
   22.3170  -19.0898  -15.9499 N   0  0  0  0  0  0  0  0  0  0  0  0
   23.0808  -20.0854  -16.6557 C   0  0  0  0  0  0  0  0  0  0  0  0
   23.3589  -21.2961  -15.8182 C   0  0  0  0  0  0  0  0  0  0  0  0
   24.2969  -22.2730  -16.4787 C   0  0  0  0  0  0  0  0  0  0  0  0
   25.6617  -21.6558  -16.7046 C   0  0  2  0  0  0  0  0  0  0  0  0
   26.4326  -22.5893  -17.5442 N   0  0  0  0  0  0  0  0  0  0  0  0
   26.3522  -21.5012  -15.3958 C   0  0  0  0  0  0  0  0  0  0  0  0
   26.6485  -22.5414  -14.7355 O   0  0  0  0  0  0  0  0  0  0  0  0
   20.8981  -17.9016  -14.1092 N   0  0  0  0  0  0  0  0  0  0  0  0
   26.6812  -20.2487  -14.8821 C   0  0  0  0  0  0  0  0  0  0  0  0
   26.5375  -18.9600  -15.5542 C   0  0  0  0  0  0  0  0  0  0  0  0
   27.7377  -18.1648  -15.0337 C   0  0  0  0  0  0  0  0  0  0  0  0
   27.6437  -18.5336  -13.5445 C   0  0  2  0  0  0  0  0  0  0  0  0
   27.2459  -19.9736  -13.5797 C   0  0  0  0  0  0  0  0  0  0  0  0
   26.3725  -20.4104  -12.4710 O   0  0  0  0  0  0  0  0  0  0  0  0
   25.1186  -20.3362  -12.6177 N   0  0  0  0  0  0  0  0  0  0  0  0
   26.8205  -20.9153  -11.2268 C   0  0  2  0  0  0  0  0  0  0  0  0
   25.9907  -21.4880  -10.2192 C   0  0  0  0  0  0  0  0  0  0  0  0
   26.6602  -21.9715   -8.9937 C   0  0  0  0  0  0  0  0  0  0  0  0
   27.2950  -20.9686   -8.1391 C   0  0  0  0  0  0  0  0  0  0  0  0
   28.6770  -20.8671   -7.9960 C   0  0  0  0  0  0  0  0  0  0  0  0
   29.3078  -19.9361   -7.2306 C   0  0  0  0  0  0  0  0  0  0  0  0
   28.5798  -19.0201   -6.5380 C   0  0  0  0  0  0  0  0  0  0  0  0
   27.2097  -19.0712   -6.6400 C   0  0  0  0  0  0  0  0  0  0  0  0
   26.5783  -20.0069   -7.4078 C   0  0  0  0  0  0  0  0  0  0  0  0
   24.9928  -20.3993   -9.8548 O   0  0  0  0  0  0  0  0  0  0  0  0
   25.3332  -19.0990  -10.1754 O   0  0  0  0  0  0  0  0  0  0  0  0
  2  1  1  0
  2  4  1  0
  3  2  2  0
  4  5  1  0
  5  6  1  0
  7  8  1  0
  7  6  1  0
  8  9  1  6
 10  8  1  0
 11 10  2  0
 12 16  1  0
 12 10  1  0
 13 12  1  0
 14 13  1  0
 14 15  1  0
 15 16  1  0
 17 19  1  0
 16 17  1  1
 18 17  2  0
 20 21  1  6
 20 19  1  0
 21 22  1  0
 22 27  1  0
 23 22  2  0
 23 24  1  0
 24 25  2  0
 25 26  1  0
 27 26  2  0
 28 29  1  0
 28 20  1  0
 30 28  2  0
M  END
$$$$
