RPF.pdb
     RDKit          3D

 30 31  0  0  1  0  0  0  0  0999 V2000
   32.1706  -22.3546  -11.4545 N   0  0  0  0  0  0  0  0  0  0  0  0
   31.2330  -22.0238  -10.4578 C   0  0  0  0  0  0  0  0  0  0  0  0
   31.5732  -22.1465   -9.2306 N   0  0  0  0  0  0  0  0  0  0  0  0
   29.9419  -21.5653  -10.8243 N   0  0  0  0  0  0  0  0  0  0  0  0
   29.6676  -21.2998  -12.2125 C   0  0  0  0  0  0  0  0  0  0  0  0
   29.2100  -19.8930  -12.4486 C   0  0  0  0  0  0  0  0  0  0  0  0
   27.8181  -19.8085  -13.0194 C   0  0  0  0  0  0  0  0  0  0  0  0
   27.8505  -19.4779  -14.4974 C   0  0  2  0  0  0  0  0  0  0  0  0
   27.8534  -18.0097  -14.6192 N   0  0  0  0  0  0  0  0  0  0  0  0
   26.6234  -20.0135  -15.1462 C   0  0  0  0  0  0  0  0  0  0  0  0
   25.5082  -19.4725  -14.8830 O   0  0  0  0  0  0  0  0  0  0  0  0
   30.9321  -21.9612   -8.4421 N   0  0  0  0  0  0  0  0  0  0  0  0
   26.6699  -21.0875  -16.0323 C   0  0  0  0  0  0  0  0  0  0  0  0
   27.8665  -21.7257  -16.5746 C   0  0  0  0  0  0  0  0  0  0  0  0
   27.4344  -22.1214  -17.9889 C   0  0  0  0  0  0  0  0  0  0  0  0
   26.0492  -22.7029  -17.6641 C   0  0  2  0  0  0  0  0  0  0  0  0
   25.5376  -21.7802  -16.6058 C   0  0  0  0  0  0  0  0  0  0  0  0
   24.6742  -22.4118  -15.5867 O   0  0  0  0  0  0  0  0  0  0  0  0
   24.8564  -23.6311  -15.3049 N   0  0  0  0  0  0  0  0  0  0  0  0
   23.6338  -21.7628  -14.8798 C   0  0  1  0  0  0  0  0  0  0  0  0
   22.7585  -22.3836  -13.9415 C   0  0  0  0  0  0  0  0  0  0  0  0
   23.3846  -23.0675  -12.7909 C   0  0  0  0  0  0  0  0  0  0  0  0
   24.2291  -22.2593  -11.9118 C   0  0  0  0  0  0  0  0  0  0  0  0
   23.7593  -21.1290  -11.2467 C   0  0  0  0  0  0  0  0  0  0  0  0
   24.5039  -20.3637  -10.4038 C   0  0  0  0  0  0  0  0  0  0  0  0
   25.8029  -20.6856  -10.1632 C   0  0  0  0  0  0  0  0  0  0  0  0
   26.3228  -21.7918  -10.7926 C   0  0  0  0  0  0  0  0  0  0  0  0
   25.5743  -22.5580  -11.6390 C   0  0  0  0  0  0  0  0  0  0  0  0
   21.8551  -21.2684  -13.4372 O   0  0  0  0  0  0  0  0  0  0  0  0
   22.1169  -19.9904  -13.8925 O   0  0  0  0  0  0  0  0  0  0  0  0
  2  1  1  0
  2  4  1  0
  3  2  2  0
  4  5  1  0
  5  6  1  0
  7  8  1  0
  7  6  1  0
  8  9  1  1
 10  8  1  0
 11 10  2  0
 12 16  1  0
 12 10  1  0
 13 12  1  0
 14 13  1  0
 14 15  1  0
 15 16  1  0
 17 19  1  0
 16 17  1  6
 18 17  2  0
 20 21  1  1
 20 19  1  0
 21 22  1  0
 22 27  1  0
 23 22  2  0
 23 24  1  0
 24 25  2  0
 25 26  1  0
 27 26  2  0
 28 29  1  0
 28 20  1  0
 30 28  2  0
M  END
$$$$
