RPF.pdb
     RDKit          3D

 30 31  0  0  1  0  0  0  0  0999 V2000
   25.0468  -16.0963  -16.9785 N   0  0  0  0  0  0  0  0  0  0  0  0
   24.0848  -16.1578  -15.9523 C   0  0  0  0  0  0  0  0  0  0  0  0
   22.8460  -16.1239  -16.2699 N   0  0  0  0  0  0  0  0  0  0  0  0
   24.4983  -16.2551  -14.5991 N   0  0  0  0  0  0  0  0  0  0  0  0
   25.9068  -16.3070  -14.3056 C   0  0  0  0  0  0  0  0  0  0  0  0
   26.5411  -17.5862  -14.7592 C   0  0  0  0  0  0  0  0  0  0  0  0
   26.5406  -18.6581  -13.7002 C   0  0  0  0  0  0  0  0  0  0  0  0
   27.2774  -19.8950  -14.1714 C   0  0  2  0  0  0  0  0  0  0  0  0
   26.4559  -20.5227  -15.2210 N   0  0  0  0  0  0  0  0  0  0  0  0
   27.4165  -20.8450  -13.0348 C   0  0  0  0  0  0  0  0  0  0  0  0
   26.4612  -21.6382  -12.7820 O   0  0  0  0  0  0  0  0  0  0  0  0
   22.0807  -16.1595  -15.5770 N   0  0  0  0  0  0  0  0  0  0  0  0
   28.5651  -20.8855  -12.2475 C   0  0  0  0  0  0  0  0  0  0  0  0
   29.7470  -20.0371  -12.3765 C   0  0  0  0  0  0  0  0  0  0  0  0
   30.8900  -20.9778  -11.9863 C   0  0  0  0  0  0  0  0  0  0  0  0
   30.2547  -21.6282  -10.7471 C   0  0  2  0  0  0  0  0  0  0  0  0
   28.8241  -21.7885  -11.1482 C   0  0  0  0  0  0  0  0  0  0  0  0
   27.8454  -21.6520  -10.0499 O   0  0  0  0  0  0  0  0  0  0  0  0
   27.7950  -22.5527   -9.1636 N   0  0  0  0  0  0  0  0  0  0  0  0
   26.9339  -20.5803   -9.8946 C   0  0  1  0  0  0  0  0  0  0  0  0
   26.0015  -20.4354   -8.8262 C   0  0  0  0  0  0  0  0  0  0  0  0
   26.2433  -19.3353   -7.8696 C   0  0  0  0  0  0  0  0  0  0  0  0
   27.1077  -19.6226   -6.7253 C   0  0  0  0  0  0  0  0  0  0  0  0
   28.2610  -18.8912   -6.4502 C   0  0  0  0  0  0  0  0  0  0  0  0
   29.0790  -19.1105   -5.3857 C   0  0  0  0  0  0  0  0  0  0  0  0
   28.7915  -20.1025   -4.5014 C   0  0  0  0  0  0  0  0  0  0  0  0
   27.6648  -20.8591   -4.7214 C   0  0  0  0  0  0  0  0  0  0  0  0
   26.8456  -20.6383   -5.7909 C   0  0  0  0  0  0  0  0  0  0  0  0
   24.6510  -20.2352   -9.4969 O   0  0  0  0  0  0  0  0  0  0  0  0
   24.6501  -20.0262  -10.8628 O   0  0  0  0  0  0  0  0  0  0  0  0
  2  1  1  0
  2  4  1  0
  3  2  2  0
  4  5  1  0
  5  6  1  0
  7  8  1  0
  7  6  1  0
  8  9  1  6
 10  8  1  0
 11 10  2  0
 12 16  1  0
 12 10  1  0
 13 12  1  0
 14 13  1  0
 14 15  1  0
 15 16  1  0
 17 19  1  0
 16 17  1  1
 18 17  2  0
 20 21  1  6
 20 19  1  0
 21 22  1  0
 22 27  1  0
 23 22  2  0
 23 24  1  0
 24 25  2  0
 25 26  1  0
 27 26  2  0
 28 29  1  0
 28 20  1  0
 30 28  2  0
M  END
$$$$
