RPF.pdb
     RDKit          3D

 30 31  0  0  1  0  0  0  0  0999 V2000
   21.3135  -16.9331  -17.1569 N   0  0  0  0  0  0  0  0  0  0  0  0
   21.8052  -18.0748  -17.8179 C   0  0  0  0  0  0  0  0  0  0  0  0
   21.1220  -18.5683  -18.7804 N   0  0  0  0  0  0  0  0  0  0  0  0
   23.0349  -18.6533  -17.4120 N   0  0  0  0  0  0  0  0  0  0  0  0
   23.0919  -19.3521  -16.1546 C   0  0  0  0  0  0  0  0  0  0  0  0
   23.0650  -18.4230  -14.9796 C   0  0  0  0  0  0  0  0  0  0  0  0
   23.1313  -19.1378  -13.6549 C   0  0  0  0  0  0  0  0  0  0  0  0
   23.4252  -20.6122  -13.8413 C   0  0  2  0  0  0  0  0  0  0  0  0
   22.1309  -21.3095  -13.9366 N   0  0  0  0  0  0  0  0  0  0  0  0
   24.1600  -21.1194  -12.6511 C   0  0  0  0  0  0  0  0  0  0  0  0
   23.4958  -21.5378  -11.6564 O   0  0  0  0  0  0  0  0  0  0  0  0
   21.4327  -19.3787  -19.3406 N   0  0  0  0  0  0  0  0  0  0  0  0
   25.5521  -21.1477  -12.6044 C   0  0  0  0  0  0  0  0  0  0  0  0
   26.4725  -20.8501  -13.6987 C   0  0  0  0  0  0  0  0  0  0  0  0
   27.6355  -21.8119  -13.4412 C   0  0  0  0  0  0  0  0  0  0  0  0
   27.7841  -21.6100  -11.9248 C   0  0  2  0  0  0  0  0  0  0  0  0
   26.3683  -21.4918  -11.4614 C   0  0  0  0  0  0  0  0  0  0  0  0
   26.1577  -20.5878  -10.3120 O   0  0  0  0  0  0  0  0  0  0  0  0
   25.6666  -19.4413  -10.5208 N   0  0  0  0  0  0  0  0  0  0  0  0
   26.4645  -20.8927   -8.9643 C   0  0  2  0  0  0  0  0  0  0  0  0
   26.3024  -20.0082   -7.8583 C   0  0  0  0  0  0  0  0  0  0  0  0
   26.3488  -20.6070   -6.5081 C   0  0  0  0  0  0  0  0  0  0  0  0
   27.6668  -20.7779   -5.8978 C   0  0  0  0  0  0  0  0  0  0  0  0
   28.3896  -19.7171   -5.3568 C   0  0  0  0  0  0  0  0  0  0  0  0
   29.6066  -19.8360   -4.7606 C   0  0  0  0  0  0  0  0  0  0  0  0
   30.1985  -21.0562   -4.6631 C   0  0  0  0  0  0  0  0  0  0  0  0
   29.5321  -22.1420   -5.1802 C   0  0  0  0  0  0  0  0  0  0  0  0
   28.3114  -22.0205   -5.7791 C   0  0  0  0  0  0  0  0  0  0  0  0
   27.4190  -18.9845   -7.9966 O   0  0  0  0  0  0  0  0  0  0  0  0
   27.1989  -17.7338   -7.4518 O   0  0  0  0  0  0  0  0  0  0  0  0
  2  1  1  0
  2  4  1  0
  3  2  2  0
  4  5  1  0
  5  6  1  0
  7  8  1  0
  7  6  1  0
  8  9  1  1
 10  8  1  0
 11 10  2  0
 12 16  1  0
 12 10  1  0
 13 12  1  0
 14 13  1  0
 14 15  1  0
 15 16  1  0
 17 19  1  0
 16 17  1  6
 18 17  2  0
 20 21  1  6
 20 19  1  0
 21 22  1  0
 22 27  1  0
 23 22  2  0
 23 24  1  0
 24 25  2  0
 25 26  1  0
 27 26  2  0
 28 29  1  0
 28 20  1  0
 30 28  2  0
M  END
$$$$
