RPF.pdb
     RDKit          3D

 30 31  0  0  1  0  0  0  0  0999 V2000
   20.7896  -22.6008   -9.6460 N   0  0  0  0  0  0  0  0  0  0  0  0
   21.9807  -21.8530   -9.7114 C   0  0  0  0  0  0  0  0  0  0  0  0
   21.9837  -20.6619   -9.2444 N   0  0  0  0  0  0  0  0  0  0  0  0
   23.1446  -22.4241  -10.2866 N   0  0  0  0  0  0  0  0  0  0  0  0
   23.7274  -21.7954  -11.4433 C   0  0  0  0  0  0  0  0  0  0  0  0
   22.9333  -22.0382  -12.6902 C   0  0  0  0  0  0  0  0  0  0  0  0
   23.5326  -21.3914  -13.9120 C   0  0  0  0  0  0  0  0  0  0  0  0
   23.8256  -19.9253  -13.6686 C   0  0  2  0  0  0  0  0  0  0  0  0
   22.5696  -19.1850  -13.8811 N   0  0  0  0  0  0  0  0  0  0  0  0
   24.8348  -19.4569  -14.6565 C   0  0  0  0  0  0  0  0  0  0  0  0
   24.4339  -18.9965  -15.7668 O   0  0  0  0  0  0  0  0  0  0  0  0
   22.7791  -20.0117   -9.3516 N   0  0  0  0  0  0  0  0  0  0  0  0
   26.2015  -19.5096  -14.3916 C   0  0  0  0  0  0  0  0  0  0  0  0
   26.8385  -19.9515  -13.1538 C   0  0  0  0  0  0  0  0  0  0  0  0
   28.0680  -19.0444  -13.0568 C   0  0  0  0  0  0  0  0  0  0  0  0
   28.5463  -19.1297  -14.5149 C   0  0  2  0  0  0  0  0  0  0  0  0
   27.2678  -19.1231  -15.2886 C   0  0  0  0  0  0  0  0  0  0  0  0
   27.2850  -19.9152  -16.5356 O   0  0  0  0  0  0  0  0  0  0  0  0
   27.0913  -21.1630  -16.4673 N   0  0  0  0  0  0  0  0  0  0  0  0
   27.5061  -19.3941  -17.8329 C   0  0  1  0  0  0  0  0  0  0  0  0
   27.3963  -20.1288  -19.0495 C   0  0  0  0  0  0  0  0  0  0  0  0
   26.0856  -20.1047  -19.7316 C   0  0  0  0  0  0  0  0  0  0  0  0
   25.4340  -18.8039  -19.8812 C   0  0  0  0  0  0  0  0  0  0  0  0
   24.5628  -18.2838  -18.9266 C   0  0  0  0  0  0  0  0  0  0  0  0
   23.9545  -17.0703  -19.0159 C   0  0  0  0  0  0  0  0  0  0  0  0
   24.1820  -16.2744  -20.0946 C   0  0  0  0  0  0  0  0  0  0  0  0
   25.0334  -16.7353  -21.0709 C   0  0  0  0  0  0  0  0  0  0  0  0
   25.6422  -17.9538  -20.9800 C   0  0  0  0  0  0  0  0  0  0  0  0
   28.4564  -19.5424  -19.9693 O   0  0  0  0  0  0  0  0  0  0  0  0
   29.1484  -18.4379  -19.5103 O   0  0  0  0  0  0  0  0  0  0  0  0
  2  1  1  0
  2  4  1  0
  3  2  2  0
  4  5  1  0
  5  6  1  0
  7  8  1  0
  7  6  1  0
  8  9  1  6
 10  8  1  0
 11 10  2  0
 12 16  1  0
 12 10  1  0
 13 12  1  0
 14 13  1  0
 14 15  1  0
 15 16  1  0
 17 19  1  0
 16 17  1  1
 18 17  2  0
 20 21  1  6
 20 19  1  0
 21 22  1  0
 22 27  1  0
 23 22  2  0
 23 24  1  0
 24 25  2  0
 25 26  1  0
 27 26  2  0
 28 29  1  0
 28 20  1  0
 30 28  2  0
M  END
$$$$
