RPF.pdb
     RDKit          3D

 30 31  0  0  1  0  0  0  0  0999 V2000
   20.0966  -17.2314  -16.9008 N   0  0  0  0  0  0  0  0  0  0  0  0
   21.4828  -17.0273  -17.0390 C   0  0  0  0  0  0  0  0  0  0  0  0
   21.8961  -16.2052  -17.9279 N   0  0  0  0  0  0  0  0  0  0  0  0
   22.3885  -17.7273  -16.2016 N   0  0  0  0  0  0  0  0  0  0  0  0
   21.8761  -18.7468  -15.3237 C   0  0  0  0  0  0  0  0  0  0  0  0
   21.1344  -18.1772  -14.1534 C   0  0  0  0  0  0  0  0  0  0  0  0
   21.5122  -18.8159  -12.8421 C   0  0  0  0  0  0  0  0  0  0  0  0
   21.6254  -20.3205  -12.9773 C   0  0  2  0  0  0  0  0  0  0  0  0
   20.3522  -20.9002  -12.5154 N   0  0  0  0  0  0  0  0  0  0  0  0
   22.7243  -20.8097  -12.1015 C   0  0  0  0  0  0  0  0  0  0  0  0
   22.5214  -20.8861  -10.8530 O   0  0  0  0  0  0  0  0  0  0  0  0
   22.8956  -16.0072  -18.0976 N   0  0  0  0  0  0  0  0  0  0  0  0
   23.9626  -21.1856  -12.6172 C   0  0  0  0  0  0  0  0  0  0  0  0
   24.3890  -21.1168  -14.0124 C   0  0  0  0  0  0  0  0  0  0  0  0
   25.2966  -22.3413  -14.1555 C   0  0  0  0  0  0  0  0  0  0  0  0
   26.1017  -22.1982  -12.8542 C   0  0  2  0  0  0  0  0  0  0  0  0
   25.0744  -21.7343  -11.8731 C   0  0  0  0  0  0  0  0  0  0  0  0
   25.5741  -20.8178  -10.8275 O   0  0  0  0  0  0  0  0  0  0  0  0
   25.4452  -19.5714  -10.9978 N   0  0  0  0  0  0  0  0  0  0  0  0
   26.2019  -21.2155   -9.6228 C   0  0  1  0  0  0  0  0  0  0  0  0
   26.8157  -20.3389   -8.6812 C   0  0  0  0  0  0  0  0  0  0  0  0
   26.3940  -20.4679   -7.2708 C   0  0  0  0  0  0  0  0  0  0  0  0
   27.2758  -19.8945   -6.2546 C   0  0  0  0  0  0  0  0  0  0  0  0
   28.0782  -20.6758   -5.4262 C   0  0  0  0  0  0  0  0  0  0  0  0
   28.9280  -20.1825   -4.4854 C   0  0  0  0  0  0  0  0  0  0  0  0
   29.0350  -18.8391   -4.3046 C   0  0  0  0  0  0  0  0  0  0  0  0
   28.2664  -18.0166   -5.0938 C   0  0  0  0  0  0  0  0  0  0  0  0
   27.4134  -18.5135   -6.0368 C   0  0  0  0  0  0  0  0  0  0  0  0
   28.3078  -20.6142   -8.7906 O   0  0  0  0  0  0  0  0  0  0  0  0
   28.6869  -21.8347   -9.3157 O   0  0  0  0  0  0  0  0  0  0  0  0
  2  1  1  0
  2  4  1  0
  3  2  2  0
  4  5  1  0
  5  6  1  0
  7  8  1  0
  7  6  1  0
  8  9  1  1
 10  8  1  0
 11 10  2  0
 12 16  1  0
 12 10  1  0
 13 12  1  0
 14 13  1  0
 14 15  1  0
 15 16  1  0
 17 19  1  0
 16 17  1  6
 18 17  2  0
 20 21  1  6
 20 19  1  0
 21 22  1  0
 22 27  1  0
 23 22  2  0
 23 24  1  0
 24 25  2  0
 25 26  1  0
 27 26  2  0
 28 29  1  0
 28 20  1  0
 30 28  2  0
M  END
$$$$
