RPF.pdb
     RDKit          3D

 30 31  0  0  1  0  0  0  0  0999 V2000
   21.3404  -18.8270  -17.0009 N   0  0  0  0  0  0  0  0  0  0  0  0
   21.5594  -17.4639  -16.7251 C   0  0  0  0  0  0  0  0  0  0  0  0
   21.0815  -16.5909  -17.5290 N   0  0  0  0  0  0  0  0  0  0  0  0
   22.2972  -17.0838  -15.5749 N   0  0  0  0  0  0  0  0  0  0  0  0
   22.9707  -18.1036  -14.8139 C   0  0  0  0  0  0  0  0  0  0  0  0
   22.7933  -19.4701  -15.4017 C   0  0  0  0  0  0  0  0  0  0  0  0
   23.3967  -20.5631  -14.5581 C   0  0  0  0  0  0  0  0  0  0  0  0
   24.8056  -20.8896  -15.0091 C   0  0  2  0  0  0  0  0  0  0  0  0
   24.7157  -22.0254  -15.9431 N   0  0  0  0  0  0  0  0  0  0  0  0
   25.6153  -21.2978  -13.8294 C   0  0  0  0  0  0  0  0  0  0  0  0
   25.3691  -22.4107  -13.2759 O   0  0  0  0  0  0  0  0  0  0  0  0
   21.2047  -15.5733  -17.4011 N   0  0  0  0  0  0  0  0  0  0  0  0
   26.6329  -20.4925  -13.3228 C   0  0  0  0  0  0  0  0  0  0  0  0
   27.1765  -19.2804  -13.9298 C   0  0  0  0  0  0  0  0  0  0  0  0
   28.6565  -19.3355  -13.5422 C   0  0  0  0  0  0  0  0  0  0  0  0
   28.5044  -19.7344  -12.0657 C   0  0  2  0  0  0  0  0  0  0  0  0
   27.3673  -20.7036  -12.0952 C   0  0  0  0  0  0  0  0  0  0  0  0
   26.5013  -20.6915  -10.8982 O   0  0  0  0  0  0  0  0  0  0  0  0
   25.4581  -19.9768  -10.9085 N   0  0  0  0  0  0  0  0  0  0  0  0
   26.7381  -21.4226   -9.7096 C   0  0  2  0  0  0  0  0  0  0  0  0
   25.8873  -21.4407   -8.5661 C   0  0  0  0  0  0  0  0  0  0  0  0
   26.5030  -21.8218   -7.2779 C   0  0  0  0  0  0  0  0  0  0  0  0
   27.5218  -20.9252   -6.7330 C   0  0  0  0  0  0  0  0  0  0  0  0
   28.8841  -21.2114   -6.7878 C   0  0  0  0  0  0  0  0  0  0  0  0
   29.8643  -20.3956   -6.3142 C   0  0  0  0  0  0  0  0  0  0  0  0
   29.5396  -19.2075   -5.7383 C   0  0  0  0  0  0  0  0  0  0  0  0
   28.2092  -18.8706   -5.6554 C   0  0  0  0  0  0  0  0  0  0  0  0
   27.2269  -19.6910   -6.1303 C   0  0  0  0  0  0  0  0  0  0  0  0
   25.3261  -20.0308   -8.4613 O   0  0  0  0  0  0  0  0  0  0  0  0
   24.1018  -19.8841   -7.8376 O   0  0  0  0  0  0  0  0  0  0  0  0
  2  1  1  0
  2  4  1  0
  3  2  2  0
  4  5  1  0
  5  6  1  0
  7  8  1  0
  7  6  1  0
  8  9  1  6
 10  8  1  0
 11 10  2  0
 12 16  1  0
 12 10  1  0
 13 12  1  0
 14 13  1  0
 14 15  1  0
 15 16  1  0
 17 19  1  0
 16 17  1  1
 18 17  2  0
 20 21  1  6
 20 19  1  0
 21 22  1  0
 22 27  1  0
 23 22  2  0
 23 24  1  0
 24 25  2  0
 25 26  1  0
 27 26  2  0
 28 29  1  0
 28 20  1  0
 30 28  2  0
M  END
$$$$
