RPF.pdb
     RDKit          3D

 30 31  0  0  1  0  0  0  0  0999 V2000
   20.8702  -15.7229  -16.6130 N   0  0  0  0  0  0  0  0  0  0  0  0
   21.9403  -16.1097  -15.7838 C   0  0  0  0  0  0  0  0  0  0  0  0
   22.5301  -15.2144  -15.0858 N   0  0  0  0  0  0  0  0  0  0  0  0
   22.3432  -17.4687  -15.7355 N   0  0  0  0  0  0  0  0  0  0  0  0
   23.3937  -17.8495  -14.8277 C   0  0  0  0  0  0  0  0  0  0  0  0
   22.8695  -18.4906  -13.5793 C   0  0  0  0  0  0  0  0  0  0  0  0
   22.1171  -19.7700  -13.8390 C   0  0  0  0  0  0  0  0  0  0  0  0
   23.0598  -20.8934  -14.2185 C   0  0  2  0  0  0  0  0  0  0  0  0
   22.2336  -22.0680  -14.5477 N   0  0  0  0  0  0  0  0  0  0  0  0
   23.9240  -21.2226  -13.0529 C   0  0  0  0  0  0  0  0  0  0  0  0
   23.3908  -21.7328  -12.0229 O   0  0  0  0  0  0  0  0  0  0  0  0
   23.3356  -15.4131  -14.4704 N   0  0  0  0  0  0  0  0  0  0  0  0
   25.2970  -20.9872  -13.0667 C   0  0  0  0  0  0  0  0  0  0  0  0
   26.0618  -20.3196  -14.1167 C   0  0  0  0  0  0  0  0  0  0  0  0
   27.3978  -21.0669  -14.0973 C   0  0  0  0  0  0  0  0  0  0  0  0
   27.6207  -21.1228  -12.5776 C   0  0  2  0  0  0  0  0  0  0  0  0
   26.2464  -21.3701  -12.0454 C   0  0  0  0  0  0  0  0  0  0  0  0
   25.9605  -20.7519  -10.7344 O   0  0  0  0  0  0  0  0  0  0  0  0
   25.4485  -19.5959  -10.7047 N   0  0  0  0  0  0  0  0  0  0  0  0
   26.2150  -21.3477   -9.4759 C   0  0  2  0  0  0  0  0  0  0  0  0
   26.2547  -20.6602   -8.2279 C   0  0  0  0  0  0  0  0  0  0  0  0
   26.6617  -21.4439   -7.0430 C   0  0  0  0  0  0  0  0  0  0  0  0
   27.4541  -20.7540   -6.0255 C   0  0  0  0  0  0  0  0  0  0  0  0
   28.6939  -21.2194   -5.5930 C   0  0  0  0  0  0  0  0  0  0  0  0
   29.4723  -20.5971   -4.6670 C   0  0  0  0  0  0  0  0  0  0  0  0
   29.0520  -19.4370   -4.0959 C   0  0  0  0  0  0  0  0  0  0  0  0
   27.8346  -18.9288   -4.4833 C   0  0  0  0  0  0  0  0  0  0  0  0
   27.0544  -19.5553   -5.4119 C   0  0  0  0  0  0  0  0  0  0  0  0
   27.2299  -19.5110   -8.4339 O   0  0  0  0  0  0  0  0  0  0  0  0
   26.8556  -18.2720   -7.9501 O   0  0  0  0  0  0  0  0  0  0  0  0
  2  1  1  0
  2  4  1  0
  3  2  2  0
  4  5  1  0
  5  6  1  0
  7  8  1  0
  7  6  1  0
  8  9  1  1
 10  8  1  0
 11 10  2  0
 12 16  1  0
 12 10  1  0
 13 12  1  0
 14 13  1  0
 14 15  1  0
 15 16  1  0
 17 19  1  0
 16 17  1  6
 18 17  2  0
 20 21  1  6
 20 19  1  0
 21 22  1  0
 22 27  1  0
 23 22  2  0
 23 24  1  0
 24 25  2  0
 25 26  1  0
 27 26  2  0
 28 29  1  0
 28 20  1  0
 30 28  2  0
M  END
$$$$
