RPF.pdb
     RDKit          3D

 30 31  0  0  1  0  0  0  0  0999 V2000
   19.4877  -19.0331  -13.4546 N   0  0  0  0  0  0  0  0  0  0  0  0
   19.6129  -20.4335  -13.3820 C   0  0  0  0  0  0  0  0  0  0  0  0
   18.6144  -21.1572  -13.7227 N   0  0  0  0  0  0  0  0  0  0  0  0
   20.8286  -21.0137  -12.9378 N   0  0  0  0  0  0  0  0  0  0  0  0
   22.0505  -20.2678  -13.0910 C   0  0  0  0  0  0  0  0  0  0  0  0
   22.3974  -20.0228  -14.5277 C   0  0  0  0  0  0  0  0  0  0  0  0
   23.7222  -19.3283  -14.7092 C   0  0  0  0  0  0  0  0  0  0  0  0
   24.7622  -20.2711  -15.2787 C   0  0  2  0  0  0  0  0  0  0  0  0
   24.0427  -21.4075  -15.8801 N   0  0  0  0  0  0  0  0  0  0  0  0
   25.6234  -20.7749  -14.1749 C   0  0  0  0  0  0  0  0  0  0  0  0
   25.3373  -21.8855  -13.6360 O   0  0  0  0  0  0  0  0  0  0  0  0
   18.6390  -22.1898  -13.7345 N   0  0  0  0  0  0  0  0  0  0  0  0
   26.7312  -20.0611  -13.7233 C   0  0  0  0  0  0  0  0  0  0  0  0
   27.2460  -18.8061  -14.2645 C   0  0  0  0  0  0  0  0  0  0  0  0
   28.7594  -18.9475  -14.0817 C   0  0  0  0  0  0  0  0  0  0  0  0
   28.7783  -19.5026  -12.6486 C   0  0  2  0  0  0  0  0  0  0  0  0
   27.6054  -20.4284  -12.6315 C   0  0  0  0  0  0  0  0  0  0  0  0
   26.8994  -20.5229  -11.3371 O   0  0  0  0  0  0  0  0  0  0  0  0
   26.0913  -19.6049  -11.0156 N   0  0  0  0  0  0  0  0  0  0  0  0
   27.0491  -21.5715  -10.3982 C   0  0  2  0  0  0  0  0  0  0  0  0
   27.1243  -21.4111   -8.9838 C   0  0  0  0  0  0  0  0  0  0  0  0
   28.2200  -20.5683   -8.4616 C   0  0  0  0  0  0  0  0  0  0  0  0
   28.1740  -20.2158   -7.0429 C   0  0  0  0  0  0  0  0  0  0  0  0
   27.4577  -19.1223   -6.5615 C   0  0  0  0  0  0  0  0  0  0  0  0
   27.3702  -18.7733   -5.2496 C   0  0  0  0  0  0  0  0  0  0  0  0
   28.0104  -19.5138   -4.3058 C   0  0  0  0  0  0  0  0  0  0  0  0
   28.7344  -20.6061   -4.7216 C   0  0  0  0  0  0  0  0  0  0  0  0
   28.8220  -20.9541   -6.0388 C   0  0  0  0  0  0  0  0  0  0  0  0
   25.7867  -20.8120   -8.5765 O   0  0  0  0  0  0  0  0  0  0  0  0
   25.2256  -21.2651   -7.3978 O   0  0  0  0  0  0  0  0  0  0  0  0
  2  1  1  0
  2  4  1  0
  3  2  2  0
  4  5  1  0
  5  6  1  0
  7  8  1  0
  7  6  1  0
  8  9  1  1
 10  8  1  0
 11 10  2  0
 12 16  1  0
 12 10  1  0
 13 12  1  0
 14 13  1  0
 14 15  1  0
 15 16  1  0
 17 19  1  0
 16 17  1  1
 18 17  2  0
 20 21  1  6
 20 19  1  0
 21 22  1  0
 22 27  1  0
 23 22  2  0
 23 24  1  0
 24 25  2  0
 25 26  1  0
 27 26  2  0
 28 29  1  0
 28 20  1  0
 30 28  2  0
M  END
$$$$
