EYY.pdb
     RDKit          3D

 34 35  0  0  1  0  0  0  0  0999 V2000
   28.3940  -21.6218  -18.8437 N   0  0  0  0  0  0  0  0  0  0  0  0
   27.7337  -20.5968  -18.0073 C   0  0  1  0  0  0  0  0  0  0  0  0
   26.3759  -20.4130  -18.6034 C   0  0  0  0  0  0  0  0  0  0  0  0
   26.2448  -19.3435  -19.6246 C   0  0  0  0  0  0  0  0  0  0  0  0
   25.4244  -19.8778  -20.7463 C   0  0  0  0  0  0  0  0  0  0  0  0
   24.3813  -20.5523  -20.5883 O   0  0  0  0  0  0  0  0  0  0  0  0
   27.5786  -21.1399  -16.6195 C   0  0  0  0  0  0  0  0  0  0  0  0
   27.4073  -22.3537  -16.3921 O   0  0  0  0  0  0  0  0  0  0  0  0
   25.7913  -19.6444  -22.0815 O   0  0  0  0  0  0  0  0  0  0  0  0
   26.6369  -20.6469   -7.7107 O   0  0  0  0  0  0  0  0  0  0  0  0
   26.9543  -20.4430   -9.0310 C   0  0  0  0  0  0  0  0  0  0  0  0
   26.1342  -19.7319   -9.8611 C   0  0  0  0  0  0  0  0  0  0  0  0
   26.4640  -19.5356  -11.1826 C   0  0  0  0  0  0  0  0  0  0  0  0
   27.6242  -20.0349  -11.7423 C   0  0  0  0  0  0  0  0  0  0  0  0
   27.9365  -19.7767  -13.1712 C   0  0  0  0  0  0  0  0  0  0  0  0
   27.3861  -20.7606  -14.1200 C   0  0  2  0  0  0  0  0  0  0  0  0
   27.6200  -20.2741  -15.4865 N   0  0  0  0  0  0  0  0  0  0  0  0
   26.0154  -21.2194  -13.9283 C   0  0  0  0  0  0  0  0  0  0  0  0
   25.7908  -22.0278  -12.9706 O   0  0  0  0  0  0  0  0  0  0  0  0
   28.4485  -20.7476  -10.9076 C   0  0  0  0  0  0  0  0  0  0  0  0
   28.1298  -20.9502   -9.5918 C   0  0  0  0  0  0  0  0  0  0  0  0
   18.0470  -19.9818  -11.0241 O   0  0  0  0  0  0  0  0  0  0  0  0
   19.3216  -19.9583  -11.5663 C   0  0  0  0  0  0  0  0  0  0  0  0
   19.6059  -19.2926  -12.7503 C   0  0  0  0  0  0  0  0  0  0  0  0
   20.8827  -19.2848  -13.2717 C   0  0  0  0  0  0  0  0  0  0  0  0
   21.9472  -19.9345  -12.6510 C   0  0  0  0  0  0  0  0  0  0  0  0
   23.3132  -19.9186  -13.2196 C   0  0  0  0  0  0  0  0  0  0  0  0
   23.5339  -20.9572  -14.2801 C   0  0  2  0  0  0  0  0  0  0  0  0
   24.9076  -20.8426  -14.7150 N   0  0  0  0  0  0  0  0  0  0  0  0
   22.5557  -20.9716  -15.3544 C   0  0  0  0  0  0  0  0  0  0  0  0
   22.6926  -20.1905  -16.3395 O   0  0  0  0  0  0  0  0  0  0  0  0
   21.6593  -20.5949  -11.4751 C   0  0  0  0  0  0  0  0  0  0  0  0
   20.3770  -20.6024  -10.9513 C   0  0  0  0  0  0  0  0  0  0  0  0
   21.4463  -21.8005  -15.3905 O   0  0  0  0  0  0  0  0  0  0  0  0
  2  1  1  6
  2  3  1  0
  3  4  1  0
  4  5  1  0
  5  9  1  0
  5  6  2  0
  7  8  2  0
  7  2  1  0
 10 11  1  0
 11 21  2  0
 12 11  1  0
 12 13  2  0
 13 14  1  0
 14 20  2  0
 14 15  1  0
 16 15  1  1
 16 17  1  0
 17  7  1  0
 18 16  1  0
 19 18  2  0
 21 20  1  0
 23 24  2  0
 23 22  1  0
 25 24  1  0
 26 25  2  0
 27 26  1  0
 28 27  1  1
 28 30  1  0
 28 29  1  0
 29 18  1  0
 30 34  1  0
 31 30  2  0
 32 26  1  0
 32 33  2  0
 33 23  1  0
M  END
$$$$
