EYY.pdb
     RDKit          3D

 34 35  0  0  1  0  0  0  0  0999 V2000
   25.5492  -19.7842  -16.5483 N   0  0  0  0  0  0  0  0  0  0  0  0
   26.5720  -19.9690  -15.4968 C   0  0  1  0  0  0  0  0  0  0  0  0
   27.5409  -18.8470  -15.6844 C   0  0  0  0  0  0  0  0  0  0  0  0
   28.7988  -19.1766  -16.4008 C   0  0  0  0  0  0  0  0  0  0  0  0
   28.7596  -18.5060  -17.7295 C   0  0  0  0  0  0  0  0  0  0  0  0
   27.8315  -17.7535  -18.1043 O   0  0  0  0  0  0  0  0  0  0  0  0
   25.9150  -19.8164  -14.1589 C   0  0  0  0  0  0  0  0  0  0  0  0
   25.5743  -18.7067  -13.7044 O   0  0  0  0  0  0  0  0  0  0  0  0
   29.7956  -18.6897  -18.6595 O   0  0  0  0  0  0  0  0  0  0  0  0
   20.0453  -19.1116  -15.8173 O   0  0  0  0  0  0  0  0  0  0  0  0
   20.9147  -19.6863  -14.9232 C   0  0  0  0  0  0  0  0  0  0  0  0
   21.5320  -20.8756  -15.1911 C   0  0  0  0  0  0  0  0  0  0  0  0
   22.4007  -21.4409  -14.2858 C   0  0  0  0  0  0  0  0  0  0  0  0
   22.6986  -20.8517  -13.0722 C   0  0  0  0  0  0  0  0  0  0  0  0
   23.6575  -21.4999  -12.1416 C   0  0  0  0  0  0  0  0  0  0  0  0
   24.9730  -20.8438  -12.0410 C   0  0  2  0  0  0  0  0  0  0  0  0
   25.6512  -20.9541  -13.3397 N   0  0  0  0  0  0  0  0  0  0  0  0
   25.8481  -21.2077  -10.9327 C   0  0  0  0  0  0  0  0  0  0  0  0
   26.0085  -22.4468  -10.6882 O   0  0  0  0  0  0  0  0  0  0  0  0
   22.0796  -19.6562  -12.8044 C   0  0  0  0  0  0  0  0  0  0  0  0
   21.2127  -19.0854  -13.6969 C   0  0  0  0  0  0  0  0  0  0  0  0
   29.6786  -20.0503   -2.9267 O   0  0  0  0  0  0  0  0  0  0  0  0
   29.2464  -19.9169   -4.2361 C   0  0  0  0  0  0  0  0  0  0  0  0
   28.2994  -18.9725   -4.6062 C   0  0  0  0  0  0  0  0  0  0  0  0
   27.8833  -18.8596   -5.9163 C   0  0  0  0  0  0  0  0  0  0  0  0
   28.3809  -19.6740   -6.9311 C   0  0  0  0  0  0  0  0  0  0  0  0
   27.9273  -19.5432   -8.3335 C   0  0  0  0  0  0  0  0  0  0  0  0
   26.9415  -20.5967   -8.7461 C   0  0  2  0  0  0  0  0  0  0  0  0
   26.5390  -20.3013  -10.1026 N   0  0  0  0  0  0  0  0  0  0  0  0
   25.8432  -20.8217   -7.8218 C   0  0  0  0  0  0  0  0  0  0  0  0
   24.7405  -20.2288   -7.9999 O   0  0  0  0  0  0  0  0  0  0  0  0
   29.3214  -20.6110   -6.5580 C   0  0  0  0  0  0  0  0  0  0  0  0
   29.7394  -20.7241   -5.2423 C   0  0  0  0  0  0  0  0  0  0  0  0
   25.9062  -21.6628   -6.7229 O   0  0  0  0  0  0  0  0  0  0  0  0
  2  1  1  6
  2  3  1  0
  3  4  1  0
  4  5  1  0
  5  9  1  0
  5  6  2  0
  7  8  2  0
  7  2  1  0
 10 11  1  0
 11 21  2  0
 12 11  1  0
 12 13  2  0
 13 14  1  0
 14 20  2  0
 14 15  1  0
 16 15  1  6
 16 17  1  0
 17  7  1  0
 18 16  1  0
 19 18  2  0
 21 20  1  0
 23 24  2  0
 23 22  1  0
 25 24  1  0
 26 25  2  0
 27 26  1  0
 28 27  1  1
 28 30  1  0
 28 29  1  0
 29 18  1  0
 30 34  1  0
 31 30  2  0
 32 26  1  0
 32 33  2  0
 33 23  1  0
M  END
$$$$
