EYY.pdb
     RDKit          3D

 34 35  0  0  1  0  0  0  0  0999 V2000
   20.4632  -12.5613  -17.9355 N   0  0  0  0  0  0  0  0  0  0  0  0
   19.5251  -11.4219  -18.0244 C   0  0  1  0  0  0  0  0  0  0  0  0
   18.6030  -11.5756  -16.8586 C   0  0  0  0  0  0  0  0  0  0  0  0
   17.2946  -12.2202  -17.1350 C   0  0  0  0  0  0  0  0  0  0  0  0
   17.0045  -13.1658  -16.0221 C   0  0  0  0  0  0  0  0  0  0  0  0
   17.8883  -13.7370  -15.3435 O   0  0  0  0  0  0  0  0  0  0  0  0
   20.3004  -10.1506  -17.8581 C   0  0  0  0  0  0  0  0  0  0  0  0
   21.3938  -10.1079  -17.2609 O   0  0  0  0  0  0  0  0  0  0  0  0
   15.6817  -13.4745  -15.6660 O   0  0  0  0  0  0  0  0  0  0  0  0
   22.0698   -1.4073  -18.7941 O   0  0  0  0  0  0  0  0  0  0  0  0
   21.6273   -2.7016  -18.9148 C   0  0  0  0  0  0  0  0  0  0  0  0
   20.3299   -3.0402  -18.6518 C   0  0  0  0  0  0  0  0  0  0  0  0
   19.8997   -4.3414  -18.7761 C   0  0  0  0  0  0  0  0  0  0  0  0
   20.7370   -5.3680  -19.1685 C   0  0  0  0  0  0  0  0  0  0  0  0
   20.2127   -6.7511  -19.3020 C   0  0  0  0  0  0  0  0  0  0  0  0
   20.4975   -7.6412  -18.1629 C   0  0  2  0  0  0  0  0  0  0  0  0
   19.8078   -8.9195  -18.3843 N   0  0  0  0  0  0  0  0  0  0  0  0
   20.2873   -7.1314  -16.8130 C   0  0  0  0  0  0  0  0  0  0  0  0
   19.1107   -7.2003  -16.3314 O   0  0  0  0  0  0  0  0  0  0  0  0
   22.0398   -5.0269  -19.4344 C   0  0  0  0  0  0  0  0  0  0  0  0
   22.4789   -3.7361  -19.3127 C   0  0  0  0  0  0  0  0  0  0  0  0
   20.1250   -5.6940   -8.2890 O   0  0  0  0  0  0  0  0  0  0  0  0
   20.4298   -6.0325   -9.5973 C   0  0  0  0  0  0  0  0  0  0  0  0
   19.5682   -6.7849  -10.3829 C   0  0  0  0  0  0  0  0  0  0  0  0
   19.8944   -7.1110  -11.6827 C   0  0  0  0  0  0  0  0  0  0  0  0
   21.0896   -6.7109  -12.2760 C   0  0  0  0  0  0  0  0  0  0  0  0
   21.4285   -7.0662  -13.6718 C   0  0  0  0  0  0  0  0  0  0  0  0
   21.0220   -6.0239  -14.6720 C   0  0  2  0  0  0  0  0  0  0  0  0
   21.2802   -6.5658  -15.9869 N   0  0  0  0  0  0  0  0  0  0  0  0
   21.5640   -4.6949  -14.4455 C   0  0  0  0  0  0  0  0  0  0  0  0
   20.7942   -3.7527  -14.1005 O   0  0  0  0  0  0  0  0  0  0  0  0
   21.9424   -5.9638  -11.4909 C   0  0  0  0  0  0  0  0  0  0  0  0
   21.6146   -5.6361  -10.1856 C   0  0  0  0  0  0  0  0  0  0  0  0
   22.9022   -4.3630  -14.5801 O   0  0  0  0  0  0  0  0  0  0  0  0
  2  1  1  1
  2  3  1  0
  3  4  1  0
  4  5  1  0
  5  9  1  0
  5  6  2  0
  7  8  2  0
  7  2  1  0
 10 11  1  0
 11 21  2  0
 12 11  1  0
 12 13  2  0
 13 14  1  0
 14 20  2  0
 14 15  1  0
 16 15  1  6
 16 17  1  0
 17  7  1  0
 18 16  1  0
 19 18  2  0
 21 20  1  0
 23 24  2  0
 23 22  1  0
 25 24  1  0
 26 25  2  0
 27 26  1  0
 28 27  1  1
 28 30  1  0
 28 29  1  0
 29 18  1  0
 30 34  1  0
 31 30  2  0
 32 26  1  0
 32 33  2  0
 33 23  1  0
M  END
$$$$
