EYY.pdb
     RDKit          3D

 34 35  0  0  1  0  0  0  0  0999 V2000
   30.2454  -23.5459  -17.3384 N   0  0  0  0  0  0  0  0  0  0  0  0
   30.5516  -24.9891  -17.2407 C   0  0  1  0  0  0  0  0  0  0  0  0
   31.6353  -25.0963  -16.2176 C   0  0  0  0  0  0  0  0  0  0  0  0
   32.9768  -24.6090  -16.6264 C   0  0  0  0  0  0  0  0  0  0  0  0
   33.6535  -25.7027  -17.3764 C   0  0  0  0  0  0  0  0  0  0  0  0
   33.1740  -26.8505  -17.5205 O   0  0  0  0  0  0  0  0  0  0  0  0
   29.3369  -25.7017  -16.7290 C   0  0  0  0  0  0  0  0  0  0  0  0
   28.4610  -25.1279  -16.0524 O   0  0  0  0  0  0  0  0  0  0  0  0
   34.9044  -25.4951  -17.9796 O   0  0  0  0  0  0  0  0  0  0  0  0
   21.6053  -29.1943  -17.5842 O   0  0  0  0  0  0  0  0  0  0  0  0
   22.8613  -28.6395  -17.5676 C   0  0  0  0  0  0  0  0  0  0  0  0
   23.3057  -27.9100  -16.5010 C   0  0  0  0  0  0  0  0  0  0  0  0
   24.5666  -27.3588  -16.4976 C   0  0  0  0  0  0  0  0  0  0  0  0
   25.4465  -27.5067  -17.5525 C   0  0  0  0  0  0  0  0  0  0  0  0
   26.8019  -26.9034  -17.4859 C   0  0  0  0  0  0  0  0  0  0  0  0
   27.8260  -27.7353  -16.8300 C   0  0  2  0  0  0  0  0  0  0  0  0
   29.1339  -27.0875  -16.9995 N   0  0  0  0  0  0  0  0  0  0  0  0
   27.8735  -29.1578  -17.1472 C   0  0  0  0  0  0  0  0  0  0  0  0
   28.2341  -29.4899  -18.3222 O   0  0  0  0  0  0  0  0  0  0  0  0
   25.0002  -28.2411  -18.6229 C   0  0  0  0  0  0  0  0  0  0  0  0
   23.7474  -28.7928  -18.6375 C   0  0  0  0  0  0  0  0  0  0  0  0
   21.1178  -31.9298  -16.4350 O   0  0  0  0  0  0  0  0  0  0  0  0
   22.4854  -32.0386  -16.2421 C   0  0  0  0  0  0  0  0  0  0  0  0
   23.2430  -33.0136  -16.8754 C   0  0  0  0  0  0  0  0  0  0  0  0
   24.6033  -33.1033  -16.6662 C   0  0  0  0  0  0  0  0  0  0  0  0
   25.2879  -32.2340  -15.8198 C   0  0  0  0  0  0  0  0  0  0  0  0
   26.7480  -32.3395  -15.6037 C   0  0  0  0  0  0  0  0  0  0  0  0
   27.5610  -31.6039  -16.6283 C   0  0  2  0  0  0  0  0  0  0  0  0
   27.5544  -30.2062  -16.2600 N   0  0  0  0  0  0  0  0  0  0  0  0
   27.2097  -31.8689  -18.0131 C   0  0  0  0  0  0  0  0  0  0  0  0
   27.5487  -32.9629  -18.5492 O   0  0  0  0  0  0  0  0  0  0  0  0
   24.5304  -31.2672  -15.1927 C   0  0  0  0  0  0  0  0  0  0  0  0
   23.1643  -31.1771  -15.4031 C   0  0  0  0  0  0  0  0  0  0  0  0
   26.5081  -30.9911  -18.8233 O   0  0  0  0  0  0  0  0  0  0  0  0
  2  1  1  1
  2  3  1  0
  3  4  1  0
  4  5  1  0
  5  9  1  0
  5  6  2  0
  7  8  2  0
  7  2  1  0
 10 11  1  0
 11 21  2  0
 12 11  1  0
 12 13  2  0
 13 14  1  0
 14 20  2  0
 14 15  1  0
 16 15  1  6
 16 17  1  0
 17  7  1  0
 18 16  1  0
 19 18  2  0
 21 20  1  0
 23 24  2  0
 23 22  1  0
 25 24  1  0
 26 25  2  0
 27 26  1  0
 28 27  1  1
 28 30  1  0
 28 29  1  0
 29 18  1  0
 30 34  1  0
 31 30  2  0
 32 26  1  0
 32 33  2  0
 33 23  1  0
M  END
$$$$
