EYY.pdb
     RDKit          3D

 34 35  0  0  1  0  0  0  0  0999 V2000
   19.6989  -11.7116  -17.1998 N   0  0  0  0  0  0  0  0  0  0  0  0
   20.8354  -10.7785  -17.0465 C   0  0  1  0  0  0  0  0  0  0  0  0
   21.1353  -10.2888  -18.4260 C   0  0  0  0  0  0  0  0  0  0  0  0
   19.9780   -9.7992  -19.2166 C   0  0  0  0  0  0  0  0  0  0  0  0
   20.1102   -8.3230  -19.3581 C   0  0  0  0  0  0  0  0  0  0  0  0
   19.6055   -7.4978  -18.5627 O   0  0  0  0  0  0  0  0  0  0  0  0
   20.3904   -9.6167  -16.2115 C   0  0  0  0  0  0  0  0  0  0  0  0
   19.2000   -9.2506  -16.1560 O   0  0  0  0  0  0  0  0  0  0  0  0
   20.8311   -7.7637  -20.4254 O   0  0  0  0  0  0  0  0  0  0  0  0
   19.4423   -4.8814   -8.9629 O   0  0  0  0  0  0  0  0  0  0  0  0
   19.9393   -5.6564   -9.9816 C   0  0  0  0  0  0  0  0  0  0  0  0
   19.5090   -6.9382  -10.1791 C   0  0  0  0  0  0  0  0  0  0  0  0
   20.0161   -7.7044  -11.2035 C   0  0  0  0  0  0  0  0  0  0  0  0
   20.9735   -7.2338  -12.0814 C   0  0  0  0  0  0  0  0  0  0  0  0
   21.4718   -8.1006  -13.1796 C   0  0  0  0  0  0  0  0  0  0  0  0
   20.9105   -7.8098  -14.5105 C   0  0  2  0  0  0  0  0  0  0  0  0
   21.3280   -8.8715  -15.4364 N   0  0  0  0  0  0  0  0  0  0  0  0
   21.1120   -6.4801  -15.0742 C   0  0  0  0  0  0  0  0  0  0  0  0
   22.2069   -6.2561  -15.6840 O   0  0  0  0  0  0  0  0  0  0  0  0
   21.4042   -5.9455  -11.8837 C   0  0  0  0  0  0  0  0  0  0  0  0
   20.9077   -5.1749  -10.8670 C   0  0  0  0  0  0  0  0  0  0  0  0
   20.2560    1.1963  -19.2121 O   0  0  0  0  0  0  0  0  0  0  0  0
   20.1474   -0.0627  -18.6442 C   0  0  0  0  0  0  0  0  0  0  0  0
   18.9536   -0.5304  -18.1133 C   0  0  0  0  0  0  0  0  0  0  0  0
   18.8705   -1.7872  -17.5514 C   0  0  0  0  0  0  0  0  0  0  0  0
   19.9627   -2.6493  -17.4839 C   0  0  0  0  0  0  0  0  0  0  0  0
   19.8613   -3.9960  -16.8791 C   0  0  0  0  0  0  0  0  0  0  0  0
   20.4617   -4.0842  -15.5066 C   0  0  2  0  0  0  0  0  0  0  0  0
   20.1933   -5.4128  -15.0045 N   0  0  0  0  0  0  0  0  0  0  0  0
   20.1055   -3.0078  -14.5980 C   0  0  0  0  0  0  0  0  0  0  0  0
   19.0632   -3.1035  -13.8883 O   0  0  0  0  0  0  0  0  0  0  0  0
   21.1466   -2.1795  -18.0125 C   0  0  0  0  0  0  0  0  0  0  0  0
   21.2300   -0.9174  -18.5770 C   0  0  0  0  0  0  0  0  0  0  0  0
   20.8401   -1.8442  -14.4384 O   0  0  0  0  0  0  0  0  0  0  0  0
  2  1  1  6
  2  3  1  0
  3  4  1  0
  4  5  1  0
  5  9  1  0
  5  6  2  0
  7  8  2  0
  7  2  1  0
 10 11  1  0
 11 21  2  0
 12 11  1  0
 12 13  2  0
 13 14  1  0
 14 20  2  0
 14 15  1  0
 16 15  1  1
 16 17  1  0
 17  7  1  0
 18 16  1  0
 19 18  2  0
 21 20  1  0
 23 24  2  0
 23 22  1  0
 25 24  1  0
 26 25  2  0
 27 26  1  0
 28 27  1  6
 28 30  1  0
 28 29  1  0
 29 18  1  0
 30 34  1  0
 31 30  2  0
 32 26  1  0
 32 33  2  0
 33 23  1  0
M  END
$$$$
