EYY.pdb
     RDKit          3D

 34 35  0  0  1  0  0  0  0  0999 V2000
   20.4340   -3.7222  -20.1739 N   0  0  0  0  0  0  0  0  0  0  0  0
   19.5686   -3.4115  -19.0161 C   0  0  1  0  0  0  0  0  0  0  0  0
   18.2068   -3.8935  -19.3981 C   0  0  0  0  0  0  0  0  0  0  0  0
   17.4868   -3.0908  -20.4185 C   0  0  0  0  0  0  0  0  0  0  0  0
   16.1380   -3.6921  -20.6077 C   0  0  0  0  0  0  0  0  0  0  0  0
   15.4646   -3.5791  -21.6574 O   0  0  0  0  0  0  0  0  0  0  0  0
   20.0447   -4.2044  -17.8373 C   0  0  0  0  0  0  0  0  0  0  0  0
   20.7389   -5.2326  -17.9599 O   0  0  0  0  0  0  0  0  0  0  0  0
   15.5335   -4.4406  -19.5849 O   0  0  0  0  0  0  0  0  0  0  0  0
   20.1879   -6.6487   -9.2318 O   0  0  0  0  0  0  0  0  0  0  0  0
   20.1523   -5.9554  -10.4165 C   0  0  0  0  0  0  0  0  0  0  0  0
   21.2709   -5.7974  -11.1854 C   0  0  0  0  0  0  0  0  0  0  0  0
   21.2215   -5.0995  -12.3704 C   0  0  0  0  0  0  0  0  0  0  0  0
   20.0590   -4.5264  -12.8488 C   0  0  0  0  0  0  0  0  0  0  0  0
   20.0618   -3.7988  -14.1436 C   0  0  0  0  0  0  0  0  0  0  0  0
   20.0057   -4.6538  -15.3423 C   0  0  2  0  0  0  0  0  0  0  0  0
   19.7148   -3.8074  -16.5074 N   0  0  0  0  0  0  0  0  0  0  0  0
   19.1663   -5.8457  -15.3071 C   0  0  0  0  0  0  0  0  0  0  0  0
   17.9377   -5.7129  -15.6139 O   0  0  0  0  0  0  0  0  0  0  0  0
   18.9353   -4.6869  -12.0769 C   0  0  0  0  0  0  0  0  0  0  0  0
   18.9732   -5.3779  -10.8958 C   0  0  0  0  0  0  0  0  0  0  0  0
   15.7778  -13.8999  -16.0061 O   0  0  0  0  0  0  0  0  0  0  0  0
   16.4736  -12.7024  -16.0386 C   0  0  0  0  0  0  0  0  0  0  0  0
   15.8401  -11.4888  -16.2660 C   0  0  0  0  0  0  0  0  0  0  0  0
   16.5545  -10.3094  -16.2956 C   0  0  0  0  0  0  0  0  0  0  0  0
   17.9333  -10.2660  -16.1019 C   0  0  0  0  0  0  0  0  0  0  0  0
   18.6891   -8.9943  -16.1352 C   0  0  0  0  0  0  0  0  0  0  0  0
   18.7131   -8.2758  -14.8179 C   0  0  2  0  0  0  0  0  0  0  0  0
   19.5987   -7.1426  -14.9622 N   0  0  0  0  0  0  0  0  0  0  0  0
   18.9759   -9.1082  -13.6563 C   0  0  0  0  0  0  0  0  0  0  0  0
   20.1667   -9.2971  -13.2749 O   0  0  0  0  0  0  0  0  0  0  0  0
   18.5580  -11.4746  -15.8767 C   0  0  0  0  0  0  0  0  0  0  0  0
   17.8405  -12.6590  -15.8467 C   0  0  0  0  0  0  0  0  0  0  0  0
   17.9946   -9.7336  -12.9046 O   0  0  0  0  0  0  0  0  0  0  0  0
  2  1  1  6
  2  3  1  0
  3  4  1  0
  4  5  1  0
  5  9  1  0
  5  6  2  0
  7  8  2  0
  7  2  1  0
 10 11  1  0
 11 21  2  0
 12 11  1  0
 12 13  2  0
 13 14  1  0
 14 20  2  0
 14 15  1  0
 16 15  1  1
 16 17  1  0
 17  7  1  0
 18 16  1  0
 19 18  2  0
 21 20  1  0
 23 24  2  0
 23 22  1  0
 25 24  1  0
 26 25  2  0
 27 26  1  0
 28 27  1  6
 28 30  1  0
 28 29  1  0
 29 18  1  0
 30 34  1  0
 31 30  2  0
 32 26  1  0
 32 33  2  0
 33 23  1  0
M  END
$$$$
