EYY.pdb
     RDKit          3D

 34 35  0  0  1  0  0  0  0  0999 V2000
   44.6395  -10.7481   -5.6544 N   0  0  0  0  0  0  0  0  0  0  0  0
   43.1976  -10.6367   -5.3469 C   0  0  1  0  0  0  0  0  0  0  0  0
   43.0885   -9.5249   -4.3546 C   0  0  0  0  0  0  0  0  0  0  0  0
   44.3337   -8.7652   -4.0779 C   0  0  0  0  0  0  0  0  0  0  0  0
   44.0056   -7.6831   -3.1093 C   0  0  0  0  0  0  0  0  0  0  0  0
   43.6277   -7.8901   -1.9335 O   0  0  0  0  0  0  0  0  0  0  0  0
   42.4722  -10.2377   -6.5957 C   0  0  0  0  0  0  0  0  0  0  0  0
   43.0373   -9.6478   -7.5374 O   0  0  0  0  0  0  0  0  0  0  0  0
   44.1070   -6.3319   -3.4777 O   0  0  0  0  0  0  0  0  0  0  0  0
   42.9025  -14.4269  -11.9213 O   0  0  0  0  0  0  0  0  0  0  0  0
   42.1105  -13.6580  -11.1046 C   0  0  0  0  0  0  0  0  0  0  0  0
   42.0391  -13.8854   -9.7590 C   0  0  0  0  0  0  0  0  0  0  0  0
   41.2407  -13.1076   -8.9520 C   0  0  0  0  0  0  0  0  0  0  0  0
   40.4762  -12.0665   -9.4424 C   0  0  0  0  0  0  0  0  0  0  0  0
   39.6460  -11.2496   -8.5208 C   0  0  0  0  0  0  0  0  0  0  0  0
   40.3257  -10.0803   -7.9361 C   0  0  2  0  0  0  0  0  0  0  0  0
   41.0833  -10.5209   -6.7568 N   0  0  0  0  0  0  0  0  0  0  0  0
   39.5392   -8.8823   -7.6664 C   0  0  0  0  0  0  0  0  0  0  0  0
   38.8272   -8.8676   -6.6111 O   0  0  0  0  0  0  0  0  0  0  0  0
   40.5497  -11.8374  -10.7938 C   0  0  0  0  0  0  0  0  0  0  0  0
   41.3394  -12.6056  -11.6062 C   0  0  0  0  0  0  0  0  0  0  0  0
   41.3848   -0.9166   -6.2765 O   0  0  0  0  0  0  0  0  0  0  0  0
   40.8602   -2.1940   -6.3874 C   0  0  0  0  0  0  0  0  0  0  0  0
   41.6563   -3.2948   -6.6707 C   0  0  0  0  0  0  0  0  0  0  0  0
   41.1108   -4.5570   -6.7780 C   0  0  0  0  0  0  0  0  0  0  0  0
   39.7491   -4.7991   -6.6110 C   0  0  0  0  0  0  0  0  0  0  0  0
   39.1753   -6.1580   -6.7278 C   0  0  0  0  0  0  0  0  0  0  0  0
   38.7803   -6.5243   -8.1285 C   0  0  2  0  0  0  0  0  0  0  0  0
   39.4987   -7.7291   -8.4767 N   0  0  0  0  0  0  0  0  0  0  0  0
   38.8791   -5.4539   -9.1061 C   0  0  0  0  0  0  0  0  0  0  0  0
   38.0959   -4.4636   -9.0351 O   0  0  0  0  0  0  0  0  0  0  0  0
   38.9624   -3.7019   -6.3301 C   0  0  0  0  0  0  0  0  0  0  0  0
   39.5104   -2.4344   -6.2221 C   0  0  0  0  0  0  0  0  0  0  0  0
   39.7937   -5.4272  -10.1463 O   0  0  0  0  0  0  0  0  0  0  0  0
  2  1  1  6
  2  3  1  0
  3  4  1  0
  4  5  1  0
  5  9  1  0
  5  6  2  0
  7  8  2  0
  7  2  1  0
 10 11  1  0
 11 21  2  0
 12 11  1  0
 12 13  2  0
 13 14  1  0
 14 20  2  0
 14 15  1  0
 16 15  1  1
 16 17  1  0
 17  7  1  0
 18 16  1  0
 19 18  2  0
 21 20  1  0
 23 24  2  0
 23 22  1  0
 25 24  1  0
 26 25  2  0
 27 26  1  0
 28 27  1  1
 28 30  1  0
 28 29  1  0
 29 18  1  0
 30 34  1  0
 31 30  2  0
 32 26  1  0
 32 33  2  0
 33 23  1  0
M  END
$$$$
