EYY.pdb
     RDKit          3D

 34 35  0  0  1  0  0  0  0  0999 V2000
   18.3608  -11.4102  -16.5700 N   0  0  0  0  0  0  0  0  0  0  0  0
   18.1271  -10.1477  -17.3032 C   0  0  1  0  0  0  0  0  0  0  0  0
   16.6505  -10.0846  -17.5237 C   0  0  0  0  0  0  0  0  0  0  0  0
   15.7990  -10.1954  -16.3126 C   0  0  0  0  0  0  0  0  0  0  0  0
   14.5593   -9.4056  -16.5493 C   0  0  0  0  0  0  0  0  0  0  0  0
   14.3133   -8.7956  -17.6148 O   0  0  0  0  0  0  0  0  0  0  0  0
   18.5300   -9.0031  -16.4243 C   0  0  0  0  0  0  0  0  0  0  0  0
   18.2121   -8.9408  -15.2205 O   0  0  0  0  0  0  0  0  0  0  0  0
   13.5712   -9.3020  -15.5569 O   0  0  0  0  0  0  0  0  0  0  0  0
   23.3561  -10.9236  -12.9456 O   0  0  0  0  0  0  0  0  0  0  0  0
   22.8066   -9.9011  -13.6793 C   0  0  0  0  0  0  0  0  0  0  0  0
   22.1942   -8.8386  -13.0765 C   0  0  0  0  0  0  0  0  0  0  0  0
   21.6469   -7.8209  -13.8237 C   0  0  0  0  0  0  0  0  0  0  0  0
   21.6826   -7.8092  -15.2048 C   0  0  0  0  0  0  0  0  0  0  0  0
   21.0901   -6.6750  -15.9586 C   0  0  0  0  0  0  0  0  0  0  0  0
   19.6286   -6.7363  -16.1356 C   0  0  2  0  0  0  0  0  0  0  0  0
   19.3043   -7.9219  -16.9406 N   0  0  0  0  0  0  0  0  0  0  0  0
   18.9356   -5.5446  -16.6108 C   0  0  0  0  0  0  0  0  0  0  0  0
   18.9812   -5.2917  -17.8578 O   0  0  0  0  0  0  0  0  0  0  0  0
   22.2994   -8.8759  -15.8097 C   0  0  0  0  0  0  0  0  0  0  0  0
   22.8460   -9.8944  -15.0764 C   0  0  0  0  0  0  0  0  0  0  0  0
   13.0727    1.0888  -17.2808 O   0  0  0  0  0  0  0  0  0  0  0  0
   13.8203   -0.0202  -16.9197 C   0  0  0  0  0  0  0  0  0  0  0  0
   14.0676   -1.0610  -17.8036 C   0  0  0  0  0  0  0  0  0  0  0  0
   14.8136   -2.1560  -17.4205 C   0  0  0  0  0  0  0  0  0  0  0  0
   15.3552   -2.2812  -16.1431 C   0  0  0  0  0  0  0  0  0  0  0  0
   16.1546   -3.4605  -15.7437 C   0  0  0  0  0  0  0  0  0  0  0  0
   17.5428   -3.4656  -16.3137 C   0  0  2  0  0  0  0  0  0  0  0  0
   18.2122   -4.6414  -15.8051 N   0  0  0  0  0  0  0  0  0  0  0  0
   18.2873   -2.2275  -16.1578 C   0  0  0  0  0  0  0  0  0  0  0  0
   18.9336   -2.0128  -15.0922 O   0  0  0  0  0  0  0  0  0  0  0  0
   15.1062   -1.2444  -15.2686 C   0  0  0  0  0  0  0  0  0  0  0  0
   14.3573   -0.1447  -15.6535 C   0  0  0  0  0  0  0  0  0  0  0  0
   18.3506   -1.2277  -17.1145 O   0  0  0  0  0  0  0  0  0  0  0  0
  2  1  1  1
  2  3  1  0
  3  4  1  0
  4  5  1  0
  5  9  1  0
  5  6  2  0
  7  8  2  0
  7  2  1  0
 10 11  1  0
 11 21  2  0
 12 11  1  0
 12 13  2  0
 13 14  1  0
 14 20  2  0
 14 15  1  0
 16 15  1  6
 16 17  1  0
 17  7  1  0
 18 16  1  0
 19 18  2  0
 21 20  1  0
 23 24  2  0
 23 22  1  0
 25 24  1  0
 26 25  2  0
 27 26  1  0
 28 27  1  1
 28 30  1  0
 28 29  1  0
 29 18  1  0
 30 34  1  0
 31 30  2  0
 32 26  1  0
 32 33  2  0
 33 23  1  0
M  END
$$$$
