EYY.pdb
     RDKit          3D

 34 35  0  0  1  0  0  0  0  0999 V2000
   28.0933  -23.2257  -17.6778 N   0  0  0  0  0  0  0  0  0  0  0  0
   27.8791  -21.8658  -17.1386 C   0  0  1  0  0  0  0  0  0  0  0  0
   27.0643  -21.1542  -18.1694 C   0  0  0  0  0  0  0  0  0  0  0  0
   27.7455  -20.0604  -18.9067 C   0  0  0  0  0  0  0  0  0  0  0  0
   27.0963  -18.7760  -18.5254 C   0  0  0  0  0  0  0  0  0  0  0  0
   27.7061  -17.8125  -18.0078 O   0  0  0  0  0  0  0  0  0  0  0  0
   27.0732  -21.9723  -15.8800 C   0  0  0  0  0  0  0  0  0  0  0  0
   26.1897  -22.8379  -15.7234 O   0  0  0  0  0  0  0  0  0  0  0  0
   25.7225  -18.5739  -18.7341 O   0  0  0  0  0  0  0  0  0  0  0  0
   24.6053  -20.3788   -7.4549 O   0  0  0  0  0  0  0  0  0  0  0  0
   25.2448  -20.3953   -8.6699 C   0  0  0  0  0  0  0  0  0  0  0  0
   26.0654  -21.4265   -9.0311 C   0  0  0  0  0  0  0  0  0  0  0  0
   26.7009  -21.4302  -10.2517 C   0  0  0  0  0  0  0  0  0  0  0  0
   26.5509  -20.4108  -11.1721 C   0  0  0  0  0  0  0  0  0  0  0  0
   27.2486  -20.4768  -12.4815 C   0  0  0  0  0  0  0  0  0  0  0  0
   26.4852  -21.1190  -13.5659 C   0  0  2  0  0  0  0  0  0  0  0  0
   27.2884  -21.0711  -14.7953 N   0  0  0  0  0  0  0  0  0  0  0  0
   25.1090  -20.6938  -13.7932 C   0  0  0  0  0  0  0  0  0  0  0  0
   24.9124  -19.7417  -14.6153 O   0  0  0  0  0  0  0  0  0  0  0  0
   25.7251  -19.3760  -10.8095 C   0  0  0  0  0  0  0  0  0  0  0  0
   25.0890  -19.3613   -9.5974 C   0  0  0  0  0  0  0  0  0  0  0  0
   22.2455  -27.1432  -14.6829 O   0  0  0  0  0  0  0  0  0  0  0  0
   22.2455  -25.7581  -14.7083 C   0  0  0  0  0  0  0  0  0  0  0  0
   23.2392  -25.0336  -15.3514 C   0  0  0  0  0  0  0  0  0  0  0  0
   23.2188  -23.6545  -15.3617 C   0  0  0  0  0  0  0  0  0  0  0  0
   22.2152  -22.9174  -14.7370 C   0  0  0  0  0  0  0  0  0  0  0  0
   22.2034  -21.4379  -14.7553 C   0  0  0  0  0  0  0  0  0  0  0  0
   22.6154  -20.8183  -13.4521 C   0  0  2  0  0  0  0  0  0  0  0  0
   23.9677  -21.2496  -13.1794 N   0  0  0  0  0  0  0  0  0  0  0  0
   21.6854  -21.0020  -12.3508 C   0  0  0  0  0  0  0  0  0  0  0  0
   22.0616  -21.6041  -11.3043 O   0  0  0  0  0  0  0  0  0  0  0  0
   21.2305  -23.6422  -14.0992 C   0  0  0  0  0  0  0  0  0  0  0  0
   21.2509  -25.0271  -14.0891 C   0  0  0  0  0  0  0  0  0  0  0  0
   20.3741  -20.5552  -12.3522 O   0  0  0  0  0  0  0  0  0  0  0  0
  2  1  1  6
  2  3  1  0
  3  4  1  0
  4  5  1  0
  5  9  1  0
  5  6  2  0
  7  8  2  0
  7  2  1  0
 10 11  1  0
 11 21  2  0
 12 11  1  0
 12 13  2  0
 13 14  1  0
 14 20  2  0
 14 15  1  0
 16 15  1  1
 16 17  1  0
 17  7  1  0
 18 16  1  0
 19 18  2  0
 21 20  1  0
 23 24  2  0
 23 22  1  0
 25 24  1  0
 26 25  2  0
 27 26  1  0
 28 27  1  6
 28 30  1  0
 28 29  1  0
 29 18  1  0
 30 34  1  0
 31 30  2  0
 32 26  1  0
 32 33  2  0
 33 23  1  0
M  END
$$$$
