EYY.pdb
     RDKit          3D

 34 35  0  0  1  0  0  0  0  0999 V2000
   26.4973  -21.9539  -18.7058 N   0  0  0  0  0  0  0  0  0  0  0  0
   26.7811  -20.8677  -17.7439 C   0  0  1  0  0  0  0  0  0  0  0  0
   26.0593  -19.6710  -18.2727 C   0  0  0  0  0  0  0  0  0  0  0  0
   26.7469  -18.9084  -19.3450 C   0  0  0  0  0  0  0  0  0  0  0  0
   27.9715  -18.2962  -18.7600 C   0  0  0  0  0  0  0  0  0  0  0  0
   27.9780  -17.6182  -17.7071 O   0  0  0  0  0  0  0  0  0  0  0  0
   26.1895  -21.2371  -16.4178 C   0  0  0  0  0  0  0  0  0  0  0  0
   25.2246  -22.0191  -16.3110 O   0  0  0  0  0  0  0  0  0  0  0  0
   29.2216  -18.4535  -19.3798 O   0  0  0  0  0  0  0  0  0  0  0  0
   25.1612  -20.6923   -7.5092 O   0  0  0  0  0  0  0  0  0  0  0  0
   25.6256  -20.7007   -8.8014 C   0  0  0  0  0  0  0  0  0  0  0  0
   25.9715  -19.5452   -9.4435 C   0  0  0  0  0  0  0  0  0  0  0  0
   26.4348  -19.5677  -10.7391 C   0  0  0  0  0  0  0  0  0  0  0  0
   26.5779  -20.7387  -11.4582 C   0  0  0  0  0  0  0  0  0  0  0  0
   27.0995  -20.7036  -12.8483 C   0  0  0  0  0  0  0  0  0  0  0  0
   26.0990  -20.9604  -13.8991 C   0  0  2  0  0  0  0  0  0  0  0  0
   26.7157  -20.6976  -15.2065 N   0  0  0  0  0  0  0  0  0  0  0  0
   24.7867  -20.3364  -13.7765 C   0  0  0  0  0  0  0  0  0  0  0  0
   24.7079  -19.0813  -13.9753 O   0  0  0  0  0  0  0  0  0  0  0  0
   26.2321  -21.8994  -10.8121 C   0  0  0  0  0  0  0  0  0  0  0  0
   25.7687  -21.8886   -9.5240 C   0  0  0  0  0  0  0  0  0  0  0  0
   17.3084  -16.3181  -13.5731 O   0  0  0  0  0  0  0  0  0  0  0  0
   18.4489  -17.0819  -13.7607 C   0  0  0  0  0  0  0  0  0  0  0  0
   18.4332  -18.2611  -14.4922 C   0  0  0  0  0  0  0  0  0  0  0  0
   19.5814  -19.0056  -14.6638 C   0  0  0  0  0  0  0  0  0  0  0  0
   20.8069  -18.6248  -14.1218 C   0  0  0  0  0  0  0  0  0  0  0  0
   22.0325  -19.4315  -14.3132 C   0  0  0  0  0  0  0  0  0  0  0  0
   22.3447  -20.3328  -13.1547 C   0  0  2  0  0  0  0  0  0  0  0  0
   23.5878  -21.0059  -13.4564 N   0  0  0  0  0  0  0  0  0  0  0  0
   21.2647  -21.2103  -12.7364 C   0  0  0  0  0  0  0  0  0  0  0  0
   21.1981  -22.3872  -13.1942 O   0  0  0  0  0  0  0  0  0  0  0  0
   20.8169  -17.4525  -13.3955 C   0  0  0  0  0  0  0  0  0  0  0  0
   19.6638  -16.7047  -13.2234 C   0  0  0  0  0  0  0  0  0  0  0  0
   20.2668  -20.8516  -11.8449 O   0  0  0  0  0  0  0  0  0  0  0  0
  2  1  1  6
  2  3  1  0
  3  4  1  0
  4  5  1  0
  5  9  1  0
  5  6  2  0
  7  8  2  0
  7  2  1  0
 10 11  1  0
 11 21  2  0
 12 11  1  0
 12 13  2  0
 13 14  1  0
 14 20  2  0
 14 15  1  0
 16 15  1  1
 16 17  1  0
 17  7  1  0
 18 16  1  0
 19 18  2  0
 21 20  1  0
 23 24  2  0
 23 22  1  0
 25 24  1  0
 26 25  2  0
 27 26  1  0
 28 27  1  6
 28 30  1  0
 28 29  1  0
 29 18  1  0
 30 34  1  0
 31 30  2  0
 32 26  1  0
 32 33  2  0
 33 23  1  0
M  END
$$$$
