EYY.pdb
     RDKit          3D

 34 35  0  0  1  0  0  0  0  0999 V2000
   26.7376  -22.8508  -17.0306 N   0  0  0  0  0  0  0  0  0  0  0  0
   25.3982  -22.6376  -17.6193 C   0  0  1  0  0  0  0  0  0  0  0  0
   24.6266  -23.8791  -17.3094 C   0  0  0  0  0  0  0  0  0  0  0  0
   24.2777  -24.7429  -18.4653 C   0  0  0  0  0  0  0  0  0  0  0  0
   25.5349  -25.0607  -19.1969 C   0  0  0  0  0  0  0  0  0  0  0  0
   26.5144  -25.6450  -18.6799 O   0  0  0  0  0  0  0  0  0  0  0  0
   24.7480  -21.4821  -16.9215 C   0  0  0  0  0  0  0  0  0  0  0  0
   24.8974  -21.2677  -15.7025 O   0  0  0  0  0  0  0  0  0  0  0  0
   25.6903  -24.7097  -20.5476 O   0  0  0  0  0  0  0  0  0  0  0  0
   20.5488  -13.6552  -16.0969 O   0  0  0  0  0  0  0  0  0  0  0  0
   21.1468  -14.7979  -16.5681 C   0  0  0  0  0  0  0  0  0  0  0  0
   22.5021  -14.9662  -16.5211 C   0  0  0  0  0  0  0  0  0  0  0  0
   23.0887  -16.1162  -16.9976 C   0  0  0  0  0  0  0  0  0  0  0  0
   22.3574  -17.1542  -17.5424 C   0  0  0  0  0  0  0  0  0  0  0  0
   23.0436  -18.3796  -18.0254 C   0  0  0  0  0  0  0  0  0  0  0  0
   23.3046  -19.3989  -16.9938 C   0  0  2  0  0  0  0  0  0  0  0  0
   23.9177  -20.5690  -17.6370 N   0  0  0  0  0  0  0  0  0  0  0  0
   22.2181  -19.7730  -16.0961 C   0  0  0  0  0  0  0  0  0  0  0  0
   21.4017  -20.6648  -16.4954 O   0  0  0  0  0  0  0  0  0  0  0  0
   20.9959  -16.9853  -17.5878 C   0  0  0  0  0  0  0  0  0  0  0  0
   20.4019  -15.8450  -17.1179 C   0  0  0  0  0  0  0  0  0  0  0  0
   17.3698  -21.3625   -8.8546 O   0  0  0  0  0  0  0  0  0  0  0  0
   18.3420  -20.9747   -9.7622 C   0  0  0  0  0  0  0  0  0  0  0  0
   19.0238  -21.8930  -10.5481 C   0  0  0  0  0  0  0  0  0  0  0  0
   19.9891  -21.4830  -11.4437 C   0  0  0  0  0  0  0  0  0  0  0  0
   20.3325  -20.1433  -11.6108 C   0  0  0  0  0  0  0  0  0  0  0  0
   21.3696  -19.7151  -12.5755 C   0  0  0  0  0  0  0  0  0  0  0  0
   20.8620  -19.5786  -13.9811 C   0  0  2  0  0  0  0  0  0  0  0  0
   21.9910  -19.2315  -14.8142 N   0  0  0  0  0  0  0  0  0  0  0  0
   19.6995  -18.7225  -14.1457 C   0  0  0  0  0  0  0  0  0  0  0  0
   19.8531  -17.4761  -14.2948 O   0  0  0  0  0  0  0  0  0  0  0  0
   19.6524  -19.2349  -10.8272 C   0  0  0  0  0  0  0  0  0  0  0  0
   18.6827  -19.6468   -9.9280 C   0  0  0  0  0  0  0  0  0  0  0  0
   18.3903  -19.1751  -14.1541 O   0  0  0  0  0  0  0  0  0  0  0  0
  2  1  1  1
  2  3  1  0
  3  4  1  0
  4  5  1  0
  5  9  1  0
  5  6  2  0
  7  8  2  0
  7  2  1  0
 10 11  1  0
 11 21  2  0
 12 11  1  0
 12 13  2  0
 13 14  1  0
 14 20  2  0
 14 15  1  0
 16 15  1  6
 16 17  1  0
 17  7  1  0
 18 16  1  0
 19 18  2  0
 21 20  1  0
 23 24  2  0
 23 22  1  0
 25 24  1  0
 26 25  2  0
 27 26  1  0
 28 27  1  1
 28 30  1  0
 28 29  1  0
 29 18  1  0
 30 34  1  0
 31 30  2  0
 32 26  1  0
 32 33  2  0
 33 23  1  0
M  END
$$$$
