EYY.pdb
     RDKit          3D

 34 35  0  0  1  0  0  0  0  0999 V2000
   22.8749  -12.6251  -20.3366 N   0  0  0  0  0  0  0  0  0  0  0  0
   23.5788  -11.7528  -19.3725 C   0  0  1  0  0  0  0  0  0  0  0  0
   24.5877  -11.0024  -20.1798 C   0  0  0  0  0  0  0  0  0  0  0  0
   24.0846  -10.3366  -21.4077 C   0  0  0  0  0  0  0  0  0  0  0  0
   25.2447   -9.7078  -22.0972 C   0  0  0  0  0  0  0  0  0  0  0  0
   26.4401   -9.9719  -21.8335 O   0  0  0  0  0  0  0  0  0  0  0  0
   22.5948  -10.7751  -18.8059 C   0  0  0  0  0  0  0  0  0  0  0  0
   21.6745  -10.2824  -19.4873 O   0  0  0  0  0  0  0  0  0  0  0  0
   25.0502   -8.7559  -23.1110 O   0  0  0  0  0  0  0  0  0  0  0  0
   16.6915   -7.4377  -13.3208 O   0  0  0  0  0  0  0  0  0  0  0  0
   17.6262   -8.1358  -14.0450 C   0  0  0  0  0  0  0  0  0  0  0  0
   17.7001   -8.0303  -15.4054 C   0  0  0  0  0  0  0  0  0  0  0  0
   18.6413   -8.7362  -16.1192 C   0  0  0  0  0  0  0  0  0  0  0  0
   19.5546   -9.5794  -15.5161 C   0  0  0  0  0  0  0  0  0  0  0  0
   20.5593  -10.3030  -16.3362 C   0  0  0  0  0  0  0  0  0  0  0  0
   21.6751   -9.4778  -16.8312 C   0  0  2  0  0  0  0  0  0  0  0  0
   22.6760  -10.3626  -17.4427 N   0  0  0  0  0  0  0  0  0  0  0  0
   22.2802   -8.5105  -15.9231 C   0  0  0  0  0  0  0  0  0  0  0  0
   23.2055   -8.9222  -15.1516 O   0  0  0  0  0  0  0  0  0  0  0  0
   19.4810   -9.6837  -14.1494 C   0  0  0  0  0  0  0  0  0  0  0  0
   18.5480   -8.9873  -13.4294 C   0  0  0  0  0  0  0  0  0  0  0  0
   25.3726   -3.7151  -20.1765 O   0  0  0  0  0  0  0  0  0  0  0  0
   25.0465   -4.3154  -18.9713 C   0  0  0  0  0  0  0  0  0  0  0  0
   24.7710   -3.5746  -17.8306 C   0  0  0  0  0  0  0  0  0  0  0  0
   24.4503   -4.1949  -16.6413 C   0  0  0  0  0  0  0  0  0  0  0  0
   24.3846   -5.5808  -16.5154 C   0  0  0  0  0  0  0  0  0  0  0  0
   24.0387   -6.2352  -15.2341 C   0  0  0  0  0  0  0  0  0  0  0  0
   22.5700   -6.2141  -14.9267 C   0  0  2  0  0  0  0  0  0  0  0  0
   21.9294   -7.1484  -15.8245 N   0  0  0  0  0  0  0  0  0  0  0  0
   21.9590   -4.8965  -14.8838 C   0  0  0  0  0  0  0  0  0  0  0  0
   21.0586   -4.5938  -15.7185 O   0  0  0  0  0  0  0  0  0  0  0  0
   24.6596   -6.3122  -17.6517 C   0  0  0  0  0  0  0  0  0  0  0  0
   24.9814   -5.6891  -18.8461 C   0  0  0  0  0  0  0  0  0  0  0  0
   22.2927   -3.9094  -13.9708 O   0  0  0  0  0  0  0  0  0  0  0  0
  2  1  1  6
  2  3  1  0
  3  4  1  0
  4  5  1  0
  5  9  1  0
  5  6  2  0
  7  8  2  0
  7  2  1  0
 10 11  1  0
 11 21  2  0
 12 11  1  0
 12 13  2  0
 13 14  1  0
 14 20  2  0
 14 15  1  0
 16 15  1  1
 16 17  1  0
 17  7  1  0
 18 16  1  0
 19 18  2  0
 21 20  1  0
 23 24  2  0
 23 22  1  0
 25 24  1  0
 26 25  2  0
 27 26  1  0
 28 27  1  6
 28 30  1  0
 28 29  1  0
 29 18  1  0
 30 34  1  0
 31 30  2  0
 32 26  1  0
 32 33  2  0
 33 23  1  0
M  END
$$$$
