EYY.pdb
     RDKit          3D

 34 35  0  0  1  0  0  0  0  0999 V2000
   24.1607  -35.3030   -7.6575 N   0  0  0  0  0  0  0  0  0  0  0  0
   23.7605  -34.0664   -6.9529 C   0  0  1  0  0  0  0  0  0  0  0  0
   22.2700  -34.0204   -7.0482 C   0  0  0  0  0  0  0  0  0  0  0  0
   21.7057  -33.6881   -8.3806 C   0  0  0  0  0  0  0  0  0  0  0  0
   20.7758  -32.5377   -8.2114 C   0  0  0  0  0  0  0  0  0  0  0  0
   20.1119  -32.0337   -9.1459 O   0  0  0  0  0  0  0  0  0  0  0  0
   24.1450  -34.1927   -5.5102 C   0  0  0  0  0  0  0  0  0  0  0  0
   24.2427  -35.2964   -4.9388 O   0  0  0  0  0  0  0  0  0  0  0  0
   20.5906  -31.9406   -6.9540 O   0  0  0  0  0  0  0  0  0  0  0  0
   27.1230  -31.6630    2.5158 O   0  0  0  0  0  0  0  0  0  0  0  0
   26.8191  -31.8070    1.1844 C   0  0  0  0  0  0  0  0  0  0  0  0
   25.7358  -31.1871    0.6281 C   0  0  0  0  0  0  0  0  0  0  0  0
   25.4421  -31.3405   -0.7076 C   0  0  0  0  0  0  0  0  0  0  0  0
   26.2107  -32.1158   -1.5544 C   0  0  0  0  0  0  0  0  0  0  0  0
   25.8550  -32.2310   -2.9918 C   0  0  0  0  0  0  0  0  0  0  0  0
   24.7161  -33.1184   -3.2857 C   0  0  2  0  0  0  0  0  0  0  0  0
   24.4168  -33.0353   -4.7218 N   0  0  0  0  0  0  0  0  0  0  0  0
   23.5147  -33.0014   -2.4676 C   0  0  0  0  0  0  0  0  0  0  0  0
   22.5592  -32.2909   -2.9184 O   0  0  0  0  0  0  0  0  0  0  0  0
   27.2997  -32.7369   -0.9954 C   0  0  0  0  0  0  0  0  0  0  0  0
   27.6004  -32.5924    0.3322 C   0  0  0  0  0  0  0  0  0  0  0  0
   16.3309  -37.0846   -0.4442 O   0  0  0  0  0  0  0  0  0  0  0  0
   17.5822  -36.5837   -0.7644 C   0  0  0  0  0  0  0  0  0  0  0  0
   18.7520  -37.2147   -0.3653 C   0  0  0  0  0  0  0  0  0  0  0  0
   19.9867  -36.6959   -0.6947 C   0  0  0  0  0  0  0  0  0  0  0  0
   20.1317  -35.5256   -1.4364 C   0  0  0  0  0  0  0  0  0  0  0  0
   21.4619  -34.9787   -1.7845 C   0  0  0  0  0  0  0  0  0  0  0  0
   22.0310  -34.0707   -0.7340 C   0  0  2  0  0  0  0  0  0  0  0  0
   23.3155  -33.6119   -1.2123 N   0  0  0  0  0  0  0  0  0  0  0  0
   22.0417  -34.6066    0.6166 C   0  0  0  0  0  0  0  0  0  0  0  0
   20.9539  -34.7448    1.2465 O   0  0  0  0  0  0  0  0  0  0  0  0
   18.9662  -34.9023   -1.8301 C   0  0  0  0  0  0  0  0  0  0  0  0
   17.7263  -35.4235   -1.4994 C   0  0  0  0  0  0  0  0  0  0  0  0
   23.1859  -34.9931    1.2952 O   0  0  0  0  0  0  0  0  0  0  0  0
  2  1  1  6
  2  3  1  0
  3  4  1  0
  4  5  1  0
  5  9  1  0
  5  6  2  0
  7  8  2  0
  7  2  1  0
 10 11  1  0
 11 21  2  0
 12 11  1  0
 12 13  2  0
 13 14  1  0
 14 20  2  0
 14 15  1  0
 16 15  1  1
 16 17  1  0
 17  7  1  0
 18 16  1  0
 19 18  2  0
 21 20  1  0
 23 24  2  0
 23 22  1  0
 25 24  1  0
 26 25  2  0
 27 26  1  0
 28 27  1  6
 28 30  1  0
 28 29  1  0
 29 18  1  0
 30 34  1  0
 31 30  2  0
 32 26  1  0
 32 33  2  0
 33 23  1  0
M  END
$$$$
