EYY.pdb
     RDKit          3D

 34 35  0  0  1  0  0  0  0  0999 V2000
   19.8389  -20.4252  -12.5899 N   0  0  0  0  0  0  0  0  0  0  0  0
   20.6722  -20.8867  -13.7206 C   0  0  1  0  0  0  0  0  0  0  0  0
   19.7071  -21.2535  -14.8008 C   0  0  0  0  0  0  0  0  0  0  0  0
   18.9129  -20.1406  -15.3794 C   0  0  0  0  0  0  0  0  0  0  0  0
   17.9966  -20.7143  -16.4030 C   0  0  0  0  0  0  0  0  0  0  0  0
   16.8855  -21.2267  -16.1363 O   0  0  0  0  0  0  0  0  0  0  0  0
   21.5105  -19.7393  -14.1959 C   0  0  0  0  0  0  0  0  0  0  0  0
   21.1436  -18.5530  -14.0857 O   0  0  0  0  0  0  0  0  0  0  0  0
   18.3437  -20.7094  -17.7636 O   0  0  0  0  0  0  0  0  0  0  0  0
   28.7169  -15.5828  -17.5192 O   0  0  0  0  0  0  0  0  0  0  0  0
   27.8173  -16.4510  -16.9512 C   0  0  0  0  0  0  0  0  0  0  0  0
   27.5609  -17.6750  -17.5019 C   0  0  0  0  0  0  0  0  0  0  0  0
   26.6563  -18.5354  -16.9229 C   0  0  0  0  0  0  0  0  0  0  0  0
   25.9643  -18.2217  -15.7690 C   0  0  0  0  0  0  0  0  0  0  0  0
   25.0123  -19.1972  -15.1794 C   0  0  0  0  0  0  0  0  0  0  0  0
   23.5872  -18.8703  -15.3623 C   0  0  2  0  0  0  0  0  0  0  0  0
   22.7809  -19.9646  -14.8044 N   0  0  0  0  0  0  0  0  0  0  0  0
   23.1300  -18.4735  -16.6889 C   0  0  0  0  0  0  0  0  0  0  0  0
   22.7261  -19.3908  -17.4740 O   0  0  0  0  0  0  0  0  0  0  0  0
   26.2235  -16.9927  -15.2153 C   0  0  0  0  0  0  0  0  0  0  0  0
   27.1203  -16.1285  -15.7835 C   0  0  0  0  0  0  0  0  0  0  0  0
   20.3432  -13.6232  -23.6167 O   0  0  0  0  0  0  0  0  0  0  0  0
   20.7798  -14.0620  -22.3774 C   0  0  0  0  0  0  0  0  0  0  0  0
   22.0793  -13.8524  -21.9380 C   0  0  0  0  0  0  0  0  0  0  0  0
   22.4915  -14.3003  -20.7004 C   0  0  0  0  0  0  0  0  0  0  0  0
   21.6414  -14.9793  -19.8303 C   0  0  0  0  0  0  0  0  0  0  0  0
   22.0947  -15.4545  -18.5044 C   0  0  0  0  0  0  0  0  0  0  0  0
   22.7384  -16.8096  -18.5404 C   0  0  2  0  0  0  0  0  0  0  0  0
   23.0938  -17.1531  -17.1821 N   0  0  0  0  0  0  0  0  0  0  0  0
   23.8115  -16.9666  -19.5074 C   0  0  0  0  0  0  0  0  0  0  0  0
   24.9874  -16.6138  -19.2040 O   0  0  0  0  0  0  0  0  0  0  0  0
   20.3513  -15.1853  -20.2719 C   0  0  0  0  0  0  0  0  0  0  0  0
   19.9374  -14.7352  -21.5147 C   0  0  0  0  0  0  0  0  0  0  0  0
   23.6472  -17.4903  -20.7794 O   0  0  0  0  0  0  0  0  0  0  0  0
  2  1  1  1
  2  3  1  0
  3  4  1  0
  4  5  1  0
  5  9  1  0
  5  6  2  0
  7  8  2  0
  7  2  1  0
 10 11  1  0
 11 21  2  0
 12 11  1  0
 12 13  2  0
 13 14  1  0
 14 20  2  0
 14 15  1  0
 16 15  1  6
 16 17  1  0
 17  7  1  0
 18 16  1  0
 19 18  2  0
 21 20  1  0
 23 24  2  0
 23 22  1  0
 25 24  1  0
 26 25  2  0
 27 26  1  0
 28 27  1  1
 28 30  1  0
 28 29  1  0
 29 18  1  0
 30 34  1  0
 31 30  2  0
 32 26  1  0
 32 33  2  0
 33 23  1  0
M  END
$$$$
