GWA.pdb
     RDKit          3D

 24 25  0  0  1  0  0  0  0  0999 V2000
   27.5198  -22.6314  -18.0909 N   0  0  0  0  0  0  0  0  0  0  0  0
   26.5716  -21.6585  -17.6262 C   0  0  0  0  0  0  0  0  0  0  0  0
   26.1243  -21.9220  -16.2352 C   0  0  0  0  0  0  0  0  0  0  0  0
   26.4769  -22.9748  -15.6493 O   0  0  0  0  0  0  0  0  0  0  0  0
   25.2967  -21.0218  -15.5143 N   0  0  0  0  0  0  0  0  0  0  0  0
   24.9387  -21.1625  -14.1205 C   0  0  1  0  0  0  0  0  0  0  0  0
   25.4281  -20.0971  -13.2202 C   0  0  0  0  0  0  0  0  0  0  0  0
   26.8745  -19.9691  -13.0513 C   0  0  0  0  0  0  0  0  0  0  0  0
   27.8432  -19.4048  -13.8366 C   0  0  0  0  0  0  0  0  0  0  0  0
   29.0151  -19.5692  -13.2088 N   0  0  0  0  0  0  0  0  0  0  0  0
   28.8433  -20.2108  -12.0610 C   0  0  0  0  0  0  0  0  0  0  0  0
   29.7547  -20.6002  -11.0880 C   0  0  0  0  0  0  0  0  0  0  0  0
   29.2739  -21.2661   -9.9819 C   0  0  0  0  0  0  0  0  0  0  0  0
   27.9408  -21.5459   -9.8262 C   0  0  0  0  0  0  0  0  0  0  0  0
   27.0506  -21.1582  -10.7906 C   0  0  0  0  0  0  0  0  0  0  0  0
   27.5097  -20.4820  -11.9218 C   0  0  0  0  0  0  0  0  0  0  0  0
   23.4268  -21.0461  -14.1075 C   0  0  0  0  0  0  0  0  0  0  0  0
   22.9365  -20.0631  -14.7522 O   0  0  0  0  0  0  0  0  0  0  0  0
   20.4035  -23.0634  -13.2817 C   0  0  0  0  0  0  0  0  0  0  0  0
   21.1285  -21.7842  -13.5471 C   0  0  2  0  0  0  0  0  0  0  0  0
   22.5817  -21.9379  -13.4431 N   0  0  0  0  0  0  0  0  0  0  0  0
   20.6568  -20.7808  -12.5633 C   0  0  0  0  0  0  0  0  0  0  0  0
   21.5511  -20.3311  -11.5998 O   0  0  0  0  0  0  0  0  0  0  0  0
   19.4935  -20.3702  -12.6202 O   0  0  0  0  0  0  0  0  0  0  0  0
  1  2  1  0
  3  4  2  0
  3  2  1  0
  5  3  1  0
  6  5  1  0
  6  7  1  1
  8  7  1  0
  8 16  1  0
  9  8  2  0
 10  9  1  0
 10 11  1  0
 11 12  1  0
 11 16  2  0
 12 13  2  0
 13 14  1  0
 15 14  2  0
 16 15  1  0
 17  6  1  0
 18 17  2  0
 20 19  1  1
 20 22  1  0
 20 21  1  0
 21 17  1  0
 22 23  1  0
 24 22  2  0
M  END
$$$$
