GWA.pdb
     RDKit          3D

 24 25  0  0  1  0  0  0  0  0999 V2000
   29.5337  -19.1956  -14.3106 N   0  0  0  0  0  0  0  0  0  0  0  0
   28.3435  -18.8865  -13.5691 C   0  0  0  0  0  0  0  0  0  0  0  0
   27.5287  -20.0925  -13.2761 C   0  0  0  0  0  0  0  0  0  0  0  0
   27.7753  -21.1760  -13.8602 O   0  0  0  0  0  0  0  0  0  0  0  0
   26.4570  -20.0840  -12.3453 N   0  0  0  0  0  0  0  0  0  0  0  0
   25.6681  -21.2398  -11.9814 C   0  0  1  0  0  0  0  0  0  0  0  0
   25.3273  -21.3602  -10.5480 C   0  0  0  0  0  0  0  0  0  0  0  0
   26.2048  -20.6927   -9.5883 C   0  0  0  0  0  0  0  0  0  0  0  0
   25.9854  -19.6769   -8.6973 C   0  0  0  0  0  0  0  0  0  0  0  0
   27.1411  -19.4451   -8.0605 N   0  0  0  0  0  0  0  0  0  0  0  0
   28.0881  -20.2625   -8.5004 C   0  0  0  0  0  0  0  0  0  0  0  0
   29.4240  -20.3882   -8.1416 C   0  0  0  0  0  0  0  0  0  0  0  0
   30.1785  -21.3447   -8.7850 C   0  0  0  0  0  0  0  0  0  0  0  0
   29.6472  -22.1580   -9.7524 C   0  0  0  0  0  0  0  0  0  0  0  0
   28.3299  -22.0264  -10.0990 C   0  0  0  0  0  0  0  0  0  0  0  0
   27.5419  -21.0657   -9.4636 C   0  0  0  0  0  0  0  0  0  0  0  0
   24.3483  -21.0349  -12.6996 C   0  0  0  0  0  0  0  0  0  0  0  0
   23.9142  -19.8381  -12.7400 O   0  0  0  0  0  0  0  0  0  0  0  0
   21.9274  -22.9057  -14.8691 C   0  0  0  0  0  0  0  0  0  0  0  0
   22.3865  -21.7583  -14.0295 C   0  0  2  0  0  0  0  0  0  0  0  0
   23.6168  -22.0647  -13.2956 N   0  0  0  0  0  0  0  0  0  0  0  0
   21.3004  -21.4285  -13.0760 C   0  0  0  0  0  0  0  0  0  0  0  0
   21.4712  -21.7672  -11.7394 O   0  0  0  0  0  0  0  0  0  0  0  0
   20.2796  -20.8662  -13.4843 O   0  0  0  0  0  0  0  0  0  0  0  0
  1  2  1  0
  3  4  2  0
  3  2  1  0
  5  3  1  0
  6  5  1  0
  6  7  1  1
  8  7  1  0
  8 16  1  0
  9  8  2  0
 10  9  1  0
 10 11  1  0
 11 12  1  0
 11 16  2  0
 12 13  2  0
 13 14  1  0
 15 14  2  0
 16 15  1  0
 17  6  1  0
 18 17  2  0
 20 19  1  1
 20 22  1  0
 20 21  1  0
 21 17  1  0
 22 23  1  0
 24 22  2  0
M  END
$$$$
