GWA.pdb
     RDKit          3D

 24 25  0  0  1  0  0  0  0  0999 V2000
   28.2067  -24.2095  -17.5410 N   0  0  0  0  0  0  0  0  0  0  0  0
   27.9504  -22.8572  -17.1317 C   0  0  0  0  0  0  0  0  0  0  0  0
   27.2341  -22.7837  -15.8333 C   0  0  0  0  0  0  0  0  0  0  0  0
   26.6804  -23.8067  -15.3612 O   0  0  0  0  0  0  0  0  0  0  0  0
   27.1400  -21.5854  -15.0783 N   0  0  0  0  0  0  0  0  0  0  0  0
   26.5543  -21.4818  -13.7604 C   0  0  1  0  0  0  0  0  0  0  0  0
   27.0532  -20.3723  -12.9205 C   0  0  0  0  0  0  0  0  0  0  0  0
   26.6485  -20.3558  -11.5159 C   0  0  0  0  0  0  0  0  0  0  0  0
   25.4487  -20.0962  -10.9102 C   0  0  0  0  0  0  0  0  0  0  0  0
   25.6328  -20.2139   -9.5884 N   0  0  0  0  0  0  0  0  0  0  0  0
   26.8907  -20.5358   -9.3195 C   0  0  0  0  0  0  0  0  0  0  0  0
   27.5371  -20.7588   -8.1106 C   0  0  0  0  0  0  0  0  0  0  0  0
   28.8758  -21.0828   -8.1438 C   0  0  0  0  0  0  0  0  0  0  0  0
   29.5679  -21.1870   -9.3227 C   0  0  0  0  0  0  0  0  0  0  0  0
   28.9222  -20.9652  -10.5087 C   0  0  0  0  0  0  0  0  0  0  0  0
   27.5661  -20.6354  -10.5049 C   0  0  0  0  0  0  0  0  0  0  0  0
   25.0933  -21.1712  -14.0222 C   0  0  0  0  0  0  0  0  0  0  0  0
   24.8615  -20.2082  -14.8229 O   0  0  0  0  0  0  0  0  0  0  0  0
   21.7254  -22.7066  -13.5839 C   0  0  0  0  0  0  0  0  0  0  0  0
   22.6536  -21.5628  -13.8341 C   0  0  2  0  0  0  0  0  0  0  0  0
   24.0316  -21.8707  -13.4437 N   0  0  0  0  0  0  0  0  0  0  0  0
   22.1597  -20.3981  -13.0614 C   0  0  0  0  0  0  0  0  0  0  0  0
   21.2679  -19.5287  -13.6772 O   0  0  0  0  0  0  0  0  0  0  0  0
   22.5461  -20.2273  -11.9010 O   0  0  0  0  0  0  0  0  0  0  0  0
  1  2  1  0
  3  4  2  0
  3  2  1  0
  5  3  1  0
  6  5  1  0
  6  7  1  1
  8  7  1  0
  8 16  1  0
  9  8  2  0
 10  9  1  0
 10 11  1  0
 11 12  1  0
 11 16  2  0
 12 13  2  0
 13 14  1  0
 15 14  2  0
 16 15  1  0
 17  6  1  0
 18 17  2  0
 20 19  1  1
 20 22  1  0
 20 21  1  0
 21 17  1  0
 22 23  1  0
 24 22  2  0
M  END
$$$$
