GWA.pdb
     RDKit          3D

 24 25  0  0  1  0  0  0  0  0999 V2000
   22.7764  -17.0476  -14.6261 N   0  0  0  0  0  0  0  0  0  0  0  0
   22.9390  -18.3989  -14.1685 C   0  0  0  0  0  0  0  0  0  0  0  0
   24.3662  -18.7757  -14.0089 C   0  0  0  0  0  0  0  0  0  0  0  0
   25.2697  -17.9425  -14.2650 O   0  0  0  0  0  0  0  0  0  0  0  0
   24.7731  -20.0630  -13.5705 N   0  0  0  0  0  0  0  0  0  0  0  0
   26.1368  -20.4447  -13.2782 C   0  0  1  0  0  0  0  0  0  0  0  0
   26.3075  -21.4539  -12.2117 C   0  0  0  0  0  0  0  0  0  0  0  0
   26.1804  -21.0002  -10.8279 C   0  0  0  0  0  0  0  0  0  0  0  0
   25.0938  -20.6435  -10.0759 C   0  0  0  0  0  0  0  0  0  0  0  0
   25.5420  -20.2997   -8.8610 N   0  0  0  0  0  0  0  0  0  0  0  0
   26.8612  -20.4192   -8.7996 C   0  0  0  0  0  0  0  0  0  0  0  0
   27.7519  -20.1779   -7.7615 C   0  0  0  0  0  0  0  0  0  0  0  0
   29.0921  -20.3941   -7.9968 C   0  0  0  0  0  0  0  0  0  0  0  0
   29.5539  -20.8336   -9.2105 C   0  0  0  0  0  0  0  0  0  0  0  0
   28.6684  -21.0684  -10.2271 C   0  0  0  0  0  0  0  0  0  0  0  0
   27.3049  -20.8579  -10.0169 C   0  0  0  0  0  0  0  0  0  0  0  0
   26.6217  -21.1099  -14.5518 C   0  0  0  0  0  0  0  0  0  0  0  0
   25.8033  -21.9101  -15.1107 O   0  0  0  0  0  0  0  0  0  0  0  0
   29.3314  -20.6952  -17.0892 C   0  0  0  0  0  0  0  0  0  0  0  0
   28.1845  -21.4096  -16.4514 C   0  0  2  0  0  0  0  0  0  0  0  0
   27.8804  -20.8901  -15.1159 N   0  0  0  0  0  0  0  0  0  0  0  0
   28.5351  -22.8473  -16.3645 C   0  0  0  0  0  0  0  0  0  0  0  0
   28.7751  -23.5398  -17.5448 O   0  0  0  0  0  0  0  0  0  0  0  0
   28.6061  -23.3924  -15.2588 O   0  0  0  0  0  0  0  0  0  0  0  0
  1  2  1  0
  3  4  2  0
  3  2  1  0
  5  3  1  0
  6  5  1  0
  6  7  1  1
  8  7  1  0
  8 16  1  0
  9  8  2  0
 10  9  1  0
 10 11  1  0
 11 12  1  0
 11 16  2  0
 12 13  2  0
 13 14  1  0
 15 14  2  0
 16 15  1  0
 17  6  1  0
 18 17  2  0
 20 19  1  1
 20 22  1  0
 20 21  1  0
 21 17  1  0
 22 23  1  0
 24 22  2  0
M  END
$$$$
