GWA.pdb
     RDKit          3D

 24 25  0  0  1  0  0  0  0  0999 V2000
   30.2261  -20.8204  -12.9304 N   0  0  0  0  0  0  0  0  0  0  0  0
   29.7110  -20.4210  -11.6509 C   0  0  0  0  0  0  0  0  0  0  0  0
   28.4441  -21.1151  -11.3080 C   0  0  0  0  0  0  0  0  0  0  0  0
   28.1102  -22.1567  -11.9241 O   0  0  0  0  0  0  0  0  0  0  0  0
   27.5675  -20.6499  -10.2930 N   0  0  0  0  0  0  0  0  0  0  0  0
   26.3662  -21.3294   -9.8620 C   0  0  1  0  0  0  0  0  0  0  0  0
   25.9854  -21.1277   -8.4480 C   0  0  0  0  0  0  0  0  0  0  0  0
   26.6490  -20.0484   -7.7188 C   0  0  0  0  0  0  0  0  0  0  0  0
   26.6889  -18.6951   -7.9196 C   0  0  0  0  0  0  0  0  0  0  0  0
   27.4532  -18.1683   -6.9536 N   0  0  0  0  0  0  0  0  0  0  0  0
   27.9036  -19.1182   -6.1453 C   0  0  0  0  0  0  0  0  0  0  0  0
   28.7190  -19.0503   -5.0230 C   0  0  0  0  0  0  0  0  0  0  0  0
   29.0251  -20.2269   -4.3747 C   0  0  0  0  0  0  0  0  0  0  0  0
   28.5503  -21.4382   -4.8071 C   0  0  0  0  0  0  0  0  0  0  0  0
   27.7476  -21.4947   -5.9141 C   0  0  0  0  0  0  0  0  0  0  0  0
   27.4213  -20.3184   -6.5905 C   0  0  0  0  0  0  0  0  0  0  0  0
   25.2597  -20.6902  -10.6786 C   0  0  0  0  0  0  0  0  0  0  0  0
   25.2859  -19.4191  -10.7565 O   0  0  0  0  0  0  0  0  0  0  0  0
   23.1292  -21.5783  -13.5032 C   0  0  0  0  0  0  0  0  0  0  0  0
   23.3795  -20.7400  -12.2920 C   0  0  2  0  0  0  0  0  0  0  0  0
   24.2515  -21.4098  -11.3239 N   0  0  0  0  0  0  0  0  0  0  0  0
   22.0693  -20.4407  -11.6666 C   0  0  0  0  0  0  0  0  0  0  0  0
   21.8307  -20.9081  -10.3801 O   0  0  0  0  0  0  0  0  0  0  0  0
   21.2280  -19.7899  -12.2940 O   0  0  0  0  0  0  0  0  0  0  0  0
  1  2  1  0
  3  4  2  0
  3  2  1  0
  5  3  1  0
  6  5  1  0
  6  7  1  1
  8  7  1  0
  8 16  1  0
  9  8  2  0
 10  9  1  0
 10 11  1  0
 11 12  1  0
 11 16  2  0
 12 13  2  0
 13 14  1  0
 15 14  2  0
 16 15  1  0
 17  6  1  0
 18 17  2  0
 20 19  1  6
 20 22  1  0
 20 21  1  0
 21 17  1  0
 22 23  1  0
 24 22  2  0
M  END
$$$$
