GWA.pdb
     RDKit          3D

 24 25  0  0  1  0  0  0  0  0999 V2000
   18.1902  -12.4484  -17.5919 N   0  0  0  0  0  0  0  0  0  0  0  0
   18.0324  -11.1269  -17.0529 C   0  0  0  0  0  0  0  0  0  0  0  0
   19.2225  -10.6819  -16.2848 C   0  0  0  0  0  0  0  0  0  0  0  0
   19.4095  -11.0996  -15.1158 O   0  0  0  0  0  0  0  0  0  0  0  0
   20.1853   -9.7850  -16.8173 N   0  0  0  0  0  0  0  0  0  0  0  0
   21.4111   -9.3982  -16.1552 C   0  0  1  0  0  0  0  0  0  0  0  0
   22.6445   -9.5262  -16.9597 C   0  0  0  0  0  0  0  0  0  0  0  0
   23.4697  -10.7133  -16.7441 C   0  0  0  0  0  0  0  0  0  0  0  0
   23.1943  -12.0509  -16.8365 C   0  0  0  0  0  0  0  0  0  0  0  0
   24.3162  -12.7141  -16.5262 N   0  0  0  0  0  0  0  0  0  0  0  0
   25.2950  -11.8665  -16.2400 C   0  0  0  0  0  0  0  0  0  0  0  0
   26.6145  -12.0884  -15.8678 C   0  0  0  0  0  0  0  0  0  0  0  0
   27.4119  -10.9905  -15.6292 C   0  0  0  0  0  0  0  0  0  0  0  0
   26.9379   -9.7097  -15.7496 C   0  0  0  0  0  0  0  0  0  0  0  0
   25.6361   -9.5013  -16.1168 C   0  0  0  0  0  0  0  0  0  0  0  0
   24.8056  -10.5951  -16.3647 C   0  0  0  0  0  0  0  0  0  0  0  0
   21.2450   -7.9135  -15.8948 C   0  0  0  0  0  0  0  0  0  0  0  0
   20.6372   -7.2525  -16.7981 O   0  0  0  0  0  0  0  0  0  0  0  0
   21.5193   -5.3786  -13.1877 C   0  0  0  0  0  0  0  0  0  0  0  0
   21.5613   -5.8145  -14.6162 C   0  0  2  0  0  0  0  0  0  0  0  0
   21.7131   -7.2655  -14.7495 N   0  0  0  0  0  0  0  0  0  0  0  0
   22.7010   -5.1271  -15.2688 C   0  0  0  0  0  0  0  0  0  0  0  0
   23.7550   -5.9001  -15.7399 O   0  0  0  0  0  0  0  0  0  0  0  0
   22.6898   -3.8972  -15.3791 O   0  0  0  0  0  0  0  0  0  0  0  0
  1  2  1  0
  3  4  2  0
  3  2  1  0
  5  3  1  0
  6  5  1  0
  6  7  1  6
  8  7  1  0
  8 16  1  0
  9  8  2  0
 10  9  1  0
 10 11  1  0
 11 12  1  0
 11 16  2  0
 12 13  2  0
 13 14  1  0
 15 14  2  0
 16 15  1  0
 17  6  1  0
 18 17  2  0
 20 19  1  1
 20 22  1  0
 20 21  1  0
 21 17  1  0
 22 23  1  0
 24 22  2  0
M  END
$$$$
