GWA.pdb
     RDKit          3D

 24 25  0  0  1  0  0  0  0  0999 V2000
   28.6261  -20.0743  -15.7231 N   0  0  0  0  0  0  0  0  0  0  0  0
   27.9719  -19.4566  -14.6041 C   0  0  0  0  0  0  0  0  0  0  0  0
   27.1585  -20.4200  -13.8202 C   0  0  0  0  0  0  0  0  0  0  0  0
   26.9699  -21.5832  -14.2533 O   0  0  0  0  0  0  0  0  0  0  0  0
   26.5671  -20.0856  -12.5739 N   0  0  0  0  0  0  0  0  0  0  0  0
   25.8309  -21.0042  -11.7344 C   0  0  1  0  0  0  0  0  0  0  0  0
   25.9499  -20.7809  -10.2781 C   0  0  0  0  0  0  0  0  0  0  0  0
   27.2743  -20.9343   -9.6787 C   0  0  0  0  0  0  0  0  0  0  0  0
   28.4142  -21.5510  -10.1189 C   0  0  0  0  0  0  0  0  0  0  0  0
   29.3460  -21.3976   -9.1686 N   0  0  0  0  0  0  0  0  0  0  0  0
   28.8579  -20.7133   -8.1430 C   0  0  0  0  0  0  0  0  0  0  0  0
   29.4445  -20.3183   -6.9476 C   0  0  0  0  0  0  0  0  0  0  0  0
   28.6750  -19.6043   -6.0552 C   0  0  0  0  0  0  0  0  0  0  0  0
   27.3686  -19.2829   -6.3189 C   0  0  0  0  0  0  0  0  0  0  0  0
   26.7995  -19.6768   -7.4995 C   0  0  0  0  0  0  0  0  0  0  0  0
   27.5556  -20.4012   -8.4221 C   0  0  0  0  0  0  0  0  0  0  0  0
   24.3765  -20.7375  -12.0714 C   0  0  0  0  0  0  0  0  0  0  0  0
   24.0078  -19.5190  -12.0299 O   0  0  0  0  0  0  0  0  0  0  0  0
   21.6388  -22.4343  -13.9063 C   0  0  0  0  0  0  0  0  0  0  0  0
   22.1682  -21.3705  -13.0005 C   0  0  2  0  0  0  0  0  0  0  0  0
   23.4596  -21.7344  -12.4122 N   0  0  0  0  0  0  0  0  0  0  0  0
   21.1705  -21.1487  -11.9268 C   0  0  0  0  0  0  0  0  0  0  0  0
   21.4975  -21.5352  -10.6329 O   0  0  0  0  0  0  0  0  0  0  0  0
   20.0834  -20.6311  -12.2011 O   0  0  0  0  0  0  0  0  0  0  0  0
  1  2  1  0
  3  4  2  0
  3  2  1  0
  5  3  1  0
  6  5  1  0
  6  7  1  1
  8  7  1  0
  8 16  1  0
  9  8  2  0
 10  9  1  0
 10 11  1  0
 11 12  1  0
 11 16  2  0
 12 13  2  0
 13 14  1  0
 15 14  2  0
 16 15  1  0
 17  6  1  0
 18 17  2  0
 20 19  1  6
 20 22  1  0
 20 21  1  0
 21 17  1  0
 22 23  1  0
 24 22  2  0
M  END
$$$$
