GWA.pdb
     RDKit          3D

 24 25  0  0  1  0  0  0  0  0999 V2000
   28.0649  -17.6742  -15.0917 N   0  0  0  0  0  0  0  0  0  0  0  0
   27.5089  -17.9275  -13.7923 C   0  0  0  0  0  0  0  0  0  0  0  0
   27.2215  -19.3670  -13.5692 C   0  0  0  0  0  0  0  0  0  0  0  0
   27.9967  -20.2419  -14.0270 O   0  0  0  0  0  0  0  0  0  0  0  0
   26.0859  -19.8173  -12.8464 N   0  0  0  0  0  0  0  0  0  0  0  0
   25.8436  -21.1884  -12.4565 C   0  0  1  0  0  0  0  0  0  0  0  0
   25.4186  -21.3930  -11.0556 C   0  0  0  0  0  0  0  0  0  0  0  0
   26.2805  -20.8554  -10.0044 C   0  0  0  0  0  0  0  0  0  0  0  0
   26.0196  -20.0584   -8.9227 C   0  0  0  0  0  0  0  0  0  0  0  0
   27.1793  -19.8587   -8.2823 N   0  0  0  0  0  0  0  0  0  0  0  0
   28.1684  -20.4887   -8.9013 C   0  0  0  0  0  0  0  0  0  0  0  0
   29.5240  -20.5676   -8.6096 C   0  0  0  0  0  0  0  0  0  0  0  0
   30.3238  -21.3098   -9.4509 C   0  0  0  0  0  0  0  0  0  0  0  0
   29.8179  -21.9585  -10.5476 C   0  0  0  0  0  0  0  0  0  0  0  0
   28.4807  -21.8746  -10.8267 C   0  0  0  0  0  0  0  0  0  0  0  0
   27.6470  -21.1295   -9.9916 C   0  0  0  0  0  0  0  0  0  0  0  0
   24.6649  -21.6183  -13.3082 C   0  0  0  0  0  0  0  0  0  0  0  0
   23.8073  -20.7145  -13.5724 O   0  0  0  0  0  0  0  0  0  0  0  0
   23.4831  -24.5758  -15.3031 C   0  0  0  0  0  0  0  0  0  0  0  0
   23.3830  -23.2065  -14.7137 C   0  0  2  0  0  0  0  0  0  0  0  0
   24.4874  -22.9149  -13.7964 N   0  0  0  0  0  0  0  0  0  0  0  0
   22.0915  -23.1147  -13.9919 C   0  0  0  0  0  0  0  0  0  0  0  0
   20.9224  -23.0419  -14.7391 O   0  0  0  0  0  0  0  0  0  0  0  0
   22.0817  -23.1054  -12.7571 O   0  0  0  0  0  0  0  0  0  0  0  0
  1  2  1  0
  3  4  2  0
  3  2  1  0
  5  3  1  0
  6  5  1  0
  6  7  1  1
  8  7  1  0
  8 16  1  0
  9  8  2  0
 10  9  1  0
 10 11  1  0
 11 12  1  0
 11 16  2  0
 12 13  2  0
 13 14  1  0
 15 14  2  0
 16 15  1  0
 17  6  1  0
 18 17  2  0
 20 19  1  1
 20 22  1  0
 20 21  1  0
 21 17  1  0
 22 23  1  0
 24 22  2  0
M  END
$$$$
