GWA.pdb
     RDKit          3D

 24 25  0  0  1  0  0  0  0  0999 V2000
   28.8153  -26.6085  -16.4866 N   0  0  0  0  0  0  0  0  0  0  0  0
   28.2623  -25.3540  -16.9135 C   0  0  0  0  0  0  0  0  0  0  0  0
   27.1002  -24.9367  -16.0892 C   0  0  0  0  0  0  0  0  0  0  0  0
   26.6361  -25.7116  -15.2174 O   0  0  0  0  0  0  0  0  0  0  0  0
   26.4697  -23.6738  -16.2395 N   0  0  0  0  0  0  0  0  0  0  0  0
   25.3880  -23.1855  -15.4136 C   0  0  1  0  0  0  0  0  0  0  0  0
   25.3113  -21.7177  -15.2561 C   0  0  0  0  0  0  0  0  0  0  0  0
   24.2044  -21.1816  -14.4661 C   0  0  0  0  0  0  0  0  0  0  0  0
   23.6733  -21.5538  -13.2607 C   0  0  0  0  0  0  0  0  0  0  0  0
   22.6578  -20.7213  -12.9953 N   0  0  0  0  0  0  0  0  0  0  0  0
   22.5136  -19.8355  -13.9716 C   0  0  0  0  0  0  0  0  0  0  0  0
   21.6086  -18.7944  -14.1327 C   0  0  0  0  0  0  0  0  0  0  0  0
   21.7023  -18.0276  -15.2735 C   0  0  0  0  0  0  0  0  0  0  0  0
   22.6519  -18.2674  -16.2328 C   0  0  0  0  0  0  0  0  0  0  0  0
   23.5391  -19.2957  -16.0650 C   0  0  0  0  0  0  0  0  0  0  0  0
   23.4674  -20.0889  -14.9189 C   0  0  0  0  0  0  0  0  0  0  0  0
   24.1325  -23.5820  -16.1662 C   0  0  0  0  0  0  0  0  0  0  0  0
   24.1711  -23.4397  -17.4313 O   0  0  0  0  0  0  0  0  0  0  0  0
   21.0500  -25.5634  -15.8785 C   0  0  0  0  0  0  0  0  0  0  0  0
   21.7851  -24.3532  -16.3551 C   0  0  2  0  0  0  0  0  0  0  0  0
   22.9796  -24.0776  -15.5530 N   0  0  0  0  0  0  0  0  0  0  0  0
   20.8562  -23.2000  -16.2873 C   0  0  0  0  0  0  0  0  0  0  0  0
   20.0897  -22.9042  -17.4077 O   0  0  0  0  0  0  0  0  0  0  0  0
   20.7835  -22.5350  -15.2493 O   0  0  0  0  0  0  0  0  0  0  0  0
  1  2  1  0
  3  4  2  0
  3  2  1  0
  5  3  1  0
  6  5  1  0
  6  7  1  6
  8  7  1  0
  8 16  1  0
  9  8  2  0
 10  9  1  0
 10 11  1  0
 11 12  1  0
 11 16  2  0
 12 13  2  0
 13 14  1  0
 15 14  2  0
 16 15  1  0
 17  6  1  0
 18 17  2  0
 20 19  1  1
 20 22  1  0
 20 21  1  0
 21 17  1  0
 22 23  1  0
 24 22  2  0
M  END
$$$$
