GWA.pdb
     RDKit          3D

 24 25  0  0  1  0  0  0  0  0999 V2000
   28.9054  -21.4153  -15.1498 N   0  0  0  0  0  0  0  0  0  0  0  0
   28.3720  -20.4716  -14.2082 C   0  0  0  0  0  0  0  0  0  0  0  0
   27.4605  -21.1066  -13.2232 C   0  0  0  0  0  0  0  0  0  0  0  0
   27.0090  -22.2587  -13.4350 O   0  0  0  0  0  0  0  0  0  0  0  0
   27.0623  -20.4619  -12.0229 N   0  0  0  0  0  0  0  0  0  0  0  0
   26.1434  -21.0141  -11.0527 C   0  0  1  0  0  0  0  0  0  0  0  0
   26.2716  -20.4919   -9.6758 C   0  0  0  0  0  0  0  0  0  0  0  0
   27.4994  -20.8063   -8.9474 C   0  0  0  0  0  0  0  0  0  0  0  0
   28.6046  -21.5393   -9.2861 C   0  0  0  0  0  0  0  0  0  0  0  0
   29.4409  -21.5114   -8.2399 N   0  0  0  0  0  0  0  0  0  0  0  0
   28.9247  -20.7969   -7.2492 C   0  0  0  0  0  0  0  0  0  0  0  0
   29.4204  -20.4949   -5.9874 C   0  0  0  0  0  0  0  0  0  0  0  0
   28.6436  -19.7164   -5.1574 C   0  0  0  0  0  0  0  0  0  0  0  0
   27.4164  -19.2438   -5.5450 C   0  0  0  0  0  0  0  0  0  0  0  0
   26.9366  -19.5470   -6.7903 C   0  0  0  0  0  0  0  0  0  0  0  0
   27.7021  -20.3338   -7.6519 C   0  0  0  0  0  0  0  0  0  0  0  0
   24.7764  -20.5674  -11.5336 C   0  0  0  0  0  0  0  0  0  0  0  0
   24.5831  -19.3092  -11.5776 O   0  0  0  0  0  0  0  0  0  0  0  0
   21.8831  -21.9068  -13.4338 C   0  0  0  0  0  0  0  0  0  0  0  0
   22.5281  -20.9221  -12.5136 C   0  0  2  0  0  0  0  0  0  0  0  0
   23.7591  -21.4450  -11.9157 N   0  0  0  0  0  0  0  0  0  0  0  0
   21.5532  -20.5883  -11.4480 C   0  0  0  0  0  0  0  0  0  0  0  0
   20.4592  -19.7985  -11.7792 O   0  0  0  0  0  0  0  0  0  0  0  0
   21.7312  -21.0142  -10.3027 O   0  0  0  0  0  0  0  0  0  0  0  0
  1  2  1  0
  3  4  2  0
  3  2  1  0
  5  3  1  0
  6  5  1  0
  6  7  1  1
  8  7  1  0
  8 16  1  0
  9  8  2  0
 10  9  1  0
 10 11  1  0
 11 12  1  0
 11 16  2  0
 12 13  2  0
 13 14  1  0
 15 14  2  0
 16 15  1  0
 17  6  1  0
 18 17  2  0
 20 19  1  6
 20 22  1  0
 20 21  1  0
 21 17  1  0
 22 23  1  0
 24 22  2  0
M  END
$$$$
