GWA.pdb
     RDKit          3D

 24 25  0  0  1  0  0  0  0  0999 V2000
   28.8901  -21.9640  -15.6778 N   0  0  0  0  0  0  0  0  0  0  0  0
   27.9553  -20.9665  -15.2387 C   0  0  0  0  0  0  0  0  0  0  0  0
   27.0266  -21.4780  -14.1994 C   0  0  0  0  0  0  0  0  0  0  0  0
   26.5395  -22.6305  -14.3025 O   0  0  0  0  0  0  0  0  0  0  0  0
   26.6506  -20.7115  -13.0653 N   0  0  0  0  0  0  0  0  0  0  0  0
   25.8094  -21.1848  -11.9888 C   0  0  1  0  0  0  0  0  0  0  0  0
   26.0434  -20.5623  -10.6686 C   0  0  0  0  0  0  0  0  0  0  0  0
   27.3286  -20.8185  -10.0210 C   0  0  0  0  0  0  0  0  0  0  0  0
   28.4685  -21.4376  -10.4580 C   0  0  0  0  0  0  0  0  0  0  0  0
   29.3539  -21.4041   -9.4532 N   0  0  0  0  0  0  0  0  0  0  0  0
   28.8362  -20.7942   -8.3956 C   0  0  0  0  0  0  0  0  0  0  0  0
   29.3724  -20.5285   -7.1422 C   0  0  0  0  0  0  0  0  0  0  0  0
   28.5818  -19.8666   -6.2284 C   0  0  0  0  0  0  0  0  0  0  0  0
   27.3026  -19.4733   -6.5261 C   0  0  0  0  0  0  0  0  0  0  0  0
   26.7832  -19.7398   -7.7639 C   0  0  0  0  0  0  0  0  0  0  0  0
   27.5616  -20.4090   -8.7094 C   0  0  0  0  0  0  0  0  0  0  0  0
   24.4092  -20.7674  -12.3951 C   0  0  0  0  0  0  0  0  0  0  0  0
   24.2250  -19.5182  -12.5623 O   0  0  0  0  0  0  0  0  0  0  0  0
   21.2636  -22.2561  -13.7335 C   0  0  0  0  0  0  0  0  0  0  0  0
   22.0633  -21.1756  -13.0814 C   0  0  2  0  0  0  0  0  0  0  0  0
   23.3535  -21.6618  -12.5862 N   0  0  0  0  0  0  0  0  0  0  0  0
   21.2644  -20.6333  -11.9567 C   0  0  0  0  0  0  0  0  0  0  0  0
   21.6855  -20.9003  -10.6599 O   0  0  0  0  0  0  0  0  0  0  0  0
   20.2541  -19.9636  -12.1929 O   0  0  0  0  0  0  0  0  0  0  0  0
  1  2  1  0
  3  4  2  0
  3  2  1  0
  5  3  1  0
  6  5  1  0
  6  7  1  1
  8  7  1  0
  8 16  1  0
  9  8  2  0
 10  9  1  0
 10 11  1  0
 11 12  1  0
 11 16  2  0
 12 13  2  0
 13 14  1  0
 15 14  2  0
 16 15  1  0
 17  6  1  0
 18 17  2  0
 20 19  1  1
 20 22  1  0
 20 21  1  0
 21 17  1  0
 22 23  1  0
 24 22  2  0
M  END
$$$$
