GWA.pdb
     RDKit          3D

 24 25  0  0  1  0  0  0  0  0999 V2000
   28.7298  -20.1329  -15.6983 N   0  0  0  0  0  0  0  0  0  0  0  0
   28.1253  -19.4949  -14.5628 C   0  0  0  0  0  0  0  0  0  0  0  0
   27.3730  -20.4493  -13.7099 C   0  0  0  0  0  0  0  0  0  0  0  0
   27.3400  -21.6684  -14.0075 O   0  0  0  0  0  0  0  0  0  0  0  0
   26.6703  -20.0444  -12.5449 N   0  0  0  0  0  0  0  0  0  0  0  0
   25.9282  -20.9307  -11.6764 C   0  0  1  0  0  0  0  0  0  0  0  0
   26.0184  -20.6382  -10.2302 C   0  0  0  0  0  0  0  0  0  0  0  0
   27.3265  -20.7821   -9.5939 C   0  0  0  0  0  0  0  0  0  0  0  0
   28.4795  -21.3998   -9.9970 C   0  0  0  0  0  0  0  0  0  0  0  0
   29.3849  -21.2346   -9.0235 N   0  0  0  0  0  0  0  0  0  0  0  0
   28.8675  -20.5417   -8.0182 C   0  0  0  0  0  0  0  0  0  0  0  0
   29.4206  -20.1335   -6.8113 C   0  0  0  0  0  0  0  0  0  0  0  0
   28.6254  -19.4131   -5.9471 C   0  0  0  0  0  0  0  0  0  0  0  0
   27.3257  -19.0979   -6.2491 C   0  0  0  0  0  0  0  0  0  0  0  0
   26.7898  -19.5048   -7.4407 C   0  0  0  0  0  0  0  0  0  0  0  0
   27.5724  -20.2361   -8.3354 C   0  0  0  0  0  0  0  0  0  0  0  0
   24.4776  -20.6959  -12.0512 C   0  0  0  0  0  0  0  0  0  0  0  0
   24.0828  -19.4852  -12.0253 O   0  0  0  0  0  0  0  0  0  0  0  0
   21.6627  -22.4831  -13.7246 C   0  0  0  0  0  0  0  0  0  0  0  0
   22.2571  -21.3768  -12.9152 C   0  0  2  0  0  0  0  0  0  0  0  0
   23.5904  -21.7132  -12.4098 N   0  0  0  0  0  0  0  0  0  0  0  0
   21.3436  -21.1008  -11.7809 C   0  0  0  0  0  0  0  0  0  0  0  0
   20.1135  -20.5149  -12.0526 O   0  0  0  0  0  0  0  0  0  0  0  0
   21.6905  -21.3942  -10.6326 O   0  0  0  0  0  0  0  0  0  0  0  0
  1  2  1  0
  3  4  2  0
  3  2  1  0
  5  3  1  0
  6  5  1  0
  6  7  1  1
  8  7  1  0
  8 16  1  0
  9  8  2  0
 10  9  1  0
 10 11  1  0
 11 12  1  0
 11 16  2  0
 12 13  2  0
 13 14  1  0
 15 14  2  0
 16 15  1  0
 17  6  1  0
 18 17  2  0
 20 19  1  1
 20 22  1  0
 20 21  1  0
 21 17  1  0
 22 23  1  0
 24 22  2  0
M  END
$$$$
