LWL.pdb
     RDKit          3D

 31 32  0  0  1  0  0  0  0  0999 V2000
    7.8267  -13.8139   17.1348 C   0  0  0  0  0  0  0  0  0  0  0  0
    8.4394  -14.9097   17.9800 C   0  0  1  0  0  0  0  0  0  0  0  0
    9.6151  -15.4680   17.2663 C   0  0  0  0  0  0  0  0  0  0  0  0
    8.7048  -14.4329   19.3738 C   0  0  0  0  0  0  0  0  0  0  0  0
    9.2701  -15.5154   20.2526 C   0  0  2  0  0  0  0  0  0  0  0  0
    8.3922  -16.6702   20.1851 N   0  0  0  0  0  0  0  0  0  0  0  0
    9.3681  -15.1231   21.6632 C   0  0  0  0  0  0  0  0  0  0  0  0
   10.0567  -14.1113   21.9507 O   0  0  0  0  0  0  0  0  0  0  0  0
    8.7421  -15.8020   22.7295 N   0  0  0  0  0  0  0  0  0  0  0  0
    8.8021  -15.3164   24.1294 C   0  0  1  0  0  0  0  0  0  0  0  0
    7.6187  -15.8935   24.8099 C   0  0  0  0  0  0  0  0  0  0  0  0
    6.6026  -14.9282   25.2644 C   0  0  0  0  0  0  0  0  0  0  0  0
    5.2433  -15.0392   25.4546 C   0  0  0  0  0  0  0  0  0  0  0  0
    4.6971  -13.8955   25.8558 N   0  0  0  0  0  0  0  0  0  0  0  0
    5.6979  -12.9999   25.9383 C   0  0  0  0  0  0  0  0  0  0  0  0
    5.6468  -11.6711   26.3094 C   0  0  0  0  0  0  0  0  0  0  0  0
    6.7912  -10.9096   26.3315 C   0  0  0  0  0  0  0  0  0  0  0  0
    7.9901  -11.5023   25.9750 C   0  0  0  0  0  0  0  0  0  0  0  0
    8.0259  -12.8291   25.6069 C   0  0  0  0  0  0  0  0  0  0  0  0
    6.8782  -13.5922   25.5849 C   0  0  0  0  0  0  0  0  0  0  0  0
   10.1172  -15.5648   24.7017 C   0  0  0  0  0  0  0  0  0  0  0  0
   10.9294  -14.5741   24.7308 O   0  0  0  0  0  0  0  0  0  0  0  0
    9.9218  -15.4762   29.4033 C   0  0  0  0  0  0  0  0  0  0  0  0
   10.4659  -15.4882   28.0121 C   0  0  1  0  0  0  0  0  0  0  0  0
   11.2962  -14.2228   27.7421 C   0  0  0  0  0  0  0  0  0  0  0  0
   11.1234  -16.7035   27.5253 C   0  0  0  0  0  0  0  0  0  0  0  0
   11.7173  -16.7778   26.1712 C   0  0  2  0  0  0  0  0  0  0  0  0
   10.5551  -16.8019   25.2250 N   0  0  0  0  0  0  0  0  0  0  0  0
   12.5472  -17.9329   25.8403 C   0  0  0  0  0  0  0  0  0  0  0  0
   12.2191  -18.9402   24.9480 O   0  0  0  0  0  0  0  0  0  0  0  0
   13.6674  -18.0690   26.3958 O   0  0  0  0  0  0  0  0  0  0  0  0
  2  1  1  6
  2  3  1  0
  4  2  1  0
  5  4  1  0
  5  6  1  1
  7  8  2  0
  7  5  1  0
  9  7  1  0
 10  9  1  0
 10 11  1  1
 12 11  1  0
 13 12  2  0
 14 13  1  0
 15 14  1  0
 15 20  2  0
 16 15  1  0
 17 16  2  0
 17 18  1  0
 18 19  2  0
 19 20  1  0
 20 12  1  0
 21 10  1  0
 21 28  1  0
 22 21  2  0
 24 23  1  1
 24 25  1  0
 24 26  1  0
 27 26  1  1
 27 28  1  0
 27 29  1  0
 29 31  2  0
 29 30  1  0
M  END
$$$$
