LWL.pdb
     RDKit          3D

 31 32  0  0  1  0  0  0  0  0999 V2000
   13.1464  -16.0768   17.0378 C   0  0  0  0  0  0  0  0  0  0  0  0
   12.5922  -17.0531   18.0527 C   0  0  1  0  0  0  0  0  0  0  0  0
   13.5652  -18.1585   18.2390 C   0  0  0  0  0  0  0  0  0  0  0  0
   12.1750  -16.3506   19.3068 C   0  0  0  0  0  0  0  0  0  0  0  0
   11.5970  -17.2931   20.3272 C   0  0  2  0  0  0  0  0  0  0  0  0
   10.5182  -18.0407   19.7061 N   0  0  0  0  0  0  0  0  0  0  0  0
   11.0357  -16.6064   21.4964 C   0  0  0  0  0  0  0  0  0  0  0  0
   11.4856  -15.4694   21.7888 O   0  0  0  0  0  0  0  0  0  0  0  0
   10.0208  -17.1311   22.3236 N   0  0  0  0  0  0  0  0  0  0  0  0
    9.4301  -16.3634   23.4464 C   0  0  1  0  0  0  0  0  0  0  0  0
    7.9615  -16.4409   23.2625 C   0  0  0  0  0  0  0  0  0  0  0  0
    7.1455  -15.8575   24.3415 C   0  0  0  0  0  0  0  0  0  0  0  0
    6.1933  -16.3998   25.1755 C   0  0  0  0  0  0  0  0  0  0  0  0
    5.6767  -15.4963   26.0027 N   0  0  0  0  0  0  0  0  0  0  0  0
    6.2859  -14.3289   25.7257 C   0  0  0  0  0  0  0  0  0  0  0  0
    6.0995  -13.0915   26.3087 C   0  0  0  0  0  0  0  0  0  0  0  0
    6.8255  -12.0044   25.8829 C   0  0  0  0  0  0  0  0  0  0  0  0
    7.7432  -12.1779   24.8613 C   0  0  0  0  0  0  0  0  0  0  0  0
    7.9186  -13.4184   24.2890 C   0  0  0  0  0  0  0  0  0  0  0  0
    7.1904  -14.5079   24.7164 C   0  0  0  0  0  0  0  0  0  0  0  0
    9.9910  -16.8002   24.7165 C   0  0  0  0  0  0  0  0  0  0  0  0
   10.7174  -17.8556   24.6931 O   0  0  0  0  0  0  0  0  0  0  0  0
    9.6137  -13.3226   28.8965 C   0  0  0  0  0  0  0  0  0  0  0  0
   10.1051  -14.2229   27.8104 C   0  0  1  0  0  0  0  0  0  0  0  0
   11.1646  -13.5118   26.9526 C   0  0  0  0  0  0  0  0  0  0  0  0
   10.4915  -15.5933   28.1548 C   0  0  0  0  0  0  0  0  0  0  0  0
   10.5818  -16.6574   27.1294 C   0  0  2  0  0  0  0  0  0  0  0  0
    9.7988  -16.1503   25.9562 N   0  0  0  0  0  0  0  0  0  0  0  0
   10.0439  -17.9767   27.4496 C   0  0  0  0  0  0  0  0  0  0  0  0
    8.9062  -18.5453   26.9010 O   0  0  0  0  0  0  0  0  0  0  0  0
   10.6313  -18.6945   28.2990 O   0  0  0  0  0  0  0  0  0  0  0  0
  2  1  1  6
  2  3  1  0
  4  2  1  0
  5  4  1  0
  5  6  1  6
  7  8  2  0
  7  5  1  0
  9  7  1  0
 10  9  1  0
 10 11  1  1
 12 11  1  0
 13 12  2  0
 14 13  1  0
 15 14  1  0
 15 20  2  0
 16 15  1  0
 17 16  2  0
 17 18  1  0
 18 19  2  0
 19 20  1  0
 20 12  1  0
 21 10  1  0
 21 28  1  0
 22 21  2  0
 24 23  1  1
 24 25  1  0
 24 26  1  0
 27 26  1  1
 27 28  1  0
 27 29  1  0
 29 31  2  0
 29 30  1  0
M  END
$$$$
