LWL.pdb
     RDKit          3D

 31 32  0  0  1  0  0  0  0  0999 V2000
   11.3544  -23.3667   23.8917 C   0  0  0  0  0  0  0  0  0  0  0  0
   10.5372  -22.5674   22.8999 C   0  0  1  0  0  0  0  0  0  0  0  0
    9.1998  -23.1961   22.7603 C   0  0  0  0  0  0  0  0  0  0  0  0
   10.5261  -21.1136   23.2557 C   0  0  0  0  0  0  0  0  0  0  0  0
    9.6524  -20.3045   22.3362 C   0  0  2  0  0  0  0  0  0  0  0  0
   10.0680  -20.5532   20.9673 N   0  0  0  0  0  0  0  0  0  0  0  0
    9.7520  -18.8587   22.5671 C   0  0  0  0  0  0  0  0  0  0  0  0
   10.7068  -18.2377   22.0346 O   0  0  0  0  0  0  0  0  0  0  0  0
    8.8491  -18.1075   23.3482 N   0  0  0  0  0  0  0  0  0  0  0  0
    9.0526  -16.6677   23.6396 C   0  0  1  0  0  0  0  0  0  0  0  0
    7.6987  -16.0657   23.6744 C   0  0  0  0  0  0  0  0  0  0  0  0
    7.6469  -14.5940   23.6313 C   0  0  0  0  0  0  0  0  0  0  0  0
    8.1049  -13.6805   22.7082 C   0  0  0  0  0  0  0  0  0  0  0  0
    7.8679  -12.4268   23.0818 N   0  0  0  0  0  0  0  0  0  0  0  0
    7.2424  -12.4921   24.2713 C   0  0  0  0  0  0  0  0  0  0  0  0
    6.7878  -11.4633   25.0719 C   0  0  0  0  0  0  0  0  0  0  0  0
    6.1660  -11.7339   26.2678 C   0  0  0  0  0  0  0  0  0  0  0  0
    6.0068  -13.0549   26.6493 C   0  0  0  0  0  0  0  0  0  0  0  0
    6.4654  -14.0710   25.8403 C   0  0  0  0  0  0  0  0  0  0  0  0
    7.0887  -13.7991   24.6414 C   0  0  0  0  0  0  0  0  0  0  0  0
    9.9143  -16.4970   24.8001 C   0  0  0  0  0  0  0  0  0  0  0  0
   10.9744  -15.7968   24.6327 O   0  0  0  0  0  0  0  0  0  0  0  0
    8.7778  -14.0473   28.9622 C   0  0  0  0  0  0  0  0  0  0  0  0
    9.5801  -14.7247   27.8996 C   0  0  1  0  0  0  0  0  0  0  0  0
   10.6131  -13.7574   27.2986 C   0  0  0  0  0  0  0  0  0  0  0  0
   10.1480  -16.0451   28.1823 C   0  0  0  0  0  0  0  0  0  0  0  0
   10.7422  -16.8814   27.1149 C   0  0  2  0  0  0  0  0  0  0  0  0
    9.6669  -17.0364   26.0824 N   0  0  0  0  0  0  0  0  0  0  0  0
   11.1878  -18.2293   27.4570 C   0  0  0  0  0  0  0  0  0  0  0  0
   10.6601  -19.4100   26.9607 O   0  0  0  0  0  0  0  0  0  0  0  0
   12.1298  -18.3799   28.2766 O   0  0  0  0  0  0  0  0  0  0  0  0
  2  1  1  1
  2  3  1  0
  4  2  1  0
  5  4  1  0
  5  6  1  6
  7  8  2  0
  7  5  1  0
  9  7  1  0
 10  9  1  0
 10 11  1  1
 12 11  1  0
 13 12  2  0
 14 13  1  0
 15 14  1  0
 15 20  2  0
 16 15  1  0
 17 16  2  0
 17 18  1  0
 18 19  2  0
 19 20  1  0
 20 12  1  0
 21 10  1  0
 21 28  1  0
 22 21  2  0
 24 23  1  1
 24 25  1  0
 24 26  1  0
 27 26  1  1
 27 28  1  0
 27 29  1  0
 29 31  2  0
 29 30  1  0
M  END
$$$$
