LWL.pdb
     RDKit          3D

 31 32  0  0  1  0  0  0  0  0999 V2000
   13.2255  -18.2843   18.1707 C   0  0  0  0  0  0  0  0  0  0  0  0
   12.7626  -19.0606   19.3845 C   0  0  1  0  0  0  0  0  0  0  0  0
   13.8036  -20.0552   19.7460 C   0  0  0  0  0  0  0  0  0  0  0  0
   12.3472  -18.1398   20.4891 C   0  0  0  0  0  0  0  0  0  0  0  0
   11.0277  -17.4717   20.2134 C   0  0  2  0  0  0  0  0  0  0  0  0
   11.1852  -16.5942   19.0673 N   0  0  0  0  0  0  0  0  0  0  0  0
   10.5511  -16.6489   21.3312 C   0  0  0  0  0  0  0  0  0  0  0  0
   11.1662  -15.5826   21.5869 O   0  0  0  0  0  0  0  0  0  0  0  0
    9.4453  -16.9676   22.1469 N   0  0  0  0  0  0  0  0  0  0  0  0
    9.0999  -16.1908   23.3619 C   0  0  1  0  0  0  0  0  0  0  0  0
    7.7509  -16.6514   23.7679 C   0  0  0  0  0  0  0  0  0  0  0  0
    6.9793  -15.7213   24.6105 C   0  0  0  0  0  0  0  0  0  0  0  0
    5.9956  -15.9275   25.5519 C   0  0  0  0  0  0  0  0  0  0  0  0
    5.5432  -14.7871   26.0639 N   0  0  0  0  0  0  0  0  0  0  0  0
    6.2283  -13.7974   25.4625 C   0  0  0  0  0  0  0  0  0  0  0  0
    6.1270  -12.4331   25.6476 C   0  0  0  0  0  0  0  0  0  0  0  0
    6.9227  -11.5717   24.9300 C   0  0  0  0  0  0  0  0  0  0  0  0
    7.8235  -12.1008   24.0219 C   0  0  0  0  0  0  0  0  0  0  0  0
    7.9136  -13.4642   23.8478 C   0  0  0  0  0  0  0  0  0  0  0  0
    7.1155  -14.3272   24.5676 C   0  0  0  0  0  0  0  0  0  0  0  0
   10.1769  -16.2619   24.3385 C   0  0  0  0  0  0  0  0  0  0  0  0
   11.0980  -15.3759   24.2461 O   0  0  0  0  0  0  0  0  0  0  0  0
   10.8983  -13.8625   28.1334 C   0  0  0  0  0  0  0  0  0  0  0  0
    9.7889  -14.8567   28.2455 C   0  0  1  0  0  0  0  0  0  0  0  0
    8.4785  -14.1652   28.6558 C   0  0  0  0  0  0  0  0  0  0  0  0
    9.5968  -15.8205   27.1591 C   0  0  0  0  0  0  0  0  0  0  0  0
   10.6793  -16.7345   26.7293 C   0  0  2  0  0  0  0  0  0  0  0  0
   10.2759  -17.2218   25.3705 N   0  0  0  0  0  0  0  0  0  0  0  0
   10.9449  -17.9227   27.5355 C   0  0  0  0  0  0  0  0  0  0  0  0
   10.0805  -18.9893   27.7199 O   0  0  0  0  0  0  0  0  0  0  0  0
   12.0431  -18.0275   28.1395 O   0  0  0  0  0  0  0  0  0  0  0  0
  2  1  1  6
  2  3  1  0
  4  2  1  0
  5  4  1  0
  5  6  1  6
  7  8  2  0
  7  5  1  0
  9  7  1  0
 10  9  1  0
 10 11  1  1
 12 11  1  0
 13 12  2  0
 14 13  1  0
 15 14  1  0
 15 20  2  0
 16 15  1  0
 17 16  2  0
 17 18  1  0
 18 19  2  0
 19 20  1  0
 20 12  1  0
 21 10  1  0
 21 28  1  0
 22 21  2  0
 24 23  1  6
 24 25  1  0
 24 26  1  0
 27 26  1  1
 27 28  1  0
 27 29  1  0
 29 31  2  0
 29 30  1  0
M  END
$$$$
