LWL.pdb
     RDKit          3D

 31 32  0  0  1  0  0  0  0  0999 V2000
    7.2728  -13.2309   17.5087 C   0  0  0  0  0  0  0  0  0  0  0  0
    8.2806  -14.2599   17.9733 C   0  0  1  0  0  0  0  0  0  0  0  0
    9.2986  -14.4514   16.9102 C   0  0  0  0  0  0  0  0  0  0  0  0
    8.8243  -13.9127   19.3240 C   0  0  0  0  0  0  0  0  0  0  0  0
    9.4681  -15.0905   20.0035 C   0  0  2  0  0  0  0  0  0  0  0  0
    8.7296  -16.2891   19.6477 N   0  0  0  0  0  0  0  0  0  0  0  0
    9.4586  -14.9901   21.4675 C   0  0  0  0  0  0  0  0  0  0  0  0
    9.9774  -13.9738   21.9954 O   0  0  0  0  0  0  0  0  0  0  0  0
    8.9062  -15.9566   22.3338 N   0  0  0  0  0  0  0  0  0  0  0  0
    8.7008  -15.7064   23.7810 C   0  0  1  0  0  0  0  0  0  0  0  0
    7.3684  -16.2692   24.1047 C   0  0  0  0  0  0  0  0  0  0  0  0
    6.5330  -15.4650   25.0134 C   0  0  0  0  0  0  0  0  0  0  0  0
    5.3673  -15.7484   25.6896 C   0  0  0  0  0  0  0  0  0  0  0  0
    4.9283  -14.7083   26.3917 N   0  0  0  0  0  0  0  0  0  0  0  0
    5.8065  -13.7093   26.1887 C   0  0  0  0  0  0  0  0  0  0  0  0
    5.7954  -12.4256   26.6965 C   0  0  0  0  0  0  0  0  0  0  0  0
    6.7930  -11.5382   26.3687 C   0  0  0  0  0  0  0  0  0  0  0  0
    7.8040  -11.9590   25.5222 C   0  0  0  0  0  0  0  0  0  0  0  0
    7.8021  -13.2428   25.0232 C   0  0  0  0  0  0  0  0  0  0  0  0
    6.8017  -14.1320   25.3521 C   0  0  0  0  0  0  0  0  0  0  0  0
    9.8493  -16.1656   24.5481 C   0  0  0  0  0  0  0  0  0  0  0  0
   10.8476  -16.6116   23.8799 O   0  0  0  0  0  0  0  0  0  0  0  0
   10.3452  -14.7309   29.8235 C   0  0  0  0  0  0  0  0  0  0  0  0
   10.6089  -14.9887   28.3759 C   0  0  1  0  0  0  0  0  0  0  0  0
   11.3608  -13.8072   27.7414 C   0  0  0  0  0  0  0  0  0  0  0  0
   11.1691  -16.2842   27.9836 C   0  0  0  0  0  0  0  0  0  0  0  0
   11.1809  -16.7318   26.5724 C   0  0  2  0  0  0  0  0  0  0  0  0
    9.9436  -16.1506   25.9578 N   0  0  0  0  0  0  0  0  0  0  0  0
   11.1469  -18.1659   26.2993 C   0  0  0  0  0  0  0  0  0  0  0  0
   10.0723  -18.8688   25.7798 O   0  0  0  0  0  0  0  0  0  0  0  0
   12.1611  -18.8670   26.5478 O   0  0  0  0  0  0  0  0  0  0  0  0
  2  1  1  6
  2  3  1  0
  4  2  1  0
  5  4  1  0
  5  6  1  1
  7  8  2  0
  7  5  1  0
  9  7  1  0
 10  9  1  0
 10 11  1  1
 12 11  1  0
 13 12  2  0
 14 13  1  0
 15 14  1  0
 15 20  2  0
 16 15  1  0
 17 16  2  0
 17 18  1  0
 18 19  2  0
 19 20  1  0
 20 12  1  0
 21 10  1  0
 21 28  1  0
 22 21  2  0
 24 23  1  1
 24 25  1  0
 24 26  1  0
 27 26  1  1
 27 28  1  0
 27 29  1  0
 29 31  2  0
 29 30  1  0
M  END
$$$$
