LWL.pdb
     RDKit          3D

 31 32  0  0  1  0  0  0  0  0999 V2000
   12.0268  -19.0949   17.3779 C   0  0  0  0  0  0  0  0  0  0  0  0
   12.3408  -17.6824   17.8213 C   0  0  1  0  0  0  0  0  0  0  0  0
   13.0526  -16.9802   16.7242 C   0  0  0  0  0  0  0  0  0  0  0  0
   11.1157  -16.9915   18.3335 C   0  0  0  0  0  0  0  0  0  0  0  0
   10.4902  -17.7176   19.4933 C   0  0  2  0  0  0  0  0  0  0  0  0
    9.2812  -18.3742   19.0290 N   0  0  0  0  0  0  0  0  0  0  0  0
   10.1079  -16.8269   20.5951 C   0  0  0  0  0  0  0  0  0  0  0  0
   10.2006  -15.5861   20.4139 O   0  0  0  0  0  0  0  0  0  0  0  0
    9.6402  -17.2623   21.8526 N   0  0  0  0  0  0  0  0  0  0  0  0
    9.2243  -16.3197   22.9193 C   0  0  1  0  0  0  0  0  0  0  0  0
    7.7579  -16.4851   23.0574 C   0  0  0  0  0  0  0  0  0  0  0  0
    7.1401  -15.8133   24.2140 C   0  0  0  0  0  0  0  0  0  0  0  0
    6.5094  -16.3011   25.3367 C   0  0  0  0  0  0  0  0  0  0  0  0
    6.0690  -15.3281   26.1283 N   0  0  0  0  0  0  0  0  0  0  0  0
    6.4054  -14.1682   25.5350 C   0  0  0  0  0  0  0  0  0  0  0  0
    6.1717  -12.8753   25.9589 C   0  0  0  0  0  0  0  0  0  0  0  0
    6.5973  -11.8074   25.2049 C   0  0  0  0  0  0  0  0  0  0  0  0
    7.2622  -12.0566   24.0167 C   0  0  0  0  0  0  0  0  0  0  0  0
    7.4883  -13.3518   23.6064 C   0  0  0  0  0  0  0  0  0  0  0  0
    7.0614  -14.4221   24.3628 C   0  0  0  0  0  0  0  0  0  0  0  0
   10.0529  -16.4890   24.1038 C   0  0  0  0  0  0  0  0  0  0  0  0
   10.2001  -17.6857   24.5379 O   0  0  0  0  0  0  0  0  0  0  0  0
   11.4080  -14.5560   29.1940 C   0  0  0  0  0  0  0  0  0  0  0  0
   10.1223  -14.6153   28.4356 C   0  0  1  0  0  0  0  0  0  0  0  0
    9.1339  -13.5597   28.9578 C   0  0  0  0  0  0  0  0  0  0  0  0
   10.1713  -14.6607   26.9722 C   0  0  0  0  0  0  0  0  0  0  0  0
   10.9948  -15.6580   26.2518 C   0  0  2  0  0  0  0  0  0  0  0  0
   10.7023  -15.4434   24.7975 N   0  0  0  0  0  0  0  0  0  0  0  0
   10.7600  -17.0744   26.5188 C   0  0  0  0  0  0  0  0  0  0  0  0
   11.6487  -17.9444   27.1286 O   0  0  0  0  0  0  0  0  0  0  0  0
    9.6677  -17.5954   26.1763 O   0  0  0  0  0  0  0  0  0  0  0  0
  2  1  1  6
  2  3  1  0
  4  2  1  0
  5  4  1  0
  5  6  1  6
  7  8  2  0
  7  5  1  0
  9  7  1  0
 10  9  1  0
 10 11  1  1
 12 11  1  0
 13 12  2  0
 14 13  1  0
 15 14  1  0
 15 20  2  0
 16 15  1  0
 17 16  2  0
 17 18  1  0
 18 19  2  0
 19 20  1  0
 20 12  1  0
 21 10  1  0
 21 28  1  0
 22 21  2  0
 24 23  1  1
 24 25  1  0
 24 26  1  0
 27 26  1  1
 27 28  1  0
 27 29  1  0
 29 31  2  0
 29 30  1  0
M  END
$$$$
