LWL.pdb
     RDKit          3D

 31 32  0  0  1  0  0  0  0  0999 V2000
    9.7053  -21.0952   18.5939 C   0  0  0  0  0  0  0  0  0  0  0  0
    8.8148  -19.8839   18.7670 C   0  0  1  0  0  0  0  0  0  0  0  0
    7.4108  -20.3375   18.9302 C   0  0  0  0  0  0  0  0  0  0  0  0
    9.3268  -18.9869   19.8504 C   0  0  0  0  0  0  0  0  0  0  0  0
    8.4080  -17.8253   20.1155 C   0  0  2  0  0  0  0  0  0  0  0  0
    8.4289  -16.9471   18.9592 N   0  0  0  0  0  0  0  0  0  0  0  0
    8.8079  -17.0252   21.2788 C   0  0  0  0  0  0  0  0  0  0  0  0
    9.7214  -16.1746   21.1278 O   0  0  0  0  0  0  0  0  0  0  0  0
    8.2392  -17.1400   22.5646 N   0  0  0  0  0  0  0  0  0  0  0  0
    8.7152  -16.3438   23.7216 C   0  0  1  0  0  0  0  0  0  0  0  0
    7.5422  -16.1829   24.6131 C   0  0  0  0  0  0  0  0  0  0  0  0
    7.4046  -14.8692   25.2656 C   0  0  0  0  0  0  0  0  0  0  0  0
    6.5610  -13.8060   25.0322 C   0  0  0  0  0  0  0  0  0  0  0  0
    6.7980  -12.7871   25.8526 N   0  0  0  0  0  0  0  0  0  0  0  0
    7.8135  -13.1645   26.6506 C   0  0  0  0  0  0  0  0  0  0  0  0
    8.4281  -12.4607   27.6669 C   0  0  0  0  0  0  0  0  0  0  0  0
    9.4623  -13.0228   28.3770 C   0  0  0  0  0  0  0  0  0  0  0  0
    9.8716  -14.3044   28.0516 C   0  0  0  0  0  0  0  0  0  0  0  0
    9.2491  -14.9947   27.0351 C   0  0  0  0  0  0  0  0  0  0  0  0
    8.2122  -14.4305   26.3235 C   0  0  0  0  0  0  0  0  0  0  0  0
    9.9300  -16.9226   24.2764 C   0  0  0  0  0  0  0  0  0  0  0  0
    9.9721  -18.2004   24.3629 O   0  0  0  0  0  0  0  0  0  0  0  0
   15.2097  -17.6787   23.7773 C   0  0  0  0  0  0  0  0  0  0  0  0
   14.8078  -16.5660   24.6894 C   0  0  1  0  0  0  0  0  0  0  0  0
   15.8243  -15.4144   24.6229 C   0  0  0  0  0  0  0  0  0  0  0  0
   13.4221  -16.0922   24.6515 C   0  0  0  0  0  0  0  0  0  0  0  0
   12.2922  -16.9584   25.0576 C   0  0  2  0  0  0  0  0  0  0  0  0
   11.0534  -16.1870   24.7159 N   0  0  0  0  0  0  0  0  0  0  0  0
   12.1751  -17.3315   26.4646 C   0  0  0  0  0  0  0  0  0  0  0  0
   11.5211  -16.6051   27.4461 O   0  0  0  0  0  0  0  0  0  0  0  0
   12.7052  -18.3985   26.8676 O   0  0  0  0  0  0  0  0  0  0  0  0
  2  1  1  1
  2  3  1  0
  4  2  1  0
  5  4  1  0
  5  6  1  6
  7  8  2  0
  7  5  1  0
  9  7  1  0
 10  9  1  0
 10 11  1  1
 12 11  1  0
 13 12  2  0
 14 13  1  0
 15 14  1  0
 15 20  2  0
 16 15  1  0
 17 16  2  0
 17 18  1  0
 18 19  2  0
 19 20  1  0
 20 12  1  0
 21 10  1  0
 21 28  1  0
 22 21  2  0
 24 23  1  6
 24 25  1  0
 24 26  1  0
 27 26  1  1
 27 28  1  0
 27 29  1  0
 29 31  2  0
 29 30  1  0
M  END
$$$$
