LWL.pdb
     RDKit          3D

 31 32  0  0  1  0  0  0  0  0999 V2000
    7.6141  -12.7988   17.6654 C   0  0  0  0  0  0  0  0  0  0  0  0
    8.1847  -14.0968   18.1946 C   0  0  1  0  0  0  0  0  0  0  0  0
    8.8717  -14.8079   17.0875 C   0  0  0  0  0  0  0  0  0  0  0  0
    9.0158  -13.8632   19.4174 C   0  0  0  0  0  0  0  0  0  0  0  0
    9.4623  -15.1474   20.0615 C   0  0  2  0  0  0  0  0  0  0  0  0
    8.5413  -16.2017   19.6761 N   0  0  0  0  0  0  0  0  0  0  0  0
    9.4687  -15.0875   21.5278 C   0  0  0  0  0  0  0  0  0  0  0  0
   10.1532  -14.1900   22.0815 O   0  0  0  0  0  0  0  0  0  0  0  0
    8.7583  -15.9689   22.3693 N   0  0  0  0  0  0  0  0  0  0  0  0
    8.6301  -15.7479   23.8300 C   0  0  1  0  0  0  0  0  0  0  0  0
    7.3159  -16.3165   24.2125 C   0  0  0  0  0  0  0  0  0  0  0  0
    6.4368  -15.4342   24.9994 C   0  0  0  0  0  0  0  0  0  0  0  0
    5.1988  -15.6335   25.5686 C   0  0  0  0  0  0  0  0  0  0  0  0
    4.7453  -14.5432   26.1793 N   0  0  0  0  0  0  0  0  0  0  0  0
    5.6868  -13.5948   26.0219 C   0  0  0  0  0  0  0  0  0  0  0  0
    5.6893  -12.2895   26.4713 C   0  0  0  0  0  0  0  0  0  0  0  0
    6.7560  -11.4637   26.2064 C   0  0  0  0  0  0  0  0  0  0  0  0
    7.8224  -11.9682   25.4824 C   0  0  0  0  0  0  0  0  0  0  0  0
    7.8061  -13.2726   25.0404 C   0  0  0  0  0  0  0  0  0  0  0  0
    6.7363  -14.1001   25.3063 C   0  0  0  0  0  0  0  0  0  0  0  0
    9.8170  -16.2231   24.5259 C   0  0  0  0  0  0  0  0  0  0  0  0
   10.7016  -16.8187   23.8155 O   0  0  0  0  0  0  0  0  0  0  0  0
   10.6147  -16.0438   30.0149 C   0  0  0  0  0  0  0  0  0  0  0  0
   10.5297  -15.5133   28.6210 C   0  0  1  0  0  0  0  0  0  0  0  0
   10.1659  -14.0196   28.6291 C   0  0  0  0  0  0  0  0  0  0  0  0
   11.6140  -15.8203   27.6851 C   0  0  0  0  0  0  0  0  0  0  0  0
   11.3725  -16.5766   26.4355 C   0  0  2  0  0  0  0  0  0  0  0  0
   10.0629  -16.0725   25.9090 N   0  0  0  0  0  0  0  0  0  0  0  0
   11.2568  -18.0301   26.5158 C   0  0  0  0  0  0  0  0  0  0  0  0
   12.3000  -18.9182   26.7195 O   0  0  0  0  0  0  0  0  0  0  0  0
   10.1272  -18.5685   26.3889 O   0  0  0  0  0  0  0  0  0  0  0  0
  2  1  1  6
  2  3  1  0
  4  2  1  0
  5  4  1  0
  5  6  1  1
  7  8  2  0
  7  5  1  0
  9  7  1  0
 10  9  1  0
 10 11  1  1
 12 11  1  0
 13 12  2  0
 14 13  1  0
 15 14  1  0
 15 20  2  0
 16 15  1  0
 17 16  2  0
 17 18  1  0
 18 19  2  0
 19 20  1  0
 20 12  1  0
 21 10  1  0
 21 28  1  0
 22 21  2  0
 24 23  1  1
 24 25  1  0
 24 26  1  0
 27 26  1  1
 27 28  1  0
 27 29  1  0
 29 31  2  0
 29 30  1  0
M  END
$$$$
