LWL.pdb
     RDKit          3D

 31 32  0  0  1  0  0  0  0  0999 V2000
    7.8053  -13.2801   17.6594 C   0  0  0  0  0  0  0  0  0  0  0  0
    8.6214  -14.4936   18.0489 C   0  0  1  0  0  0  0  0  0  0  0  0
    9.0463  -15.2040   16.8168 C   0  0  0  0  0  0  0  0  0  0  0  0
    9.7277  -14.1228   18.9867 C   0  0  0  0  0  0  0  0  0  0  0  0
   10.2099  -15.2952   19.7970 C   0  0  2  0  0  0  0  0  0  0  0  0
    9.4128  -16.4574   19.4470 N   0  0  0  0  0  0  0  0  0  0  0  0
   10.0751  -15.0928   21.2442 C   0  0  0  0  0  0  0  0  0  0  0  0
   10.6636  -14.1102   21.7628 O   0  0  0  0  0  0  0  0  0  0  0  0
    9.3283  -15.9251   22.1039 N   0  0  0  0  0  0  0  0  0  0  0  0
    8.9952  -15.5397   23.4967 C   0  0  1  0  0  0  0  0  0  0  0  0
    7.5351  -15.7518   23.6380 C   0  0  0  0  0  0  0  0  0  0  0  0
    6.9309  -15.2601   24.8885 C   0  0  0  0  0  0  0  0  0  0  0  0
    6.1947  -15.8887   25.8678 C   0  0  0  0  0  0  0  0  0  0  0  0
    5.8173  -15.0507   26.8284 N   0  0  0  0  0  0  0  0  0  0  0  0
    6.3034  -13.8409   26.4958 C   0  0  0  0  0  0  0  0  0  0  0  0
    6.1839  -12.6413   27.1684 C   0  0  0  0  0  0  0  0  0  0  0  0
    6.7575  -11.4989   26.6624 C   0  0  0  0  0  0  0  0  0  0  0  0
    7.4543  -11.5783   25.4691 C   0  0  0  0  0  0  0  0  0  0  0  0
    7.5654  -12.7821   24.8091 C   0  0  0  0  0  0  0  0  0  0  0  0
    6.9900  -13.9271   25.3168 C   0  0  0  0  0  0  0  0  0  0  0  0
    9.8839  -16.2045   24.4384 C   0  0  0  0  0  0  0  0  0  0  0  0
   10.8225  -16.9195   23.9385 O   0  0  0  0  0  0  0  0  0  0  0  0
   10.0289  -14.3868   29.6002 C   0  0  0  0  0  0  0  0  0  0  0  0
   10.2879  -14.8523   28.2045 C   0  0  1  0  0  0  0  0  0  0  0  0
   11.1080  -13.8098   27.4271 C   0  0  0  0  0  0  0  0  0  0  0  0
   10.7786  -16.2172   27.9988 C   0  0  0  0  0  0  0  0  0  0  0  0
   10.8320  -16.8302   26.6522 C   0  0  2  0  0  0  0  0  0  0  0  0
    9.7905  -16.1155   25.8454 N   0  0  0  0  0  0  0  0  0  0  0  0
   10.5477  -18.2571   26.5280 C   0  0  0  0  0  0  0  0  0  0  0  0
   11.4026  -19.2893   26.8778 O   0  0  0  0  0  0  0  0  0  0  0  0
    9.4406  -18.6288   26.0610 O   0  0  0  0  0  0  0  0  0  0  0  0
  2  1  1  6
  2  3  1  0
  4  2  1  0
  5  4  1  0
  5  6  1  6
  7  8  2  0
  7  5  1  0
  9  7  1  0
 10  9  1  0
 10 11  1  1
 12 11  1  0
 13 12  2  0
 14 13  1  0
 15 14  1  0
 15 20  2  0
 16 15  1  0
 17 16  2  0
 17 18  1  0
 18 19  2  0
 19 20  1  0
 20 12  1  0
 21 10  1  0
 21 28  1  0
 22 21  2  0
 24 23  1  1
 24 25  1  0
 24 26  1  0
 27 26  1  1
 27 28  1  0
 27 29  1  0
 29 31  2  0
 29 30  1  0
M  END
$$$$
