LWL.pdb
     RDKit          3D

 31 32  0  0  1  0  0  0  0  0999 V2000
    8.0190  -13.1815   16.8934 C   0  0  0  0  0  0  0  0  0  0  0  0
    8.7398  -14.3250   17.5741 C   0  0  1  0  0  0  0  0  0  0  0  0
    9.7438  -14.8877   16.6367 C   0  0  0  0  0  0  0  0  0  0  0  0
    9.2742  -13.9090   18.9090 C   0  0  0  0  0  0  0  0  0  0  0  0
    9.8281  -15.0683   19.6918 C   0  0  2  0  0  0  0  0  0  0  0  0
    9.0783  -16.2617   19.3420 N   0  0  0  0  0  0  0  0  0  0  0  0
    9.7156  -14.8920   21.1443 C   0  0  0  0  0  0  0  0  0  0  0  0
   10.2705  -13.8909   21.6647 O   0  0  0  0  0  0  0  0  0  0  0  0
    9.0259  -15.7689   22.0074 N   0  0  0  0  0  0  0  0  0  0  0  0
    8.6833  -15.4080   23.4043 C   0  0  1  0  0  0  0  0  0  0  0  0
    7.2356  -15.6889   23.5524 C   0  0  0  0  0  0  0  0  0  0  0  0
    6.5884  -15.1213   24.7480 C   0  0  0  0  0  0  0  0  0  0  0  0
    5.8574  -15.6966   25.7634 C   0  0  0  0  0  0  0  0  0  0  0  0
    5.4293  -14.7987   26.6453 N   0  0  0  0  0  0  0  0  0  0  0  0
    5.8754  -13.6017   26.2225 C   0  0  0  0  0  0  0  0  0  0  0  0
    5.6969  -12.3569   26.7920 C   0  0  0  0  0  0  0  0  0  0  0  0
    6.2363  -11.2377   26.2035 C   0  0  0  0  0  0  0  0  0  0  0  0
    6.9592  -11.3865   25.0325 C   0  0  0  0  0  0  0  0  0  0  0  0
    7.1292  -12.6347   24.4756 C   0  0  0  0  0  0  0  0  0  0  0  0
    6.5880  -13.7565   25.0662 C   0  0  0  0  0  0  0  0  0  0  0  0
    9.6076  -16.0363   24.3368 C   0  0  0  0  0  0  0  0  0  0  0  0
   10.5643  -16.7199   23.8274 O   0  0  0  0  0  0  0  0  0  0  0  0
   10.0091  -14.0172   29.4495 C   0  0  0  0  0  0  0  0  0  0  0  0
   10.2063  -14.5352   28.0623 C   0  0  1  0  0  0  0  0  0  0  0  0
   11.1185  -13.5964   27.2560 C   0  0  0  0  0  0  0  0  0  0  0  0
   10.5562  -15.9464   27.8824 C   0  0  0  0  0  0  0  0  0  0  0  0
   10.6407  -16.5619   26.5386 C   0  0  2  0  0  0  0  0  0  0  0  0
    9.5299  -15.9439   25.7445 N   0  0  0  0  0  0  0  0  0  0  0  0
   10.4770  -18.0087   26.4269 C   0  0  0  0  0  0  0  0  0  0  0  0
   11.4164  -18.9625   26.7823 O   0  0  0  0  0  0  0  0  0  0  0  0
    9.4038  -18.4759   25.9665 O   0  0  0  0  0  0  0  0  0  0  0  0
  2  1  1  6
  2  3  1  0
  4  2  1  0
  5  4  1  0
  5  6  1  6
  7  8  2  0
  7  5  1  0
  9  7  1  0
 10  9  1  0
 10 11  1  1
 12 11  1  0
 13 12  2  0
 14 13  1  0
 15 14  1  0
 15 20  2  0
 16 15  1  0
 17 16  2  0
 17 18  1  0
 18 19  2  0
 19 20  1  0
 20 12  1  0
 21 10  1  0
 21 28  1  0
 22 21  2  0
 24 23  1  1
 24 25  1  0
 24 26  1  0
 27 26  1  1
 27 28  1  0
 27 29  1  0
 29 31  2  0
 29 30  1  0
M  END
$$$$
