LWL.pdb
     RDKit          3D

 31 32  0  0  1  0  0  0  0  0999 V2000
    8.4194  -13.4381   16.4105 C   0  0  0  0  0  0  0  0  0  0  0  0
    8.9539  -14.6041   17.2137 C   0  0  1  0  0  0  0  0  0  0  0  0
    9.8054  -15.4444   16.3350 C   0  0  0  0  0  0  0  0  0  0  0  0
    9.6054  -14.1365   18.4777 C   0  0  0  0  0  0  0  0  0  0  0  0
   10.0355  -15.2783   19.3578 C   0  0  2  0  0  0  0  0  0  0  0  0
    9.2384  -16.4449   19.0229 N   0  0  0  0  0  0  0  0  0  0  0  0
    9.8404  -15.0119   20.7877 C   0  0  0  0  0  0  0  0  0  0  0  0
   10.4474  -14.0358   21.2971 O   0  0  0  0  0  0  0  0  0  0  0  0
    9.0158  -15.7753   21.6402 N   0  0  0  0  0  0  0  0  0  0  0  0
    8.6039  -15.3035   22.9844 C   0  0  1  0  0  0  0  0  0  0  0  0
    7.1428  -15.5388   23.0667 C   0  0  0  0  0  0  0  0  0  0  0  0
    6.4925  -15.1196   24.3204 C   0  0  0  0  0  0  0  0  0  0  0  0
    5.6929  -15.7938   25.2162 C   0  0  0  0  0  0  0  0  0  0  0  0
    5.2925  -15.0155   26.2169 N   0  0  0  0  0  0  0  0  0  0  0  0
    5.8271  -13.8006   25.9964 C   0  0  0  0  0  0  0  0  0  0  0  0
    5.7081  -12.6491   26.7485 C   0  0  0  0  0  0  0  0  0  0  0  0
    6.3365  -11.4916   26.3545 C   0  0  0  0  0  0  0  0  0  0  0  0
    7.0878  -11.5067   25.1920 C   0  0  0  0  0  0  0  0  0  0  0  0
    7.1976  -12.6630   24.4516 C   0  0  0  0  0  0  0  0  0  0  0  0
    6.5673  -13.8232   24.8472 C   0  0  0  0  0  0  0  0  0  0  0  0
    9.4555  -15.8820   24.0133 C   0  0  0  0  0  0  0  0  0  0  0  0
   10.3870  -16.6671   23.6160 O   0  0  0  0  0  0  0  0  0  0  0  0
   12.6049  -14.9613   28.4904 C   0  0  0  0  0  0  0  0  0  0  0  0
   11.1936  -15.4132   28.6795 C   0  0  1  0  0  0  0  0  0  0  0  0
   10.6120  -14.8476   29.9855 C   0  0  0  0  0  0  0  0  0  0  0  0
   10.2619  -15.2964   27.5551 C   0  0  0  0  0  0  0  0  0  0  0  0
   10.5093  -15.9798   26.2653 C   0  0  2  0  0  0  0  0  0  0  0  0
    9.3338  -15.6395   25.3999 N   0  0  0  0  0  0  0  0  0  0  0  0
   10.6206  -17.4359   26.2620 C   0  0  0  0  0  0  0  0  0  0  0  0
    9.5822  -18.3306   26.4618 O   0  0  0  0  0  0  0  0  0  0  0  0
   11.7430  -17.9699   26.0695 O   0  0  0  0  0  0  0  0  0  0  0  0
  2  1  1  6
  2  3  1  0
  4  2  1  0
  5  4  1  0
  5  6  1  6
  7  8  2  0
  7  5  1  0
  9  7  1  0
 10  9  1  0
 10 11  1  1
 12 11  1  0
 13 12  2  0
 14 13  1  0
 15 14  1  0
 15 20  2  0
 16 15  1  0
 17 16  2  0
 17 18  1  0
 18 19  2  0
 19 20  1  0
 20 12  1  0
 21 10  1  0
 21 28  1  0
 22 21  2  0
 24 23  1  6
 24 25  1  0
 24 26  1  0
 27 26  1  1
 27 28  1  0
 27 29  1  0
 29 31  2  0
 29 30  1  0
M  END
$$$$
