LWL.pdb
     RDKit          3D

 31 32  0  0  1  0  0  0  0  0999 V2000
    7.6178  -12.5694   17.6707 C   0  0  0  0  0  0  0  0  0  0  0  0
    8.2982  -13.8214   18.1804 C   0  0  1  0  0  0  0  0  0  0  0  0
    9.2059  -14.3396   17.1263 C   0  0  0  0  0  0  0  0  0  0  0  0
    8.9361  -13.5855   19.5139 C   0  0  0  0  0  0  0  0  0  0  0  0
    9.4999  -14.8459   20.1112 C   0  0  2  0  0  0  0  0  0  0  0  0
    8.6846  -15.9668   19.6783 N   0  0  0  0  0  0  0  0  0  0  0  0
    9.4949  -14.8432   21.5787 C   0  0  0  0  0  0  0  0  0  0  0  0
   10.0624  -13.8909   22.1718 O   0  0  0  0  0  0  0  0  0  0  0  0
    8.8959  -15.8374   22.3802 N   0  0  0  0  0  0  0  0  0  0  0  0
    8.6902  -15.6693   23.8392 C   0  0  1  0  0  0  0  0  0  0  0  0
    7.3387  -16.2075   24.1229 C   0  0  0  0  0  0  0  0  0  0  0  0
    6.4690  -15.3585   24.9554 C   0  0  0  0  0  0  0  0  0  0  0  0
    5.2566  -15.5948   25.5641 C   0  0  0  0  0  0  0  0  0  0  0  0
    4.8013  -14.5253   26.2092 N   0  0  0  0  0  0  0  0  0  0  0  0
    5.7157  -13.5536   26.0355 C   0  0  0  0  0  0  0  0  0  0  0  0
    5.7057  -12.2563   26.5074 C   0  0  0  0  0  0  0  0  0  0  0  0
    6.7441  -11.4025   26.2198 C   0  0  0  0  0  0  0  0  0  0  0  0
    7.7950  -11.8708   25.4502 C   0  0  0  0  0  0  0  0  0  0  0  0
    7.7914  -13.1677   24.9863 C   0  0  0  0  0  0  0  0  0  0  0  0
    6.7500  -14.0232   25.2749 C   0  0  0  0  0  0  0  0  0  0  0  0
    9.8191  -16.2112   24.5812 C   0  0  0  0  0  0  0  0  0  0  0  0
   10.8010  -16.6592   23.8904 O   0  0  0  0  0  0  0  0  0  0  0  0
   10.4128  -14.7773   29.7807 C   0  0  0  0  0  0  0  0  0  0  0  0
   10.6834  -15.0579   28.3386 C   0  0  1  0  0  0  0  0  0  0  0  0
   11.4672  -13.9011   27.6974 C   0  0  0  0  0  0  0  0  0  0  0  0
   11.2178  -16.3701   27.9664 C   0  0  0  0  0  0  0  0  0  0  0  0
   11.1565  -16.8687   26.5737 C   0  0  2  0  0  0  0  0  0  0  0  0
    9.9112  -16.2734   25.9897 N   0  0  0  0  0  0  0  0  0  0  0  0
   11.0701  -18.3102   26.3563 C   0  0  0  0  0  0  0  0  0  0  0  0
   12.1041  -19.2187   26.5115 O   0  0  0  0  0  0  0  0  0  0  0  0
    9.9786  -18.8158   25.9890 O   0  0  0  0  0  0  0  0  0  0  0  0
  2  1  1  6
  2  3  1  0
  4  2  1  0
  5  4  1  0
  5  6  1  6
  7  8  2  0
  7  5  1  0
  9  7  1  0
 10  9  1  0
 10 11  1  1
 12 11  1  0
 13 12  2  0
 14 13  1  0
 15 14  1  0
 15 20  2  0
 16 15  1  0
 17 16  2  0
 17 18  1  0
 18 19  2  0
 19 20  1  0
 20 12  1  0
 21 10  1  0
 21 28  1  0
 22 21  2  0
 24 23  1  1
 24 25  1  0
 24 26  1  0
 27 26  1  1
 27 28  1  0
 27 29  1  0
 29 31  2  0
 29 30  1  0
M  END
$$$$
