MFW.pdb
     RDKit          3D

 34 36  0  0  1  0  0  0  0  0999 V2000
   26.7573  -16.0536  -14.6621 C   0  0  0  0  0  0  0  0  0  0  0  0
   28.2801  -17.0072  -14.4242 S   0  0  0  0  0  0  0  0  0  0  0  0
   28.4637  -18.2387  -15.7446 C   0  0  0  0  0  0  0  0  0  0  0  0
   27.5472  -19.4316  -15.4726 C   0  0  0  0  0  0  0  0  0  0  0  0
   28.0080  -20.0367  -14.1757 C   0  0  2  0  0  0  0  0  0  0  0  0
   29.1304  -20.9018  -14.4681 N   0  0  0  0  0  0  0  0  0  0  0  0
   26.9357  -20.7270  -13.4429 C   0  0  0  0  0  0  0  0  0  0  0  0
   26.5535  -21.8601  -13.8354 O   0  0  0  0  0  0  0  0  0  0  0  0
   26.2730  -20.2200  -12.3031 N   0  0  0  0  0  0  0  0  0  0  0  0
   25.2767  -20.9326  -11.5700 C   0  0  1  0  0  0  0  0  0  0  0  0
   25.1940  -20.6790  -10.1277 C   0  0  0  0  0  0  0  0  0  0  0  0
   26.4783  -20.8382   -9.3951 C   0  0  0  0  0  0  0  0  0  0  0  0
   26.7746  -20.0479   -8.2816 C   0  0  0  0  0  0  0  0  0  0  0  0
   27.9621  -20.1866   -7.5968 C   0  0  0  0  0  0  0  0  0  0  0  0
   28.9201  -21.1192   -7.9819 C   0  0  0  0  0  0  0  0  0  0  0  0
   28.6407  -21.8978   -9.0699 C   0  0  0  0  0  0  0  0  0  0  0  0
   27.4468  -21.7505   -9.7495 C   0  0  0  0  0  0  0  0  0  0  0  0
   23.9595  -20.7440  -12.2070 C   0  0  0  0  0  0  0  0  0  0  0  0
   23.4953  -19.5672  -12.3892 O   0  0  0  0  0  0  0  0  0  0  0  0
   23.1199  -21.8071  -12.6630 N   0  0  0  0  0  0  0  0  0  0  0  0
   21.8316  -21.5035  -13.3294 C   0  0  1  0  0  0  0  0  0  0  0  0
   21.4706  -22.7361  -14.0881 C   0  0  0  0  0  0  0  0  0  0  0  0
   20.2180  -22.7163  -14.8415 C   0  0  0  0  0  0  0  0  0  0  0  0
   19.8451  -21.8801  -15.8949 C   0  0  0  0  0  0  0  0  0  0  0  0
   18.5936  -22.1637  -16.2955 N   0  0  0  0  0  0  0  0  0  0  0  0
   18.1200  -23.1633  -15.5428 C   0  0  0  0  0  0  0  0  0  0  0  0
   16.8979  -23.7985  -15.5922 C   0  0  0  0  0  0  0  0  0  0  0  0
   16.6165  -24.8306  -14.7254 C   0  0  0  0  0  0  0  0  0  0  0  0
   17.5844  -25.1998  -13.8217 C   0  0  0  0  0  0  0  0  0  0  0  0
   18.7838  -24.5582  -13.7904 C   0  0  0  0  0  0  0  0  0  0  0  0
   19.1187  -23.5169  -14.6352 C   0  0  0  0  0  0  0  0  0  0  0  0
   20.8524  -21.1743  -12.3043 C   0  0  0  0  0  0  0  0  0  0  0  0
   21.0050  -21.5644  -11.1222 O   0  0  0  0  0  0  0  0  0  0  0  0
   19.7071  -20.4168  -12.5529 O   0  0  0  0  0  0  0  0  0  0  0  0
  1  2  1  0
  3  2  1  0
  4  3  1  0
  5  6  1  6
  5  4  1  0
  7  5  1  0
  8  7  2  0
  9  7  1  0
 10  9  1  0
 10 11  1  1
 11 12  1  0
 12 13  2  0
 13 14  1  0
 15 14  2  0
 16 15  1  0
 17 12  1  0
 17 16  2  0
 18 10  1  0
 19 18  2  0
 20 18  1  0
 21 20  1  0
 21 22  1  1
 22 23  1  0
 23 31  1  0
 24 23  2  0
 24 25  1  0
 25 26  1  0
 26 27  1  0
 27 28  2  0
 29 28  1  0
 30 29  2  0
 31 26  2  0
 31 30  1  0
 32 21  1  0
 32 34  1  0
 33 32  2  0
M  END
$$$$
