MFW.pdb
     RDKit          3D

 34 36  0  0  1  0  0  0  0  0999 V2000
   13.2691  -12.8850   12.5110 C   0  0  0  0  0  0  0  0  0  0  0  0
   12.4342  -13.3114   10.9598 S   0  0  0  0  0  0  0  0  0  0  0  0
   13.3706  -12.6685    9.5443 C   0  0  0  0  0  0  0  0  0  0  0  0
   12.8025  -13.2385    8.2445 C   0  0  0  0  0  0  0  0  0  0  0  0
   13.7504  -12.8326    7.1503 C   0  0  2  0  0  0  0  0  0  0  0  0
   12.9590  -12.3529    6.0381 N   0  0  0  0  0  0  0  0  0  0  0  0
   14.6835  -13.9016    6.7633 C   0  0  0  0  0  0  0  0  0  0  0  0
   14.3907  -14.6533    5.7972 O   0  0  0  0  0  0  0  0  0  0  0  0
   15.9172  -14.1724    7.3956 N   0  0  0  0  0  0  0  0  0  0  0  0
   16.8607  -15.1396    6.9350 C   0  0  1  0  0  0  0  0  0  0  0  0
   18.2533  -14.7031    6.7886 C   0  0  0  0  0  0  0  0  0  0  0  0
   18.4853  -13.7262    5.6917 C   0  0  0  0  0  0  0  0  0  0  0  0
   18.1503  -14.0343    4.3707 C   0  0  0  0  0  0  0  0  0  0  0  0
   18.3625  -13.1368    3.3471 C   0  0  0  0  0  0  0  0  0  0  0  0
   18.9194  -11.8834    3.5813 C   0  0  0  0  0  0  0  0  0  0  0  0
   19.2509  -11.5714    4.8699 C   0  0  0  0  0  0  0  0  0  0  0  0
   19.0340  -12.4788    5.8890 C   0  0  0  0  0  0  0  0  0  0  0  0
   16.7814  -16.3511    7.7730 C   0  0  0  0  0  0  0  0  0  0  0  0
   16.6855  -16.2498    9.0434 O   0  0  0  0  0  0  0  0  0  0  0  0
   16.7985  -17.6884    7.2685 N   0  0  0  0  0  0  0  0  0  0  0  0
   16.6812  -18.8356    8.1989 C   0  0  1  0  0  0  0  0  0  0  0  0
   16.2718  -19.9968    7.3566 C   0  0  0  0  0  0  0  0  0  0  0  0
   15.1398  -20.7961    7.8221 C   0  0  0  0  0  0  0  0  0  0  0  0
   14.0384  -20.3933    8.5788 C   0  0  0  0  0  0  0  0  0  0  0  0
   13.2329  -21.4411    8.8250 N   0  0  0  0  0  0  0  0  0  0  0  0
   13.7620  -22.5301    8.2557 C   0  0  0  0  0  0  0  0  0  0  0  0
   13.2902  -23.8248    8.2272 C   0  0  0  0  0  0  0  0  0  0  0  0
   13.9911  -24.8043    7.5602 C   0  0  0  0  0  0  0  0  0  0  0  0
   15.1617  -24.4500    6.9325 C   0  0  0  0  0  0  0  0  0  0  0  0
   15.6089  -23.1658    6.9742 C   0  0  0  0  0  0  0  0  0  0  0  0
   14.9470  -22.1442    7.6287 C   0  0  0  0  0  0  0  0  0  0  0  0
   17.9723  -19.0402    8.8387 C   0  0  0  0  0  0  0  0  0  0  0  0
   19.0348  -18.7114    8.2592 O   0  0  0  0  0  0  0  0  0  0  0  0
   18.1186  -19.5959   10.1103 O   0  0  0  0  0  0  0  0  0  0  0  0
  1  2  1  0
  3  2  1  0
  4  3  1  0
  5  6  1  6
  5  4  1  0
  7  5  1  0
  8  7  2  0
  9  7  1  0
 10  9  1  0
 10 11  1  1
 11 12  1  0
 12 13  2  0
 13 14  1  0
 15 14  2  0
 16 15  1  0
 17 12  1  0
 17 16  2  0
 18 10  1  0
 19 18  2  0
 20 18  1  0
 21 20  1  0
 21 22  1  6
 22 23  1  0
 23 31  1  0
 24 23  2  0
 24 25  1  0
 25 26  1  0
 26 27  1  0
 27 28  2  0
 29 28  1  0
 30 29  2  0
 31 26  2  0
 31 30  1  0
 32 21  1  0
 32 34  1  0
 33 32  2  0
M  END
$$$$
