MFW.pdb
     RDKit          3D

 34 36  0  0  1  0  0  0  0  0999 V2000
   31.8538  -18.2062  -16.4234 C   0  0  0  0  0  0  0  0  0  0  0  0
   31.9414  -16.7885  -17.5492 S   0  0  0  0  0  0  0  0  0  0  0  0
   30.2931  -16.0643  -17.7780 C   0  0  0  0  0  0  0  0  0  0  0  0
   29.3451  -16.5797  -16.6951 C   0  0  0  0  0  0  0  0  0  0  0  0
   28.3159  -17.4231  -17.3950 C   0  0  2  0  0  0  0  0  0  0  0  0
   27.6459  -16.5846  -18.3653 N   0  0  0  0  0  0  0  0  0  0  0  0
   27.3793  -18.0822  -16.4721 C   0  0  0  0  0  0  0  0  0  0  0  0
   26.4166  -17.4239  -15.9990 O   0  0  0  0  0  0  0  0  0  0  0  0
   27.4627  -19.4287  -16.0535 N   0  0  0  0  0  0  0  0  0  0  0  0
   26.4238  -20.1201  -15.3601 C   0  0  1  0  0  0  0  0  0  0  0  0
   25.6632  -21.1215  -16.1150 C   0  0  0  0  0  0  0  0  0  0  0  0
   24.8337  -20.5685  -17.2184 C   0  0  0  0  0  0  0  0  0  0  0  0
   23.4843  -20.2644  -17.0216 C   0  0  0  0  0  0  0  0  0  0  0  0
   22.7068  -19.7529  -18.0376 C   0  0  0  0  0  0  0  0  0  0  0  0
   23.2290  -19.5157  -19.3052 C   0  0  0  0  0  0  0  0  0  0  0  0
   24.5481  -19.8095  -19.5090 C   0  0  0  0  0  0  0  0  0  0  0  0
   25.3188  -20.3221  -18.4833 C   0  0  0  0  0  0  0  0  0  0  0  0
   26.9588  -20.7038  -14.1154 C   0  0  0  0  0  0  0  0  0  0  0  0
   28.1009  -21.2775  -14.1124 O   0  0  0  0  0  0  0  0  0  0  0  0
   26.2859  -20.6807  -12.8545 N   0  0  0  0  0  0  0  0  0  0  0  0
   26.7934  -21.4956  -11.7258 C   0  0  1  0  0  0  0  0  0  0  0  0
   27.7578  -20.6199  -10.9988 C   0  0  0  0  0  0  0  0  0  0  0  0
   27.4184  -20.2429   -9.6278 C   0  0  0  0  0  0  0  0  0  0  0  0
   26.1605  -20.1714   -9.0273 C   0  0  0  0  0  0  0  0  0  0  0  0
   26.2738  -19.7518   -7.7551 N   0  0  0  0  0  0  0  0  0  0  0  0
   27.5678  -19.5417   -7.4878 C   0  0  0  0  0  0  0  0  0  0  0  0
   28.1679  -19.1235   -6.3198 C   0  0  0  0  0  0  0  0  0  0  0  0
   29.5363  -18.9874   -6.2525 C   0  0  0  0  0  0  0  0  0  0  0  0
   30.2724  -19.2795   -7.3761 C   0  0  0  0  0  0  0  0  0  0  0  0
   29.6588  -19.6903   -8.5188 C   0  0  0  0  0  0  0  0  0  0  0  0
   28.2908  -19.8431   -8.6423 C   0  0  0  0  0  0  0  0  0  0  0  0
   25.6621  -21.8853  -10.8973 C   0  0  0  0  0  0  0  0  0  0  0  0
   24.5838  -21.2465  -10.9421 O   0  0  0  0  0  0  0  0  0  0  0  0
   25.6911  -22.9711  -10.0213 O   0  0  0  0  0  0  0  0  0  0  0  0
  1  2  1  0
  3  2  1  0
  4  3  1  0
  5  6  1  6
  5  4  1  0
  7  5  1  0
  8  7  2  0
  9  7  1  0
 10  9  1  0
 10 11  1  6
 11 12  1  0
 12 13  2  0
 13 14  1  0
 15 14  2  0
 16 15  1  0
 17 12  1  0
 17 16  2  0
 18 10  1  0
 19 18  2  0
 20 18  1  0
 21 20  1  0
 21 22  1  1
 22 23  1  0
 23 31  1  0
 24 23  2  0
 24 25  1  0
 25 26  1  0
 26 27  1  0
 27 28  2  0
 29 28  1  0
 30 29  2  0
 31 26  2  0
 31 30  1  0
 32 21  1  0
 32 34  1  0
 33 32  2  0
M  END
$$$$
