MFW.pdb
     RDKit          3D

 34 36  0  0  1  0  0  0  0  0999 V2000
   24.4334  -21.0084  -18.9030 C   0  0  0  0  0  0  0  0  0  0  0  0
   25.9788  -20.8420  -19.8352 S   0  0  0  0  0  0  0  0  0  0  0  0
   26.8234  -22.4446  -19.9438 C   0  0  0  0  0  0  0  0  0  0  0  0
   27.1875  -22.9351  -18.5424 C   0  0  0  0  0  0  0  0  0  0  0  0
   28.4190  -22.1767  -18.1315 C   0  0  2  0  0  0  0  0  0  0  0  0
   29.5674  -22.8889  -18.6487 N   0  0  0  0  0  0  0  0  0  0  0  0
   28.5015  -21.9441  -16.6816 C   0  0  0  0  0  0  0  0  0  0  0  0
   28.9483  -22.8553  -15.9371 O   0  0  0  0  0  0  0  0  0  0  0  0
   28.1131  -20.7550  -16.0255 N   0  0  0  0  0  0  0  0  0  0  0  0
   28.3086  -20.5049  -14.6337 C   0  0  1  0  0  0  0  0  0  0  0  0
   28.6952  -19.1450  -14.2432 C   0  0  0  0  0  0  0  0  0  0  0  0
   27.9077  -18.0648  -14.8947 C   0  0  0  0  0  0  0  0  0  0  0  0
   28.0865  -17.7587  -16.2462 C   0  0  0  0  0  0  0  0  0  0  0  0
   27.3628  -16.7590  -16.8588 C   0  0  0  0  0  0  0  0  0  0  0  0
   26.4215  -16.0090  -16.1607 C   0  0  0  0  0  0  0  0  0  0  0  0
   26.2385  -16.2999  -14.8380 C   0  0  0  0  0  0  0  0  0  0  0  0
   26.9694  -17.3045  -14.2333 C   0  0  0  0  0  0  0  0  0  0  0  0
   27.1209  -20.9448  -13.8771 C   0  0  0  0  0  0  0  0  0  0  0  0
   25.9572  -20.8575  -14.3982 O   0  0  0  0  0  0  0  0  0  0  0  0
   27.1570  -21.4882  -12.5555 N   0  0  0  0  0  0  0  0  0  0  0  0
   25.8945  -21.7717  -11.8335 C   0  0  1  0  0  0  0  0  0  0  0  0
   26.3028  -22.2354  -10.4757 C   0  0  0  0  0  0  0  0  0  0  0  0
   26.5017  -21.2128   -9.4501 C   0  0  0  0  0  0  0  0  0  0  0  0
   25.6027  -20.2484   -8.9921 C   0  0  0  0  0  0  0  0  0  0  0  0
   26.1840  -19.4740   -8.0596 N   0  0  0  0  0  0  0  0  0  0  0  0
   27.4423  -19.8919   -7.8805 C   0  0  0  0  0  0  0  0  0  0  0  0
   28.4127  -19.4184   -7.0240 C   0  0  0  0  0  0  0  0  0  0  0  0
   29.6540  -20.0128   -6.9850 C   0  0  0  0  0  0  0  0  0  0  0  0
   29.8877  -21.0803   -7.8190 C   0  0  0  0  0  0  0  0  0  0  0  0
   28.9151  -21.5306   -8.6570 C   0  0  0  0  0  0  0  0  0  0  0  0
   27.6535  -20.9720   -8.7379 C   0  0  0  0  0  0  0  0  0  0  0  0
   25.1072  -20.5485  -11.7902 C   0  0  0  0  0  0  0  0  0  0  0  0
   25.6645  -19.4254  -11.8179 O   0  0  0  0  0  0  0  0  0  0  0  0
   23.7134  -20.5355  -11.7226 O   0  0  0  0  0  0  0  0  0  0  0  0
  1  2  1  0
  3  2  1  0
  4  3  1  0
  5  6  1  1
  5  4  1  0
  7  5  1  0
  8  7  2  0
  9  7  1  0
 10  9  1  0
 10 11  1  6
 11 12  1  0
 12 13  2  0
 13 14  1  0
 15 14  2  0
 16 15  1  0
 17 12  1  0
 17 16  2  0
 18 10  1  0
 19 18  2  0
 20 18  1  0
 21 20  1  0
 21 22  1  1
 22 23  1  0
 23 31  1  0
 24 23  2  0
 24 25  1  0
 25 26  1  0
 26 27  1  0
 27 28  2  0
 29 28  1  0
 30 29  2  0
 31 26  2  0
 31 30  1  0
 32 21  1  0
 32 34  1  0
 33 32  2  0
M  END
$$$$
