MFW.pdb
     RDKit          3D

 34 36  0  0  1  0  0  0  0  0999 V2000
   25.4782  -29.4695  -17.5044 C   0  0  0  0  0  0  0  0  0  0  0  0
   24.9901  -28.5252  -18.9724 S   0  0  0  0  0  0  0  0  0  0  0  0
   24.3452  -26.8993  -18.4886 C   0  0  0  0  0  0  0  0  0  0  0  0
   25.1722  -26.3362  -17.3327 C   0  0  0  0  0  0  0  0  0  0  0  0
   25.8598  -25.1071  -17.8590 C   0  0  2  0  0  0  0  0  0  0  0  0
   26.8840  -25.5386  -18.7854 N   0  0  0  0  0  0  0  0  0  0  0  0
   26.3859  -24.2357  -16.7973 C   0  0  0  0  0  0  0  0  0  0  0  0
   26.9222  -24.7559  -15.7844 O   0  0  0  0  0  0  0  0  0  0  0  0
   26.3434  -22.8239  -16.8087 N   0  0  0  0  0  0  0  0  0  0  0  0
   26.9369  -21.9943  -15.8099 C   0  0  1  0  0  0  0  0  0  0  0  0
   27.3359  -20.6410  -16.2106 C   0  0  0  0  0  0  0  0  0  0  0  0
   27.9465  -19.8274  -15.1260 C   0  0  0  0  0  0  0  0  0  0  0  0
   27.2158  -18.8289  -14.4769 C   0  0  0  0  0  0  0  0  0  0  0  0
   27.7726  -18.0686  -13.4717 C   0  0  0  0  0  0  0  0  0  0  0  0
   29.0869  -18.2600  -13.0569 C   0  0  0  0  0  0  0  0  0  0  0  0
   29.8109  -19.2341  -13.6851 C   0  0  0  0  0  0  0  0  0  0  0  0
   29.2429  -19.9908  -14.6919 C   0  0  0  0  0  0  0  0  0  0  0  0
   26.0669  -21.9484  -14.6194 C   0  0  0  0  0  0  0  0  0  0  0  0
   24.8002  -21.8404  -14.7517 O   0  0  0  0  0  0  0  0  0  0  0  0
   26.5341  -22.0214  -13.2705 N   0  0  0  0  0  0  0  0  0  0  0  0
   25.5707  -21.9666  -12.1460 C   0  0  1  0  0  0  0  0  0  0  0  0
   26.3785  -22.1939  -10.9126 C   0  0  0  0  0  0  0  0  0  0  0  0
   26.2990  -21.1792   -9.8632 C   0  0  0  0  0  0  0  0  0  0  0  0
   25.2050  -20.4013   -9.4812 C   0  0  0  0  0  0  0  0  0  0  0  0
   25.5529  -19.5607   -8.4914 N   0  0  0  0  0  0  0  0  0  0  0  0
   26.8445  -19.7537   -8.2007 C   0  0  0  0  0  0  0  0  0  0  0  0
   27.6342  -19.1384   -7.2536 C   0  0  0  0  0  0  0  0  0  0  0  0
   28.9532  -19.5045   -7.1055 C   0  0  0  0  0  0  0  0  0  0  0  0
   29.4474  -20.4918   -7.9246 C   0  0  0  0  0  0  0  0  0  0  0  0
   28.6497  -21.0853   -8.8532 C   0  0  0  0  0  0  0  0  0  0  0  0
   27.3210  -20.7568   -9.0452 C   0  0  0  0  0  0  0  0  0  0  0  0
   24.9275  -20.6612  -12.1572 C   0  0  0  0  0  0  0  0  0  0  0  0
   25.5354  -19.6500  -12.5824 O   0  0  0  0  0  0  0  0  0  0  0  0
   23.6221  -20.4455  -11.7137 O   0  0  0  0  0  0  0  0  0  0  0  0
  1  2  1  0
  3  2  1  0
  4  3  1  0
  5  6  1  6
  5  4  1  0
  7  5  1  0
  8  7  2  0
  9  7  1  0
 10  9  1  0
 10 11  1  6
 11 12  1  0
 12 13  2  0
 13 14  1  0
 15 14  2  0
 16 15  1  0
 17 12  1  0
 17 16  2  0
 18 10  1  0
 19 18  2  0
 20 18  1  0
 21 20  1  0
 21 22  1  1
 22 23  1  0
 23 31  1  0
 24 23  2  0
 24 25  1  0
 25 26  1  0
 26 27  1  0
 27 28  2  0
 29 28  1  0
 30 29  2  0
 31 26  2  0
 31 30  1  0
 32 21  1  0
 32 34  1  0
 33 32  2  0
M  END
$$$$
