MFW.pdb
     RDKit          3D

 34 36  0  0  1  0  0  0  0  0999 V2000
   28.7315  -19.0309  -21.2587 C   0  0  0  0  0  0  0  0  0  0  0  0
   27.5259  -19.3321  -19.9393 S   0  0  0  0  0  0  0  0  0  0  0  0
   28.1951  -20.5117  -18.7333 C   0  0  0  0  0  0  0  0  0  0  0  0
   27.2349  -20.6460  -17.5513 C   0  0  0  0  0  0  0  0  0  0  0  0
   27.8836  -21.5928  -16.5801 C   0  0  2  0  0  0  0  0  0  0  0  0
   28.0187  -22.8742  -17.2384 N   0  0  0  0  0  0  0  0  0  0  0  0
   27.1718  -21.6868  -15.2965 C   0  0  0  0  0  0  0  0  0  0  0  0
   26.1611  -22.4316  -15.2070 O   0  0  0  0  0  0  0  0  0  0  0  0
   27.5280  -20.9964  -14.1168 N   0  0  0  0  0  0  0  0  0  0  0  0
   26.7763  -21.0378  -12.9038 C   0  0  1  0  0  0  0  0  0  0  0  0
   27.4402  -20.5619  -11.6855 C   0  0  0  0  0  0  0  0  0  0  0  0
   26.5644  -20.5009  -10.4852 C   0  0  0  0  0  0  0  0  0  0  0  0
   26.3450  -19.2948   -9.8149 C   0  0  0  0  0  0  0  0  0  0  0  0
   25.5365  -19.2278   -8.7012 C   0  0  0  0  0  0  0  0  0  0  0  0
   24.9019  -20.3569   -8.1932 C   0  0  0  0  0  0  0  0  0  0  0  0
   25.1095  -21.5422   -8.8411 C   0  0  0  0  0  0  0  0  0  0  0  0
   25.9222  -21.5984   -9.9570 C   0  0  0  0  0  0  0  0  0  0  0  0
   25.4852  -20.3502  -13.0944 C   0  0  0  0  0  0  0  0  0  0  0  0
   25.4558  -19.1258  -13.4599 O   0  0  0  0  0  0  0  0  0  0  0  0
   24.2063  -20.9590  -12.9023 N   0  0  0  0  0  0  0  0  0  0  0  0
   22.9686  -20.1876  -13.1647 C   0  0  1  0  0  0  0  0  0  0  0  0
   23.0103  -19.8407  -14.6149 C   0  0  0  0  0  0  0  0  0  0  0  0
   21.8336  -19.1832  -15.1807 C   0  0  0  0  0  0  0  0  0  0  0  0
   21.1413  -18.0692  -14.7036 C   0  0  0  0  0  0  0  0  0  0  0  0
   20.0917  -17.7965  -15.4980 N   0  0  0  0  0  0  0  0  0  0  0  0
   20.0622  -18.6933  -16.4905 C   0  0  0  0  0  0  0  0  0  0  0  0
   19.1844  -18.8074  -17.5468 C   0  0  0  0  0  0  0  0  0  0  0  0
   19.3470  -19.8071  -18.4795 C   0  0  0  0  0  0  0  0  0  0  0  0
   20.4014  -20.6750  -18.3218 C   0  0  0  0  0  0  0  0  0  0  0  0
   21.2554  -20.5439  -17.2709 C   0  0  0  0  0  0  0  0  0  0  0  0
   21.1390  -19.5610  -16.3062 C   0  0  0  0  0  0  0  0  0  0  0  0
   21.8271  -21.0241  -12.8253 C   0  0  0  0  0  0  0  0  0  0  0  0
   21.9146  -22.2747  -12.8618 O   0  0  0  0  0  0  0  0  0  0  0  0
   20.5881  -20.5111  -12.4394 O   0  0  0  0  0  0  0  0  0  0  0  0
  1  2  1  0
  3  2  1  0
  4  3  1  0
  5  6  1  6
  5  4  1  0
  7  5  1  0
  8  7  2  0
  9  7  1  0
 10  9  1  0
 10 11  1  1
 11 12  1  0
 12 13  2  0
 13 14  1  0
 15 14  2  0
 16 15  1  0
 17 12  1  0
 17 16  2  0
 18 10  1  0
 19 18  2  0
 20 18  1  0
 21 20  1  0
 21 22  1  6
 22 23  1  0
 23 31  1  0
 24 23  2  0
 24 25  1  0
 25 26  1  0
 26 27  1  0
 27 28  2  0
 29 28  1  0
 30 29  2  0
 31 26  2  0
 31 30  1  0
 32 21  1  0
 32 34  1  0
 33 32  2  0
M  END
$$$$
