MFW.pdb
     RDKit          3D

 34 36  0  0  1  0  0  0  0  0999 V2000
   29.3423  -21.8859  -21.5887 C   0  0  0  0  0  0  0  0  0  0  0  0
   29.4246  -21.9859  -19.7809 S   0  0  0  0  0  0  0  0  0  0  0  0
   28.2206  -23.1949  -19.1625 C   0  0  0  0  0  0  0  0  0  0  0  0
   28.2861  -23.2584  -17.6365 C   0  0  0  0  0  0  0  0  0  0  0  0
   27.4521  -22.1164  -17.1257 C   0  0  2  0  0  0  0  0  0  0  0  0
   28.0750  -20.8862  -17.5639 N   0  0  0  0  0  0  0  0  0  0  0  0
   27.2389  -22.1575  -15.6710 C   0  0  0  0  0  0  0  0  0  0  0  0
   26.7677  -23.2007  -15.1479 O   0  0  0  0  0  0  0  0  0  0  0  0
   27.5224  -21.1007  -14.7776 N   0  0  0  0  0  0  0  0  0  0  0  0
   27.1949  -21.1138  -13.3882 C   0  0  1  0  0  0  0  0  0  0  0  0
   27.9348  -20.1967  -12.5148 C   0  0  0  0  0  0  0  0  0  0  0  0
   27.5765  -20.2871  -11.0744 C   0  0  0  0  0  0  0  0  0  0  0  0
   26.5486  -19.5074  -10.5381 C   0  0  0  0  0  0  0  0  0  0  0  0
   26.2098  -19.5827   -9.2047 C   0  0  0  0  0  0  0  0  0  0  0  0
   26.8748  -20.4378   -8.3316 C   0  0  0  0  0  0  0  0  0  0  0  0
   27.8821  -21.2053   -8.8455 C   0  0  0  0  0  0  0  0  0  0  0  0
   28.2139  -21.1220  -10.1841 C   0  0  0  0  0  0  0  0  0  0  0  0
   25.7406  -20.9338  -13.2177 C   0  0  0  0  0  0  0  0  0  0  0  0
   25.2555  -20.6703  -12.0650 O   0  0  0  0  0  0  0  0  0  0  0  0
   24.7827  -21.0278  -14.2744 N   0  0  0  0  0  0  0  0  0  0  0  0
   23.3511  -20.7546  -14.0067 C   0  0  1  0  0  0  0  0  0  0  0  0
   23.2526  -19.2789  -13.8117 C   0  0  0  0  0  0  0  0  0  0  0  0
   21.9361  -18.6669  -13.9830 C   0  0  0  0  0  0  0  0  0  0  0  0
   20.8590  -18.6487  -13.0956 C   0  0  0  0  0  0  0  0  0  0  0  0
   19.8131  -18.0065  -13.6442 N   0  0  0  0  0  0  0  0  0  0  0  0
   20.1587  -17.5952  -14.8695 C   0  0  0  0  0  0  0  0  0  0  0  0
   19.4269  -16.8880  -15.7988 C   0  0  0  0  0  0  0  0  0  0  0  0
   19.9869  -16.5464  -17.0093 C   0  0  0  0  0  0  0  0  0  0  0  0
   21.2839  -16.9304  -17.2545 C   0  0  0  0  0  0  0  0  0  0  0  0
   21.9876  -17.6287  -16.3227 C   0  0  0  0  0  0  0  0  0  0  0  0
   21.4754  -17.9983  -15.0933 C   0  0  0  0  0  0  0  0  0  0  0  0
   22.5754  -21.2182  -15.1475 C   0  0  0  0  0  0  0  0  0  0  0  0
   21.3509  -21.4643  -15.0334 O   0  0  0  0  0  0  0  0  0  0  0  0
   23.1200  -21.4118  -16.4176 O   0  0  0  0  0  0  0  0  0  0  0  0
  1  2  1  0
  3  2  1  0
  4  3  1  0
  5  6  1  1
  5  4  1  0
  7  5  1  0
  8  7  2  0
  9  7  1  0
 10  9  1  0
 10 11  1  1
 11 12  1  0
 12 13  2  0
 13 14  1  0
 15 14  2  0
 16 15  1  0
 17 12  1  0
 17 16  2  0
 18 10  1  0
 19 18  2  0
 20 18  1  0
 21 20  1  0
 21 22  1  6
 22 23  1  0
 23 31  1  0
 24 23  2  0
 24 25  1  0
 25 26  1  0
 26 27  1  0
 27 28  2  0
 29 28  1  0
 30 29  2  0
 31 26  2  0
 31 30  1  0
 32 21  1  0
 32 34  1  0
 33 32  2  0
M  END
$$$$
