MFW.pdb
     RDKit          3D

 34 36  0  0  1  0  0  0  0  0999 V2000
   30.7088  -19.5285  -21.0560 C   0  0  0  0  0  0  0  0  0  0  0  0
   29.6281  -20.3967  -19.8884 S   0  0  0  0  0  0  0  0  0  0  0  0
   28.1978  -19.3621  -19.4668 C   0  0  0  0  0  0  0  0  0  0  0  0
   27.2424  -20.1414  -18.5629 C   0  0  0  0  0  0  0  0  0  0  0  0
   28.0992  -20.8823  -17.5743 C   0  0  2  0  0  0  0  0  0  0  0  0
   28.5692  -22.0901  -18.2176 N   0  0  0  0  0  0  0  0  0  0  0  0
   27.4174  -21.1477  -16.2984 C   0  0  0  0  0  0  0  0  0  0  0  0
   26.4647  -21.9697  -16.2697 O   0  0  0  0  0  0  0  0  0  0  0  0
   27.7424  -20.5462  -15.0623 N   0  0  0  0  0  0  0  0  0  0  0  0
   27.0486  -20.7967  -13.8401 C   0  0  1  0  0  0  0  0  0  0  0  0
   27.7430  -20.4611  -12.5925 C   0  0  0  0  0  0  0  0  0  0  0  0
   26.8981  -20.5409  -11.3713 C   0  0  0  0  0  0  0  0  0  0  0  0
   26.3878  -19.3863  -10.7724 C   0  0  0  0  0  0  0  0  0  0  0  0
   25.6052  -19.4493   -9.6402 C   0  0  0  0  0  0  0  0  0  0  0  0
   25.2871  -20.6644   -9.0416 C   0  0  0  0  0  0  0  0  0  0  0  0
   25.7810  -21.8003   -9.6191 C   0  0  0  0  0  0  0  0  0  0  0  0
   26.5649  -21.7259  -10.7544 C   0  0  0  0  0  0  0  0  0  0  0  0
   25.7191  -20.1588  -13.8824 C   0  0  0  0  0  0  0  0  0  0  0  0
   25.6113  -18.9122  -14.1429 O   0  0  0  0  0  0  0  0  0  0  0  0
   24.4846  -20.8416  -13.6521 N   0  0  0  0  0  0  0  0  0  0  0  0
   23.2006  -20.1076  -13.7438 C   0  0  1  0  0  0  0  0  0  0  0  0
   23.0878  -19.6701  -15.1655 C   0  0  0  0  0  0  0  0  0  0  0  0
   21.8434  -19.0176  -15.5690 C   0  0  0  0  0  0  0  0  0  0  0  0
   21.0581  -18.1141  -14.8513 C   0  0  0  0  0  0  0  0  0  0  0  0
   19.9722  -17.7699  -15.5651 N   0  0  0  0  0  0  0  0  0  0  0  0
   20.0086  -18.4149  -16.7368 C   0  0  0  0  0  0  0  0  0  0  0  0
   19.1253  -18.3691  -17.7937 C   0  0  0  0  0  0  0  0  0  0  0  0
   19.3638  -19.1088  -18.9301 C   0  0  0  0  0  0  0  0  0  0  0  0
   20.4984  -19.8838  -18.9725 C   0  0  0  0  0  0  0  0  0  0  0  0
   21.3563  -19.9143  -17.9170 C   0  0  0  0  0  0  0  0  0  0  0  0
   21.1660  -19.1937  -16.7531 C   0  0  0  0  0  0  0  0  0  0  0  0
   22.1282  -21.0103  -13.3527 C   0  0  0  0  0  0  0  0  0  0  0  0
   22.2624  -22.2523  -13.4638 O   0  0  0  0  0  0  0  0  0  0  0  0
   20.9085  -20.5732  -12.8344 O   0  0  0  0  0  0  0  0  0  0  0  0
  1  2  1  0
  3  2  1  0
  4  3  1  0
  5  6  1  6
  5  4  1  0
  7  5  1  0
  8  7  2  0
  9  7  1  0
 10  9  1  0
 10 11  1  1
 11 12  1  0
 12 13  2  0
 13 14  1  0
 15 14  2  0
 16 15  1  0
 17 12  1  0
 17 16  2  0
 18 10  1  0
 19 18  2  0
 20 18  1  0
 21 20  1  0
 21 22  1  6
 22 23  1  0
 23 31  1  0
 24 23  2  0
 24 25  1  0
 25 26  1  0
 26 27  1  0
 27 28  2  0
 29 28  1  0
 30 29  2  0
 31 26  2  0
 31 30  1  0
 32 21  1  0
 32 34  1  0
 33 32  2  0
M  END
$$$$
