MFW.pdb
     RDKit          3D

 34 36  0  0  1  0  0  0  0  0999 V2000
   30.5688  -22.5068  -26.3807 C   0  0  0  0  0  0  0  0  0  0  0  0
   32.2564  -21.8515  -26.4665 S   0  0  0  0  0  0  0  0  0  0  0  0
   32.4478  -20.4553  -25.3229 C   0  0  0  0  0  0  0  0  0  0  0  0
   32.1246  -20.9041  -23.8977 C   0  0  0  0  0  0  0  0  0  0  0  0
   31.9826  -19.6518  -23.0779 C   0  0  2  0  0  0  0  0  0  0  0  0
   33.2919  -19.3106  -22.5653 N   0  0  0  0  0  0  0  0  0  0  0  0
   30.9696  -19.7632  -22.0173 C   0  0  0  0  0  0  0  0  0  0  0  0
   31.1898  -20.5166  -21.0334 O   0  0  0  0  0  0  0  0  0  0  0  0
   29.7325  -19.0816  -21.9999 N   0  0  0  0  0  0  0  0  0  0  0  0
   28.7874  -19.1597  -20.9327 C   0  0  1  0  0  0  0  0  0  0  0  0
   28.5417  -17.9362  -20.1620 C   0  0  0  0  0  0  0  0  0  0  0  0
   29.7576  -17.3275  -19.5600 C   0  0  0  0  0  0  0  0  0  0  0  0
   30.2395  -17.7572  -18.3209 C   0  0  0  0  0  0  0  0  0  0  0  0
   31.3643  -17.1988  -17.7539 C   0  0  0  0  0  0  0  0  0  0  0  0
   32.0716  -16.1825  -18.3884 C   0  0  0  0  0  0  0  0  0  0  0  0
   31.6090  -15.7543  -19.6011 C   0  0  0  0  0  0  0  0  0  0  0  0
   30.4800  -16.3210  -20.1608 C   0  0  0  0  0  0  0  0  0  0  0  0
   27.5185  -19.7232  -21.4316 C   0  0  0  0  0  0  0  0  0  0  0  0
   27.1636  -19.5349  -22.6449 O   0  0  0  0  0  0  0  0  0  0  0  0
   26.6115  -20.4993  -20.6454 N   0  0  0  0  0  0  0  0  0  0  0  0
   25.3688  -21.0313  -21.2524 C   0  0  1  0  0  0  0  0  0  0  0  0
   25.8119  -21.8934  -22.3863 C   0  0  0  0  0  0  0  0  0  0  0  0
   24.7768  -22.6194  -23.1202 C   0  0  0  0  0  0  0  0  0  0  0  0
   23.7639  -22.1110  -23.9349 C   0  0  0  0  0  0  0  0  0  0  0  0
   22.9955  -23.1100  -24.4027 N   0  0  0  0  0  0  0  0  0  0  0  0
   23.4643  -24.2690  -23.9262 C   0  0  0  0  0  0  0  0  0  0  0  0
   23.0153  -25.5541  -24.1413 C   0  0  0  0  0  0  0  0  0  0  0  0
   23.6627  -26.6218  -23.5610 C   0  0  0  0  0  0  0  0  0  0  0  0
   24.7575  -26.3638  -22.7706 C   0  0  0  0  0  0  0  0  0  0  0  0
   25.1829  -25.0869  -22.5717 C   0  0  0  0  0  0  0  0  0  0  0  0
   24.5712  -23.9794  -23.1280 C   0  0  0  0  0  0  0  0  0  0  0  0
   24.6457  -21.7789  -20.2345 C   0  0  0  0  0  0  0  0  0  0  0  0
   25.2439  -22.2495  -19.2377 O   0  0  0  0  0  0  0  0  0  0  0  0
   23.2715  -22.0155  -20.2880 O   0  0  0  0  0  0  0  0  0  0  0  0
  1  2  1  0
  3  2  1  0
  4  3  1  0
  5  6  1  1
  5  4  1  0
  7  5  1  0
  8  7  2  0
  9  7  1  0
 10  9  1  0
 10 11  1  6
 11 12  1  0
 12 13  2  0
 13 14  1  0
 15 14  2  0
 16 15  1  0
 17 12  1  0
 17 16  2  0
 18 10  1  0
 19 18  2  0
 20 18  1  0
 21 20  1  0
 21 22  1  6
 22 23  1  0
 23 31  1  0
 24 23  2  0
 24 25  1  0
 25 26  1  0
 26 27  1  0
 27 28  2  0
 29 28  1  0
 30 29  2  0
 31 26  2  0
 31 30  1  0
 32 21  1  0
 32 34  1  0
 33 32  2  0
M  END
$$$$
