MFW.pdb
     RDKit          3D

 34 36  0  0  1  0  0  0  0  0999 V2000
   23.0916  -26.0662  -17.6171 C   0  0  0  0  0  0  0  0  0  0  0  0
   24.3284  -26.3456  -18.9121 S   0  0  0  0  0  0  0  0  0  0  0  0
   25.9431  -26.7151  -18.1705 C   0  0  0  0  0  0  0  0  0  0  0  0
   26.1765  -25.8120  -16.9594 C   0  0  0  0  0  0  0  0  0  0  0  0
   27.3492  -24.9351  -17.3006 C   0  0  2  0  0  0  0  0  0  0  0  0
   28.5407  -25.7544  -17.2499 N   0  0  0  0  0  0  0  0  0  0  0  0
   27.4469  -23.7385  -16.4509 C   0  0  0  0  0  0  0  0  0  0  0  0
   27.8855  -23.8525  -15.2767 O   0  0  0  0  0  0  0  0  0  0  0  0
   27.0823  -22.4313  -16.8425 N   0  0  0  0  0  0  0  0  0  0  0  0
   27.1849  -21.2827  -16.0010 C   0  0  1  0  0  0  0  0  0  0  0  0
   26.9826  -19.9714  -16.6264 C   0  0  0  0  0  0  0  0  0  0  0  0
   26.8778  -18.8375  -15.6700 C   0  0  0  0  0  0  0  0  0  0  0  0
   26.6418  -17.5359  -16.1200 C   0  0  0  0  0  0  0  0  0  0  0  0
   26.5444  -16.4783  -15.2424 C   0  0  0  0  0  0  0  0  0  0  0  0
   26.6763  -16.6572  -13.8689 C   0  0  0  0  0  0  0  0  0  0  0  0
   26.9074  -17.9264  -13.4176 C   0  0  0  0  0  0  0  0  0  0  0  0
   27.0034  -18.9800  -14.3063 C   0  0  0  0  0  0  0  0  0  0  0  0
   26.3008  -21.4421  -14.8308 C   0  0  0  0  0  0  0  0  0  0  0  0
   25.0561  -21.6833  -14.9926 O   0  0  0  0  0  0  0  0  0  0  0  0
   26.7316  -21.3512  -13.4709 N   0  0  0  0  0  0  0  0  0  0  0  0
   25.7707  -21.5920  -12.3689 C   0  0  1  0  0  0  0  0  0  0  0  0
   26.5992  -21.9750  -11.1890 C   0  0  0  0  0  0  0  0  0  0  0  0
   26.6406  -21.0387  -10.0670 C   0  0  0  0  0  0  0  0  0  0  0  0
   25.6236  -20.2191   -9.5751 C   0  0  0  0  0  0  0  0  0  0  0  0
   26.0757  -19.4806   -8.5468 N   0  0  0  0  0  0  0  0  0  0  0  0
   27.3621  -19.7822   -8.3368 C   0  0  0  0  0  0  0  0  0  0  0  0
   28.2363  -19.2946   -7.3895 C   0  0  0  0  0  0  0  0  0  0  0  0
   29.5312  -19.7595   -7.3353 C   0  0  0  0  0  0  0  0  0  0  0  0
   29.9155  -20.7139   -8.2470 C   0  0  0  0  0  0  0  0  0  0  0  0
   29.0358  -21.1806   -9.1739 C   0  0  0  0  0  0  0  0  0  0  0  0
   27.7265  -20.7492   -9.2740 C   0  0  0  0  0  0  0  0  0  0  0  0
   25.0151  -20.3685  -12.1447 C   0  0  0  0  0  0  0  0  0  0  0  0
   25.5481  -19.2456  -12.3112 O   0  0  0  0  0  0  0  0  0  0  0  0
   23.6782  -20.3551  -11.7449 O   0  0  0  0  0  0  0  0  0  0  0  0
  1  2  1  0
  3  2  1  0
  4  3  1  0
  5  6  1  1
  5  4  1  0
  7  5  1  0
  8  7  2  0
  9  7  1  0
 10  9  1  0
 10 11  1  6
 11 12  1  0
 12 13  2  0
 13 14  1  0
 15 14  2  0
 16 15  1  0
 17 12  1  0
 17 16  2  0
 18 10  1  0
 19 18  2  0
 20 18  1  0
 21 20  1  0
 21 22  1  1
 22 23  1  0
 23 31  1  0
 24 23  2  0
 24 25  1  0
 25 26  1  0
 26 27  1  0
 27 28  2  0
 29 28  1  0
 30 29  2  0
 31 26  2  0
 31 30  1  0
 32 21  1  0
 32 34  1  0
 33 32  2  0
M  END
$$$$
