MFW.pdb
     RDKit          3D

 34 36  0  0  1  0  0  0  0  0999 V2000
   27.6557  -16.7539  -16.6210 C   0  0  0  0  0  0  0  0  0  0  0  0
   28.7413  -17.5192  -17.8542 S   0  0  0  0  0  0  0  0  0  0  0  0
   27.9480  -18.9885  -18.5650 C   0  0  0  0  0  0  0  0  0  0  0  0
   27.0861  -19.6762  -17.5061 C   0  0  0  0  0  0  0  0  0  0  0  0
   28.0001  -20.5925  -16.7410 C   0  0  2  0  0  0  0  0  0  0  0  0
   28.3533  -21.6910  -17.6141 N   0  0  0  0  0  0  0  0  0  0  0  0
   27.4323  -21.0446  -15.4618 C   0  0  0  0  0  0  0  0  0  0  0  0
   26.6435  -22.0253  -15.4516 O   0  0  0  0  0  0  0  0  0  0  0  0
   27.6980  -20.4614  -14.2030 N   0  0  0  0  0  0  0  0  0  0  0  0
   26.9627  -20.7484  -13.0135 C   0  0  1  0  0  0  0  0  0  0  0  0
   27.5549  -20.3273  -11.7395 C   0  0  0  0  0  0  0  0  0  0  0  0
   26.6642  -20.4845  -10.5591 C   0  0  0  0  0  0  0  0  0  0  0  0
   26.0942  -19.3723   -9.9343 C   0  0  0  0  0  0  0  0  0  0  0  0
   25.2688  -19.5071   -8.8394 C   0  0  0  0  0  0  0  0  0  0  0  0
   24.9647  -20.7556   -8.3060 C   0  0  0  0  0  0  0  0  0  0  0  0
   25.5168  -21.8506   -8.9094 C   0  0  0  0  0  0  0  0  0  0  0  0
   26.3433  -21.7043  -10.0068 C   0  0  0  0  0  0  0  0  0  0  0  0
   25.5865  -20.2328  -13.1423 C   0  0  0  0  0  0  0  0  0  0  0  0
   25.3838  -19.0099  -13.4536 O   0  0  0  0  0  0  0  0  0  0  0  0
   24.4061  -21.0145  -12.9453 N   0  0  0  0  0  0  0  0  0  0  0  0
   23.0698  -20.4076  -13.1494 C   0  0  1  0  0  0  0  0  0  0  0  0
   22.6614  -20.7893  -14.5325 C   0  0  0  0  0  0  0  0  0  0  0  0
   22.3413  -22.1954  -14.7725 C   0  0  0  0  0  0  0  0  0  0  0  0
   21.1043  -22.8364  -14.6890 C   0  0  0  0  0  0  0  0  0  0  0  0
   21.2388  -24.1471  -14.9560 N   0  0  0  0  0  0  0  0  0  0  0  0
   22.5266  -24.4006  -15.2156 C   0  0  0  0  0  0  0  0  0  0  0  0
   23.1384  -25.5886  -15.5527 C   0  0  0  0  0  0  0  0  0  0  0  0
   24.4924  -25.6264  -15.7995 C   0  0  0  0  0  0  0  0  0  0  0  0
   25.2023  -24.4535  -15.6992 C   0  0  0  0  0  0  0  0  0  0  0  0
   24.5776  -23.2922  -15.3644 C   0  0  0  0  0  0  0  0  0  0  0  0
   23.2233  -23.1969  -15.1056 C   0  0  0  0  0  0  0  0  0  0  0  0
   22.1675  -20.9359  -12.1371 C   0  0  0  0  0  0  0  0  0  0  0  0
   22.4443  -21.9913  -11.5187 O   0  0  0  0  0  0  0  0  0  0  0  0
   20.9650  -20.3213  -11.7856 O   0  0  0  0  0  0  0  0  0  0  0  0
  1  2  1  0
  3  2  1  0
  4  3  1  0
  5  6  1  6
  5  4  1  0
  7  5  1  0
  8  7  2  0
  9  7  1  0
 10  9  1  0
 10 11  1  1
 11 12  1  0
 12 13  2  0
 13 14  1  0
 15 14  2  0
 16 15  1  0
 17 12  1  0
 17 16  2  0
 18 10  1  0
 19 18  2  0
 20 18  1  0
 21 20  1  0
 21 22  1  6
 22 23  1  0
 23 31  1  0
 24 23  2  0
 24 25  1  0
 25 26  1  0
 26 27  1  0
 27 28  2  0
 29 28  1  0
 30 29  2  0
 31 26  2  0
 31 30  1  0
 32 21  1  0
 32 34  1  0
 33 32  2  0
M  END
$$$$
