ARM.pdb
     RDKit          3D

 25 24  0  0  1  0  0  0  0  0999 V2000
   25.1849  -16.4338  -21.1986 C   0  0  0  0  0  0  0  0  0  0  0  0
   24.8528  -16.1571  -19.7569 C   0  0  2  0  0  0  0  0  0  0  0  0
   26.0425  -15.6023  -19.1405 N   0  0  0  0  0  0  0  0  0  0  0  0
   24.4350  -17.3214  -18.9949 C   0  0  0  0  0  0  0  0  0  0  0  0
   23.2985  -17.8237  -19.1821 O   0  0  0  0  0  0  0  0  0  0  0  0
   28.7868  -23.7813  -16.2730 N   0  0  0  0  0  0  0  0  0  0  0  0
   29.1484  -23.1556  -17.4796 C   0  0  0  0  0  0  0  0  0  0  0  0
   29.6280  -23.8295  -18.4752 N   0  0  0  0  0  0  0  0  0  0  0  0
   28.9692  -21.7450  -17.5748 N   0  0  0  0  0  0  0  0  0  0  0  0
   28.0304  -21.0746  -16.6995 C   0  0  0  0  0  0  0  0  0  0  0  0
   26.8718  -20.5196  -17.5034 C   0  0  0  0  0  0  0  0  0  0  0  0
   26.0046  -19.7433  -16.5285 C   0  0  0  0  0  0  0  0  0  0  0  0
   24.8176  -19.1286  -17.2806 C   0  0  2  0  0  0  0  0  0  0  0  0
   25.2425  -17.9664  -18.0121 N   0  0  0  0  0  0  0  0  0  0  0  0
   23.8323  -18.6986  -16.2548 C   0  0  0  0  0  0  0  0  0  0  0  0
   23.9276  -17.6347  -15.5916 O   0  0  0  0  0  0  0  0  0  0  0  0
   29.9588  -23.3714  -19.3350 C   0  0  0  0  0  0  0  0  0  0  0  0
   20.0475  -15.6107  -17.2789 S   0  0  0  0  0  0  0  0  0  0  0  0
   19.1773  -15.9293  -15.7152 C   0  0  0  0  0  0  0  0  0  0  0  0
   19.8881  -17.3924  -14.8876 C   0  0  0  0  0  0  0  0  0  0  0  0
   21.0964  -17.8346  -15.6616 C   0  0  1  0  0  0  0  0  0  0  0  0
   21.6505  -19.1218  -15.1089 N   0  0  0  0  0  0  0  0  0  0  0  0
   22.7250  -19.5585  -16.0278 C   0  0  0  0  0  0  0  0  0  0  0  0
   20.6504  -20.1997  -14.9697 O   0  0  0  0  0  0  0  0  0  0  0  0
   20.7265  -21.3563  -15.7744 O   0  0  0  0  0  0  0  0  0  0  0  0
  2  1  1  6
  3  2  1  0
  4  5  2  0
  4  2  1  0
  6  7  1  0
  7  9  1  0
  8  7  2  0
  9 10  1  0
 10 11  1  0
 11 12  1  0
 13 12  1  1
 13 14  1  0
 14  4  1  0
 15 22  1  0
 15 13  1  0
 16 15  2  0
 18 17  1  0
 18 19  1  0
 19 20  1  0
 21 20  1  1
 21 22  1  0
 21 23  1  0
 23 25  2  0
 23 24  1  0
M  END
$$$$
