ARM.pdb
     RDKit          3D

 25 24  0  0  1  0  0  0  0  0999 V2000
   28.7673  -21.0359  -16.8921 C   0  0  0  0  0  0  0  0  0  0  0  0
   28.4968  -21.6023  -15.5240 C   0  0  2  0  0  0  0  0  0  0  0  0
   27.6866  -22.7915  -15.7037 N   0  0  0  0  0  0  0  0  0  0  0  0
   27.8045  -20.7012  -14.6188 C   0  0  0  0  0  0  0  0  0  0  0  0
   28.3344  -19.6120  -14.2846 O   0  0  0  0  0  0  0  0  0  0  0  0
   21.4579  -23.1771  -13.9191 N   0  0  0  0  0  0  0  0  0  0  0  0
   20.7899  -22.5501  -12.8520 C   0  0  0  0  0  0  0  0  0  0  0  0
   19.9176  -23.1817  -12.1339 N   0  0  0  0  0  0  0  0  0  0  0  0
   21.1045  -21.1866  -12.5820 N   0  0  0  0  0  0  0  0  0  0  0  0
   22.0930  -20.4996  -13.3869 C   0  0  0  0  0  0  0  0  0  0  0  0
   23.4745  -20.6932  -12.7947 C   0  0  0  0  0  0  0  0  0  0  0  0
   24.4160  -19.8199  -13.6048 C   0  0  0  0  0  0  0  0  0  0  0  0
   25.8591  -20.0663  -13.1477 C   0  0  2  0  0  0  0  0  0  0  0  0
   26.5204  -20.9630  -14.0560 N   0  0  0  0  0  0  0  0  0  0  0  0
   25.7844  -20.7231  -11.8169 C   0  0  0  0  0  0  0  0  0  0  0  0
   25.6023  -21.9561  -11.6511 O   0  0  0  0  0  0  0  0  0  0  0  0
   19.4953  -22.7622  -11.2947 C   0  0  0  0  0  0  0  0  0  0  0  0
   28.8623  -20.0606   -4.6944 S   0  0  0  0  0  0  0  0  0  0  0  0
   28.5700  -19.3749   -6.3522 C   0  0  0  0  0  0  0  0  0  0  0  0
   27.2378  -20.3002   -7.1887 C   0  0  0  0  0  0  0  0  0  0  0  0
   27.1192  -19.7918   -8.5967 C   0  0  1  0  0  0  0  0  0  0  0  0
   26.0172  -20.5038   -9.3369 N   0  0  0  0  0  0  0  0  0  0  0  0
   25.9301  -19.8861  -10.6787 C   0  0  0  0  0  0  0  0  0  0  0  0
   24.6996  -20.4328   -8.6733 O   0  0  0  0  0  0  0  0  0  0  0  0
   24.4023  -21.2718   -7.5785 O   0  0  0  0  0  0  0  0  0  0  0  0
  2  1  1  6
  3  2  1  0
  4  5  2  0
  4  2  1  0
  6  7  1  0
  7  9  1  0
  8  7  2  0
  9 10  1  0
 10 11  1  0
 11 12  1  0
 13 12  1  6
 13 14  1  0
 14  4  1  0
 15 22  1  0
 15 13  1  0
 16 15  2  0
 18 17  1  0
 18 19  1  0
 19 20  1  0
 21 20  1  6
 21 22  1  0
 21 23  1  0
 23 25  2  0
 23 24  1  0
M  END
$$$$
