ARM.pdb
     RDKit          3D

 25 24  0  0  1  0  0  0  0  0999 V2000
   26.9846  -17.3806  -18.6129 C   0  0  0  0  0  0  0  0  0  0  0  0
   27.5192  -18.4981  -17.7581 C   0  0  2  0  0  0  0  0  0  0  0  0
   28.2269  -19.4100  -18.6359 N   0  0  0  0  0  0  0  0  0  0  0  0
   26.5072  -19.2452  -17.0310 C   0  0  0  0  0  0  0  0  0  0  0  0
   25.6677  -19.9421  -17.6544 O   0  0  0  0  0  0  0  0  0  0  0  0
   26.3736  -19.6381   -9.3264 N   0  0  0  0  0  0  0  0  0  0  0  0
   25.4336  -20.5545   -9.8311 C   0  0  0  0  0  0  0  0  0  0  0  0
   24.2925  -20.7439   -9.2501 N   0  0  0  0  0  0  0  0  0  0  0  0
   25.7773  -21.2747  -11.0117 N   0  0  0  0  0  0  0  0  0  0  0  0
   27.0192  -20.9868  -11.6986 C   0  0  0  0  0  0  0  0  0  0  0  0
   26.7875  -20.9315  -13.1952 C   0  0  0  0  0  0  0  0  0  0  0  0
   25.6206  -19.9854  -13.4152 C   0  0  0  0  0  0  0  0  0  0  0  0
   25.3077  -19.9026  -14.9144 C   0  0  2  0  0  0  0  0  0  0  0  0
   26.3843  -19.2521  -15.6102 N   0  0  0  0  0  0  0  0  0  0  0  0
   24.0887  -19.0646  -15.0554 C   0  0  0  0  0  0  0  0  0  0  0  0
   24.1085  -17.8286  -15.2850 O   0  0  0  0  0  0  0  0  0  0  0  0
   23.5757  -21.3667   -9.6459 C   0  0  0  0  0  0  0  0  0  0  0  0
   19.3115  -19.1772  -19.4908 S   0  0  0  0  0  0  0  0  0  0  0  0
   20.4052  -17.8348  -18.9377 C   0  0  0  0  0  0  0  0  0  0  0  0
   20.4835  -17.7992  -17.1148 C   0  0  0  0  0  0  0  0  0  0  0  0
   21.7143  -18.5407  -16.6785 C   0  0  1  0  0  0  0  0  0  0  0  0
   21.5965  -18.9858  -15.2442 N   0  0  0  0  0  0  0  0  0  0  0  0
   22.8376  -19.7228  -14.9182 C   0  0  0  0  0  0  0  0  0  0  0  0
   20.4258  -19.8442  -14.9720 O   0  0  0  0  0  0  0  0  0  0  0  0
   19.1831  -19.2728  -14.6255 O   0  0  0  0  0  0  0  0  0  0  0  0
  2  1  1  6
  3  2  1  0
  4  5  2  0
  4  2  1  0
  6  7  1  0
  7  9  1  0
  8  7  2  0
  9 10  1  0
 10 11  1  0
 11 12  1  0
 13 12  1  1
 13 14  1  0
 14  4  1  0
 15 22  1  0
 15 13  1  0
 16 15  2  0
 18 17  1  0
 18 19  1  0
 19 20  1  0
 21 20  1  1
 21 22  1  0
 21 23  1  0
 23 25  2  0
 23 24  1  0
M  END
$$$$
