ARM.pdb
     RDKit          3D

 25 24  0  0  1  0  0  0  0  0999 V2000
   29.2883  -21.8167  -15.3931 C   0  0  0  0  0  0  0  0  0  0  0  0
   27.8688  -21.5366  -15.8081 C   0  0  2  0  0  0  0  0  0  0  0  0
   27.9238  -20.7731  -17.0397 N   0  0  0  0  0  0  0  0  0  0  0  0
   27.0864  -20.7933  -14.8355 C   0  0  0  0  0  0  0  0  0  0  0  0
   27.0149  -19.5407  -14.9074 O   0  0  0  0  0  0  0  0  0  0  0  0
   20.2379  -20.6679  -10.4963 N   0  0  0  0  0  0  0  0  0  0  0  0
   20.0977  -19.5288  -11.3092 C   0  0  0  0  0  0  0  0  0  0  0  0
   19.4146  -18.4998  -10.9218 N   0  0  0  0  0  0  0  0  0  0  0  0
   20.7360  -19.5406  -12.5833 N   0  0  0  0  0  0  0  0  0  0  0  0
   21.6343  -20.6215  -12.9320 C   0  0  0  0  0  0  0  0  0  0  0  0
   23.0253  -20.3358  -12.4025 C   0  0  0  0  0  0  0  0  0  0  0  0
   23.9978  -20.9299  -13.4057 C   0  0  0  0  0  0  0  0  0  0  0  0
   25.4349  -20.6726  -12.9356 C   0  0  2  0  0  0  0  0  0  0  0  0
   26.3635  -21.3937  -13.7627 N   0  0  0  0  0  0  0  0  0  0  0  0
   25.5373  -21.2012  -11.5506 C   0  0  0  0  0  0  0  0  0  0  0  0
   25.2587  -22.3840  -11.2277 O   0  0  0  0  0  0  0  0  0  0  0  0
   19.3310  -17.6520  -11.4987 C   0  0  0  0  0  0  0  0  0  0  0  0
   29.2267  -19.8080   -4.8410 S   0  0  0  0  0  0  0  0  0  0  0  0
   28.3735  -19.0756   -6.2692 C   0  0  0  0  0  0  0  0  0  0  0  0
   27.4277  -20.3569   -7.1605 C   0  0  0  0  0  0  0  0  0  0  0  0
   26.7912  -19.7247   -8.3647 C   0  0  2  0  0  0  0  0  0  0  0  0
   25.9746  -20.7299   -9.1342 N   0  0  0  0  0  0  0  0  0  0  0  0
   25.9788  -20.2963  -10.5490 C   0  0  0  0  0  0  0  0  0  0  0  0
   24.5816  -20.8649   -8.6624 O   0  0  0  0  0  0  0  0  0  0  0  0
   24.2716  -21.7099   -7.5756 O   0  0  0  0  0  0  0  0  0  0  0  0
  2  1  1  1
  3  2  1  0
  4  5  2  0
  4  2  1  0
  6  7  1  0
  7  9  1  0
  8  7  2  0
  9 10  1  0
 10 11  1  0
 11 12  1  0
 13 12  1  6
 13 14  1  0
 14  4  1  0
 15 22  1  0
 15 13  1  0
 16 15  2  0
 18 17  1  0
 18 19  1  0
 19 20  1  0
 21 20  1  6
 21 22  1  0
 21 23  1  0
 23 25  2  0
 23 24  1  0
M  END
$$$$
