ARM.pdb
     RDKit          3D

 25 24  0  0  1  0  0  0  0  0999 V2000
   20.0145  -19.5921  -11.7340 C   0  0  0  0  0  0  0  0  0  0  0  0
   19.8404  -19.5215  -13.2274 C   0  0  2  0  0  0  0  0  0  0  0  0
   19.7430  -20.8842  -13.7138 N   0  0  0  0  0  0  0  0  0  0  0  0
   20.9189  -18.8522  -13.9344 C   0  0  0  0  0  0  0  0  0  0  0  0
   21.2208  -17.6664  -13.6484 O   0  0  0  0  0  0  0  0  0  0  0  0
   28.5301  -20.6962  -17.0080 N   0  0  0  0  0  0  0  0  0  0  0  0
   27.5818  -21.2819  -16.1503 C   0  0  0  0  0  0  0  0  0  0  0  0
   27.9333  -22.0917  -15.2035 N   0  0  0  0  0  0  0  0  0  0  0  0
   26.2101  -20.9545  -16.3557 N   0  0  0  0  0  0  0  0  0  0  0  0
   25.8296  -20.0905  -17.4538 C   0  0  0  0  0  0  0  0  0  0  0  0
   24.8482  -19.0395  -16.9754 C   0  0  0  0  0  0  0  0  0  0  0  0
   23.7808  -19.7757  -16.1855 C   0  0  0  0  0  0  0  0  0  0  0  0
   22.7436  -18.7699  -15.6707 C   0  0  2  0  0  0  0  0  0  0  0  0
   21.6939  -19.4560  -14.9681 N   0  0  0  0  0  0  0  0  0  0  0  0
   22.1518  -18.1110  -16.8639 C   0  0  0  0  0  0  0  0  0  0  0  0
   21.4878  -18.7160  -17.7436 O   0  0  0  0  0  0  0  0  0  0  0  0
   27.2425  -22.5586  -14.6008 C   0  0  0  0  0  0  0  0  0  0  0  0
   19.9924  -12.3224  -16.4623 S   0  0  0  0  0  0  0  0  0  0  0  0
   20.2862  -12.2339  -18.2538 C   0  0  0  0  0  0  0  0  0  0  0  0
   20.8240  -13.8603  -18.8833 C   0  0  0  0  0  0  0  0  0  0  0  0
   21.3516  -14.6643  -17.7299 C   0  0  1  0  0  0  0  0  0  0  0  0
   21.8361  -16.0145  -18.1897 N   0  0  0  0  0  0  0  0  0  0  0  0
   22.3630  -16.7128  -16.9962 C   0  0  0  0  0  0  0  0  0  0  0  0
   22.8814  -15.9588  -19.2317 O   0  0  0  0  0  0  0  0  0  0  0  0
   22.5313  -15.9555  -20.5986 O   0  0  0  0  0  0  0  0  0  0  0  0
  2  1  1  1
  3  2  1  0
  4  5  2  0
  4  2  1  0
  6  7  1  0
  7  9  1  0
  8  7  2  0
  9 10  1  0
 10 11  1  0
 11 12  1  0
 13 12  1  6
 13 14  1  0
 14  4  1  0
 15 22  1  0
 15 13  1  0
 16 15  2  0
 18 17  1  0
 18 19  1  0
 19 20  1  0
 21 20  1  1
 21 22  1  0
 21 23  1  0
 23 25  2  0
 23 24  1  0
M  END
$$$$
