ARM.pdb
     RDKit          3D

 25 24  0  0  1  0  0  0  0  0999 V2000
   24.5930  -19.5077  -19.4299 C   0  0  0  0  0  0  0  0  0  0  0  0
   24.2655  -18.5711  -18.2981 C   0  0  2  0  0  0  0  0  0  0  0  0
   25.4842  -18.3736  -17.5373 N   0  0  0  0  0  0  0  0  0  0  0  0
   23.2279  -19.0443  -17.3981 C   0  0  0  0  0  0  0  0  0  0  0  0
   22.2450  -19.6845  -17.8489 O   0  0  0  0  0  0  0  0  0  0  0  0
   23.2067  -24.4913  -14.1219 N   0  0  0  0  0  0  0  0  0  0  0  0
   24.4340  -23.8222  -13.9665 C   0  0  0  0  0  0  0  0  0  0  0  0
   25.5166  -24.2525  -14.5307 N   0  0  0  0  0  0  0  0  0  0  0  0
   24.4508  -22.6457  -13.1625 N   0  0  0  0  0  0  0  0  0  0  0  0
   23.2049  -22.0498  -12.7268 C   0  0  0  0  0  0  0  0  0  0  0  0
   22.4779  -21.4379  -13.9074 C   0  0  0  0  0  0  0  0  0  0  0  0
   22.7745  -19.9494  -13.8708 C   0  0  0  0  0  0  0  0  0  0  0  0
   22.1817  -19.2811  -15.1175 C   0  0  2  0  0  0  0  0  0  0  0  0
   23.2345  -18.8329  -15.9876 N   0  0  0  0  0  0  0  0  0  0  0  0
   21.4249  -18.0905  -14.6508 C   0  0  0  0  0  0  0  0  0  0  0  0
   21.9457  -17.1213  -14.0422 O   0  0  0  0  0  0  0  0  0  0  0  0
   26.4012  -23.7293  -14.4836 C   0  0  0  0  0  0  0  0  0  0  0  0
   18.9713  -13.2563  -18.3958 S   0  0  0  0  0  0  0  0  0  0  0  0
   18.1414  -14.6594  -17.5917 C   0  0  0  0  0  0  0  0  0  0  0  0
   19.1826  -15.3170  -16.2448 C   0  0  0  0  0  0  0  0  0  0  0  0
   18.4200  -16.4039  -15.5435 C   0  0  2  0  0  0  0  0  0  0  0  0
   19.2107  -16.9589  -14.3876 N   0  0  0  0  0  0  0  0  0  0  0  0
   20.0306  -18.0697  -14.9200 C   0  0  0  0  0  0  0  0  0  0  0  0
   18.3813  -17.4490  -13.2680 O   0  0  0  0  0  0  0  0  0  0  0  0
   17.8278  -16.5449  -12.3368 O   0  0  0  0  0  0  0  0  0  0  0  0
  2  1  1  6
  3  2  1  0
  4  5  2  0
  4  2  1  0
  6  7  1  0
  7  9  1  0
  8  7  2  0
  9 10  1  0
 10 11  1  0
 11 12  1  0
 13 12  1  1
 13 14  1  0
 14  4  1  0
 15 22  1  0
 15 13  1  0
 16 15  2  0
 18 17  1  0
 18 19  1  0
 19 20  1  0
 21 20  1  6
 21 22  1  0
 21 23  1  0
 23 25  2  0
 23 24  1  0
M  END
$$$$
