ARM.pdb
     RDKit          3D

 25 24  0  0  1  0  0  0  0  0999 V2000
   17.2989  -28.0647   -2.6661 C   0  0  0  0  0  0  0  0  0  0  0  0
   18.4819  -27.4603   -3.3736 C   0  0  2  0  0  0  0  0  0  0  0  0
   19.3717  -26.9384   -2.3544 N   0  0  0  0  0  0  0  0  0  0  0  0
   18.1550  -26.3880   -4.2978 C   0  0  0  0  0  0  0  0  0  0  0  0
   18.1268  -25.1970   -3.8982 O   0  0  0  0  0  0  0  0  0  0  0  0
   20.8648  -27.8727  -11.5596 N   0  0  0  0  0  0  0  0  0  0  0  0
   19.8898  -28.4488  -10.7257 C   0  0  0  0  0  0  0  0  0  0  0  0
   19.8383  -29.7267  -10.5259 N   0  0  0  0  0  0  0  0  0  0  0  0
   18.9517  -27.5765  -10.1012 N   0  0  0  0  0  0  0  0  0  0  0  0
   19.2889  -26.1842   -9.8896 C   0  0  0  0  0  0  0  0  0  0  0  0
   19.2008  -25.8438   -8.4155 C   0  0  0  0  0  0  0  0  0  0  0  0
   17.7370  -25.9682   -8.0321 C   0  0  0  0  0  0  0  0  0  0  0  0
   17.5499  -25.5087   -6.5808 C   0  0  2  0  0  0  0  0  0  0  0  0
   17.8512  -26.5853   -5.6772 N   0  0  0  0  0  0  0  0  0  0  0  0
   16.1155  -25.1548   -6.4214 C   0  0  0  0  0  0  0  0  0  0  0  0
   15.2016  -25.9964   -6.2281 O   0  0  0  0  0  0  0  0  0  0  0  0
   19.0856  -30.1630   -9.9767 C   0  0  0  0  0  0  0  0  0  0  0  0
   10.6670  -21.4706   -2.8957 S   0  0  0  0  0  0  0  0  0  0  0  0
   12.3938  -21.9815   -3.1423 C   0  0  0  0  0  0  0  0  0  0  0  0
   12.6758  -22.4189   -4.8916 C   0  0  0  0  0  0  0  0  0  0  0  0
   14.0967  -22.8808   -5.0418 C   0  0  1  0  0  0  0  0  0  0  0  0
   14.3587  -23.3755   -6.4403 N   0  0  0  0  0  0  0  0  0  0  0  0
   15.7821  -23.7763   -6.4962 C   0  0  0  0  0  0  0  0  0  0  0  0
   14.0838  -22.3789   -7.4952 O   0  0  0  0  0  0  0  0  0  0  0  0
   12.7598  -22.1185   -7.9077 O   0  0  0  0  0  0  0  0  0  0  0  0
  2  1  1  1
  3  2  1  0
  4  5  2  0
  4  2  1  0
  6  7  1  0
  7  9  1  0
  8  7  2  0
  9 10  1  0
 10 11  1  0
 11 12  1  0
 13 12  1  6
 13 14  1  0
 14  4  1  0
 15 22  1  0
 15 13  1  0
 16 15  2  0
 18 17  1  0
 18 19  1  0
 19 20  1  0
 21 20  1  1
 21 22  1  0
 21 23  1  0
 23 25  2  0
 23 24  1  0
M  END
$$$$
