ARM.pdb
     RDKit          3D

 25 24  0  0  1  0  0  0  0  0999 V2000
   19.6451  -21.0048  -16.4342 C   0  0  0  0  0  0  0  0  0  0  0  0
   20.5040  -20.0283  -15.6764 C   0  0  2  0  0  0  0  0  0  0  0  0
   20.7216  -18.8854  -16.5420 N   0  0  0  0  0  0  0  0  0  0  0  0
   21.7953  -20.5489  -15.2613 C   0  0  0  0  0  0  0  0  0  0  0  0
   21.8587  -21.5035  -14.4465 O   0  0  0  0  0  0  0  0  0  0  0  0
   29.0069  -21.9906  -15.4502 N   0  0  0  0  0  0  0  0  0  0  0  0
   29.0926  -22.3431  -16.8090 C   0  0  0  0  0  0  0  0  0  0  0  0
   29.7166  -23.4098  -17.1943 N   0  0  0  0  0  0  0  0  0  0  0  0
   28.4664  -21.4838  -17.7579 N   0  0  0  0  0  0  0  0  0  0  0  0
   27.5322  -20.4718  -17.3108 C   0  0  0  0  0  0  0  0  0  0  0  0
   26.4375  -21.1044  -16.4751 C   0  0  0  0  0  0  0  0  0  0  0  0
   25.4440  -20.0003  -16.1607 C   0  0  0  0  0  0  0  0  0  0  0  0
   24.3153  -20.5640  -15.2885 C   0  0  2  0  0  0  0  0  0  0  0  0
   23.0471  -20.0443  -15.7220 N   0  0  0  0  0  0  0  0  0  0  0  0
   24.5632  -20.0902  -13.9021 C   0  0  0  0  0  0  0  0  0  0  0  0
   24.2133  -18.9617  -13.4722 O   0  0  0  0  0  0  0  0  0  0  0  0
   29.8583  -23.6293  -18.1894 C   0  0  0  0  0  0  0  0  0  0  0  0
   21.2159  -19.1425  -10.2559 S   0  0  0  0  0  0  0  0  0  0  0  0
   22.1713  -20.1159   -9.0544 C   0  0  0  0  0  0  0  0  0  0  0  0
   23.9074  -20.2572   -9.5991 C   0  0  0  0  0  0  0  0  0  0  0  0
   23.9204  -20.5303  -11.0756 C   0  0  1  0  0  0  0  0  0  0  0  0
   25.3310  -20.6528  -11.5898 N   0  0  0  0  0  0  0  0  0  0  0  0
   25.2381  -20.9842  -13.0289 C   0  0  0  0  0  0  0  0  0  0  0  0
   26.1397  -21.6768  -10.8977 O   0  0  0  0  0  0  0  0  0  0  0  0
   26.2175  -22.9915  -11.4042 O   0  0  0  0  0  0  0  0  0  0  0  0
  2  1  1  6
  3  2  1  0
  4  5  2  0
  4  2  1  0
  6  7  1  0
  7  9  1  0
  8  7  2  0
  9 10  1  0
 10 11  1  0
 11 12  1  0
 13 12  1  6
 13 14  1  0
 14  4  1  0
 15 22  1  0
 15 13  1  0
 16 15  2  0
 18 17  1  0
 18 19  1  0
 19 20  1  0
 21 20  1  6
 21 22  1  0
 21 23  1  0
 23 25  2  0
 23 24  1  0
M  END
$$$$
