ARM.pdb
     RDKit          3D

 25 24  0  0  1  0  0  0  0  0999 V2000
   14.7535  -25.5728    5.3755 C   0  0  0  0  0  0  0  0  0  0  0  0
   15.3557  -25.6093    3.9966 C   0  0  2  0  0  0  0  0  0  0  0  0
   16.7094  -26.1114    4.1319 N   0  0  0  0  0  0  0  0  0  0  0  0
   15.4025  -24.3249    3.3193 C   0  0  0  0  0  0  0  0  0  0  0  0
   16.3808  -23.5555    3.4920 O   0  0  0  0  0  0  0  0  0  0  0  0
   10.3522  -20.5307   -2.9117 N   0  0  0  0  0  0  0  0  0  0  0  0
   11.3889  -19.5936   -2.7527 C   0  0  0  0  0  0  0  0  0  0  0  0
   11.4268  -18.5009   -3.4456 N   0  0  0  0  0  0  0  0  0  0  0  0
   12.4055  -19.8848   -1.7973 N   0  0  0  0  0  0  0  0  0  0  0  0
   12.3563  -21.1199   -1.0429 C   0  0  0  0  0  0  0  0  0  0  0  0
   13.4447  -21.1314    0.0115 C   0  0  0  0  0  0  0  0  0  0  0  0
   13.3461  -22.4722    0.7169 C   0  0  0  0  0  0  0  0  0  0  0  0
   14.4574  -22.5772    1.7689 C   0  0  2  0  0  0  0  0  0  0  0  0
   14.3874  -23.8471    2.4388 N   0  0  0  0  0  0  0  0  0  0  0  0
   14.2066  -21.5082    2.7701 C   0  0  0  0  0  0  0  0  0  0  0  0
   13.4720  -21.6503    3.7805 O   0  0  0  0  0  0  0  0  0  0  0  0
   12.1451  -17.7810   -3.2899 C   0  0  0  0  0  0  0  0  0  0  0  0
   16.5267  -21.3334    7.0840 S   0  0  0  0  0  0  0  0  0  0  0  0
   15.9950  -19.6398    7.4750 C   0  0  0  0  0  0  0  0  0  0  0  0
   15.3558  -18.8200    5.9750 C   0  0  0  0  0  0  0  0  0  0  0  0
   15.3173  -19.8287    4.8632 C   0  0  1  0  0  0  0  0  0  0  0  0
   14.7728  -19.2178    3.5985 N   0  0  0  0  0  0  0  0  0  0  0  0
   14.8465  -20.2595    2.5501 C   0  0  0  0  0  0  0  0  0  0  0  0
   15.4975  -18.0118    3.1492 O   0  0  0  0  0  0  0  0  0  0  0  0
   16.2065  -18.0146    1.9293 O   0  0  0  0  0  0  0  0  0  0  0  0
  2  1  1  1
  3  2  1  0
  4  5  2  0
  4  2  1  0
  6  7  1  0
  7  9  1  0
  8  7  2  0
  9 10  1  0
 10 11  1  0
 11 12  1  0
 13 12  1  6
 13 14  1  0
 14  4  1  0
 15 22  1  0
 15 13  1  0
 16 15  2  0
 18 17  1  0
 18 19  1  0
 19 20  1  0
 21 20  1  1
 21 22  1  0
 21 23  1  0
 23 25  2  0
 23 24  1  0
M  END
$$$$
