ARM.pdb
     RDKit          3D

 25 24  0  0  1  0  0  0  0  0999 V2000
   24.3908  -12.9764  -15.6340 C   0  0  0  0  0  0  0  0  0  0  0  0
   25.5325  -13.9064  -15.9455 C   0  0  2  0  0  0  0  0  0  0  0  0
   26.1248  -13.4578  -17.1909 N   0  0  0  0  0  0  0  0  0  0  0  0
   25.1582  -15.3031  -16.0861 C   0  0  0  0  0  0  0  0  0  0  0  0
   24.6186  -15.7083  -17.1461 O   0  0  0  0  0  0  0  0  0  0  0  0
   26.6064  -20.6707  -10.7385 N   0  0  0  0  0  0  0  0  0  0  0  0
   26.1736  -21.3224  -11.9073 C   0  0  0  0  0  0  0  0  0  0  0  0
   25.3446  -22.3156  -11.8620 N   0  0  0  0  0  0  0  0  0  0  0  0
   26.6787  -20.8528  -13.1544 N   0  0  0  0  0  0  0  0  0  0  0  0
   27.4748  -19.6441  -13.2030 C   0  0  0  0  0  0  0  0  0  0  0  0
   26.9914  -18.7451  -14.3232 C   0  0  0  0  0  0  0  0  0  0  0  0
   25.5122  -18.5079  -14.0763 C   0  0  0  0  0  0  0  0  0  0  0  0
   24.9358  -17.6576  -15.2152 C   0  0  2  0  0  0  0  0  0  0  0  0
   25.3616  -16.2915  -15.0782 N   0  0  0  0  0  0  0  0  0  0  0  0
   23.4566  -17.7000  -15.0797 C   0  0  0  0  0  0  0  0  0  0  0  0
   22.8079  -17.0201  -14.2444 O   0  0  0  0  0  0  0  0  0  0  0  0
   25.0931  -22.8548  -12.7013 C   0  0  0  0  0  0  0  0  0  0  0  0
   19.4222  -17.9202  -19.9068 S   0  0  0  0  0  0  0  0  0  0  0  0
   18.6145  -19.1709  -18.8641 C   0  0  0  0  0  0  0  0  0  0  0  0
   19.2342  -19.0560  -17.1513 C   0  0  0  0  0  0  0  0  0  0  0  0
   20.7214  -18.8541  -17.1977 C   0  0  1  0  0  0  0  0  0  0  0  0
   21.2909  -18.7142  -15.8101 N   0  0  0  0  0  0  0  0  0  0  0  0
   22.7560  -18.5687  -15.9580 C   0  0  0  0  0  0  0  0  0  0  0  0
   20.9947  -19.8533  -14.9177 O   0  0  0  0  0  0  0  0  0  0  0  0
   19.7681  -19.9198  -14.2235 O   0  0  0  0  0  0  0  0  0  0  0  0
  2  1  1  6
  3  2  1  0
  4  5  2  0
  4  2  1  0
  6  7  1  0
  7  9  1  0
  8  7  2  0
  9 10  1  0
 10 11  1  0
 11 12  1  0
 13 12  1  1
 13 14  1  0
 14  4  1  0
 15 22  1  0
 15 13  1  0
 16 15  2  0
 18 17  1  0
 18 19  1  0
 19 20  1  0
 21 20  1  6
 21 22  1  0
 21 23  1  0
 23 25  2  0
 23 24  1  0
M  END
$$$$
