ARM.pdb
     RDKit          3D

 25 24  0  0  1  0  0  0  0  0999 V2000
   23.6168  -18.6748  -17.9898 C   0  0  0  0  0  0  0  0  0  0  0  0
   23.9371  -19.5018  -16.7737 C   0  0  2  0  0  0  0  0  0  0  0  0
   24.5299  -20.7404  -17.2402 N   0  0  0  0  0  0  0  0  0  0  0  0
   22.7933  -19.8209  -15.9367 C   0  0  0  0  0  0  0  0  0  0  0  0
   22.0949  -20.8363  -16.1825 O   0  0  0  0  0  0  0  0  0  0  0  0
   19.5500  -21.3173   -9.9509 N   0  0  0  0  0  0  0  0  0  0  0  0
   20.8225  -20.9621   -9.4685 C   0  0  0  0  0  0  0  0  0  0  0  0
   21.5556  -21.8007   -8.8090 N   0  0  0  0  0  0  0  0  0  0  0  0
   21.2854  -19.6398   -9.7296 N   0  0  0  0  0  0  0  0  0  0  0  0
   20.4128  -18.6831  -10.3780 C   0  0  0  0  0  0  0  0  0  0  0  0
   20.1285  -19.1172  -11.8019 C   0  0  0  0  0  0  0  0  0  0  0  0
   21.3858  -18.8230  -12.6005 C   0  0  0  0  0  0  0  0  0  0  0  0
   21.2126  -19.3429  -14.0330 C   0  0  2  0  0  0  0  0  0  0  0  0
   22.3821  -19.0442  -14.8135 N   0  0  0  0  0  0  0  0  0  0  0  0
   20.0607  -18.6115  -14.6215 C   0  0  0  0  0  0  0  0  0  0  0  0
   20.0551  -17.3746  -14.8471 O   0  0  0  0  0  0  0  0  0  0  0  0
   22.4350  -21.5177   -8.3562 C   0  0  0  0  0  0  0  0  0  0  0  0
   13.5694  -19.6569  -18.9225 S   0  0  0  0  0  0  0  0  0  0  0  0
   14.9504  -20.3772  -17.9854 C   0  0  0  0  0  0  0  0  0  0  0  0
   15.8314  -19.0724  -17.0624 C   0  0  0  0  0  0  0  0  0  0  0  0
   17.0397  -19.6839  -16.4137 C   0  0  2  0  0  0  0  0  0  0  0  0
   17.7229  -18.6958  -15.5048 N   0  0  0  0  0  0  0  0  0  0  0  0
   18.9081  -19.3780  -14.9396 C   0  0  0  0  0  0  0  0  0  0  0  0
   16.8707  -18.1946  -14.4075 O   0  0  0  0  0  0  0  0  0  0  0  0
   16.0389  -17.0715  -14.6018 O   0  0  0  0  0  0  0  0  0  0  0  0
  2  1  1  6
  3  2  1  0
  4  5  2  0
  4  2  1  0
  6  7  1  0
  7  9  1  0
  8  7  2  0
  9 10  1  0
 10 11  1  0
 11 12  1  0
 13 12  1  1
 13 14  1  0
 14  4  1  0
 15 22  1  0
 15 13  1  0
 16 15  2  0
 18 17  1  0
 18 19  1  0
 19 20  1  0
 21 20  1  6
 21 22  1  0
 21 23  1  0
 23 25  2  0
 23 24  1  0
M  END
$$$$
