ARM.pdb
     RDKit          3D

 25 24  0  0  1  0  0  0  0  0999 V2000
   29.2090  -21.1196  -14.7800 C   0  0  0  0  0  0  0  0  0  0  0  0
   27.7522  -20.9166  -15.0992 C   0  0  2  0  0  0  0  0  0  0  0  0
   27.6816  -19.9998  -16.2206 N   0  0  0  0  0  0  0  0  0  0  0  0
   26.9599  -20.3768  -14.0077 C   0  0  0  0  0  0  0  0  0  0  0  0
   27.1634  -19.2062  -13.5988 O   0  0  0  0  0  0  0  0  0  0  0  0
   20.4387  -18.4450  -14.0799 N   0  0  0  0  0  0  0  0  0  0  0  0
   20.5658  -19.2569  -15.2212 C   0  0  0  0  0  0  0  0  0  0  0  0
   20.1841  -18.8491  -16.3889 N   0  0  0  0  0  0  0  0  0  0  0  0
   21.1328  -20.5535  -15.0530 N   0  0  0  0  0  0  0  0  0  0  0  0
   21.7128  -20.9294  -13.7805 C   0  0  0  0  0  0  0  0  0  0  0  0
   23.1561  -20.4726  -13.7092 C   0  0  0  0  0  0  0  0  0  0  0  0
   23.6939  -20.9531  -12.3732 C   0  0  0  0  0  0  0  0  0  0  0  0
   25.1685  -20.5516  -12.2436 C   0  0  2  0  0  0  0  0  0  0  0  0
   25.9283  -21.0966  -13.3354 N   0  0  0  0  0  0  0  0  0  0  0  0
   25.6705  -21.1532  -10.9810 C   0  0  0  0  0  0  0  0  0  0  0  0
   25.9374  -22.3740  -10.8420 O   0  0  0  0  0  0  0  0  0  0  0  0
   20.2658  -19.4406  -17.2268 C   0  0  0  0  0  0  0  0  0  0  0  0
   29.6717  -19.6543   -5.0848 S   0  0  0  0  0  0  0  0  0  0  0  0
   28.0035  -19.0228   -5.4340 C   0  0  0  0  0  0  0  0  0  0  0  0
   27.0260  -20.2855   -6.3176 C   0  0  0  0  0  0  0  0  0  0  0  0
   26.8138  -19.8189   -7.7290 C   0  0  1  0  0  0  0  0  0  0  0  0
   26.0580  -20.8469   -8.5297 N   0  0  0  0  0  0  0  0  0  0  0  0
   25.8513  -20.2757   -9.8790 C   0  0  0  0  0  0  0  0  0  0  0  0
   24.7544  -21.2267   -7.9485 O   0  0  0  0  0  0  0  0  0  0  0  0
   24.6880  -22.1285   -6.8653 O   0  0  0  0  0  0  0  0  0  0  0  0
  2  1  1  1
  3  2  1  0
  4  5  2  0
  4  2  1  0
  6  7  1  0
  7  9  1  0
  8  7  2  0
  9 10  1  0
 10 11  1  0
 11 12  1  0
 13 12  1  6
 13 14  1  0
 14  4  1  0
 15 22  1  0
 15 13  1  0
 16 15  2  0
 18 17  1  0
 18 19  1  0
 19 20  1  0
 21 20  1  6
 21 22  1  0
 21 23  1  0
 23 25  2  0
 23 24  1  0
M  END
$$$$
