ARM.pdb
     RDKit          3D

 25 24  0  0  1  0  0  0  0  0999 V2000
   18.5995  -13.2635  -16.3979 C   0  0  0  0  0  0  0  0  0  0  0  0
   17.2675  -12.6199  -16.1203 C   0  0  2  0  0  0  0  0  0  0  0  0
   16.6120  -12.4202  -17.3983 N   0  0  0  0  0  0  0  0  0  0  0  0
   17.3410  -11.3428  -15.4316 C   0  0  0  0  0  0  0  0  0  0  0  0
   17.6801  -10.3070  -16.0570 O   0  0  0  0  0  0  0  0  0  0  0  0
   13.7156   -8.4403   -7.9763 N   0  0  0  0  0  0  0  0  0  0  0  0
   14.3665   -7.2843   -8.4433 C   0  0  0  0  0  0  0  0  0  0  0  0
   14.2573   -6.1503   -7.8288 N   0  0  0  0  0  0  0  0  0  0  0  0
   15.1571   -7.3992   -9.6233 N   0  0  0  0  0  0  0  0  0  0  0  0
   15.4308   -8.7052  -10.1860 C   0  0  0  0  0  0  0  0  0  0  0  0
   16.2553   -8.5668  -11.4500 C   0  0  0  0  0  0  0  0  0  0  0  0
   16.3920   -9.9634  -12.0295 C   0  0  0  0  0  0  0  0  0  0  0  0
   17.0910   -9.8832  -13.3924 C   0  0  2  0  0  0  0  0  0  0  0  0
   17.0476  -11.1618  -14.0477 N   0  0  0  0  0  0  0  0  0  0  0  0
   18.5133   -9.5432  -13.1288 C   0  0  0  0  0  0  0  0  0  0  0  0
   19.3453  -10.3417  -12.6277 O   0  0  0  0  0  0  0  0  0  0  0  0
   14.6966   -5.2915   -8.1867 C   0  0  0  0  0  0  0  0  0  0  0  0
   24.0291  -11.0770  -14.8959 S   0  0  0  0  0  0  0  0  0  0  0  0
   23.1829   -9.7657  -15.8278 C   0  0  0  0  0  0  0  0  0  0  0  0
   22.4689   -8.5399  -14.6796 C   0  0  0  0  0  0  0  0  0  0  0  0
   21.0153   -8.8625  -14.4854 C   0  0  1  0  0  0  0  0  0  0  0  0
   20.3809   -7.9212  -13.4951 N   0  0  0  0  0  0  0  0  0  0  0  0
   18.9341   -8.2308  -13.4720 C   0  0  0  0  0  0  0  0  0  0  0  0
   20.5756   -6.4914  -13.8100 O   0  0  0  0  0  0  0  0  0  0  0  0
   19.4957   -5.7033  -14.2611 O   0  0  0  0  0  0  0  0  0  0  0  0
  2  1  1  6
  3  2  1  0
  4  5  2  0
  4  2  1  0
  6  7  1  0
  7  9  1  0
  8  7  2  0
  9 10  1  0
 10 11  1  0
 11 12  1  0
 13 12  1  1
 13 14  1  0
 14  4  1  0
 15 22  1  0
 15 13  1  0
 16 15  2  0
 18 17  1  0
 18 19  1  0
 19 20  1  0
 21 20  1  1
 21 22  1  0
 21 23  1  0
 23 25  2  0
 23 24  1  0
M  END
$$$$
