ARM.pdb
     RDKit          3D

 25 24  0  0  1  0  0  0  0  0999 V2000
   21.3950  -20.8473  -16.9045 C   0  0  0  0  0  0  0  0  0  0  0  0
   21.8178  -19.9658  -15.7602 C   0  0  2  0  0  0  0  0  0  0  0  0
   22.2982  -18.7220  -16.3304 N   0  0  0  0  0  0  0  0  0  0  0  0
   22.8610  -20.5231  -14.9164 C   0  0  0  0  0  0  0  0  0  0  0  0
   22.6391  -21.5576  -14.2384 O   0  0  0  0  0  0  0  0  0  0  0  0
   26.7427  -21.2143  -18.1495 N   0  0  0  0  0  0  0  0  0  0  0  0
   27.9087  -21.9987  -18.0924 C   0  0  0  0  0  0  0  0  0  0  0  0
   28.1875  -22.8661  -19.0120 N   0  0  0  0  0  0  0  0  0  0  0  0
   28.7823  -21.8087  -16.9827 N   0  0  0  0  0  0  0  0  0  0  0  0
   28.3896  -20.9382  -15.8941 C   0  0  0  0  0  0  0  0  0  0  0  0
   27.0011  -21.3032  -15.4086 C   0  0  0  0  0  0  0  0  0  0  0  0
   26.5728  -20.1980  -14.4598 C   0  0  0  0  0  0  0  0  0  0  0  0
   25.1734  -20.5088  -13.9145 C   0  0  2  0  0  0  0  0  0  0  0  0
   24.1692  -19.9693  -14.7901 N   0  0  0  0  0  0  0  0  0  0  0  0
   25.0606  -19.8254  -12.5998 C   0  0  0  0  0  0  0  0  0  0  0  0
   24.4267  -18.7551  -12.4165 O   0  0  0  0  0  0  0  0  0  0  0  0
   29.0466  -23.4317  -18.9858 C   0  0  0  0  0  0  0  0  0  0  0  0
   20.7461  -19.7445   -9.9867 S   0  0  0  0  0  0  0  0  0  0  0  0
   21.5655  -20.4919   -8.5466 C   0  0  0  0  0  0  0  0  0  0  0  0
   23.3582  -20.1538   -8.5985 C   0  0  0  0  0  0  0  0  0  0  0  0
   23.8517  -20.4243   -9.9906 C   0  0  1  0  0  0  0  0  0  0  0  0
   25.3105  -20.0732  -10.1242 N   0  0  0  0  0  0  0  0  0  0  0  0
   25.7174  -20.4376  -11.4994 C   0  0  0  0  0  0  0  0  0  0  0  0
   26.1878  -20.7558   -9.1516 O   0  0  0  0  0  0  0  0  0  0  0  0
   26.5273  -20.1326   -7.9320 O   0  0  0  0  0  0  0  0  0  0  0  0
  2  1  1  6
  3  2  1  0
  4  5  2  0
  4  2  1  0
  6  7  1  0
  7  9  1  0
  8  7  2  0
  9 10  1  0
 10 11  1  0
 11 12  1  0
 13 12  1  6
 13 14  1  0
 14  4  1  0
 15 22  1  0
 15 13  1  0
 16 15  2  0
 18 17  1  0
 18 19  1  0
 19 20  1  0
 21 20  1  6
 21 22  1  0
 21 23  1  0
 23 25  2  0
 23 24  1  0
M  END
$$$$
