ARM.pdb
     RDKit          3D

 25 24  0  0  1  0  0  0  0  0999 V2000
   17.3083  -13.4354  -18.8013 C   0  0  0  0  0  0  0  0  0  0  0  0
   18.5069  -13.7137  -17.9345 C   0  0  2  0  0  0  0  0  0  0  0  0
   18.3786  -15.0737  -17.4475 N   0  0  0  0  0  0  0  0  0  0  0  0
   18.6529  -12.8244  -16.7950 C   0  0  0  0  0  0  0  0  0  0  0  0
   17.9481  -12.9929  -15.7684 O   0  0  0  0  0  0  0  0  0  0  0  0
   23.3229   -7.7412  -18.2015 N   0  0  0  0  0  0  0  0  0  0  0  0
   23.1081   -6.7517  -17.2254 C   0  0  0  0  0  0  0  0  0  0  0  0
   23.0751   -5.4943  -17.5308 N   0  0  0  0  0  0  0  0  0  0  0  0
   22.9259   -7.1781  -15.8778 N   0  0  0  0  0  0  0  0  0  0  0  0
   22.7096   -8.5799  -15.5859 C   0  0  0  0  0  0  0  0  0  0  0  0
   21.2966   -8.9793  -15.9610 C   0  0  0  0  0  0  0  0  0  0  0  0
   21.0806  -10.3737  -15.4005 C   0  0  0  0  0  0  0  0  0  0  0  0
   19.6294  -10.8033  -15.6490 C   0  0  2  0  0  0  0  0  0  0  0  0
   19.5681  -11.7317  -16.7448 N   0  0  0  0  0  0  0  0  0  0  0  0
   18.8767   -9.5808  -16.0320 C   0  0  0  0  0  0  0  0  0  0  0  0
   18.9624   -9.0266  -17.1573 O   0  0  0  0  0  0  0  0  0  0  0  0
   22.8768   -4.7678  -16.8299 C   0  0  0  0  0  0  0  0  0  0  0  0
   12.0569   -6.0551  -15.3181 S   0  0  0  0  0  0  0  0  0  0  0  0
   13.1968   -7.3922  -14.8526 C   0  0  0  0  0  0  0  0  0  0  0  0
   14.9095   -6.9382  -15.2900 C   0  0  0  0  0  0  0  0  0  0  0  0
   15.7822   -8.1460  -15.1048 C   0  0  1  0  0  0  0  0  0  0  0  0
   17.2253   -7.8177  -15.3859 N   0  0  0  0  0  0  0  0  0  0  0  0
   18.0149   -9.0233  -15.0503 C   0  0  0  0  0  0  0  0  0  0  0  0
   17.7411   -6.6612  -14.6256 O   0  0  0  0  0  0  0  0  0  0  0  0
   18.2905   -6.8374  -13.3379 O   0  0  0  0  0  0  0  0  0  0  0  0
  2  1  1  1
  3  2  1  0
  4  5  2  0
  4  2  1  0
  6  7  1  0
  7  9  1  0
  8  7  2  0
  9 10  1  0
 10 11  1  0
 11 12  1  0
 13 12  1  6
 13 14  1  0
 14  4  1  0
 15 22  1  0
 15 13  1  0
 16 15  2  0
 18 17  1  0
 18 19  1  0
 19 20  1  0
 21 20  1  6
 21 22  1  0
 21 23  1  0
 23 25  2  0
 23 24  1  0
M  END
$$$$
