ASQ.pdb
     RDKit          3D

 21 20  0  0  1  0  0  0  0  0999 V2000
   14.6296  -11.3221  -15.4000 C   0  0  0  0  0  0  0  0  0  0  0  0
   16.0866  -11.7243  -15.3222 C   0  0  2  0  0  0  0  0  0  0  0  0
   16.2236  -13.1411  -15.0522 N   0  0  0  0  0  0  0  0  0  0  0  0
   16.6887  -10.9835  -14.1851 C   0  0  0  0  0  0  0  0  0  0  0  0
   16.3727  -11.2112  -13.0122 O   0  0  0  0  0  0  0  0  0  0  0  0
   20.3332   -7.9129  -13.2407 O   0  0  0  0  0  0  0  0  0  0  0  0
   19.5908   -8.6617  -14.1527 C   0  0  0  0  0  0  0  0  0  0  0  0
   18.3275   -9.2036  -13.4720 C   0  0  2  0  0  0  0  0  0  0  0  0
   17.6494   -9.9933  -14.4776 N   0  0  0  0  0  0  0  0  0  0  0  0
   17.4152   -8.1006  -13.0918 C   0  0  0  0  0  0  0  0  0  0  0  0
   16.6817   -7.5594  -13.9735 O   0  0  0  0  0  0  0  0  0  0  0  0
   15.4256   -6.9134   -7.3026 N   0  0  0  0  0  0  0  0  0  0  0  0
   14.7240   -5.9062   -8.0469 C   0  0  0  0  0  0  0  0  0  0  0  0
   13.8975   -5.2015   -7.4230 O   0  0  0  0  0  0  0  0  0  0  0  0
   14.9943   -5.7335   -9.5064 C   0  0  0  0  0  0  0  0  0  0  0  0
   16.0515   -6.7452   -9.8800 C   0  0  0  0  0  0  0  0  0  0  0  0
   16.4058   -6.6855  -11.3461 C   0  0  2  0  0  0  0  0  0  0  0  0
   17.3750   -7.6604  -11.7295 N   0  0  0  0  0  0  0  0  0  0  0  0
   16.8981   -5.2862  -11.5973 C   0  0  0  0  0  0  0  0  0  0  0  0
   18.1394   -5.1095  -11.6549 O   0  0  0  0  0  0  0  0  0  0  0  0
   16.0719   -4.2129  -11.7635 O   0  0  0  0  0  0  0  0  0  0  0  0
  2  1  1  1
  2  4  1  0
  3  2  1  0
  4  5  2  0
  6  7  1  0
  8  7  1  6
  8 10  1  0
  9  8  1  0
  9  4  1  0
 10 11  2  0
 10 18  1  0
 12 13  1  0
 13 15  1  0
 13 14  2  0
 15 16  1  0
 17 16  1  1
 17 19  1  0
 18 17  1  0
 19 20  2  0
 19 21  1  0
M  END
$$$$
