ASQ.pdb
     RDKit          3D

 21 20  0  0  1  0  0  0  0  0999 V2000
   14.3066  -12.7124  -15.1652 C   0  0  0  0  0  0  0  0  0  0  0  0
   15.7336  -13.0172  -15.5671 C   0  0  2  0  0  0  0  0  0  0  0  0
   16.0421  -14.4197  -15.3748 N   0  0  0  0  0  0  0  0  0  0  0  0
   16.6211  -12.2291  -14.6752 C   0  0  0  0  0  0  0  0  0  0  0  0
   16.9165  -12.6119  -13.5378 O   0  0  0  0  0  0  0  0  0  0  0  0
   19.9603   -8.7947  -14.7682 O   0  0  0  0  0  0  0  0  0  0  0  0
   19.0403   -9.6162  -15.4180 C   0  0  0  0  0  0  0  0  0  0  0  0
   18.0107  -10.1409  -14.4093 C   0  0  2  0  0  0  0  0  0  0  0  0
   17.1311  -11.0081  -15.1634 N   0  0  0  0  0  0  0  0  0  0  0  0
   17.1830   -9.0361  -13.8728 C   0  0  0  0  0  0  0  0  0  0  0  0
   16.2488   -8.5501  -14.5795 O   0  0  0  0  0  0  0  0  0  0  0  0
   15.8532   -4.7057   -7.9348 N   0  0  0  0  0  0  0  0  0  0  0  0
   16.5476   -5.6909   -8.7146 C   0  0  0  0  0  0  0  0  0  0  0  0
   17.4731   -6.3209   -8.1528 O   0  0  0  0  0  0  0  0  0  0  0  0
   16.1550   -5.9288  -10.1366 C   0  0  0  0  0  0  0  0  0  0  0  0
   16.9722   -7.0999  -10.6279 C   0  0  0  0  0  0  0  0  0  0  0  0
   16.6880   -7.4275  -12.0737 C   0  0  2  0  0  0  0  0  0  0  0  0
   17.4512   -8.5314  -12.5595 N   0  0  0  0  0  0  0  0  0  0  0  0
   16.9768   -6.1707  -12.8485 C   0  0  0  0  0  0  0  0  0  0  0  0
   16.1436   -5.2355  -12.7685 O   0  0  0  0  0  0  0  0  0  0  0  0
   18.0862   -5.9993  -13.6243 O   0  0  0  0  0  0  0  0  0  0  0  0
  2  1  1  1
  2  4  1  0
  3  2  1  0
  4  5  2  0
  6  7  1  0
  8  7  1  6
  8 10  1  0
  9  8  1  0
  9  4  1  0
 10 11  2  0
 10 18  1  0
 12 13  1  0
 13 15  1  0
 13 14  2  0
 15 16  1  0
 17 16  1  1
 17 19  1  0
 18 17  1  0
 19 20  2  0
 19 21  1  0
M  END
$$$$
