ASQ.pdb
     RDKit          3D

 21 20  0  0  1  0  0  0  0  0999 V2000
   23.2997  -24.3176  -16.0039 C   0  0  0  0  0  0  0  0  0  0  0  0
   24.5785  -24.0796  -15.2300 C   0  0  2  0  0  0  0  0  0  0  0  0
   24.6042  -24.8616  -14.0106 N   0  0  0  0  0  0  0  0  0  0  0  0
   24.6045  -22.6443  -14.8514 C   0  0  0  0  0  0  0  0  0  0  0  0
   23.8579  -22.1808  -13.9824 O   0  0  0  0  0  0  0  0  0  0  0  0
   27.5299  -20.3450  -16.7551 O   0  0  0  0  0  0  0  0  0  0  0  0
   27.1947  -20.1206  -15.4206 C   0  0  0  0  0  0  0  0  0  0  0  0
   25.7019  -20.4011  -15.2068 C   0  0  2  0  0  0  0  0  0  0  0  0
   25.5187  -21.8025  -15.5184 N   0  0  0  0  0  0  0  0  0  0  0  0
   24.8748  -19.6278  -16.1615 C   0  0  0  0  0  0  0  0  0  0  0  0
   24.5751  -20.1323  -17.2857 O   0  0  0  0  0  0  0  0  0  0  0  0
   20.0139  -16.3264  -16.8744 N   0  0  0  0  0  0  0  0  0  0  0  0
   20.3358  -16.7384  -15.5374 C   0  0  0  0  0  0  0  0  0  0  0  0
   19.5369  -16.4157  -14.6283 O   0  0  0  0  0  0  0  0  0  0  0  0
   21.5827  -17.5200  -15.2778 C   0  0  0  0  0  0  0  0  0  0  0  0
   22.1552  -17.8938  -16.6244 C   0  0  0  0  0  0  0  0  0  0  0  0
   23.6280  -17.5793  -16.7255 C   0  0  2  0  0  0  0  0  0  0  0  0
   24.4245  -18.3173  -15.7993 N   0  0  0  0  0  0  0  0  0  0  0  0
   23.7518  -16.0964  -16.5039 C   0  0  0  0  0  0  0  0  0  0  0  0
   24.3565  -15.7122  -15.4734 O   0  0  0  0  0  0  0  0  0  0  0  0
   23.2452  -15.1599  -17.3575 O   0  0  0  0  0  0  0  0  0  0  0  0
  2  1  1  1
  2  4  1  0
  3  2  1  0
  4  5  2  0
  6  7  1  0
  8  7  1  6
  8 10  1  0
  9  8  1  0
  9  4  1  0
 10 11  2  0
 10 18  1  0
 12 13  1  0
 13 15  1  0
 13 14  2  0
 15 16  1  0
 17 16  1  1
 17 19  1  0
 18 17  1  0
 19 20  2  0
 19 21  1  0
M  END
$$$$
