ASQ.pdb
     RDKit          3D

 21 20  0  0  1  0  0  0  0  0999 V2000
   16.5639  -14.0118  -15.6081 C   0  0  0  0  0  0  0  0  0  0  0  0
   17.7187  -14.6968  -16.3067 C   0  0  2  0  0  0  0  0  0  0  0  0
   17.9927  -15.9910  -15.7160 N   0  0  0  0  0  0  0  0  0  0  0  0
   18.9190  -13.8446  -16.1139 C   0  0  0  0  0  0  0  0  0  0  0  0
   19.3872  -13.6135  -14.9938 O   0  0  0  0  0  0  0  0  0  0  0  0
   22.1727  -13.9882  -18.4256 O   0  0  0  0  0  0  0  0  0  0  0  0
   21.4639  -12.7935  -18.5439 C   0  0  0  0  0  0  0  0  0  0  0  0
   20.7326  -12.4923  -17.2295 C   0  0  2  0  0  0  0  0  0  0  0  0
   19.5270  -13.2924  -17.2605 N   0  0  0  0  0  0  0  0  0  0  0  0
   20.3153  -11.0726  -17.1680 C   0  0  0  0  0  0  0  0  0  0  0  0
   19.2142  -10.7180  -17.6878 O   0  0  0  0  0  0  0  0  0  0  0  0
   22.7334   -6.5911  -13.5133 N   0  0  0  0  0  0  0  0  0  0  0  0
   21.7543   -5.8532  -14.2601 C   0  0  0  0  0  0  0  0  0  0  0  0
   21.6369   -4.6325  -14.0050 O   0  0  0  0  0  0  0  0  0  0  0  0
   20.9261   -6.5464  -15.2928 C   0  0  0  0  0  0  0  0  0  0  0  0
   21.3975   -7.9802  -15.3440 C   0  0  0  0  0  0  0  0  0  0  0  0
   20.7588   -8.7508  -16.4739 C   0  0  2  0  0  0  0  0  0  0  0  0
   21.1645  -10.1184  -16.5203 N   0  0  0  0  0  0  0  0  0  0  0  0
   21.1290   -8.0201  -17.7358 C   0  0  0  0  0  0  0  0  0  0  0  0
   22.1265   -8.4345  -18.3749 O   0  0  0  0  0  0  0  0  0  0  0  0
   20.4421   -6.9423  -18.2140 O   0  0  0  0  0  0  0  0  0  0  0  0
  2  1  1  1
  2  4  1  0
  3  2  1  0
  4  5  2  0
  6  7  1  0
  8  7  1  6
  8 10  1  0
  9  8  1  0
  9  4  1  0
 10 11  2  0
 10 18  1  0
 12 13  1  0
 13 15  1  0
 13 14  2  0
 15 16  1  0
 17 16  1  1
 17 19  1  0
 18 17  1  0
 19 20  2  0
 19 21  1  0
M  END
$$$$
