ASQ.pdb
     RDKit          3D

 21 20  0  0  1  0  0  0  0  0999 V2000
   18.8733  -12.8661  -17.2600 C   0  0  0  0  0  0  0  0  0  0  0  0
   18.6644  -11.9943  -16.0404 C   0  0  2  0  0  0  0  0  0  0  0  0
   17.3929  -12.2786  -15.4069 N   0  0  0  0  0  0  0  0  0  0  0  0
   18.6368  -10.5846  -16.5053 C   0  0  0  0  0  0  0  0  0  0  0  0
   19.5587  -10.0927  -17.1653 O   0  0  0  0  0  0  0  0  0  0  0  0
   15.0988   -8.6212  -15.7675 O   0  0  0  0  0  0  0  0  0  0  0  0
   15.8673   -8.2330  -16.8639 C   0  0  0  0  0  0  0  0  0  0  0  0
   17.3566   -8.4116  -16.5426 C   0  0  2  0  0  0  0  0  0  0  0  0
   17.5125   -9.8015  -16.1707 N   0  0  0  0  0  0  0  0  0  0  0  0
   17.7473   -7.5971  -15.3690 C   0  0  0  0  0  0  0  0  0  0  0  0
   17.7466   -8.1191  -14.2132 O   0  0  0  0  0  0  0  0  0  0  0  0
   22.4064   -5.5982  -13.2130 N   0  0  0  0  0  0  0  0  0  0  0  0
   22.0913   -4.5519  -14.1440 C   0  0  0  0  0  0  0  0  0  0  0  0
   23.0287   -3.8055  -14.5088 O   0  0  0  0  0  0  0  0  0  0  0  0
   20.6899   -4.3892  -14.6368 C   0  0  0  0  0  0  0  0  0  0  0  0
   19.8722   -5.4919  -14.0074 C   0  0  0  0  0  0  0  0  0  0  0  0
   18.4198   -5.4282  -14.4136 C   0  0  2  0  0  0  0  0  0  0  0  0
   18.1214   -6.2276  -15.5577 N   0  0  0  0  0  0  0  0  0  0  0  0
   18.1214   -3.9744  -14.6604 C   0  0  0  0  0  0  0  0  0  0  0  0
   18.0604   -3.2170  -13.6615 O   0  0  0  0  0  0  0  0  0  0  0  0
   17.9163   -3.4452  -15.9014 O   0  0  0  0  0  0  0  0  0  0  0  0
  2  1  1  6
  2  4  1  0
  3  2  1  0
  4  5  2  0
  6  7  1  0
  8  7  1  1
  8 10  1  0
  9  8  1  0
  9  4  1  0
 10 11  2  0
 10 18  1  0
 12 13  1  0
 13 15  1  0
 13 14  2  0
 15 16  1  0
 17 16  1  6
 17 19  1  0
 18 17  1  0
 19 20  2  0
 19 21  1  0
M  END
$$$$
