ASQ.pdb
     RDKit          3D

 21 20  0  0  1  0  0  0  0  0999 V2000
   19.2950  -13.0208  -17.0863 C   0  0  0  0  0  0  0  0  0  0  0  0
   19.4225  -11.5717  -17.5047 C   0  0  2  0  0  0  0  0  0  0  0  0
   20.1752  -11.4481  -18.7364 N   0  0  0  0  0  0  0  0  0  0  0  0
   20.1775  -10.8690  -16.4368 C   0  0  0  0  0  0  0  0  0  0  0  0
   19.8166  -10.8899  -15.2550 O   0  0  0  0  0  0  0  0  0  0  0  0
   24.4087   -8.7782  -15.4917 O   0  0  0  0  0  0  0  0  0  0  0  0
   23.5819   -9.5587  -16.2984 C   0  0  0  0  0  0  0  0  0  0  0  0
   22.1168   -9.3498  -15.8948 C   0  0  2  0  0  0  0  0  0  0  0  0
   21.3403  -10.1618  -16.8071 N   0  0  0  0  0  0  0  0  0  0  0  0
   21.7052   -7.9423  -16.1016 C   0  0  0  0  0  0  0  0  0  0  0  0
   21.5243   -7.5066  -17.2787 O   0  0  0  0  0  0  0  0  0  0  0  0
   17.1475   -4.8895  -14.8260 N   0  0  0  0  0  0  0  0  0  0  0  0
   17.9770   -3.7583  -15.1314 C   0  0  0  0  0  0  0  0  0  0  0  0
   17.4115   -2.6474  -15.2548 O   0  0  0  0  0  0  0  0  0  0  0  0
   19.4523   -3.9361  -15.2886 C   0  0  0  0  0  0  0  0  0  0  0  0
   19.7466   -5.3979  -15.0493 C   0  0  0  0  0  0  0  0  0  0  0  0
   21.2176   -5.7120  -15.1756 C   0  0  2  0  0  0  0  0  0  0  0  0
   21.5170   -7.0915  -14.9649 N   0  0  0  0  0  0  0  0  0  0  0  0
   21.9168   -4.8340  -14.1739 C   0  0  0  0  0  0  0  0  0  0  0  0
   21.9917   -3.6075  -14.4298 O   0  0  0  0  0  0  0  0  0  0  0  0
   22.4669   -5.2994  -13.0151 O   0  0  0  0  0  0  0  0  0  0  0  0
  2  1  1  1
  2  4  1  0
  3  2  1  0
  4  5  2  0
  6  7  1  0
  8  7  1  6
  8 10  1  0
  9  8  1  0
  9  4  1  0
 10 11  2  0
 10 18  1  0
 12 13  1  0
 13 15  1  0
 13 14  2  0
 15 16  1  0
 17 16  1  1
 17 19  1  0
 18 17  1  0
 19 20  2  0
 19 21  1  0
M  END
$$$$
