ASQ.pdb
     RDKit          3D

 21 20  0  0  1  0  0  0  0  0999 V2000
   18.5031  -14.6226  -14.2969 C   0  0  0  0  0  0  0  0  0  0  0  0
   17.7382  -14.5183  -15.5988 C   0  0  2  0  0  0  0  0  0  0  0  0
   18.0686  -15.6134  -16.4879 N   0  0  0  0  0  0  0  0  0  0  0  0
   18.1573  -13.2550  -16.2568 C   0  0  0  0  0  0  0  0  0  0  0  0
   19.1817  -13.1811  -16.9440 O   0  0  0  0  0  0  0  0  0  0  0  0
   16.4479   -9.3038  -18.1610 O   0  0  0  0  0  0  0  0  0  0  0  0
   16.2861  -10.4949  -17.4550 C   0  0  0  0  0  0  0  0  0  0  0  0
   17.5863  -10.8419  -16.7187 C   0  0  2  0  0  0  0  0  0  0  0  0
   17.3443  -12.1165  -16.0773 N   0  0  0  0  0  0  0  0  0  0  0  0
   17.8680   -9.8586  -15.6477 C   0  0  0  0  0  0  0  0  0  0  0  0
   17.3642  -10.0223  -14.4955 O   0  0  0  0  0  0  0  0  0  0  0  0
   22.8917   -6.4199  -14.8800 N   0  0  0  0  0  0  0  0  0  0  0  0
   22.0414   -5.8465  -13.8755 C   0  0  0  0  0  0  0  0  0  0  0  0
   22.5529   -5.0050  -13.1013 O   0  0  0  0  0  0  0  0  0  0  0  0
   20.6084   -6.2605  -13.7864 C   0  0  0  0  0  0  0  0  0  0  0  0
   20.3723   -7.2657  -14.8884 C   0  0  0  0  0  0  0  0  0  0  0  0
   18.9518   -7.7762  -14.9005 C   0  0  2  0  0  0  0  0  0  0  0  0
   18.7082   -8.7336  -15.9305 N   0  0  0  0  0  0  0  0  0  0  0  0
   18.0761   -6.5625  -15.0539 C   0  0  0  0  0  0  0  0  0  0  0  0
   17.7394   -6.2332  -16.2173 O   0  0  0  0  0  0  0  0  0  0  0  0
   17.6351   -5.8113  -14.0035 O   0  0  0  0  0  0  0  0  0  0  0  0
  2  1  1  1
  2  4  1  0
  3  2  1  0
  4  5  2  0
  6  7  1  0
  8  7  1  1
  8 10  1  0
  9  8  1  0
  9  4  1  0
 10 11  2  0
 10 18  1  0
 12 13  1  0
 13 15  1  0
 13 14  2  0
 15 16  1  0
 17 16  1  6
 17 19  1  0
 18 17  1  0
 19 20  2  0
 19 21  1  0
M  END
$$$$
