ASQ.pdb
     RDKit          3D

 21 20  0  0  1  0  0  0  0  0999 V2000
   16.5119  -15.3531  -19.3481 C   0  0  0  0  0  0  0  0  0  0  0  0
   17.8756  -14.9547  -18.8261 C   0  0  2  0  0  0  0  0  0  0  0  0
   18.6058  -16.1075  -18.3395 N   0  0  0  0  0  0  0  0  0  0  0  0
   17.6583  -14.0361  -17.6802 C   0  0  0  0  0  0  0  0  0  0  0  0
   16.6376  -14.0837  -16.9849 O   0  0  0  0  0  0  0  0  0  0  0  0
   21.0110  -12.1259  -16.5723 O   0  0  0  0  0  0  0  0  0  0  0  0
   20.0258  -12.3221  -15.6057 C   0  0  0  0  0  0  0  0  0  0  0  0
   18.6380  -12.2049  -16.2486 C   0  0  2  0  0  0  0  0  0  0  0  0
   18.6624  -13.0875  -17.3954 N   0  0  0  0  0  0  0  0  0  0  0  0
   18.4026  -10.8334  -16.7557 C   0  0  0  0  0  0  0  0  0  0  0  0
   18.6360  -10.5645  -17.9729 O   0  0  0  0  0  0  0  0  0  0  0  0
   13.7999   -7.2056  -16.2503 N   0  0  0  0  0  0  0  0  0  0  0  0
   14.7313   -6.2777  -16.8266 C   0  0  0  0  0  0  0  0  0  0  0  0
   14.2741   -5.1892  -17.2451 O   0  0  0  0  0  0  0  0  0  0  0  0
   16.1814   -6.6297  -16.9074 C   0  0  0  0  0  0  0  0  0  0  0  0
   16.3194   -8.0434  -16.3943 C   0  0  0  0  0  0  0  0  0  0  0  0
   17.7595   -8.4921  -16.3387 C   0  0  2  0  0  0  0  0  0  0  0  0
   17.9130   -9.8281  -15.8607 N   0  0  0  0  0  0  0  0  0  0  0  0
   18.4686   -7.5026  -15.4546 C   0  0  0  0  0  0  0  0  0  0  0  0
   18.6449   -6.3444  -15.9050 O   0  0  0  0  0  0  0  0  0  0  0  0
   18.9239   -7.7984  -14.2027 O   0  0  0  0  0  0  0  0  0  0  0  0
  2  1  1  1
  2  4  1  0
  3  2  1  0
  4  5  2  0
  6  7  1  0
  8  7  1  6
  8 10  1  0
  9  8  1  0
  9  4  1  0
 10 11  2  0
 10 18  1  0
 12 13  1  0
 13 15  1  0
 13 14  2  0
 15 16  1  0
 17 16  1  1
 17 19  1  0
 18 17  1  0
 19 20  2  0
 19 21  1  0
M  END
$$$$
