ASQ.pdb
     RDKit          3D

 21 20  0  0  1  0  0  0  0  0999 V2000
   24.7364  -21.2357   -8.3477 C   0  0  0  0  0  0  0  0  0  0  0  0
   26.0212  -20.7672   -8.9965 C   0  0  2  0  0  0  0  0  0  0  0  0
   26.6578  -19.7326   -8.2071 N   0  0  0  0  0  0  0  0  0  0  0  0
   25.6625  -20.1804  -10.3123 C   0  0  0  0  0  0  0  0  0  0  0  0
   25.2012  -19.0389  -10.4184 O   0  0  0  0  0  0  0  0  0  0  0  0
   26.6471  -22.4917  -13.6717 O   0  0  0  0  0  0  0  0  0  0  0  0
   26.7302  -21.1000  -13.6725 C   0  0  0  0  0  0  0  0  0  0  0  0
   25.6042  -20.5129  -12.8120 C   0  0  2  0  0  0  0  0  0  0  0  0
   25.8636  -20.9700  -11.4636 N   0  0  0  0  0  0  0  0  0  0  0  0
   24.2883  -21.0601  -13.2150 C   0  0  0  0  0  0  0  0  0  0  0  0
   23.6841  -21.8716  -12.4505 O   0  0  0  0  0  0  0  0  0  0  0  0
   20.0742  -18.3258  -12.1891 N   0  0  0  0  0  0  0  0  0  0  0  0
   19.3066  -19.1892  -13.0414 C   0  0  0  0  0  0  0  0  0  0  0  0
   18.0588  -19.1063  -12.9699 O   0  0  0  0  0  0  0  0  0  0  0  0
   20.0022  -20.1365  -13.9643 C   0  0  0  0  0  0  0  0  0  0  0  0
   21.4836  -19.9880  -13.7115 C   0  0  0  0  0  0  0  0  0  0  0  0
   22.3110  -20.8164  -14.6642 C   0  0  2  0  0  0  0  0  0  0  0  0
   23.7161  -20.6631  -14.4665 N   0  0  0  0  0  0  0  0  0  0  0  0
   21.8969  -20.3949  -16.0477 C   0  0  0  0  0  0  0  0  0  0  0  0
   22.5570  -19.4799  -16.5974 O   0  0  0  0  0  0  0  0  0  0  0  0
   20.8518  -20.9514  -16.7261 O   0  0  0  0  0  0  0  0  0  0  0  0
  2  1  1  1
  2  4  1  0
  3  2  1  0
  4  5  2  0
  6  7  1  0
  8  7  1  6
  8 10  1  0
  9  8  1  0
  9  4  1  0
 10 11  2  0
 10 18  1  0
 12 13  1  0
 13 15  1  0
 13 14  2  0
 15 16  1  0
 17 16  1  1
 17 19  1  0
 18 17  1  0
 19 20  2  0
 19 21  1  0
M  END
$$$$
