ASQ.pdb
     RDKit          3D

 21 20  0  0  1  0  0  0  0  0999 V2000
   27.8928  -21.7601  -16.4454 C   0  0  0  0  0  0  0  0  0  0  0  0
   27.2749  -20.7217  -15.5340 C   0  0  2  0  0  0  0  0  0  0  0  0
   28.1575  -20.4045  -14.4298 N   0  0  0  0  0  0  0  0  0  0  0  0
   26.0343  -21.3114  -14.9706 C   0  0  0  0  0  0  0  0  0  0  0  0
   25.2251  -21.9305  -15.6701 O   0  0  0  0  0  0  0  0  0  0  0  0
   25.1964  -20.4296  -10.9390 O   0  0  0  0  0  0  0  0  0  0  0  0
   25.0248  -21.7274  -11.4182 C   0  0  0  0  0  0  0  0  0  0  0  0
   24.6396  -21.6854  -12.9024 C   0  0  2  0  0  0  0  0  0  0  0  0
   25.7931  -21.1468  -13.5907 N   0  0  0  0  0  0  0  0  0  0  0  0
   23.5152  -20.7493  -13.1322 C   0  0  0  0  0  0  0  0  0  0  0  0
   23.7080  -19.4996  -13.0362 O   0  0  0  0  0  0  0  0  0  0  0  0
   20.9923  -21.8494  -17.6534 N   0  0  0  0  0  0  0  0  0  0  0  0
   19.8512  -21.2000  -17.0730 C   0  0  0  0  0  0  0  0  0  0  0  0
   18.9954  -20.7311  -17.8583 O   0  0  0  0  0  0  0  0  0  0  0  0
   19.7224  -21.1057  -15.5872 C   0  0  0  0  0  0  0  0  0  0  0  0
   20.7961  -20.1555  -15.1127 C   0  0  0  0  0  0  0  0  0  0  0  0
   21.1394  -20.3632  -13.6576 C   0  0  2  0  0  0  0  0  0  0  0  0
   22.2226  -21.2715  -13.4606 N   0  0  0  0  0  0  0  0  0  0  0  0
   19.8785  -20.8537  -12.9997 C   0  0  0  0  0  0  0  0  0  0  0  0
   19.8355  -22.0597  -12.6544 O   0  0  0  0  0  0  0  0  0  0  0  0
   18.7927  -20.0620  -12.7626 O   0  0  0  0  0  0  0  0  0  0  0  0
  2  1  1  6
  2  4  1  0
  3  2  1  0
  4  5  2  0
  6  7  1  0
  8  7  1  1
  8 10  1  0
  9  8  1  0
  9  4  1  0
 10 11  2  0
 10 18  1  0
 12 13  1  0
 13 15  1  0
 13 14  2  0
 15 16  1  0
 17 16  1  6
 17 19  1  0
 18 17  1  0
 19 20  2  0
 19 21  1  0
M  END
$$$$
