ASQ.pdb
     RDKit          3D

 21 20  0  0  1  0  0  0  0  0999 V2000
   28.3290  -23.7864  -17.0359 C   0  0  0  0  0  0  0  0  0  0  0  0
   28.0958  -22.6305  -17.9848 C   0  0  2  0  0  0  0  0  0  0  0  0
   29.3386  -22.1865  -18.5823 N   0  0  0  0  0  0  0  0  0  0  0  0
   27.5478  -21.5064  -17.1845 C   0  0  0  0  0  0  0  0  0  0  0  0
   28.2749  -20.7485  -16.5332 O   0  0  0  0  0  0  0  0  0  0  0  0
   23.8179  -18.5621  -17.0114 O   0  0  0  0  0  0  0  0  0  0  0  0
   24.5271  -19.6250  -17.5688 C   0  0  0  0  0  0  0  0  0  0  0  0
   25.4850  -20.2133  -16.5251 C   0  0  2  0  0  0  0  0  0  0  0  0
   26.1502  -21.3175  -17.1830 N   0  0  0  0  0  0  0  0  0  0  0  0
   24.7378  -20.7735  -15.3756 C   0  0  0  0  0  0  0  0  0  0  0  0
   24.1333  -21.8816  -15.4987 O   0  0  0  0  0  0  0  0  0  0  0  0
   25.9782  -20.7570   -9.8194 N   0  0  0  0  0  0  0  0  0  0  0  0
   24.5866  -21.0120   -9.5764 C   0  0  0  0  0  0  0  0  0  0  0  0
   24.2883  -21.6120   -8.5181 O   0  0  0  0  0  0  0  0  0  0  0  0
   23.5622  -20.5650  -10.5684 C   0  0  0  0  0  0  0  0  0  0  0  0
   24.3108  -19.9408  -11.7218 C   0  0  0  0  0  0  0  0  0  0  0  0
   23.9727  -20.5921  -13.0409 C   0  0  2  0  0  0  0  0  0  0  0  0
   24.7091  -20.0529  -14.1382 N   0  0  0  0  0  0  0  0  0  0  0  0
   22.4907  -20.4103  -13.2255 C   0  0  0  0  0  0  0  0  0  0  0  0
   22.1058  -19.4096  -13.8781 O   0  0  0  0  0  0  0  0  0  0  0  0
   21.5558  -21.2690  -12.7248 O   0  0  0  0  0  0  0  0  0  0  0  0
  2  1  1  1
  2  4  1  0
  3  2  1  0
  4  5  2  0
  6  7  1  0
  8  7  1  6
  8 10  1  0
  9  8  1  0
  9  4  1  0
 10 11  2  0
 10 18  1  0
 12 13  1  0
 13 15  1  0
 13 14  2  0
 15 16  1  0
 17 16  1  1
 17 19  1  0
 18 17  1  0
 19 20  2  0
 19 21  1  0
M  END
$$$$
