ASQ.pdb
     RDKit          3D

 21 20  0  0  1  0  0  0  0  0999 V2000
   14.0720  -10.3532  -14.8566 C   0  0  0  0  0  0  0  0  0  0  0  0
   15.4996  -10.8549  -14.8241 C   0  0  2  0  0  0  0  0  0  0  0  0
   15.5437  -12.2947  -14.6702 N   0  0  0  0  0  0  0  0  0  0  0  0
   16.1531  -10.2494  -13.6364 C   0  0  0  0  0  0  0  0  0  0  0  0
   15.9137  -10.6355  -12.4871 O   0  0  0  0  0  0  0  0  0  0  0  0
   20.0101   -8.9217  -13.7300 O   0  0  0  0  0  0  0  0  0  0  0  0
   19.0521   -7.9389  -13.4854 C   0  0  0  0  0  0  0  0  0  0  0  0
   17.8319   -8.5641  -12.7975 C   0  0  2  0  0  0  0  0  0  0  0  0
   17.0727   -9.2020  -13.8517 N   0  0  0  0  0  0  0  0  0  0  0  0
   16.9654   -7.5203  -12.2031 C   0  0  0  0  0  0  0  0  0  0  0  0
   16.2831   -6.7643  -12.9588 O   0  0  0  0  0  0  0  0  0  0  0  0
   12.2520   -7.3939   -9.1604 N   0  0  0  0  0  0  0  0  0  0  0  0
   13.2701   -8.3348   -8.7876 C   0  0  0  0  0  0  0  0  0  0  0  0
   12.9020   -9.3765   -8.1975 O   0  0  0  0  0  0  0  0  0  0  0  0
   14.7019   -8.0498   -9.1068 C   0  0  0  0  0  0  0  0  0  0  0  0
   14.7324   -6.7387   -9.8557 C   0  0  0  0  0  0  0  0  0  0  0  0
   16.1370   -6.3206  -10.2172 C   0  0  2  0  0  0  0  0  0  0  0  0
   16.9110   -7.3802  -10.7788 N   0  0  0  0  0  0  0  0  0  0  0  0
   16.7533   -5.7964   -8.9489 C   0  0  0  0  0  0  0  0  0  0  0  0
   17.7410   -6.4162   -8.4844 O   0  0  0  0  0  0  0  0  0  0  0  0
   16.2972   -4.6939   -8.2866 O   0  0  0  0  0  0  0  0  0  0  0  0
  2  1  1  1
  2  4  1  0
  3  2  1  0
  4  5  2  0
  6  7  1  0
  8  7  1  6
  8 10  1  0
  9  8  1  0
  9  4  1  0
 10 11  2  0
 10 18  1  0
 12 13  1  0
 13 15  1  0
 13 14  2  0
 15 16  1  0
 17 16  1  1
 17 19  1  0
 18 17  1  0
 19 20  2  0
 19 21  1  0
M  END
$$$$
