ASQ.pdb
     RDKit          3D

 21 20  0  0  1  0  0  0  0  0999 V2000
   16.7929  -12.1961  -17.1962 C   0  0  0  0  0  0  0  0  0  0  0  0
   18.1134  -12.3896  -16.4822 C   0  0  2  0  0  0  0  0  0  0  0  0
   18.0841  -13.5683  -15.6404 N   0  0  0  0  0  0  0  0  0  0  0  0
   18.3183  -11.2088  -15.6058 C   0  0  0  0  0  0  0  0  0  0  0  0
   17.5367  -10.9265  -14.6911 O   0  0  0  0  0  0  0  0  0  0  0  0
   21.7031   -8.3099  -13.9452 O   0  0  0  0  0  0  0  0  0  0  0  0
   21.2570   -9.4295  -14.6460 C   0  0  0  0  0  0  0  0  0  0  0  0
   19.7903   -9.2369  -15.0517 C   0  0  2  0  0  0  0  0  0  0  0  0
   19.4478  -10.3985  -15.8441 N   0  0  0  0  0  0  0  0  0  0  0  0
   19.6325   -8.0497  -15.9229 C   0  0  0  0  0  0  0  0  0  0  0  0
   20.0176   -8.1002  -17.1301 O   0  0  0  0  0  0  0  0  0  0  0  0
   15.7349   -4.1153  -14.2665 N   0  0  0  0  0  0  0  0  0  0  0  0
   15.3759   -5.1381  -15.2076 C   0  0  0  0  0  0  0  0  0  0  0  0
   14.2005   -5.5691  -15.1677 O   0  0  0  0  0  0  0  0  0  0  0  0
   16.3898   -5.6445  -16.1816 C   0  0  0  0  0  0  0  0  0  0  0  0
   17.6727   -4.8955  -15.9095 C   0  0  0  0  0  0  0  0  0  0  0  0
   18.8946   -5.7199  -16.2345 C   0  0  2  0  0  0  0  0  0  0  0  0
   19.0454   -6.8583  -15.3869 N   0  0  0  0  0  0  0  0  0  0  0  0
   20.0680   -4.7852  -16.1206 C   0  0  0  0  0  0  0  0  0  0  0  0
   20.0915   -3.7881  -16.8824 O   0  0  0  0  0  0  0  0  0  0  0  0
   21.0953   -4.9657  -15.2407 O   0  0  0  0  0  0  0  0  0  0  0  0
  2  1  1  1
  2  4  1  0
  3  2  1  0
  4  5  2  0
  6  7  1  0
  8  7  1  6
  8 10  1  0
  9  8  1  0
  9  4  1  0
 10 11  2  0
 10 18  1  0
 12 13  1  0
 13 15  1  0
 13 14  2  0
 15 16  1  0
 17 16  1  1
 17 19  1  0
 18 17  1  0
 19 20  2  0
 19 21  1  0
M  END
$$$$
