ASQ.pdb
     RDKit          3D

 21 20  0  0  1  0  0  0  0  0999 V2000
   29.6256  -26.4135  -16.1978 C   0  0  0  0  0  0  0  0  0  0  0  0
   29.6007  -26.4761  -17.7099 C   0  0  2  0  0  0  0  0  0  0  0  0
   28.2585  -26.2795  -18.2186 N   0  0  0  0  0  0  0  0  0  0  0  0
   30.0417  -27.8383  -18.1024 C   0  0  0  0  0  0  0  0  0  0  0  0
   29.2372  -28.7445  -18.3452 O   0  0  0  0  0  0  0  0  0  0  0  0
   33.7089  -28.7334  -20.1235 O   0  0  0  0  0  0  0  0  0  0  0  0
   33.4938  -29.0921  -18.7936 C   0  0  0  0  0  0  0  0  0  0  0  0
   32.0009  -29.3588  -18.5635 C   0  0  2  0  0  0  0  0  0  0  0  0
   31.4279  -28.0820  -18.1944 N   0  0  0  0  0  0  0  0  0  0  0  0
   31.7962  -30.2781  -17.4205 C   0  0  0  0  0  0  0  0  0  0  0  0
   31.6593  -29.8066  -16.2512 O   0  0  0  0  0  0  0  0  0  0  0  0
   26.4279  -33.3752  -15.1718 N   0  0  0  0  0  0  0  0  0  0  0  0
   27.5317  -32.4803  -15.3757 C   0  0  0  0  0  0  0  0  0  0  0  0
   27.2795  -31.2537  -15.4053 O   0  0  0  0  0  0  0  0  0  0  0  0
   28.9130  -33.0256  -15.5421 C   0  0  0  0  0  0  0  0  0  0  0  0
   29.6194  -32.1364  -16.5376 C   0  0  0  0  0  0  0  0  0  0  0  0
   31.0657  -32.5256  -16.7248 C   0  0  2  0  0  0  0  0  0  0  0  0
   31.7559  -31.6906  -17.6539 N   0  0  0  0  0  0  0  0  0  0  0  0
   31.0542  -33.9617  -17.1730 C   0  0  0  0  0  0  0  0  0  0  0  0
   30.8658  -34.8412  -16.2977 O   0  0  0  0  0  0  0  0  0  0  0  0
   31.2362  -34.3505  -18.4683 O   0  0  0  0  0  0  0  0  0  0  0  0
  2  1  1  1
  2  4  1  0
  3  2  1  0
  4  5  2  0
  6  7  1  0
  8  7  1  1
  8 10  1  0
  9  8  1  0
  9  4  1  0
 10 11  2  0
 10 18  1  0
 12 13  1  0
 13 15  1  0
 13 14  2  0
 15 16  1  0
 17 16  1  6
 17 19  1  0
 18 17  1  0
 19 20  2  0
 19 21  1  0
M  END
$$$$
