ASQ.pdb
     RDKit          3D

 21 20  0  0  1  0  0  0  0  0999 V2000
   16.7006  -13.8920  -13.6832 C   0  0  0  0  0  0  0  0  0  0  0  0
   16.4584  -13.9160  -15.1771 C   0  0  2  0  0  0  0  0  0  0  0  0
   16.9243  -15.1569  -15.7617 N   0  0  0  0  0  0  0  0  0  0  0  0
   17.2487  -12.8079  -15.7701 C   0  0  0  0  0  0  0  0  0  0  0  0
   18.4371  -12.9425  -16.0815 O   0  0  0  0  0  0  0  0  0  0  0  0
   15.0242   -9.5170  -16.7506 O   0  0  0  0  0  0  0  0  0  0  0  0
   16.1826   -9.7810  -17.4801 C   0  0  0  0  0  0  0  0  0  0  0  0
   17.2385  -10.4141  -16.5651 C   0  0  2  0  0  0  0  0  0  0  0  0
   16.6012  -11.5718  -15.9750 N   0  0  0  0  0  0  0  0  0  0  0  0
   17.5978   -9.4991  -15.4573 C   0  0  0  0  0  0  0  0  0  0  0  0
   17.0097   -9.6049  -14.3387 O   0  0  0  0  0  0  0  0  0  0  0  0
   22.7463   -6.0053  -14.8917 N   0  0  0  0  0  0  0  0  0  0  0  0
   22.0121   -5.6282  -13.7171 C   0  0  0  0  0  0  0  0  0  0  0  0
   22.5713   -4.8433  -12.9170 O   0  0  0  0  0  0  0  0  0  0  0  0
   20.6380   -6.1700  -13.4907 C   0  0  0  0  0  0  0  0  0  0  0  0
   20.3120   -7.0495  -14.6743 C   0  0  0  0  0  0  0  0  0  0  0  0
   18.9027   -7.5868  -14.6150 C   0  0  2  0  0  0  0  0  0  0  0  0
   18.6075   -8.5052  -15.6669 N   0  0  0  0  0  0  0  0  0  0  0  0
   17.9984   -6.3853  -14.6585 C   0  0  0  0  0  0  0  0  0  0  0  0
   17.5082   -6.0680  -15.7695 O   0  0  0  0  0  0  0  0  0  0  0  0
   17.6886   -5.6326  -13.5632 O   0  0  0  0  0  0  0  0  0  0  0  0
  2  1  1  1
  2  4  1  0
  3  2  1  0
  4  5  2  0
  6  7  1  0
  8  7  1  6
  8 10  1  0
  9  8  1  0
  9  4  1  0
 10 11  2  0
 10 18  1  0
 12 13  1  0
 13 15  1  0
 13 14  2  0
 15 16  1  0
 17 16  1  6
 17 19  1  0
 18 17  1  0
 19 20  2  0
 19 21  1  0
M  END
$$$$
