ASQ.pdb
     RDKit          3D

 21 20  0  0  1  0  0  0  0  0999 V2000
   14.0119  -10.8301  -14.4953 C   0  0  0  0  0  0  0  0  0  0  0  0
   15.4820  -11.1858  -14.5533 C   0  0  2  0  0  0  0  0  0  0  0  0
   15.6693  -12.6197  -14.6409 N   0  0  0  0  0  0  0  0  0  0  0  0
   16.0984  -10.7224  -13.2847 C   0  0  0  0  0  0  0  0  0  0  0  0
   15.9520  -11.3350  -12.2214 O   0  0  0  0  0  0  0  0  0  0  0  0
   19.4525   -7.6313  -11.6625 O   0  0  0  0  0  0  0  0  0  0  0  0
   18.7408   -8.2064  -12.7143 C   0  0  0  0  0  0  0  0  0  0  0  0
   17.5352   -8.9785  -12.1635 C   0  0  2  0  0  0  0  0  0  0  0  0
   16.8712   -9.5430  -13.3189 N   0  0  0  0  0  0  0  0  0  0  0  0
   16.5730   -8.0627  -11.5086 C   0  0  0  0  0  0  0  0  0  0  0  0
   15.7908   -7.3606  -12.2182 O   0  0  0  0  0  0  0  0  0  0  0  0
   12.7116   -8.7905   -8.3954 N   0  0  0  0  0  0  0  0  0  0  0  0
   12.7301   -7.5263   -7.7156 C   0  0  0  0  0  0  0  0  0  0  0  0
   11.6326   -7.0702   -7.3199 O   0  0  0  0  0  0  0  0  0  0  0  0
   14.0253   -6.8111   -7.5060 C   0  0  0  0  0  0  0  0  0  0  0  0
   15.1061   -7.6722   -8.1152 C   0  0  0  0  0  0  0  0  0  0  0  0
   15.5653   -7.1491   -9.4546 C   0  0  2  0  0  0  0  0  0  0  0  0
   16.5402   -7.9838  -10.0790 N   0  0  0  0  0  0  0  0  0  0  0  0
   16.1015   -5.7669   -9.1986 C   0  0  0  0  0  0  0  0  0  0  0  0
   17.3435   -5.6414   -9.0682 O   0  0  0  0  0  0  0  0  0  0  0  0
   15.3140   -4.6567   -9.1022 O   0  0  0  0  0  0  0  0  0  0  0  0
  2  1  1  1
  2  4  1  0
  3  2  1  0
  4  5  2  0
  6  7  1  0
  8  7  1  6
  8 10  1  0
  9  8  1  0
  9  4  1  0
 10 11  2  0
 10 18  1  0
 12 13  1  0
 13 15  1  0
 13 14  2  0
 15 16  1  0
 17 16  1  1
 17 19  1  0
 18 17  1  0
 19 20  2  0
 19 21  1  0
M  END
$$$$
