AMM.pdb
     RDKit          3D

 22 21  0  0  1  0  0  0  0  0999 V2000
   19.2464  -13.5645  -18.5639 C   0  0  0  0  0  0  0  0  0  0  0  0
   20.7410  -13.6928  -18.2911 C   0  0  2  0  0  0  0  0  0  0  0  0
   21.1143  -15.0302  -17.9677 N   0  0  0  0  0  0  0  0  0  0  0  0
   21.1022  -12.6935  -17.2888 C   0  0  0  0  0  0  0  0  0  0  0  0
   20.4052  -12.6099  -16.2454 O   0  0  0  0  0  0  0  0  0  0  0  0
   27.0279  -11.6423  -15.5256 C   0  0  0  0  0  0  0  0  0  0  0  0
   26.4657   -9.9439  -15.3452 S   0  0  0  0  0  0  0  0  0  0  0  0
   24.6654   -9.8324  -15.4643 C   0  0  0  0  0  0  0  0  0  0  0  0
   24.1864  -10.8470  -16.4863 C   0  0  0  0  0  0  0  0  0  0  0  0
   22.6673  -10.9066  -16.5185 C   0  0  2  0  0  0  0  0  0  0  0  0
   22.2203  -11.8501  -17.5161 N   0  0  0  0  0  0  0  0  0  0  0  0
   22.1980   -9.5538  -16.9085 C   0  0  0  0  0  0  0  0  0  0  0  0
   22.4523   -9.1589  -18.0836 O   0  0  0  0  0  0  0  0  0  0  0  0
   16.5925   -7.4639  -17.1387 C   0  0  0  0  0  0  0  0  0  0  0  0
   17.2620   -5.9308  -16.4179 S   0  0  0  0  0  0  0  0  0  0  0  0
   19.0763   -5.8922  -16.6283 C   0  0  0  0  0  0  0  0  0  0  0  0
   19.5886   -7.2601  -16.2975 C   0  0  0  0  0  0  0  0  0  0  0  0
   21.0604   -7.3960  -16.5097 C   0  0  2  0  0  0  0  0  0  0  0  0
   21.4930   -8.7030  -16.0422 N   0  0  0  0  0  0  0  0  0  0  0  0
   21.8126   -6.3584  -15.8046 C   0  0  0  0  0  0  0  0  0  0  0  0
   22.4445   -6.5985  -14.7371 O   0  0  0  0  0  0  0  0  0  0  0  0
   21.8313   -5.0502  -16.3355 O   0  0  0  0  0  0  0  0  0  0  0  0
  2  1  1  1
  2  4  1  0
  3  2  1  0
  4  5  2  0
  4 11  1  0
  6  7  1  0
  7  8  1  0
  8  9  1  0
 10  9  1  6
 10 12  1  0
 11 10  1  0
 12 19  1  0
 12 13  2  0
 14 15  1  0
 15 16  1  0
 16 17  1  0
 18 17  1  1
 18 20  1  0
 19 18  1  0
 20 22  1  0
 21 20  2  0
M  END
$$$$
