AMM.pdb
     RDKit          3D

 22 21  0  0  1  0  0  0  0  0999 V2000
   24.8816  -20.9688  -16.1251 C   0  0  0  0  0  0  0  0  0  0  0  0
   25.9441  -21.5908  -15.2257 C   0  0  2  0  0  0  0  0  0  0  0  0
   26.5480  -22.7362  -15.8221 N   0  0  0  0  0  0  0  0  0  0  0  0
   25.3429  -21.8240  -13.9150 C   0  0  0  0  0  0  0  0  0  0  0  0
   24.5923  -22.8222  -13.7674 O   0  0  0  0  0  0  0  0  0  0  0  0
   25.9873  -20.0055   -6.2422 C   0  0  0  0  0  0  0  0  0  0  0  0
   26.3541  -19.5810   -7.9505 S   0  0  0  0  0  0  0  0  0  0  0  0
   25.3793  -20.5803   -9.0990 C   0  0  0  0  0  0  0  0  0  0  0  0
   25.8580  -20.2960  -10.5109 C   0  0  0  0  0  0  0  0  0  0  0  0
   25.1170  -21.1616  -11.5179 C   0  0  2  0  0  0  0  0  0  0  0  0
   25.6187  -20.9263  -12.8514 N   0  0  0  0  0  0  0  0  0  0  0  0
   23.6941  -20.7428  -11.4712 C   0  0  0  0  0  0  0  0  0  0  0  0
   23.3580  -19.7249  -12.1438 O   0  0  0  0  0  0  0  0  0  0  0  0
   19.2663  -23.8069   -8.1232 C   0  0  0  0  0  0  0  0  0  0  0  0
   18.1531  -23.2134   -9.4373 S   0  0  0  0  0  0  0  0  0  0  0  0
   19.0134  -21.9647  -10.4562 C   0  0  0  0  0  0  0  0  0  0  0  0
   20.4777  -22.0923  -10.1683 C   0  0  0  0  0  0  0  0  0  0  0  0
   21.3092  -21.1287  -10.9492 C   0  0  2  0  0  0  0  0  0  0  0  0
   22.7161  -21.4174  -10.7231 N   0  0  0  0  0  0  0  0  0  0  0  0
   21.0353  -19.7415  -10.5748 C   0  0  0  0  0  0  0  0  0  0  0  0
   21.6845  -19.1536   -9.6641 O   0  0  0  0  0  0  0  0  0  0  0  0
   20.0142  -19.0412  -11.2533 O   0  0  0  0  0  0  0  0  0  0  0  0
  2  1  1  6
  2  4  1  0
  3  2  1  0
  4  5  2  0
  4 11  1  0
  6  7  1  0
  7  8  1  0
  8  9  1  0
 10  9  1  1
 10 12  1  0
 11 10  1  0
 12 19  1  0
 12 13  2  0
 14 15  1  0
 15 16  1  0
 16 17  1  0
 18 17  1  1
 18 20  1  0
 19 18  1  0
 20 22  1  0
 21 20  2  0
M  END
$$$$
