AMM.pdb
     RDKit          3D

 22 21  0  0  1  0  0  0  0  0999 V2000
   17.4696  -12.2866  -13.3432 C   0  0  0  0  0  0  0  0  0  0  0  0
   16.3895  -12.2341  -12.2683 C   0  0  2  0  0  0  0  0  0  0  0  0
   15.2685  -13.0525  -12.5940 N   0  0  0  0  0  0  0  0  0  0  0  0
   16.0742  -10.8303  -12.0163 C   0  0  0  0  0  0  0  0  0  0  0  0
   15.8827  -10.0715  -13.0007 O   0  0  0  0  0  0  0  0  0  0  0  0
   11.5920   -8.7494   -7.7904 C   0  0  0  0  0  0  0  0  0  0  0  0
   13.0361   -7.7566   -7.3877 S   0  0  0  0  0  0  0  0  0  0  0  0
   14.1697   -7.6472   -8.7914 C   0  0  0  0  0  0  0  0  0  0  0  0
   14.6652   -9.0436   -9.1204 C   0  0  0  0  0  0  0  0  0  0  0  0
   15.5259   -9.0309  -10.3740 C   0  0  2  0  0  0  0  0  0  0  0  0
   15.9928  -10.3628  -10.6791 N   0  0  0  0  0  0  0  0  0  0  0  0
   16.7028   -8.1789  -10.0716 C   0  0  0  0  0  0  0  0  0  0  0  0
   17.6654   -8.7071   -9.4423 O   0  0  0  0  0  0  0  0  0  0  0  0
   21.7138   -8.2686  -11.9510 C   0  0  0  0  0  0  0  0  0  0  0  0
   21.4921   -6.5012  -12.3321 S   0  0  0  0  0  0  0  0  0  0  0  0
   20.3223   -5.7565  -11.1428 C   0  0  0  0  0  0  0  0  0  0  0  0
   19.0617   -6.5633  -11.1988 C   0  0  0  0  0  0  0  0  0  0  0  0
   18.0321   -6.1005  -10.2214 C   0  0  2  0  0  0  0  0  0  0  0  0
   16.7947   -6.8294  -10.4480 N   0  0  0  0  0  0  0  0  0  0  0  0
   17.7744   -4.6653  -10.3371 C   0  0  0  0  0  0  0  0  0  0  0  0
   18.5012   -3.8064   -9.7622 O   0  0  0  0  0  0  0  0  0  0  0  0
   16.6798   -4.2298  -11.1154 O   0  0  0  0  0  0  0  0  0  0  0  0
  2  1  1  6
  2  4  1  0
  3  2  1  0
  4  5  2  0
  4 11  1  0
  6  7  1  0
  7  8  1  0
  8  9  1  0
 10  9  1  1
 10 12  1  0
 11 10  1  0
 12 19  1  0
 12 13  2  0
 14 15  1  0
 15 16  1  0
 16 17  1  0
 18 17  1  6
 18 20  1  0
 19 18  1  0
 20 22  1  0
 21 20  2  0
M  END
$$$$
