AMM.pdb
     RDKit          3D

 22 21  0  0  1  0  0  0  0  0999 V2000
   16.8572  -14.0391  -19.0858 C   0  0  0  0  0  0  0  0  0  0  0  0
   17.2376  -13.4472  -17.7331 C   0  0  2  0  0  0  0  0  0  0  0  0
   16.1170  -13.3465  -16.8576 N   0  0  0  0  0  0  0  0  0  0  0  0
   17.9448  -12.1922  -17.9747 C   0  0  0  0  0  0  0  0  0  0  0  0
   19.0671  -12.2343  -18.5406 O   0  0  0  0  0  0  0  0  0  0  0  0
   14.5545   -6.8123  -17.6094 C   0  0  0  0  0  0  0  0  0  0  0  0
   15.1638   -7.1247  -19.2720 S   0  0  0  0  0  0  0  0  0  0  0  0
   16.4004   -8.4432  -19.2810 C   0  0  0  0  0  0  0  0  0  0  0  0
   16.9645   -8.5841  -17.8790 C   0  0  0  0  0  0  0  0  0  0  0  0
   17.9955   -9.7003  -17.8205 C   0  0  2  0  0  0  0  0  0  0  0  0
   17.3526  -10.9685  -17.5683 N   0  0  0  0  0  0  0  0  0  0  0  0
   18.8897   -9.3920  -16.6768 C   0  0  0  0  0  0  0  0  0  0  0  0
   18.5210   -9.7639  -15.5247 O   0  0  0  0  0  0  0  0  0  0  0  0
   22.6914  -12.1851  -13.3440 C   0  0  0  0  0  0  0  0  0  0  0  0
   23.7778  -10.9404  -14.1113 S   0  0  0  0  0  0  0  0  0  0  0  0
   22.8584   -9.3788  -14.3428 C   0  0  0  0  0  0  0  0  0  0  0  0
   21.9103   -9.5892  -15.4831 C   0  0  0  0  0  0  0  0  0  0  0  0
   20.9359   -8.4690  -15.6423 C   0  0  2  0  0  0  0  0  0  0  0  0
   20.1116   -8.7143  -16.8146 N   0  0  0  0  0  0  0  0  0  0  0  0
   21.6066   -7.1771  -15.7862 C   0  0  0  0  0  0  0  0  0  0  0  0
   21.8577   -6.6759  -16.9186 O   0  0  0  0  0  0  0  0  0  0  0  0
   21.9834   -6.4713  -14.6228 O   0  0  0  0  0  0  0  0  0  0  0  0
  2  1  1  6
  2  4  1  0
  3  2  1  0
  4  5  2  0
  4 11  1  0
  6  7  1  0
  7  8  1  0
  8  9  1  0
 10  9  1  1
 10 12  1  0
 11 10  1  0
 12 19  1  0
 12 13  2  0
 14 15  1  0
 15 16  1  0
 16 17  1  0
 18 17  1  6
 18 20  1  0
 19 18  1  0
 20 22  1  0
 21 20  2  0
M  END
$$$$
