AMM.pdb
     RDKit          3D

 22 21  0  0  1  0  0  0  0  0999 V2000
   28.6874  -19.3942  -15.8339 C   0  0  0  0  0  0  0  0  0  0  0  0
   27.4302  -20.2532  -15.7542 C   0  0  2  0  0  0  0  0  0  0  0  0
   27.0039  -20.7005  -17.0389 N   0  0  0  0  0  0  0  0  0  0  0  0
   26.4260  -19.5108  -14.9964 C   0  0  0  0  0  0  0  0  0  0  0  0
   26.7012  -19.1554  -13.8219 O   0  0  0  0  0  0  0  0  0  0  0  0
   26.9002  -15.8879  -15.4781 C   0  0  0  0  0  0  0  0  0  0  0  0
   25.3578  -14.9778  -15.6399 S   0  0  0  0  0  0  0  0  0  0  0  0
   23.9680  -15.9166  -14.9656 C   0  0  0  0  0  0  0  0  0  0  0  0
   23.8184  -17.1975  -15.7659 C   0  0  0  0  0  0  0  0  0  0  0  0
   24.1867  -18.4082  -14.9227 C   0  0  2  0  0  0  0  0  0  0  0  0
   25.1769  -19.2122  -15.5996 N   0  0  0  0  0  0  0  0  0  0  0  0
   22.9493  -19.2142  -14.7748 C   0  0  0  0  0  0  0  0  0  0  0  0
   22.7751  -20.1775  -15.5769 O   0  0  0  0  0  0  0  0  0  0  0  0
   20.9930  -20.8325   -9.3773 C   0  0  0  0  0  0  0  0  0  0  0  0
   19.8415  -21.9171  -10.2806 S   0  0  0  0  0  0  0  0  0  0  0  0
   19.7090  -21.3651  -12.0170 C   0  0  0  0  0  0  0  0  0  0  0  0
   20.8910  -20.4876  -12.2931 C   0  0  0  0  0  0  0  0  0  0  0  0
   20.8470  -19.8637  -13.6489 C   0  0  2  0  0  0  0  0  0  0  0  0
   21.9753  -18.9586  -13.7965 N   0  0  0  0  0  0  0  0  0  0  0  0
   19.6042  -19.1251  -13.8709 C   0  0  0  0  0  0  0  0  0  0  0  0
   19.5540  -17.8643  -13.8046 O   0  0  0  0  0  0  0  0  0  0  0  0
   18.4268  -19.8456  -14.1681 O   0  0  0  0  0  0  0  0  0  0  0  0
  2  1  1  6
  2  4  1  0
  3  2  1  0
  4  5  2  0
  4 11  1  0
  6  7  1  0
  7  8  1  0
  8  9  1  0
 10  9  1  6
 10 12  1  0
 11 10  1  0
 12 19  1  0
 12 13  2  0
 14 15  1  0
 15 16  1  0
 16 17  1  0
 18 17  1  1
 18 20  1  0
 19 18  1  0
 20 22  1  0
 21 20  2  0
M  END
$$$$
