AMM.pdb
     RDKit          3D

 22 21  0  0  1  0  0  0  0  0999 V2000
   28.7459  -19.8931  -15.8742 C   0  0  0  0  0  0  0  0  0  0  0  0
   27.4792  -19.2231  -15.3534 C   0  0  2  0  0  0  0  0  0  0  0  0
   27.7406  -17.9319  -14.8085 N   0  0  0  0  0  0  0  0  0  0  0  0
   26.8210  -20.1545  -14.4407 C   0  0  0  0  0  0  0  0  0  0  0  0
   26.4995  -21.2915  -14.8714 O   0  0  0  0  0  0  0  0  0  0  0  0
   27.5872  -20.4857   -7.9295 C   0  0  0  0  0  0  0  0  0  0  0  0
   25.8047  -20.6472   -8.1019 S   0  0  0  0  0  0  0  0  0  0  0  0
   25.3470  -21.1007   -9.7908 C   0  0  0  0  0  0  0  0  0  0  0  0
   26.1301  -20.2267  -10.7534 C   0  0  0  0  0  0  0  0  0  0  0  0
   25.8240  -20.6008  -12.1951 C   0  0  2  0  0  0  0  0  0  0  0  0
   26.5634  -19.7562  -13.1035 N   0  0  0  0  0  0  0  0  0  0  0  0
   24.3750  -20.3535  -12.3989 C   0  0  0  0  0  0  0  0  0  0  0  0
   23.9803  -19.1512  -12.4190 O   0  0  0  0  0  0  0  0  0  0  0  0
   20.8241  -24.5686  -15.2598 C   0  0  0  0  0  0  0  0  0  0  0  0
   19.6468  -23.1872  -15.4143 S   0  0  0  0  0  0  0  0  0  0  0  0
   20.1191  -21.8441  -14.2696 C   0  0  0  0  0  0  0  0  0  0  0  0
   21.5567  -22.0574  -13.9073 C   0  0  0  0  0  0  0  0  0  0  0  0
   22.0636  -21.0526  -12.9260 C   0  0  2  0  0  0  0  0  0  0  0  0
   23.4339  -21.3816  -12.5683 N   0  0  0  0  0  0  0  0  0  0  0  0
   21.2456  -21.0110  -11.7141 C   0  0  0  0  0  0  0  0  0  0  0  0
   21.5388  -21.6835  -10.6854 O   0  0  0  0  0  0  0  0  0  0  0  0
   20.0944  -20.1937  -11.6964 O   0  0  0  0  0  0  0  0  0  0  0  0
  2  1  1  1
  2  4  1  0
  3  2  1  0
  4  5  2  0
  4 11  1  0
  6  7  1  0
  7  8  1  0
  8  9  1  0
 10  9  1  1
 10 12  1  0
 11 10  1  0
 12 19  1  0
 12 13  2  0
 14 15  1  0
 15 16  1  0
 16 17  1  0
 18 17  1  6
 18 20  1  0
 19 18  1  0
 20 22  1  0
 21 20  2  0
M  END
$$$$
