AMM.pdb
     RDKit          3D

 22 21  0  0  1  0  0  0  0  0999 V2000
   22.8982  -24.7808  -16.5631 C   0  0  0  0  0  0  0  0  0  0  0  0
   23.5646  -25.0383  -15.2161 C   0  0  2  0  0  0  0  0  0  0  0  0
   22.8551  -26.0029  -14.4424 N   0  0  0  0  0  0  0  0  0  0  0  0
   23.7641  -23.7487  -14.5597 C   0  0  0  0  0  0  0  0  0  0  0  0
   22.8033  -22.9381  -14.5233 O   0  0  0  0  0  0  0  0  0  0  0  0
   25.5435  -19.6804   -9.1786 C   0  0  0  0  0  0  0  0  0  0  0  0
   25.4110  -21.1178  -10.2508 S   0  0  0  0  0  0  0  0  0  0  0  0
   26.6792  -21.0950  -11.5388 C   0  0  0  0  0  0  0  0  0  0  0  0
   26.5061  -22.3276  -12.4072 C   0  0  0  0  0  0  0  0  0  0  0  0
   25.2447  -22.2228  -13.2500 C   0  0  2  0  0  0  0  0  0  0  0  0
   25.0256  -23.4464  -13.9849 N   0  0  0  0  0  0  0  0  0  0  0  0
   25.4747  -21.1259  -14.2229 C   0  0  0  0  0  0  0  0  0  0  0  0
   26.2797  -21.3431  -15.1750 O   0  0  0  0  0  0  0  0  0  0  0  0
   20.9713  -16.8688  -15.5658 C   0  0  0  0  0  0  0  0  0  0  0  0
   22.4097  -15.8466  -16.0180 S   0  0  0  0  0  0  0  0  0  0  0  0
   23.8794  -16.9106  -16.2303 C   0  0  0  0  0  0  0  0  0  0  0  0
   23.8623  -17.9145  -15.1189 C   0  0  0  0  0  0  0  0  0  0  0  0
   24.9390  -18.9412  -15.2471 C   0  0  2  0  0  0  0  0  0  0  0  0
   24.8467  -19.8734  -14.1351 N   0  0  0  0  0  0  0  0  0  0  0  0
   26.2713  -18.3376  -15.2610 C   0  0  0  0  0  0  0  0  0  0  0  0
   26.9927  -18.2844  -14.2250 O   0  0  0  0  0  0  0  0  0  0  0  0
   26.7630  -17.7989  -16.4700 O   0  0  0  0  0  0  0  0  0  0  0  0
  2  1  1  6
  2  4  1  0
  3  2  1  0
  4  5  2  0
  4 11  1  0
  6  7  1  0
  7  8  1  0
  8  9  1  0
 10  9  1  1
 10 12  1  0
 11 10  1  0
 12 19  1  0
 12 13  2  0
 14 15  1  0
 15 16  1  0
 16 17  1  0
 18 17  1  1
 18 20  1  0
 19 18  1  0
 20 22  1  0
 21 20  2  0
M  END
$$$$
