AMM.pdb
     RDKit          3D

 22 21  0  0  1  0  0  0  0  0999 V2000
   26.9834  -20.1440  -16.7037 C   0  0  0  0  0  0  0  0  0  0  0  0
   27.6243  -20.9350  -15.5686 C   0  0  2  0  0  0  0  0  0  0  0  0
   28.4055  -22.0261  -16.0497 N   0  0  0  0  0  0  0  0  0  0  0  0
   26.5708  -21.3009  -14.6253 C   0  0  0  0  0  0  0  0  0  0  0  0
   25.7068  -22.1407  -14.9857 O   0  0  0  0  0  0  0  0  0  0  0  0
   26.4596  -18.9066   -8.3236 C   0  0  0  0  0  0  0  0  0  0  0  0
   25.8571  -20.5991   -8.2490 S   0  0  0  0  0  0  0  0  0  0  0  0
   25.1871  -21.1282   -9.8423 C   0  0  0  0  0  0  0  0  0  0  0  0
   26.1403  -20.6846  -10.9370 C   0  0  0  0  0  0  0  0  0  0  0  0
   25.6842  -21.1997  -12.2930 C   0  0  2  0  0  0  0  0  0  0  0  0
   26.5493  -20.7048  -13.3379 N   0  0  0  0  0  0  0  0  0  0  0  0
   24.3210  -20.6570  -12.5162 C   0  0  0  0  0  0  0  0  0  0  0  0
   24.2141  -19.4228  -12.7748 O   0  0  0  0  0  0  0  0  0  0  0  0
   19.4554  -24.1742  -14.4364 C   0  0  0  0  0  0  0  0  0  0  0  0
   18.4469  -22.8548  -13.6878 S   0  0  0  0  0  0  0  0  0  0  0  0
   19.5029  -21.4138  -13.3057 C   0  0  0  0  0  0  0  0  0  0  0  0
   20.8877  -21.9318  -13.0670 C   0  0  0  0  0  0  0  0  0  0  0  0
   21.8694  -20.8477  -12.7660 C   0  0  2  0  0  0  0  0  0  0  0  0
   23.1589  -21.4424  -12.4539 N   0  0  0  0  0  0  0  0  0  0  0  0
   21.4378  -20.0154  -11.6433 C   0  0  0  0  0  0  0  0  0  0  0  0
   20.8264  -18.9233  -11.8161 O   0  0  0  0  0  0  0  0  0  0  0  0
   21.7142  -20.4483  -10.3280 O   0  0  0  0  0  0  0  0  0  0  0  0
  2  1  1  6
  2  4  1  0
  3  2  1  0
  4  5  2  0
  4 11  1  0
  6  7  1  0
  7  8  1  0
  8  9  1  0
 10  9  1  1
 10 12  1  0
 11 10  1  0
 12 19  1  0
 12 13  2  0
 14 15  1  0
 15 16  1  0
 16 17  1  0
 18 17  1  1
 18 20  1  0
 19 18  1  0
 20 22  1  0
 21 20  2  0
M  END
$$$$
