AMM.pdb
     RDKit          3D

 22 21  0  0  1  0  0  0  0  0999 V2000
   18.4062  -16.4949  -18.1513 C   0  0  0  0  0  0  0  0  0  0  0  0
   18.1843  -15.9851  -16.7316 C   0  0  2  0  0  0  0  0  0  0  0  0
   18.0701  -17.0504  -15.7910 N   0  0  0  0  0  0  0  0  0  0  0  0
   17.0521  -15.0626  -16.7573 C   0  0  0  0  0  0  0  0  0  0  0  0
   16.7883  -14.4649  -17.8319 O   0  0  0  0  0  0  0  0  0  0  0  0
   10.0844  -13.3841  -13.5489 C   0  0  0  0  0  0  0  0  0  0  0  0
   11.5902  -14.3668  -13.5602 S   0  0  0  0  0  0  0  0  0  0  0  0
   12.8536  -13.6199  -14.6155 C   0  0  0  0  0  0  0  0  0  0  0  0
   14.0728  -14.5237  -14.6209 C   0  0  0  0  0  0  0  0  0  0  0  0
   15.1383  -13.9893  -15.5650 C   0  0  2  0  0  0  0  0  0  0  0  0
   16.2855  -14.8662  -15.5795 N   0  0  0  0  0  0  0  0  0  0  0  0
   15.5609  -12.6728  -15.0259 C   0  0  0  0  0  0  0  0  0  0  0  0
   16.3140  -12.6677  -14.0089 O   0  0  0  0  0  0  0  0  0  0  0  0
   18.0040   -5.4823  -16.3978 C   0  0  0  0  0  0  0  0  0  0  0  0
   17.6015   -7.1911  -16.8840 S   0  0  0  0  0  0  0  0  0  0  0  0
   16.7020   -8.0218  -15.5280 C   0  0  0  0  0  0  0  0  0  0  0  0
   16.2749   -9.3636  -16.0381 C   0  0  0  0  0  0  0  0  0  0  0  0
   15.6208  -10.2021  -14.9899 C   0  0  2  0  0  0  0  0  0  0  0  0
   15.1670  -11.4476  -15.5872 N   0  0  0  0  0  0  0  0  0  0  0  0
   14.4827   -9.5193  -14.3751 C   0  0  0  0  0  0  0  0  0  0  0  0
   13.2953   -9.7212  -14.7569 O   0  0  0  0  0  0  0  0  0  0  0  0
   14.7215   -8.6080  -13.3234 O   0  0  0  0  0  0  0  0  0  0  0  0
  2  1  1  6
  2  4  1  0
  3  2  1  0
  4  5  2  0
  4 11  1  0
  6  7  1  0
  7  8  1  0
  8  9  1  0
 10  9  1  1
 10 12  1  0
 11 10  1  0
 12 19  1  0
 12 13  2  0
 14 15  1  0
 15 16  1  0
 16 17  1  0
 18 17  1  6
 18 20  1  0
 19 18  1  0
 20 22  1  0
 21 20  2  0
M  END
$$$$
