AMM.pdb
     RDKit          3D

 22 21  0  0  1  0  0  0  0  0999 V2000
   15.2753  -10.9664  -15.1405 C   0  0  0  0  0  0  0  0  0  0  0  0
   16.7885  -10.8197  -15.2558 C   0  0  2  0  0  0  0  0  0  0  0  0
   17.4327  -12.0709  -15.4843 N   0  0  0  0  0  0  0  0  0  0  0  0
   17.2600  -10.0899  -14.0817 C   0  0  0  0  0  0  0  0  0  0  0  0
   17.3148  -10.6947  -12.9804 O   0  0  0  0  0  0  0  0  0  0  0  0
   22.3136   -6.9271  -10.5868 C   0  0  0  0  0  0  0  0  0  0  0  0
   21.4092   -7.5790  -11.9975 S   0  0  0  0  0  0  0  0  0  0  0  0
   20.1231   -6.4305  -12.5404 C   0  0  0  0  0  0  0  0  0  0  0  0
   19.3470   -7.0769  -13.6733 C   0  0  0  0  0  0  0  0  0  0  0  0
   18.2841   -8.0200  -13.1317 C   0  0  2  0  0  0  0  0  0  0  0  0
   17.6408   -8.7294  -14.2125 N   0  0  0  0  0  0  0  0  0  0  0  0
   17.2695   -7.1728  -12.4570 C   0  0  0  0  0  0  0  0  0  0  0  0
   16.5085   -6.4725  -13.1865 O   0  0  0  0  0  0  0  0  0  0  0  0
   13.1773   -5.8644   -5.8425 C   0  0  0  0  0  0  0  0  0  0  0  0
   14.5218   -6.7217   -6.7233 S   0  0  0  0  0  0  0  0  0  0  0  0
   14.6758   -6.0507   -8.4155 C   0  0  0  0  0  0  0  0  0  0  0  0
   15.7968   -6.7868   -9.0824 C   0  0  0  0  0  0  0  0  0  0  0  0
   16.0314   -6.3384  -10.4872 C   0  0  2  0  0  0  0  0  0  0  0  0
   17.1181   -7.1144  -11.0624 N   0  0  0  0  0  0  0  0  0  0  0  0
   16.3641   -4.9159  -10.5588 C   0  0  0  0  0  0  0  0  0  0  0  0
   15.4734   -4.0198  -10.5655 O   0  0  0  0  0  0  0  0  0  0  0  0
   17.7225   -4.5359  -10.6222 O   0  0  0  0  0  0  0  0  0  0  0  0
  2  1  1  1
  2  4  1  0
  3  2  1  0
  4  5  2  0
  4 11  1  0
  6  7  1  0
  7  8  1  0
  8  9  1  0
 10  9  1  6
 10 12  1  0
 11 10  1  0
 12 19  1  0
 12 13  2  0
 14 15  1  0
 15 16  1  0
 16 17  1  0
 18 17  1  1
 18 20  1  0
 19 18  1  0
 20 22  1  0
 21 20  2  0
M  END
$$$$
