LNR.pdb
     RDKit          3D

 28 27  0  0  1  0  0  0  0  0999 V2000
   27.9519  -17.1847  -18.9246 C   0  0  0  0  0  0  0  0  0  0  0  0
   28.5209  -18.5792  -18.8124 C   0  0  2  0  0  0  0  0  0  0  0  0
   29.0304  -18.9960  -20.1734 C   0  0  0  0  0  0  0  0  0  0  0  0
   27.4162  -19.5285  -18.4206 C   0  0  0  0  0  0  0  0  0  0  0  0
   26.7492  -19.1030  -17.1241 C   0  0  2  0  0  0  0  0  0  0  0  0
   27.7693  -19.1884  -16.0883 N   0  0  0  0  0  0  0  0  0  0  0  0
   25.6774  -20.1068  -16.8368 C   0  0  0  0  0  0  0  0  0  0  0  0
   24.7589  -20.3553  -17.6416 O   0  0  0  0  0  0  0  0  0  0  0  0
   24.5508  -25.2733  -14.8130 N   0  0  0  0  0  0  0  0  0  0  0  0
   24.3701  -23.9905  -14.2029 C   0  0  0  0  0  0  0  0  0  0  0  0
   23.3320  -23.8509  -13.5112 O   0  0  0  0  0  0  0  0  0  0  0  0
   25.3763  -22.9377  -14.4109 C   0  0  0  0  0  0  0  0  0  0  0  0
   24.7834  -21.8250  -15.2037 C   0  0  2  0  0  0  0  0  0  0  0  0
   25.6854  -20.8129  -15.6135 N   0  0  0  0  0  0  0  0  0  0  0  0
   23.5905  -21.2167  -14.5378 C   0  0  0  0  0  0  0  0  0  0  0  0
   23.7946  -20.1627  -13.8968 O   0  0  0  0  0  0  0  0  0  0  0  0
   18.4423  -24.7394  -11.2982 N   0  0  0  0  0  0  0  0  0  0  0  0
   17.6323  -23.5916  -11.0472 C   0  0  0  0  0  0  0  0  0  0  0  0
   16.4488  -23.7814  -10.6295 N   0  0  0  0  0  0  0  0  0  0  0  0
   18.1962  -22.3038  -11.2792 N   0  0  0  0  0  0  0  0  0  0  0  0
   19.2019  -22.1797  -12.3159 C   0  0  0  0  0  0  0  0  0  0  0  0
   20.4484  -21.6017  -11.6592 C   0  0  0  0  0  0  0  0  0  0  0  0
   21.1567  -20.7321  -12.6534 C   0  0  0  0  0  0  0  0  0  0  0  0
   21.0907  -21.2729  -14.0630 C   0  0  2  0  0  0  0  0  0  0  0  0
   22.2997  -21.7742  -14.6098 N   0  0  0  0  0  0  0  0  0  0  0  0
   20.2662  -20.4265  -14.9233 C   0  0  0  0  0  0  0  0  0  0  0  0
   19.0601  -20.6597  -15.1616 O   0  0  0  0  0  0  0  0  0  0  0  0
   20.8622  -19.3082  -15.5010 O   0  0  0  0  0  0  0  0  0  0  0  0
  2  1  1  6
  3  2  1  0
  4  2  1  0
  5  4  1  0
  5  6  1  1
  7  5  1  0
  8  7  2  0
  9 10  1  0
 10 12  1  0
 10 11  2  0
 13 12  1  1
 13 14  1  0
 14  7  1  0
 15 25  1  0
 15 13  1  0
 16 15  2  0
 18 19  2  0
 18 17  1  0
 20 18  1  0
 21 20  1  0
 22 21  1  0
 23 22  1  0
 24 23  1  1
 24 25  1  0
 26 28  1  0
 26 24  1  0
 27 26  2  0
M  END
$$$$
