LNR.pdb
     RDKit          3D

 28 27  0  0  1  0  0  0  0  0999 V2000
   39.7886   -7.5796  -11.3541 C   0  0  0  0  0  0  0  0  0  0  0  0
   39.5731   -7.1914  -12.7976 C   0  0  2  0  0  0  0  0  0  0  0  0
   40.5992   -6.1442  -13.1668 C   0  0  0  0  0  0  0  0  0  0  0  0
   38.2059   -6.5702  -12.9386 C   0  0  0  0  0  0  0  0  0  0  0  0
   37.1395   -7.6214  -13.1931 C   0  0  2  0  0  0  0  0  0  0  0  0
   37.6083   -8.4206  -14.3166 N   0  0  0  0  0  0  0  0  0  0  0  0
   35.8977   -6.8916  -13.5983 C   0  0  0  0  0  0  0  0  0  0  0  0
   35.4615   -5.9095  -12.9673 O   0  0  0  0  0  0  0  0  0  0  0  0
   32.1392   -5.2568  -16.5732 N   0  0  0  0  0  0  0  0  0  0  0  0
   33.3573   -4.5253  -16.3953 C   0  0  0  0  0  0  0  0  0  0  0  0
   33.3377   -3.3252  -16.7626 O   0  0  0  0  0  0  0  0  0  0  0  0
   34.5294   -5.1951  -15.8110 C   0  0  0  0  0  0  0  0  0  0  0  0
   34.1734   -6.5902  -15.4298 C   0  0  2  0  0  0  0  0  0  0  0  0
   35.1745   -7.3129  -14.7362 N   0  0  0  0  0  0  0  0  0  0  0  0
   33.6648   -7.3902  -16.5864 C   0  0  0  0  0  0  0  0  0  0  0  0
   34.5150   -7.7307  -17.4376 O   0  0  0  0  0  0  0  0  0  0  0  0
   25.8963  -11.5520  -18.0181 N   0  0  0  0  0  0  0  0  0  0  0  0
   26.6897  -11.8895  -19.1552 C   0  0  0  0  0  0  0  0  0  0  0  0
   26.2127  -12.7243  -19.9839 N   0  0  0  0  0  0  0  0  0  0  0  0
   27.9666  -11.2726  -19.2944 N   0  0  0  0  0  0  0  0  0  0  0  0
   28.3863  -10.3413  -18.2659 C   0  0  0  0  0  0  0  0  0  0  0  0
   29.8001   -9.8978  -18.6179 C   0  0  0  0  0  0  0  0  0  0  0  0
   30.2908   -8.9645  -17.5527 C   0  0  0  0  0  0  0  0  0  0  0  0
   31.7132   -8.5070  -17.7787 C   0  0  2  0  0  0  0  0  0  0  0  0
   32.3132   -7.7548  -16.7365 N   0  0  0  0  0  0  0  0  0  0  0  0
   31.9127   -8.0339  -19.1472 C   0  0  0  0  0  0  0  0  0  0  0  0
   31.4741   -6.9389  -19.5648 O   0  0  0  0  0  0  0  0  0  0  0  0
   32.6276   -8.8496  -20.0207 O   0  0  0  0  0  0  0  0  0  0  0  0
  2  1  1  1
  3  2  1  0
  4  2  1  0
  5  4  1  0
  5  6  1  6
  7  5  1  0
  8  7  2  0
  9 10  1  0
 10 12  1  0
 10 11  2  0
 13 12  1  6
 13 14  1  0
 14  7  1  0
 15 25  1  0
 15 13  1  0
 16 15  2  0
 18 19  2  0
 18 17  1  0
 20 18  1  0
 21 20  1  0
 22 21  1  0
 23 22  1  0
 24 23  1  1
 24 25  1  0
 26 28  1  0
 26 24  1  0
 27 26  2  0
M  END
$$$$
