LNR.pdb
     RDKit          3D

 28 27  0  0  1  0  0  0  0  0999 V2000
   24.8749  -12.9266  -23.2570 C   0  0  0  0  0  0  0  0  0  0  0  0
   25.6411  -11.9980  -22.3452 C   0  0  2  0  0  0  0  0  0  0  0  0
   26.9599  -11.6646  -23.0051 C   0  0  0  0  0  0  0  0  0  0  0  0
   25.9384  -12.7163  -21.0526 C   0  0  0  0  0  0  0  0  0  0  0  0
   24.6691  -13.2308  -20.3961 C   0  0  2  0  0  0  0  0  0  0  0  0
   23.9032  -12.0563  -20.0027 N   0  0  0  0  0  0  0  0  0  0  0  0
   25.0863  -13.9750  -19.1670 C   0  0  0  0  0  0  0  0  0  0  0  0
   25.9160  -14.9044  -19.1956 O   0  0  0  0  0  0  0  0  0  0  0  0
   27.1351  -14.0867  -15.4560 N   0  0  0  0  0  0  0  0  0  0  0  0
   26.0665  -13.3246  -14.8835 C   0  0  0  0  0  0  0  0  0  0  0  0
   26.3644  -12.6196  -13.8885 O   0  0  0  0  0  0  0  0  0  0  0  0
   24.7202  -13.4042  -15.4707 C   0  0  0  0  0  0  0  0  0  0  0  0
   24.7476  -14.2803  -16.6749 C   0  0  2  0  0  0  0  0  0  0  0  0
   24.5328  -13.6294  -17.9142 N   0  0  0  0  0  0  0  0  0  0  0  0
   23.8404  -15.4622  -16.5468 C   0  0  0  0  0  0  0  0  0  0  0  0
   22.6545  -15.2881  -16.9025 O   0  0  0  0  0  0  0  0  0  0  0  0
   25.3148  -23.8713  -13.8530 N   0  0  0  0  0  0  0  0  0  0  0  0
   23.9353  -23.8557  -14.2176 C   0  0  0  0  0  0  0  0  0  0  0  0
   23.3087  -24.9595  -14.2134 N   0  0  0  0  0  0  0  0  0  0  0  0
   23.3429  -22.6070  -14.5643 N   0  0  0  0  0  0  0  0  0  0  0  0
   24.1958  -21.4351  -14.5908 C   0  0  0  0  0  0  0  0  0  0  0  0
   23.3539  -20.2846  -15.1265 C   0  0  0  0  0  0  0  0  0  0  0  0
   24.2179  -19.0644  -15.2316 C   0  0  0  0  0  0  0  0  0  0  0  0
   23.4938  -17.8780  -15.8245 C   0  0  2  0  0  0  0  0  0  0  0  0
   24.2667  -16.7117  -16.0576 N   0  0  0  0  0  0  0  0  0  0  0  0
   22.1753  -17.6983  -15.2197 C   0  0  0  0  0  0  0  0  0  0  0  0
   21.1216  -18.1421  -15.7281 O   0  0  0  0  0  0  0  0  0  0  0  0
   22.0996  -16.9973  -14.0187 O   0  0  0  0  0  0  0  0  0  0  0  0
  2  1  1  6
  3  2  1  0
  4  2  1  0
  5  4  1  0
  5  6  1  1
  7  5  1  0
  8  7  2  0
  9 10  1  0
 10 12  1  0
 10 11  2  0
 13 12  1  1
 13 14  1  0
 14  7  1  0
 15 25  1  0
 15 13  1  0
 16 15  2  0
 18 19  2  0
 18 17  1  0
 20 18  1  0
 21 20  1  0
 22 21  1  0
 23 22  1  0
 24 23  1  1
 24 25  1  0
 26 28  1  0
 26 24  1  0
 27 26  2  0
M  END
$$$$
