LNR.pdb
     RDKit          3D

 28 27  0  0  1  0  0  0  0  0999 V2000
   26.7766  -20.9208   -6.1794 C   0  0  0  0  0  0  0  0  0  0  0  0
   27.5943  -20.2350   -7.2480 C   0  0  2  0  0  0  0  0  0  0  0  0
   28.1956  -18.9808   -6.6552 C   0  0  0  0  0  0  0  0  0  0  0  0
   26.6802  -19.8227   -8.3747 C   0  0  0  0  0  0  0  0  0  0  0  0
   26.1103  -21.0293   -9.1001 C   0  0  2  0  0  0  0  0  0  0  0  0
   27.2273  -21.9329   -9.3379 N   0  0  0  0  0  0  0  0  0  0  0  0
   25.5902  -20.5402  -10.4151 C   0  0  0  0  0  0  0  0  0  0  0  0
   24.7488  -19.6253  -10.5045 O   0  0  0  0  0  0  0  0  0  0  0  0
   29.1382  -20.6182  -13.2843 N   0  0  0  0  0  0  0  0  0  0  0  0
   27.8755  -20.0366  -13.6272 C   0  0  0  0  0  0  0  0  0  0  0  0
   27.8243  -18.7825  -13.6111 O   0  0  0  0  0  0  0  0  0  0  0  0
   26.7415  -20.9089  -13.9691 C   0  0  0  0  0  0  0  0  0  0  0  0
   25.6768  -20.7780  -12.9359 C   0  0  2  0  0  0  0  0  0  0  0  0
   26.0555  -21.1218  -11.6152 N   0  0  0  0  0  0  0  0  0  0  0  0
   24.4172  -21.4893  -13.3150 C   0  0  0  0  0  0  0  0  0  0  0  0
   24.3134  -22.6726  -12.9247 O   0  0  0  0  0  0  0  0  0  0  0  0
   17.0564  -21.9367  -11.6150 N   0  0  0  0  0  0  0  0  0  0  0  0
   17.1686  -23.1214  -12.4026 C   0  0  0  0  0  0  0  0  0  0  0  0
   16.1011  -23.6286  -12.8655 N   0  0  0  0  0  0  0  0  0  0  0  0
   18.4673  -23.6648  -12.6231 N   0  0  0  0  0  0  0  0  0  0  0  0
   19.5981  -22.9873  -12.0200 C   0  0  0  0  0  0  0  0  0  0  0  0
   19.8834  -21.7560  -12.8695 C   0  0  0  0  0  0  0  0  0  0  0  0
   21.3381  -21.4155  -12.7499 C   0  0  0  0  0  0  0  0  0  0  0  0
   22.0085  -21.2123  -14.0888 C   0  0  2  0  0  0  0  0  0  0  0  0
   23.3894  -20.8890  -14.0669 N   0  0  0  0  0  0  0  0  0  0  0  0
   21.1573  -20.4550  -15.0046 C   0  0  0  0  0  0  0  0  0  0  0  0
   21.1123  -19.2047  -15.0230 O   0  0  0  0  0  0  0  0  0  0  0  0
   20.3616  -21.1702  -15.8961 O   0  0  0  0  0  0  0  0  0  0  0  0
  2  1  1  1
  3  2  1  0
  4  2  1  0
  5  4  1  0
  5  6  1  6
  7  5  1  0
  8  7  2  0
  9 10  1  0
 10 12  1  0
 10 11  2  0
 13 12  1  6
 13 14  1  0
 14  7  1  0
 15 25  1  0
 15 13  1  0
 16 15  2  0
 18 19  2  0
 18 17  1  0
 20 18  1  0
 21 20  1  0
 22 21  1  0
 23 22  1  0
 24 23  1  1
 24 25  1  0
 26 28  1  0
 26 24  1  0
 27 26  2  0
M  END
$$$$
