LNR.pdb
     RDKit          3D

 28 27  0  0  1  0  0  0  0  0999 V2000
   26.4722  -13.6222  -16.4669 C   0  0  0  0  0  0  0  0  0  0  0  0
   27.3078  -14.6597  -17.1782 C   0  0  2  0  0  0  0  0  0  0  0  0
   27.5640  -14.1789  -18.5885 C   0  0  0  0  0  0  0  0  0  0  0  0
   26.5240  -15.9457  -17.2625 C   0  0  0  0  0  0  0  0  0  0  0  0
   26.1070  -16.4356  -15.8867 C   0  0  2  0  0  0  0  0  0  0  0  0
   27.3368  -16.6927  -15.1503 N   0  0  0  0  0  0  0  0  0  0  0  0
   25.3796  -17.7276  -16.0873 C   0  0  0  0  0  0  0  0  0  0  0  0
   24.5834  -17.9093  -17.0287 O   0  0  0  0  0  0  0  0  0  0  0  0
   27.2109  -22.5740  -15.8672 N   0  0  0  0  0  0  0  0  0  0  0  0
   26.9930  -21.3893  -15.0930 C   0  0  0  0  0  0  0  0  0  0  0  0
   27.9726  -20.6113  -14.9892 O   0  0  0  0  0  0  0  0  0  0  0  0
   25.6769  -21.1527  -14.4800 C   0  0  0  0  0  0  0  0  0  0  0  0
   24.9663  -20.0706  -15.2164 C   0  0  2  0  0  0  0  0  0  0  0  0
   25.5864  -18.7976  -15.1887 N   0  0  0  0  0  0  0  0  0  0  0  0
   23.5286  -19.9547  -14.8215 C   0  0  0  0  0  0  0  0  0  0  0  0
   23.2897  -19.2678  -13.8045 O   0  0  0  0  0  0  0  0  0  0  0  0
   16.3982  -15.9917  -14.2748 N   0  0  0  0  0  0  0  0  0  0  0  0
   17.2262  -16.4559  -13.2093 C   0  0  0  0  0  0  0  0  0  0  0  0
   16.9462  -16.0739  -12.0317 N   0  0  0  0  0  0  0  0  0  0  0  0
   18.3153  -17.3179  -13.5273 N   0  0  0  0  0  0  0  0  0  0  0  0
   18.5239  -17.6629  -14.9197 C   0  0  0  0  0  0  0  0  0  0  0  0
   19.0204  -19.1022  -14.9515 C   0  0  0  0  0  0  0  0  0  0  0  0
   20.4929  -19.0972  -15.2309 C   0  0  0  0  0  0  0  0  0  0  0  0
   21.0855  -20.4857  -15.2981 C   0  0  2  0  0  0  0  0  0  0  0  0
   22.4817  -20.5714  -15.5330 N   0  0  0  0  0  0  0  0  0  0  0  0
   20.2231  -21.4006  -16.0436 C   0  0  0  0  0  0  0  0  0  0  0  0
   18.9887  -21.4842  -15.8571 O   0  0  0  0  0  0  0  0  0  0  0  0
   20.8148  -22.2144  -17.0065 O   0  0  0  0  0  0  0  0  0  0  0  0
  2  1  1  1
  3  2  1  0
  4  2  1  0
  5  4  1  0
  5  6  1  1
  7  5  1  0
  8  7  2  0
  9 10  1  0
 10 12  1  0
 10 11  2  0
 13 12  1  1
 13 14  1  0
 14  7  1  0
 15 25  1  0
 15 13  1  0
 16 15  2  0
 18 19  2  0
 18 17  1  0
 20 18  1  0
 21 20  1  0
 22 21  1  0
 23 22  1  0
 24 23  1  6
 24 25  1  0
 26 28  1  0
 26 24  1  0
 27 26  2  0
M  END
$$$$
