LNR.pdb
     RDKit          3D

 28 27  0  0  1  0  0  0  0  0999 V2000
   21.7500  -23.9278  -18.3325 C   0  0  0  0  0  0  0  0  0  0  0  0
   21.1626  -22.9124  -17.3813 C   0  0  2  0  0  0  0  0  0  0  0  0
   22.0704  -21.7037  -17.3557 C   0  0  0  0  0  0  0  0  0  0  0  0
   21.1354  -23.5009  -15.9927 C   0  0  0  0  0  0  0  0  0  0  0  0
   20.4640  -24.8632  -15.9777 C   0  0  2  0  0  0  0  0  0  0  0  0
   19.0586  -24.6335  -16.2824 N   0  0  0  0  0  0  0  0  0  0  0  0
   20.5807  -25.3899  -14.5820 C   0  0  0  0  0  0  0  0  0  0  0  0
   21.6379  -25.3209  -13.9259 O   0  0  0  0  0  0  0  0  0  0  0  0
   19.2007  -27.2158  -10.0543 N   0  0  0  0  0  0  0  0  0  0  0  0
   19.6050  -25.8561  -10.2496 C   0  0  0  0  0  0  0  0  0  0  0  0
   19.9130  -25.2188   -9.2130 O   0  0  0  0  0  0  0  0  0  0  0  0
   19.6377  -25.2949  -11.6090 C   0  0  0  0  0  0  0  0  0  0  0  0
   19.3362  -26.3635  -12.6017 C   0  0  2  0  0  0  0  0  0  0  0  0
   19.4635  -25.9927  -13.9625 N   0  0  0  0  0  0  0  0  0  0  0  0
   18.0097  -27.0116  -12.3636 C   0  0  0  0  0  0  0  0  0  0  0  0
   17.0756  -26.2498  -12.0312 O   0  0  0  0  0  0  0  0  0  0  0  0
   22.3806  -33.0853  -10.0964 N   0  0  0  0  0  0  0  0  0  0  0  0
   22.5907  -31.8751  -10.8227 C   0  0  0  0  0  0  0  0  0  0  0  0
   23.7857  -31.4749  -10.9745 N   0  0  0  0  0  0  0  0  0  0  0  0
   21.4517  -31.1880  -11.3336 N   0  0  0  0  0  0  0  0  0  0  0  0
   20.1590  -31.8326  -11.2116 C   0  0  0  0  0  0  0  0  0  0  0  0
   19.1518  -30.9493  -11.9360 C   0  0  0  0  0  0  0  0  0  0  0  0
   18.2977  -30.2578  -10.9167 C   0  0  0  0  0  0  0  0  0  0  0  0
   17.2958  -29.3088  -11.5324 C   0  0  2  0  0  0  0  0  0  0  0  0
   17.7931  -28.3963  -12.4978 N   0  0  0  0  0  0  0  0  0  0  0  0
   16.3681  -28.7858  -10.5313 C   0  0  0  0  0  0  0  0  0  0  0  0
   16.7292  -28.0741   -9.5676 O   0  0  0  0  0  0  0  0  0  0  0  0
   15.0183  -29.1011  -10.6664 O   0  0  0  0  0  0  0  0  0  0  0  0
  2  1  1  6
  3  2  1  0
  4  2  1  0
  5  4  1  0
  5  6  1  1
  7  5  1  0
  8  7  2  0
  9 10  1  0
 10 12  1  0
 10 11  2  0
 13 12  1  1
 13 14  1  0
 14  7  1  0
 15 25  1  0
 15 13  1  0
 16 15  2  0
 18 19  2  0
 18 17  1  0
 20 18  1  0
 21 20  1  0
 22 21  1  0
 23 22  1  0
 24 23  1  1
 24 25  1  0
 26 28  1  0
 26 24  1  0
 27 26  2  0
M  END
$$$$
