LNR.pdb
     RDKit          3D

 28 27  0  0  1  0  0  0  0  0999 V2000
   19.4175  -12.8380    3.5220 C   0  0  0  0  0  0  0  0  0  0  0  0
   19.1498  -12.3554    4.9278 C   0  0  2  0  0  0  0  0  0  0  0  0
   20.4767  -12.1775    5.6304 C   0  0  0  0  0  0  0  0  0  0  0  0
   18.3716  -13.4139    5.6688 C   0  0  0  0  0  0  0  0  0  0  0  0
   17.0040  -13.6379    5.0472 C   0  0  2  0  0  0  0  0  0  0  0  0
   16.2284  -12.4342    5.3123 N   0  0  0  0  0  0  0  0  0  0  0  0
   16.3805  -14.7891    5.7716 C   0  0  0  0  0  0  0  0  0  0  0  0
   16.2047  -14.7885    7.0053 O   0  0  0  0  0  0  0  0  0  0  0  0
   12.1449  -17.2116    3.6963 N   0  0  0  0  0  0  0  0  0  0  0  0
   13.4767  -17.5105    4.1294 C   0  0  0  0  0  0  0  0  0  0  0  0
   14.2220  -18.0579    3.2807 O   0  0  0  0  0  0  0  0  0  0  0  0
   13.8890  -17.1720    5.5003 C   0  0  0  0  0  0  0  0  0  0  0  0
   15.3750  -17.1063    5.5767 C   0  0  2  0  0  0  0  0  0  0  0  0
   15.9668  -15.9318    5.0516 N   0  0  0  0  0  0  0  0  0  0  0  0
   16.0344  -18.3195    5.0024 C   0  0  0  0  0  0  0  0  0  0  0  0
   16.7472  -18.1335    3.9921 O   0  0  0  0  0  0  0  0  0  0  0  0
   15.5244  -22.1443   -0.8253 N   0  0  0  0  0  0  0  0  0  0  0  0
   15.0504  -23.3349   -0.1975 C   0  0  0  0  0  0  0  0  0  0  0  0
   14.5418  -24.2326   -0.9368 N   0  0  0  0  0  0  0  0  0  0  0  0
   15.1744  -23.4471    1.2176 N   0  0  0  0  0  0  0  0  0  0  0  0
   16.2218  -22.6860    1.8697 C   0  0  0  0  0  0  0  0  0  0  0  0
   15.5442  -21.7808    2.8898 C   0  0  0  0  0  0  0  0  0  0  0  0
   16.5910  -20.9441    3.5610 C   0  0  0  0  0  0  0  0  0  0  0  0
   16.3932  -20.8387    5.0555 C   0  0  2  0  0  0  0  0  0  0  0  0
   15.8811  -19.6097    5.5448 N   0  0  0  0  0  0  0  0  0  0  0  0
   17.5072  -21.4392    5.7869 C   0  0  0  0  0  0  0  0  0  0  0  0
   18.4423  -20.7709    6.2815 O   0  0  0  0  0  0  0  0  0  0  0  0
   17.5182  -22.8239    5.9348 O   0  0  0  0  0  0  0  0  0  0  0  0
  2  1  1  6
  3  2  1  0
  4  2  1  0
  5  4  1  0
  5  6  1  1
  7  5  1  0
  8  7  2  0
  9 10  1  0
 10 12  1  0
 10 11  2  0
 13 12  1  6
 13 14  1  0
 14  7  1  0
 15 25  1  0
 15 13  1  0
 16 15  2  0
 18 19  2  0
 18 17  1  0
 20 18  1  0
 21 20  1  0
 22 21  1  0
 23 22  1  0
 24 23  1  6
 24 25  1  0
 26 28  1  0
 26 24  1  0
 27 26  2  0
M  END
$$$$
