LNR.pdb
     RDKit          3D

 28 27  0  0  1  0  0  0  0  0999 V2000
   15.8126  -13.2353   -9.9398 C   0  0  0  0  0  0  0  0  0  0  0  0
   15.2181  -12.7863  -11.2535 C   0  0  2  0  0  0  0  0  0  0  0  0
   15.9119  -13.5337  -12.3697 C   0  0  0  0  0  0  0  0  0  0  0  0
   15.4952  -11.3152  -11.4389 C   0  0  0  0  0  0  0  0  0  0  0  0
   14.7921  -10.4784  -10.3842 C   0  0  2  0  0  0  0  0  0  0  0  0
   13.3644  -10.6037  -10.6427 N   0  0  0  0  0  0  0  0  0  0  0  0
   15.2056   -9.0581  -10.6096 C   0  0  0  0  0  0  0  0  0  0  0  0
   14.8604   -8.4115  -11.6174 O   0  0  0  0  0  0  0  0  0  0  0  0
   17.3944   -4.5534   -9.9968 N   0  0  0  0  0  0  0  0  0  0  0  0
   16.7927   -4.8829   -8.7399 C   0  0  0  0  0  0  0  0  0  0  0  0
   16.7062   -3.9465   -7.9085 O   0  0  0  0  0  0  0  0  0  0  0  0
   16.3227   -6.2552   -8.4958 C   0  0  0  0  0  0  0  0  0  0  0  0
   16.5135   -7.0779   -9.7226 C   0  0  2  0  0  0  0  0  0  0  0  0
   16.0182   -8.4031   -9.6578 N   0  0  0  0  0  0  0  0  0  0  0  0
   17.9306   -7.0777  -10.2003 C   0  0  0  0  0  0  0  0  0  0  0  0
   18.6835   -7.9374   -9.6932 O   0  0  0  0  0  0  0  0  0  0  0  0
   21.2929  -11.2213  -15.8146 N   0  0  0  0  0  0  0  0  0  0  0  0
   21.4818   -9.9691  -16.4723 C   0  0  0  0  0  0  0  0  0  0  0  0
   21.9789   -9.9822  -17.6401 N   0  0  0  0  0  0  0  0  0  0  0  0
   21.1033   -8.7808  -15.7830 N   0  0  0  0  0  0  0  0  0  0  0  0
   20.8078   -8.8820  -14.3674 C   0  0  0  0  0  0  0  0  0  0  0  0
   20.4197   -7.4877  -13.8935 C   0  0  0  0  0  0  0  0  0  0  0  0
   20.0550   -7.5572  -12.4414 C   0  0  0  0  0  0  0  0  0  0  0  0
   19.6481   -6.2186  -11.8705 C   0  0  2  0  0  0  0  0  0  0  0  0
   18.4190   -6.1748  -11.1639 N   0  0  0  0  0  0  0  0  0  0  0  0
   19.9212   -5.1310  -12.8081 C   0  0  0  0  0  0  0  0  0  0  0  0
   21.0771   -4.7907  -13.1454 O   0  0  0  0  0  0  0  0  0  0  0  0
   18.8343   -4.4469  -13.3465 O   0  0  0  0  0  0  0  0  0  0  0  0
  2  1  1  1
  3  2  1  0
  4  2  1  0
  5  4  1  0
  5  6  1  6
  7  5  1  0
  8  7  2  0
  9 10  1  0
 10 12  1  0
 10 11  2  0
 13 12  1  1
 13 14  1  0
 14  7  1  0
 15 25  1  0
 15 13  1  0
 16 15  2  0
 18 19  2  0
 18 17  1  0
 20 18  1  0
 21 20  1  0
 22 21  1  0
 23 22  1  0
 24 23  1  6
 24 25  1  0
 26 28  1  0
 26 24  1  0
 27 26  2  0
M  END
$$$$
