LNR.pdb
     RDKit          3D

 28 27  0  0  1  0  0  0  0  0999 V2000
   29.0320  -22.1502   -8.9896 C   0  0  0  0  0  0  0  0  0  0  0  0
   29.6265  -21.8483  -10.3447 C   0  0  2  0  0  0  0  0  0  0  0  0
   31.0491  -21.3766  -10.1456 C   0  0  0  0  0  0  0  0  0  0  0  0
   28.8497  -20.7222  -10.9801 C   0  0  0  0  0  0  0  0  0  0  0  0
   27.3818  -21.0780  -11.1394 C   0  0  2  0  0  0  0  0  0  0  0  0
   27.3418  -22.4104  -11.7258 N   0  0  0  0  0  0  0  0  0  0  0  0
   26.8004  -20.0999  -12.1111 C   0  0  0  0  0  0  0  0  0  0  0  0
   26.6829  -18.8867  -11.8516 O   0  0  0  0  0  0  0  0  0  0  0  0
   28.8919  -19.4189  -16.0328 N   0  0  0  0  0  0  0  0  0  0  0  0
   27.6162  -18.8971  -15.6448 C   0  0  0  0  0  0  0  0  0  0  0  0
   27.6030  -17.7009  -15.2643 O   0  0  0  0  0  0  0  0  0  0  0  0
   26.4268  -19.7603  -15.7097 C   0  0  0  0  0  0  0  0  0  0  0  0
   25.7399  -19.7703  -14.3882 C   0  0  2  0  0  0  0  0  0  0  0  0
   26.3610  -20.5443  -13.3779 N   0  0  0  0  0  0  0  0  0  0  0  0
   24.2913  -20.1260  -14.4959 C   0  0  0  0  0  0  0  0  0  0  0  0
   23.9951  -21.3142  -14.2432 O   0  0  0  0  0  0  0  0  0  0  0  0
   17.3199  -21.9534  -13.5337 N   0  0  0  0  0  0  0  0  0  0  0  0
   18.2934  -22.1910  -12.5178 C   0  0  0  0  0  0  0  0  0  0  0  0
   18.3798  -23.3649  -12.0427 N   0  0  0  0  0  0  0  0  0  0  0  0
   19.1092  -21.1013  -12.0965 N   0  0  0  0  0  0  0  0  0  0  0  0
   18.8812  -19.8067  -12.7077 C   0  0  0  0  0  0  0  0  0  0  0  0
   19.6322  -19.8020  -14.0325 C   0  0  0  0  0  0  0  0  0  0  0  0
   21.0606  -19.4285  -13.7745 C   0  0  0  0  0  0  0  0  0  0  0  0
   21.9043  -19.4213  -15.0281 C   0  0  2  0  0  0  0  0  0  0  0  0
   23.2950  -19.1996  -14.8585 N   0  0  0  0  0  0  0  0  0  0  0  0
   21.2398  -18.7074  -16.1169 C   0  0  0  0  0  0  0  0  0  0  0  0
   21.6936  -17.6585  -16.6264 O   0  0  0  0  0  0  0  0  0  0  0  0
   20.0438  -19.2291  -16.6034 O   0  0  0  0  0  0  0  0  0  0  0  0
  2  1  1  1
  3  2  1  0
  4  2  1  0
  5  4  1  0
  5  6  1  6
  7  5  1  0
  8  7  2  0
  9 10  1  0
 10 12  1  0
 10 11  2  0
 13 12  1  6
 13 14  1  0
 14  7  1  0
 15 25  1  0
 15 13  1  0
 16 15  2  0
 18 19  2  0
 18 17  1  0
 20 18  1  0
 21 20  1  0
 22 21  1  0
 23 22  1  0
 24 23  1  1
 24 25  1  0
 26 28  1  0
 26 24  1  0
 27 26  2  0
M  END
$$$$
