LNR.pdb
     RDKit          3D

 28 27  0  0  1  0  0  0  0  0999 V2000
   27.8587  -21.4892  -15.7040 C   0  0  0  0  0  0  0  0  0  0  0  0
   26.8293  -20.4686  -16.1279 C   0  0  2  0  0  0  0  0  0  0  0  0
   27.5506  -19.2991  -16.7586 C   0  0  0  0  0  0  0  0  0  0  0  0
   26.1086  -19.9625  -14.9033 C   0  0  0  0  0  0  0  0  0  0  0  0
   25.4627  -21.0975  -14.1278 C   0  0  2  0  0  0  0  0  0  0  0  0
   24.9118  -22.0123  -15.1180 N   0  0  0  0  0  0  0  0  0  0  0  0
   24.3408  -20.5009  -13.3377 C   0  0  0  0  0  0  0  0  0  0  0  0
   24.4960  -19.5126  -12.5945 O   0  0  0  0  0  0  0  0  0  0  0  0
   19.6027  -19.2568  -12.1298 N   0  0  0  0  0  0  0  0  0  0  0  0
   20.3866  -18.4905  -13.0510 C   0  0  0  0  0  0  0  0  0  0  0  0
   19.9505  -17.3460  -13.3261 O   0  0  0  0  0  0  0  0  0  0  0  0
   21.6210  -19.0642  -13.6088 C   0  0  0  0  0  0  0  0  0  0  0  0
   21.8216  -20.4404  -13.0756 C   0  0  2  0  0  0  0  0  0  0  0  0
   23.0468  -21.0612  -13.4207 N   0  0  0  0  0  0  0  0  0  0  0  0
   20.6753  -21.3496  -13.3851 C   0  0  0  0  0  0  0  0  0  0  0  0
   20.6006  -21.7612  -14.5633 O   0  0  0  0  0  0  0  0  0  0  0  0
   18.1549  -26.4024   -7.5608 N   0  0  0  0  0  0  0  0  0  0  0  0
   18.4525  -25.0166   -7.3959 C   0  0  0  0  0  0  0  0  0  0  0  0
   18.8820  -24.6332   -6.2646 N   0  0  0  0  0  0  0  0  0  0  0  0
   18.2511  -24.1462   -8.5060 N   0  0  0  0  0  0  0  0  0  0  0  0
   17.6330  -24.6962   -9.6964 C   0  0  0  0  0  0  0  0  0  0  0  0
   18.4354  -24.1906  -10.8880 C   0  0  0  0  0  0  0  0  0  0  0  0
   17.7877  -22.9439  -11.4100 C   0  0  0  0  0  0  0  0  0  0  0  0
   18.4767  -22.3897  -12.6355 C   0  0  2  0  0  0  0  0  0  0  0  0
   19.7192  -21.7380  -12.4273 N   0  0  0  0  0  0  0  0  0  0  0  0
   17.5256  -21.7462  -13.5397 C   0  0  0  0  0  0  0  0  0  0  0  0
   17.7012  -20.6040  -14.0197 O   0  0  0  0  0  0  0  0  0  0  0  0
   16.3709  -22.4477  -13.8773 O   0  0  0  0  0  0  0  0  0  0  0  0
  2  1  1  1
  3  2  1  0
  4  2  1  0
  5  4  1  0
  5  6  1  6
  7  5  1  0
  8  7  2  0
  9 10  1  0
 10 12  1  0
 10 11  2  0
 13 12  1  6
 13 14  1  0
 14  7  1  0
 15 25  1  0
 15 13  1  0
 16 15  2  0
 18 19  2  0
 18 17  1  0
 20 18  1  0
 21 20  1  0
 22 21  1  0
 23 22  1  0
 24 23  1  1
 24 25  1  0
 26 28  1  0
 26 24  1  0
 27 26  2  0
M  END
$$$$
