LNR.pdb
     RDKit          3D

 28 27  0  0  1  0  0  0  0  0999 V2000
   27.1858  -15.1287  -15.4379 C   0  0  0  0  0  0  0  0  0  0  0  0
   26.2041  -15.5569  -16.5027 C   0  0  2  0  0  0  0  0  0  0  0  0
   25.0920  -14.5344  -16.5634 C   0  0  0  0  0  0  0  0  0  0  0  0
   25.5966  -16.8790  -16.1052 C   0  0  0  0  0  0  0  0  0  0  0  0
   26.6641  -17.9291  -15.8511 C   0  0  2  0  0  0  0  0  0  0  0  0
   27.1329  -18.3653  -17.1591 N   0  0  0  0  0  0  0  0  0  0  0  0
   25.9908  -19.0768  -15.1668 C   0  0  0  0  0  0  0  0  0  0  0  0
   25.5944  -20.0851  -15.7826 O   0  0  0  0  0  0  0  0  0  0  0  0
   25.1163  -22.4796  -11.8637 N   0  0  0  0  0  0  0  0  0  0  0  0
   25.5479  -21.4084  -11.0172 C   0  0  0  0  0  0  0  0  0  0  0  0
   25.9109  -21.7327   -9.8602 O   0  0  0  0  0  0  0  0  0  0  0  0
   25.5440  -20.0295  -11.5296 C   0  0  0  0  0  0  0  0  0  0  0  0
   25.1637  -20.0291  -12.9696 C   0  0  2  0  0  0  0  0  0  0  0  0
   25.7854  -19.0396  -13.7698 N   0  0  0  0  0  0  0  0  0  0  0  0
   23.6824  -20.0039  -13.1730 C   0  0  0  0  0  0  0  0  0  0  0  0
   23.1437  -18.8756  -13.1641 O   0  0  0  0  0  0  0  0  0  0  0  0
   18.6115  -25.5836   -9.4616 N   0  0  0  0  0  0  0  0  0  0  0  0
   18.9259  -25.8436  -10.8291 C   0  0  0  0  0  0  0  0  0  0  0  0
   18.9522  -27.0536  -11.2114 N   0  0  0  0  0  0  0  0  0  0  0  0
   19.1914  -24.7344  -11.6833 N   0  0  0  0  0  0  0  0  0  0  0  0
   19.1150  -23.4042  -11.1122 C   0  0  0  0  0  0  0  0  0  0  0  0
   19.5122  -22.4257  -12.2096 C   0  0  0  0  0  0  0  0  0  0  0  0
   21.0060  -22.3051  -12.2291 C   0  0  0  0  0  0  0  0  0  0  0  0
   21.5049  -21.3186  -13.2593 C   0  0  2  0  0  0  0  0  0  0  0  0
   22.9110  -21.1658  -13.3660 N   0  0  0  0  0  0  0  0  0  0  0  0
   20.6956  -20.1014  -13.2714 C   0  0  0  0  0  0  0  0  0  0  0  0
   19.9796  -19.7638  -14.2404 O   0  0  0  0  0  0  0  0  0  0  0  0
   20.7305  -19.2849  -12.1438 O   0  0  0  0  0  0  0  0  0  0  0  0
  2  1  1  1
  3  2  1  0
  4  2  1  0
  5  4  1  0
  5  6  1  6
  7  5  1  0
  8  7  2  0
  9 10  1  0
 10 12  1  0
 10 11  2  0
 13 12  1  1
 13 14  1  0
 14  7  1  0
 15 25  1  0
 15 13  1  0
 16 15  2  0
 18 19  2  0
 18 17  1  0
 20 18  1  0
 21 20  1  0
 22 21  1  0
 23 22  1  0
 24 23  1  1
 24 25  1  0
 26 28  1  0
 26 24  1  0
 27 26  2  0
M  END
$$$$
