LNR.pdb
     RDKit          3D

 28 27  0  0  1  0  0  0  0  0999 V2000
   24.5178  -20.0832  -17.6453 C   0  0  0  0  0  0  0  0  0  0  0  0
   23.0655  -19.7497  -17.4000 C   0  0  2  0  0  0  0  0  0  0  0  0
   22.5535  -18.9565  -18.5809 C   0  0  0  0  0  0  0  0  0  0  0  0
   22.9641  -18.8750  -16.1754 C   0  0  0  0  0  0  0  0  0  0  0  0
   23.0451  -19.6927  -14.8980 C   0  0  2  0  0  0  0  0  0  0  0  0
   23.0917  -21.0901  -15.3053 N   0  0  0  0  0  0  0  0  0  0  0  0
   21.7768  -19.4468  -14.1432 C   0  0  0  0  0  0  0  0  0  0  0  0
   21.3118  -18.3038  -13.9685 O   0  0  0  0  0  0  0  0  0  0  0  0
   16.7572  -20.9491  -12.5640 N   0  0  0  0  0  0  0  0  0  0  0  0
   17.4954  -19.7631  -12.8785 C   0  0  0  0  0  0  0  0  0  0  0  0
   17.0488  -18.6929  -12.3980 O   0  0  0  0  0  0  0  0  0  0  0  0
   18.6984  -19.8566  -13.7198 C   0  0  0  0  0  0  0  0  0  0  0  0
   19.8026  -20.4936  -12.9495 C   0  0  2  0  0  0  0  0  0  0  0  0
   21.0608  -20.5356  -13.5982 N   0  0  0  0  0  0  0  0  0  0  0  0
   19.4383  -21.8509  -12.4382 C   0  0  0  0  0  0  0  0  0  0  0  0
   19.4521  -22.7781  -13.2769 O   0  0  0  0  0  0  0  0  0  0  0  0
   17.2815  -25.0347   -4.3684 N   0  0  0  0  0  0  0  0  0  0  0  0
   17.7204  -26.1813   -5.0956 C   0  0  0  0  0  0  0  0  0  0  0  0
   17.6809  -27.3061   -4.5086 N   0  0  0  0  0  0  0  0  0  0  0  0
   18.1761  -25.9986   -6.4332 N   0  0  0  0  0  0  0  0  0  0  0  0
   18.2032  -24.6494   -6.9628 C   0  0  0  0  0  0  0  0  0  0  0  0
   18.7430  -24.7405   -8.3839 C   0  0  0  0  0  0  0  0  0  0  0  0
   18.8180  -23.3586   -8.9595 C   0  0  0  0  0  0  0  0  0  0  0  0
   18.8371  -23.3491  -10.4705 C   0  0  2  0  0  0  0  0  0  0  0  0
   19.0949  -22.1024  -11.0961 N   0  0  0  0  0  0  0  0  0  0  0  0
   17.7601  -24.1671  -11.0249 C   0  0  0  0  0  0  0  0  0  0  0  0
   16.5655  -23.7964  -11.0588 O   0  0  0  0  0  0  0  0  0  0  0  0
   18.0910  -25.4187  -11.5382 O   0  0  0  0  0  0  0  0  0  0  0  0
  2  1  1  6
  3  2  1  0
  4  2  1  0
  5  4  1  0
  5  6  1  6
  7  5  1  0
  8  7  2  0
  9 10  1  0
 10 12  1  0
 10 11  2  0
 13 12  1  6
 13 14  1  0
 14  7  1  0
 15 25  1  0
 15 13  1  0
 16 15  2  0
 18 19  2  0
 18 17  1  0
 20 18  1  0
 21 20  1  0
 22 21  1  0
 23 22  1  0
 24 23  1  1
 24 25  1  0
 26 28  1  0
 26 24  1  0
 27 26  2  0
M  END
$$$$
