KNI.pdb
     RDKit          3D

 26 25  0  0  1  0  0  0  0  0999 V2000
   26.1108  -19.0385  -17.2297 N   0  0  0  0  0  0  0  0  0  0  0  0
   25.3212  -20.1228  -16.7304 C   0  0  1  0  0  0  0  0  0  0  0  0
   25.1442  -21.2480  -17.7045 C   0  0  0  0  0  0  0  0  0  0  0  0
   24.8021  -20.8472  -19.0891 C   0  0  0  0  0  0  0  0  0  0  0  0
   25.9400  -20.5904  -20.0179 C   0  0  0  0  0  0  0  0  0  0  0  0
   25.3874  -20.1319  -21.3832 C   0  0  0  0  0  0  0  0  0  0  0  0
   26.5428  -19.8296  -22.2055 N   0  0  0  0  0  0  0  0  0  0  0  0
   25.8573  -20.6629  -15.4486 C   0  0  0  0  0  0  0  0  0  0  0  0
   25.1613  -21.5005  -14.7801 O   0  0  0  0  0  0  0  0  0  0  0  0
   30.5513  -19.9348  -11.4401 N   0  0  0  0  0  0  0  0  0  0  0  0
   29.6696  -20.6893  -12.2382 C   0  0  0  0  0  0  0  0  0  0  0  0
   29.3314  -21.8255  -11.8128 O   0  0  0  0  0  0  0  0  0  0  0  0
   29.1006  -20.2718  -13.5344 C   0  0  0  0  0  0  0  0  0  0  0  0
   27.6579  -20.5917  -13.7246 C   0  0  2  0  0  0  0  0  0  0  0  0
   27.1306  -20.2320  -15.0030 N   0  0  0  0  0  0  0  0  0  0  0  0
   26.8710  -19.9943  -12.5995 C   0  0  0  0  0  0  0  0  0  0  0  0
   26.7884  -18.7503  -12.4526 O   0  0  0  0  0  0  0  0  0  0  0  0
   22.0626  -20.6949  -12.2073 C   0  0  0  0  0  0  0  0  0  0  0  0
   23.4402  -20.1072  -11.9724 C   0  0  0  0  0  0  0  0  0  0  0  0
   24.0441  -20.6047  -10.6898 C   0  0  2  0  0  0  0  0  0  0  0  0
   23.2091  -20.2699   -9.4877 C   0  0  0  0  0  0  0  0  0  0  0  0
   25.4887  -20.2325  -10.4995 C   0  0  2  0  0  0  0  0  0  0  0  0
   26.1913  -20.8121  -11.6602 N   0  0  0  0  0  0  0  0  0  0  0  0
   26.0835  -20.6956   -9.2449 C   0  0  0  0  0  0  0  0  0  0  0  0
   26.7660  -21.9170   -9.1420 O   0  0  0  0  0  0  0  0  0  0  0  0
   26.0159  -20.0242   -8.1888 O   0  0  0  0  0  0  0  0  0  0  0  0
  2  3  1  0
  2  1  1  6
  4  5  1  0
  4  3  1  0
  6  7  1  0
  6  5  1  0
  8  2  1  0
  9  8  2  0
 10 11  1  0
 11 13  1  0
 12 11  2  0
 14 13  1  6
 14 15  1  0
 15  8  1  0
 16 14  1  0
 16 17  2  0
 18 19  1  0
 19 20  1  0
 20 22  1  0
 20 21  1  1
 22 23  1  6
 23 16  1  0
 24 22  1  0
 25 24  1  0
 26 24  2  0
M  END
$$$$
