KNI.pdb
     RDKit          3D

 26 25  0  0  1  0  0  0  0  0999 V2000
   24.9110  -18.3700  -16.5417 N   0  0  0  0  0  0  0  0  0  0  0  0
   23.7066  -19.0729  -16.8638 C   0  0  1  0  0  0  0  0  0  0  0  0
   23.8112  -19.9354  -18.0850 C   0  0  0  0  0  0  0  0  0  0  0  0
   24.6369  -19.3871  -19.1861 C   0  0  0  0  0  0  0  0  0  0  0  0
   26.0557  -19.8406  -19.2560 C   0  0  0  0  0  0  0  0  0  0  0  0
   26.7420  -19.1762  -20.4673 C   0  0  0  0  0  0  0  0  0  0  0  0
   28.1331  -19.5820  -20.4159 N   0  0  0  0  0  0  0  0  0  0  0  0
   23.2155  -19.8960  -15.7221 C   0  0  0  0  0  0  0  0  0  0  0  0
   22.2484  -20.7107  -15.9055 O   0  0  0  0  0  0  0  0  0  0  0  0
   26.2879  -21.7503  -11.1572 N   0  0  0  0  0  0  0  0  0  0  0  0
   25.6146  -21.1301  -12.2275 C   0  0  0  0  0  0  0  0  0  0  0  0
   26.1405  -21.2133  -13.3689 O   0  0  0  0  0  0  0  0  0  0  0  0
   24.3426  -20.3870  -12.1376 C   0  0  0  0  0  0  0  0  0  0  0  0
   23.4454  -20.5233  -13.3193 C   0  0  2  0  0  0  0  0  0  0  0  0
   23.8371  -19.7533  -14.4576 N   0  0  0  0  0  0  0  0  0  0  0  0
   22.0365  -20.2377  -12.9006 C   0  0  0  0  0  0  0  0  0  0  0  0
   21.7376  -19.1718  -12.3088 O   0  0  0  0  0  0  0  0  0  0  0  0
   19.4336  -17.4088  -14.7536 C   0  0  0  0  0  0  0  0  0  0  0  0
   19.7075  -18.3832  -13.6250 C   0  0  0  0  0  0  0  0  0  0  0  0
   19.2552  -19.7736  -13.9706 C   0  0  2  0  0  0  0  0  0  0  0  0
   17.8164  -19.8261  -14.3968 C   0  0  0  0  0  0  0  0  0  0  0  0
   19.5764  -20.8073  -12.9267 C   0  0  2  0  0  0  0  0  0  0  0  0
   20.9901  -21.1608  -13.1577 N   0  0  0  0  0  0  0  0  0  0  0  0
   18.7283  -21.9997  -12.9599 C   0  0  0  0  0  0  0  0  0  0  0  0
   17.6192  -22.1574  -12.1154 O   0  0  0  0  0  0  0  0  0  0  0  0
   18.9465  -22.9497  -13.7476 O   0  0  0  0  0  0  0  0  0  0  0  0
  2  3  1  0
  2  1  1  1
  4  5  1  0
  4  3  1  0
  6  7  1  0
  6  5  1  0
  8  2  1  0
  9  8  2  0
 10 11  1  0
 11 13  1  0
 12 11  2  0
 14 13  1  1
 14 15  1  0
 15  8  1  0
 16 14  1  0
 16 17  2  0
 18 19  1  0
 19 20  1  0
 20 22  1  0
 20 21  1  1
 22 23  1  6
 23 16  1  0
 24 22  1  0
 25 24  1  0
 26 24  2  0
M  END
$$$$
