KNI.pdb
     RDKit          3D

 26 25  0  0  1  0  0  0  0  0999 V2000
   17.9578  -15.0968  -17.5554 N   0  0  0  0  0  0  0  0  0  0  0  0
   19.2547  -15.0278  -16.9538 C   0  0  1  0  0  0  0  0  0  0  0  0
   20.1897  -16.1137  -17.3931 C   0  0  0  0  0  0  0  0  0  0  0  0
   19.5814  -17.4549  -17.5541 C   0  0  0  0  0  0  0  0  0  0  0  0
   20.4832  -18.5560  -17.9987 C   0  0  0  0  0  0  0  0  0  0  0  0
   19.6360  -19.7980  -18.3440 C   0  0  0  0  0  0  0  0  0  0  0  0
   20.5723  -20.8191  -18.7721 N   0  0  0  0  0  0  0  0  0  0  0  0
   19.9037  -13.7035  -17.1710 C   0  0  0  0  0  0  0  0  0  0  0  0
   21.1020  -13.5179  -16.7682 O   0  0  0  0  0  0  0  0  0  0  0  0
   18.0636  -11.1909  -21.4249 N   0  0  0  0  0  0  0  0  0  0  0  0
   19.1094  -11.1069  -20.4852 C   0  0  0  0  0  0  0  0  0  0  0  0
   20.2477  -11.5053  -20.8481 O   0  0  0  0  0  0  0  0  0  0  0  0
   18.9968  -10.5928  -19.1063 C   0  0  0  0  0  0  0  0  0  0  0  0
   19.7217  -11.3861  -18.0742 C   0  0  2  0  0  0  0  0  0  0  0  0
   19.1718  -12.6807  -17.8219 N   0  0  0  0  0  0  0  0  0  0  0  0
   19.8435  -10.5698  -16.8249 C   0  0  0  0  0  0  0  0  0  0  0  0
   18.9192  -10.5385  -15.9761 O   0  0  0  0  0  0  0  0  0  0  0  0
   23.8176  -11.4632  -13.9497 C   0  0  0  0  0  0  0  0  0  0  0  0
   22.4837  -11.0197  -14.5174 C   0  0  0  0  0  0  0  0  0  0  0  0
   22.4176   -9.5273  -14.6777 C   0  0  2  0  0  0  0  0  0  0  0  0
   22.7480   -8.7930  -13.4104 C   0  0  0  0  0  0  0  0  0  0  0  0
   21.1478   -9.0273  -15.3094 C   0  0  2  0  0  0  0  0  0  0  0  0
   21.0070   -9.8035  -16.5562 N   0  0  0  0  0  0  0  0  0  0  0  0
   21.1214   -7.5899  -15.5837 C   0  0  0  0  0  0  0  0  0  0  0  0
   20.5423   -6.6663  -14.7006 O   0  0  0  0  0  0  0  0  0  0  0  0
   21.6165   -7.1023  -16.6267 O   0  0  0  0  0  0  0  0  0  0  0  0
  2  3  1  0
  2  1  1  6
  4  5  1  0
  4  3  1  0
  6  7  1  0
  6  5  1  0
  8  2  1  0
  9  8  2  0
 10 11  1  0
 11 13  1  0
 12 11  2  0
 14 13  1  6
 14 15  1  0
 15  8  1  0
 16 14  1  0
 16 17  2  0
 18 19  1  0
 19 20  1  0
 20 22  1  0
 20 21  1  1
 22 23  1  6
 23 16  1  0
 24 22  1  0
 25 24  1  0
 26 24  2  0
M  END
$$$$
