KNI.pdb
     RDKit          3D

 26 25  0  0  1  0  0  0  0  0999 V2000
   20.7155  -11.0971  -18.2842 N   0  0  0  0  0  0  0  0  0  0  0  0
   19.6340  -10.2751  -17.8334 C   0  0  1  0  0  0  0  0  0  0  0  0
   18.3753  -11.0321  -17.5349 C   0  0  0  0  0  0  0  0  0  0  0  0
   18.0568  -12.1368  -18.4692 C   0  0  0  0  0  0  0  0  0  0  0  0
   18.8305  -13.4013  -18.3080 C   0  0  0  0  0  0  0  0  0  0  0  0
   18.3317  -14.4365  -19.3372 C   0  0  0  0  0  0  0  0  0  0  0  0
   19.1977  -15.5914  -19.2004 N   0  0  0  0  0  0  0  0  0  0  0  0
   20.0089   -9.4576  -16.6446 C   0  0  0  0  0  0  0  0  0  0  0  0
   19.0995   -8.8330  -15.9999 O   0  0  0  0  0  0  0  0  0  0  0  0
   23.5298  -11.7469  -14.5081 N   0  0  0  0  0  0  0  0  0  0  0  0
   22.8530  -10.6315  -13.9775 C   0  0  0  0  0  0  0  0  0  0  0  0
   22.0463  -10.8389  -13.0329 O   0  0  0  0  0  0  0  0  0  0  0  0
   23.0005   -9.2334  -14.4267 C   0  0  0  0  0  0  0  0  0  0  0  0
   21.8090   -8.6605  -15.1136 C   0  0  2  0  0  0  0  0  0  0  0  0
   21.3698   -9.3947  -16.2582 N   0  0  0  0  0  0  0  0  0  0  0  0
   22.0713   -7.2210  -15.4313 C   0  0  0  0  0  0  0  0  0  0  0  0
   22.8088   -6.8912  -16.3922 O   0  0  0  0  0  0  0  0  0  0  0  0
   18.0924   -4.1360  -16.0807 C   0  0  0  0  0  0  0  0  0  0  0  0
   19.5028   -4.6870  -16.1536 C   0  0  0  0  0  0  0  0  0  0  0  0
   20.3704   -4.1377  -15.0569 C   0  0  2  0  0  0  0  0  0  0  0  0
   20.4290   -2.6373  -15.0606 C   0  0  0  0  0  0  0  0  0  0  0  0
   21.7375   -4.7593  -14.9777 C   0  0  2  0  0  0  0  0  0  0  0  0
   21.4963   -6.1794  -14.6583 N   0  0  0  0  0  0  0  0  0  0  0  0
   22.6352   -4.1488  -13.9961 C   0  0  0  0  0  0  0  0  0  0  0  0
   22.7834   -4.6545  -12.6959 O   0  0  0  0  0  0  0  0  0  0  0  0
   23.3241   -3.1366  -14.2635 O   0  0  0  0  0  0  0  0  0  0  0  0
  2  3  1  0
  2  1  1  1
  4  5  1  0
  4  3  1  0
  6  7  1  0
  6  5  1  0
  8  2  1  0
  9  8  2  0
 10 11  1  0
 11 13  1  0
 12 11  2  0
 14 13  1  6
 14 15  1  0
 15  8  1  0
 16 14  1  0
 16 17  2  0
 18 19  1  0
 19 20  1  0
 20 22  1  0
 20 21  1  6
 22 23  1  1
 23 16  1  0
 24 22  1  0
 25 24  1  0
 26 24  2  0
M  END
$$$$
