KNI.pdb
     RDKit          3D

 26 25  0  0  1  0  0  0  0  0999 V2000
   18.8998  -14.5653  -18.5641 N   0  0  0  0  0  0  0  0  0  0  0  0
   20.1147  -14.5110  -17.8094 C   0  0  1  0  0  0  0  0  0  0  0  0
   21.1880  -15.4274  -18.3138 C   0  0  0  0  0  0  0  0  0  0  0  0
   20.8283  -16.8634  -18.3702 C   0  0  0  0  0  0  0  0  0  0  0  0
   20.2844  -17.3726  -19.6619 C   0  0  0  0  0  0  0  0  0  0  0  0
   19.8897  -18.8548  -19.4975 C   0  0  0  0  0  0  0  0  0  0  0  0
   20.9118  -19.6230  -20.1812 N   0  0  0  0  0  0  0  0  0  0  0  0
   20.6558  -13.1251  -17.7170 C   0  0  0  0  0  0  0  0  0  0  0  0
   21.7512  -12.9190  -17.0923 O   0  0  0  0  0  0  0  0  0  0  0  0
   21.0122  -11.0708  -21.1468 N   0  0  0  0  0  0  0  0  0  0  0  0
   20.1058  -10.0902  -20.6992 C   0  0  0  0  0  0  0  0  0  0  0  0
   19.5439   -9.3785  -21.5732 O   0  0  0  0  0  0  0  0  0  0  0  0
   19.7496   -9.8158  -19.2934 C   0  0  0  0  0  0  0  0  0  0  0  0
   20.3911  -10.7127  -18.2915 C   0  0  2  0  0  0  0  0  0  0  0  0
   19.9385  -12.0677  -18.3277 N   0  0  0  0  0  0  0  0  0  0  0  0
   20.2516  -10.1058  -16.9299 C   0  0  0  0  0  0  0  0  0  0  0  0
   19.1846  -10.2116  -16.2772 O   0  0  0  0  0  0  0  0  0  0  0  0
   22.6398  -10.3525  -11.7587 C   0  0  0  0  0  0  0  0  0  0  0  0
   21.8927   -9.3545  -12.6213 C   0  0  0  0  0  0  0  0  0  0  0  0
   21.9684   -9.7141  -14.0780 C   0  0  2  0  0  0  0  0  0  0  0  0
   23.3784   -9.9177  -14.5523 C   0  0  0  0  0  0  0  0  0  0  0  0
   21.1910   -8.7993  -14.9836 C   0  0  2  0  0  0  0  0  0  0  0  0
   21.3195   -9.3901  -16.3295 N   0  0  0  0  0  0  0  0  0  0  0  0
   21.6375   -7.4054  -14.9809 C   0  0  0  0  0  0  0  0  0  0  0  0
   21.1932   -6.4753  -14.0291 O   0  0  0  0  0  0  0  0  0  0  0  0
   22.4446   -6.9636  -15.8317 O   0  0  0  0  0  0  0  0  0  0  0  0
  2  3  1  0
  2  1  1  6
  4  5  1  0
  4  3  1  0
  6  7  1  0
  6  5  1  0
  8  2  1  0
  9  8  2  0
 10 11  1  0
 11 13  1  0
 12 11  2  0
 14 13  1  6
 14 15  1  0
 15  8  1  0
 16 14  1  0
 16 17  2  0
 18 19  1  0
 19 20  1  0
 20 22  1  0
 20 21  1  6
 22 23  1  6
 23 16  1  0
 24 22  1  0
 25 24  1  0
 26 24  2  0
M  END
$$$$
