KNI.pdb
     RDKit          3D

 26 25  0  0  1  0  0  0  0  0999 V2000
   20.5701  -12.7890  -19.7941 N   0  0  0  0  0  0  0  0  0  0  0  0
   20.8873  -13.5066  -18.5971 C   0  0  1  0  0  0  0  0  0  0  0  0
   21.8509  -14.6364  -18.8000 C   0  0  0  0  0  0  0  0  0  0  0  0
   21.2561  -15.9932  -18.7925 C   0  0  0  0  0  0  0  0  0  0  0  0
   20.8101  -16.5272  -17.4736 C   0  0  0  0  0  0  0  0  0  0  0  0
   20.2633  -17.9572  -17.6635 C   0  0  0  0  0  0  0  0  0  0  0  0
   19.7286  -18.3591  -16.3771 N   0  0  0  0  0  0  0  0  0  0  0  0
   21.4027  -12.6083  -17.5249 C   0  0  0  0  0  0  0  0  0  0  0  0
   20.7900  -12.5513  -16.4050 O   0  0  0  0  0  0  0  0  0  0  0  0
   25.9212  -10.1169  -14.7379 N   0  0  0  0  0  0  0  0  0  0  0  0
   25.1185   -9.8161  -15.8554 C   0  0  0  0  0  0  0  0  0  0  0  0
   24.8385   -8.6051  -16.0584 O   0  0  0  0  0  0  0  0  0  0  0  0
   24.5707  -10.7922  -16.8174 C   0  0  0  0  0  0  0  0  0  0  0  0
   23.0850  -10.9041  -16.8285 C   0  0  2  0  0  0  0  0  0  0  0  0
   22.5641  -11.8381  -17.7763 N   0  0  0  0  0  0  0  0  0  0  0  0
   22.4919   -9.5393  -16.9944 C   0  0  0  0  0  0  0  0  0  0  0  0
   22.5439   -8.9372  -18.0947 O   0  0  0  0  0  0  0  0  0  0  0  0
   17.7918   -8.7101  -17.5331 C   0  0  0  0  0  0  0  0  0  0  0  0
   19.2632   -8.3453  -17.5338 C   0  0  0  0  0  0  0  0  0  0  0  0
   19.7209   -7.8838  -16.1793 C   0  0  2  0  0  0  0  0  0  0  0  0
   18.8727   -6.7745  -15.6276 C   0  0  0  0  0  0  0  0  0  0  0  0
   21.1896   -7.5717  -16.0944 C   0  0  2  0  0  0  0  0  0  0  0  0
   21.8506   -8.8785  -15.9149 N   0  0  0  0  0  0  0  0  0  0  0  0
   21.5614   -6.6473  -15.0223 C   0  0  0  0  0  0  0  0  0  0  0  0
   21.7791   -5.2802  -15.2500 O   0  0  0  0  0  0  0  0  0  0  0  0
   21.7064   -7.0270  -13.8368 O   0  0  0  0  0  0  0  0  0  0  0  0
  2  3  1  0
  2  1  1  6
  4  5  1  0
  4  3  1  0
  6  7  1  0
  6  5  1  0
  8  2  1  0
  9  8  2  0
 10 11  1  0
 11 13  1  0
 12 11  2  0
 14 13  1  6
 14 15  1  0
 15  8  1  0
 16 14  1  0
 16 17  2  0
 18 19  1  0
 19 20  1  0
 20 22  1  0
 20 21  1  6
 22 23  1  1
 23 16  1  0
 24 22  1  0
 25 24  1  0
 26 24  2  0
M  END
$$$$
