KNI.pdb
     RDKit          3D

 26 25  0  0  1  0  0  0  0  0999 V2000
   30.7583  -28.7139  -20.3199 N   0  0  0  0  0  0  0  0  0  0  0  0
   31.1000  -29.4002  -19.1113 C   0  0  1  0  0  0  0  0  0  0  0  0
   32.2027  -28.7505  -18.3314 C   0  0  0  0  0  0  0  0  0  0  0  0
   33.5097  -28.6630  -19.0234 C   0  0  0  0  0  0  0  0  0  0  0  0
   34.6332  -28.0388  -18.2673 C   0  0  0  0  0  0  0  0  0  0  0  0
   35.8738  -27.9534  -19.1800 C   0  0  0  0  0  0  0  0  0  0  0  0
   36.8973  -27.2761  -18.4079 N   0  0  0  0  0  0  0  0  0  0  0  0
   29.9185  -29.5936  -18.2232 C   0  0  0  0  0  0  0  0  0  0  0  0
   30.0563  -30.2316  -17.1248 O   0  0  0  0  0  0  0  0  0  0  0  0
   28.6731  -25.6989  -16.8435 N   0  0  0  0  0  0  0  0  0  0  0  0
   28.0073  -26.8941  -16.5091 C   0  0  0  0  0  0  0  0  0  0  0  0
   28.2120  -27.3697  -15.3611 O   0  0  0  0  0  0  0  0  0  0  0  0
   27.0861  -27.6470  -17.3826 C   0  0  0  0  0  0  0  0  0  0  0  0
   27.5390  -29.0189  -17.7466 C   0  0  2  0  0  0  0  0  0  0  0  0
   28.6679  -29.0619  -18.6217 N   0  0  0  0  0  0  0  0  0  0  0  0
   26.3756  -29.7922  -18.2856 C   0  0  0  0  0  0  0  0  0  0  0  0
   26.1132  -29.8008  -19.5131 O   0  0  0  0  0  0  0  0  0  0  0  0
   25.9325  -34.7339  -17.5366 C   0  0  0  0  0  0  0  0  0  0  0  0
   25.7989  -33.2993  -18.0079 C   0  0  0  0  0  0  0  0  0  0  0  0
   24.5160  -32.6770  -17.5343 C   0  0  2  0  0  0  0  0  0  0  0  0
   23.3119  -33.5139  -17.8573 C   0  0  0  0  0  0  0  0  0  0  0  0
   24.3357  -31.2410  -17.9429 C   0  0  2  0  0  0  0  0  0  0  0  0
   25.5291  -30.5422  -17.4287 N   0  0  0  0  0  0  0  0  0  0  0  0
   23.1097  -30.6105  -17.4515 C   0  0  0  0  0  0  0  0  0  0  0  0
   21.9899  -30.4037  -18.2709 O   0  0  0  0  0  0  0  0  0  0  0  0
   22.9916  -30.2189  -16.2669 O   0  0  0  0  0  0  0  0  0  0  0  0
  2  3  1  0
  2  1  1  6
  4  5  1  0
  4  3  1  0
  6  7  1  0
  6  5  1  0
  8  2  1  0
  9  8  2  0
 10 11  1  0
 11 13  1  0
 12 11  2  0
 14 13  1  6
 14 15  1  0
 15  8  1  0
 16 14  1  0
 16 17  2  0
 18 19  1  0
 19 20  1  0
 20 22  1  0
 20 21  1  6
 22 23  1  1
 23 16  1  0
 24 22  1  0
 25 24  1  0
 26 24  2  0
M  END
$$$$
