KNI.pdb
     RDKit          3D

 26 25  0  0  1  0  0  0  0  0999 V2000
   15.4480  -13.3954  -17.1962 N   0  0  0  0  0  0  0  0  0  0  0  0
   15.4090  -11.9834  -16.9653 C   0  0  1  0  0  0  0  0  0  0  0  0
   14.8313  -11.5979  -15.6372 C   0  0  0  0  0  0  0  0  0  0  0  0
   13.4001  -11.9277  -15.4425 C   0  0  0  0  0  0  0  0  0  0  0  0
   12.8073  -11.6024  -14.1135 C   0  0  0  0  0  0  0  0  0  0  0  0
   11.3140  -11.9892  -14.1153 C   0  0  0  0  0  0  0  0  0  0  0  0
   10.8260  -11.7214  -12.7764 N   0  0  0  0  0  0  0  0  0  0  0  0
   16.7512  -11.3531  -17.1183 C   0  0  0  0  0  0  0  0  0  0  0  0
   17.7941  -12.0913  -17.1299 O   0  0  0  0  0  0  0  0  0  0  0  0
   19.6159   -6.2848  -19.0322 N   0  0  0  0  0  0  0  0  0  0  0  0
   19.4168   -7.6601  -18.8024 C   0  0  0  0  0  0  0  0  0  0  0  0
   20.4369   -8.3986  -18.7878 O   0  0  0  0  0  0  0  0  0  0  0  0
   18.1174   -8.3221  -18.5757 C   0  0  0  0  0  0  0  0  0  0  0  0
   18.0803   -9.2650  -17.4227 C   0  0  2  0  0  0  0  0  0  0  0  0
   16.8359   -9.9454  -17.2483 N   0  0  0  0  0  0  0  0  0  0  0  0
   18.5079   -8.5411  -16.1837 C   0  0  0  0  0  0  0  0  0  0  0  0
   17.6999   -7.8360  -15.5312 O   0  0  0  0  0  0  0  0  0  0  0  0
   23.1314  -10.3902  -13.5271 C   0  0  0  0  0  0  0  0  0  0  0  0
   22.2961   -9.4693  -14.3945 C   0  0  0  0  0  0  0  0  0  0  0  0
   21.0280   -9.0554  -13.7033 C   0  0  2  0  0  0  0  0  0  0  0  0
   20.1743  -10.2258  -13.3085 C   0  0  0  0  0  0  0  0  0  0  0  0
   20.2423   -7.9989  -14.4301 C   0  0  2  0  0  0  0  0  0  0  0  0
   19.8403   -8.6264  -15.7034 N   0  0  0  0  0  0  0  0  0  0  0  0
   20.9660   -6.7495  -14.6697 C   0  0  0  0  0  0  0  0  0  0  0  0
   21.3066   -6.3131  -15.9587 O   0  0  0  0  0  0  0  0  0  0  0  0
   21.3230   -5.9972  -13.7331 O   0  0  0  0  0  0  0  0  0  0  0  0
  2  3  1  0
  2  1  1  1
  4  5  1  0
  4  3  1  0
  6  7  1  0
  6  5  1  0
  8  2  1  0
  9  8  2  0
 10 11  1  0
 11 13  1  0
 12 11  2  0
 14 13  1  6
 14 15  1  0
 15  8  1  0
 16 14  1  0
 16 17  2  0
 18 19  1  0
 19 20  1  0
 20 22  1  0
 20 21  1  6
 22 23  1  6
 23 16  1  0
 24 22  1  0
 25 24  1  0
 26 24  2  0
M  END
$$$$
