KNI.pdb
     RDKit          3D

 26 25  0  0  1  0  0  0  0  0999 V2000
   16.1083  -14.0095  -19.4126 N   0  0  0  0  0  0  0  0  0  0  0  0
   17.1194  -13.7942  -18.4228 C   0  0  1  0  0  0  0  0  0  0  0  0
   18.0042  -14.9805  -18.1862 C   0  0  0  0  0  0  0  0  0  0  0  0
   17.3193  -16.2035  -17.7066 C   0  0  0  0  0  0  0  0  0  0  0  0
   18.1675  -17.4100  -17.4871 C   0  0  0  0  0  0  0  0  0  0  0  0
   17.2649  -18.6046  -17.1160 C   0  0  0  0  0  0  0  0  0  0  0  0
   18.1381  -19.7589  -17.0294 N   0  0  0  0  0  0  0  0  0  0  0  0
   17.9641  -12.6059  -18.7336 C   0  0  0  0  0  0  0  0  0  0  0  0
   18.3040  -12.3762  -19.9437 O   0  0  0  0  0  0  0  0  0  0  0  0
   17.4529   -7.2348  -18.4727 N   0  0  0  0  0  0  0  0  0  0  0  0
   17.5839   -8.5952  -18.1323 C   0  0  0  0  0  0  0  0  0  0  0  0
   16.8917   -9.0208  -17.1700 O   0  0  0  0  0  0  0  0  0  0  0  0
   18.4613   -9.5757  -18.8009 C   0  0  0  0  0  0  0  0  0  0  0  0
   19.1166  -10.5598  -17.8942 C   0  0  2  0  0  0  0  0  0  0  0  0
   18.3695  -11.7579  -17.6743 N   0  0  0  0  0  0  0  0  0  0  0  0
   19.4820   -9.8776  -16.6124 C   0  0  0  0  0  0  0  0  0  0  0  0
   18.6704   -9.8108  -15.6572 O   0  0  0  0  0  0  0  0  0  0  0  0
   23.8131  -11.9844  -15.3736 C   0  0  0  0  0  0  0  0  0  0  0  0
   22.4683  -11.2849  -15.3504 C   0  0  0  0  0  0  0  0  0  0  0  0
   22.6115   -9.8171  -15.0636 C   0  0  2  0  0  0  0  0  0  0  0  0
   23.4096   -9.5442  -13.8214 C   0  0  0  0  0  0  0  0  0  0  0  0
   21.3171   -9.0519  -15.0866 C   0  0  2  0  0  0  0  0  0  0  0  0
   20.7576   -9.2829  -16.4321 N   0  0  0  0  0  0  0  0  0  0  0  0
   21.4438   -7.6197  -14.8130 C   0  0  0  0  0  0  0  0  0  0  0  0
   21.2302   -7.0759  -13.5375 O   0  0  0  0  0  0  0  0  0  0  0  0
   21.7515   -6.7963  -15.7063 O   0  0  0  0  0  0  0  0  0  0  0  0
  2  3  1  0
  2  1  1  6
  4  5  1  0
  4  3  1  0
  6  7  1  0
  6  5  1  0
  8  2  1  0
  9  8  2  0
 10 11  1  0
 11 13  1  0
 12 11  2  0
 14 13  1  6
 14 15  1  0
 15  8  1  0
 16 14  1  0
 16 17  2  0
 18 19  1  0
 19 20  1  0
 20 22  1  0
 20 21  1  1
 22 23  1  6
 23 16  1  0
 24 22  1  0
 25 24  1  0
 26 24  2  0
M  END
$$$$
