KNI.pdb
     RDKit          3D

 26 25  0  0  1  0  0  0  0  0999 V2000
   28.7254  -33.6269  -13.9561 N   0  0  0  0  0  0  0  0  0  0  0  0
   28.1262  -34.1346  -15.1526 C   0  0  1  0  0  0  0  0  0  0  0  0
   26.7069  -34.5846  -14.9809 C   0  0  0  0  0  0  0  0  0  0  0  0
   25.8511  -33.7002  -14.1562 C   0  0  0  0  0  0  0  0  0  0  0  0
   24.4282  -34.1104  -13.9806 C   0  0  0  0  0  0  0  0  0  0  0  0
   23.6919  -33.0437  -13.1441 C   0  0  0  0  0  0  0  0  0  0  0  0
   22.3393  -33.5343  -12.9647 N   0  0  0  0  0  0  0  0  0  0  0  0
   28.1986  -33.1560  -16.2747 C   0  0  0  0  0  0  0  0  0  0  0  0
   27.7689  -33.4925  -17.4301 O   0  0  0  0  0  0  0  0  0  0  0  0
   28.0320  -27.2187  -17.6019 N   0  0  0  0  0  0  0  0  0  0  0  0
   27.9639  -28.6140  -17.7814 C   0  0  0  0  0  0  0  0  0  0  0  0
   27.8567  -29.0417  -18.9611 O   0  0  0  0  0  0  0  0  0  0  0  0
   28.0066  -29.6290  -16.7108 C   0  0  0  0  0  0  0  0  0  0  0  0
   28.7903  -30.8548  -17.0321 C   0  0  2  0  0  0  0  0  0  0  0  0
   28.7439  -31.8722  -16.0298 N   0  0  0  0  0  0  0  0  0  0  0  0
   30.1939  -30.4630  -17.3761 C   0  0  0  0  0  0  0  0  0  0  0  0
   30.9987  -30.0839  -16.4904 O   0  0  0  0  0  0  0  0  0  0  0  0
   33.3441  -33.5634  -19.7051 C   0  0  0  0  0  0  0  0  0  0  0  0
   32.7514  -32.4064  -18.9253 C   0  0  0  0  0  0  0  0  0  0  0  0
   32.6874  -31.1543  -19.7533 C   0  0  2  0  0  0  0  0  0  0  0  0
   34.0218  -30.7668  -20.3223 C   0  0  0  0  0  0  0  0  0  0  0  0
   32.0007  -29.9992  -19.0783 C   0  0  2  0  0  0  0  0  0  0  0  0
   30.6638  -30.5061  -18.7141 N   0  0  0  0  0  0  0  0  0  0  0  0
   31.8954  -28.7861  -19.8904 C   0  0  0  0  0  0  0  0  0  0  0  0
   32.7386  -27.6805  -19.7035 O   0  0  0  0  0  0  0  0  0  0  0  0
   31.0429  -28.6670  -20.8012 O   0  0  0  0  0  0  0  0  0  0  0  0
  2  3  1  0
  2  1  1  1
  4  5  1  0
  4  3  1  0
  6  7  1  0
  6  5  1  0
  8  2  1  0
  9  8  2  0
 10 11  1  0
 11 13  1  0
 12 11  2  0
 14 13  1  1
 14 15  1  0
 15  8  1  0
 16 14  1  0
 16 17  2  0
 18 19  1  0
 19 20  1  0
 20 22  1  0
 20 21  1  1
 22 23  1  6
 23 16  1  0
 24 22  1  0
 25 24  1  0
 26 24  2  0
M  END
$$$$
