KNI.pdb
     RDKit          3D

 26 25  0  0  1  0  0  0  0  0999 V2000
   26.5225  -21.7804  -15.7321 N   0  0  0  0  0  0  0  0  0  0  0  0
   26.5108  -20.3590  -15.8994 C   0  0  1  0  0  0  0  0  0  0  0  0
   25.7618  -19.8932  -17.1111 C   0  0  0  0  0  0  0  0  0  0  0  0
   26.5941  -19.3320  -18.2007 C   0  0  0  0  0  0  0  0  0  0  0  0
   28.0730  -19.4395  -18.0439 C   0  0  0  0  0  0  0  0  0  0  0  0
   28.7028  -19.8024  -19.4046 C   0  0  0  0  0  0  0  0  0  0  0  0
   29.1495  -18.5528  -19.9889 N   0  0  0  0  0  0  0  0  0  0  0  0
   25.9817  -19.6572  -14.6954 C   0  0  0  0  0  0  0  0  0  0  0  0
   25.4590  -18.4982  -14.8231 O   0  0  0  0  0  0  0  0  0  0  0  0
   21.7240  -19.6105  -11.6159 N   0  0  0  0  0  0  0  0  0  0  0  0
   22.6537  -20.6405  -11.8578 C   0  0  0  0  0  0  0  0  0  0  0  0
   22.5943  -21.6595  -11.1201 O   0  0  0  0  0  0  0  0  0  0  0  0
   23.6978  -20.6388  -12.9010 C   0  0  0  0  0  0  0  0  0  0  0  0
   25.0449  -20.1926  -12.4470 C   0  0  2  0  0  0  0  0  0  0  0  0
   26.0720  -20.2965  -13.4350 N   0  0  0  0  0  0  0  0  0  0  0  0
   25.4000  -20.9135  -11.1836 C   0  0  0  0  0  0  0  0  0  0  0  0
   25.7396  -22.1219  -11.1981 O   0  0  0  0  0  0  0  0  0  0  0  0
   28.2501  -18.2631   -7.7835 C   0  0  0  0  0  0  0  0  0  0  0  0
   27.7240  -19.5107   -8.4653 C   0  0  0  0  0  0  0  0  0  0  0  0
   26.4444  -19.9875   -7.8386 C   0  0  2  0  0  0  0  0  0  0  0  0
   26.6326  -20.4651   -6.4276 C   0  0  0  0  0  0  0  0  0  0  0  0
   25.6747  -20.9731   -8.6740 C   0  0  2  0  0  0  0  0  0  0  0  0
   25.3653  -20.2569   -9.9263 N   0  0  0  0  0  0  0  0  0  0  0  0
   24.4538  -21.4866   -8.0512 C   0  0  0  0  0  0  0  0  0  0  0  0
   23.1762  -21.0390   -8.4195 O   0  0  0  0  0  0  0  0  0  0  0  0
   24.4819  -22.3580   -7.1509 O   0  0  0  0  0  0  0  0  0  0  0  0
  2  3  1  0
  2  1  1  1
  4  5  1  0
  4  3  1  0
  6  7  1  0
  6  5  1  0
  8  2  1  0
  9  8  2  0
 10 11  1  0
 11 13  1  0
 12 11  2  0
 14 13  1  6
 14 15  1  0
 15  8  1  0
 16 14  1  0
 16 17  2  0
 18 19  1  0
 19 20  1  0
 20 22  1  0
 20 21  1  1
 22 23  1  6
 23 16  1  0
 24 22  1  0
 25 24  1  0
 26 24  2  0
M  END
$$$$
