GRD.pdb
     RDKit          3D

 24 23  0  0  1  0  0  0  0  0999 V2000
   21.9093  -10.6918  -15.2270 N   0  0  0  0  0  0  0  0  0  0  0  0
   21.6299  -10.2234  -13.8813 C   0  0  0  0  0  0  0  0  0  0  0  0
   20.6593   -9.0998  -13.9073 C   0  0  0  0  0  0  0  0  0  0  0  0
   20.1938   -8.7394  -14.9969 O   0  0  0  0  0  0  0  0  0  0  0  0
   15.3466   -7.8415   -7.5601 N   0  0  0  0  0  0  0  0  0  0  0  0
   14.8106   -8.6221   -8.6251 C   0  0  0  0  0  0  0  0  0  0  0  0
   13.7255   -9.2860   -8.3973 N   0  0  0  0  0  0  0  0  0  0  0  0
   15.4709   -8.6473   -9.8784 N   0  0  0  0  0  0  0  0  0  0  0  0
   16.7047   -7.9071  -10.0144 C   0  0  0  0  0  0  0  0  0  0  0  0
   17.2647   -8.0697  -11.4480 C   0  0  0  0  0  0  0  0  0  0  0  0
   18.5424   -7.3241  -11.4679 C   0  0  0  0  0  0  0  0  0  0  0  0
   19.3149   -7.3390  -12.7597 C   0  0  2  0  0  0  0  0  0  0  0  0
   20.2775   -8.4592  -12.7135 N   0  0  0  0  0  0  0  0  0  0  0  0
   20.1322   -6.1308  -13.0034 C   0  0  0  0  0  0  0  0  0  0  0  0
   21.3709   -6.0804  -12.6660 O   0  0  0  0  0  0  0  0  0  0  0  0
   13.1797   -9.7962   -9.1028 N   0  0  0  0  0  0  0  0  0  0  0  0
   19.6384   -4.9457  -13.6200 C   0  0  1  0  0  0  0  0  0  0  0  0
   20.5185   -3.8668  -14.0321 C   0  0  0  0  0  0  0  0  0  0  0  0
   21.6406   -4.3042  -14.9222 C   0  0  0  0  0  0  0  0  0  0  0  0
   22.4664   -3.1743  -15.4002 O   0  0  0  0  0  0  0  0  0  0  0  0
   22.4631   -2.0191  -14.8733 C   0  0  0  0  0  0  0  0  0  0  0  0
   19.7425   -2.7416  -14.6606 O   0  0  0  0  0  0  0  0  0  0  0  0
   18.8325   -2.9907  -15.4726 O   0  0  0  0  0  0  0  0  0  0  0  0
   23.3127   -3.3331  -16.4870 O   0  0  0  0  0  0  0  0  0  0  0  0
  1  2  1  0
  2  3  1  0
  3  4  2  0
  3 13  1  0
  5  6  1  0
  6  8  1  0
  7  6  2  0
  9  8  1  0
  9 10  1  0
 10 11  1  0
 12 11  1  1
 12 14  1  0
 13 12  1  0
 14 15  2  0
 14 16  1  0
 16 17  1  0
 17 21  1  0
 17 18  1  6
 19 18  1  0
 19 23  1  0
 20 19  2  0
 21 22  2  0
 21 24  1  0
M  END
$$$$
