GRD.pdb
     RDKit          3D

 24 23  0  0  1  0  0  0  0  0999 V2000
   22.8114  -13.8944  -19.9336 N   0  0  0  0  0  0  0  0  0  0  0  0
   22.5279  -13.9334  -18.5100 C   0  0  0  0  0  0  0  0  0  0  0  0
   21.4081  -13.0184  -18.1724 C   0  0  0  0  0  0  0  0  0  0  0  0
   21.1281  -12.1035  -18.9586 O   0  0  0  0  0  0  0  0  0  0  0  0
   15.3191  -14.8637  -13.9147 N   0  0  0  0  0  0  0  0  0  0  0  0
   16.0250  -15.8437  -14.6713 C   0  0  0  0  0  0  0  0  0  0  0  0
   15.4582  -16.9918  -14.8460 N   0  0  0  0  0  0  0  0  0  0  0  0
   17.3034  -15.5363  -15.1991 N   0  0  0  0  0  0  0  0  0  0  0  0
   17.3705  -14.7489  -16.4091 C   0  0  0  0  0  0  0  0  0  0  0  0
   17.3329  -13.2410  -16.0626 C   0  0  0  0  0  0  0  0  0  0  0  0
   18.7018  -12.8955  -15.6203 C   0  0  0  0  0  0  0  0  0  0  0  0
   19.5984  -12.2445  -16.6391 C   0  0  2  0  0  0  0  0  0  0  0  0
   20.6803  -13.1916  -16.9801 N   0  0  0  0  0  0  0  0  0  0  0  0
   20.2834  -11.0221  -16.1661 C   0  0  0  0  0  0  0  0  0  0  0  0
   21.3420  -11.0852  -15.4407 O   0  0  0  0  0  0  0  0  0  0  0  0
   15.8701  -17.7900  -15.3452 N   0  0  0  0  0  0  0  0  0  0  0  0
   19.8487   -9.6990  -16.4644 C   0  0  1  0  0  0  0  0  0  0  0  0
   20.5870   -8.5278  -16.0266 C   0  0  0  0  0  0  0  0  0  0  0  0
   20.9700   -7.6001  -17.1382 C   0  0  0  0  0  0  0  0  0  0  0  0
   21.6463   -6.3766  -16.6558 O   0  0  0  0  0  0  0  0  0  0  0  0
   22.7713   -6.3718  -16.0672 C   0  0  0  0  0  0  0  0  0  0  0  0
   19.8464   -7.7911  -14.9441 O   0  0  0  0  0  0  0  0  0  0  0  0
   18.6080   -7.8868  -14.8613 O   0  0  0  0  0  0  0  0  0  0  0  0
   21.0585   -5.1332  -16.8318 O   0  0  0  0  0  0  0  0  0  0  0  0
  1  2  1  0
  2  3  1  0
  3  4  2  0
  3 13  1  0
  5  6  1  0
  6  8  1  0
  7  6  2  0
  9  8  1  0
  9 10  1  0
 10 11  1  0
 12 11  1  1
 12 14  1  0
 13 12  1  0
 14 15  2  0
 14 16  1  0
 16 17  1  0
 17 21  1  0
 17 18  1  1
 19 18  1  0
 19 23  1  0
 20 19  2  0
 21 22  2  0
 21 24  1  0
M  END
$$$$
