GRD.pdb
     RDKit          3D

 24 23  0  0  1  0  0  0  0  0999 V2000
   19.8759  -20.9232  -10.4687 N   0  0  0  0  0  0  0  0  0  0  0  0
   20.6725  -21.6142  -11.4670 C   0  0  0  0  0  0  0  0  0  0  0  0
   21.6452  -20.6857  -12.0972 C   0  0  0  0  0  0  0  0  0  0  0  0
   21.3684  -19.4799  -12.1526 O   0  0  0  0  0  0  0  0  0  0  0  0
   29.4882  -20.3183  -11.9869 N   0  0  0  0  0  0  0  0  0  0  0  0
   29.0557  -21.2473  -10.9965 C   0  0  0  0  0  0  0  0  0  0  0  0
   29.7478  -21.3324   -9.9085 N   0  0  0  0  0  0  0  0  0  0  0  0
   27.9018  -22.0357  -11.2297 N   0  0  0  0  0  0  0  0  0  0  0  0
   27.1469  -21.7988  -12.4392 C   0  0  0  0  0  0  0  0  0  0  0  0
   25.8246  -21.0680  -12.1037 C   0  0  0  0  0  0  0  0  0  0  0  0
   25.1307  -20.8780  -13.3965 C   0  0  0  0  0  0  0  0  0  0  0  0
   23.7621  -20.2534  -13.3448 C   0  0  2  0  0  0  0  0  0  0  0  0
   22.8585  -21.1710  -12.6202 N   0  0  0  0  0  0  0  0  0  0  0  0
   23.1299  -20.0436  -14.6652 C   0  0  0  0  0  0  0  0  0  0  0  0
   22.1439  -20.7674  -15.0587 O   0  0  0  0  0  0  0  0  0  0  0  0
   29.5397  -21.9536   -9.1168 N   0  0  0  0  0  0  0  0  0  0  0  0
   23.5402  -19.0466  -15.5959 C   0  0  2  0  0  0  0  0  0  0  0  0
   22.6023  -18.3987  -16.4953 C   0  0  0  0  0  0  0  0  0  0  0  0
   21.4075  -17.8126  -15.8085 C   0  0  0  0  0  0  0  0  0  0  0  0
   20.1512  -18.5173  -16.1434 O   0  0  0  0  0  0  0  0  0  0  0  0
   20.0879  -19.5371  -16.8972 C   0  0  0  0  0  0  0  0  0  0  0  0
   23.2900  -17.3680  -17.3484 O   0  0  0  0  0  0  0  0  0  0  0  0
   23.9059  -16.4278  -16.8133 O   0  0  0  0  0  0  0  0  0  0  0  0
   18.9407  -18.0779  -15.6294 O   0  0  0  0  0  0  0  0  0  0  0  0
  1  2  1  0
  2  3  1  0
  3  4  2  0
  3 13  1  0
  5  6  1  0
  6  8  1  0
  7  6  2  0
  9  8  1  0
  9 10  1  0
 10 11  1  0
 12 11  1  6
 12 14  1  0
 13 12  1  0
 14 15  2  0
 14 16  1  0
 16 17  1  0
 17 21  1  0
 17 18  1  6
 19 18  1  0
 19 23  1  0
 20 19  2  0
 21 22  2  0
 21 24  1  0
M  END
$$$$
