GRD.pdb
     RDKit          3D

 24 23  0  0  1  0  0  0  0  0999 V2000
   22.5866  -20.7185   -8.0408 N   0  0  0  0  0  0  0  0  0  0  0  0
   23.7296  -21.2164   -8.7852 C   0  0  0  0  0  0  0  0  0  0  0  0
   23.8388  -20.5328  -10.0990 C   0  0  0  0  0  0  0  0  0  0  0  0
   22.9471  -19.7419  -10.4353 O   0  0  0  0  0  0  0  0  0  0  0  0
   27.8946  -21.5300  -16.2580 N   0  0  0  0  0  0  0  0  0  0  0  0
   28.0577  -20.1670  -16.6412 C   0  0  0  0  0  0  0  0  0  0  0  0
   27.9202  -19.8733  -17.8921 N   0  0  0  0  0  0  0  0  0  0  0  0
   28.3606  -19.1928  -15.6580 N   0  0  0  0  0  0  0  0  0  0  0  0
   28.2052  -19.5555  -14.2677 C   0  0  0  0  0  0  0  0  0  0  0  0
   26.8030  -19.1362  -13.7645 C   0  0  0  0  0  0  0  0  0  0  0  0
   26.4417  -20.1165  -12.7169 C   0  0  0  0  0  0  0  0  0  0  0  0
   25.0053  -20.1280  -12.2670 C   0  0  2  0  0  0  0  0  0  0  0  0
   24.9372  -20.7813  -10.9433 N   0  0  0  0  0  0  0  0  0  0  0  0
   24.0937  -20.9053  -13.1342 C   0  0  0  0  0  0  0  0  0  0  0  0
   23.6816  -22.0743  -12.7959 O   0  0  0  0  0  0  0  0  0  0  0  0
   28.1453  -18.9664  -18.3195 N   0  0  0  0  0  0  0  0  0  0  0  0
   23.5990  -20.4433  -14.3873 C   0  0  2  0  0  0  0  0  0  0  0  0
   22.2020  -20.5756  -14.7608 C   0  0  0  0  0  0  0  0  0  0  0  0
   21.2459  -20.0562  -13.7319 C   0  0  0  0  0  0  0  0  0  0  0  0
   19.8309  -20.2347  -14.1229 O   0  0  0  0  0  0  0  0  0  0  0  0
   19.3796  -19.9969  -15.2856 C   0  0  0  0  0  0  0  0  0  0  0  0
   21.9365  -19.9515  -16.1036 O   0  0  0  0  0  0  0  0  0  0  0  0
   22.4358  -18.8468  -16.3861 O   0  0  0  0  0  0  0  0  0  0  0  0
   18.8990  -20.6867  -13.2010 O   0  0  0  0  0  0  0  0  0  0  0  0
  1  2  1  0
  2  3  1  0
  3  4  2  0
  3 13  1  0
  5  6  1  0
  6  8  1  0
  7  6  2  0
  9  8  1  0
  9 10  1  0
 10 11  1  0
 12 11  1  6
 12 14  1  0
 13 12  1  0
 14 15  2  0
 14 16  1  0
 16 17  1  0
 17 21  1  0
 17 18  1  1
 19 18  1  0
 19 23  1  0
 20 19  2  0
 21 22  2  0
 21 24  1  0
M  END
$$$$
