GRD.pdb
     RDKit          3D

 24 23  0  0  1  0  0  0  0  0999 V2000
   23.2243  -20.4420   -7.8646 N   0  0  0  0  0  0  0  0  0  0  0  0
   24.1937  -21.1852   -8.6497 C   0  0  0  0  0  0  0  0  0  0  0  0
   24.3478  -20.5845   -9.9991 C   0  0  0  0  0  0  0  0  0  0  0  0
   23.7433  -19.5348  -10.2568 O   0  0  0  0  0  0  0  0  0  0  0  0
   28.4185  -18.9132  -17.1592 N   0  0  0  0  0  0  0  0  0  0  0  0
   28.4527  -20.2094  -16.5678 C   0  0  0  0  0  0  0  0  0  0  0  0
   28.6875  -21.2176  -17.3414 N   0  0  0  0  0  0  0  0  0  0  0  0
   28.2318  -20.3518  -15.1755 N   0  0  0  0  0  0  0  0  0  0  0  0
   27.5281  -19.2951  -14.4849 C   0  0  0  0  0  0  0  0  0  0  0  0
   27.5638  -19.5450  -12.9580 C   0  0  0  0  0  0  0  0  0  0  0  0
   26.7613  -20.7671  -12.7314 C   0  0  0  0  0  0  0  0  0  0  0  0
   25.3359  -20.5689  -12.2899 C   0  0  2  0  0  0  0  0  0  0  0  0
   25.1672  -21.1995  -10.9642 N   0  0  0  0  0  0  0  0  0  0  0  0
   24.3262  -21.2103  -13.1595 C   0  0  0  0  0  0  0  0  0  0  0  0
   23.9720  -22.4331  -12.9860 O   0  0  0  0  0  0  0  0  0  0  0  0
   28.6708  -22.2045  -17.0558 N   0  0  0  0  0  0  0  0  0  0  0  0
   23.6684  -20.5511  -14.2372 C   0  0  1  0  0  0  0  0  0  0  0  0
   22.2783  -20.8109  -14.5666 C   0  0  0  0  0  0  0  0  0  0  0  0
   21.3419  -20.6682  -13.4066 C   0  0  0  0  0  0  0  0  0  0  0  0
   19.9461  -21.0146  -13.7512 O   0  0  0  0  0  0  0  0  0  0  0  0
   19.5987  -21.5619  -14.8429 C   0  0  0  0  0  0  0  0  0  0  0  0
   21.8273  -19.9667  -15.7272 O   0  0  0  0  0  0  0  0  0  0  0  0
   22.0136  -18.7360  -15.7111 O   0  0  0  0  0  0  0  0  0  0  0  0
   18.9158  -20.7460  -12.8629 O   0  0  0  0  0  0  0  0  0  0  0  0
  1  2  1  0
  2  3  1  0
  3  4  2  0
  3 13  1  0
  5  6  1  0
  6  8  1  0
  7  6  2  0
  9  8  1  0
  9 10  1  0
 10 11  1  0
 12 11  1  6
 12 14  1  0
 13 12  1  0
 14 15  2  0
 14 16  1  0
 16 17  1  0
 17 21  1  0
 17 18  1  6
 19 18  1  0
 19 23  1  0
 20 19  2  0
 21 22  2  0
 21 24  1  0
M  END
$$$$
