GRD.pdb
     RDKit          3D

 24 23  0  0  1  0  0  0  0  0999 V2000
   23.9604  -16.8045  -19.0309 N   0  0  0  0  0  0  0  0  0  0  0  0
   23.3012  -16.6428  -17.7473 C   0  0  0  0  0  0  0  0  0  0  0  0
   22.6754  -17.9180  -17.3140 C   0  0  0  0  0  0  0  0  0  0  0  0
   21.9821  -18.5473  -18.1246 O   0  0  0  0  0  0  0  0  0  0  0  0
   23.9880  -24.3698  -14.1786 N   0  0  0  0  0  0  0  0  0  0  0  0
   25.0435  -23.4122  -14.1931 C   0  0  0  0  0  0  0  0  0  0  0  0
   26.1262  -23.7199  -14.8279 N   0  0  0  0  0  0  0  0  0  0  0  0
   24.8779  -22.1748  -13.5232 N   0  0  0  0  0  0  0  0  0  0  0  0
   23.6325  -21.9356  -12.8300 C   0  0  0  0  0  0  0  0  0  0  0  0
   22.5453  -21.4842  -13.8348 C   0  0  0  0  0  0  0  0  0  0  0  0
   23.0932  -20.2869  -14.5094 C   0  0  0  0  0  0  0  0  0  0  0  0
   22.2495  -19.6768  -15.5965 C   0  0  2  0  0  0  0  0  0  0  0  0
   22.8697  -18.3995  -16.0058 N   0  0  0  0  0  0  0  0  0  0  0  0
   20.8720  -19.3289  -15.1860 C   0  0  0  0  0  0  0  0  0  0  0  0
   20.5612  -18.1352  -14.8263 O   0  0  0  0  0  0  0  0  0  0  0  0
   26.9907  -23.1646  -14.8358 N   0  0  0  0  0  0  0  0  0  0  0  0
   19.7915  -20.2563  -15.1549 C   0  0  1  0  0  0  0  0  0  0  0  0
   18.4385  -19.8526  -14.8161 C   0  0  0  0  0  0  0  0  0  0  0  0
   17.8517  -18.8447  -15.7555 C   0  0  0  0  0  0  0  0  0  0  0  0
   16.4378  -18.5344  -15.4527 O   0  0  0  0  0  0  0  0  0  0  0  0
   16.0210  -18.1588  -14.3137 C   0  0  0  0  0  0  0  0  0  0  0  0
   17.5335  -21.0461  -14.6761 O   0  0  0  0  0  0  0  0  0  0  0  0
   16.6104  -21.0327  -13.8410 O   0  0  0  0  0  0  0  0  0  0  0  0
   15.4679  -18.6450  -16.4374 O   0  0  0  0  0  0  0  0  0  0  0  0
  1  2  1  0
  2  3  1  0
  3  4  2  0
  3 13  1  0
  5  6  1  0
  6  8  1  0
  7  6  2  0
  9  8  1  0
  9 10  1  0
 10 11  1  0
 12 11  1  1
 12 14  1  0
 13 12  1  0
 14 15  2  0
 14 16  1  0
 16 17  1  0
 17 21  1  0
 17 18  1  1
 19 18  1  0
 19 23  1  0
 20 19  2  0
 21 22  2  0
 21 24  1  0
M  END
$$$$
