GRD.pdb
     RDKit          3D

 24 23  0  0  1  0  0  0  0  0999 V2000
   28.3407  -21.2483  -17.7060 N   0  0  0  0  0  0  0  0  0  0  0  0
   28.2315  -22.5503  -17.0725 C   0  0  0  0  0  0  0  0  0  0  0  0
   27.1407  -22.5541  -16.0648 C   0  0  0  0  0  0  0  0  0  0  0  0
   26.8808  -23.6098  -15.4717 O   0  0  0  0  0  0  0  0  0  0  0  0
   25.9169  -20.7000   -9.2374 N   0  0  0  0  0  0  0  0  0  0  0  0
   24.5370  -20.9771   -9.4609 C   0  0  0  0  0  0  0  0  0  0  0  0
   23.7084  -20.7164   -8.5040 N   0  0  0  0  0  0  0  0  0  0  0  0
   24.1220  -21.5205  -10.7019 N   0  0  0  0  0  0  0  0  0  0  0  0
   25.0445  -21.4657  -11.8130 C   0  0  0  0  0  0  0  0  0  0  0  0
   24.8975  -20.1169  -12.5575 C   0  0  0  0  0  0  0  0  0  0  0  0
   25.7339  -20.2345  -13.7722 C   0  0  0  0  0  0  0  0  0  0  0  0
   25.4147  -21.3706  -14.7066 C   0  0  2  0  0  0  0  0  0  0  0  0
   26.4183  -21.3776  -15.7912 N   0  0  0  0  0  0  0  0  0  0  0  0
   24.1055  -21.2611  -15.3858 C   0  0  0  0  0  0  0  0  0  0  0  0
   23.8382  -20.2801  -16.1713 O   0  0  0  0  0  0  0  0  0  0  0  0
   22.6941  -20.8783   -8.5333 N   0  0  0  0  0  0  0  0  0  0  0  0
   23.0505  -22.2066  -15.2400 C   0  0  2  0  0  0  0  0  0  0  0  0
   21.6995  -21.9308  -15.6953 C   0  0  0  0  0  0  0  0  0  0  0  0
   20.7396  -23.0576  -15.4682 C   0  0  0  0  0  0  0  0  0  0  0  0
   19.8436  -23.2881  -16.6218 O   0  0  0  0  0  0  0  0  0  0  0  0
   19.7751  -22.5225  -17.6324 C   0  0  0  0  0  0  0  0  0  0  0  0
   21.1757  -20.6518  -15.1012 O   0  0  0  0  0  0  0  0  0  0  0  0
   21.3755  -20.3962  -13.8994 O   0  0  0  0  0  0  0  0  0  0  0  0
   19.0063  -24.3930  -16.6513 O   0  0  0  0  0  0  0  0  0  0  0  0
  1  2  1  0
  2  3  1  0
  3  4  2  0
  3 13  1  0
  5  6  1  0
  6  8  1  0
  7  6  2  0
  9  8  1  0
  9 10  1  0
 10 11  1  0
 12 11  1  1
 12 14  1  0
 13 12  1  0
 14 15  2  0
 14 16  1  0
 16 17  1  0
 17 21  1  0
 17 18  1  1
 19 18  1  0
 19 23  1  0
 20 19  2  0
 21 22  2  0
 21 24  1  0
M  END
$$$$
