GRD.pdb
     RDKit          3D

 24 23  0  0  1  0  0  0  0  0999 V2000
   21.2977   -7.7304  -12.9027 N   0  0  0  0  0  0  0  0  0  0  0  0
   20.7483   -7.9718  -11.5804 C   0  0  0  0  0  0  0  0  0  0  0  0
   19.3786   -7.4086  -11.4701 C   0  0  0  0  0  0  0  0  0  0  0  0
   18.9309   -6.7411  -12.4123 O   0  0  0  0  0  0  0  0  0  0  0  0
   12.6024  -10.0818   -9.2279 N   0  0  0  0  0  0  0  0  0  0  0  0
   12.1383   -8.8786   -8.6214 C   0  0  0  0  0  0  0  0  0  0  0  0
   10.8715   -8.6283   -8.6737 N   0  0  0  0  0  0  0  0  0  0  0  0
   13.0619   -8.0084   -7.9913 N   0  0  0  0  0  0  0  0  0  0  0  0
   14.4728   -8.2688   -8.1660 C   0  0  0  0  0  0  0  0  0  0  0  0
   14.8943   -7.9492   -9.6204 C   0  0  0  0  0  0  0  0  0  0  0  0
   16.3464   -8.2244   -9.6881 C   0  0  0  0  0  0  0  0  0  0  0  0
   17.2161   -7.1351  -10.2563 C   0  0  2  0  0  0  0  0  0  0  0  0
   18.6064   -7.6322  -10.3147 N   0  0  0  0  0  0  0  0  0  0  0  0
   17.2749   -5.9038   -9.4393 C   0  0  0  0  0  0  0  0  0  0  0  0
   17.9018   -5.8728   -8.3181 O   0  0  0  0  0  0  0  0  0  0  0  0
   10.4142   -7.7873   -8.3002 N   0  0  0  0  0  0  0  0  0  0  0  0
   16.6632   -4.6719   -9.8091 C   0  0  2  0  0  0  0  0  0  0  0  0
   16.6822   -3.5097   -8.9388 C   0  0  0  0  0  0  0  0  0  0  0  0
   17.7349   -2.5042   -9.2905 C   0  0  0  0  0  0  0  0  0  0  0  0
   17.7116   -1.3180   -8.4078 O   0  0  0  0  0  0  0  0  0  0  0  0
   16.9147   -1.1758   -7.4296 C   0  0  0  0  0  0  0  0  0  0  0  0
   15.3259   -2.8631   -8.8650 O   0  0  0  0  0  0  0  0  0  0  0  0
   14.5246   -2.9881   -9.8094 O   0  0  0  0  0  0  0  0  0  0  0  0
   18.5929   -0.2684   -8.6182 O   0  0  0  0  0  0  0  0  0  0  0  0
  1  2  1  0
  2  3  1  0
  3  4  2  0
  3 13  1  0
  5  6  1  0
  6  8  1  0
  7  6  2  0
  9  8  1  0
  9 10  1  0
 10 11  1  0
 12 11  1  1
 12 14  1  0
 13 12  1  0
 14 15  2  0
 14 16  1  0
 16 17  1  0
 17 21  1  0
 17 18  1  6
 19 18  1  0
 19 23  1  0
 20 19  2  0
 21 22  2  0
 21 24  1  0
M  END
$$$$
