GRD.pdb
     RDKit          3D

 24 23  0  0  1  0  0  0  0  0999 V2000
   27.3935  -22.0325  -15.3459 N   0  0  0  0  0  0  0  0  0  0  0  0
   26.7995  -21.1981  -16.3752 C   0  0  0  0  0  0  0  0  0  0  0  0
   25.6762  -20.4003  -15.8209 C   0  0  0  0  0  0  0  0  0  0  0  0
   25.8156  -19.8640  -14.7133 O   0  0  0  0  0  0  0  0  0  0  0  0
   23.0847  -13.8960  -18.4305 N   0  0  0  0  0  0  0  0  0  0  0  0
   21.8513  -14.4077  -17.9327 C   0  0  0  0  0  0  0  0  0  0  0  0
   20.8003  -13.6652  -18.0515 N   0  0  0  0  0  0  0  0  0  0  0  0
   21.8145  -15.6908  -17.3330 N   0  0  0  0  0  0  0  0  0  0  0  0
   22.9985  -16.1580  -16.6484 C   0  0  0  0  0  0  0  0  0  0  0  0
   23.6922  -17.2614  -17.4831 C   0  0  0  0  0  0  0  0  0  0  0  0
   22.9443  -18.5071  -17.2039 C   0  0  0  0  0  0  0  0  0  0  0  0
   23.4281  -19.3428  -16.0493 C   0  0  2  0  0  0  0  0  0  0  0  0
   24.4772  -20.2581  -16.5443 N   0  0  0  0  0  0  0  0  0  0  0  0
   22.3985  -20.2172  -15.4470 C   0  0  0  0  0  0  0  0  0  0  0  0
   22.0437  -21.3182  -16.0064 O   0  0  0  0  0  0  0  0  0  0  0  0
   19.8731  -13.8783  -17.6633 N   0  0  0  0  0  0  0  0  0  0  0  0
   21.7259  -19.9312  -14.2246 C   0  0  2  0  0  0  0  0  0  0  0  0
   20.6595  -20.7751  -13.7156 C   0  0  0  0  0  0  0  0  0  0  0  0
   20.6664  -20.9313  -12.2262 C   0  0  0  0  0  0  0  0  0  0  0  0
   19.5724  -21.7973  -11.7360 O   0  0  0  0  0  0  0  0  0  0  0  0
   18.7719  -22.4280  -12.4933 C   0  0  0  0  0  0  0  0  0  0  0  0
   19.3151  -20.3043  -14.1995 O   0  0  0  0  0  0  0  0  0  0  0  0
   19.0383  -19.0907  -14.1846 O   0  0  0  0  0  0  0  0  0  0  0  0
   19.3648  -21.9644  -10.3753 O   0  0  0  0  0  0  0  0  0  0  0  0
  1  2  1  0
  2  3  1  0
  3  4  2  0
  3 13  1  0
  5  6  1  0
  6  8  1  0
  7  6  2  0
  9  8  1  0
  9 10  1  0
 10 11  1  0
 12 11  1  6
 12 14  1  0
 13 12  1  0
 14 15  2  0
 14 16  1  0
 16 17  1  0
 17 21  1  0
 17 18  1  1
 19 18  1  0
 19 23  1  0
 20 19  2  0
 21 22  2  0
 21 24  1  0
M  END
$$$$
