GRD.pdb
     RDKit          3D

 24 23  0  0  1  0  0  0  0  0999 V2000
   28.3621  -23.1179  -18.1001 N   0  0  0  0  0  0  0  0  0  0  0  0
   28.5457  -21.8769  -17.3689 C   0  0  0  0  0  0  0  0  0  0  0  0
   27.5643  -21.7710  -16.2594 C   0  0  0  0  0  0  0  0  0  0  0  0
   26.6206  -22.5719  -16.2200 O   0  0  0  0  0  0  0  0  0  0  0  0
   25.7116  -20.5080   -8.5532 N   0  0  0  0  0  0  0  0  0  0  0  0
   24.6910  -20.9640   -9.4372 C   0  0  0  0  0  0  0  0  0  0  0  0
   23.4663  -20.8891   -9.0316 N   0  0  0  0  0  0  0  0  0  0  0  0
   25.0425  -21.4771  -10.7102 N   0  0  0  0  0  0  0  0  0  0  0  0
   26.4061  -21.3115  -11.1596 C   0  0  0  0  0  0  0  0  0  0  0  0
   26.5990  -19.8966  -11.7564 C   0  0  0  0  0  0  0  0  0  0  0  0
   27.4189  -20.0818  -12.9739 C   0  0  0  0  0  0  0  0  0  0  0  0
   26.7355  -20.7034  -14.1623 C   0  0  2  0  0  0  0  0  0  0  0  0
   27.7080  -20.7780  -15.2723 N   0  0  0  0  0  0  0  0  0  0  0  0
   25.5945  -19.9267  -14.6933 C   0  0  0  0  0  0  0  0  0  0  0  0
   25.7739  -18.8429  -15.3598 O   0  0  0  0  0  0  0  0  0  0  0  0
   22.6413  -21.1819   -9.5697 N   0  0  0  0  0  0  0  0  0  0  0  0
   24.2300  -20.2979  -14.5238 C   0  0  1  0  0  0  0  0  0  0  0  0
   23.1537  -19.6191  -15.2233 C   0  0  0  0  0  0  0  0  0  0  0  0
   23.3357  -19.5609  -16.7087 C   0  0  0  0  0  0  0  0  0  0  0  0
   22.4147  -18.6057  -17.3617 O   0  0  0  0  0  0  0  0  0  0  0  0
   21.6815  -17.7823  -16.7321 C   0  0  0  0  0  0  0  0  0  0  0  0
   21.8166  -20.2106  -14.8694 O   0  0  0  0  0  0  0  0  0  0  0  0
   20.7934  -19.5026  -14.9062 O   0  0  0  0  0  0  0  0  0  0  0  0
   22.3071  -18.5665  -18.7435 O   0  0  0  0  0  0  0  0  0  0  0  0
  1  2  1  0
  2  3  1  0
  3  4  2  0
  3 13  1  0
  5  6  1  0
  6  8  1  0
  7  6  2  0
  9  8  1  0
  9 10  1  0
 10 11  1  0
 12 11  1  1
 12 14  1  0
 13 12  1  0
 14 15  2  0
 14 16  1  0
 16 17  1  0
 17 21  1  0
 17 18  1  6
 19 18  1  0
 19 23  1  0
 20 19  2  0
 21 22  2  0
 21 24  1  0
M  END
$$$$
