CAT.pdb
     RDKit          3D

 19 18  0  0  1  0  0  0  0  0999 V2000
   20.5205  -15.4326  -16.1166 N   0  0  0  0  0  0  0  0  0  0  0  0
   20.9061  -14.3012  -16.8951 C   0  0  1  0  0  0  0  0  0  0  0  0
   19.8443  -13.9219  -17.9128 C   0  0  0  0  0  0  0  0  0  0  0  0
   20.4413  -12.5242  -18.9072 S   0  0  0  0  0  0  0  0  0  0  0  0
   21.1476  -13.0828  -16.0668 C   0  0  0  0  0  0  0  0  0  0  0  0
   20.1333  -12.6459  -15.4621 O   0  0  0  0  0  0  0  0  0  0  0  0
   24.0695  -11.0683  -14.8070 C   0  0  0  0  0  0  0  0  0  0  0  0
   22.5955  -11.3082  -15.1328 C   0  0  2  0  0  0  0  0  0  0  0  0
   22.4123  -12.4563  -15.9594 N   0  0  0  0  0  0  0  0  0  0  0  0
   22.1013  -10.0572  -15.7525 C   0  0  0  0  0  0  0  0  0  0  0  0
   22.3286   -9.7271  -16.9386 O   0  0  0  0  0  0  0  0  0  0  0  0
   19.0101   -9.2057  -16.6300 C   0  0  0  0  0  0  0  0  0  0  0  0
   19.3052   -8.1099  -15.6256 C   0  0  1  0  0  0  0  0  0  0  0  0
   18.7026   -8.4671  -14.4348 O   0  0  0  0  0  0  0  0  0  0  0  0
   20.8009   -7.9229  -15.4457 C   0  0  2  0  0  0  0  0  0  0  0  0
   21.3240   -9.1818  -14.9523 N   0  0  0  0  0  0  0  0  0  0  0  0
   21.1069   -6.8417  -14.4837 C   0  0  0  0  0  0  0  0  0  0  0  0
   21.6348   -7.1621  -13.2432 O   0  0  0  0  0  0  0  0  0  0  0  0
   20.9127   -5.6354  -14.7310 O   0  0  0  0  0  0  0  0  0  0  0  0
  2  1  1  1
  2  3  1  0
  4  3  1  0
  5  2  1  0
  5  6  2  0
  8  7  1  6
  9  8  1  0
  9  5  1  0
 10  8  1  0
 11 10  2  0
 13 12  1  6
 13 15  1  0
 14 13  1  0
 15 16  1  1
 15 17  1  0
 16 10  1  0
 17 18  1  0
 19 17  2  0
M  END
$$$$
