CAT.pdb
     RDKit          3D

 19 18  0  0  1  0  0  0  0  0999 V2000
   17.3090  -11.8701  -17.7467 N   0  0  0  0  0  0  0  0  0  0  0  0
   17.7445  -11.6166  -16.4122 C   0  0  1  0  0  0  0  0  0  0  0  0
   18.8540  -12.5624  -15.9861 C   0  0  0  0  0  0  0  0  0  0  0  0
   18.1422  -14.1924  -15.6186 S   0  0  0  0  0  0  0  0  0  0  0  0
   18.2781  -10.2343  -16.2294 C   0  0  0  0  0  0  0  0  0  0  0  0
   19.2369   -9.9339  -16.9881 O   0  0  0  0  0  0  0  0  0  0  0  0
   17.1773   -7.0501  -14.5700 C   0  0  0  0  0  0  0  0  0  0  0  0
   18.1956   -7.9639  -15.2514 C   0  0  2  0  0  0  0  0  0  0  0  0
   17.7575   -9.3211  -15.2814 N   0  0  0  0  0  0  0  0  0  0  0  0
   19.4705   -7.7774  -14.5213 C   0  0  0  0  0  0  0  0  0  0  0  0
   19.7718   -8.3907  -13.4723 O   0  0  0  0  0  0  0  0  0  0  0  0
   22.8744   -8.2573  -15.7089 C   0  0  0  0  0  0  0  0  0  0  0  0
   22.7629   -6.7820  -15.3804 C   0  0  1  0  0  0  0  0  0  0  0  0
   22.5247   -6.1115  -16.5647 O   0  0  0  0  0  0  0  0  0  0  0  0
   21.6523   -6.5288  -14.3771 C   0  0  2  0  0  0  0  0  0  0  0  0
   20.4049   -6.8475  -15.0437 N   0  0  0  0  0  0  0  0  0  0  0  0
   21.6328   -5.1208  -13.9240 C   0  0  0  0  0  0  0  0  0  0  0  0
   22.5896   -4.6809  -13.0234 O   0  0  0  0  0  0  0  0  0  0  0  0
   20.7875   -4.2918  -14.3144 O   0  0  0  0  0  0  0  0  0  0  0  0
  2  1  1  6
  2  3  1  0
  4  3  1  0
  5  2  1  0
  5  6  2  0
  8  7  1  1
  9  8  1  0
  9  5  1  0
 10  8  1  0
 11 10  2  0
 13 12  1  6
 13 15  1  0
 14 13  1  0
 15 16  1  6
 15 17  1  0
 16 10  1  0
 17 18  1  0
 19 17  2  0
M  END
$$$$
