CAT.pdb
     RDKit          3D

 19 18  0  0  1  0  0  0  0  0999 V2000
   17.5792  -11.6108  -16.2973 N   0  0  0  0  0  0  0  0  0  0  0  0
   18.8126  -11.1351  -16.8334 C   0  0  1  0  0  0  0  0  0  0  0  0
   18.6111  -10.3606  -18.1244 C   0  0  0  0  0  0  0  0  0  0  0  0
   18.2732  -11.5271  -19.4750 S   0  0  0  0  0  0  0  0  0  0  0  0
   19.5340  -10.2180  -15.9021 C   0  0  0  0  0  0  0  0  0  0  0  0
   18.8004   -9.3848  -15.3080 O   0  0  0  0  0  0  0  0  0  0  0  0
   22.9391   -9.9288  -14.3286 C   0  0  0  0  0  0  0  0  0  0  0  0
   21.5665   -9.4050  -14.7506 C   0  0  2  0  0  0  0  0  0  0  0  0
   20.9330  -10.2688  -15.6926 N   0  0  0  0  0  0  0  0  0  0  0  0
   21.7894   -8.0364  -15.2706 C   0  0  0  0  0  0  0  0  0  0  0  0
   22.2821   -7.7868  -16.3941 O   0  0  0  0  0  0  0  0  0  0  0  0
   19.6363   -5.5948  -16.3067 C   0  0  0  0  0  0  0  0  0  0  0  0
   20.2853   -4.9539  -15.0965 C   0  0  1  0  0  0  0  0  0  0  0  0
   19.4337   -5.1385  -14.0243 O   0  0  0  0  0  0  0  0  0  0  0  0
   21.6484   -5.5627  -14.8218 C   0  0  2  0  0  0  0  0  0  0  0  0
   21.4218   -6.9441  -14.4444 N   0  0  0  0  0  0  0  0  0  0  0  0
   22.3558   -4.8553  -13.7322 C   0  0  0  0  0  0  0  0  0  0  0  0
   22.7989   -3.5583  -13.9364 O   0  0  0  0  0  0  0  0  0  0  0  0
   22.5799   -5.3702  -12.6193 O   0  0  0  0  0  0  0  0  0  0  0  0
  2  1  1  1
  2  3  1  0
  4  3  1  0
  5  2  1  0
  5  6  2  0
  8  7  1  6
  9  8  1  0
  9  5  1  0
 10  8  1  0
 11 10  2  0
 13 12  1  6
 13 15  1  0
 14 13  1  0
 15 16  1  1
 15 17  1  0
 16 10  1  0
 17 18  1  0
 19 17  2  0
M  END
$$$$
