CAT.pdb
     RDKit          3D

 19 18  0  0  1  0  0  0  0  0999 V2000
   14.8751   -8.7179   -9.3101 N   0  0  0  0  0  0  0  0  0  0  0  0
   15.0216   -7.3410   -9.6527 C   0  0  1  0  0  0  0  0  0  0  0  0
   15.4578   -6.5018   -8.4641 C   0  0  0  0  0  0  0  0  0  0  0  0
   14.2264   -6.6576   -7.1382 S   0  0  0  0  0  0  0  0  0  0  0  0
   16.0388   -7.1148  -10.7218 C   0  0  0  0  0  0  0  0  0  0  0  0
   17.0229   -7.8994  -10.6887 O   0  0  0  0  0  0  0  0  0  0  0  0
   16.3655   -5.0265  -13.8587 C   0  0  0  0  0  0  0  0  0  0  0  0
   16.8176   -6.0430  -12.8105 C   0  0  2  0  0  0  0  0  0  0  0  0
   15.9204   -6.1016  -11.7031 N   0  0  0  0  0  0  0  0  0  0  0  0
   18.1945   -5.6553  -12.4271 C   0  0  0  0  0  0  0  0  0  0  0  0
   18.4677   -4.9162  -11.4543 O   0  0  0  0  0  0  0  0  0  0  0  0
   21.2717   -7.5545  -14.6694 C   0  0  0  0  0  0  0  0  0  0  0  0
   21.3999   -7.2144  -13.1982 C   0  0  1  0  0  0  0  0  0  0  0  0
   22.7474   -7.0952  -12.9172 O   0  0  0  0  0  0  0  0  0  0  0  0
   20.6582   -5.9318  -12.8680 C   0  0  2  0  0  0  0  0  0  0  0  0
   19.2669   -6.1525  -13.2106 N   0  0  0  0  0  0  0  0  0  0  0  0
   21.1858   -4.7805  -13.6323 C   0  0  0  0  0  0  0  0  0  0  0  0
   22.3546   -4.1636  -13.2158 O   0  0  0  0  0  0  0  0  0  0  0  0
   20.6273   -4.3254  -14.6496 O   0  0  0  0  0  0  0  0  0  0  0  0
  2  1  1  1
  2  3  1  0
  4  3  1  0
  5  2  1  0
  5  6  2  0
  8  7  1  6
  9  8  1  0
  9  5  1  0
 10  8  1  0
 11 10  2  0
 13 12  1  6
 13 15  1  0
 14 13  1  0
 15 16  1  6
 15 17  1  0
 16 10  1  0
 17 18  1  0
 19 17  2  0
M  END
$$$$
