CAT.pdb
     RDKit          3D

 19 18  0  0  1  0  0  0  0  0999 V2000
   16.5087  -10.5797  -13.7979 N   0  0  0  0  0  0  0  0  0  0  0  0
   17.2213   -9.9643  -14.8694 C   0  0  1  0  0  0  0  0  0  0  0  0
   16.3662   -8.9556  -15.6166 C   0  0  0  0  0  0  0  0  0  0  0  0
   15.0316   -9.8295  -16.4848 S   0  0  0  0  0  0  0  0  0  0  0  0
   18.4353   -9.2268  -14.4100 C   0  0  0  0  0  0  0  0  0  0  0  0
   18.2541   -8.4818  -13.4113 O   0  0  0  0  0  0  0  0  0  0  0  0
   22.1453   -9.3636  -14.9221 C   0  0  0  0  0  0  0  0  0  0  0  0
   20.8435   -8.6725  -14.5169 C   0  0  2  0  0  0  0  0  0  0  0  0
   19.6985   -9.3452  -15.0377 N   0  0  0  0  0  0  0  0  0  0  0  0
   20.9590   -7.2708  -14.9808 C   0  0  0  0  0  0  0  0  0  0  0  0
   21.0598   -6.9384  -16.1836 O   0  0  0  0  0  0  0  0  0  0  0  0
   18.6292   -4.6609  -14.6843 C   0  0  0  0  0  0  0  0  0  0  0  0
   19.8193   -4.1530  -13.8955 C   0  0  1  0  0  0  0  0  0  0  0  0
   19.5613   -4.3902  -12.5590 O   0  0  0  0  0  0  0  0  0  0  0  0
   21.0990   -4.8412  -14.3347 C   0  0  2  0  0  0  0  0  0  0  0  0
   20.9551   -6.2449  -14.0018 N   0  0  0  0  0  0  0  0  0  0  0  0
   22.2852   -4.2829  -13.6495 C   0  0  0  0  0  0  0  0  0  0  0  0
   22.9577   -5.0531  -12.7142 O   0  0  0  0  0  0  0  0  0  0  0  0
   22.7221   -3.1366  -13.8705 O   0  0  0  0  0  0  0  0  0  0  0  0
  2  1  1  1
  2  3  1  0
  4  3  1  0
  5  2  1  0
  5  6  2  0
  8  7  1  6
  9  8  1  0
  9  5  1  0
 10  8  1  0
 11 10  2  0
 13 12  1  6
 13 15  1  0
 14 13  1  0
 15 16  1  1
 15 17  1  0
 16 10  1  0
 17 18  1  0
 19 17  2  0
M  END
$$$$
