CAT.pdb
     RDKit          3D

 19 18  0  0  1  0  0  0  0  0999 V2000
   18.9731  -12.4741  -16.9621 N   0  0  0  0  0  0  0  0  0  0  0  0
   19.5550  -11.2616  -17.4374 C   0  0  1  0  0  0  0  0  0  0  0  0
   18.5583  -10.4173  -18.2125 C   0  0  0  0  0  0  0  0  0  0  0  0
   19.3791   -8.9042  -18.7918 S   0  0  0  0  0  0  0  0  0  0  0  0
   20.0714  -10.3959  -16.3362 C   0  0  0  0  0  0  0  0  0  0  0  0
   19.1896   -9.9566  -15.5523 O   0  0  0  0  0  0  0  0  0  0  0  0
   23.1953   -9.8482  -14.4780 C   0  0  0  0  0  0  0  0  0  0  0  0
   21.8920   -9.3064  -15.0648 C   0  0  2  0  0  0  0  0  0  0  0  0
   21.4425  -10.0842  -16.1728 N   0  0  0  0  0  0  0  0  0  0  0  0
   22.1533   -7.8907  -15.4122 C   0  0  0  0  0  0  0  0  0  0  0  0
   22.7625   -7.5246  -16.4429 O   0  0  0  0  0  0  0  0  0  0  0  0
   20.1445   -5.4211  -16.4643 C   0  0  0  0  0  0  0  0  0  0  0  0
   20.6229   -4.8505  -15.1443 C   0  0  1  0  0  0  0  0  0  0  0  0
   19.6361   -5.0914  -14.2078 O   0  0  0  0  0  0  0  0  0  0  0  0
   21.9394   -5.4782  -14.7236 C   0  0  2  0  0  0  0  0  0  0  0  0
   21.6844   -6.8911  -14.5224 N   0  0  0  0  0  0  0  0  0  0  0  0
   22.4580   -4.8798  -13.4741 C   0  0  0  0  0  0  0  0  0  0  0  0
   22.9119   -3.5706  -13.4823 O   0  0  0  0  0  0  0  0  0  0  0  0
   22.5106   -5.4991  -12.3935 O   0  0  0  0  0  0  0  0  0  0  0  0
  2  1  1  1
  2  3  1  0
  4  3  1  0
  5  2  1  0
  5  6  2  0
  8  7  1  6
  9  8  1  0
  9  5  1  0
 10  8  1  0
 11 10  2  0
 13 12  1  6
 13 15  1  0
 14 13  1  0
 15 16  1  1
 15 17  1  0
 16 10  1  0
 17 18  1  0
 19 17  2  0
M  END
$$$$
