CAT.pdb
     RDKit          3D

 19 18  0  0  1  0  0  0  0  0999 V2000
   19.3729  -11.7768  -16.4831 N   0  0  0  0  0  0  0  0  0  0  0  0
   18.4955  -10.6808  -16.2303 C   0  0  1  0  0  0  0  0  0  0  0  0
   17.8263  -10.7891  -14.8711 C   0  0  0  0  0  0  0  0  0  0  0  0
   16.6489  -12.1719  -14.8928 S   0  0  0  0  0  0  0  0  0  0  0  0
   19.1950   -9.3621  -16.2497 C   0  0  0  0  0  0  0  0  0  0  0  0
   20.2489   -9.3133  -15.5626 O   0  0  0  0  0  0  0  0  0  0  0  0
   19.0275   -6.1846  -18.2690 C   0  0  0  0  0  0  0  0  0  0  0  0
   19.5240   -7.0738  -17.1293 C   0  0  2  0  0  0  0  0  0  0  0  0
   18.7229   -8.2444  -16.9787 N   0  0  0  0  0  0  0  0  0  0  0  0
   19.5446   -6.2202  -15.9192 C   0  0  0  0  0  0  0  0  0  0  0  0
   18.5320   -5.9573  -15.2316 O   0  0  0  0  0  0  0  0  0  0  0  0
   21.3682   -6.7728  -12.8941 C   0  0  0  0  0  0  0  0  0  0  0  0
   21.9169   -5.4653  -13.4288 C   0  0  1  0  0  0  0  0  0  0  0  0
   23.1011   -5.7497  -14.0813 O   0  0  0  0  0  0  0  0  0  0  0  0
   20.9246   -4.7991  -14.3647 C   0  0  2  0  0  0  0  0  0  0  0  0
   20.7874   -5.6682  -15.5171 N   0  0  0  0  0  0  0  0  0  0  0  0
   21.3901   -3.4633  -14.7974 C   0  0  0  0  0  0  0  0  0  0  0  0
   21.4635   -2.4343  -13.8722 O   0  0  0  0  0  0  0  0  0  0  0  0
   21.7263   -3.2065  -15.9699 O   0  0  0  0  0  0  0  0  0  0  0  0
  2  1  1  1
  2  3  1  0
  4  3  1  0
  5  2  1  0
  5  6  2  0
  8  7  1  6
  9  8  1  0
  9  5  1  0
 10  8  1  0
 11 10  2  0
 13 12  1  6
 13 15  1  0
 14 13  1  0
 15 16  1  6
 15 17  1  0
 16 10  1  0
 17 18  1  0
 19 17  2  0
M  END
$$$$
