CAT.pdb
     RDKit          3D

 19 18  0  0  1  0  0  0  0  0999 V2000
   25.7577  -12.6049  -17.9564 N   0  0  0  0  0  0  0  0  0  0  0  0
   25.5269  -12.1299  -16.6314 C   0  0  1  0  0  0  0  0  0  0  0  0
   26.8005  -11.6201  -15.9794 C   0  0  0  0  0  0  0  0  0  0  0  0
   27.9406  -13.0110  -15.7259 S   0  0  0  0  0  0  0  0  0  0  0  0
   24.5498  -11.0022  -16.5819 C   0  0  0  0  0  0  0  0  0  0  0  0
   24.8020  -10.0503  -17.3665 O   0  0  0  0  0  0  0  0  0  0  0  0
   21.1921  -10.2543  -15.0300 C   0  0  0  0  0  0  0  0  0  0  0  0
   22.4963   -9.9051  -15.7467 C   0  0  2  0  0  0  0  0  0  0  0  0
   23.4231  -10.9893  -15.7252 N   0  0  0  0  0  0  0  0  0  0  0  0
   23.0126   -8.6819  -15.0906 C   0  0  0  0  0  0  0  0  0  0  0  0
   23.8405   -8.6884  -14.1516 O   0  0  0  0  0  0  0  0  0  0  0  0
   24.8751   -6.0406  -16.6127 C   0  0  0  0  0  0  0  0  0  0  0  0
   23.6049   -5.3745  -16.1232 C   0  0  1  0  0  0  0  0  0  0  0  0
   22.7460   -5.2794  -17.2012 O   0  0  0  0  0  0  0  0  0  0  0  0
   22.9748   -6.1662  -14.9917 C   0  0  2  0  0  0  0  0  0  0  0  0
   22.5392   -7.4287  -15.5557 N   0  0  0  0  0  0  0  0  0  0  0  0
   21.8191   -5.4556  -14.4021 C   0  0  0  0  0  0  0  0  0  0  0  0
   22.0388   -4.3725  -13.5661 O   0  0  0  0  0  0  0  0  0  0  0  0
   20.6360   -5.7827  -14.6193 O   0  0  0  0  0  0  0  0  0  0  0  0
  2  1  1  6
  2  3  1  0
  4  3  1  0
  5  2  1  0
  5  6  2  0
  8  7  1  1
  9  8  1  0
  9  5  1  0
 10  8  1  0
 11 10  2  0
 13 12  1  6
 13 15  1  0
 14 13  1  0
 15 16  1  6
 15 17  1  0
 16 10  1  0
 17 18  1  0
 19 17  2  0
M  END
$$$$
