CAT.pdb
     RDKit          3D

 19 18  0  0  1  0  0  0  0  0999 V2000
   17.5799  -14.3040  -15.9192 N   0  0  0  0  0  0  0  0  0  0  0  0
   16.9330  -13.1568  -15.3713 C   0  0  1  0  0  0  0  0  0  0  0  0
   16.9285  -13.1768  -13.8525 C   0  0  0  0  0  0  0  0  0  0  0  0
   15.9885  -14.6201  -13.2762 S   0  0  0  0  0  0  0  0  0  0  0  0
   17.5868  -11.8759  -15.7721 C   0  0  0  0  0  0  0  0  0  0  0  0
   18.8447  -11.9147  -15.8106 O   0  0  0  0  0  0  0  0  0  0  0  0
   16.5772   -8.6105  -17.3315 C   0  0  0  0  0  0  0  0  0  0  0  0
   17.5281   -9.5366  -16.5736 C   0  0  2  0  0  0  0  0  0  0  0  0
   16.8630  -10.7010  -16.0872 N   0  0  0  0  0  0  0  0  0  0  0  0
   18.1324   -8.7168  -15.4985 C   0  0  0  0  0  0  0  0  0  0  0  0
   17.6629   -8.6247  -14.3415 O   0  0  0  0  0  0  0  0  0  0  0  0
   21.5487   -9.1187  -14.2868 C   0  0  0  0  0  0  0  0  0  0  0  0
   21.4616   -7.6991  -14.8099 C   0  0  1  0  0  0  0  0  0  0  0  0
   21.9904   -7.6955  -16.0864 O   0  0  0  0  0  0  0  0  0  0  0  0
   20.0261   -7.2056  -14.8126 C   0  0  2  0  0  0  0  0  0  0  0  0
   19.3142   -7.9933  -15.7998 N   0  0  0  0  0  0  0  0  0  0  0  0
   19.9400   -5.7703  -15.1600 C   0  0  0  0  0  0  0  0  0  0  0  0
   20.3509   -4.8200  -14.2391 O   0  0  0  0  0  0  0  0  0  0  0  0
   19.5102   -5.3599  -16.2559 O   0  0  0  0  0  0  0  0  0  0  0  0
  2  1  1  6
  2  3  1  0
  4  3  1  0
  5  2  1  0
  5  6  2  0
  8  7  1  1
  9  8  1  0
  9  5  1  0
 10  8  1  0
 11 10  2  0
 13 12  1  6
 13 15  1  0
 14 13  1  0
 15 16  1  6
 15 17  1  0
 16 10  1  0
 17 18  1  0
 19 17  2  0
M  END
$$$$
