CAT.pdb
     RDKit          3D

 19 18  0  0  1  0  0  0  0  0999 V2000
   22.1886  -11.8604  -17.0308 N   0  0  0  0  0  0  0  0  0  0  0  0
   22.5656  -11.2390  -15.8034 C   0  0  1  0  0  0  0  0  0  0  0  0
   24.0400  -10.8745  -15.7792 C   0  0  0  0  0  0  0  0  0  0  0  0
   25.0277  -12.3892  -15.6089 S   0  0  0  0  0  0  0  0  0  0  0  0
   21.8165   -9.9748  -15.5397 C   0  0  0  0  0  0  0  0  0  0  0  0
   21.7450   -9.1890  -16.5209 O   0  0  0  0  0  0  0  0  0  0  0  0
   19.7898   -8.4172  -12.7509 C   0  0  0  0  0  0  0  0  0  0  0  0
   20.5354   -8.4383  -14.0850 C   0  0  2  0  0  0  0  0  0  0  0  0
   21.2270   -9.6690  -14.2897 N   0  0  0  0  0  0  0  0  0  0  0  0
   21.4314   -7.2591  -14.0754 C   0  0  0  0  0  0  0  0  0  0  0  0
   22.6332   -7.2969  -13.7266 O   0  0  0  0  0  0  0  0  0  0  0  0
   20.4536   -4.2264  -16.6852 C   0  0  0  0  0  0  0  0  0  0  0  0
   21.8140   -4.4921  -16.0727 C   0  0  1  0  0  0  0  0  0  0  0  0
   22.5872   -3.3656  -16.2782 O   0  0  0  0  0  0  0  0  0  0  0  0
   21.6939   -4.8089  -14.5931 C   0  0  2  0  0  0  0  0  0  0  0  0
   20.8935   -6.0131  -14.4863 N   0  0  0  0  0  0  0  0  0  0  0  0
   21.0453   -3.7084  -13.8472 C   0  0  0  0  0  0  0  0  0  0  0  0
   21.7516   -2.5418  -13.6021 O   0  0  0  0  0  0  0  0  0  0  0  0
   19.8765   -3.7729  -13.4186 O   0  0  0  0  0  0  0  0  0  0  0  0
  2  1  1  6
  2  3  1  0
  4  3  1  0
  5  2  1  0
  5  6  2  0
  8  7  1  1
  9  8  1  0
  9  5  1  0
 10  8  1  0
 11 10  2  0
 13 12  1  1
 13 15  1  0
 14 13  1  0
 15 16  1  6
 15 17  1  0
 16 10  1  0
 17 18  1  0
 19 17  2  0
M  END
$$$$
