CAT.pdb
     RDKit          3D

 19 18  0  0  1  0  0  0  0  0999 V2000
   19.8196  -12.6378  -18.2863 N   0  0  0  0  0  0  0  0  0  0  0  0
   20.9616  -11.7943  -18.4253 C   0  0  1  0  0  0  0  0  0  0  0  0
   20.8287  -10.8458  -19.6042 C   0  0  0  0  0  0  0  0  0  0  0  0
   20.9757  -11.7885  -21.1496 S   0  0  0  0  0  0  0  0  0  0  0  0
   21.2007  -10.9401  -17.2244 C   0  0  0  0  0  0  0  0  0  0  0  0
   20.1774  -10.3579  -16.7784 O   0  0  0  0  0  0  0  0  0  0  0  0
   23.9196  -10.2680  -14.7154 C   0  0  0  0  0  0  0  0  0  0  0  0
   22.6564   -9.9218  -15.5033 C   0  0  2  0  0  0  0  0  0  0  0  0
   22.4728  -10.7866  -16.6228 N   0  0  0  0  0  0  0  0  0  0  0  0
   22.7841   -8.4957  -15.8814 C   0  0  0  0  0  0  0  0  0  0  0  0
   23.4644   -8.0871  -16.8497 O   0  0  0  0  0  0  0  0  0  0  0  0
   20.6807   -6.3375  -17.3213 C   0  0  0  0  0  0  0  0  0  0  0  0
   20.8745   -5.6832  -15.9682 C   0  0  1  0  0  0  0  0  0  0  0  0
   19.8028   -6.0468  -15.1757 O   0  0  0  0  0  0  0  0  0  0  0  0
   22.1882   -6.1101  -15.3388 C   0  0  2  0  0  0  0  0  0  0  0  0
   22.0932   -7.5366  -15.0979 N   0  0  0  0  0  0  0  0  0  0  0  0
   22.4417   -5.4027  -14.0646 C   0  0  0  0  0  0  0  0  0  0  0  0
   22.7220   -4.0458  -14.0822 O   0  0  0  0  0  0  0  0  0  0  0  0
   22.4167   -5.9696  -12.9547 O   0  0  0  0  0  0  0  0  0  0  0  0
  2  1  1  1
  2  3  1  0
  4  3  1  0
  5  2  1  0
  5  6  2  0
  8  7  1  6
  9  8  1  0
  9  5  1  0
 10  8  1  0
 11 10  2  0
 13 12  1  6
 13 15  1  0
 14 13  1  0
 15 16  1  1
 15 17  1  0
 16 10  1  0
 17 18  1  0
 19 17  2  0
M  END
$$$$
