FQF.pdb
     RDKit          3D

 32 33  0  0  1  0  0  0  0  0999 V2000
    6.6772  -17.9820   19.7290 N   0  0  0  0  0  0  0  0  0  0  0  0
    7.2673  -16.7998   20.2665 C   0  0  1  0  0  0  0  0  0  0  0  0
    6.2382  -15.7152   20.4900 C   0  0  0  0  0  0  0  0  0  0  0  0
    6.8393  -14.4521   20.9619 C   0  0  0  0  0  0  0  0  0  0  0  0
    6.8998  -14.2155   22.3091 C   0  0  0  0  0  0  0  0  0  0  0  0
    7.4439  -13.0635   22.8394 C   0  0  0  0  0  0  0  0  0  0  0  0
    7.9514  -12.1038   21.9723 C   0  0  0  0  0  0  0  0  0  0  0  0
    7.8880  -12.3463   20.6231 C   0  0  0  0  0  0  0  0  0  0  0  0
    7.3415  -13.5030   20.0970 C   0  0  0  0  0  0  0  0  0  0  0  0
    8.0070  -17.0073   21.5268 C   0  0  0  0  0  0  0  0  0  0  0  0
    7.4274  -17.6348   22.4437 O   0  0  0  0  0  0  0  0  0  0  0  0
   12.8116  -19.6415   22.8796 N   0  0  0  0  0  0  0  0  0  0  0  0
   12.4402  -19.4275   21.5300 C   0  0  0  0  0  0  0  0  0  0  0  0
   12.6384  -20.3470   20.7121 O   0  0  0  0  0  0  0  0  0  0  0  0
   11.8428  -18.1498   21.1340 C   0  0  0  0  0  0  0  0  0  0  0  0
   11.6347  -17.1617   22.2406 C   0  0  0  0  0  0  0  0  0  0  0  0
   10.2427  -17.1288   22.7303 C   0  0  2  0  0  0  0  0  0  0  0  0
    9.3164  -16.5482   21.7659 N   0  0  0  0  0  0  0  0  0  0  0  0
   10.1745  -16.2711   23.9313 C   0  0  0  0  0  0  0  0  0  0  0  0
   10.5826  -15.0971   23.8810 O   0  0  0  0  0  0  0  0  0  0  0  0
    9.6563  -16.7477   25.1430 N   0  0  0  0  0  0  0  0  0  0  0  0
    9.7618  -16.0010   26.4028 C   0  0  1  0  0  0  0  0  0  0  0  0
    8.3518  -15.7854   26.9141 C   0  0  0  0  0  0  0  0  0  0  0  0
    7.7875  -14.4708   26.5242 C   0  0  0  0  0  0  0  0  0  0  0  0
    8.4629  -13.3029   26.8717 C   0  0  0  0  0  0  0  0  0  0  0  0
    7.9830  -12.0593   26.5294 C   0  0  0  0  0  0  0  0  0  0  0  0
    6.8068  -11.9176   25.8241 C   0  0  0  0  0  0  0  0  0  0  0  0
    6.1282  -13.0629   25.4735 C   0  0  0  0  0  0  0  0  0  0  0  0
    6.6127  -14.3143   25.8189 C   0  0  0  0  0  0  0  0  0  0  0  0
   10.6287  -16.6811   27.3633 C   0  0  0  0  0  0  0  0  0  0  0  0
   10.8550  -16.1303   28.4664 O   0  0  0  0  0  0  0  0  0  0  0  0
   11.2031  -17.9027   27.0986 O   0  0  0  0  0  0  0  0  0  0  0  0
  2  1  1  1
  2  3  1  0
  4  3  1  0
  4  5  2  0
  6  5  1  0
  7  6  2  0
  8  9  2  0
  8  7  1  0
  9  4  1  0
 10  2  1  0
 10 11  2  0
 13 12  1  0
 13 14  2  0
 15 16  1  0
 15 13  1  0
 17 18  1  0
 17 16  1  6
 18 10  1  0
 19 17  1  0
 20 19  2  0
 21 19  1  0
 22 21  1  0
 23 24  1  0
 22 23  1  1
 24 29  2  0
 25 26  2  0
 25 24  1  0
 26 27  1  0
 27 28  2  0
 29 28  1  0
 30 22  1  0
 30 32  1  0
 31 30  2  0
M  END
$$$$
