FQF.pdb
     RDKit          3D

 32 33  0  0  1  0  0  0  0  0999 V2000
    5.3308  -16.3148   21.1792 N   0  0  0  0  0  0  0  0  0  0  0  0
    6.6145  -16.7632   20.7482 C   0  0  1  0  0  0  0  0  0  0  0  0
    7.2035  -15.8447   19.7020 C   0  0  0  0  0  0  0  0  0  0  0  0
    7.4570  -14.4854   20.2191 C   0  0  0  0  0  0  0  0  0  0  0  0
    7.2173  -14.2299   21.5426 C   0  0  0  0  0  0  0  0  0  0  0  0
    7.4257  -12.9900   22.1117 C   0  0  0  0  0  0  0  0  0  0  0  0
    7.8981  -11.9580   21.3101 C   0  0  0  0  0  0  0  0  0  0  0  0
    8.1367  -12.2200   19.9844 C   0  0  0  0  0  0  0  0  0  0  0  0
    7.9259  -13.4648   19.4193 C   0  0  0  0  0  0  0  0  0  0  0  0
    7.6000  -16.9241   21.8353 C   0  0  0  0  0  0  0  0  0  0  0  0
    7.1643  -17.1967   22.9782 O   0  0  0  0  0  0  0  0  0  0  0  0
   12.1311  -20.0225   21.6070 N   0  0  0  0  0  0  0  0  0  0  0  0
   12.7584  -19.3076   22.6561 C   0  0  0  0  0  0  0  0  0  0  0  0
   13.6162  -19.8988   23.3405 O   0  0  0  0  0  0  0  0  0  0  0  0
   12.3886  -17.9127   22.9083 C   0  0  0  0  0  0  0  0  0  0  0  0
   11.3536  -17.3407   21.9887 C   0  0  0  0  0  0  0  0  0  0  0  0
    9.9953  -17.3598   22.5658 C   0  0  2  0  0  0  0  0  0  0  0  0
    8.9923  -16.7921   21.6732 N   0  0  0  0  0  0  0  0  0  0  0  0
    9.9780  -16.5254   23.7850 C   0  0  0  0  0  0  0  0  0  0  0  0
   10.4982  -15.3956   23.7726 O   0  0  0  0  0  0  0  0  0  0  0  0
    9.3844  -16.9755   24.9720 N   0  0  0  0  0  0  0  0  0  0  0  0
    9.4784  -16.2386   26.2384 C   0  0  1  0  0  0  0  0  0  0  0  0
    8.0622  -15.9487   26.6932 C   0  0  0  0  0  0  0  0  0  0  0  0
    7.6425  -14.5511   26.4295 C   0  0  0  0  0  0  0  0  0  0  0  0
    8.4907  -13.5020   26.7769 C   0  0  0  0  0  0  0  0  0  0  0  0
    8.1492  -12.1884   26.5489 C   0  0  0  0  0  0  0  0  0  0  0  0
    6.9462  -11.8551   25.9637 C   0  0  0  0  0  0  0  0  0  0  0  0
    6.0974  -12.8813   25.6148 C   0  0  0  0  0  0  0  0  0  0  0  0
    6.4428  -14.2034   25.8450 C   0  0  0  0  0  0  0  0  0  0  0  0
   10.2675  -16.9668   27.2302 C   0  0  0  0  0  0  0  0  0  0  0  0
   10.5373  -18.1726   27.0187 O   0  0  0  0  0  0  0  0  0  0  0  0
   10.7238  -16.3750   28.3852 O   0  0  0  0  0  0  0  0  0  0  0  0
  2  1  1  1
  2  3  1  0
  4  3  1  0
  4  5  2  0
  6  5  1  0
  7  6  2  0
  8  9  2  0
  8  7  1  0
  9  4  1  0
 10  2  1  0
 10 11  2  0
 13 12  1  0
 13 14  2  0
 15 16  1  0
 15 13  1  0
 17 18  1  0
 17 16  1  6
 18 10  1  0
 19 17  1  0
 20 19  2  0
 21 19  1  0
 22 21  1  0
 23 24  1  0
 22 23  1  1
 24 29  2  0
 25 26  2  0
 25 24  1  0
 26 27  1  0
 27 28  2  0
 29 28  1  0
 30 22  1  0
 30 32  1  0
 31 30  2  0
M  END
$$$$
