FQF.pdb
     RDKit          3D

 32 33  0  0  1  0  0  0  0  0999 V2000
    5.7009  -18.1299   24.4145 N   0  0  0  0  0  0  0  0  0  0  0  0
    6.5229  -16.9643   24.3945 C   0  0  1  0  0  0  0  0  0  0  0  0
    6.4239  -16.1902   25.6892 C   0  0  0  0  0  0  0  0  0  0  0  0
    6.3046  -14.7349   25.4717 C   0  0  0  0  0  0  0  0  0  0  0  0
    6.9306  -14.1782   24.3888 C   0  0  0  0  0  0  0  0  0  0  0  0
    6.8732  -12.8283   24.1077 C   0  0  0  0  0  0  0  0  0  0  0  0
    6.1512  -11.9991   24.9573 C   0  0  0  0  0  0  0  0  0  0  0  0
    5.5259  -12.5626   26.0411 C   0  0  0  0  0  0  0  0  0  0  0  0
    5.5868  -13.9165   26.3180 C   0  0  0  0  0  0  0  0  0  0  0  0
    7.9483  -17.2290   24.1175 C   0  0  0  0  0  0  0  0  0  0  0  0
    8.4959  -18.1689   24.7397 O   0  0  0  0  0  0  0  0  0  0  0  0
   10.9975  -16.4639   18.7517 N   0  0  0  0  0  0  0  0  0  0  0  0
   11.9365  -16.9620   19.6874 C   0  0  0  0  0  0  0  0  0  0  0  0
   12.8035  -17.7610   19.2828 O   0  0  0  0  0  0  0  0  0  0  0  0
   11.8662  -16.5336   21.0866 C   0  0  0  0  0  0  0  0  0  0  0  0
   10.5098  -16.1205   21.5699 C   0  0  0  0  0  0  0  0  0  0  0  0
   10.0681  -16.8722   22.7608 C   0  0  2  0  0  0  0  0  0  0  0  0
    8.7306  -16.4976   23.2034 N   0  0  0  0  0  0  0  0  0  0  0  0
   10.9733  -16.5653   23.8875 C   0  0  0  0  0  0  0  0  0  0  0  0
   11.6209  -15.5032   23.8932 O   0  0  0  0  0  0  0  0  0  0  0  0
   11.1261  -17.4477   24.9653 N   0  0  0  0  0  0  0  0  0  0  0  0
   12.1916  -17.3060   25.9655 C   0  0  1  0  0  0  0  0  0  0  0  0
   11.5225  -17.2204   27.3225 C   0  0  0  0  0  0  0  0  0  0  0  0
   11.2672  -15.8258   27.7569 C   0  0  0  0  0  0  0  0  0  0  0  0
   11.6673  -14.7686   26.9427 C   0  0  0  0  0  0  0  0  0  0  0  0
   11.4493  -13.4572   27.2989 C   0  0  0  0  0  0  0  0  0  0  0  0
   10.8221  -13.1343   28.4835 C   0  0  0  0  0  0  0  0  0  0  0  0
   10.4210  -14.1686   29.2986 C   0  0  0  0  0  0  0  0  0  0  0  0
   10.6412  -15.4884   28.9385 C   0  0  0  0  0  0  0  0  0  0  0  0
   13.1704  -18.3874   25.8695 C   0  0  0  0  0  0  0  0  0  0  0  0
   14.1991  -18.3345   26.5837 O   0  0  0  0  0  0  0  0  0  0  0  0
   13.0010  -19.4593   25.0240 O   0  0  0  0  0  0  0  0  0  0  0  0
  2  1  1  1
  2  3  1  0
  4  3  1  0
  4  5  2  0
  6  5  1  0
  7  6  2  0
  8  9  2  0
  8  7  1  0
  9  4  1  0
 10  2  1  0
 10 11  2  0
 13 12  1  0
 13 14  2  0
 15 16  1  0
 15 13  1  0
 17 18  1  0
 17 16  1  6
 18 10  1  0
 19 17  1  0
 20 19  2  0
 21 19  1  0
 22 21  1  0
 23 24  1  0
 22 23  1  1
 24 29  2  0
 25 26  2  0
 25 24  1  0
 26 27  1  0
 27 28  2  0
 29 28  1  0
 30 22  1  0
 30 32  1  0
 31 30  2  0
M  END
$$$$
