FQF.pdb
     RDKit          3D

 32 33  0  0  1  0  0  0  0  0999 V2000
    6.9033  -15.9877   23.1370 N   0  0  0  0  0  0  0  0  0  0  0  0
    7.0372  -16.7040   21.9108 C   0  0  1  0  0  0  0  0  0  0  0  0
    6.3990  -15.9614   20.7589 C   0  0  0  0  0  0  0  0  0  0  0  0
    6.9521  -14.6040   20.5836 C   0  0  0  0  0  0  0  0  0  0  0  0
    7.6150  -14.3087   19.4227 C   0  0  0  0  0  0  0  0  0  0  0  0
    8.1640  -13.0674   19.1732 C   0  0  0  0  0  0  0  0  0  0  0  0
    8.0397  -12.0758   20.1386 C   0  0  0  0  0  0  0  0  0  0  0  0
    7.3743  -12.3774   21.3002 C   0  0  0  0  0  0  0  0  0  0  0  0
    6.8260  -13.6236   21.5449 C   0  0  0  0  0  0  0  0  0  0  0  0
    8.4297  -17.0268   21.5429 C   0  0  0  0  0  0  0  0  0  0  0  0
    8.6206  -18.0299   20.8164 O   0  0  0  0  0  0  0  0  0  0  0  0
   14.6891  -14.6783   21.5675 N   0  0  0  0  0  0  0  0  0  0  0  0
   13.5318  -15.0372   20.8348 C   0  0  0  0  0  0  0  0  0  0  0  0
   13.6306  -15.1523   19.5976 O   0  0  0  0  0  0  0  0  0  0  0  0
   12.2659  -15.2597   21.5379 C   0  0  0  0  0  0  0  0  0  0  0  0
   11.9649  -16.6831   21.8948 C   0  0  0  0  0  0  0  0  0  0  0  0
   10.7080  -16.8341   22.6536 C   0  0  2  0  0  0  0  0  0  0  0  0
    9.5537  -16.2847   21.9529 N   0  0  0  0  0  0  0  0  0  0  0  0
   10.8157  -16.0801   23.9196 C   0  0  0  0  0  0  0  0  0  0  0  0
   10.7090  -14.8408   23.9162 O   0  0  0  0  0  0  0  0  0  0  0  0
   11.0377  -16.7290   25.1417 N   0  0  0  0  0  0  0  0  0  0  0  0
   10.4985  -16.2352   26.4149 C   0  0  1  0  0  0  0  0  0  0  0  0
    8.9981  -16.1071   26.2452 C   0  0  0  0  0  0  0  0  0  0  0  0
    8.5129  -14.7147   26.4022 C   0  0  0  0  0  0  0  0  0  0  0  0
    7.2962  -14.3432   25.8344 C   0  0  0  0  0  0  0  0  0  0  0  0
    6.8005  -13.0650   25.9556 C   0  0  0  0  0  0  0  0  0  0  0  0
    7.4921  -12.0940   26.6482 C   0  0  0  0  0  0  0  0  0  0  0  0
    8.6962  -12.4464   27.2150 C   0  0  0  0  0  0  0  0  0  0  0  0
    9.1939  -13.7338   27.0921 C   0  0  0  0  0  0  0  0  0  0  0  0
   10.8838  -17.0929   27.5340 C   0  0  0  0  0  0  0  0  0  0  0  0
   11.5142  -16.5870   28.4921 O   0  0  0  0  0  0  0  0  0  0  0  0
   10.5782  -18.4337   27.5719 O   0  0  0  0  0  0  0  0  0  0  0  0
  2  1  1  1
  2  3  1  0
  4  3  1  0
  4  5  2  0
  6  5  1  0
  7  6  2  0
  8  9  2  0
  8  7  1  0
  9  4  1  0
 10  2  1  0
 10 11  2  0
 13 12  1  0
 13 14  2  0
 15 16  1  0
 15 13  1  0
 17 18  1  0
 17 16  1  6
 18 10  1  0
 19 17  1  0
 20 19  2  0
 21 19  1  0
 22 21  1  0
 23 24  1  0
 22 23  1  6
 24 29  2  0
 25 26  2  0
 25 24  1  0
 26 27  1  0
 27 28  2  0
 29 28  1  0
 30 22  1  0
 30 32  1  0
 31 30  2  0
M  END
$$$$
