FQF.pdb
     RDKit          3D

 32 33  0  0  1  0  0  0  0  0999 V2000
    6.6394  -18.1583   20.7114 N   0  0  0  0  0  0  0  0  0  0  0  0
    7.3683  -16.9404   20.8529 C   0  0  1  0  0  0  0  0  0  0  0  0
    6.4461  -15.7456   20.9386 C   0  0  0  0  0  0  0  0  0  0  0  0
    7.1784  -14.4639   20.9475 C   0  0  0  0  0  0  0  0  0  0  0  0
    7.4699  -13.8813   22.1517 C   0  0  0  0  0  0  0  0  0  0  0  0
    8.1501  -12.6850   22.2553 C   0  0  0  0  0  0  0  0  0  0  0  0
    8.5564  -12.0445   21.0911 C   0  0  0  0  0  0  0  0  0  0  0  0
    8.2615  -12.6331   19.8870 C   0  0  0  0  0  0  0  0  0  0  0  0
    7.5793  -13.8325   19.7891 C   0  0  0  0  0  0  0  0  0  0  0  0
    8.2817  -16.9084   22.0119 C   0  0  0  0  0  0  0  0  0  0  0  0
    7.8993  -17.4641   23.0680 O   0  0  0  0  0  0  0  0  0  0  0  0
   14.9874  -17.2319   21.7255 N   0  0  0  0  0  0  0  0  0  0  0  0
   14.4478  -16.3686   22.7097 C   0  0  0  0  0  0  0  0  0  0  0  0
   15.1407  -15.4052   23.0914 O   0  0  0  0  0  0  0  0  0  0  0  0
   13.1098  -16.6257   23.2480 C   0  0  0  0  0  0  0  0  0  0  0  0
   11.9685  -16.2353   22.3597 C   0  0  0  0  0  0  0  0  0  0  0  0
   10.6569  -16.6640   22.8836 C   0  0  2  0  0  0  0  0  0  0  0  0
    9.5499  -16.2968   22.0090 N   0  0  0  0  0  0  0  0  0  0  0  0
   10.4058  -15.9825   24.1702 C   0  0  0  0  0  0  0  0  0  0  0  0
   10.4054  -14.7398   24.2260 O   0  0  0  0  0  0  0  0  0  0  0  0
   10.1647  -16.7048   25.3466 N   0  0  0  0  0  0  0  0  0  0  0  0
    9.7980  -16.0620   26.6147 C   0  0  1  0  0  0  0  0  0  0  0  0
    8.2950  -16.1876   26.7614 C   0  0  0  0  0  0  0  0  0  0  0  0
    7.6031  -14.8764   26.7911 C   0  0  0  0  0  0  0  0  0  0  0  0
    8.3227  -13.7270   27.1101 C   0  0  0  0  0  0  0  0  0  0  0  0
    7.7277  -12.4866   27.1467 C   0  0  0  0  0  0  0  0  0  0  0  0
    6.3867  -12.3299   26.8674 C   0  0  0  0  0  0  0  0  0  0  0  0
    5.6624  -13.4569   26.5504 C   0  0  0  0  0  0  0  0  0  0  0  0
    6.2630  -14.7051   26.5140 C   0  0  0  0  0  0  0  0  0  0  0  0
   10.5391  -16.6266   27.7410 C   0  0  0  0  0  0  0  0  0  0  0  0
   10.9091  -17.8227   27.6803 O   0  0  0  0  0  0  0  0  0  0  0  0
   10.8442  -15.8913   28.8629 O   0  0  0  0  0  0  0  0  0  0  0  0
  2  1  1  1
  2  3  1  0
  4  3  1  0
  4  5  2  0
  6  5  1  0
  7  6  2  0
  8  9  2  0
  8  7  1  0
  9  4  1  0
 10  2  1  0
 10 11  2  0
 13 12  1  0
 13 14  2  0
 15 16  1  0
 15 13  1  0
 17 18  1  0
 17 16  1  6
 18 10  1  0
 19 17  1  0
 20 19  2  0
 21 19  1  0
 22 21  1  0
 23 24  1  0
 22 23  1  1
 24 29  2  0
 25 26  2  0
 25 24  1  0
 26 27  1  0
 27 28  2  0
 29 28  1  0
 30 22  1  0
 30 32  1  0
 31 30  2  0
M  END
$$$$
