FQF.pdb
     RDKit          3D

 32 33  0  0  1  0  0  0  0  0999 V2000
    5.7932  -18.0160   21.1580 N   0  0  0  0  0  0  0  0  0  0  0  0
    6.8642  -17.2107   21.6469 C   0  0  1  0  0  0  0  0  0  0  0  0
    6.4989  -16.5248   22.9436 C   0  0  0  0  0  0  0  0  0  0  0  0
    6.8674  -15.0953   22.9520 C   0  0  0  0  0  0  0  0  0  0  0  0
    7.2937  -14.5191   21.7855 C   0  0  0  0  0  0  0  0  0  0  0  0
    7.6582  -13.1907   21.7004 C   0  0  0  0  0  0  0  0  0  0  0  0
    7.5903  -12.4048   22.8443 C   0  0  0  0  0  0  0  0  0  0  0  0
    7.1624  -12.9877   24.0105 C   0  0  0  0  0  0  0  0  0  0  0  0
    6.7983  -14.3199   24.0900 C   0  0  0  0  0  0  0  0  0  0  0  0
    8.1323  -17.9394   21.8461 C   0  0  0  0  0  0  0  0  0  0  0  0
    8.2031  -19.1117   21.4090 O   0  0  0  0  0  0  0  0  0  0  0  0
   11.3453  -13.7803   19.7924 N   0  0  0  0  0  0  0  0  0  0  0  0
   12.2985  -14.8243   19.7104 C   0  0  0  0  0  0  0  0  0  0  0  0
   13.4462  -14.5435   19.3132 O   0  0  0  0  0  0  0  0  0  0  0  0
   11.9179  -16.1878   20.0873 C   0  0  0  0  0  0  0  0  0  0  0  0
   10.5725  -16.3302   20.7304 C   0  0  0  0  0  0  0  0  0  0  0  0
   10.5790  -17.2512   21.8837 C   0  0  2  0  0  0  0  0  0  0  0  0
    9.2636  -17.4060   22.4927 N   0  0  0  0  0  0  0  0  0  0  0  0
   11.4555  -16.6985   22.9368 C   0  0  0  0  0  0  0  0  0  0  0  0
   12.1458  -15.6900   22.7053 O   0  0  0  0  0  0  0  0  0  0  0  0
   11.5332  -17.2850   24.2072 N   0  0  0  0  0  0  0  0  0  0  0  0
   11.2096  -16.5580   25.4411 C   0  0  1  0  0  0  0  0  0  0  0  0
   10.3170  -15.3961   25.0543 C   0  0  0  0  0  0  0  0  0  0  0  0
    9.8333  -14.6217   26.2227 C   0  0  0  0  0  0  0  0  0  0  0  0
   10.7256  -14.2770   27.2354 C   0  0  0  0  0  0  0  0  0  0  0  0
   10.3271  -13.5554   28.3375 C   0  0  0  0  0  0  0  0  0  0  0  0
    9.0202  -13.1418   28.4852 C   0  0  0  0  0  0  0  0  0  0  0  0
    8.1267  -13.4749   27.4924 C   0  0  0  0  0  0  0  0  0  0  0  0
    8.5296  -14.2014   26.3833 C   0  0  0  0  0  0  0  0  0  0  0  0
   10.6138  -17.4368   26.4458 C   0  0  0  0  0  0  0  0  0  0  0  0
   11.0128  -17.3545   27.6313 O   0  0  0  0  0  0  0  0  0  0  0  0
    9.6319  -18.3488   26.1354 O   0  0  0  0  0  0  0  0  0  0  0  0
  2  1  1  1
  2  3  1  0
  4  3  1  0
  4  5  2  0
  6  5  1  0
  7  6  2  0
  8  9  2  0
  8  7  1  0
  9  4  1  0
 10  2  1  0
 10 11  2  0
 13 12  1  0
 13 14  2  0
 15 16  1  0
 15 13  1  0
 17 18  1  0
 17 16  1  6
 18 10  1  0
 19 17  1  0
 20 19  2  0
 21 19  1  0
 22 21  1  0
 23 24  1  0
 22 23  1  6
 24 29  2  0
 25 26  2  0
 25 24  1  0
 26 27  1  0
 27 28  2  0
 29 28  1  0
 30 22  1  0
 30 32  1  0
 31 30  2  0
M  END
$$$$
