FQF.pdb
     RDKit          3D

 32 33  0  0  1  0  0  0  0  0999 V2000
    6.1076  -18.0731   21.2020 N   0  0  0  0  0  0  0  0  0  0  0  0
    6.9649  -16.9540   21.4199 C   0  0  1  0  0  0  0  0  0  0  0  0
    6.1864  -15.7300   21.8455 C   0  0  0  0  0  0  0  0  0  0  0  0
    6.7865  -14.4759   21.3493 C   0  0  0  0  0  0  0  0  0  0  0  0
    6.7620  -14.2222   20.0040 C   0  0  0  0  0  0  0  0  0  0  0  0
    7.2984  -13.0768   19.4520 C   0  0  0  0  0  0  0  0  0  0  0  0
    7.8877  -12.1419   20.2944 C   0  0  0  0  0  0  0  0  0  0  0  0
    7.9093  -12.4015   21.6417 C   0  0  0  0  0  0  0  0  0  0  0  0
    7.3700  -13.5514   22.1896 C   0  0  0  0  0  0  0  0  0  0  0  0
    8.0368  -17.1910   22.4065 C   0  0  0  0  0  0  0  0  0  0  0  0
    7.8071  -18.0084   23.3283 O   0  0  0  0  0  0  0  0  0  0  0  0
   14.2535  -16.8307   21.2024 N   0  0  0  0  0  0  0  0  0  0  0  0
   14.1781  -17.3595   22.5139 C   0  0  0  0  0  0  0  0  0  0  0  0
   15.2276  -17.7763   23.0417 O   0  0  0  0  0  0  0  0  0  0  0  0
   12.8882  -17.4043   23.2069 C   0  0  0  0  0  0  0  0  0  0  0  0
   11.7209  -16.8658   22.4379 C   0  0  0  0  0  0  0  0  0  0  0  0
   10.4479  -16.9629   23.1785 C   0  0  2  0  0  0  0  0  0  0  0  0
    9.2960  -16.5616   22.3803 N   0  0  0  0  0  0  0  0  0  0  0  0
   10.4893  -16.0396   24.3311 C   0  0  0  0  0  0  0  0  0  0  0  0
   10.0924  -14.8676   24.2035 O   0  0  0  0  0  0  0  0  0  0  0  0
   10.9692  -16.4508   25.5819 N   0  0  0  0  0  0  0  0  0  0  0  0
   10.3078  -16.0972   26.8441 C   0  0  1  0  0  0  0  0  0  0  0  0
    8.8138  -16.1823   26.6051 C   0  0  0  0  0  0  0  0  0  0  0  0
    8.1622  -14.8528   26.5241 C   0  0  0  0  0  0  0  0  0  0  0  0
    6.9621  -14.7172   25.8298 C   0  0  0  0  0  0  0  0  0  0  0  0
    6.3160  -13.5062   25.7296 C   0  0  0  0  0  0  0  0  0  0  0  0
    6.8333  -12.3707   26.3160 C   0  0  0  0  0  0  0  0  0  0  0  0
    8.0188  -12.4892   27.0057 C   0  0  0  0  0  0  0  0  0  0  0  0
    8.6681  -13.7093   27.1057 C   0  0  0  0  0  0  0  0  0  0  0  0
   10.7665  -16.9376   27.9486 C   0  0  0  0  0  0  0  0  0  0  0  0
   11.0441  -18.1380   27.7178 O   0  0  0  0  0  0  0  0  0  0  0  0
   10.9042  -16.4568   29.2302 O   0  0  0  0  0  0  0  0  0  0  0  0
  2  1  1  1
  2  3  1  0
  4  3  1  0
  4  5  2  0
  6  5  1  0
  7  6  2  0
  8  9  2  0
  8  7  1  0
  9  4  1  0
 10  2  1  0
 10 11  2  0
 13 12  1  0
 13 14  2  0
 15 16  1  0
 15 13  1  0
 17 18  1  0
 17 16  1  6
 18 10  1  0
 19 17  1  0
 20 19  2  0
 21 19  1  0
 22 21  1  0
 23 24  1  0
 22 23  1  6
 24 29  2  0
 25 26  2  0
 25 24  1  0
 26 27  1  0
 27 28  2  0
 29 28  1  0
 30 22  1  0
 30 32  1  0
 31 30  2  0
M  END
$$$$
