FQF.pdb
     RDKit          3D

 32 33  0  0  1  0  0  0  0  0999 V2000
    6.1160  -17.8982   19.9464 N   0  0  0  0  0  0  0  0  0  0  0  0
    6.5315  -16.9114   20.8889 C   0  0  1  0  0  0  0  0  0  0  0  0
    5.8017  -15.6034   20.6847 C   0  0  0  0  0  0  0  0  0  0  0  0
    6.7211  -14.4702   20.4614 C   0  0  0  0  0  0  0  0  0  0  0  0
    7.0986  -14.1722   19.1796 C   0  0  0  0  0  0  0  0  0  0  0  0
    7.9535  -13.1318   18.8775 C   0  0  0  0  0  0  0  0  0  0  0  0
    8.4522  -12.3541   19.9154 C   0  0  0  0  0  0  0  0  0  0  0  0
    8.0703  -12.6574   21.1981 C   0  0  0  0  0  0  0  0  0  0  0  0
    7.2130  -13.7016   21.4951 C   0  0  0  0  0  0  0  0  0  0  0  0
    6.3790  -17.3149   22.3004 C   0  0  0  0  0  0  0  0  0  0  0  0
    5.2152  -17.4815   22.7342 O   0  0  0  0  0  0  0  0  0  0  0  0
    5.5740  -21.4162   25.4178 N   0  0  0  0  0  0  0  0  0  0  0  0
    5.8681  -21.2339   24.0447 C   0  0  0  0  0  0  0  0  0  0  0  0
    5.3178  -21.9890   23.2196 O   0  0  0  0  0  0  0  0  0  0  0  0
    6.7984  -20.1794   23.6340 C   0  0  0  0  0  0  0  0  0  0  0  0
    7.4339  -19.4063   24.7487 C   0  0  0  0  0  0  0  0  0  0  0  0
    7.3160  -17.9451   24.5778 C   0  0  2  0  0  0  0  0  0  0  0  0
    7.4512  -17.5243   23.1886 N   0  0  0  0  0  0  0  0  0  0  0  0
    8.4125  -17.2836   25.3147 C   0  0  0  0  0  0  0  0  0  0  0  0
    9.5485  -17.2182   24.8122 O   0  0  0  0  0  0  0  0  0  0  0  0
    8.2078  -16.7196   26.5811 N   0  0  0  0  0  0  0  0  0  0  0  0
    9.2963  -16.1475   27.3833 C   0  0  1  0  0  0  0  0  0  0  0  0
    8.7185  -14.9741   28.1487 C   0  0  0  0  0  0  0  0  0  0  0  0
    8.2279  -13.8894   27.2647 C   0  0  0  0  0  0  0  0  0  0  0  0
    6.9977  -13.2914   27.5291 C   0  0  0  0  0  0  0  0  0  0  0  0
    6.5006  -12.2781   26.7416 C   0  0  0  0  0  0  0  0  0  0  0  0
    7.2042  -11.8105   25.6520 C   0  0  0  0  0  0  0  0  0  0  0  0
    8.4217  -12.3918   25.3782 C   0  0  0  0  0  0  0  0  0  0  0  0
    8.9208  -13.4119   26.1721 C   0  0  0  0  0  0  0  0  0  0  0  0
    9.9181  -17.1513   28.2448 C   0  0  0  0  0  0  0  0  0  0  0  0
    9.3643  -18.2695   28.3644 O   0  0  0  0  0  0  0  0  0  0  0  0
   11.0883  -16.9114   28.9271 O   0  0  0  0  0  0  0  0  0  0  0  0
  2  1  1  6
  2  3  1  0
  4  3  1  0
  4  5  2  0
  6  5  1  0
  7  6  2  0
  8  9  2  0
  8  7  1  0
  9  4  1  0
 10  2  1  0
 10 11  2  0
 13 12  1  0
 13 14  2  0
 15 16  1  0
 15 13  1  0
 17 18  1  0
 17 16  1  6
 18 10  1  0
 19 17  1  0
 20 19  2  0
 21 19  1  0
 22 21  1  0
 23 24  1  0
 22 23  1  1
 24 29  2  0
 25 26  2  0
 25 24  1  0
 26 27  1  0
 27 28  2  0
 29 28  1  0
 30 22  1  0
 30 32  1  0
 31 30  2  0
M  END
$$$$
