FQF.pdb
     RDKit          3D

 32 33  0  0  1  0  0  0  0  0999 V2000
    6.5792  -17.9434   20.9176 N   0  0  0  0  0  0  0  0  0  0  0  0
    7.5207  -16.9738   21.3739 C   0  0  1  0  0  0  0  0  0  0  0  0
    6.8339  -15.7309   21.8925 C   0  0  0  0  0  0  0  0  0  0  0  0
    7.3522  -14.4960   21.2715 C   0  0  0  0  0  0  0  0  0  0  0  0
    8.4102  -14.5883   20.4074 C   0  0  0  0  0  0  0  0  0  0  0  0
    8.9592  -13.4876   19.7817 C   0  0  0  0  0  0  0  0  0  0  0  0
    8.4173  -12.2340   20.0380 C   0  0  0  0  0  0  0  0  0  0  0  0
    7.3571  -12.1476   20.9049 C   0  0  0  0  0  0  0  0  0  0  0  0
    6.8108  -13.2544   21.5294 C   0  0  0  0  0  0  0  0  0  0  0  0
    8.4445  -17.4648   22.4151 C   0  0  0  0  0  0  0  0  0  0  0  0
    7.9446  -18.0353   23.4126 O   0  0  0  0  0  0  0  0  0  0  0  0
   12.2916  -19.4450   20.2345 N   0  0  0  0  0  0  0  0  0  0  0  0
   12.7003  -18.0969   20.3785 C   0  0  0  0  0  0  0  0  0  0  0  0
   13.2075  -17.5271   19.3927 O   0  0  0  0  0  0  0  0  0  0  0  0
   12.5210  -17.4160   21.6632 C   0  0  0  0  0  0  0  0  0  0  0  0
   12.0576  -18.2806   22.7953 C   0  0  0  0  0  0  0  0  0  0  0  0
   10.7708  -17.8400   23.3684 C   0  0  2  0  0  0  0  0  0  0  0  0
    9.8454  -17.3349   22.3615 N   0  0  0  0  0  0  0  0  0  0  0  0
   11.0163  -16.7185   24.2983 C   0  0  0  0  0  0  0  0  0  0  0  0
   11.7996  -15.8063   23.9793 O   0  0  0  0  0  0  0  0  0  0  0  0
   10.3839  -16.6508   25.5471 N   0  0  0  0  0  0  0  0  0  0  0  0
   10.8827  -15.8174   26.6481 C   0  0  1  0  0  0  0  0  0  0  0  0
   10.6764  -14.3717   26.2435 C   0  0  0  0  0  0  0  0  0  0  0  0
    9.2472  -13.9789   26.2016 C   0  0  0  0  0  0  0  0  0  0  0  0
    8.7939  -12.9476   27.0213 C   0  0  0  0  0  0  0  0  0  0  0  0
    7.4785  -12.5430   27.0160 C   0  0  0  0  0  0  0  0  0  0  0  0
    6.5498  -13.1454   26.1941 C   0  0  0  0  0  0  0  0  0  0  0  0
    6.9830  -14.1661   25.3782 C   0  0  0  0  0  0  0  0  0  0  0  0
    8.3078  -14.5724   25.3847 C   0  0  0  0  0  0  0  0  0  0  0  0
   10.2443  -16.1604   27.9176 C   0  0  0  0  0  0  0  0  0  0  0  0
    9.3413  -17.0297   27.9228 O   0  0  0  0  0  0  0  0  0  0  0  0
   10.6006  -15.5631   29.1046 O   0  0  0  0  0  0  0  0  0  0  0  0
  2  1  1  1
  2  3  1  0
  4  3  1  0
  4  5  2  0
  6  5  1  0
  7  6  2  0
  8  9  2  0
  8  7  1  0
  9  4  1  0
 10  2  1  0
 10 11  2  0
 13 12  1  0
 13 14  2  0
 15 16  1  0
 15 13  1  0
 17 18  1  0
 17 16  1  6
 18 10  1  0
 19 17  1  0
 20 19  2  0
 21 19  1  0
 22 21  1  0
 23 24  1  0
 22 23  1  6
 24 29  2  0
 25 26  2  0
 25 24  1  0
 26 27  1  0
 27 28  2  0
 29 28  1  0
 30 22  1  0
 30 32  1  0
 31 30  2  0
M  END
$$$$
