FQF.pdb
     RDKit          3D

 32 33  0  0  1  0  0  0  0  0999 V2000
    7.1844  -17.6455   19.7485 N   0  0  0  0  0  0  0  0  0  0  0  0
    8.2920  -16.9812   20.3540 C   0  0  1  0  0  0  0  0  0  0  0  0
    7.8395  -15.9206   21.3315 C   0  0  0  0  0  0  0  0  0  0  0  0
    7.8630  -14.5648   20.7480 C   0  0  0  0  0  0  0  0  0  0  0  0
    6.6786  -13.8974   20.5869 C   0  0  0  0  0  0  0  0  0  0  0  0
    6.6057  -12.6279   20.0505 C   0  0  0  0  0  0  0  0  0  0  0  0
    7.7814  -12.0003   19.6574 C   0  0  0  0  0  0  0  0  0  0  0  0
    8.9656  -12.6741   19.8213 C   0  0  0  0  0  0  0  0  0  0  0  0
    9.0327  -13.9466   20.3595 C   0  0  0  0  0  0  0  0  0  0  0  0
    9.2372  -17.8796   21.0454 C   0  0  0  0  0  0  0  0  0  0  0  0
    8.7607  -18.8647   21.6562 O   0  0  0  0  0  0  0  0  0  0  0  0
   13.4529  -21.3417   19.2255 N   0  0  0  0  0  0  0  0  0  0  0  0
   13.8341  -20.2394   20.0285 C   0  0  0  0  0  0  0  0  0  0  0  0
   14.9524  -20.2703   20.5781 O   0  0  0  0  0  0  0  0  0  0  0  0
   12.9182  -19.1077   20.1922 C   0  0  0  0  0  0  0  0  0  0  0  0
   12.8992  -18.4817   21.5530 C   0  0  0  0  0  0  0  0  0  0  0  0
   11.5335  -18.2602   22.0670 C   0  0  2  0  0  0  0  0  0  0  0  0
   10.6340  -17.7035   21.0639 N   0  0  0  0  0  0  0  0  0  0  0  0
   11.5858  -17.2718   23.1639 C   0  0  0  0  0  0  0  0  0  0  0  0
   12.1238  -16.1656   22.9789 O   0  0  0  0  0  0  0  0  0  0  0  0
   11.0396  -17.5475   24.4246 N   0  0  0  0  0  0  0  0  0  0  0  0
   11.0979  -16.5976   25.5427 C   0  0  1  0  0  0  0  0  0  0  0  0
    9.6791  -16.1407   25.8155 C   0  0  0  0  0  0  0  0  0  0  0  0
    9.5905  -15.1433   26.9092 C   0  0  0  0  0  0  0  0  0  0  0  0
    9.9112  -15.5213   28.2112 C   0  0  0  0  0  0  0  0  0  0  0  0
    9.8493  -14.6320   29.2597 C   0  0  0  0  0  0  0  0  0  0  0  0
    9.4650  -13.3226   29.0632 C   0  0  0  0  0  0  0  0  0  0  0  0
    9.1451  -12.9344   27.7818 C   0  0  0  0  0  0  0  0  0  0  0  0
    9.2079  -13.8309   26.7271 C   0  0  0  0  0  0  0  0  0  0  0  0
   11.7543  -17.1789   26.7122 C   0  0  0  0  0  0  0  0  0  0  0  0
   12.4623  -16.4396   27.4356 O   0  0  0  0  0  0  0  0  0  0  0  0
   11.6213  -18.5069   27.0456 O   0  0  0  0  0  0  0  0  0  0  0  0
  2  1  1  1
  2  3  1  0
  4  3  1  0
  4  5  2  0
  6  5  1  0
  7  6  2  0
  8  9  2  0
  8  7  1  0
  9  4  1  0
 10  2  1  0
 10 11  2  0
 13 12  1  0
 13 14  2  0
 15 16  1  0
 15 13  1  0
 17 18  1  0
 17 16  1  6
 18 10  1  0
 19 17  1  0
 20 19  2  0
 21 19  1  0
 22 21  1  0
 23 24  1  0
 22 23  1  1
 24 29  2  0
 25 26  2  0
 25 24  1  0
 26 27  1  0
 27 28  2  0
 29 28  1  0
 30 22  1  0
 30 32  1  0
 31 30  2  0
M  END
$$$$
