FQF.pdb
     RDKit          3D

 32 33  0  0  1  0  0  0  0  0999 V2000
    6.1447  -18.1017   20.8206 N   0  0  0  0  0  0  0  0  0  0  0  0
    7.0039  -17.0063   21.1314 C   0  0  1  0  0  0  0  0  0  0  0  0
    6.2185  -15.7776   21.5301 C   0  0  0  0  0  0  0  0  0  0  0  0
    6.9811  -14.5290   21.3334 C   0  0  0  0  0  0  0  0  0  0  0  0
    8.2568  -14.6078   20.8426 C   0  0  0  0  0  0  0  0  0  0  0  0
    9.0423  -13.4937   20.6272 C   0  0  0  0  0  0  0  0  0  0  0  0
    8.5186  -12.2404   20.9197 C   0  0  0  0  0  0  0  0  0  0  0  0
    7.2395  -12.1676   21.4114 C   0  0  0  0  0  0  0  0  0  0  0  0
    6.4566  -13.2877   21.6254 C   0  0  0  0  0  0  0  0  0  0  0  0
    7.9942  -17.2899   22.1885 C   0  0  0  0  0  0  0  0  0  0  0  0
    7.6115  -17.9550   23.1793 O   0  0  0  0  0  0  0  0  0  0  0  0
   14.2270  -19.1802   20.8280 N   0  0  0  0  0  0  0  0  0  0  0  0
   13.3279  -18.0886   20.7557 C   0  0  0  0  0  0  0  0  0  0  0  0
   13.6950  -17.0628   20.1500 O   0  0  0  0  0  0  0  0  0  0  0  0
   12.0093  -18.1895   21.3861 C   0  0  0  0  0  0  0  0  0  0  0  0
   11.7359  -17.2003   22.4773 C   0  0  0  0  0  0  0  0  0  0  0  0
   10.3839  -17.3361   23.0536 C   0  0  2  0  0  0  0  0  0  0  0  0
    9.3358  -16.8639   22.1572 N   0  0  0  0  0  0  0  0  0  0  0  0
   10.2916  -16.5000   24.2682 C   0  0  0  0  0  0  0  0  0  0  0  0
   10.7194  -15.3321   24.2531 O   0  0  0  0  0  0  0  0  0  0  0  0
    9.7281  -16.9907   25.4538 N   0  0  0  0  0  0  0  0  0  0  0  0
    9.8961  -16.3235   26.7509 C   0  0  1  0  0  0  0  0  0  0  0  0
    8.5124  -15.9546   27.2464 C   0  0  0  0  0  0  0  0  0  0  0  0
    7.9741  -14.7299   26.6067 C   0  0  0  0  0  0  0  0  0  0  0  0
    8.5482  -13.4942   26.8971 C   0  0  0  0  0  0  0  0  0  0  0  0
    8.0880  -12.3296   26.3261 C   0  0  0  0  0  0  0  0  0  0  0  0
    7.0335  -12.3383   25.4380 C   0  0  0  0  0  0  0  0  0  0  0  0
    6.4560  -13.5522   25.1412 C   0  0  0  0  0  0  0  0  0  0  0  0
    6.9205  -14.7239   25.7169 C   0  0  0  0  0  0  0  0  0  0  0  0
   10.6464  -17.1529   27.6921 C   0  0  0  0  0  0  0  0  0  0  0  0
   10.8671  -16.7090   28.8434 O   0  0  0  0  0  0  0  0  0  0  0  0
   11.1171  -18.4016   27.3583 O   0  0  0  0  0  0  0  0  0  0  0  0
  2  1  1  1
  2  3  1  0
  4  3  1  0
  4  5  2  0
  6  5  1  0
  7  6  2  0
  8  9  2  0
  8  7  1  0
  9  4  1  0
 10  2  1  0
 10 11  2  0
 13 12  1  0
 13 14  2  0
 15 16  1  0
 15 13  1  0
 17 18  1  0
 17 16  1  6
 18 10  1  0
 19 17  1  0
 20 19  2  0
 21 19  1  0
 22 21  1  0
 23 24  1  0
 22 23  1  1
 24 29  2  0
 25 26  2  0
 25 24  1  0
 26 27  1  0
 27 28  2  0
 29 28  1  0
 30 22  1  0
 30 32  1  0
 31 30  2  0
M  END
$$$$
