SNT.pdb
     RDKit          3D

 22 21  0  0  1  0  0  0  0  0999 V2000
   16.4893  -10.1340  -16.8732 O   0  0  0  0  0  0  0  0  0  0  0  0
   17.2375   -9.4213  -15.9224 C   0  0  0  0  0  0  0  0  0  0  0  0
   17.9401   -8.2353  -16.5571 C   0  0  2  0  0  0  0  0  0  0  0  0
   18.6723   -8.6333  -17.7463 N   0  0  0  0  0  0  0  0  0  0  0  0
   18.8637   -7.6660  -15.5604 C   0  0  0  0  0  0  0  0  0  0  0  0
   18.4274   -7.2708  -14.4632 O   0  0  0  0  0  0  0  0  0  0  0  0
   24.4229   -7.1959  -16.1665 N   0  0  0  0  0  0  0  0  0  0  0  0
   23.1629   -7.9083  -16.1695 C   0  0  0  0  0  0  0  0  0  0  0  0
   22.7814   -8.4247  -17.2271 O   0  0  0  0  0  0  0  0  0  0  0  0
   22.3841   -7.9992  -14.9431 C   0  0  0  0  0  0  0  0  0  0  0  0
   21.1969   -7.1153  -14.8167 C   0  0  2  0  0  0  0  0  0  0  0  0
   20.2407   -7.5678  -15.8464 N   0  0  0  0  0  0  0  0  0  0  0  0
   21.4252   -5.6832  -15.0234 C   0  0  0  0  0  0  0  0  0  0  0  0
   22.1811   -5.0316  -14.2787 O   0  0  0  0  0  0  0  0  0  0  0  0
   20.2836   -3.7992  -18.5906 C   0  0  0  0  0  0  0  0  0  0  0  0
   21.3721   -3.2542  -17.7067 C   0  0  1  0  0  0  0  0  0  0  0  0
   21.5715   -1.9183  -17.9166 O   0  0  0  0  0  0  0  0  0  0  0  0
   21.0235   -3.6043  -16.2822 C   0  0  2  0  0  0  0  0  0  0  0  0
   20.7828   -5.0018  -16.0873 N   0  0  0  0  0  0  0  0  0  0  0  0
   19.8723   -2.7702  -15.7935 C   0  0  0  0  0  0  0  0  0  0  0  0
   19.9878   -1.3904  -15.7009 O   0  0  0  0  0  0  0  0  0  0  0  0
   18.7740   -3.2808  -15.4538 O   0  0  0  0  0  0  0  0  0  0  0  0
  2  1  1  0
  2  3  1  0
  3  5  1  0
  3  4  1  6
  5 12  1  0
  6  5  2  0
  7  8  1  0
  8  9  2  0
 10  8  1  0
 11 10  1  6
 11 13  1  0
 12 11  1  0
 13 14  2  0
 13 19  1  0
 16 17  1  0
 16 15  1  6
 18 16  1  0
 18 19  1  6
 20 18  1  0
 20 21  1  0
 22 20  2  0
M  END
$$$$
