SNT.pdb
     RDKit          3D

 22 21  0  0  1  0  0  0  0  0999 V2000
   17.5412  -12.1905  -14.6621 O   0  0  0  0  0  0  0  0  0  0  0  0
   17.5609  -10.7939  -14.5180 C   0  0  0  0  0  0  0  0  0  0  0  0
   16.4542  -10.3243  -13.5920 C   0  0  2  0  0  0  0  0  0  0  0  0
   15.1642  -10.3525  -14.2584 N   0  0  0  0  0  0  0  0  0  0  0  0
   16.7719   -8.9516  -13.1614 C   0  0  0  0  0  0  0  0  0  0  0  0
   16.4695   -7.9868  -13.8880 O   0  0  0  0  0  0  0  0  0  0  0  0
   18.4005   -4.9748  -10.0550 N   0  0  0  0  0  0  0  0  0  0  0  0
   17.6955   -6.0335   -9.3643 C   0  0  0  0  0  0  0  0  0  0  0  0
   17.3938   -5.8624   -8.1767 O   0  0  0  0  0  0  0  0  0  0  0  0
   17.3623   -7.2595  -10.0747 C   0  0  0  0  0  0  0  0  0  0  0  0
   17.7752   -7.3622  -11.4979 C   0  0  2  0  0  0  0  0  0  0  0  0
   17.4177   -8.7283  -11.9282 N   0  0  0  0  0  0  0  0  0  0  0  0
   19.1996   -7.1681  -11.7793 C   0  0  0  0  0  0  0  0  0  0  0  0
   20.0768   -7.7856  -11.1468 O   0  0  0  0  0  0  0  0  0  0  0  0
   21.5487   -8.1645  -14.0445 C   0  0  0  0  0  0  0  0  0  0  0  0
   21.5295   -6.6765  -14.2657 C   0  0  1  0  0  0  0  0  0  0  0  0
   20.8270   -6.3421  -15.3896 O   0  0  0  0  0  0  0  0  0  0  0  0
   21.0096   -6.0329  -13.0051 C   0  0  2  0  0  0  0  0  0  0  0  0
   19.6136   -6.2632  -12.7884 N   0  0  0  0  0  0  0  0  0  0  0  0
   21.3403   -4.5668  -12.9783 C   0  0  0  0  0  0  0  0  0  0  0  0
   20.3315   -3.6139  -12.9879 O   0  0  0  0  0  0  0  0  0  0  0  0
   22.5268   -4.1499  -12.9466 O   0  0  0  0  0  0  0  0  0  0  0  0
  2  1  1  0
  2  3  1  0
  3  5  1  0
  3  4  1  6
  5 12  1  0
  6  5  2  0
  7  8  1  0
  8  9  2  0
 10  8  1  0
 11 10  1  1
 11 13  1  0
 12 11  1  0
 13 14  2  0
 13 19  1  0
 16 17  1  0
 16 15  1  1
 18 16  1  0
 18 19  1  6
 20 18  1  0
 20 21  1  0
 22 20  2  0
M  END
$$$$
