SNT.pdb
     RDKit          3D

 22 21  0  0  1  0  0  0  0  0999 V2000
   15.0510   -7.6916  -18.7707 O   0  0  0  0  0  0  0  0  0  0  0  0
   16.4299   -7.5959  -18.5230 C   0  0  0  0  0  0  0  0  0  0  0  0
   16.9929   -8.9222  -18.0466 C   0  0  2  0  0  0  0  0  0  0  0  0
   15.9332   -9.8231  -17.6290 N   0  0  0  0  0  0  0  0  0  0  0  0
   17.9022   -8.6527  -16.9192 C   0  0  0  0  0  0  0  0  0  0  0  0
   17.4877   -8.7510  -15.7493 O   0  0  0  0  0  0  0  0  0  0  0  0
   22.5247   -9.5482  -14.0802 N   0  0  0  0  0  0  0  0  0  0  0  0
   22.4343   -8.7875  -15.3083 C   0  0  0  0  0  0  0  0  0  0  0  0
   23.3488   -8.0003  -15.5816 O   0  0  0  0  0  0  0  0  0  0  0  0
   21.2835   -8.9645  -16.1819 C   0  0  0  0  0  0  0  0  0  0  0  0
   20.1625   -7.9995  -16.0446 C   0  0  2  0  0  0  0  0  0  0  0  0
   19.2411   -8.2839  -17.1624 N   0  0  0  0  0  0  0  0  0  0  0  0
   20.5132   -6.5788  -16.1106 C   0  0  0  0  0  0  0  0  0  0  0  0
   20.8283   -6.0367  -17.1866 O   0  0  0  0  0  0  0  0  0  0  0  0
   18.7511   -3.5827  -15.8140 C   0  0  0  0  0  0  0  0  0  0  0  0
   19.7657   -3.4524  -14.7108 C   0  0  1  0  0  0  0  0  0  0  0  0
   19.1990   -3.6314  -13.4798 O   0  0  0  0  0  0  0  0  0  0  0  0
   20.8929   -4.4080  -15.0102 C   0  0  2  0  0  0  0  0  0  0  0  0
   20.5012   -5.7829  -14.9380 N   0  0  0  0  0  0  0  0  0  0  0  0
   22.0812   -4.1235  -14.1346 C   0  0  0  0  0  0  0  0  0  0  0  0
   22.5469   -5.0784  -13.2420 O   0  0  0  0  0  0  0  0  0  0  0  0
   22.6929   -3.0250  -14.1747 O   0  0  0  0  0  0  0  0  0  0  0  0
  2  1  1  0
  2  3  1  0
  3  5  1  0
  3  4  1  1
  5 12  1  0
  6  5  2  0
  7  8  1  0
  8  9  2  0
 10  8  1  0
 11 10  1  6
 11 13  1  0
 12 11  1  0
 13 14  2  0
 13 19  1  0
 16 17  1  0
 16 15  1  6
 18 16  1  0
 18 19  1  1
 20 18  1  0
 20 21  1  0
 22 20  2  0
M  END
$$$$
