SNT.pdb
     RDKit          3D

 22 21  0  0  1  0  0  0  0  0999 V2000
   18.9875  -15.1088  -15.2101 O   0  0  0  0  0  0  0  0  0  0  0  0
   19.2391  -14.0076  -16.0442 C   0  0  0  0  0  0  0  0  0  0  0  0
   17.9491  -13.4491  -16.6160 C   0  0  2  0  0  0  0  0  0  0  0  0
   17.4497  -14.2812  -17.6963 N   0  0  0  0  0  0  0  0  0  0  0  0
   18.2210  -12.0878  -17.1093 C   0  0  0  0  0  0  0  0  0  0  0  0
   18.7483  -11.9250  -18.2255 O   0  0  0  0  0  0  0  0  0  0  0  0
   17.2218   -7.1553  -18.6639 N   0  0  0  0  0  0  0  0  0  0  0  0
   16.6963   -7.6013  -17.3911 C   0  0  0  0  0  0  0  0  0  0  0  0
   16.1971   -6.7603  -16.6333 O   0  0  0  0  0  0  0  0  0  0  0  0
   16.7668   -9.0114  -17.0372 C   0  0  0  0  0  0  0  0  0  0  0  0
   18.1139   -9.5972  -16.8160 C   0  0  2  0  0  0  0  0  0  0  0  0
   17.8852  -10.9688  -16.3202 N   0  0  0  0  0  0  0  0  0  0  0  0
   18.9711   -8.9129  -15.8451 C   0  0  0  0  0  0  0  0  0  0  0  0
   18.8297   -9.0834  -14.6197 O   0  0  0  0  0  0  0  0  0  0  0  0
   22.4413   -9.2590  -15.1533 C   0  0  0  0  0  0  0  0  0  0  0  0
   22.3074   -7.8031  -15.5080 C   0  0  1  0  0  0  0  0  0  0  0  0
   22.7999   -7.5400  -16.7557 O   0  0  0  0  0  0  0  0  0  0  0  0
   20.8604   -7.4192  -15.3280 C   0  0  2  0  0  0  0  0  0  0  0  0
   19.9907   -8.0323  -16.2854 N   0  0  0  0  0  0  0  0  0  0  0  0
   20.7022   -5.9244  -15.3128 C   0  0  0  0  0  0  0  0  0  0  0  0
   21.3411   -5.1554  -14.3504 O   0  0  0  0  0  0  0  0  0  0  0  0
   19.9951   -5.3187  -16.1587 O   0  0  0  0  0  0  0  0  0  0  0  0
  2  1  1  0
  2  3  1  0
  3  5  1  0
  3  4  1  6
  5 12  1  0
  6  5  2  0
  7  8  1  0
  8  9  2  0
 10  8  1  0
 11 10  1  1
 11 13  1  0
 12 11  1  0
 13 14  2  0
 13 19  1  0
 16 17  1  0
 16 15  1  6
 18 16  1  0
 18 19  1  6
 20 18  1  0
 20 21  1  0
 22 20  2  0
M  END
$$$$
