SNT.pdb
     RDKit          3D

 22 21  0  0  1  0  0  0  0  0999 V2000
   15.9955  -11.1370  -15.2744 O   0  0  0  0  0  0  0  0  0  0  0  0
   17.2772  -10.6201  -15.0257 C   0  0  0  0  0  0  0  0  0  0  0  0
   18.3491  -11.6550  -15.3135 C   0  0  2  0  0  0  0  0  0  0  0  0
   18.1404  -12.8596  -14.5297 N   0  0  0  0  0  0  0  0  0  0  0  0
   19.6568  -11.0593  -14.9883 C   0  0  0  0  0  0  0  0  0  0  0  0
   20.1574  -11.2362  -13.8620 O   0  0  0  0  0  0  0  0  0  0  0  0
   24.8479   -9.4397  -15.8764 N   0  0  0  0  0  0  0  0  0  0  0  0
   24.0097  -10.6131  -15.7520 C   0  0  0  0  0  0  0  0  0  0  0  0
   24.4697  -11.6066  -15.1758 O   0  0  0  0  0  0  0  0  0  0  0  0
   22.6617  -10.5966  -16.3012 C   0  0  0  0  0  0  0  0  0  0  0  0
   21.6658   -9.7077  -15.6496 C   0  0  2  0  0  0  0  0  0  0  0  0
   20.3426  -10.2894  -15.9498 N   0  0  0  0  0  0  0  0  0  0  0  0
   21.6471   -8.3123  -16.0951 C   0  0  0  0  0  0  0  0  0  0  0  0
   22.7011   -7.6784  -16.2898 O   0  0  0  0  0  0  0  0  0  0  0  0
   19.9235   -6.6593  -19.0655 C   0  0  0  0  0  0  0  0  0  0  0  0
   19.4302   -5.9760  -17.8193 C   0  0  1  0  0  0  0  0  0  0  0  0
   18.1427   -6.3291  -17.5258 O   0  0  0  0  0  0  0  0  0  0  0  0
   20.4129   -6.2727  -16.7149 C   0  0  2  0  0  0  0  0  0  0  0  0
   20.4152   -7.6474  -16.3159 N   0  0  0  0  0  0  0  0  0  0  0  0
   20.1933   -5.3561  -15.5439 C   0  0  0  0  0  0  0  0  0  0  0  0
   20.2233   -3.9785  -15.7086 O   0  0  0  0  0  0  0  0  0  0  0  0
   19.9766   -5.7934  -14.3845 O   0  0  0  0  0  0  0  0  0  0  0  0
  2  1  1  0
  2  3  1  0
  3  5  1  0
  3  4  1  1
  5 12  1  0
  6  5  2  0
  7  8  1  0
  8  9  2  0
 10  8  1  0
 11 10  1  6
 11 13  1  0
 12 11  1  0
 13 14  2  0
 13 19  1  0
 16 17  1  0
 16 15  1  6
 18 16  1  0
 18 19  1  1
 20 18  1  0
 20 21  1  0
 22 20  2  0
M  END
$$$$
