SNT.pdb
     RDKit          3D

 22 21  0  0  1  0  0  0  0  0999 V2000
   36.9550  -32.3026  -15.4277 O   0  0  0  0  0  0  0  0  0  0  0  0
   36.6286  -31.0006  -15.8402 C   0  0  0  0  0  0  0  0  0  0  0  0
   37.8782  -30.1710  -16.0705 C   0  0  2  0  0  0  0  0  0  0  0  0
   38.7835  -30.2592  -14.9385 N   0  0  0  0  0  0  0  0  0  0  0  0
   37.4645  -28.7726  -16.2806 C   0  0  0  0  0  0  0  0  0  0  0  0
   37.7658  -27.9028  -15.4421 O   0  0  0  0  0  0  0  0  0  0  0  0
   38.6904  -24.7294  -19.0848 N   0  0  0  0  0  0  0  0  0  0  0  0
   38.4352  -26.1354  -18.8543 C   0  0  0  0  0  0  0  0  0  0  0  0
   39.3910  -26.8684  -18.5716 O   0  0  0  0  0  0  0  0  0  0  0  0
   37.0767  -26.6474  -18.9595 C   0  0  0  0  0  0  0  0  0  0  0  0
   36.3795  -27.0083  -17.6984 C   0  0  2  0  0  0  0  0  0  0  0  0
   36.7282  -28.4173  -17.4291 N   0  0  0  0  0  0  0  0  0  0  0  0
   34.9181  -26.9084  -17.7095 C   0  0  0  0  0  0  0  0  0  0  0  0
   34.2148  -27.7376  -18.3166 O   0  0  0  0  0  0  0  0  0  0  0  0
   30.7889  -25.0052  -15.9604 C   0  0  0  0  0  0  0  0  0  0  0  0
   32.2839  -25.0709  -15.8062 C   0  0  1  0  0  0  0  0  0  0  0  0
   32.6444  -25.6285  -14.6114 O   0  0  0  0  0  0  0  0  0  0  0  0
   32.8370  -25.7919  -17.0094 C   0  0  2  0  0  0  0  0  0  0  0  0
   34.2670  -25.8538  -17.0220 N   0  0  0  0  0  0  0  0  0  0  0  0
   32.2965  -25.2009  -18.2815 C   0  0  0  0  0  0  0  0  0  0  0  0
   30.9938  -25.4591  -18.6838 O   0  0  0  0  0  0  0  0  0  0  0  0
   32.9923  -24.4594  -19.0222 O   0  0  0  0  0  0  0  0  0  0  0  0
  2  1  1  0
  2  3  1  0
  3  5  1  0
  3  4  1  1
  5 12  1  0
  6  5  2  0
  7  8  1  0
  8  9  2  0
 10  8  1  0
 11 10  1  6
 11 13  1  0
 12 11  1  0
 13 14  2  0
 13 19  1  0
 16 17  1  0
 16 15  1  6
 18 16  1  0
 18 19  1  6
 20 18  1  0
 20 21  1  0
 22 20  2  0
M  END
$$$$
