SNT.pdb
     RDKit          3D

 22 21  0  0  1  0  0  0  0  0999 V2000
   18.3767  -11.6994  -18.4832 O   0  0  0  0  0  0  0  0  0  0  0  0
   18.4989  -10.6782  -17.5272 C   0  0  0  0  0  0  0  0  0  0  0  0
   19.8550  -10.7250  -16.8478 C   0  0  2  0  0  0  0  0  0  0  0  0
   20.1024  -12.0287  -16.2579 N   0  0  0  0  0  0  0  0  0  0  0  0
   19.8785   -9.6844  -15.8050 C   0  0  0  0  0  0  0  0  0  0  0  0
   19.3792   -9.9131  -14.6876 O   0  0  0  0  0  0  0  0  0  0  0  0
   22.6829   -4.7490  -14.2453 N   0  0  0  0  0  0  0  0  0  0  0  0
   22.0540   -5.9619  -13.7674 C   0  0  0  0  0  0  0  0  0  0  0  0
   21.7351   -6.0285  -12.5738 O   0  0  0  0  0  0  0  0  0  0  0  0
   21.8147   -7.0610  -14.6912 C   0  0  0  0  0  0  0  0  0  0  0  0
   20.4071   -7.3422  -15.0737 C   0  0  2  0  0  0  0  0  0  0  0  0
   20.4653   -8.4302  -16.0698 N   0  0  0  0  0  0  0  0  0  0  0  0
   19.6602   -6.2334  -15.6725 C   0  0  0  0  0  0  0  0  0  0  0  0
   19.8906   -5.8470  -16.8337 O   0  0  0  0  0  0  0  0  0  0  0  0
   15.8445   -3.4531  -16.1961 C   0  0  0  0  0  0  0  0  0  0  0  0
   16.4498   -4.6019  -15.4364 C   0  0  1  0  0  0  0  0  0  0  0  0
   15.9746   -5.8053  -15.8776 O   0  0  0  0  0  0  0  0  0  0  0  0
   17.9492   -4.4678  -15.5217 C   0  0  2  0  0  0  0  0  0  0  0  0
   18.6486   -5.5699  -14.9342 N   0  0  0  0  0  0  0  0  0  0  0  0
   18.4016   -3.1545  -14.9472 C   0  0  0  0  0  0  0  0  0  0  0  0
   18.5915   -2.0515  -15.7675 O   0  0  0  0  0  0  0  0  0  0  0  0
   18.6233   -3.0038  -13.7181 O   0  0  0  0  0  0  0  0  0  0  0  0
  2  1  1  0
  2  3  1  0
  3  5  1  0
  3  4  1  1
  5 12  1  0
  6  5  2  0
  7  8  1  0
  8  9  2  0
 10  8  1  0
 11 10  1  6
 11 13  1  0
 12 11  1  0
 13 14  2  0
 13 19  1  0
 16 17  1  0
 16 15  1  6
 18 16  1  0
 18 19  1  1
 20 18  1  0
 20 21  1  0
 22 20  2  0
M  END
$$$$
