SNT.pdb
     RDKit          3D

 22 21  0  0  1  0  0  0  0  0999 V2000
   23.5670   -9.6081  -16.4420 O   0  0  0  0  0  0  0  0  0  0  0  0
   22.2182   -9.3206  -16.7059 C   0  0  0  0  0  0  0  0  0  0  0  0
   21.3038  -10.3376  -16.0484 C   0  0  2  0  0  0  0  0  0  0  0  0
   21.3743  -11.6214  -16.7235 N   0  0  0  0  0  0  0  0  0  0  0  0
   19.9278   -9.8135  -16.0992 C   0  0  0  0  0  0  0  0  0  0  0  0
   19.2843   -9.8594  -17.1641 O   0  0  0  0  0  0  0  0  0  0  0  0
   15.2131   -8.0135  -14.7981 N   0  0  0  0  0  0  0  0  0  0  0  0
   15.6974   -9.2041  -14.1327 C   0  0  0  0  0  0  0  0  0  0  0  0
   14.8819   -9.9174  -13.5353 O   0  0  0  0  0  0  0  0  0  0  0  0
   17.1153   -9.5299  -14.1815 C   0  0  0  0  0  0  0  0  0  0  0  0
   17.9935   -8.6533  -14.9981 C   0  0  2  0  0  0  0  0  0  0  0  0
   19.3382   -9.2600  -14.9444 N   0  0  0  0  0  0  0  0  0  0  0  0
   18.1178   -7.2619  -14.5571 C   0  0  0  0  0  0  0  0  0  0  0  0
   18.7739   -6.9579  -13.5432 O   0  0  0  0  0  0  0  0  0  0  0  0
   16.9956   -4.0404  -17.0611 C   0  0  0  0  0  0  0  0  0  0  0  0
   18.0582   -3.9446  -16.0004 C   0  0  1  0  0  0  0  0  0  0  0  0
   18.2718   -2.6507  -15.6150 O   0  0  0  0  0  0  0  0  0  0  0  0
   17.6617   -4.8617  -14.8711 C   0  0  2  0  0  0  0  0  0  0  0  0
   17.4866   -6.2213  -15.2832 N   0  0  0  0  0  0  0  0  0  0  0  0
   16.4462   -4.3375  -14.1587 C   0  0  0  0  0  0  0  0  0  0  0  0
   16.4916   -3.1289  -13.4782 O   0  0  0  0  0  0  0  0  0  0  0  0
   15.3550   -4.9631  -14.1504 O   0  0  0  0  0  0  0  0  0  0  0  0
  2  1  1  0
  2  3  1  0
  3  5  1  0
  3  4  1  6
  5 12  1  0
  6  5  2  0
  7  8  1  0
  8  9  2  0
 10  8  1  0
 11 10  1  1
 11 13  1  0
 12 11  1  0
 13 14  2  0
 13 19  1  0
 16 17  1  0
 16 15  1  6
 18 16  1  0
 18 19  1  6
 20 18  1  0
 20 21  1  0
 22 20  2  0
M  END
$$$$
