SNT.pdb
     RDKit          3D

 22 21  0  0  1  0  0  0  0  0999 V2000
   14.1463  -12.3501  -15.7336 O   0  0  0  0  0  0  0  0  0  0  0  0
   14.7857  -11.7377  -14.6436 C   0  0  0  0  0  0  0  0  0  0  0  0
   16.2649  -11.5396  -14.9186 C   0  0  2  0  0  0  0  0  0  0  0  0
   16.9388  -12.8118  -15.1095 N   0  0  0  0  0  0  0  0  0  0  0  0
   16.8498  -10.8237  -13.7715 C   0  0  0  0  0  0  0  0  0  0  0  0
   17.0923  -11.4361  -12.7148 O   0  0  0  0  0  0  0  0  0  0  0  0
   20.8975   -7.4883  -11.8893 N   0  0  0  0  0  0  0  0  0  0  0  0
   19.6240   -7.0666  -12.4328 C   0  0  0  0  0  0  0  0  0  0  0  0
   19.1929   -5.9491  -12.1230 O   0  0  0  0  0  0  0  0  0  0  0  0
   18.8897   -7.9565  -13.3204 C   0  0  0  0  0  0  0  0  0  0  0  0
   17.7562   -8.7221  -12.7410 C   0  0  2  0  0  0  0  0  0  0  0  0
   17.1358   -9.4466  -13.8677 N   0  0  0  0  0  0  0  0  0  0  0  0
   16.7060   -7.9376  -12.0872 C   0  0  0  0  0  0  0  0  0  0  0  0
   15.7768   -7.4253  -12.7390 O   0  0  0  0  0  0  0  0  0  0  0  0
   14.3270   -6.4199   -8.1448 C   0  0  0  0  0  0  0  0  0  0  0  0
   15.3797   -7.3590   -8.6677 C   0  0  1  0  0  0  0  0  0  0  0  0
   14.9818   -8.6637   -8.5783 O   0  0  0  0  0  0  0  0  0  0  0  0
   15.7297   -6.9207  -10.0673 C   0  0  2  0  0  0  0  0  0  0  0  0
   16.7260   -7.7432  -10.6835 N   0  0  0  0  0  0  0  0  0  0  0  0
   16.1175   -5.4685  -10.0911 C   0  0  0  0  0  0  0  0  0  0  0  0
   15.1489   -4.4793  -10.1856 O   0  0  0  0  0  0  0  0  0  0  0  0
   17.3173   -5.0962  -10.0272 O   0  0  0  0  0  0  0  0  0  0  0  0
  2  1  1  0
  2  3  1  0
  3  5  1  0
  3  4  1  1
  5 12  1  0
  6  5  2  0
  7  8  1  0
  8  9  2  0
 10  8  1  0
 11 10  1  6
 11 13  1  0
 12 11  1  0
 13 14  2  0
 13 19  1  0
 16 17  1  0
 16 15  1  6
 18 16  1  0
 18 19  1  1
 20 18  1  0
 20 21  1  0
 22 20  2  0
M  END
$$$$
