SNT.pdb
     RDKit          3D

 22 21  0  0  1  0  0  0  0  0999 V2000
   26.0774  -13.2164  -16.2627 O   0  0  0  0  0  0  0  0  0  0  0  0
   25.2777  -12.0815  -16.4729 C   0  0  0  0  0  0  0  0  0  0  0  0
   23.9080  -12.4681  -16.9996 C   0  0  2  0  0  0  0  0  0  0  0  0
   23.9980  -13.0276  -18.3367 N   0  0  0  0  0  0  0  0  0  0  0  0
   23.0666  -11.2588  -17.0122 C   0  0  0  0  0  0  0  0  0  0  0  0
   23.0404  -10.5303  -18.0216 O   0  0  0  0  0  0  0  0  0  0  0  0
   19.2533  -11.0211  -17.4702 N   0  0  0  0  0  0  0  0  0  0  0  0
   19.0606  -10.8783  -16.0428 C   0  0  0  0  0  0  0  0  0  0  0  0
   17.9969  -11.2737  -15.5501 O   0  0  0  0  0  0  0  0  0  0  0  0
   20.1102  -10.2801  -15.2308 C   0  0  0  0  0  0  0  0  0  0  0  0
   21.3314   -9.8036  -15.9297 C   0  0  2  0  0  0  0  0  0  0  0  0
   22.2908  -10.9246  -15.8834 N   0  0  0  0  0  0  0  0  0  0  0  0
   21.9944   -8.6297  -15.3568 C   0  0  0  0  0  0  0  0  0  0  0  0
   22.7680   -8.7296  -14.3861 O   0  0  0  0  0  0  0  0  0  0  0  0
   23.4074   -3.9940  -15.6697 C   0  0  0  0  0  0  0  0  0  0  0  0
   22.6933   -5.1175  -16.3703 C   0  0  1  0  0  0  0  0  0  0  0  0
   23.3711   -5.5306  -17.4831 O   0  0  0  0  0  0  0  0  0  0  0  0
   22.4548   -6.2099  -15.3586 C   0  0  2  0  0  0  0  0  0  0  0  0
   21.7664   -7.3413  -15.9015 N   0  0  0  0  0  0  0  0  0  0  0  0
   21.7577   -5.6682  -14.1419 C   0  0  0  0  0  0  0  0  0  0  0  0
   22.4875   -5.1912  -13.0623 O   0  0  0  0  0  0  0  0  0  0  0  0
   20.5036   -5.6258  -14.0539 O   0  0  0  0  0  0  0  0  0  0  0  0
  2  1  1  0
  2  3  1  0
  3  5  1  0
  3  4  1  6
  5 12  1  0
  6  5  2  0
  7  8  1  0
  8  9  2  0
 10  8  1  0
 11 10  1  1
 11 13  1  0
 12 11  1  0
 13 14  2  0
 13 19  1  0
 16 17  1  0
 16 15  1  1
 18 16  1  0
 18 19  1  6
 20 18  1  0
 20 21  1  0
 22 20  2  0
M  END
$$$$
