SNT.pdb
     RDKit          3D

 22 21  0  0  1  0  0  0  0  0999 V2000
   21.3346  -13.4503  -18.0091 O   0  0  0  0  0  0  0  0  0  0  0  0
   21.1698  -13.1483  -16.6477 C   0  0  0  0  0  0  0  0  0  0  0  0
   19.7288  -12.7861  -16.3389 C   0  0  2  0  0  0  0  0  0  0  0  0
   18.8054  -13.6583  -17.0427 N   0  0  0  0  0  0  0  0  0  0  0  0
   19.5134  -11.3865  -16.7456 C   0  0  0  0  0  0  0  0  0  0  0  0
   19.3671  -11.1048  -17.9496 O   0  0  0  0  0  0  0  0  0  0  0  0
   16.2603   -9.4801  -14.3407 N   0  0  0  0  0  0  0  0  0  0  0  0
   17.4078   -8.6430  -14.6190 C   0  0  0  0  0  0  0  0  0  0  0  0
   17.9088   -8.0022  -13.6868 O   0  0  0  0  0  0  0  0  0  0  0  0
   17.9385   -8.5757  -15.9728 C   0  0  0  0  0  0  0  0  0  0  0  0
   19.3629   -8.9478  -16.1711 C   0  0  2  0  0  0  0  0  0  0  0  0
   19.4725  -10.3655  -15.7743 N   0  0  0  0  0  0  0  0  0  0  0  0
   20.3484   -8.1931  -15.3933 C   0  0  0  0  0  0  0  0  0  0  0  0
   20.7457   -8.5946  -14.2835 O   0  0  0  0  0  0  0  0  0  0  0  0
   23.7368   -6.9714  -16.6445 C   0  0  0  0  0  0  0  0  0  0  0  0
   23.0145   -5.7847  -16.0674 C   0  0  1  0  0  0  0  0  0  0  0  0
   22.5775   -4.9351  -17.0450 O   0  0  0  0  0  0  0  0  0  0  0  0
   21.9169   -6.3064  -15.1748 C   0  0  2  0  0  0  0  0  0  0  0  0
   20.8759   -6.9764  -15.8933 N   0  0  0  0  0  0  0  0  0  0  0  0
   21.3716   -5.2104  -14.3024 C   0  0  0  0  0  0  0  0  0  0  0  0
   22.1949   -4.5448  -13.4053 O   0  0  0  0  0  0  0  0  0  0  0  0
   20.1652   -4.8571  -14.3491 O   0  0  0  0  0  0  0  0  0  0  0  0
  2  1  1  0
  2  3  1  0
  3  5  1  0
  3  4  1  6
  5 12  1  0
  6  5  2  0
  7  8  1  0
  8  9  2  0
 10  8  1  0
 11 10  1  1
 11 13  1  0
 12 11  1  0
 13 14  2  0
 13 19  1  0
 16 17  1  0
 16 15  1  6
 18 16  1  0
 18 19  1  6
 20 18  1  0
 20 21  1  0
 22 20  2  0
M  END
$$$$
