SNT.pdb
     RDKit          3D

 22 21  0  0  1  0  0  0  0  0999 V2000
   14.3099   -7.5136  -11.3084 O   0  0  0  0  0  0  0  0  0  0  0  0
   15.5671   -7.4931  -11.9336 C   0  0  0  0  0  0  0  0  0  0  0  0
   16.0533   -8.8999  -12.2293 C   0  0  2  0  0  0  0  0  0  0  0  0
   16.1042   -9.7031  -11.0205 N   0  0  0  0  0  0  0  0  0  0  0  0
   17.3955   -8.8016  -12.8290 C   0  0  0  0  0  0  0  0  0  0  0  0
   18.3939   -8.6624  -12.0982 O   0  0  0  0  0  0  0  0  0  0  0  0
   20.0260  -11.7846  -16.1154 N   0  0  0  0  0  0  0  0  0  0  0  0
   18.7746  -11.0625  -16.0283 C   0  0  0  0  0  0  0  0  0  0  0  0
   17.7304  -11.7100  -15.8836 O   0  0  0  0  0  0  0  0  0  0  0  0
   18.7745   -9.6093  -16.1119 C   0  0  0  0  0  0  0  0  0  0  0  0
   18.8945   -8.8484  -14.8417 C   0  0  2  0  0  0  0  0  0  0  0  0
   17.5516   -8.8648  -14.2287 N   0  0  0  0  0  0  0  0  0  0  0  0
   19.3113   -7.4489  -14.9568 C   0  0  0  0  0  0  0  0  0  0  0  0
   18.5123   -6.5595  -15.3052 O   0  0  0  0  0  0  0  0  0  0  0  0
   20.4135   -5.0619  -12.4450 C   0  0  0  0  0  0  0  0  0  0  0  0
   21.5667   -5.1835  -13.4034 C   0  0  1  0  0  0  0  0  0  0  0  0
   22.5741   -5.9497  -12.8868 O   0  0  0  0  0  0  0  0  0  0  0  0
   21.0214   -5.6927  -14.7137 C   0  0  2  0  0  0  0  0  0  0  0  0
   20.6478   -7.0738  -14.6709 N   0  0  0  0  0  0  0  0  0  0  0  0
   21.9807   -5.4125  -15.8366 C   0  0  0  0  0  0  0  0  0  0  0  0
   22.5055   -6.4501  -16.5940 O   0  0  0  0  0  0  0  0  0  0  0  0
   22.3415   -4.2440  -16.1313 O   0  0  0  0  0  0  0  0  0  0  0  0
  2  1  1  0
  2  3  1  0
  3  5  1  0
  3  4  1  1
  5 12  1  0
  6  5  2  0
  7  8  1  0
  8  9  2  0
 10  8  1  0
 11 10  1  6
 11 13  1  0
 12 11  1  0
 13 14  2  0
 13 19  1  0
 16 17  1  0
 16 15  1  1
 18 16  1  0
 18 19  1  1
 20 18  1  0
 20 21  1  0
 22 20  2  0
M  END
$$$$
