SNT.pdb
     RDKit          3D

 22 21  0  0  1  0  0  0  0  0999 V2000
   18.4979  -12.8388  -15.4678 O   0  0  0  0  0  0  0  0  0  0  0  0
   18.2991  -11.4591  -15.2990 C   0  0  0  0  0  0  0  0  0  0  0  0
   17.0011  -11.1799  -14.5640 C   0  0  2  0  0  0  0  0  0  0  0  0
   15.8507  -11.4501  -15.4081 N   0  0  0  0  0  0  0  0  0  0  0  0
   17.0059   -9.7654  -14.1519 C   0  0  0  0  0  0  0  0  0  0  0  0
   16.6457   -8.8834  -14.9535 O   0  0  0  0  0  0  0  0  0  0  0  0
   16.3574   -6.8628   -8.8723 N   0  0  0  0  0  0  0  0  0  0  0  0
   16.5525   -6.8233  -10.3059 C   0  0  0  0  0  0  0  0  0  0  0  0
   16.6144   -5.7195  -10.8613 O   0  0  0  0  0  0  0  0  0  0  0  0
   16.6699   -8.0682  -11.0512 C   0  0  0  0  0  0  0  0  0  0  0  0
   17.3221   -8.0112  -12.3846 C   0  0  2  0  0  0  0  0  0  0  0  0
   17.4174   -9.4084  -12.8515 N   0  0  0  0  0  0  0  0  0  0  0  0
   18.6692   -7.4374  -12.4277 C   0  0  0  0  0  0  0  0  0  0  0  0
   19.5758   -7.8509  -11.6808 O   0  0  0  0  0  0  0  0  0  0  0  0
   21.4882   -7.8316  -14.0235 C   0  0  0  0  0  0  0  0  0  0  0  0
   21.1707   -6.4159  -14.4209 C   0  0  1  0  0  0  0  0  0  0  0  0
   20.6354   -6.3520  -15.6771 O   0  0  0  0  0  0  0  0  0  0  0  0
   20.2887   -5.8264  -13.3494 C   0  0  2  0  0  0  0  0  0  0  0  0
   18.9720   -6.3876  -13.3304 N   0  0  0  0  0  0  0  0  0  0  0  0
   20.2508   -4.3272  -13.4537 C   0  0  0  0  0  0  0  0  0  0  0  0
   19.0509   -3.6631  -13.6654 O   0  0  0  0  0  0  0  0  0  0  0  0
   21.2891   -3.6241  -13.3548 O   0  0  0  0  0  0  0  0  0  0  0  0
  2  1  1  0
  2  3  1  0
  3  5  1  0
  3  4  1  6
  5 12  1  0
  6  5  2  0
  7  8  1  0
  8  9  2  0
 10  8  1  0
 11 10  1  1
 11 13  1  0
 12 11  1  0
 13 14  2  0
 13 19  1  0
 16 17  1  0
 16 15  1  1
 18 16  1  0
 18 19  1  6
 20 18  1  0
 20 21  1  0
 22 20  2  0
M  END
$$$$
