PHP.pdb
     RDKit          3D

 25 27  0  0  1  0  0  0  0  0999 V2000
    7.3418  -15.0820   18.8779 N   0  0  0  0  0  0  0  0  0  0  0  0
    8.0996  -14.4185   17.8076 C   0  0  0  0  0  0  0  0  0  0  0  0
    8.3255  -13.0075   18.3605 C   0  0  0  0  0  0  0  0  0  0  0  0
    8.0483  -13.1343   19.8653 C   0  0  0  0  0  0  0  0  0  0  0  0
    8.0832  -14.6086   20.0463 C   0  0  1  0  0  0  0  0  0  0  0  0
    7.4987  -15.1162   21.2936 C   0  0  0  0  0  0  0  0  0  0  0  0
    6.2436  -15.3652   21.3592 O   0  0  0  0  0  0  0  0  0  0  0  0
    8.3476  -15.3238   22.4095 N   0  0  0  0  0  0  0  0  0  0  0  0
    7.7844  -15.7388   23.7069 C   0  0  1  0  0  0  0  0  0  0  0  0
    8.0649  -17.2193   23.8818 C   0  0  0  0  0  0  0  0  0  0  0  0
    7.5866  -17.6838   25.2004 C   0  0  0  0  0  0  0  0  0  0  0  0
    6.6893  -17.0975   26.0501 C   0  0  0  0  0  0  0  0  0  0  0  0
    6.4609  -17.9283   27.1119 N   0  0  0  0  0  0  0  0  0  0  0  0
    7.2052  -19.0215   26.9276 C   0  0  0  0  0  0  0  0  0  0  0  0
    7.8768  -18.8770   25.7877 N   0  0  0  0  0  0  0  0  0  0  0  0
    8.5316  -15.0500   24.7709 C   0  0  0  0  0  0  0  0  0  0  0  0
    9.7493  -15.3748   24.9790 O   0  0  0  0  0  0  0  0  0  0  0  0
    8.0233  -14.0527   25.5937 N   0  0  0  0  0  0  0  0  0  0  0  0
    6.7197  -13.4481   25.5532 C   0  0  0  0  0  0  0  0  0  0  0  0
    6.4871  -13.2008   27.0724 C   0  0  0  0  0  0  0  0  0  0  0  0
    7.7927  -12.4576   27.3356 C   0  0  0  0  0  0  0  0  0  0  0  0
    8.7687  -13.4435   26.7423 C   0  0  1  0  0  0  0  0  0  0  0  0
    9.0771  -14.4838   27.7354 C   0  0  0  0  0  0  0  0  0  0  0  0
   10.0248  -14.2935   28.7239 O   0  0  0  0  0  0  0  0  0  0  0  0
    8.4707  -15.5781   27.6952 O   0  0  0  0  0  0  0  0  0  0  0  0
  1  2  1  0
  3  2  1  0
  4  5  1  0
  4  3  1  0
  5  1  1  0
  5  6  1  1
  6  7  2  0
  8  6  1  0
  8  9  1  0
  9 16  1  0
  9 10  1  1
 10 11  1  0
 11 12  2  0
 11 15  1  0
 12 13  1  0
 13 14  1  0
 15 14  2  0
 16 17  2  0
 18 16  1  0
 18 22  1  0
 19 18  1  0
 20 19  1  0
 20 21  1  0
 21 22  1  0
 22 23  1  1
 23 25  2  0
 23 24  1  0
M  END
$$$$
