PHP.pdb
     RDKit          3D

 25 27  0  0  1  0  0  0  0  0999 V2000
    9.9475  -16.8576   20.8196 N   0  0  0  0  0  0  0  0  0  0  0  0
   10.5738  -17.0122   19.4990 C   0  0  0  0  0  0  0  0  0  0  0  0
    9.3777  -17.0119   18.5414 C   0  0  0  0  0  0  0  0  0  0  0  0
    8.2225  -16.4288   19.3677 C   0  0  0  0  0  0  0  0  0  0  0  0
    8.9553  -15.8281   20.5123 C   0  0  1  0  0  0  0  0  0  0  0  0
    8.1447  -15.4964   21.6904 C   0  0  0  0  0  0  0  0  0  0  0  0
    7.1518  -14.6941   21.5808 O   0  0  0  0  0  0  0  0  0  0  0  0
    8.4824  -16.0806   22.9369 N   0  0  0  0  0  0  0  0  0  0  0  0
    7.6245  -15.8672   24.1164 C   0  0  1  0  0  0  0  0  0  0  0  0
    7.5111  -17.1888   24.8524 C   0  0  0  0  0  0  0  0  0  0  0  0
    6.7755  -18.1749   24.0340 C   0  0  0  0  0  0  0  0  0  0  0  0
    5.5096  -18.1004   23.5215 C   0  0  0  0  0  0  0  0  0  0  0  0
    5.2742  -19.1935   22.7343 N   0  0  0  0  0  0  0  0  0  0  0  0
    6.3801  -19.9415   22.7532 C   0  0  0  0  0  0  0  0  0  0  0  0
    7.2764  -19.3349   23.5277 N   0  0  0  0  0  0  0  0  0  0  0  0
    8.3216  -14.9468   25.0283 C   0  0  0  0  0  0  0  0  0  0  0  0
    9.5599  -15.1421   25.2738 O   0  0  0  0  0  0  0  0  0  0  0  0
    7.7441  -13.8558   25.6656 N   0  0  0  0  0  0  0  0  0  0  0  0
    6.4061  -13.3504   25.5213 C   0  0  0  0  0  0  0  0  0  0  0  0
    6.1429  -12.8584   26.9745 C   0  0  0  0  0  0  0  0  0  0  0  0
    7.3972  -12.0005   27.1039 C   0  0  0  0  0  0  0  0  0  0  0  0
    8.4385  -13.0111   26.6904 C   0  0  1  0  0  0  0  0  0  0  0  0
    8.8004  -13.8420   27.8490 C   0  0  0  0  0  0  0  0  0  0  0  0
    9.7480  -13.4382   28.7713 O   0  0  0  0  0  0  0  0  0  0  0  0
    8.2412  -14.9492   28.0163 O   0  0  0  0  0  0  0  0  0  0  0  0
  1  2  1  0
  3  2  1  0
  4  5  1  0
  4  3  1  0
  5  1  1  0
  5  6  1  1
  6  7  2  0
  8  6  1  0
  8  9  1  0
  9 16  1  0
  9 10  1  1
 10 11  1  0
 11 12  2  0
 11 15  1  0
 12 13  1  0
 13 14  1  0
 15 14  2  0
 16 17  2  0
 18 16  1  0
 18 22  1  0
 19 18  1  0
 20 19  1  0
 20 21  1  0
 21 22  1  0
 22 23  1  1
 23 25  2  0
 23 24  1  0
M  END
$$$$
