PHP.pdb
     RDKit          3D

 25 27  0  0  1  0  0  0  0  0999 V2000
    8.9092  -15.0140   19.8626 N   0  0  0  0  0  0  0  0  0  0  0  0
    9.3882  -14.4870   18.5769 C   0  0  0  0  0  0  0  0  0  0  0  0
    8.3056  -13.4751   18.1875 C   0  0  0  0  0  0  0  0  0  0  0  0
    7.5368  -13.2126   19.4903 C   0  0  0  0  0  0  0  0  0  0  0  0
    8.4720  -13.7726   20.5001 C   0  0  1  0  0  0  0  0  0  0  0  0
    7.9047  -14.0242   21.8304 C   0  0  0  0  0  0  0  0  0  0  0  0
    7.2292  -13.1109   22.4231 O   0  0  0  0  0  0  0  0  0  0  0  0
    8.1183  -15.2883   22.4349 N   0  0  0  0  0  0  0  0  0  0  0  0
    7.5489  -15.5854   23.7616 C   0  0  1  0  0  0  0  0  0  0  0  0
    7.4677  -17.0935   23.9041 C   0  0  0  0  0  0  0  0  0  0  0  0
    6.4751  -17.6491   22.9610 C   0  0  0  0  0  0  0  0  0  0  0  0
    5.1144  -17.7196   23.0803 C   0  0  0  0  0  0  0  0  0  0  0  0
    4.5828  -18.2144   21.9217 N   0  0  0  0  0  0  0  0  0  0  0  0
    5.5987  -18.4490   21.0875 C   0  0  0  0  0  0  0  0  0  0  0  0
    6.7278  -18.1120   21.7061 N   0  0  0  0  0  0  0  0  0  0  0  0
    8.5042  -15.1265   24.7822 C   0  0  0  0  0  0  0  0  0  0  0  0
    9.6556  -15.6766   24.8409 O   0  0  0  0  0  0  0  0  0  0  0  0
    8.2652  -14.1244   25.7141 N   0  0  0  0  0  0  0  0  0  0  0  0
    7.0927  -13.3046   25.8539 C   0  0  0  0  0  0  0  0  0  0  0  0
    7.0582  -13.1406   27.4016 C   0  0  0  0  0  0  0  0  0  0  0  0
    8.4948  -12.6544   27.5629 C   0  0  0  0  0  0  0  0  0  0  0  0
    9.2164  -13.7433   26.8077 C   0  0  1  0  0  0  0  0  0  0  0  0
    9.4305  -14.8954   27.6968 C   0  0  0  0  0  0  0  0  0  0  0  0
    8.5701  -15.9775   27.7121 O   0  0  0  0  0  0  0  0  0  0  0  0
   10.4170  -14.9086   28.4671 O   0  0  0  0  0  0  0  0  0  0  0  0
  1  2  1  0
  3  2  1  0
  4  5  1  0
  4  3  1  0
  5  1  1  0
  5  6  1  1
  6  7  2  0
  8  6  1  0
  8  9  1  0
  9 16  1  0
  9 10  1  6
 10 11  1  0
 11 12  2  0
 11 15  1  0
 12 13  1  0
 13 14  1  0
 15 14  2  0
 16 17  2  0
 18 16  1  0
 18 22  1  0
 19 18  1  0
 20 19  1  0
 20 21  1  0
 21 22  1  0
 22 23  1  1
 23 25  2  0
 23 24  1  0
M  END
$$$$
