PHP.pdb
     RDKit          3D

 25 27  0  0  1  0  0  0  0  0999 V2000
    8.8335  -14.9489   19.7229 N   0  0  0  0  0  0  0  0  0  0  0  0
    9.3290  -14.4471   18.4335 C   0  0  0  0  0  0  0  0  0  0  0  0
    8.2898  -13.3900   18.0458 C   0  0  0  0  0  0  0  0  0  0  0  0
    7.5393  -13.0904   19.3512 C   0  0  0  0  0  0  0  0  0  0  0  0
    8.4538  -13.6877   20.3585 C   0  0  1  0  0  0  0  0  0  0  0  0
    7.8822  -13.9105   21.6922 C   0  0  0  0  0  0  0  0  0  0  0  0
    7.3377  -12.9399   22.3271 O   0  0  0  0  0  0  0  0  0  0  0  0
    7.9450  -15.2109   22.2524 N   0  0  0  0  0  0  0  0  0  0  0  0
    7.3203  -15.4906   23.5579 C   0  0  1  0  0  0  0  0  0  0  0  0
    7.2063  -16.9962   23.7043 C   0  0  0  0  0  0  0  0  0  0  0  0
    6.2917  -17.5471   22.6830 C   0  0  0  0  0  0  0  0  0  0  0  0
    4.9578  -17.3077   22.4979 C   0  0  0  0  0  0  0  0  0  0  0  0
    4.5355  -17.9466   21.3651 N   0  0  0  0  0  0  0  0  0  0  0  0
    5.5928  -18.5767   20.8474 C   0  0  0  0  0  0  0  0  0  0  0  0
    6.6409  -18.3389   21.6323 N   0  0  0  0  0  0  0  0  0  0  0  0
    8.2443  -15.0434   24.6120 C   0  0  0  0  0  0  0  0  0  0  0  0
    9.3994  -15.5831   24.6893 O   0  0  0  0  0  0  0  0  0  0  0  0
    7.9710  -14.0631   25.5576 N   0  0  0  0  0  0  0  0  0  0  0  0
    6.7813  -13.2674   25.6919 C   0  0  0  0  0  0  0  0  0  0  0  0
    6.7176  -13.1325   27.2414 C   0  0  0  0  0  0  0  0  0  0  0  0
    8.1420  -12.6234   27.4363 C   0  0  0  0  0  0  0  0  0  0  0  0
    8.8963  -13.6850   26.6742 C   0  0  1  0  0  0  0  0  0  0  0  0
    9.1165  -14.8491   27.5459 C   0  0  0  0  0  0  0  0  0  0  0  0
   10.1936  -14.9229   28.4095 O   0  0  0  0  0  0  0  0  0  0  0  0
    8.3123  -15.8077   27.5144 O   0  0  0  0  0  0  0  0  0  0  0  0
  1  2  1  0
  3  2  1  0
  4  5  1  0
  4  3  1  0
  5  1  1  0
  5  6  1  1
  6  7  2  0
  8  6  1  0
  8  9  1  0
  9 16  1  0
  9 10  1  1
 10 11  1  0
 11 12  2  0
 11 15  1  0
 12 13  1  0
 13 14  1  0
 15 14  2  0
 16 17  2  0
 18 16  1  0
 18 22  1  0
 19 18  1  0
 20 19  1  0
 20 21  1  0
 21 22  1  0
 22 23  1  1
 23 25  2  0
 23 24  1  0
M  END
$$$$
