PHP.pdb
     RDKit          3D

 25 27  0  0  1  0  0  0  0  0999 V2000
    8.9116  -15.0760   19.9055 N   0  0  0  0  0  0  0  0  0  0  0  0
    9.3630  -14.5650   18.6034 C   0  0  0  0  0  0  0  0  0  0  0  0
    8.3021  -13.5170   18.2511 C   0  0  0  0  0  0  0  0  0  0  0  0
    7.5886  -13.2291   19.5797 C   0  0  0  0  0  0  0  0  0  0  0  0
    8.5390  -13.8207   20.5567 C   0  0  1  0  0  0  0  0  0  0  0  0
    8.0102  -14.0534   21.9062 C   0  0  0  0  0  0  0  0  0  0  0  0
    7.4042  -13.1119   22.5291 O   0  0  0  0  0  0  0  0  0  0  0  0
    8.1827  -15.3311   22.4952 N   0  0  0  0  0  0  0  0  0  0  0  0
    7.5879  -15.6318   23.8099 C   0  0  1  0  0  0  0  0  0  0  0  0
    7.5811  -17.1389   23.9819 C   0  0  0  0  0  0  0  0  0  0  0  0
    6.6362  -17.7632   23.0329 C   0  0  0  0  0  0  0  0  0  0  0  0
    5.3002  -18.0149   23.1828 C   0  0  0  0  0  0  0  0  0  0  0  0
    4.7973  -18.5074   22.0105 N   0  0  0  0  0  0  0  0  0  0  0  0
    5.8063  -18.5617   21.1377 C   0  0  0  0  0  0  0  0  0  0  0  0
    6.9036  -18.1178   21.7462 N   0  0  0  0  0  0  0  0  0  0  0  0
    8.4851  -15.1030   24.8494 C   0  0  0  0  0  0  0  0  0  0  0  0
    9.6652  -15.5820   24.9474 O   0  0  0  0  0  0  0  0  0  0  0  0
    8.1606  -14.1051   25.7596 N   0  0  0  0  0  0  0  0  0  0  0  0
    6.9454  -13.3417   25.8430 C   0  0  0  0  0  0  0  0  0  0  0  0
    6.8402  -13.1652   27.3861 C   0  0  0  0  0  0  0  0  0  0  0  0
    8.2441  -12.6087   27.5996 C   0  0  0  0  0  0  0  0  0  0  0  0
    9.0472  -13.6683   26.8862 C   0  0  1  0  0  0  0  0  0  0  0  0
    9.2799  -14.8004   27.7960 C   0  0  0  0  0  0  0  0  0  0  0  0
    8.4745  -15.9241   27.7865 O   0  0  0  0  0  0  0  0  0  0  0  0
   10.2319  -14.7575   28.6075 O   0  0  0  0  0  0  0  0  0  0  0  0
  1  2  1  0
  3  2  1  0
  4  5  1  0
  4  3  1  0
  5  1  1  0
  5  6  1  1
  6  7  2  0
  8  6  1  0
  8  9  1  0
  9 16  1  0
  9 10  1  1
 10 11  1  0
 11 12  2  0
 11 15  1  0
 12 13  1  0
 13 14  1  0
 15 14  2  0
 16 17  2  0
 18 16  1  0
 18 22  1  0
 19 18  1  0
 20 19  1  0
 20 21  1  0
 21 22  1  0
 22 23  1  1
 23 25  2  0
 23 24  1  0
M  END
$$$$
