PHP.pdb
     RDKit          3D

 25 27  0  0  1  0  0  0  0  0999 V2000
    8.7795  -15.0693   19.7282 N   0  0  0  0  0  0  0  0  0  0  0  0
    9.3747  -14.6516   18.4509 C   0  0  0  0  0  0  0  0  0  0  0  0
    8.4728  -13.4959   18.0049 C   0  0  0  0  0  0  0  0  0  0  0  0
    7.7117  -13.0890   19.2748 C   0  0  0  0  0  0  0  0  0  0  0  0
    8.5172  -13.7611   20.3270 C   0  0  1  0  0  0  0  0  0  0  0  0
    7.8755  -13.8922   21.6408 C   0  0  0  0  0  0  0  0  0  0  0  0
    7.4008  -12.8576   22.2291 O   0  0  0  0  0  0  0  0  0  0  0  0
    7.7930  -15.1766   22.2344 N   0  0  0  0  0  0  0  0  0  0  0  0
    7.1079  -15.3575   23.5268 C   0  0  1  0  0  0  0  0  0  0  0  0
    6.9291  -16.8469   23.7524 C   0  0  0  0  0  0  0  0  0  0  0  0
    5.8959  -17.3869   22.8447 C   0  0  0  0  0  0  0  0  0  0  0  0
    5.1926  -16.7501   21.8595 C   0  0  0  0  0  0  0  0  0  0  0  0
    4.4164  -17.6598   21.1962 N   0  0  0  0  0  0  0  0  0  0  0  0
    4.6329  -18.8512   21.7590 C   0  0  0  0  0  0  0  0  0  0  0  0
    5.5154  -18.6898   22.7421 N   0  0  0  0  0  0  0  0  0  0  0  0
    8.0073  -14.8851   24.5911 C   0  0  0  0  0  0  0  0  0  0  0  0
    9.1742  -15.3963   24.6845 O   0  0  0  0  0  0  0  0  0  0  0  0
    7.6984  -13.9092   25.5303 N   0  0  0  0  0  0  0  0  0  0  0  0
    6.4737  -13.1697   25.6709 C   0  0  0  0  0  0  0  0  0  0  0  0
    6.4213  -13.0221   27.2197 C   0  0  0  0  0  0  0  0  0  0  0  0
    7.8219  -12.4438   27.3928 C   0  0  0  0  0  0  0  0  0  0  0  0
    8.6173  -13.4760   26.6321 C   0  0  1  0  0  0  0  0  0  0  0  0
    8.9027  -14.6193   27.5124 C   0  0  0  0  0  0  0  0  0  0  0  0
    8.0681  -15.7197   27.5761 O   0  0  0  0  0  0  0  0  0  0  0  0
    9.9281  -14.6079   28.2301 O   0  0  0  0  0  0  0  0  0  0  0  0
  1  2  1  0
  3  2  1  0
  4  5  1  0
  4  3  1  0
  5  1  1  0
  5  6  1  1
  6  7  2  0
  8  6  1  0
  8  9  1  0
  9 16  1  0
  9 10  1  1
 10 11  1  0
 11 12  2  0
 11 15  1  0
 12 13  1  0
 13 14  1  0
 15 14  2  0
 16 17  2  0
 18 16  1  0
 18 22  1  0
 19 18  1  0
 20 19  1  0
 20 21  1  0
 21 22  1  0
 22 23  1  1
 23 25  2  0
 23 24  1  0
M  END
$$$$
