PHP.pdb
     RDKit          3D

 25 27  0  0  1  0  0  0  0  0999 V2000
    7.4116  -14.8566   18.9314 N   0  0  0  0  0  0  0  0  0  0  0  0
    8.1336  -14.1293   17.8779 C   0  0  0  0  0  0  0  0  0  0  0  0
    8.2508  -12.7117   18.4476 C   0  0  0  0  0  0  0  0  0  0  0  0
    7.9642  -12.8741   19.9472 C   0  0  0  0  0  0  0  0  0  0  0  0
    8.1023  -14.3441   20.1142 C   0  0  1  0  0  0  0  0  0  0  0  0
    7.5398  -14.9054   21.3485 C   0  0  0  0  0  0  0  0  0  0  0  0
    6.2843  -15.1480   21.4291 O   0  0  0  0  0  0  0  0  0  0  0  0
    8.4101  -15.1714   22.4352 N   0  0  0  0  0  0  0  0  0  0  0  0
    7.8685  -15.6181   23.7312 C   0  0  1  0  0  0  0  0  0  0  0  0
    8.3259  -17.0467   23.9573 C   0  0  0  0  0  0  0  0  0  0  0  0
    7.8020  -17.5604   25.2399 C   0  0  0  0  0  0  0  0  0  0  0  0
    6.5436  -18.0005   25.5454 C   0  0  0  0  0  0  0  0  0  0  0  0
    6.5315  -18.4876   26.8231 N   0  0  0  0  0  0  0  0  0  0  0  0
    7.7677  -18.3549   27.3100 C   0  0  0  0  0  0  0  0  0  0  0  0
    8.5265  -17.8023   26.3666 N   0  0  0  0  0  0  0  0  0  0  0  0
    8.4957  -14.8127   24.7909 C   0  0  0  0  0  0  0  0  0  0  0  0
    9.7574  -14.9025   24.9687 O   0  0  0  0  0  0  0  0  0  0  0  0
    7.8265  -13.9402   25.6399 N   0  0  0  0  0  0  0  0  0  0  0  0
    6.4417  -13.5561   25.6049 C   0  0  0  0  0  0  0  0  0  0  0  0
    6.1637  -13.4014   27.1287 C   0  0  0  0  0  0  0  0  0  0  0  0
    7.3284  -12.4639   27.4298 C   0  0  0  0  0  0  0  0  0  0  0  0
    8.4559  -13.2563   26.8155 C   0  0  1  0  0  0  0  0  0  0  0  0
    8.9254  -14.2649   27.7778 C   0  0  0  0  0  0  0  0  0  0  0  0
    9.8087  -13.9509   28.7940 O   0  0  0  0  0  0  0  0  0  0  0  0
    8.5208  -15.4457   27.6846 O   0  0  0  0  0  0  0  0  0  0  0  0
  1  2  1  0
  3  2  1  0
  4  5  1  0
  4  3  1  0
  5  1  1  0
  5  6  1  1
  6  7  2  0
  8  6  1  0
  8  9  1  0
  9 16  1  0
  9 10  1  1
 10 11  1  0
 11 12  2  0
 11 15  1  0
 12 13  1  0
 13 14  1  0
 15 14  2  0
 16 17  2  0
 18 16  1  0
 18 22  1  0
 19 18  1  0
 20 19  1  0
 20 21  1  0
 21 22  1  0
 22 23  1  1
 23 25  2  0
 23 24  1  0
M  END
$$$$
