PHP.pdb
     RDKit          3D

 25 27  0  0  1  0  0  0  0  0999 V2000
    7.4646  -14.8023   19.7570 N   0  0  0  0  0  0  0  0  0  0  0  0
    8.2315  -14.2797   18.6173 C   0  0  0  0  0  0  0  0  0  0  0  0
    8.6023  -12.8618   19.0647 C   0  0  0  0  0  0  0  0  0  0  0  0
    8.3785  -12.8661   20.5837 C   0  0  0  0  0  0  0  0  0  0  0  0
    8.2928  -14.3230   20.8629 C   0  0  1  0  0  0  0  0  0  0  0  0
    7.7193  -14.6949   22.1621 C   0  0  0  0  0  0  0  0  0  0  0  0
    6.4995  -14.4092   22.4304 O   0  0  0  0  0  0  0  0  0  0  0  0
    8.5382  -15.3717   23.1003 N   0  0  0  0  0  0  0  0  0  0  0  0
    8.0284  -15.6795   24.4487 C   0  0  1  0  0  0  0  0  0  0  0  0
    7.7971  -17.1767   24.5264 C   0  0  0  0  0  0  0  0  0  0  0  0
    6.6418  -17.5653   23.6912 C   0  0  0  0  0  0  0  0  0  0  0  0
    5.9203  -16.8097   22.8085 C   0  0  0  0  0  0  0  0  0  0  0  0
    5.0056  -17.6038   22.1741 N   0  0  0  0  0  0  0  0  0  0  0  0
    5.1543  -18.8412   22.6533 C   0  0  0  0  0  0  0  0  0  0  0  0
    6.1302  -18.8196   23.5580 N   0  0  0  0  0  0  0  0  0  0  0  0
    9.0916  -15.3764   25.4196 C   0  0  0  0  0  0  0  0  0  0  0  0
   10.2453  -15.8992   25.2541 O   0  0  0  0  0  0  0  0  0  0  0  0
    8.9550  -14.5532   26.5303 N   0  0  0  0  0  0  0  0  0  0  0  0
    7.8143  -13.7692   26.9183 C   0  0  0  0  0  0  0  0  0  0  0  0
    7.9225  -13.8795   28.4673 C   0  0  0  0  0  0  0  0  0  0  0  0
    9.3760  -13.4310   28.5784 C   0  0  0  0  0  0  0  0  0  0  0  0
   10.0075  -14.3712   27.5815 C   0  0  1  0  0  0  0  0  0  0  0  0
   10.2810  -15.6618   28.2321 C   0  0  0  0  0  0  0  0  0  0  0  0
   11.4140  -15.8701   28.9965 O   0  0  0  0  0  0  0  0  0  0  0  0
    9.4719  -16.6073   28.0975 O   0  0  0  0  0  0  0  0  0  0  0  0
  1  2  1  0
  3  2  1  0
  4  5  1  0
  4  3  1  0
  5  1  1  0
  5  6  1  1
  6  7  2  0
  8  6  1  0
  8  9  1  0
  9 16  1  0
  9 10  1  6
 10 11  1  0
 11 12  2  0
 11 15  1  0
 12 13  1  0
 13 14  1  0
 15 14  2  0
 16 17  2  0
 18 16  1  0
 18 22  1  0
 19 18  1  0
 20 19  1  0
 20 21  1  0
 21 22  1  0
 22 23  1  1
 23 25  2  0
 23 24  1  0
M  END
$$$$
