PHP.pdb
     RDKit          3D

 25 27  0  0  1  0  0  0  0  0999 V2000
    9.0897  -14.8785   19.9344 N   0  0  0  0  0  0  0  0  0  0  0  0
    9.5624  -14.3602   18.6429 C   0  0  0  0  0  0  0  0  0  0  0  0
    8.3477  -13.5960   18.1058 C   0  0  0  0  0  0  0  0  0  0  0  0
    7.4469  -13.3931   19.3325 C   0  0  0  0  0  0  0  0  0  0  0  0
    8.3879  -13.6995   20.4408 C   0  0  1  0  0  0  0  0  0  0  0  0
    7.7754  -13.9613   21.7490 C   0  0  0  0  0  0  0  0  0  0  0  0
    6.8788  -13.1692   22.2076 O   0  0  0  0  0  0  0  0  0  0  0  0
    8.1940  -15.0996   22.4824 N   0  0  0  0  0  0  0  0  0  0  0  0
    7.5749  -15.4177   23.7817 C   0  0  1  0  0  0  0  0  0  0  0  0
    7.6805  -16.9165   23.9911 C   0  0  0  0  0  0  0  0  0  0  0  0
    6.7861  -17.6330   23.0584 C   0  0  0  0  0  0  0  0  0  0  0  0
    5.4297  -17.7987   23.1170 C   0  0  0  0  0  0  0  0  0  0  0  0
    5.0019  -18.4386   21.9868 N   0  0  0  0  0  0  0  0  0  0  0  0
    6.0777  -18.6690   21.2300 C   0  0  0  0  0  0  0  0  0  0  0  0
    7.1424  -18.1887   21.8679 N   0  0  0  0  0  0  0  0  0  0  0  0
    8.3870  -14.7962   24.8395 C   0  0  0  0  0  0  0  0  0  0  0  0
    9.5964  -15.1776   24.9929 O   0  0  0  0  0  0  0  0  0  0  0  0
    7.9503  -13.8070   25.7116 N   0  0  0  0  0  0  0  0  0  0  0  0
    6.6793  -13.1355   25.7263 C   0  0  0  0  0  0  0  0  0  0  0  0
    6.4947  -12.9359   27.2591 C   0  0  0  0  0  0  0  0  0  0  0  0
    7.8429  -12.2712   27.5175 C   0  0  0  0  0  0  0  0  0  0  0  0
    8.7524  -13.2819   26.8634 C   0  0  1  0  0  0  0  0  0  0  0  0
    9.0290  -14.3744   27.8087 C   0  0  0  0  0  0  0  0  0  0  0  0
   10.0413  -14.2913   28.7468 O   0  0  0  0  0  0  0  0  0  0  0  0
    8.3347  -15.4152   27.7731 O   0  0  0  0  0  0  0  0  0  0  0  0
  1  2  1  0
  3  2  1  0
  4  5  1  0
  4  3  1  0
  5  1  1  0
  5  6  1  1
  6  7  2  0
  8  6  1  0
  8  9  1  0
  9 16  1  0
  9 10  1  1
 10 11  1  0
 11 12  2  0
 11 15  1  0
 12 13  1  0
 13 14  1  0
 15 14  2  0
 16 17  2  0
 18 16  1  0
 18 22  1  0
 19 18  1  0
 20 19  1  0
 20 21  1  0
 21 22  1  0
 22 23  1  1
 23 25  2  0
 23 24  1  0
M  END
$$$$
