PHP.pdb
     RDKit          3D

 25 27  0  0  1  0  0  0  0  0999 V2000
    9.1012  -14.8594   20.2340 N   0  0  0  0  0  0  0  0  0  0  0  0
    9.4961  -14.2358   18.9631 C   0  0  0  0  0  0  0  0  0  0  0  0
    8.2947  -13.3488   18.6195 C   0  0  0  0  0  0  0  0  0  0  0  0
    7.5178  -13.2246   19.9379 C   0  0  0  0  0  0  0  0  0  0  0  0
    8.5270  -13.7017   20.9186 C   0  0  1  0  0  0  0  0  0  0  0  0
    8.0121  -14.0643   22.2446 C   0  0  0  0  0  0  0  0  0  0  0  0
    7.2503  -13.2538   22.8807 O   0  0  0  0  0  0  0  0  0  0  0  0
    8.3723  -15.3192   22.7963 N   0  0  0  0  0  0  0  0  0  0  0  0
    7.8783  -15.7176   24.1267 C   0  0  1  0  0  0  0  0  0  0  0  0
    7.6414  -17.2158   24.1038 C   0  0  0  0  0  0  0  0  0  0  0  0
    6.4835  -17.5430   23.2462 C   0  0  0  0  0  0  0  0  0  0  0  0
    6.4638  -17.9821   21.9510 C   0  0  0  0  0  0  0  0  0  0  0  0
    5.1759  -18.2623   21.5869 N   0  0  0  0  0  0  0  0  0  0  0  0
    4.3999  -18.0029   22.6421 C   0  0  0  0  0  0  0  0  0  0  0  0
    5.1786  -17.5741   23.6325 N   0  0  0  0  0  0  0  0  0  0  0  0
    8.9550  -15.4861   25.1024 C   0  0  0  0  0  0  0  0  0  0  0  0
   10.0432  -16.1450   24.9879 O   0  0  0  0  0  0  0  0  0  0  0  0
    8.8977  -14.5945   26.1662 N   0  0  0  0  0  0  0  0  0  0  0  0
    7.8297  -13.6979   26.5154 C   0  0  0  0  0  0  0  0  0  0  0  0
    7.9430  -13.7313   28.0676 C   0  0  0  0  0  0  0  0  0  0  0  0
    9.4297  -13.4002   28.1466 C   0  0  0  0  0  0  0  0  0  0  0  0
    9.9715  -14.4433   27.2006 C   0  0  1  0  0  0  0  0  0  0  0  0
   10.1430  -15.7143   27.9207 C   0  0  0  0  0  0  0  0  0  0  0  0
   11.2517  -15.9655   28.7076 O   0  0  0  0  0  0  0  0  0  0  0  0
    9.2665  -16.6029   27.8267 O   0  0  0  0  0  0  0  0  0  0  0  0
  1  2  1  0
  3  2  1  0
  4  5  1  0
  4  3  1  0
  5  1  1  0
  5  6  1  1
  6  7  2  0
  8  6  1  0
  8  9  1  0
  9 16  1  0
  9 10  1  6
 10 11  1  0
 11 12  2  0
 11 15  1  0
 12 13  1  0
 13 14  1  0
 15 14  2  0
 16 17  2  0
 18 16  1  0
 18 22  1  0
 19 18  1  0
 20 19  1  0
 20 21  1  0
 21 22  1  0
 22 23  1  1
 23 25  2  0
 23 24  1  0
M  END
$$$$
