PHP.pdb
     RDKit          3D

 25 27  0  0  1  0  0  0  0  0999 V2000
    8.0719  -16.2631   21.1576 N   0  0  0  0  0  0  0  0  0  0  0  0
    8.3016  -16.3388   19.7079 C   0  0  0  0  0  0  0  0  0  0  0  0
    7.5978  -15.0861   19.1755 C   0  0  0  0  0  0  0  0  0  0  0  0
    7.4046  -14.1975   20.4125 C   0  0  0  0  0  0  0  0  0  0  0  0
    8.3280  -14.8410   21.3825 C   0  0  1  0  0  0  0  0  0  0  0  0
    8.1339  -14.4778   22.7915 C   0  0  0  0  0  0  0  0  0  0  0  0
    8.1706  -13.2476   23.1479 O   0  0  0  0  0  0  0  0  0  0  0  0
    7.9052  -15.5092   23.7364 N   0  0  0  0  0  0  0  0  0  0  0  0
    7.7174  -15.1854   25.1620 C   0  0  1  0  0  0  0  0  0  0  0  0
    6.5752  -16.0363   25.6842 C   0  0  0  0  0  0  0  0  0  0  0  0
    6.6979  -17.4243   25.1926 C   0  0  0  0  0  0  0  0  0  0  0  0
    6.9283  -17.8739   23.9216 C   0  0  0  0  0  0  0  0  0  0  0  0
    7.0740  -19.2334   23.9412 N   0  0  0  0  0  0  0  0  0  0  0  0
    6.9377  -19.6288   25.2093 C   0  0  0  0  0  0  0  0  0  0  0  0
    6.7137  -18.5507   25.9567 N   0  0  0  0  0  0  0  0  0  0  0  0
    8.9197  -15.6181   25.8914 C   0  0  0  0  0  0  0  0  0  0  0  0
    9.5274  -16.6740   25.5073 O   0  0  0  0  0  0  0  0  0  0  0  0
    9.4711  -14.9692   26.9890 N   0  0  0  0  0  0  0  0  0  0  0  0
    8.9585  -13.8253   27.6927 C   0  0  0  0  0  0  0  0  0  0  0  0
    9.4113  -14.1716   29.1413 C   0  0  0  0  0  0  0  0  0  0  0  0
   10.8810  -14.4176   28.8164 C   0  0  0  0  0  0  0  0  0  0  0  0
   10.7280  -15.4006   27.6819 C   0  0  1  0  0  0  0  0  0  0  0  0
   10.5482  -16.7541   28.2289 C   0  0  0  0  0  0  0  0  0  0  0  0
   11.6129  -17.5007   28.6985 O   0  0  0  0  0  0  0  0  0  0  0  0
    9.4026  -17.2562   28.2761 O   0  0  0  0  0  0  0  0  0  0  0  0
  1  2  1  0
  3  2  1  0
  4  5  1  0
  4  3  1  0
  5  1  1  0
  5  6  1  1
  6  7  2  0
  8  6  1  0
  8  9  1  0
  9 16  1  0
  9 10  1  1
 10 11  1  0
 11 12  2  0
 11 15  1  0
 12 13  1  0
 13 14  1  0
 15 14  2  0
 16 17  2  0
 18 16  1  0
 18 22  1  0
 19 18  1  0
 20 19  1  0
 20 21  1  0
 21 22  1  0
 22 23  1  1
 23 25  2  0
 23 24  1  0
M  END
$$$$
