PHP.pdb
     RDKit          3D

 25 27  0  0  1  0  0  0  0  0999 V2000
    9.1051  -14.9636   20.0176 N   0  0  0  0  0  0  0  0  0  0  0  0
    9.5713  -14.4278   18.7308 C   0  0  0  0  0  0  0  0  0  0  0  0
    8.3378  -13.6998   18.1865 C   0  0  0  0  0  0  0  0  0  0  0  0
    7.4221  -13.5278   19.4068 C   0  0  0  0  0  0  0  0  0  0  0  0
    8.3638  -13.8081   20.5214 C   0  0  1  0  0  0  0  0  0  0  0  0
    7.7499  -14.0918   21.8243 C   0  0  0  0  0  0  0  0  0  0  0  0
    6.8525  -13.3078   22.2951 O   0  0  0  0  0  0  0  0  0  0  0  0
    8.1680  -15.2422   22.5391 N   0  0  0  0  0  0  0  0  0  0  0  0
    7.5793  -15.5575   23.8531 C   0  0  1  0  0  0  0  0  0  0  0  0
    7.7221  -17.0508   24.0788 C   0  0  0  0  0  0  0  0  0  0  0  0
    6.8426  -17.7993   23.1572 C   0  0  0  0  0  0  0  0  0  0  0  0
    5.5206  -18.1220   23.2951 C   0  0  0  0  0  0  0  0  0  0  0  0
    5.0802  -18.7280   22.1511 N   0  0  0  0  0  0  0  0  0  0  0  0
    6.1139  -18.7822   21.3076 C   0  0  0  0  0  0  0  0  0  0  0  0
    7.1655  -18.2284   21.9064 N   0  0  0  0  0  0  0  0  0  0  0  0
    8.3961  -14.9049   24.8885 C   0  0  0  0  0  0  0  0  0  0  0  0
    9.6122  -15.2677   25.0342 O   0  0  0  0  0  0  0  0  0  0  0  0
    7.9571  -13.9045   25.7465 N   0  0  0  0  0  0  0  0  0  0  0  0
    6.6584  -13.2907   25.8023 C   0  0  0  0  0  0  0  0  0  0  0  0
    6.5404  -13.0425   27.3345 C   0  0  0  0  0  0  0  0  0  0  0  0
    7.8671  -12.3088   27.5006 C   0  0  0  0  0  0  0  0  0  0  0  0
    8.7896  -13.3013   26.8369 C   0  0  1  0  0  0  0  0  0  0  0  0
    9.1631  -14.3443   27.8046 C   0  0  0  0  0  0  0  0  0  0  0  0
   10.2048  -14.1744   28.6975 O   0  0  0  0  0  0  0  0  0  0  0  0
    8.5268  -15.4219   27.8304 O   0  0  0  0  0  0  0  0  0  0  0  0
  1  2  1  0
  3  2  1  0
  4  5  1  0
  4  3  1  0
  5  1  1  0
  5  6  1  1
  6  7  2  0
  8  6  1  0
  8  9  1  0
  9 16  1  0
  9 10  1  1
 10 11  1  0
 11 12  2  0
 11 15  1  0
 12 13  1  0
 13 14  1  0
 15 14  2  0
 16 17  2  0
 18 16  1  0
 18 22  1  0
 19 18  1  0
 20 19  1  0
 20 21  1  0
 21 22  1  0
 22 23  1  1
 23 25  2  0
 23 24  1  0
M  END
$$$$
