PHP.pdb
     RDKit          3D

 25 27  0  0  1  0  0  0  0  0999 V2000
    9.0708  -14.9882   19.7693 N   0  0  0  0  0  0  0  0  0  0  0  0
    9.5927  -14.5244   18.4761 C   0  0  0  0  0  0  0  0  0  0  0  0
    8.4535  -13.6582   17.9284 C   0  0  0  0  0  0  0  0  0  0  0  0
    7.5703  -13.3659   19.1498 C   0  0  0  0  0  0  0  0  0  0  0  0
    8.4761  -13.7472   20.2642 C   0  0  1  0  0  0  0  0  0  0  0  0
    7.8380  -13.9429   21.5717 C   0  0  0  0  0  0  0  0  0  0  0  0
    6.9993  -13.0800   22.0119 O   0  0  0  0  0  0  0  0  0  0  0  0
    8.1670  -15.0975   22.3251 N   0  0  0  0  0  0  0  0  0  0  0  0
    7.4810  -15.3757   23.5997 C   0  0  1  0  0  0  0  0  0  0  0  0
    7.4616  -16.8797   23.7972 C   0  0  0  0  0  0  0  0  0  0  0  0
    6.5510  -17.5171   22.8237 C   0  0  0  0  0  0  0  0  0  0  0  0
    5.1888  -17.6337   22.8622 C   0  0  0  0  0  0  0  0  0  0  0  0
    4.7494  -18.2031   21.6993 N   0  0  0  0  0  0  0  0  0  0  0  0
    5.8238  -18.4384   20.9421 C   0  0  0  0  0  0  0  0  0  0  0  0
    6.8989  -18.0294   21.6115 N   0  0  0  0  0  0  0  0  0  0  0  0
    8.3030  -14.8281   24.6903 C   0  0  0  0  0  0  0  0  0  0  0  0
    9.4804  -15.2907   24.8672 O   0  0  0  0  0  0  0  0  0  0  0  0
    7.9081  -13.8284   25.5704 N   0  0  0  0  0  0  0  0  0  0  0  0
    6.6805  -13.0804   25.5700 C   0  0  0  0  0  0  0  0  0  0  0  0
    6.4742  -12.8951   27.1018 C   0  0  0  0  0  0  0  0  0  0  0  0
    7.8544  -12.3188   27.4006 C   0  0  0  0  0  0  0  0  0  0  0  0
    8.7149  -13.3725   26.7482 C   0  0  1  0  0  0  0  0  0  0  0  0
    8.9031  -14.4954   27.6795 C   0  0  0  0  0  0  0  0  0  0  0  0
    9.9180  -14.5048   28.6183 O   0  0  0  0  0  0  0  0  0  0  0  0
    8.1283  -15.4772   27.6310 O   0  0  0  0  0  0  0  0  0  0  0  0
  1  2  1  0
  3  2  1  0
  4  5  1  0
  4  3  1  0
  5  1  1  0
  5  6  1  1
  6  7  2  0
  8  6  1  0
  8  9  1  0
  9 16  1  0
  9 10  1  1
 10 11  1  0
 11 12  2  0
 11 15  1  0
 12 13  1  0
 13 14  1  0
 15 14  2  0
 16 17  2  0
 18 16  1  0
 18 22  1  0
 19 18  1  0
 20 19  1  0
 20 21  1  0
 21 22  1  0
 22 23  1  1
 23 25  2  0
 23 24  1  0
M  END
$$$$
