KRG.pdb
     RDKit          3D

 25 24  0  0  1  0  0  0  0  0999 V2000
   24.8562  -21.2060  -17.5680 N   0  0  0  0  0  0  0  0  0  0  0  0
   25.3494  -20.2858  -16.6012 C   0  0  1  0  0  0  0  0  0  0  0  0
   24.4965  -19.0730  -16.3966 C   0  0  0  0  0  0  0  0  0  0  0  0
   23.0352  -19.2688  -16.4338 C   0  0  0  0  0  0  0  0  0  0  0  0
   22.3590  -18.9047  -15.1517 C   0  0  0  0  0  0  0  0  0  0  0  0
   20.8709  -19.0690  -15.2993 C   0  0  0  0  0  0  0  0  0  0  0  0
   20.1817  -18.6780  -14.0617 N   0  0  0  0  0  0  0  0  0  0  0  0
   25.6219  -20.8724  -15.2836 C   0  0  0  0  0  0  0  0  0  0  0  0
   24.9284  -21.8426  -14.8874 O   0  0  0  0  0  0  0  0  0  0  0  0
   32.8927  -21.6273  -10.7233 N   0  0  0  0  0  0  0  0  0  0  0  0
   32.1668  -22.3053  -11.7240 C   0  0  0  0  0  0  0  0  0  0  0  0
   32.7403  -23.1176  -12.5423 N   0  0  0  0  0  0  0  0  0  0  0  0
   30.7462  -22.1313  -11.8900 N   0  0  0  0  0  0  0  0  0  0  0  0
   30.0153  -21.1887  -11.0755 C   0  0  0  0  0  0  0  0  0  0  0  0
   28.5452  -21.3097  -11.4098 C   0  0  0  0  0  0  0  0  0  0  0  0
   28.3153  -20.7459  -12.7825 C   0  0  0  0  0  0  0  0  0  0  0  0
   26.8642  -20.9360  -13.1556 C   0  0  2  0  0  0  0  0  0  0  0  0
   26.6438  -20.3690  -14.4592 N   0  0  0  0  0  0  0  0  0  0  0  0
   26.0034  -20.3422  -12.1221 C   0  0  0  0  0  0  0  0  0  0  0  0
   25.8079  -19.0901  -12.0101 O   0  0  0  0  0  0  0  0  0  0  0  0
   32.3013  -23.6322  -13.3059 N   0  0  0  0  0  0  0  0  0  0  0  0
   25.3487  -21.1908  -11.1930 C   0  0  0  0  0  0  0  0  0  0  0  0
   24.4297  -20.6187  -10.2297 C   0  0  0  0  0  0  0  0  0  0  0  0
   25.0136  -20.6725   -8.8880 O   0  0  0  0  0  0  0  0  0  0  0  0
   24.2575  -20.3026   -7.7917 O   0  0  0  0  0  0  0  0  0  0  0  0
  2  1  1  6
  3  2  1  0
  4  3  1  0
  5  4  1  0
  5  6  1  0
  7  6  1  0
  8  2  1  0
  8  9  2  0
 10 11  1  0
 11 12  2  0
 13 11  1  0
 13 14  1  0
 15 14  1  0
 17 16  1  1
 16 15  1  0
 17 18  1  0
 18  8  1  0
 19 17  1  0
 20 19  2  0
 21 19  1  0
 22 21  1  0
 23 22  1  0
 24 23  1  0
 25 23  2  0
M  END
$$$$
