KRG.pdb
     RDKit          3D

 25 24  0  0  1  0  0  0  0  0999 V2000
   23.2218  -17.1306  -15.3534 N   0  0  0  0  0  0  0  0  0  0  0  0
   23.6172  -15.8116  -15.7119 C   0  0  1  0  0  0  0  0  0  0  0  0
   24.6936  -15.7391  -16.7492 C   0  0  0  0  0  0  0  0  0  0  0  0
   25.4195  -16.9876  -17.0484 C   0  0  0  0  0  0  0  0  0  0  0  0
   26.5254  -16.8040  -18.0369 C   0  0  0  0  0  0  0  0  0  0  0  0
   27.0871  -18.1450  -18.4235 C   0  0  0  0  0  0  0  0  0  0  0  0
   28.1761  -17.9886  -19.3977 N   0  0  0  0  0  0  0  0  0  0  0  0
   22.5172  -14.9405  -16.1424 C   0  0  0  0  0  0  0  0  0  0  0  0
   22.7605  -13.7436  -16.4380 O   0  0  0  0  0  0  0  0  0  0  0  0
   16.0590  -17.9306  -16.6889 N   0  0  0  0  0  0  0  0  0  0  0  0
   15.4800  -16.6854  -16.3688 C   0  0  0  0  0  0  0  0  0  0  0  0
   14.5450  -16.5807  -15.4895 N   0  0  0  0  0  0  0  0  0  0  0  0
   15.8983  -15.4611  -17.0027 N   0  0  0  0  0  0  0  0  0  0  0  0
   16.7577  -15.4840  -18.1633 C   0  0  0  0  0  0  0  0  0  0  0  0
   17.9710  -14.6283  -17.8747 C   0  0  0  0  0  0  0  0  0  0  0  0
   18.9681  -15.4490  -17.1083 C   0  0  0  0  0  0  0  0  0  0  0  0
   20.1604  -14.5854  -16.7711 C   0  0  2  0  0  0  0  0  0  0  0  0
   21.1986  -15.4213  -16.2302 N   0  0  0  0  0  0  0  0  0  0  0  0
   19.7533  -13.5135  -15.8507 C   0  0  0  0  0  0  0  0  0  0  0  0
   19.3432  -13.7281  -14.6657 O   0  0  0  0  0  0  0  0  0  0  0  0
   14.0731  -15.7261  -15.1935 N   0  0  0  0  0  0  0  0  0  0  0  0
   19.8132  -12.1650  -16.2865 C   0  0  0  0  0  0  0  0  0  0  0  0
   19.4442  -11.1032  -15.3720 C   0  0  0  0  0  0  0  0  0  0  0  0
   19.7242   -9.8003  -15.9789 O   0  0  0  0  0  0  0  0  0  0  0  0
   19.4409   -8.6404  -15.2828 O   0  0  0  0  0  0  0  0  0  0  0  0
  2  1  1  6
  3  2  1  0
  4  3  1  0
  5  4  1  0
  5  6  1  0
  7  6  1  0
  8  2  1  0
  8  9  2  0
 10 11  1  0
 11 12  2  0
 13 11  1  0
 13 14  1  0
 15 14  1  0
 17 16  1  1
 16 15  1  0
 17 18  1  0
 18  8  1  0
 19 17  1  0
 20 19  2  0
 21 19  1  0
 22 21  1  0
 23 22  1  0
 24 23  1  0
 25 23  2  0
M  END
$$$$
