KRG.pdb
     RDKit          3D

 25 24  0  0  1  0  0  0  0  0999 V2000
   27.5606  -18.0092  -16.4730 N   0  0  0  0  0  0  0  0  0  0  0  0
   26.6918  -18.7352  -17.3349 C   0  0  1  0  0  0  0  0  0  0  0  0
   27.3551  -19.3334  -18.5359 C   0  0  0  0  0  0  0  0  0  0  0  0
   28.8057  -19.5831  -18.4439 C   0  0  0  0  0  0  0  0  0  0  0  0
   29.4077  -20.0421  -19.7327 C   0  0  0  0  0  0  0  0  0  0  0  0
   30.8758  -20.3076  -19.5399 C   0  0  0  0  0  0  0  0  0  0  0  0
   31.4963  -20.7271  -20.8042 N   0  0  0  0  0  0  0  0  0  0  0  0
   25.9196  -19.7934  -16.6729 C   0  0  0  0  0  0  0  0  0  0  0  0
   25.1374  -20.5020  -17.3549 O   0  0  0  0  0  0  0  0  0  0  0  0
   26.1638  -20.5586   -8.2533 N   0  0  0  0  0  0  0  0  0  0  0  0
   25.0465  -20.7769   -9.0851 C   0  0  0  0  0  0  0  0  0  0  0  0
   23.8475  -20.7964   -8.6155 N   0  0  0  0  0  0  0  0  0  0  0  0
   25.1783  -20.9896  -10.5040 N   0  0  0  0  0  0  0  0  0  0  0  0
   26.4760  -20.9751  -11.1378 C   0  0  0  0  0  0  0  0  0  0  0  0
   26.3151  -20.4339  -12.5408 C   0  0  0  0  0  0  0  0  0  0  0  0
   25.9580  -21.5689  -13.4570 C   0  0  0  0  0  0  0  0  0  0  0  0
   25.2175  -21.0206  -14.6538 C   0  0  2  0  0  0  0  0  0  0  0  0
   26.0404  -20.0279  -15.2916 N   0  0  0  0  0  0  0  0  0  0  0  0
   23.9115  -20.4936  -14.2315 C   0  0  0  0  0  0  0  0  0  0  0  0
   23.7671  -19.3787  -13.6361 O   0  0  0  0  0  0  0  0  0  0  0  0
   22.9878  -20.9787   -9.1334 N   0  0  0  0  0  0  0  0  0  0  0  0
   22.7408  -21.2513  -14.4914 C   0  0  0  0  0  0  0  0  0  0  0  0
   21.4494  -20.7256  -14.0971 C   0  0  0  0  0  0  0  0  0  0  0  0
   20.9028  -21.5174  -12.9932 O   0  0  0  0  0  0  0  0  0  0  0  0
   19.6261  -21.2633  -12.5286 O   0  0  0  0  0  0  0  0  0  0  0  0
  2  1  1  1
  3  2  1  0
  4  3  1  0
  5  4  1  0
  5  6  1  0
  7  6  1  0
  8  2  1  0
  8  9  2  0
 10 11  1  0
 11 12  2  0
 13 11  1  0
 13 14  1  0
 15 14  1  0
 17 16  1  1
 16 15  1  0
 17 18  1  0
 18  8  1  0
 19 17  1  0
 20 19  2  0
 21 19  1  0
 22 21  1  0
 23 22  1  0
 24 23  1  0
 25 23  2  0
M  END
$$$$
