KRG.pdb
     RDKit          3D

 25 24  0  0  1  0  0  0  0  0999 V2000
   19.0767  -23.5418  -12.9631 N   0  0  0  0  0  0  0  0  0  0  0  0
   19.1173  -22.4627  -12.0364 C   0  0  1  0  0  0  0  0  0  0  0  0
   19.3321  -22.8668  -10.6114 C   0  0  0  0  0  0  0  0  0  0  0  0
   18.5685  -24.0306  -10.1238 C   0  0  0  0  0  0  0  0  0  0  0  0
   18.9617  -24.4586   -8.7468 C   0  0  0  0  0  0  0  0  0  0  0  0
   18.1460  -25.6537   -8.3355 C   0  0  0  0  0  0  0  0  0  0  0  0
   18.5733  -26.1433   -7.0175 N   0  0  0  0  0  0  0  0  0  0  0  0
   20.0945  -21.4166  -12.3603 C   0  0  0  0  0  0  0  0  0  0  0  0
   20.2000  -20.4185  -11.6040 O   0  0  0  0  0  0  0  0  0  0  0  0
   25.9354  -25.0501  -15.3705 N   0  0  0  0  0  0  0  0  0  0  0  0
   25.0519  -24.1659  -16.0230 C   0  0  0  0  0  0  0  0  0  0  0  0
   24.5616  -24.4340  -17.1832 N   0  0  0  0  0  0  0  0  0  0  0  0
   24.6458  -22.9157  -15.4333 N   0  0  0  0  0  0  0  0  0  0  0  0
   25.0719  -22.5516  -14.1021 C   0  0  0  0  0  0  0  0  0  0  0  0
   23.9224  -21.8564  -13.4073 C   0  0  0  0  0  0  0  0  0  0  0  0
   23.0892  -21.1536  -14.4403 C   0  0  0  0  0  0  0  0  0  0  0  0
   21.9069  -20.5049  -13.7602 C   0  0  2  0  0  0  0  0  0  0  0  0
   20.9135  -21.5121  -13.4994 N   0  0  0  0  0  0  0  0  0  0  0  0
   21.3984  -19.4035  -14.5910 C   0  0  0  0  0  0  0  0  0  0  0  0
   22.0778  -18.3632  -14.8645 O   0  0  0  0  0  0  0  0  0  0  0  0
   23.9408  -23.8452  -17.7387 N   0  0  0  0  0  0  0  0  0  0  0  0
   20.0865  -19.4851  -15.1241 C   0  0  0  0  0  0  0  0  0  0  0  0
   19.5557  -18.3720  -15.8849 C   0  0  0  0  0  0  0  0  0  0  0  0
   19.8063  -18.5774  -17.3130 O   0  0  0  0  0  0  0  0  0  0  0  0
   19.3129  -17.6748  -18.2362 O   0  0  0  0  0  0  0  0  0  0  0  0
  2  1  1  6
  3  2  1  0
  4  3  1  0
  5  4  1  0
  5  6  1  0
  7  6  1  0
  8  2  1  0
  8  9  2  0
 10 11  1  0
 11 12  2  0
 13 11  1  0
 13 14  1  0
 15 14  1  0
 17 16  1  6
 16 15  1  0
 17 18  1  0
 18  8  1  0
 19 17  1  0
 20 19  2  0
 21 19  1  0
 22 21  1  0
 23 22  1  0
 24 23  1  0
 25 23  2  0
M  END
$$$$
