KRG.pdb
     RDKit          3D

 25 24  0  0  1  0  0  0  0  0999 V2000
   19.7961  -22.1770  -12.9795 N   0  0  0  0  0  0  0  0  0  0  0  0
   18.6786  -22.7099  -12.2781 C   0  0  1  0  0  0  0  0  0  0  0  0
   17.3904  -22.6874  -13.0399 C   0  0  0  0  0  0  0  0  0  0  0  0
   16.5418  -21.4914  -12.8838 C   0  0  0  0  0  0  0  0  0  0  0  0
   16.7794  -20.4584  -13.9375 C   0  0  0  0  0  0  0  0  0  0  0  0
   15.8653  -19.2851  -13.7120 C   0  0  0  0  0  0  0  0  0  0  0  0
   16.0912  -18.2498  -14.7301 N   0  0  0  0  0  0  0  0  0  0  0  0
   18.8736  -24.0703  -11.7628 C   0  0  0  0  0  0  0  0  0  0  0  0
   19.5551  -24.8885  -12.4300 O   0  0  0  0  0  0  0  0  0  0  0  0
   16.2108  -23.7248   -6.0385 N   0  0  0  0  0  0  0  0  0  0  0  0
   16.6846  -25.0153   -5.7249 C   0  0  0  0  0  0  0  0  0  0  0  0
   15.9594  -25.8642   -5.0831 N   0  0  0  0  0  0  0  0  0  0  0  0
   18.0020  -25.4598   -6.1025 N   0  0  0  0  0  0  0  0  0  0  0  0
   18.9955  -24.5206   -6.5683 C   0  0  0  0  0  0  0  0  0  0  0  0
   18.9564  -24.4963   -8.0800 C   0  0  0  0  0  0  0  0  0  0  0  0
   18.4818  -25.8337   -8.5713 C   0  0  0  0  0  0  0  0  0  0  0  0
   18.4722  -25.8277  -10.0816 C   0  0  2  0  0  0  0  0  0  0  0  0
   18.3128  -24.4727  -10.5376 N   0  0  0  0  0  0  0  0  0  0  0  0
   17.4165  -26.7239  -10.5755 C   0  0  0  0  0  0  0  0  0  0  0  0
   16.3155  -26.3076  -11.0581 O   0  0  0  0  0  0  0  0  0  0  0  0
   16.2195  -26.8121   -4.8105 N   0  0  0  0  0  0  0  0  0  0  0  0
   17.6156  -28.1272  -10.5199 C   0  0  0  0  0  0  0  0  0  0  0  0
   16.5985  -29.0131  -11.0493 C   0  0  0  0  0  0  0  0  0  0  0  0
   16.9737  -30.4075  -10.8064 O   0  0  0  0  0  0  0  0  0  0  0  0
   16.1169  -31.4267  -11.1774 O   0  0  0  0  0  0  0  0  0  0  0  0
  2  1  1  6
  3  2  1  0
  4  3  1  0
  5  4  1  0
  5  6  1  0
  7  6  1  0
  8  2  1  0
  8  9  2  0
 10 11  1  0
 11 12  2  0
 13 11  1  0
 13 14  1  0
 15 14  1  0
 17 16  1  1
 16 15  1  0
 17 18  1  0
 18  8  1  0
 19 17  1  0
 20 19  2  0
 21 19  1  0
 22 21  1  0
 23 22  1  0
 24 23  1  0
 25 23  2  0
M  END
$$$$
