KRG.pdb
     RDKit          3D

 25 24  0  0  1  0  0  0  0  0999 V2000
   15.6495  -11.7707  -10.0625 N   0  0  0  0  0  0  0  0  0  0  0  0
   15.1567  -10.4586  -10.3080 C   0  0  1  0  0  0  0  0  0  0  0  0
   13.8289  -10.1601   -9.6851 C   0  0  0  0  0  0  0  0  0  0  0  0
   12.7023  -11.0350  -10.0600 C   0  0  0  0  0  0  0  0  0  0  0  0
   11.3894  -10.5705   -9.5177 C   0  0  0  0  0  0  0  0  0  0  0  0
   10.2943  -11.4900   -9.9849 C   0  0  0  0  0  0  0  0  0  0  0  0
    8.9916  -11.0477   -9.4685 N   0  0  0  0  0  0  0  0  0  0  0  0
   16.0809   -9.3803   -9.9372 C   0  0  0  0  0  0  0  0  0  0  0  0
   16.8762   -9.5544   -8.9799 O   0  0  0  0  0  0  0  0  0  0  0  0
   22.0402   -5.8734  -14.2860 N   0  0  0  0  0  0  0  0  0  0  0  0
   21.3973   -7.0102  -13.7548 C   0  0  0  0  0  0  0  0  0  0  0  0
   21.5920   -8.1864  -14.2417 N   0  0  0  0  0  0  0  0  0  0  0  0
   20.4886   -6.9248  -12.6400 N   0  0  0  0  0  0  0  0  0  0  0  0
   19.9181   -5.6582  -12.2447 C   0  0  0  0  0  0  0  0  0  0  0  0
   19.0050   -5.8949  -11.0625 C   0  0  0  0  0  0  0  0  0  0  0  0
   17.9632   -6.9036  -11.4529 C   0  0  0  0  0  0  0  0  0  0  0  0
   17.0397   -7.1356  -10.2805 C   0  0  2  0  0  0  0  0  0  0  0  0
   16.0922   -8.1588  -10.6337 N   0  0  0  0  0  0  0  0  0  0  0  0
   16.3966   -5.8704   -9.8963 C   0  0  0  0  0  0  0  0  0  0  0  0
   15.5992   -5.2331  -10.6555 O   0  0  0  0  0  0  0  0  0  0  0  0
   21.1440   -9.0546  -13.9484 N   0  0  0  0  0  0  0  0  0  0  0  0
   16.6658   -5.3153   -8.6191 C   0  0  0  0  0  0  0  0  0  0  0  0
   15.9732   -4.1119   -8.2045 C   0  0  0  0  0  0  0  0  0  0  0  0
   16.6326   -2.9343   -8.7724 O   0  0  0  0  0  0  0  0  0  0  0  0
   16.1669   -1.6692   -8.4673 O   0  0  0  0  0  0  0  0  0  0  0  0
  2  1  1  1
  3  2  1  0
  4  3  1  0
  5  4  1  0
  5  6  1  0
  7  6  1  0
  8  2  1  0
  8  9  2  0
 10 11  1  0
 11 12  2  0
 13 11  1  0
 13 14  1  0
 15 14  1  0
 17 16  1  6
 16 15  1  0
 17 18  1  0
 18  8  1  0
 19 17  1  0
 20 19  2  0
 21 19  1  0
 22 21  1  0
 23 22  1  0
 24 23  1  0
 25 23  2  0
M  END
$$$$
