KRG.pdb
     RDKit          3D

 25 24  0  0  1  0  0  0  0  0999 V2000
   18.2833  -23.5905   -8.1512 N   0  0  0  0  0  0  0  0  0  0  0  0
   19.2271  -23.8459   -9.1850 C   0  0  1  0  0  0  0  0  0  0  0  0
   18.7399  -24.7554  -10.2692 C   0  0  0  0  0  0  0  0  0  0  0  0
   18.6691  -26.1943   -9.9537 C   0  0  0  0  0  0  0  0  0  0  0  0
   18.0196  -27.0025  -11.0301 C   0  0  0  0  0  0  0  0  0  0  0  0
   17.9396  -28.4430  -10.6038 C   0  0  0  0  0  0  0  0  0  0  0  0
   17.2446  -29.2457  -11.6197 N   0  0  0  0  0  0  0  0  0  0  0  0
   19.7774  -22.6424   -9.8199 C   0  0  0  0  0  0  0  0  0  0  0  0
   19.0209  -21.6639  -10.0419 O   0  0  0  0  0  0  0  0  0  0  0  0
   27.8293  -21.3255  -10.4936 N   0  0  0  0  0  0  0  0  0  0  0  0
   26.9264  -21.0099  -11.5295 C   0  0  0  0  0  0  0  0  0  0  0  0
   27.1682  -21.3215  -12.7554 N   0  0  0  0  0  0  0  0  0  0  0  0
   25.6844  -20.3237  -11.2799 N   0  0  0  0  0  0  0  0  0  0  0  0
   25.1478  -20.2262   -9.9425 C   0  0  0  0  0  0  0  0  0  0  0  0
   23.6393  -20.1715  -10.0371 C   0  0  0  0  0  0  0  0  0  0  0  0
   23.1558  -21.4056  -10.7429 C   0  0  0  0  0  0  0  0  0  0  0  0
   21.6471  -21.3758  -10.8078 C   0  0  2  0  0  0  0  0  0  0  0  0
   21.1339  -22.5654  -10.1827 N   0  0  0  0  0  0  0  0  0  0  0  0
   21.2123  -21.2324  -12.2050 C   0  0  0  0  0  0  0  0  0  0  0  0
   21.0715  -22.2174  -12.9977 O   0  0  0  0  0  0  0  0  0  0  0  0
   26.5771  -21.1331  -13.5652 N   0  0  0  0  0  0  0  0  0  0  0  0
   20.9309  -19.9389  -12.7146 C   0  0  0  0  0  0  0  0  0  0  0  0
   20.4947  -19.7936  -14.0888 C   0  0  0  0  0  0  0  0  0  0  0  0
   19.0400  -19.9400  -14.1702 O   0  0  0  0  0  0  0  0  0  0  0  0
   18.4018  -19.8149  -15.3898 O   0  0  0  0  0  0  0  0  0  0  0  0
  2  1  1  1
  3  2  1  0
  4  3  1  0
  5  4  1  0
  5  6  1  0
  7  6  1  0
  8  2  1  0
  8  9  2  0
 10 11  1  0
 11 12  2  0
 13 11  1  0
 13 14  1  0
 15 14  1  0
 17 16  1  6
 16 15  1  0
 17 18  1  0
 18  8  1  0
 19 17  1  0
 20 19  2  0
 21 19  1  0
 22 21  1  0
 23 22  1  0
 24 23  1  0
 25 23  2  0
M  END
$$$$
