KRG.pdb
     RDKit          3D

 25 24  0  0  1  0  0  0  0  0999 V2000
   25.4002  -24.3193  -15.0127 N   0  0  0  0  0  0  0  0  0  0  0  0
   25.7579  -23.0506  -14.4769 C   0  0  1  0  0  0  0  0  0  0  0  0
   26.4271  -22.1262  -15.4453 C   0  0  0  0  0  0  0  0  0  0  0  0
   25.7181  -21.8545  -16.7097 C   0  0  0  0  0  0  0  0  0  0  0  0
   26.4950  -20.9868  -17.6464 C   0  0  0  0  0  0  0  0  0  0  0  0
   25.6756  -20.7090  -18.8770 C   0  0  0  0  0  0  0  0  0  0  0  0
   26.3725  -19.7639  -19.7605 N   0  0  0  0  0  0  0  0  0  0  0  0
   24.6513  -22.3198  -13.8478 C   0  0  0  0  0  0  0  0  0  0  0  0
   23.4682  -22.6152  -14.1515 O   0  0  0  0  0  0  0  0  0  0  0  0
   20.7696  -22.9385   -8.4620 N   0  0  0  0  0  0  0  0  0  0  0  0
   21.5462  -21.9602   -7.8080 C   0  0  0  0  0  0  0  0  0  0  0  0
   21.2337  -21.5191   -6.6391 N   0  0  0  0  0  0  0  0  0  0  0  0
   22.7310  -21.3983   -8.4050 N   0  0  0  0  0  0  0  0  0  0  0  0
   23.1697  -21.8169   -9.7158 C   0  0  0  0  0  0  0  0  0  0  0  0
   24.4897  -21.1418  -10.0146 C   0  0  0  0  0  0  0  0  0  0  0  0
   24.2494  -20.0226  -10.9866 C   0  0  0  0  0  0  0  0  0  0  0  0
   23.7889  -20.6042  -12.3023 C   0  0  2  0  0  0  0  0  0  0  0  0
   24.8916  -21.2975  -12.9125 N   0  0  0  0  0  0  0  0  0  0  0  0
   23.2442  -19.5367  -13.1541 C   0  0  0  0  0  0  0  0  0  0  0  0
   23.9102  -18.5089  -13.4981 O   0  0  0  0  0  0  0  0  0  0  0  0
   21.7471  -20.8351   -6.0832 N   0  0  0  0  0  0  0  0  0  0  0  0
   21.9107  -19.6387  -13.6267 C   0  0  0  0  0  0  0  0  0  0  0  0
   21.3690  -18.5878  -14.4644 C   0  0  0  0  0  0  0  0  0  0  0  0
   19.9806  -18.8934  -14.8154 O   0  0  0  0  0  0  0  0  0  0  0  0
   19.2364  -17.9824  -15.5410 O   0  0  0  0  0  0  0  0  0  0  0  0
  2  1  1  6
  3  2  1  0
  4  3  1  0
  5  4  1  0
  5  6  1  0
  7  6  1  0
  8  2  1  0
  8  9  2  0
 10 11  1  0
 11 12  2  0
 13 11  1  0
 13 14  1  0
 15 14  1  0
 17 16  1  1
 16 15  1  0
 17 18  1  0
 18  8  1  0
 19 17  1  0
 20 19  2  0
 21 19  1  0
 22 21  1  0
 23 22  1  0
 24 23  1  0
 25 23  2  0
M  END
$$$$
