KRG.pdb
     RDKit          3D

 25 24  0  0  1  0  0  0  0  0999 V2000
   18.4567  -21.9885  -10.1100 N   0  0  0  0  0  0  0  0  0  0  0  0
   19.4361  -22.5188  -10.9957 C   0  0  1  0  0  0  0  0  0  0  0  0
   18.9002  -23.0039  -12.3063 C   0  0  0  0  0  0  0  0  0  0  0  0
   17.5470  -23.5904  -12.2998 C   0  0  0  0  0  0  0  0  0  0  0  0
   16.6263  -22.9593  -13.2936 C   0  0  0  0  0  0  0  0  0  0  0  0
   15.2561  -23.5684  -13.1729 C   0  0  0  0  0  0  0  0  0  0  0  0
   14.3056  -22.8846  -14.0608 N   0  0  0  0  0  0  0  0  0  0  0  0
   20.5593  -21.6161  -11.2746 C   0  0  0  0  0  0  0  0  0  0  0  0
   20.4807  -20.4112  -10.9264 O   0  0  0  0  0  0  0  0  0  0  0  0
   29.1887  -21.4701  -10.0394 N   0  0  0  0  0  0  0  0  0  0  0  0
   28.3379  -21.0887  -11.0971 C   0  0  0  0  0  0  0  0  0  0  0  0
   28.5733  -21.4385  -12.3138 N   0  0  0  0  0  0  0  0  0  0  0  0
   27.1591  -20.2889  -10.8809 N   0  0  0  0  0  0  0  0  0  0  0  0
   25.8582  -20.9046  -10.7602 C   0  0  0  0  0  0  0  0  0  0  0  0
   25.3010  -21.1176  -12.1500 C   0  0  0  0  0  0  0  0  0  0  0  0
   24.1128  -22.0314  -12.0578 C   0  0  0  0  0  0  0  0  0  0  0  0
   22.8511  -21.2015  -12.0819 C   0  0  2  0  0  0  0  0  0  0  0  0
   21.7197  -22.0755  -11.9227 N   0  0  0  0  0  0  0  0  0  0  0  0
   22.7958  -20.4169  -13.3241 C   0  0  0  0  0  0  0  0  0  0  0  0
   23.1291  -20.8826  -14.4601 O   0  0  0  0  0  0  0  0  0  0  0  0
   28.0171  -21.2090  -13.1376 N   0  0  0  0  0  0  0  0  0  0  0  0
   22.3516  -19.0707  -13.2753 C   0  0  0  0  0  0  0  0  0  0  0  0
   22.2875  -18.2964  -14.4984 C   0  0  0  0  0  0  0  0  0  0  0  0
   21.0213  -18.5535  -15.1875 O   0  0  0  0  0  0  0  0  0  0  0  0
   19.9474  -17.7047  -14.9959 O   0  0  0  0  0  0  0  0  0  0  0  0
  2  1  1  6
  3  2  1  0
  4  3  1  0
  5  4  1  0
  5  6  1  0
  7  6  1  0
  8  2  1  0
  8  9  2  0
 10 11  1  0
 11 12  2  0
 13 11  1  0
 13 14  1  0
 15 14  1  0
 17 16  1  6
 16 15  1  0
 17 18  1  0
 18  8  1  0
 19 17  1  0
 20 19  2  0
 21 19  1  0
 22 21  1  0
 23 22  1  0
 24 23  1  0
 25 23  2  0
M  END
$$$$
