KRG.pdb
     RDKit          3D

 25 24  0  0  1  0  0  0  0  0999 V2000
   30.1901  -22.3315  -17.7064 N   0  0  0  0  0  0  0  0  0  0  0  0
   28.9012  -22.9243  -17.5977 C   0  0  1  0  0  0  0  0  0  0  0  0
   28.9077  -24.4039  -17.3721 C   0  0  0  0  0  0  0  0  0  0  0  0
   29.7047  -25.2196  -18.3073 C   0  0  0  0  0  0  0  0  0  0  0  0
   30.7591  -26.0330  -17.6287 C   0  0  0  0  0  0  0  0  0  0  0  0
   31.5432  -26.8038  -18.6554 C   0  0  0  0  0  0  0  0  0  0  0  0
   32.7048  -27.4571  -18.0362 N   0  0  0  0  0  0  0  0  0  0  0  0
   28.0340  -22.3173  -16.5809 C   0  0  0  0  0  0  0  0  0  0  0  0
   28.4487  -21.3236  -15.9331 O   0  0  0  0  0  0  0  0  0  0  0  0
   20.4269  -19.9587  -15.8794 N   0  0  0  0  0  0  0  0  0  0  0  0
   21.1141  -19.2981  -14.8405 C   0  0  0  0  0  0  0  0  0  0  0  0
   20.4867  -18.7057  -13.8845 N   0  0  0  0  0  0  0  0  0  0  0  0
   22.5529  -19.2470  -14.7858 N   0  0  0  0  0  0  0  0  0  0  0  0
   23.3567  -19.9630  -15.7487 C   0  0  0  0  0  0  0  0  0  0  0  0
   23.4784  -21.4001  -15.2933 C   0  0  0  0  0  0  0  0  0  0  0  0
   24.4686  -22.1032  -16.1766 C   0  0  0  0  0  0  0  0  0  0  0  0
   25.8254  -22.0759  -15.5135 C   0  0  2  0  0  0  0  0  0  0  0  0
   26.7495  -22.8270  -16.3203 N   0  0  0  0  0  0  0  0  0  0  0  0
   25.7179  -22.5903  -14.1403 C   0  0  0  0  0  0  0  0  0  0  0  0
   25.8534  -23.8196  -13.8419 O   0  0  0  0  0  0  0  0  0  0  0  0
   20.8967  -18.2641  -13.0615 N   0  0  0  0  0  0  0  0  0  0  0  0
   25.4498  -21.6869  -13.0801 C   0  0  0  0  0  0  0  0  0  0  0  0
   25.4151  -22.1776  -11.7171 C   0  0  0  0  0  0  0  0  0  0  0  0
   25.1630  -21.0701  -10.7929 O   0  0  0  0  0  0  0  0  0  0  0  0
   24.9665  -21.3250   -9.4488 O   0  0  0  0  0  0  0  0  0  0  0  0
  2  1  1  1
  3  2  1  0
  4  3  1  0
  5  4  1  0
  5  6  1  0
  7  6  1  0
  8  2  1  0
  8  9  2  0
 10 11  1  0
 11 12  2  0
 13 11  1  0
 13 14  1  0
 15 14  1  0
 17 16  1  6
 16 15  1  0
 17 18  1  0
 18  8  1  0
 19 17  1  0
 20 19  2  0
 21 19  1  0
 22 21  1  0
 23 22  1  0
 24 23  1  0
 25 23  2  0
M  END
$$$$
