KRG.pdb
     RDKit          3D

 25 24  0  0  1  0  0  0  0  0999 V2000
   28.3318  -21.4405  -18.0903 N   0  0  0  0  0  0  0  0  0  0  0  0
   27.9864  -20.4882  -17.0910 C   0  0  1  0  0  0  0  0  0  0  0  0
   27.4684  -19.1862  -17.6169 C   0  0  0  0  0  0  0  0  0  0  0  0
   28.1223  -18.6442  -18.8226 C   0  0  0  0  0  0  0  0  0  0  0  0
   29.5869  -18.4070  -18.6427 C   0  0  0  0  0  0  0  0  0  0  0  0
   30.1561  -17.7844  -19.8882 C   0  0  0  0  0  0  0  0  0  0  0  0
   31.6207  -17.7010  -19.8025 N   0  0  0  0  0  0  0  0  0  0  0  0
   27.0369  -20.9772  -16.0842 C   0  0  0  0  0  0  0  0  0  0  0  0
   26.1689  -21.8227  -16.4172 O   0  0  0  0  0  0  0  0  0  0  0  0
   23.5610  -19.5792   -9.3682 N   0  0  0  0  0  0  0  0  0  0  0  0
   23.9323  -20.7965   -8.7614 C   0  0  0  0  0  0  0  0  0  0  0  0
   23.1777  -21.3777   -7.8947 N   0  0  0  0  0  0  0  0  0  0  0  0
   25.1722  -21.4606   -9.0736 N   0  0  0  0  0  0  0  0  0  0  0  0
   26.0980  -20.8917  -10.0251 C   0  0  0  0  0  0  0  0  0  0  0  0
   25.6141  -21.2252  -11.4187 C   0  0  0  0  0  0  0  0  0  0  0  0
   26.6121  -20.7045  -12.4127 C   0  0  0  0  0  0  0  0  0  0  0  0
   26.0901  -20.9504  -13.8085 C   0  0  2  0  0  0  0  0  0  0  0  0
   27.0821  -20.5174  -14.7560 N   0  0  0  0  0  0  0  0  0  0  0  0
   24.7985  -20.2699  -13.9833 C   0  0  0  0  0  0  0  0  0  0  0  0
   24.6561  -19.0086  -13.8985 O   0  0  0  0  0  0  0  0  0  0  0  0
   23.3693  -22.2484   -7.3990 N   0  0  0  0  0  0  0  0  0  0  0  0
   23.6404  -21.0404  -14.2609 C   0  0  0  0  0  0  0  0  0  0  0  0
   22.3691  -20.3724  -14.4536 C   0  0  0  0  0  0  0  0  0  0  0  0
   21.6006  -20.3900  -13.2073 O   0  0  0  0  0  0  0  0  0  0  0  0
   20.3717  -19.7603  -13.1462 O   0  0  0  0  0  0  0  0  0  0  0  0
  2  1  1  6
  3  2  1  0
  4  3  1  0
  5  4  1  0
  5  6  1  0
  7  6  1  0
  8  2  1  0
  8  9  2  0
 10 11  1  0
 11 12  2  0
 13 11  1  0
 13 14  1  0
 15 14  1  0
 17 16  1  1
 16 15  1  0
 17 18  1  0
 18  8  1  0
 19 17  1  0
 20 19  2  0
 21 19  1  0
 22 21  1  0
 23 22  1  0
 24 23  1  0
 25 23  2  0
M  END
$$$$
