KRG.pdb
     RDKit          3D

 25 24  0  0  1  0  0  0  0  0999 V2000
   26.5918  -22.2496  -18.6987 N   0  0  0  0  0  0  0  0  0  0  0  0
   26.9440  -21.4111  -17.6044 C   0  0  1  0  0  0  0  0  0  0  0  0
   26.9895  -19.9494  -17.9228 C   0  0  0  0  0  0  0  0  0  0  0  0
   26.0935  -19.4694  -18.9914 C   0  0  0  0  0  0  0  0  0  0  0  0
   25.2238  -18.3314  -18.5645 C   0  0  0  0  0  0  0  0  0  0  0  0
   24.3900  -17.8669  -19.7274 C   0  0  0  0  0  0  0  0  0  0  0  0
   23.5671  -16.7110  -19.3453 N   0  0  0  0  0  0  0  0  0  0  0  0
   26.1110  -21.5860  -16.4086 C   0  0  0  0  0  0  0  0  0  0  0  0
   25.0950  -22.3230  -16.4697 O   0  0  0  0  0  0  0  0  0  0  0  0
   26.4503  -19.6806   -7.8592 N   0  0  0  0  0  0  0  0  0  0  0  0
   25.4947  -20.6814   -8.1297 C   0  0  0  0  0  0  0  0  0  0  0  0
   24.4363  -20.8180   -7.4088 N   0  0  0  0  0  0  0  0  0  0  0  0
   25.6437  -21.6065   -9.2241 N   0  0  0  0  0  0  0  0  0  0  0  0
   26.4588  -21.2741  -10.3692 C   0  0  0  0  0  0  0  0  0  0  0  0
   25.5826  -21.3003  -11.6016 C   0  0  0  0  0  0  0  0  0  0  0  0
   26.4289  -20.9848  -12.8013 C   0  0  0  0  0  0  0  0  0  0  0  0
   25.5848  -21.1160  -14.0469 C   0  0  2  0  0  0  0  0  0  0  0  0
   26.4300  -20.9451  -15.1983 N   0  0  0  0  0  0  0  0  0  0  0  0
   24.4790  -20.1481  -14.0021 C   0  0  0  0  0  0  0  0  0  0  0  0
   24.6450  -18.8916  -14.1126 O   0  0  0  0  0  0  0  0  0  0  0  0
   23.6534  -21.4490   -7.5805 N   0  0  0  0  0  0  0  0  0  0  0  0
   23.1522  -20.6183  -13.8273 C   0  0  0  0  0  0  0  0  0  0  0  0
   22.0586  -19.6684  -13.7885 C   0  0  0  0  0  0  0  0  0  0  0  0
   20.8364  -20.2914  -14.3008 O   0  0  0  0  0  0  0  0  0  0  0  0
   19.6281  -19.6288  -14.1941 O   0  0  0  0  0  0  0  0  0  0  0  0
  2  1  1  6
  3  2  1  0
  4  3  1  0
  5  4  1  0
  5  6  1  0
  7  6  1  0
  8  2  1  0
  8  9  2  0
 10 11  1  0
 11 12  2  0
 13 11  1  0
 13 14  1  0
 15 14  1  0
 17 16  1  1
 16 15  1  0
 17 18  1  0
 18  8  1  0
 19 17  1  0
 20 19  2  0
 21 19  1  0
 22 21  1  0
 23 22  1  0
 24 23  1  0
 25 23  2  0
M  END
$$$$
