KRG.pdb
     RDKit          3D

 25 24  0  0  1  0  0  0  0  0999 V2000
   27.3084  -22.4046  -17.1423 N   0  0  0  0  0  0  0  0  0  0  0  0
   26.8428  -21.2568  -16.4420 C   0  0  1  0  0  0  0  0  0  0  0  0
   26.5135  -20.0827  -17.3099 C   0  0  0  0  0  0  0  0  0  0  0  0
   27.1228  -20.0517  -18.6527 C   0  0  0  0  0  0  0  0  0  0  0  0
   26.3863  -20.8824  -19.6534 C   0  0  0  0  0  0  0  0  0  0  0  0
   26.9928  -20.6895  -21.0165 C   0  0  0  0  0  0  0  0  0  0  0  0
   26.4587  -21.6766  -21.9651 N   0  0  0  0  0  0  0  0  0  0  0  0
   25.6941  -21.5029  -15.5621 C   0  0  0  0  0  0  0  0  0  0  0  0
   24.8290  -22.3484  -15.9026 O   0  0  0  0  0  0  0  0  0  0  0  0
   26.8683  -20.3287   -7.6174 N   0  0  0  0  0  0  0  0  0  0  0  0
   25.6643  -20.8186   -8.1635 C   0  0  0  0  0  0  0  0  0  0  0  0
   24.6194  -21.0083   -7.4351 N   0  0  0  0  0  0  0  0  0  0  0  0
   25.5310  -21.1343   -9.5630 N   0  0  0  0  0  0  0  0  0  0  0  0
   26.6915  -21.2071  -10.4197 C   0  0  0  0  0  0  0  0  0  0  0  0
   26.2276  -21.5188  -11.8250 C   0  0  0  0  0  0  0  0  0  0  0  0
   24.8868  -20.8783  -12.0429 C   0  0  0  0  0  0  0  0  0  0  0  0
   24.4506  -21.1232  -13.4680 C   0  0  2  0  0  0  0  0  0  0  0  0
   25.5457  -20.8109  -14.3469 N   0  0  0  0  0  0  0  0  0  0  0  0
   23.2426  -20.3374  -13.7600 C   0  0  0  0  0  0  0  0  0  0  0  0
   23.2721  -19.1156  -14.1130 O   0  0  0  0  0  0  0  0  0  0  0  0
   23.7065  -21.3414   -7.7454 N   0  0  0  0  0  0  0  0  0  0  0  0
   21.9701  -20.9541  -13.6483 C   0  0  0  0  0  0  0  0  0  0  0  0
   20.7765  -20.1809  -13.9261 C   0  0  0  0  0  0  0  0  0  0  0  0
   20.3134  -20.4481  -15.2894 O   0  0  0  0  0  0  0  0  0  0  0  0
   19.1129  -19.9199  -15.7255 O   0  0  0  0  0  0  0  0  0  0  0  0
  2  1  1  6
  3  2  1  0
  4  3  1  0
  5  4  1  0
  5  6  1  0
  7  6  1  0
  8  2  1  0
  8  9  2  0
 10 11  1  0
 11 12  2  0
 13 11  1  0
 13 14  1  0
 15 14  1  0
 17 16  1  1
 16 15  1  0
 17 18  1  0
 18  8  1  0
 19 17  1  0
 20 19  2  0
 21 19  1  0
 22 21  1  0
 23 22  1  0
 24 23  1  0
 25 23  2  0
M  END
$$$$
