CEL.pdb
     RDKit          3D

 24 23  0  0  1  0  0  0  0  0999 V2000
    6.6082  -17.6933   20.9749 N   0  0  0  0  0  0  0  0  0  0  0  0
    7.4800  -16.5847   21.1870 C   0  0  1  0  0  0  0  0  0  0  0  0
    6.7169  -15.3659   21.6093 C   0  0  0  0  0  0  0  0  0  0  0  0
    6.2184  -14.4262   20.1411 S   0  0  0  0  0  0  0  0  0  0  0  0
    8.5583  -16.9277   22.1738 C   0  0  0  0  0  0  0  0  0  0  0  0
    8.3877  -17.8982   22.9487 O   0  0  0  0  0  0  0  0  0  0  0  0
    9.7569  -16.1859   22.2505 N   0  0  0  0  0  0  0  0  0  0  0  0
   10.8380  -16.4097   23.1493 C   0  0  1  0  0  0  0  0  0  0  0  0
   12.2116  -16.0209   22.6699 C   0  0  0  0  0  0  0  0  0  0  0  0
   13.3249  -16.2835   23.6187 C   0  0  0  0  0  0  0  0  0  0  0  0
   14.6387  -15.8640   23.0194 C   0  0  0  0  0  0  0  0  0  0  0  0
   15.1438  -16.5293   22.1031 O   0  0  0  0  0  0  0  0  0  0  0  0
   10.5660  -16.1192   24.5563 C   0  0  0  0  0  0  0  0  0  0  0  0
   11.5102  -16.3175   25.4000 O   0  0  0  0  0  0  0  0  0  0  0  0
   15.2655  -14.7411   23.4992 O   0  0  0  0  0  0  0  0  0  0  0  0
    8.7679  -12.3561   26.4139 C   0  0  0  0  0  0  0  0  0  0  0  0
    7.7469  -13.3176   25.8638 C   0  0  2  0  0  0  0  0  0  0  0  0
    6.3728  -12.7652   25.7688 C   0  0  0  0  0  0  0  0  0  0  0  0
    7.8156  -14.6433   26.5102 C   0  0  0  0  0  0  0  0  0  0  0  0
    9.1227  -15.3738   26.5072 C   0  0  2  0  0  0  0  0  0  0  0  0
    9.3543  -15.6406   25.0571 N   0  0  0  0  0  0  0  0  0  0  0  0
    9.1489  -16.6672   27.1589 C   0  0  0  0  0  0  0  0  0  0  0  0
    9.0609  -16.7333   28.4304 O   0  0  0  0  0  0  0  0  0  0  0  0
    9.2588  -17.9086   26.5309 O   0  0  0  0  0  0  0  0  0  0  0  0
  2  1  1  1
  2  3  1  0
  4  3  1  0
  5  7  1  0
  5  2  1  0
  6  5  2  0
  8 13  1  0
  8  7  1  0
  8  9  1  6
 10 11  1  0
 10  9  1  0
 11 12  2  0
 13 21  1  0
 14 13  2  0
 15 11  1  0
 17 16  1  1
 18 17  1  0
 20 19  1  6
 19 17  1  0
 20 22  1  0
 21 20  1  0
 22 23  2  0
 22 24  1  0
M  END
$$$$
