CEL.pdb
     RDKit          3D

 24 23  0  0  1  0  0  0  0  0999 V2000
    6.8327  -15.2046   18.7827 N   0  0  0  0  0  0  0  0  0  0  0  0
    8.1206  -14.9337   19.3322 C   0  0  1  0  0  0  0  0  0  0  0  0
    8.4231  -13.4660   19.3110 C   0  0  0  0  0  0  0  0  0  0  0  0
    7.7730  -12.6932   20.8168 S   0  0  0  0  0  0  0  0  0  0  0  0
    8.2466  -15.5012   20.7165 C   0  0  0  0  0  0  0  0  0  0  0  0
    7.2385  -15.5175   21.4614 O   0  0  0  0  0  0  0  0  0  0  0  0
    9.4694  -16.0157   21.1988 N   0  0  0  0  0  0  0  0  0  0  0  0
    9.7105  -16.5602   22.4920 C   0  0  1  0  0  0  0  0  0  0  0  0
   10.7875  -17.6073   22.5982 C   0  0  0  0  0  0  0  0  0  0  0  0
   10.9659  -18.2161   23.9421 C   0  0  0  0  0  0  0  0  0  0  0  0
   12.0728  -19.2337   23.9175 C   0  0  0  0  0  0  0  0  0  0  0  0
   11.8163  -20.4245   23.6862 O   0  0  0  0  0  0  0  0  0  0  0  0
    9.6561  -15.6104   23.6024 C   0  0  0  0  0  0  0  0  0  0  0  0
   10.6193  -14.7729   23.7189 O   0  0  0  0  0  0  0  0  0  0  0  0
   13.3621  -18.8265   24.1536 O   0  0  0  0  0  0  0  0  0  0  0  0
    5.7182  -12.4485   26.7677 C   0  0  0  0  0  0  0  0  0  0  0  0
    7.1531  -12.9063   26.7353 C   0  0  2  0  0  0  0  0  0  0  0  0
    8.1419  -11.8133   26.5629 C   0  0  0  0  0  0  0  0  0  0  0  0
    7.3596  -14.0493   25.8239 C   0  0  0  0  0  0  0  0  0  0  0  0
    8.7135  -14.6868   25.7710 C   0  0  2  0  0  0  0  0  0  0  0  0
    8.6341  -15.5419   24.5504 N   0  0  0  0  0  0  0  0  0  0  0  0
    9.0581  -15.5781   26.8596 C   0  0  0  0  0  0  0  0  0  0  0  0
    9.9583  -15.2321   27.6955 O   0  0  0  0  0  0  0  0  0  0  0  0
    8.4917  -16.8271   27.1177 O   0  0  0  0  0  0  0  0  0  0  0  0
  2  1  1  1
  2  3  1  0
  4  3  1  0
  5  7  1  0
  5  2  1  0
  6  5  2  0
  8 13  1  0
  8  7  1  0
  8  9  1  6
 10 11  1  0
 10  9  1  0
 11 12  2  0
 13 21  1  0
 14 13  2  0
 15 11  1  0
 17 16  1  6
 18 17  1  0
 20 19  1  1
 19 17  1  0
 20 22  1  0
 21 20  1  0
 22 23  2  0
 22 24  1  0
M  END
$$$$
