CEL.pdb
     RDKit          3D

 24 23  0  0  1  0  0  0  0  0999 V2000
    6.1911  -16.8054   19.5537 N   0  0  0  0  0  0  0  0  0  0  0  0
    7.5254  -16.3601   19.7891 C   0  0  1  0  0  0  0  0  0  0  0  0
    7.6683  -14.8958   19.5040 C   0  0  0  0  0  0  0  0  0  0  0  0
    6.8372  -13.9431   20.8036 S   0  0  0  0  0  0  0  0  0  0  0  0
    7.9672  -16.6944   21.1846 C   0  0  0  0  0  0  0  0  0  0  0  0
    7.0991  -16.8771   22.0703 O   0  0  0  0  0  0  0  0  0  0  0  0
    9.3330  -16.8077   21.5230 N   0  0  0  0  0  0  0  0  0  0  0  0
    9.8663  -17.1467   22.7988 C   0  0  1  0  0  0  0  0  0  0  0  0
   11.1097  -17.9962   22.8113 C   0  0  0  0  0  0  0  0  0  0  0  0
   12.2024  -17.5547   21.9059 C   0  0  0  0  0  0  0  0  0  0  0  0
   13.3850  -18.4766   22.0179 C   0  0  0  0  0  0  0  0  0  0  0  0
   14.2032  -18.5525   21.0893 O   0  0  0  0  0  0  0  0  0  0  0  0
    9.8274  -16.0878   23.8064 C   0  0  0  0  0  0  0  0  0  0  0  0
   10.1936  -14.9121   23.4509 O   0  0  0  0  0  0  0  0  0  0  0  0
   13.5434  -19.2275   23.1558 O   0  0  0  0  0  0  0  0  0  0  0  0
    6.2507  -13.0251   26.6765 C   0  0  0  0  0  0  0  0  0  0  0  0
    7.7216  -13.3413   26.7531 C   0  0  2  0  0  0  0  0  0  0  0  0
    8.6110  -12.1627   26.6042 C   0  0  0  0  0  0  0  0  0  0  0  0
    8.0971  -14.4860   25.8994 C   0  0  0  0  0  0  0  0  0  0  0  0
    9.4222  -15.1448   26.1282 C   0  0  2  0  0  0  0  0  0  0  0  0
    9.4212  -16.2553   25.1311 N   0  0  0  0  0  0  0  0  0  0  0  0
    9.6263  -15.7693   27.4192 C   0  0  0  0  0  0  0  0  0  0  0  0
    9.0720  -16.8910   27.6704 O   0  0  0  0  0  0  0  0  0  0  0  0
   10.3979  -15.2682   28.4684 O   0  0  0  0  0  0  0  0  0  0  0  0
  2  1  1  1
  2  3  1  0
  4  3  1  0
  5  7  1  0
  5  2  1  0
  6  5  2  0
  8 13  1  0
  8  7  1  0
  8  9  1  6
 10 11  1  0
 10  9  1  0
 11 12  2  0
 13 21  1  0
 14 13  2  0
 15 11  1  0
 17 16  1  6
 18 17  1  0
 20 19  1  1
 19 17  1  0
 20 22  1  0
 21 20  1  0
 22 23  2  0
 22 24  1  0
M  END
$$$$
