CEL.pdb
     RDKit          3D

 24 23  0  0  1  0  0  0  0  0999 V2000
    7.1232  -15.2013   18.5184 N   0  0  0  0  0  0  0  0  0  0  0  0
    8.1397  -14.6430   19.3486 C   0  0  1  0  0  0  0  0  0  0  0  0
    7.9039  -13.1828   19.5895 C   0  0  0  0  0  0  0  0  0  0  0  0
    8.2594  -12.2550   18.0729 S   0  0  0  0  0  0  0  0  0  0  0  0
    8.2586  -15.4011   20.6392 C   0  0  0  0  0  0  0  0  0  0  0  0
    7.2323  -15.5806   21.3362 O   0  0  0  0  0  0  0  0  0  0  0  0
    9.4949  -15.9155   21.0860 N   0  0  0  0  0  0  0  0  0  0  0  0
    9.7682  -16.4779   22.3650 C   0  0  1  0  0  0  0  0  0  0  0  0
   10.8581  -17.5149   22.4323 C   0  0  0  0  0  0  0  0  0  0  0  0
   11.1604  -18.0469   23.7865 C   0  0  0  0  0  0  0  0  0  0  0  0
   12.2642  -19.0659   23.7187 C   0  0  0  0  0  0  0  0  0  0  0  0
   13.4481  -18.6980   23.6943 O   0  0  0  0  0  0  0  0  0  0  0  0
    9.7266  -15.5466   23.4915 C   0  0  0  0  0  0  0  0  0  0  0  0
   10.4577  -14.4960   23.4244 O   0  0  0  0  0  0  0  0  0  0  0  0
   11.9430  -20.3999   23.6842 O   0  0  0  0  0  0  0  0  0  0  0  0
    7.8428  -12.7768   27.6388 C   0  0  0  0  0  0  0  0  0  0  0  0
    7.2384  -12.8210   26.2595 C   0  0  2  0  0  0  0  0  0  0  0  0
    5.8086  -12.4279   26.2035 C   0  0  0  0  0  0  0  0  0  0  0  0
    7.5409  -14.0811   25.5519 C   0  0  0  0  0  0  0  0  0  0  0  0
    8.8936  -14.6970   25.7340 C   0  0  2  0  0  0  0  0  0  0  0  0
    8.9505  -15.7105   24.6398 N   0  0  0  0  0  0  0  0  0  0  0  0
    9.1179  -15.4270   26.9648 C   0  0  0  0  0  0  0  0  0  0  0  0
    9.6646  -14.8372   27.9558 O   0  0  0  0  0  0  0  0  0  0  0  0
    8.7864  -16.7605   27.2085 O   0  0  0  0  0  0  0  0  0  0  0  0
  2  1  1  6
  2  3  1  0
  4  3  1  0
  5  7  1  0
  5  2  1  0
  6  5  2  0
  8 13  1  0
  8  7  1  0
  8  9  1  6
 10 11  1  0
 10  9  1  0
 11 12  2  0
 13 21  1  0
 14 13  2  0
 15 11  1  0
 17 16  1  1
 18 17  1  0
 20 19  1  1
 19 17  1  0
 20 22  1  0
 21 20  1  0
 22 23  2  0
 22 24  1  0
M  END
$$$$
