CEL.pdb
     RDKit          3D

 24 23  0  0  1  0  0  0  0  0999 V2000
    6.7921  -14.7221   19.3728 N   0  0  0  0  0  0  0  0  0  0  0  0
    8.0409  -14.3771   19.9692 C   0  0  1  0  0  0  0  0  0  0  0  0
    8.1336  -12.9031   20.2229 C   0  0  0  0  0  0  0  0  0  0  0  0
    8.2689  -12.0251   18.6424 S   0  0  0  0  0  0  0  0  0  0  0  0
    8.2756  -15.1671   21.2242 C   0  0  0  0  0  0  0  0  0  0  0  0
    7.3099  -15.3920   21.9911 O   0  0  0  0  0  0  0  0  0  0  0  0
    9.5542  -15.6615   21.5612 N   0  0  0  0  0  0  0  0  0  0  0  0
    9.8886  -16.4422   22.7038 C   0  0  1  0  0  0  0  0  0  0  0  0
   10.9990  -17.4461   22.5393 C   0  0  0  0  0  0  0  0  0  0  0  0
   11.2963  -18.2812   23.7321 C   0  0  0  0  0  0  0  0  0  0  0  0
   11.5849  -19.6995   23.3242 C   0  0  0  0  0  0  0  0  0  0  0  0
   11.0302  -20.6398   23.9121 O   0  0  0  0  0  0  0  0  0  0  0  0
    9.8752  -15.7350   23.9835 C   0  0  0  0  0  0  0  0  0  0  0  0
   10.8781  -14.9872   24.2626 O   0  0  0  0  0  0  0  0  0  0  0  0
   12.4658  -19.9353   22.2984 O   0  0  0  0  0  0  0  0  0  0  0  0
    8.3321  -12.2104   26.1959 C   0  0  0  0  0  0  0  0  0  0  0  0
    7.3166  -13.2576   25.8196 C   0  0  2  0  0  0  0  0  0  0  0  0
    5.9054  -12.8145   25.9389 C   0  0  0  0  0  0  0  0  0  0  0  0
    7.5901  -14.5619   26.4553 C   0  0  0  0  0  0  0  0  0  0  0  0
    8.9452  -15.1741   26.2781 C   0  0  2  0  0  0  0  0  0  0  0  0
    8.8526  -15.8090   24.9305 N   0  0  0  0  0  0  0  0  0  0  0  0
    9.3063  -16.2362   27.1944 C   0  0  0  0  0  0  0  0  0  0  0  0
    9.6751  -15.9455   28.3811 O   0  0  0  0  0  0  0  0  0  0  0  0
    9.2930  -17.6048   26.9219 O   0  0  0  0  0  0  0  0  0  0  0  0
  2  1  1  1
  2  3  1  0
  4  3  1  0
  5  7  1  0
  5  2  1  0
  6  5  2  0
  8 13  1  0
  8  7  1  0
  8  9  1  6
 10 11  1  0
 10  9  1  0
 11 12  2  0
 13 21  1  0
 14 13  2  0
 15 11  1  0
 17 16  1  1
 18 17  1  0
 20 19  1  1
 19 17  1  0
 20 22  1  0
 21 20  1  0
 22 23  2  0
 22 24  1  0
M  END
$$$$
