CEL.pdb
     RDKit          3D

 24 23  0  0  1  0  0  0  0  0999 V2000
    7.4914  -14.9273   18.2301 N   0  0  0  0  0  0  0  0  0  0  0  0
    8.4378  -14.5436   19.2257 C   0  0  1  0  0  0  0  0  0  0  0  0
    8.3354  -13.0816   19.5385 C   0  0  0  0  0  0  0  0  0  0  0  0
    9.0000  -12.1191   18.1532 S   0  0  0  0  0  0  0  0  0  0  0  0
    8.2897  -15.3823   20.4623 C   0  0  0  0  0  0  0  0  0  0  0  0
    7.1413  -15.6039   20.9132 O   0  0  0  0  0  0  0  0  0  0  0  0
    9.4094  -15.9261   21.1281 N   0  0  0  0  0  0  0  0  0  0  0  0
    9.4148  -16.5555   22.4051 C   0  0  1  0  0  0  0  0  0  0  0  0
   10.2428  -17.8058   22.5427 C   0  0  0  0  0  0  0  0  0  0  0  0
   11.0730  -18.1635   21.3631 C   0  0  0  0  0  0  0  0  0  0  0  0
   12.4292  -18.6448   21.7990 C   0  0  0  0  0  0  0  0  0  0  0  0
   12.5497  -19.7527   22.3427 O   0  0  0  0  0  0  0  0  0  0  0  0
    9.4519  -15.6561   23.5574 C   0  0  0  0  0  0  0  0  0  0  0  0
   10.4110  -14.8083   23.6221 O   0  0  0  0  0  0  0  0  0  0  0  0
   13.5239  -17.8443   21.5874 O   0  0  0  0  0  0  0  0  0  0  0  0
    5.5992  -12.2936   26.3848 C   0  0  0  0  0  0  0  0  0  0  0  0
    6.9849  -12.8567   26.5646 C   0  0  2  0  0  0  0  0  0  0  0  0
    8.0495  -11.8327   26.7067 C   0  0  0  0  0  0  0  0  0  0  0  0
    7.2968  -13.9114   25.5795 C   0  0  0  0  0  0  0  0  0  0  0  0
    8.5771  -14.6736   25.7286 C   0  0  2  0  0  0  0  0  0  0  0  0
    8.5217  -15.6463   24.5979 N   0  0  0  0  0  0  0  0  0  0  0  0
    8.7272  -15.4684   26.9303 C   0  0  0  0  0  0  0  0  0  0  0  0
    9.1975  -14.9290   27.9870 O   0  0  0  0  0  0  0  0  0  0  0  0
    8.3979  -16.8165   27.0776 O   0  0  0  0  0  0  0  0  0  0  0  0
  2  1  1  6
  2  3  1  0
  4  3  1  0
  5  7  1  0
  5  2  1  0
  6  5  2  0
  8 13  1  0
  8  7  1  0
  8  9  1  6
 10 11  1  0
 10  9  1  0
 11 12  2  0
 13 21  1  0
 14 13  2  0
 15 11  1  0
 17 16  1  6
 18 17  1  0
 20 19  1  1
 19 17  1  0
 20 22  1  0
 21 20  1  0
 22 23  2  0
 22 24  1  0
M  END
$$$$
