CEL.pdb
     RDKit          3D

 24 23  0  0  1  0  0  0  0  0999 V2000
    7.5115  -15.2274   17.5836 N   0  0  0  0  0  0  0  0  0  0  0  0
    8.2407  -14.5457   18.6023 C   0  0  1  0  0  0  0  0  0  0  0  0
    7.7366  -13.1467   18.7884 C   0  0  0  0  0  0  0  0  0  0  0  0
    8.6606  -12.3443   20.1261 S   0  0  0  0  0  0  0  0  0  0  0  0
    8.2147  -15.3157   19.8910 C   0  0  0  0  0  0  0  0  0  0  0  0
    7.1374  -15.8333   20.2689 O   0  0  0  0  0  0  0  0  0  0  0  0
    9.3710  -15.4706   20.6859 N   0  0  0  0  0  0  0  0  0  0  0  0
    9.4792  -16.2229   21.8897 C   0  0  1  0  0  0  0  0  0  0  0  0
   10.3848  -17.4257   21.8600 C   0  0  0  0  0  0  0  0  0  0  0  0
   10.4032  -18.2508   23.0959 C   0  0  0  0  0  0  0  0  0  0  0  0
   11.4343  -19.3400   22.9877 C   0  0  0  0  0  0  0  0  0  0  0  0
   11.2318  -20.3156   22.2497 O   0  0  0  0  0  0  0  0  0  0  0  0
    9.5234  -15.4427   23.1256 C   0  0  0  0  0  0  0  0  0  0  0  0
   10.5726  -14.7423   23.3520 O   0  0  0  0  0  0  0  0  0  0  0  0
   12.5947  -19.2381   23.7135 O   0  0  0  0  0  0  0  0  0  0  0  0
    5.6657  -12.4917   26.6303 C   0  0  0  0  0  0  0  0  0  0  0  0
    7.0969  -12.9519   26.5337 C   0  0  2  0  0  0  0  0  0  0  0  0
    8.0957  -11.8543   26.5378 C   0  0  0  0  0  0  0  0  0  0  0  0
    7.2993  -13.9413   25.4566 C   0  0  0  0  0  0  0  0  0  0  0  0
    8.6261  -14.6283   25.3563 C   0  0  2  0  0  0  0  0  0  0  0  0
    8.5092  -15.3989   24.0835 N   0  0  0  0  0  0  0  0  0  0  0  0
    8.9363  -15.6014   26.3836 C   0  0  0  0  0  0  0  0  0  0  0  0
    8.3435  -16.7316   26.3796 O   0  0  0  0  0  0  0  0  0  0  0  0
    9.8539  -15.4437   27.4231 O   0  0  0  0  0  0  0  0  0  0  0  0
  2  1  1  6
  2  3  1  0
  4  3  1  0
  5  7  1  0
  5  2  1  0
  6  5  2  0
  8 13  1  0
  8  7  1  0
  8  9  1  6
 10 11  1  0
 10  9  1  0
 11 12  2  0
 13 21  1  0
 14 13  2  0
 15 11  1  0
 17 16  1  6
 18 17  1  0
 20 19  1  1
 19 17  1  0
 20 22  1  0
 21 20  1  0
 22 23  2  0
 22 24  1  0
M  END
$$$$
