CEL.pdb
     RDKit          3D

 24 23  0  0  1  0  0  0  0  0999 V2000
    4.9514  -15.4446   25.3024 N   0  0  0  0  0  0  0  0  0  0  0  0
    6.1791  -14.7498   25.0918 C   0  0  1  0  0  0  0  0  0  0  0  0
    6.4576  -13.7878   26.2066 C   0  0  0  0  0  0  0  0  0  0  0  0
    6.6327  -12.1143   25.5312 S   0  0  0  0  0  0  0  0  0  0  0  0
    7.3162  -15.7109   24.8977 C   0  0  0  0  0  0  0  0  0  0  0  0
    7.3706  -16.7409   25.6101 O   0  0  0  0  0  0  0  0  0  0  0  0
    8.3233  -15.4836   23.9350 N   0  0  0  0  0  0  0  0  0  0  0  0
    9.4631  -16.3006   23.6895 C   0  0  1  0  0  0  0  0  0  0  0  0
   10.1876  -16.0822   22.3875 C   0  0  0  0  0  0  0  0  0  0  0  0
   11.3677  -16.9540   22.1512 C   0  0  0  0  0  0  0  0  0  0  0  0
   11.9478  -16.6985   20.7876 C   0  0  0  0  0  0  0  0  0  0  0  0
   11.3903  -15.9054   20.0145 O   0  0  0  0  0  0  0  0  0  0  0  0
   10.3235  -16.5556   24.8439 C   0  0  0  0  0  0  0  0  0  0  0  0
   11.4604  -17.1076   24.6305 O   0  0  0  0  0  0  0  0  0  0  0  0
   13.0956  -17.3522   20.4148 O   0  0  0  0  0  0  0  0  0  0  0  0
   10.6677  -13.3704   27.5269 C   0  0  0  0  0  0  0  0  0  0  0  0
    9.6884  -14.3448   28.1279 C   0  0  2  0  0  0  0  0  0  0  0  0
    8.8909  -13.7975   29.2534 C   0  0  0  0  0  0  0  0  0  0  0  0
   10.3018  -15.6574   28.4119 C   0  0  0  0  0  0  0  0  0  0  0  0
   10.9738  -16.3903   27.2922 C   0  0  2  0  0  0  0  0  0  0  0  0
   10.0047  -16.2443   26.1666 N   0  0  0  0  0  0  0  0  0  0  0  0
   11.1676  -17.8150   27.4683 C   0  0  0  0  0  0  0  0  0  0  0  0
   10.3833  -18.6340   26.8828 O   0  0  0  0  0  0  0  0  0  0  0  0
   12.1605  -18.4269   28.2345 O   0  0  0  0  0  0  0  0  0  0  0  0
  2  1  1  1
  2  3  1  0
  4  3  1  0
  5  7  1  0
  5  2  1  0
  6  5  2  0
  8 13  1  0
  8  7  1  0
  8  9  1  6
 10 11  1  0
 10  9  1  0
 11 12  2  0
 13 21  1  0
 14 13  2  0
 15 11  1  0
 17 16  1  1
 18 17  1  0
 20 19  1  1
 19 17  1  0
 20 22  1  0
 21 20  1  0
 22 23  2  0
 22 24  1  0
M  END
$$$$
