CEL.pdb
     RDKit          3D

 24 23  0  0  1  0  0  0  0  0999 V2000
    6.2887  -15.7125   18.9070 N   0  0  0  0  0  0  0  0  0  0  0  0
    7.4671  -15.0714   19.3913 C   0  0  1  0  0  0  0  0  0  0  0  0
    7.3274  -13.5797   19.3578 C   0  0  0  0  0  0  0  0  0  0  0  0
    8.8728  -12.8153   19.9188 S   0  0  0  0  0  0  0  0  0  0  0  0
    7.8204  -15.5600   20.7663 C   0  0  0  0  0  0  0  0  0  0  0  0
    6.9554  -15.5065   21.6720 O   0  0  0  0  0  0  0  0  0  0  0  0
    9.0999  -16.0769   21.0637 N   0  0  0  0  0  0  0  0  0  0  0  0
    9.5610  -16.5231   22.3346 C   0  0  1  0  0  0  0  0  0  0  0  0
   10.7460  -17.4525   22.3393 C   0  0  0  0  0  0  0  0  0  0  0  0
   11.1827  -17.9351   23.6753 C   0  0  0  0  0  0  0  0  0  0  0  0
   12.4158  -18.7867   23.5513 C   0  0  0  0  0  0  0  0  0  0  0  0
   13.2270  -18.5754   22.6378 O   0  0  0  0  0  0  0  0  0  0  0  0
    9.5516  -15.5234   23.4016 C   0  0  0  0  0  0  0  0  0  0  0  0
   10.3395  -14.5193   23.2855 O   0  0  0  0  0  0  0  0  0  0  0  0
   12.6276  -19.7945   24.4587 O   0  0  0  0  0  0  0  0  0  0  0  0
    5.7688  -12.5681   26.7319 C   0  0  0  0  0  0  0  0  0  0  0  0
    7.2404  -12.8813   26.6543 C   0  0  2  0  0  0  0  0  0  0  0  0
    8.1221  -11.6877   26.6469 C   0  0  0  0  0  0  0  0  0  0  0  0
    7.5527  -13.8626   25.5962 C   0  0  0  0  0  0  0  0  0  0  0  0
    8.8595  -14.5910   25.6591 C   0  0  2  0  0  0  0  0  0  0  0  0
    8.7490  -15.5749   24.5423 N   0  0  0  0  0  0  0  0  0  0  0  0
    9.1151  -15.3708   26.8527 C   0  0  0  0  0  0  0  0  0  0  0  0
    9.5479  -14.7899   27.9034 O   0  0  0  0  0  0  0  0  0  0  0  0
    8.9305  -16.7464   26.9981 O   0  0  0  0  0  0  0  0  0  0  0  0
  2  1  1  1
  2  3  1  0
  4  3  1  0
  5  7  1  0
  5  2  1  0
  6  5  2  0
  8 13  1  0
  8  7  1  0
  8  9  1  6
 10 11  1  0
 10  9  1  0
 11 12  2  0
 13 21  1  0
 14 13  2  0
 15 11  1  0
 17 16  1  6
 18 17  1  0
 20 19  1  1
 19 17  1  0
 20 22  1  0
 21 20  1  0
 22 23  2  0
 22 24  1  0
M  END
$$$$
