CEL.pdb
     RDKit          3D

 24 23  0  0  1  0  0  0  0  0999 V2000
    6.2562  -16.0576   20.6186 N   0  0  0  0  0  0  0  0  0  0  0  0
    7.5890  -15.5877   20.8115 C   0  0  1  0  0  0  0  0  0  0  0  0
    7.6824  -14.1092   20.5855 C   0  0  0  0  0  0  0  0  0  0  0  0
    6.9635  -13.2347   22.0017 S   0  0  0  0  0  0  0  0  0  0  0  0
    8.1044  -15.9703   22.1688 C   0  0  0  0  0  0  0  0  0  0  0  0
    7.2844  -16.1960   23.0897 O   0  0  0  0  0  0  0  0  0  0  0  0
    9.4866  -16.0817   22.4330 N   0  0  0  0  0  0  0  0  0  0  0  0
   10.0861  -16.5446   23.6385 C   0  0  1  0  0  0  0  0  0  0  0  0
   11.3155  -17.4031   23.4998 C   0  0  0  0  0  0  0  0  0  0  0  0
   11.2207  -18.5122   22.5152 C   0  0  0  0  0  0  0  0  0  0  0  0
   12.5299  -19.2458   22.4194 C   0  0  0  0  0  0  0  0  0  0  0  0
   12.9174  -19.9503   23.3632 O   0  0  0  0  0  0  0  0  0  0  0  0
   10.1199  -15.5850   24.7413 C   0  0  0  0  0  0  0  0  0  0  0  0
   10.9670  -14.6257   24.6719 O   0  0  0  0  0  0  0  0  0  0  0  0
   13.2839  -19.1239   21.2790 O   0  0  0  0  0  0  0  0  0  0  0  0
    8.7594  -12.0383   25.9840 C   0  0  0  0  0  0  0  0  0  0  0  0
    7.7301  -13.1126   26.2207 C   0  0  2  0  0  0  0  0  0  0  0  0
    6.3518  -12.6055   26.4331 C   0  0  0  0  0  0  0  0  0  0  0  0
    8.1669  -14.0991   27.2288 C   0  0  0  0  0  0  0  0  0  0  0  0
    9.5038  -14.7518   27.0588 C   0  0  2  0  0  0  0  0  0  0  0  0
    9.2993  -15.6300   25.8694 N   0  0  0  0  0  0  0  0  0  0  0  0
    9.9442  -15.6251   28.1273 C   0  0  0  0  0  0  0  0  0  0  0  0
    9.7823  -16.8861   28.0167 O   0  0  0  0  0  0  0  0  0  0  0  0
   10.5583  -15.2324   29.3173 O   0  0  0  0  0  0  0  0  0  0  0  0
  2  1  1  1
  2  3  1  0
  4  3  1  0
  5  7  1  0
  5  2  1  0
  6  5  2  0
  8 13  1  0
  8  7  1  0
  8  9  1  6
 10 11  1  0
 10  9  1  0
 11 12  2  0
 13 21  1  0
 14 13  2  0
 15 11  1  0
 17 16  1  1
 18 17  1  0
 20 19  1  1
 19 17  1  0
 20 22  1  0
 21 20  1  0
 22 23  2  0
 22 24  1  0
M  END
$$$$
