CEL.pdb
     RDKit          3D

 24 23  0  0  1  0  0  0  0  0999 V2000
    6.9033  -15.4071   18.8595 N   0  0  0  0  0  0  0  0  0  0  0  0
    7.8713  -14.7225   19.6523 C   0  0  1  0  0  0  0  0  0  0  0  0
    7.5022  -13.2819   19.8372 C   0  0  0  0  0  0  0  0  0  0  0  0
    8.6281  -12.5186   21.0360 S   0  0  0  0  0  0  0  0  0  0  0  0
    8.0737  -15.4120   20.9706 C   0  0  0  0  0  0  0  0  0  0  0  0
    7.0703  -15.7300   21.6513 O   0  0  0  0  0  0  0  0  0  0  0  0
    9.3633  -15.7103   21.4614 N   0  0  0  0  0  0  0  0  0  0  0  0
    9.6742  -16.4531   22.6354 C   0  0  1  0  0  0  0  0  0  0  0  0
   10.7446  -17.5049   22.5103 C   0  0  0  0  0  0  0  0  0  0  0  0
   10.9930  -18.3213   23.7269 C   0  0  0  0  0  0  0  0  0  0  0  0
   12.1614  -19.2436   23.5138 C   0  0  0  0  0  0  0  0  0  0  0  0
   13.3077  -18.8708   23.8039 O   0  0  0  0  0  0  0  0  0  0  0  0
    9.6949  -15.6912   23.8833 C   0  0  0  0  0  0  0  0  0  0  0  0
   10.6513  -14.8556   24.0565 O   0  0  0  0  0  0  0  0  0  0  0  0
   11.9405  -20.4957   22.9965 O   0  0  0  0  0  0  0  0  0  0  0  0
    8.3411  -12.1366   26.3021 C   0  0  0  0  0  0  0  0  0  0  0  0
    7.2558  -13.0903   25.8752 C   0  0  2  0  0  0  0  0  0  0  0  0
    5.8768  -12.5976   26.1159 C   0  0  0  0  0  0  0  0  0  0  0  0
    7.4926  -14.4657   26.3570 C   0  0  0  0  0  0  0  0  0  0  0  0
    8.8595  -15.0553   26.1946 C   0  0  2  0  0  0  0  0  0  0  0  0
    8.7519  -15.8012   24.9064 N   0  0  0  0  0  0  0  0  0  0  0  0
    9.2722  -16.0286   27.1848 C   0  0  0  0  0  0  0  0  0  0  0  0
    9.0602  -17.2694   26.9743 O   0  0  0  0  0  0  0  0  0  0  0  0
    9.9088  -15.7577   28.3967 O   0  0  0  0  0  0  0  0  0  0  0  0
  2  1  1  1
  2  3  1  0
  4  3  1  0
  5  7  1  0
  5  2  1  0
  6  5  2  0
  8 13  1  0
  8  7  1  0
  8  9  1  6
 10 11  1  0
 10  9  1  0
 11 12  2  0
 13 21  1  0
 14 13  2  0
 15 11  1  0
 17 16  1  1
 18 17  1  0
 20 19  1  1
 19 17  1  0
 20 22  1  0
 21 20  1  0
 22 23  2  0
 22 24  1  0
M  END
$$$$
