KDD.pdb
     RDKit          3D

 26 25  0  0  1  0  0  0  0  0999 V2000
    8.7602  -16.9622   18.8930 N   0  0  0  0  0  0  0  0  0  0  0  0
    9.5345  -15.8242   19.0766 C   0  0  1  0  0  0  0  0  0  0  0  0
    9.0391  -14.5180   18.5454 C   0  0  0  0  0  0  0  0  0  0  0  0
    8.0195  -14.5449   17.4900 C   0  0  0  0  0  0  0  0  0  0  0  0
    8.0340  -13.5980   16.3851 C   0  0  0  0  0  0  0  0  0  0  0  0
    6.9156  -13.6477   15.4054 C   0  0  0  0  0  0  0  0  0  0  0  0
    7.0898  -12.6076   14.3757 N   0  0  0  0  0  0  0  0  0  0  0  0
    9.9084  -15.6568   20.5032 C   0  0  0  0  0  0  0  0  0  0  0  0
   10.6413  -14.6558   20.8359 O   0  0  0  0  0  0  0  0  0  0  0  0
    9.4907  -16.5539   21.5019 N   0  0  0  0  0  0  0  0  0  0  0  0
    9.9789  -16.4386   22.8903 C   0  0  1  0  0  0  0  0  0  0  0  0
    9.0435  -17.1684   23.8111 C   0  0  0  0  0  0  0  0  0  0  0  0
    9.4807  -17.1580   25.1977 C   0  0  0  0  0  0  0  0  0  0  0  0
   10.1003  -16.2395   25.7722 O   0  0  0  0  0  0  0  0  0  0  0  0
   11.3748  -16.9546   22.9362 C   0  0  0  0  0  0  0  0  0  0  0  0
   11.7289  -18.0507   22.4720 O   0  0  0  0  0  0  0  0  0  0  0  0
    9.1992  -18.2770   26.0163 O   0  0  0  0  0  0  0  0  0  0  0  0
   12.4242  -16.1763   23.5457 N   0  0  0  0  0  0  0  0  0  0  0  0
   13.8038  -16.6095   23.5415 C   0  0  1  0  0  0  0  0  0  0  0  0
   14.7394  -15.6903   22.8356 C   0  0  0  0  0  0  0  0  0  0  0  0
   16.0903  -16.2799   22.7935 C   0  0  0  0  0  0  0  0  0  0  0  0
   16.2828  -17.4721   22.4132 O   0  0  0  0  0  0  0  0  0  0  0  0
   14.2682  -16.9306   24.9223 C   0  0  0  0  0  0  0  0  0  0  0  0
   13.6218  -16.5283   25.8961 O   0  0  0  0  0  0  0  0  0  0  0  0
   17.1948  -15.5650   23.1634 O   0  0  0  0  0  0  0  0  0  0  0  0
   15.4138  -17.6728   25.0709 O   0  0  0  0  0  0  0  0  0  0  0  0
  2  1  1  1
  2  3  1  0
  3  4  1  0
  4  5  1  0
  6  5  1  0
  6  7  1  0
  8  2  1  0
  8  9  2  0
 10  8  1  0
 11 10  1  0
 11 12  1  1
 13 12  1  0
 13 17  1  0
 14 13  2  0
 15 11  1  0
 16 15  2  0
 18 15  1  0
 19 18  1  0
 19 20  1  1
 20 21  1  0
 21 25  1  0
 21 22  2  0
 23 19  1  0
 24 23  2  0
 26 23  1  0
M  END
$$$$
