KDD.pdb
     RDKit          3D

 26 25  0  0  1  0  0  0  0  0999 V2000
    8.4148  -16.1273   19.8516 N   0  0  0  0  0  0  0  0  0  0  0  0
    8.9776  -14.9193   20.2421 C   0  0  1  0  0  0  0  0  0  0  0  0
    8.1227  -13.6937   20.2574 C   0  0  0  0  0  0  0  0  0  0  0  0
    7.4118  -13.3333   19.0249 C   0  0  0  0  0  0  0  0  0  0  0  0
    7.9662  -13.6152   17.7092 C   0  0  0  0  0  0  0  0  0  0  0  0
    7.1469  -13.2723   16.5159 C   0  0  0  0  0  0  0  0  0  0  0  0
    7.8091  -13.7446   15.2867 N   0  0  0  0  0  0  0  0  0  0  0  0
    9.6636  -15.0482   21.5519 C   0  0  0  0  0  0  0  0  0  0  0  0
   10.1021  -13.9863   22.1263 O   0  0  0  0  0  0  0  0  0  0  0  0
    9.8514  -16.2893   22.1854 N   0  0  0  0  0  0  0  0  0  0  0  0
   10.6805  -16.4133   23.4004 C   0  0  1  0  0  0  0  0  0  0  0  0
   10.1184  -17.4922   24.2810 C   0  0  0  0  0  0  0  0  0  0  0  0
   10.9223  -17.7408   25.4667 C   0  0  0  0  0  0  0  0  0  0  0  0
   11.4913  -16.8806   26.1696 O   0  0  0  0  0  0  0  0  0  0  0  0
   12.0861  -16.6671   22.9797 C   0  0  0  0  0  0  0  0  0  0  0  0
   12.4458  -17.6434   22.3017 O   0  0  0  0  0  0  0  0  0  0  0  0
   11.1066  -19.0729   25.9061 O   0  0  0  0  0  0  0  0  0  0  0  0
   13.1390  -15.7560   23.3538 N   0  0  0  0  0  0  0  0  0  0  0  0
   14.5141  -15.9671   22.9595 C   0  0  1  0  0  0  0  0  0  0  0  0
   15.1333  -14.8224   22.2350 C   0  0  0  0  0  0  0  0  0  0  0  0
   15.1220  -15.0788   20.7829 C   0  0  0  0  0  0  0  0  0  0  0  0
   15.2662  -16.2458   20.3136 O   0  0  0  0  0  0  0  0  0  0  0  0
   15.3413  -16.4104   24.1192 C   0  0  0  0  0  0  0  0  0  0  0  0
   14.8471  -16.4344   25.2518 O   0  0  0  0  0  0  0  0  0  0  0  0
   14.9553  -14.0672   19.8792 O   0  0  0  0  0  0  0  0  0  0  0  0
   16.6428  -16.7829   23.8895 O   0  0  0  0  0  0  0  0  0  0  0  0
  2  1  1  1
  2  3  1  0
  3  4  1  0
  4  5  1  0
  6  5  1  0
  6  7  1  0
  8  2  1  0
  8  9  2  0
 10  8  1  0
 11 10  1  0
 11 12  1  1
 13 12  1  0
 13 17  1  0
 14 13  2  0
 15 11  1  0
 16 15  2  0
 18 15  1  0
 19 18  1  0
 19 20  1  1
 20 21  1  0
 21 25  1  0
 21 22  2  0
 23 19  1  0
 24 23  2  0
 26 23  1  0
M  END
$$$$
