KDD.pdb
     RDKit          3D

 26 25  0  0  1  0  0  0  0  0999 V2000
    9.2176  -16.5906   18.0094 N   0  0  0  0  0  0  0  0  0  0  0  0
    9.8210  -15.5114   18.6417 C   0  0  1  0  0  0  0  0  0  0  0  0
    9.2088  -14.9709   19.8933 C   0  0  0  0  0  0  0  0  0  0  0  0
    8.5214  -13.6760   19.8212 C   0  0  0  0  0  0  0  0  0  0  0  0
    7.9307  -13.0547   20.9971 C   0  0  0  0  0  0  0  0  0  0  0  0
    7.3304  -11.7018   20.8474 C   0  0  0  0  0  0  0  0  0  0  0  0
    6.6893  -11.2834   22.1070 N   0  0  0  0  0  0  0  0  0  0  0  0
   11.2631  -15.7698   18.8798 C   0  0  0  0  0  0  0  0  0  0  0  0
   11.6356  -16.9625   19.1774 O   0  0  0  0  0  0  0  0  0  0  0  0
   12.2345  -14.7571   18.7926 N   0  0  0  0  0  0  0  0  0  0  0  0
   13.6721  -15.0576   18.9413 C   0  0  1  0  0  0  0  0  0  0  0  0
   14.4757  -14.0494   18.1710 C   0  0  0  0  0  0  0  0  0  0  0  0
   15.8911  -14.3752   18.1043 C   0  0  0  0  0  0  0  0  0  0  0  0
   16.4112  -15.4770   18.3750 O   0  0  0  0  0  0  0  0  0  0  0  0
   13.9934  -15.0827   20.3950 C   0  0  0  0  0  0  0  0  0  0  0  0
   13.9311  -14.0913   21.1403 O   0  0  0  0  0  0  0  0  0  0  0  0
   16.8083  -13.3777   17.6978 O   0  0  0  0  0  0  0  0  0  0  0  0
   14.4089  -16.3071   21.0328 N   0  0  0  0  0  0  0  0  0  0  0  0
   14.7536  -16.3642   22.4360 C   0  0  1  0  0  0  0  0  0  0  0  0
   14.4043  -17.6468   23.1078 C   0  0  0  0  0  0  0  0  0  0  0  0
   12.9436  -17.7417   23.2860 C   0  0  0  0  0  0  0  0  0  0  0  0
   12.1783  -16.7673   23.0256 O   0  0  0  0  0  0  0  0  0  0  0  0
   16.1810  -15.9884   22.6521 C   0  0  0  0  0  0  0  0  0  0  0  0
   16.5699  -15.6808   23.7843 O   0  0  0  0  0  0  0  0  0  0  0  0
   12.3512  -18.8864   23.7406 O   0  0  0  0  0  0  0  0  0  0  0  0
   17.0298  -15.9961   21.5727 O   0  0  0  0  0  0  0  0  0  0  0  0
  2  1  1  1
  2  3  1  0
  3  4  1  0
  4  5  1  0
  6  5  1  0
  6  7  1  0
  8  2  1  0
  8  9  2  0
 10  8  1  0
 11 10  1  0
 11 12  1  6
 13 12  1  0
 13 17  1  0
 14 13  2  0
 15 11  1  0
 16 15  2  0
 18 15  1  0
 19 18  1  0
 19 20  1  6
 20 21  1  0
 21 25  1  0
 21 22  2  0
 23 19  1  0
 24 23  2  0
 26 23  1  0
M  END
$$$$
