KDD.pdb
     RDKit          3D

 26 25  0  0  1  0  0  0  0  0999 V2000
    2.0010  -19.8331   19.9424 N   0  0  0  0  0  0  0  0  0  0  0  0
    2.1745  -19.0760   21.0935 C   0  0  1  0  0  0  0  0  0  0  0  0
    1.5648  -19.5523   22.3721 C   0  0  0  0  0  0  0  0  0  0  0  0
    1.0893  -20.9395   22.4346 C   0  0  0  0  0  0  0  0  0  0  0  0
    0.4246  -21.4701   23.6155 C   0  0  0  0  0  0  0  0  0  0  0  0
   -0.1502  -22.8401   23.5394 C   0  0  0  0  0  0  0  0  0  0  0  0
   -0.7028  -23.2373   24.8468 N   0  0  0  0  0  0  0  0  0  0  0  0
    3.6095  -18.7746   21.3235 C   0  0  0  0  0  0  0  0  0  0  0  0
    4.4558  -19.7404   21.2922 O   0  0  0  0  0  0  0  0  0  0  0  0
    4.0751  -17.4721   21.5752 N   0  0  0  0  0  0  0  0  0  0  0  0
    5.4996  -17.2072   21.8575 C   0  0  1  0  0  0  0  0  0  0  0  0
    5.8142  -15.7738   21.5381 C   0  0  0  0  0  0  0  0  0  0  0  0
    7.2217  -15.4467   21.6993 C   0  0  0  0  0  0  0  0  0  0  0  0
    8.1151  -16.2074   22.1246 O   0  0  0  0  0  0  0  0  0  0  0  0
    5.7668  -17.5683   23.2771 C   0  0  0  0  0  0  0  0  0  0  0  0
    5.1168  -17.1331   24.2417 O   0  0  0  0  0  0  0  0  0  0  0  0
    7.6707  -14.1505   21.3531 O   0  0  0  0  0  0  0  0  0  0  0  0
    6.8349  -18.4760   23.6139 N   0  0  0  0  0  0  0  0  0  0  0  0
    7.1396  -18.8304   24.9824 C   0  0  1  0  0  0  0  0  0  0  0  0
    6.9863  -20.2784   25.2960 C   0  0  0  0  0  0  0  0  0  0  0  0
    7.3693  -20.5346   26.6967 C   0  0  0  0  0  0  0  0  0  0  0  0
    6.7980  -19.9440   27.6599 O   0  0  0  0  0  0  0  0  0  0  0  0
    8.4776  -18.3078   25.3853 C   0  0  0  0  0  0  0  0  0  0  0  0
    9.1963  -17.7508   24.5480 O   0  0  0  0  0  0  0  0  0  0  0  0
    8.3587  -21.4215   27.0170 O   0  0  0  0  0  0  0  0  0  0  0  0
    8.8745  -18.4637   26.6905 O   0  0  0  0  0  0  0  0  0  0  0  0
  2  1  1  6
  2  3  1  0
  3  4  1  0
  4  5  1  0
  6  5  1  0
  6  7  1  0
  8  2  1  0
  8  9  2  0
 10  8  1  0
 11 10  1  0
 11 12  1  1
 13 12  1  0
 13 17  1  0
 14 13  2  0
 15 11  1  0
 16 15  2  0
 18 15  1  0
 19 18  1  0
 19 20  1  6
 20 21  1  0
 21 25  1  0
 21 22  2  0
 23 19  1  0
 24 23  2  0
 26 23  1  0
M  END
$$$$
