KDD.pdb
     RDKit          3D

 26 25  0  0  1  0  0  0  0  0999 V2000
   11.0935  -17.6691   19.1150 N   0  0  0  0  0  0  0  0  0  0  0  0
   10.6916  -17.1003   20.3164 C   0  0  1  0  0  0  0  0  0  0  0  0
    9.3087  -17.3664   20.8166 C   0  0  0  0  0  0  0  0  0  0  0  0
    8.5213  -18.4078   20.1460 C   0  0  0  0  0  0  0  0  0  0  0  0
    7.0994  -18.5798   20.4038 C   0  0  0  0  0  0  0  0  0  0  0  0
    6.3858  -19.6735   19.6912 C   0  0  0  0  0  0  0  0  0  0  0  0
    4.9592  -19.6811   20.0616 N   0  0  0  0  0  0  0  0  0  0  0  0
   11.6636  -17.3953   21.3986 C   0  0  0  0  0  0  0  0  0  0  0  0
   11.7880  -18.6081   21.8030 O   0  0  0  0  0  0  0  0  0  0  0  0
   12.4513  -16.3962   21.9971 N   0  0  0  0  0  0  0  0  0  0  0  0
   13.3604  -16.7044   23.1185 C   0  0  1  0  0  0  0  0  0  0  0  0
   14.2928  -15.5477   23.3383 C   0  0  0  0  0  0  0  0  0  0  0  0
   15.2674  -15.3868   22.2715 C   0  0  0  0  0  0  0  0  0  0  0  0
   15.4171  -14.3789   21.5507 O   0  0  0  0  0  0  0  0  0  0  0  0
   12.5319  -17.0300   24.3121 C   0  0  0  0  0  0  0  0  0  0  0  0
   11.6250  -16.3038   24.7509 O   0  0  0  0  0  0  0  0  0  0  0  0
   16.1554  -16.4501   21.9847 O   0  0  0  0  0  0  0  0  0  0  0  0
   12.7509  -18.2520   25.0450 N   0  0  0  0  0  0  0  0  0  0  0  0
   11.9885  -18.5863   26.2274 C   0  0  1  0  0  0  0  0  0  0  0  0
   11.0811  -19.7567   26.0688 C   0  0  0  0  0  0  0  0  0  0  0  0
   10.4827  -20.1112   27.3691 C   0  0  0  0  0  0  0  0  0  0  0  0
   11.1541  -20.6896   28.2733 O   0  0  0  0  0  0  0  0  0  0  0  0
   12.8783  -18.7235   27.4169 C   0  0  0  0  0  0  0  0  0  0  0  0
   14.0962  -18.8638   27.2592 O   0  0  0  0  0  0  0  0  0  0  0  0
    9.1761  -19.8307   27.6555 O   0  0  0  0  0  0  0  0  0  0  0  0
   12.3097  -18.6891   28.6663 O   0  0  0  0  0  0  0  0  0  0  0  0
  2  1  1  6
  2  3  1  0
  3  4  1  0
  4  5  1  0
  6  5  1  0
  6  7  1  0
  8  2  1  0
  8  9  2  0
 10  8  1  0
 11 10  1  0
 11 12  1  1
 13 12  1  0
 13 17  1  0
 14 13  2  0
 15 11  1  0
 16 15  2  0
 18 15  1  0
 19 18  1  0
 19 20  1  6
 20 21  1  0
 21 25  1  0
 21 22  2  0
 23 19  1  0
 24 23  2  0
 26 23  1  0
M  END
$$$$
