KDD.pdb
     RDKit          3D

 26 25  0  0  1  0  0  0  0  0999 V2000
   10.9994  -16.0491   14.7285 N   0  0  0  0  0  0  0  0  0  0  0  0
   11.0619  -15.2497   15.8623 C   0  0  1  0  0  0  0  0  0  0  0  0
    9.9149  -15.2611   16.8203 C   0  0  0  0  0  0  0  0  0  0  0  0
   10.0167  -14.4330   18.0278 C   0  0  0  0  0  0  0  0  0  0  0  0
    9.0282  -14.5056   19.0933 C   0  0  0  0  0  0  0  0  0  0  0  0
    9.1850  -13.5929   20.2575 C   0  0  0  0  0  0  0  0  0  0  0  0
    8.1096  -13.8243   21.2386 N   0  0  0  0  0  0  0  0  0  0  0  0
   12.3217  -15.4830   16.6116 C   0  0  0  0  0  0  0  0  0  0  0  0
   12.7310  -16.6901   16.7705 O   0  0  0  0  0  0  0  0  0  0  0  0
   13.0816  -14.4317   17.1540 N   0  0  0  0  0  0  0  0  0  0  0  0
   14.3754  -14.6832   17.8187 C   0  0  1  0  0  0  0  0  0  0  0  0
   15.3321  -13.5744   17.4858 C   0  0  0  0  0  0  0  0  0  0  0  0
   16.7178  -13.9076   17.7737 C   0  0  0  0  0  0  0  0  0  0  0  0
   17.1500  -14.4426   18.8152 O   0  0  0  0  0  0  0  0  0  0  0  0
   14.1265  -14.8298   19.2793 C   0  0  0  0  0  0  0  0  0  0  0  0
   13.5218  -13.9944   19.9712 O   0  0  0  0  0  0  0  0  0  0  0  0
   17.7103  -13.6158   16.8087 O   0  0  0  0  0  0  0  0  0  0  0  0
   14.5939  -15.9943   19.9893 N   0  0  0  0  0  0  0  0  0  0  0  0
   14.4179  -16.1464   21.4165 C   0  0  1  0  0  0  0  0  0  0  0  0
   13.5934  -17.3203   21.8172 C   0  0  0  0  0  0  0  0  0  0  0  0
   13.4654  -17.3696   23.2853 C   0  0  0  0  0  0  0  0  0  0  0  0
   13.2548  -16.3249   23.9688 O   0  0  0  0  0  0  0  0  0  0  0  0
   15.7310  -16.1156   22.1239 C   0  0  0  0  0  0  0  0  0  0  0  0
   16.7803  -16.1617   21.4722 O   0  0  0  0  0  0  0  0  0  0  0  0
   13.5686  -18.5459   23.9734 O   0  0  0  0  0  0  0  0  0  0  0  0
   15.7335  -16.0357   23.4947 O   0  0  0  0  0  0  0  0  0  0  0  0
  2  1  1  6
  2  3  1  0
  3  4  1  0
  4  5  1  0
  6  5  1  0
  6  7  1  0
  8  2  1  0
  8  9  2  0
 10  8  1  0
 11 10  1  0
 11 12  1  1
 13 12  1  0
 13 17  1  0
 14 13  2  0
 15 11  1  0
 16 15  2  0
 18 15  1  0
 19 18  1  0
 19 20  1  6
 20 21  1  0
 21 25  1  0
 21 22  2  0
 23 19  1  0
 24 23  2  0
 26 23  1  0
M  END
$$$$
