KDD.pdb
     RDKit          3D

 26 25  0  0  1  0  0  0  0  0999 V2000
    9.5063  -12.4384   18.8998 N   0  0  0  0  0  0  0  0  0  0  0  0
    8.5378  -13.3350   19.3318 C   0  0  1  0  0  0  0  0  0  0  0  0
    7.3350  -13.5693   18.4763 C   0  0  0  0  0  0  0  0  0  0  0  0
    7.5457  -14.0666   17.1116 C   0  0  0  0  0  0  0  0  0  0  0  0
    6.9835  -13.3889   15.9529 C   0  0  0  0  0  0  0  0  0  0  0  0
    7.2565  -13.9602   14.6068 C   0  0  0  0  0  0  0  0  0  0  0  0
    6.4588  -13.2623   13.5825 N   0  0  0  0  0  0  0  0  0  0  0  0
    9.1418  -14.6433   19.6877 C   0  0  0  0  0  0  0  0  0  0  0  0
    8.3769  -15.5775   20.1260 O   0  0  0  0  0  0  0  0  0  0  0  0
   10.5192  -14.8961   19.5634 N   0  0  0  0  0  0  0  0  0  0  0  0
   11.0986  -16.1979   19.9492 C   0  0  1  0  0  0  0  0  0  0  0  0
   11.9881  -16.6956   18.8462 C   0  0  0  0  0  0  0  0  0  0  0  0
   12.5762  -17.9953   19.1269 C   0  0  0  0  0  0  0  0  0  0  0  0
   13.5190  -18.2280   19.9111 O   0  0  0  0  0  0  0  0  0  0  0  0
   11.8079  -16.0244   21.2469 C   0  0  0  0  0  0  0  0  0  0  0  0
   12.3128  -14.9559   21.6284 O   0  0  0  0  0  0  0  0  0  0  0  0
   12.0632  -19.1388   18.4707 O   0  0  0  0  0  0  0  0  0  0  0  0
   11.9486  -17.1320   22.1590 N   0  0  0  0  0  0  0  0  0  0  0  0
   11.7630  -16.9815   23.5852 C   0  0  1  0  0  0  0  0  0  0  0  0
   10.3412  -16.8802   24.0174 C   0  0  0  0  0  0  0  0  0  0  0  0
   10.2703  -16.6842   25.4772 C   0  0  0  0  0  0  0  0  0  0  0  0
   11.3088  -16.7053   26.2011 O   0  0  0  0  0  0  0  0  0  0  0  0
   12.5034  -18.0371   24.3355 C   0  0  0  0  0  0  0  0  0  0  0  0
   12.5180  -18.0156   25.5713 O   0  0  0  0  0  0  0  0  0  0  0  0
    9.0796  -16.4710   26.1134 O   0  0  0  0  0  0  0  0  0  0  0  0
   13.1543  -19.0125   23.6211 O   0  0  0  0  0  0  0  0  0  0  0  0
  2  1  1  6
  2  3  1  0
  3  4  1  0
  4  5  1  0
  6  5  1  0
  6  7  1  0
  8  2  1  0
  8  9  2  0
 10  8  1  0
 11 10  1  0
 11 12  1  6
 13 12  1  0
 13 17  1  0
 14 13  2  0
 15 11  1  0
 16 15  2  0
 18 15  1  0
 19 18  1  0
 19 20  1  6
 20 21  1  0
 21 25  1  0
 21 22  2  0
 23 19  1  0
 24 23  2  0
 26 23  1  0
M  END
$$$$
