KDD.pdb
     RDKit          3D

 26 25  0  0  1  0  0  0  0  0999 V2000
    8.2456  -13.7799   17.2296 N   0  0  0  0  0  0  0  0  0  0  0  0
    9.2137  -13.3660   18.1351 C   0  0  1  0  0  0  0  0  0  0  0  0
    8.8257  -13.1523   19.5625 C   0  0  0  0  0  0  0  0  0  0  0  0
    8.4307  -14.3244   20.3527 C   0  0  0  0  0  0  0  0  0  0  0  0
    7.9204  -14.1981   21.7097 C   0  0  0  0  0  0  0  0  0  0  0  0
    7.5021  -15.4372   22.4187 C   0  0  0  0  0  0  0  0  0  0  0  0
    6.9422  -15.1066   23.7415 N   0  0  0  0  0  0  0  0  0  0  0  0
   10.4056  -14.2491   18.0838 C   0  0  0  0  0  0  0  0  0  0  0  0
   10.3248  -15.3583   17.4413 O   0  0  0  0  0  0  0  0  0  0  0  0
   11.6178  -13.9160   18.7133 N   0  0  0  0  0  0  0  0  0  0  0  0
   12.8265  -14.7454   18.5389 C   0  0  1  0  0  0  0  0  0  0  0  0
   14.0304  -13.8554   18.4202 C   0  0  0  0  0  0  0  0  0  0  0  0
   15.2603  -14.5867   18.1626 C   0  0  0  0  0  0  0  0  0  0  0  0
   15.3742  -15.6299   17.4869 O   0  0  0  0  0  0  0  0  0  0  0  0
   12.9059  -15.6968   19.6815 C   0  0  0  0  0  0  0  0  0  0  0  0
   13.8394  -16.4961   19.8601 O   0  0  0  0  0  0  0  0  0  0  0  0
   16.4733  -14.1076   18.7108 O   0  0  0  0  0  0  0  0  0  0  0  0
   11.8618  -15.7379   20.6748 N   0  0  0  0  0  0  0  0  0  0  0  0
   11.6623  -16.8844   21.5332 C   0  0  1  0  0  0  0  0  0  0  0  0
   11.2727  -16.5508   22.9315 C   0  0  0  0  0  0  0  0  0  0  0  0
   12.4329  -16.0094   23.6632 C   0  0  0  0  0  0  0  0  0  0  0  0
   13.6182  -16.1954   23.2591 O   0  0  0  0  0  0  0  0  0  0  0  0
   10.7263  -17.8640   20.9087 C   0  0  0  0  0  0  0  0  0  0  0  0
   10.1113  -17.5560   19.8817 O   0  0  0  0  0  0  0  0  0  0  0  0
   12.2795  -15.2827   24.8104 O   0  0  0  0  0  0  0  0  0  0  0  0
   10.5752  -19.0933   21.5015 O   0  0  0  0  0  0  0  0  0  0  0  0
  2  1  1  6
  2  3  1  0
  3  4  1  0
  4  5  1  0
  6  5  1  0
  6  7  1  0
  8  2  1  0
  8  9  2  0
 10  8  1  0
 11 10  1  0
 11 12  1  1
 13 12  1  0
 13 17  1  0
 14 13  2  0
 15 11  1  0
 16 15  2  0
 18 15  1  0
 19 18  1  0
 19 20  1  1
 20 21  1  0
 21 25  1  0
 21 22  2  0
 23 19  1  0
 24 23  2  0
 26 23  1  0
M  END
$$$$
