KDD.pdb
     RDKit          3D

 26 25  0  0  1  0  0  0  0  0999 V2000
   11.2035  -15.7826   15.6146 N   0  0  0  0  0  0  0  0  0  0  0  0
   11.2566  -15.1093   16.8279 C   0  0  1  0  0  0  0  0  0  0  0  0
   10.0943  -15.2079   17.7622 C   0  0  0  0  0  0  0  0  0  0  0  0
    9.6096  -16.5460   18.1211 C   0  0  0  0  0  0  0  0  0  0  0  0
    8.3618  -16.7415   18.8439 C   0  0  0  0  0  0  0  0  0  0  0  0
    7.9186  -18.1361   19.1115 C   0  0  0  0  0  0  0  0  0  0  0  0
    6.6516  -18.1356   19.8646 N   0  0  0  0  0  0  0  0  0  0  0  0
   12.5015  -15.4373   17.5667 C   0  0  0  0  0  0  0  0  0  0  0  0
   12.7871  -16.6717   17.7777 O   0  0  0  0  0  0  0  0  0  0  0  0
   13.3776  -14.4467   18.0442 N   0  0  0  0  0  0  0  0  0  0  0  0
   14.5850  -14.7978   18.8176 C   0  0  1  0  0  0  0  0  0  0  0  0
   15.6352  -13.7445   18.6100 C   0  0  0  0  0  0  0  0  0  0  0  0
   16.3327  -13.8733   17.3408 C   0  0  0  0  0  0  0  0  0  0  0  0
   17.0235  -14.8445   16.9704 O   0  0  0  0  0  0  0  0  0  0  0  0
   14.1907  -14.9655   20.2436 C   0  0  0  0  0  0  0  0  0  0  0  0
   13.6138  -14.0945   20.9149 O   0  0  0  0  0  0  0  0  0  0  0  0
   16.2498  -12.8197   16.4002 O   0  0  0  0  0  0  0  0  0  0  0  0
   14.4706  -16.1956   20.9416 N   0  0  0  0  0  0  0  0  0  0  0  0
   14.1689  -16.3686   22.3451 C   0  0  1  0  0  0  0  0  0  0  0  0
   13.3322  -17.5609   22.6563 C   0  0  0  0  0  0  0  0  0  0  0  0
   13.1668  -17.6944   24.1155 C   0  0  0  0  0  0  0  0  0  0  0  0
   13.5996  -16.8142   24.9160 O   0  0  0  0  0  0  0  0  0  0  0  0
   15.4119  -16.3252   23.1690 C   0  0  0  0  0  0  0  0  0  0  0  0
   16.5165  -16.3556   22.6151 O   0  0  0  0  0  0  0  0  0  0  0  0
   12.5388  -18.7750   24.6684 O   0  0  0  0  0  0  0  0  0  0  0  0
   15.2889  -16.2518   24.5346 O   0  0  0  0  0  0  0  0  0  0  0  0
  2  1  1  6
  2  3  1  0
  3  4  1  0
  4  5  1  0
  6  5  1  0
  6  7  1  0
  8  2  1  0
  8  9  2  0
 10  8  1  0
 11 10  1  0
 11 12  1  1
 13 12  1  0
 13 17  1  0
 14 13  2  0
 15 11  1  0
 16 15  2  0
 18 15  1  0
 19 18  1  0
 19 20  1  6
 20 21  1  0
 21 25  1  0
 21 22  2  0
 23 19  1  0
 24 23  2  0
 26 23  1  0
M  END
$$$$
