KDD.pdb
     RDKit          3D

 26 25  0  0  1  0  0  0  0  0999 V2000
    8.9318  -17.1244   17.1407 N   0  0  0  0  0  0  0  0  0  0  0  0
    9.4225  -15.9121   17.6077 C   0  0  1  0  0  0  0  0  0  0  0  0
    8.8621  -14.6424   17.0534 C   0  0  0  0  0  0  0  0  0  0  0  0
    8.1546  -14.7038   15.7688 C   0  0  0  0  0  0  0  0  0  0  0  0
    7.5977  -13.5142   15.1423 C   0  0  0  0  0  0  0  0  0  0  0  0
    6.9696  -13.6579   13.8014 C   0  0  0  0  0  0  0  0  0  0  0  0
    6.5215  -12.3454   13.3021 N   0  0  0  0  0  0  0  0  0  0  0  0
    9.3803  -15.8541   19.0902 C   0  0  0  0  0  0  0  0  0  0  0  0
    9.8643  -14.8217   19.6816 O   0  0  0  0  0  0  0  0  0  0  0  0
    8.8312  -16.8875   19.8694 N   0  0  0  0  0  0  0  0  0  0  0  0
    8.8868  -16.8494   21.3441 C   0  0  1  0  0  0  0  0  0  0  0  0
    7.8474  -17.7757   21.9074 C   0  0  0  0  0  0  0  0  0  0  0  0
    8.0388  -19.1611   21.5098 C   0  0  0  0  0  0  0  0  0  0  0  0
    7.5992  -20.1688   22.1005 O   0  0  0  0  0  0  0  0  0  0  0  0
   10.2733  -17.1914   21.7656 C   0  0  0  0  0  0  0  0  0  0  0  0
   10.9723  -18.0629   21.2233 O   0  0  0  0  0  0  0  0  0  0  0  0
    8.7903  -19.4450   20.3452 O   0  0  0  0  0  0  0  0  0  0  0  0
   10.8959  -16.5004   22.8671 N   0  0  0  0  0  0  0  0  0  0  0  0
   12.2808  -16.7138   23.2242 C   0  0  1  0  0  0  0  0  0  0  0  0
   13.1589  -15.5254   23.0370 C   0  0  0  0  0  0  0  0  0  0  0  0
   14.5681  -15.8994   23.2576 C   0  0  0  0  0  0  0  0  0  0  0  0
   15.0563  -15.9902   24.4222 O   0  0  0  0  0  0  0  0  0  0  0  0
   12.3974  -17.2868   24.5967 C   0  0  0  0  0  0  0  0  0  0  0  0
   13.4315  -17.8764   24.9296 O   0  0  0  0  0  0  0  0  0  0  0  0
   15.4097  -16.1644   22.2140 O   0  0  0  0  0  0  0  0  0  0  0  0
   11.3389  -17.1394   25.4588 O   0  0  0  0  0  0  0  0  0  0  0  0
  2  1  1  6
  2  3  1  0
  3  4  1  0
  4  5  1  0
  6  5  1  0
  6  7  1  0
  8  2  1  0
  8  9  2  0
 10  8  1  0
 11 10  1  0
 11 12  1  1
 13 12  1  0
 13 17  1  0
 14 13  2  0
 15 11  1  0
 16 15  2  0
 18 15  1  0
 19 18  1  0
 19 20  1  1
 20 21  1  0
 21 25  1  0
 21 22  2  0
 23 19  1  0
 24 23  2  0
 26 23  1  0
M  END
$$$$
