KDD.pdb
     RDKit          3D

 26 25  0  0  1  0  0  0  0  0999 V2000
   10.8011  -13.5456   18.7715 N   0  0  0  0  0  0  0  0  0  0  0  0
    9.8915  -13.5698   19.8206 C   0  0  1  0  0  0  0  0  0  0  0  0
    8.4398  -13.3739   19.5247 C   0  0  0  0  0  0  0  0  0  0  0  0
    8.0345  -13.2372   18.1206 C   0  0  0  0  0  0  0  0  0  0  0  0
    6.6423  -13.0542   17.7385 C   0  0  0  0  0  0  0  0  0  0  0  0
    6.3319  -12.8571   16.2970 C   0  0  0  0  0  0  0  0  0  0  0  0
    6.7592  -14.0314   15.5155 N   0  0  0  0  0  0  0  0  0  0  0  0
   10.0576  -14.7938   20.6435 C   0  0  0  0  0  0  0  0  0  0  0  0
    9.3689  -14.9111   21.7214 O   0  0  0  0  0  0  0  0  0  0  0  0
   10.9412  -15.8276   20.2867 N   0  0  0  0  0  0  0  0  0  0  0  0
   11.0742  -17.0432   21.1135 C   0  0  1  0  0  0  0  0  0  0  0  0
   10.7106  -18.2477   20.2933 C   0  0  0  0  0  0  0  0  0  0  0  0
    9.3139  -18.2656   19.8899 C   0  0  0  0  0  0  0  0  0  0  0  0
    8.8795  -18.4289   18.7312 O   0  0  0  0  0  0  0  0  0  0  0  0
   12.4625  -17.0909   21.6494 C   0  0  0  0  0  0  0  0  0  0  0  0
   12.9770  -18.0966   22.1653 O   0  0  0  0  0  0  0  0  0  0  0  0
    8.3117  -18.0844   20.8719 O   0  0  0  0  0  0  0  0  0  0  0  0
   13.3102  -15.9262   21.5932 N   0  0  0  0  0  0  0  0  0  0  0  0
   14.6632  -15.9348   22.1035 C   0  0  1  0  0  0  0  0  0  0  0  0
   15.5801  -14.9637   21.4442 C   0  0  0  0  0  0  0  0  0  0  0  0
   15.4016  -15.0143   19.9813 C   0  0  0  0  0  0  0  0  0  0  0  0
   15.3073  -16.1144   19.3617 O   0  0  0  0  0  0  0  0  0  0  0  0
   14.6757  -15.7984   23.5890 C   0  0  0  0  0  0  0  0  0  0  0  0
   13.6200  -15.5818   24.1942 O   0  0  0  0  0  0  0  0  0  0  0  0
   15.3300  -13.8752   19.2295 O   0  0  0  0  0  0  0  0  0  0  0  0
   15.8751  -15.9192   24.2467 O   0  0  0  0  0  0  0  0  0  0  0  0
  2  1  1  6
  2  3  1  0
  3  4  1  0
  4  5  1  0
  6  5  1  0
  6  7  1  0
  8  2  1  0
  8  9  2  0
 10  8  1  0
 11 10  1  0
 11 12  1  6
 13 12  1  0
 13 17  1  0
 14 13  2  0
 15 11  1  0
 16 15  2  0
 18 15  1  0
 19 18  1  0
 19 20  1  6
 20 21  1  0
 21 25  1  0
 21 22  2  0
 23 19  1  0
 24 23  2  0
 26 23  1  0
M  END
$$$$
