KDD.pdb
     RDKit          3D

 26 25  0  0  1  0  0  0  0  0999 V2000
    8.6449  -16.9946   12.8696 N   0  0  0  0  0  0  0  0  0  0  0  0
    7.7708  -16.6698   13.8986 C   0  0  1  0  0  0  0  0  0  0  0  0
    6.3344  -16.4140   13.5747 C   0  0  0  0  0  0  0  0  0  0  0  0
    5.7093  -17.2259   12.5238 C   0  0  0  0  0  0  0  0  0  0  0  0
    4.7919  -16.6491   11.5526 C   0  0  0  0  0  0  0  0  0  0  0  0
    4.1471  -17.5615   10.5704 C   0  0  0  0  0  0  0  0  0  0  0  0
    3.2389  -16.8062    9.6887 N   0  0  0  0  0  0  0  0  0  0  0  0
    7.8501  -17.6617   14.9999 C   0  0  0  0  0  0  0  0  0  0  0  0
    7.0600  -17.5332   16.0045 O   0  0  0  0  0  0  0  0  0  0  0  0
    8.7584  -18.7347   14.9837 N   0  0  0  0  0  0  0  0  0  0  0  0
    8.8931  -19.6440   16.1388 C   0  0  1  0  0  0  0  0  0  0  0  0
    8.3100  -20.9837   15.7908 C   0  0  0  0  0  0  0  0  0  0  0  0
    8.2584  -21.8969   16.9209 C   0  0  0  0  0  0  0  0  0  0  0  0
    8.8866  -22.9692   17.0361 O   0  0  0  0  0  0  0  0  0  0  0  0
   10.3322  -19.7063   16.5157 C   0  0  0  0  0  0  0  0  0  0  0  0
   10.8796  -20.7021   17.0165 O   0  0  0  0  0  0  0  0  0  0  0  0
    7.4284  -21.5821   18.0225 O   0  0  0  0  0  0  0  0  0  0  0  0
   11.1937  -18.5688   16.3094 N   0  0  0  0  0  0  0  0  0  0  0  0
   12.5214  -18.4972   16.8777 C   0  0  1  0  0  0  0  0  0  0  0  0
   12.6915  -19.2506   18.1513 C   0  0  0  0  0  0  0  0  0  0  0  0
   14.0004  -18.9357   18.7529 C   0  0  0  0  0  0  0  0  0  0  0  0
   15.0694  -18.9764   18.0758 O   0  0  0  0  0  0  0  0  0  0  0  0
   13.5564  -18.8627   15.8673 C   0  0  0  0  0  0  0  0  0  0  0  0
   14.4125  -18.0339   15.5386 O   0  0  0  0  0  0  0  0  0  0  0  0
   14.1173  -18.5860   20.0689 O   0  0  0  0  0  0  0  0  0  0  0  0
   13.5257  -20.1246   15.3269 O   0  0  0  0  0  0  0  0  0  0  0  0
  2  1  1  6
  2  3  1  0
  3  4  1  0
  4  5  1  0
  6  5  1  0
  6  7  1  0
  8  2  1  0
  8  9  2  0
 10  8  1  0
 11 10  1  0
 11 12  1  6
 13 12  1  0
 13 17  1  0
 14 13  2  0
 15 11  1  0
 16 15  2  0
 18 15  1  0
 19 18  1  0
 19 20  1  1
 20 21  1  0
 21 25  1  0
 21 22  2  0
 23 19  1  0
 24 23  2  0
 26 23  1  0
M  END
$$$$
