QWD.pdb
     RDKit          3D

 32 33  0  0  1  0  0  0  0  0999 V2000
    8.5621  -12.5861   17.6124 N   0  0  0  0  0  0  0  0  0  0  0  0
    7.3883  -13.4192   17.6478 C   0  0  0  0  0  0  0  0  0  0  0  0
    6.6841  -13.4243   16.6222 O   0  0  0  0  0  0  0  0  0  0  0  0
    7.0682  -14.2057   18.8549 C   0  0  0  0  0  0  0  0  0  0  0  0
    8.1045  -14.1360   19.9256 C   0  0  0  0  0  0  0  0  0  0  0  0
    8.3686  -15.4797   20.5326 C   0  0  2  0  0  0  0  0  0  0  0  0
    7.2082  -16.2802   20.6742 N   0  0  0  0  0  0  0  0  0  0  0  0
    9.1511  -15.3737   21.7874 C   0  0  0  0  0  0  0  0  0  0  0  0
   10.1608  -14.6055   21.7438 O   0  0  0  0  0  0  0  0  0  0  0  0
    8.8869  -16.0269   22.9937 N   0  0  0  0  0  0  0  0  0  0  0  0
    9.6565  -15.7893   24.1994 C   0  0  1  0  0  0  0  0  0  0  0  0
    8.7934  -16.1299   25.3845 C   0  0  0  0  0  0  0  0  0  0  0  0
    7.6077  -15.2649   25.5011 C   0  0  0  0  0  0  0  0  0  0  0  0
    6.2923  -15.6434   25.3329 C   0  0  0  0  0  0  0  0  0  0  0  0
    5.4900  -14.5817   25.5190 N   0  0  0  0  0  0  0  0  0  0  0  0
    6.2826  -13.5085   25.8092 C   0  0  0  0  0  0  0  0  0  0  0  0
    5.9891  -12.1886   26.0852 C   0  0  0  0  0  0  0  0  0  0  0  0
    7.0150  -11.3155   26.3451 C   0  0  0  0  0  0  0  0  0  0  0  0
    8.3369  -11.7089   26.3411 C   0  0  0  0  0  0  0  0  0  0  0  0
    8.6375  -13.0249   26.0666 C   0  0  0  0  0  0  0  0  0  0  0  0
    7.6165  -13.9132   25.8037 C   0  0  0  0  0  0  0  0  0  0  0  0
   10.8659  -16.6424   24.1124 C   0  0  0  0  0  0  0  0  0  0  0  0
   10.7451  -17.7270   23.4841 O   0  0  0  0  0  0  0  0  0  0  0  0
   12.1029  -16.3253   24.6711 N   0  0  0  0  0  0  0  0  0  0  0  0
   13.2286  -17.2773   24.5491 C   0  0  1  0  0  0  0  0  0  0  0  0
   14.5140  -16.4865   24.3510 C   0  0  0  0  0  0  0  0  0  0  0  0
   15.6426  -17.4008   24.2447 C   0  0  0  0  0  0  0  0  0  0  0  0
   16.0315  -18.2312   25.0884 O   0  0  0  0  0  0  0  0  0  0  0  0
   13.2129  -18.0437   25.8135 C   0  0  0  0  0  0  0  0  0  0  0  0
   13.7880  -19.2835   25.9675 O   0  0  0  0  0  0  0  0  0  0  0  0
   16.3921  -17.3518   23.0523 O   0  0  0  0  0  0  0  0  0  0  0  0
   12.6491  -17.5629   26.8251 O   0  0  0  0  0  0  0  0  0  0  0  0
  2  1  1  0
  3  2  2  0
  4  2  1  0
  5  4  1  0
  6  8  1  0
  6  5  1  0
  6  7  1  1
  8  9  2  0
 10 11  1  0
 10  8  1  0
 11 12  1  1
 12 13  1  0
 13 14  2  0
 15 14  1  0
 16 15  1  0
 17 16  2  0
 18 17  1  0
 19 20  1  0
 19 18  2  0
 20 21  2  0
 21 16  1  0
 21 13  1  0
 22 11  1  0
 23 22  2  0
 24 22  1  0
 25 24  1  0
 25 26  1  1
 27 26  1  0
 27 28  2  0
 29 25  1  0
 29 30  1  0
 31 27  1  0
 32 29  2  0
M  END
$$$$
