QWD.pdb
     RDKit          3D

 32 33  0  0  1  0  0  0  0  0999 V2000
    8.8798  -13.0916   15.2244 N   0  0  0  0  0  0  0  0  0  0  0  0
    7.6665  -13.7844   15.5724 C   0  0  0  0  0  0  0  0  0  0  0  0
    6.7666  -13.7869   14.7132 O   0  0  0  0  0  0  0  0  0  0  0  0
    7.5329  -14.4393   16.8882 C   0  0  0  0  0  0  0  0  0  0  0  0
    8.7313  -14.3033   17.7660 C   0  0  0  0  0  0  0  0  0  0  0  0
    8.9203  -15.5054   18.6395 C   0  0  2  0  0  0  0  0  0  0  0  0
    8.0602  -16.5848   18.3193 N   0  0  0  0  0  0  0  0  0  0  0  0
    8.8882  -15.1515   20.0789 C   0  0  0  0  0  0  0  0  0  0  0  0
    9.6769  -14.2229   20.4356 O   0  0  0  0  0  0  0  0  0  0  0  0
    8.0851  -15.7321   21.0636 N   0  0  0  0  0  0  0  0  0  0  0  0
    8.1905  -15.3845   22.4674 C   0  0  1  0  0  0  0  0  0  0  0  0
    6.8161  -15.4599   23.0762 C   0  0  0  0  0  0  0  0  0  0  0  0
    6.8007  -15.1171   24.5080 C   0  0  0  0  0  0  0  0  0  0  0  0
    6.6505  -15.9926   25.5630 C   0  0  0  0  0  0  0  0  0  0  0  0
    6.6888  -15.3134   26.7217 N   0  0  0  0  0  0  0  0  0  0  0  0
    6.8643  -13.9926   26.4230 C   0  0  0  0  0  0  0  0  0  0  0  0
    6.9716  -12.8700   27.2183 C   0  0  0  0  0  0  0  0  0  0  0  0
    7.1465  -11.6450   26.6259 C   0  0  0  0  0  0  0  0  0  0  0  0
    7.2196  -11.4914   25.2573 C   0  0  0  0  0  0  0  0  0  0  0  0
    7.1133  -12.6076   24.4570 C   0  0  0  0  0  0  0  0  0  0  0  0
    6.9374  -13.8450   25.0389 C   0  0  0  0  0  0  0  0  0  0  0  0
    9.1373  -16.3477   23.0788 C   0  0  0  0  0  0  0  0  0  0  0  0
    9.1056  -17.5259   22.6354 O   0  0  0  0  0  0  0  0  0  0  0  0
   10.0418  -16.0369   24.0927 N   0  0  0  0  0  0  0  0  0  0  0  0
   11.1137  -16.9960   24.4389 C   0  0  1  0  0  0  0  0  0  0  0  0
   12.4571  -16.3661   24.0995 C   0  0  0  0  0  0  0  0  0  0  0  0
   13.5318  -17.2924   24.4281 C   0  0  0  0  0  0  0  0  0  0  0  0
   14.3894  -17.1759   25.3245 O   0  0  0  0  0  0  0  0  0  0  0  0
   10.9436  -17.2451   25.8864 C   0  0  0  0  0  0  0  0  0  0  0  0
   11.4588  -18.3379   26.5436 O   0  0  0  0  0  0  0  0  0  0  0  0
   13.6247  -18.4628   23.6488 O   0  0  0  0  0  0  0  0  0  0  0  0
   10.2954  -16.4305   26.5856 O   0  0  0  0  0  0  0  0  0  0  0  0
  2  1  1  0
  3  2  2  0
  4  2  1  0
  5  4  1  0
  6  8  1  0
  6  5  1  0
  6  7  1  1
  8  9  2  0
 10 11  1  0
 10  8  1  0
 11 12  1  1
 12 13  1  0
 13 14  2  0
 15 14  1  0
 16 15  1  0
 17 16  2  0
 18 17  1  0
 19 20  1  0
 19 18  2  0
 20 21  2  0
 21 16  1  0
 21 13  1  0
 22 11  1  0
 23 22  2  0
 24 22  1  0
 25 24  1  0
 25 26  1  1
 27 26  1  0
 27 28  2  0
 29 25  1  0
 29 30  1  0
 31 27  1  0
 32 29  2  0
M  END
$$$$
