QWD.pdb
     RDKit          3D

 32 33  0  0  1  0  0  0  0  0999 V2000
    8.0240  -12.4931   18.2394 N   0  0  0  0  0  0  0  0  0  0  0  0
    7.5836  -13.7759   17.7560 C   0  0  0  0  0  0  0  0  0  0  0  0
    7.2023  -13.8183   16.5725 O   0  0  0  0  0  0  0  0  0  0  0  0
    7.5935  -14.9522   18.6472 C   0  0  0  0  0  0  0  0  0  0  0  0
    8.1075  -14.6776   20.0204 C   0  0  0  0  0  0  0  0  0  0  0  0
    8.4211  -15.9418   20.7602 C   0  0  2  0  0  0  0  0  0  0  0  0
    7.3140  -16.8163   20.8910 N   0  0  0  0  0  0  0  0  0  0  0  0
    9.0967  -15.6716   22.0519 C   0  0  0  0  0  0  0  0  0  0  0  0
    9.9782  -14.7582   22.0321 O   0  0  0  0  0  0  0  0  0  0  0  0
    8.8590  -16.3148   23.2690 N   0  0  0  0  0  0  0  0  0  0  0  0
    9.6385  -16.0486   24.4623 C   0  0  1  0  0  0  0  0  0  0  0  0
    8.7298  -16.1709   25.6560 C   0  0  0  0  0  0  0  0  0  0  0  0
    7.5701  -15.2662   25.5922 C   0  0  0  0  0  0  0  0  0  0  0  0
    6.2731  -15.6107   25.2744 C   0  0  0  0  0  0  0  0  0  0  0  0
    5.4919  -14.5184   25.3205 N   0  0  0  0  0  0  0  0  0  0  0  0
    6.2799  -13.4591   25.6689 C   0  0  0  0  0  0  0  0  0  0  0  0
    6.0012  -12.1209   25.8584 C   0  0  0  0  0  0  0  0  0  0  0  0
    7.0172  -11.2699   26.2131 C   0  0  0  0  0  0  0  0  0  0  0  0
    8.3146  -11.7033   26.3887 C   0  0  0  0  0  0  0  0  0  0  0  0
    8.6003  -13.0378   26.2014 C   0  0  0  0  0  0  0  0  0  0  0  0
    7.5890  -13.9043   25.8448 C   0  0  0  0  0  0  0  0  0  0  0  0
   10.7426  -17.0378   24.4840 C   0  0  0  0  0  0  0  0  0  0  0  0
   10.4999  -18.1628   23.9728 O   0  0  0  0  0  0  0  0  0  0  0  0
   12.0065  -16.8050   25.0237 N   0  0  0  0  0  0  0  0  0  0  0  0
   12.9648  -17.9241   25.1566 C   0  0  1  0  0  0  0  0  0  0  0  0
   14.3771  -17.3721   25.0252 C   0  0  0  0  0  0  0  0  0  0  0  0
   14.5289  -16.7110   23.7364 C   0  0  0  0  0  0  0  0  0  0  0  0
   14.4522  -17.2247   22.6037 O   0  0  0  0  0  0  0  0  0  0  0  0
   12.6923  -18.4972   26.4921 C   0  0  0  0  0  0  0  0  0  0  0  0
   13.3076  -19.6243   26.9846 O   0  0  0  0  0  0  0  0  0  0  0  0
   14.7937  -15.3270   23.7576 O   0  0  0  0  0  0  0  0  0  0  0  0
   11.8548  -17.9467   27.2459 O   0  0  0  0  0  0  0  0  0  0  0  0
  2  1  1  0
  3  2  2  0
  4  2  1  0
  5  4  1  0
  6  8  1  0
  6  5  1  0
  6  7  1  1
  8  9  2  0
 10 11  1  0
 10  8  1  0
 11 12  1  1
 12 13  1  0
 13 14  2  0
 15 14  1  0
 16 15  1  0
 17 16  2  0
 18 17  1  0
 19 20  1  0
 19 18  2  0
 20 21  2  0
 21 16  1  0
 21 13  1  0
 22 11  1  0
 23 22  2  0
 24 22  1  0
 25 24  1  0
 25 26  1  1
 27 26  1  0
 27 28  2  0
 29 25  1  0
 29 30  1  0
 31 27  1  0
 32 29  2  0
M  END
$$$$
