QWD.pdb
     RDKit          3D

 32 33  0  0  1  0  0  0  0  0999 V2000
    8.7985  -12.5108   18.1137 N   0  0  0  0  0  0  0  0  0  0  0  0
    7.8186  -13.5169   17.7964 C   0  0  0  0  0  0  0  0  0  0  0  0
    7.4107  -13.5386   16.6212 O   0  0  0  0  0  0  0  0  0  0  0  0
    7.3443  -14.4503   18.8366 C   0  0  0  0  0  0  0  0  0  0  0  0
    8.0041  -14.2775   20.1632 C   0  0  0  0  0  0  0  0  0  0  0  0
    8.4033  -15.5915   20.7613 C   0  0  2  0  0  0  0  0  0  0  0  0
    7.3406  -16.5243   20.8513 N   0  0  0  0  0  0  0  0  0  0  0  0
    9.1256  -15.4167   22.0442 C   0  0  0  0  0  0  0  0  0  0  0  0
   10.0671  -14.5652   22.0347 O   0  0  0  0  0  0  0  0  0  0  0  0
    8.8724  -16.0878   23.2431 N   0  0  0  0  0  0  0  0  0  0  0  0
    9.6555  -15.8709   24.4440 C   0  0  1  0  0  0  0  0  0  0  0  0
    8.7523  -16.0507   25.6346 C   0  0  0  0  0  0  0  0  0  0  0  0
    7.5697  -15.1745   25.5981 C   0  0  0  0  0  0  0  0  0  0  0  0
    6.2823  -15.5418   25.2670 C   0  0  0  0  0  0  0  0  0  0  0  0
    5.4733  -14.4720   25.3471 N   0  0  0  0  0  0  0  0  0  0  0  0
    6.2334  -13.4047   25.7310 C   0  0  0  0  0  0  0  0  0  0  0  0
    5.9201  -12.0810   25.9634 C   0  0  0  0  0  0  0  0  0  0  0  0
    6.9135  -11.2161   26.3473 C   0  0  0  0  0  0  0  0  0  0  0  0
    8.2215  -11.6214   26.5111 C   0  0  0  0  0  0  0  0  0  0  0  0
    8.5416  -12.9414   26.2810 C   0  0  0  0  0  0  0  0  0  0  0  0
    7.5533  -13.8216   25.8947 C   0  0  0  0  0  0  0  0  0  0  0  0
   10.7645  -16.8543   24.4174 C   0  0  0  0  0  0  0  0  0  0  0  0
   10.5284  -17.9531   23.8493 O   0  0  0  0  0  0  0  0  0  0  0  0
   12.0264  -16.6429   24.9704 N   0  0  0  0  0  0  0  0  0  0  0  0
   13.0000  -17.7555   25.0230 C   0  0  1  0  0  0  0  0  0  0  0  0
   14.3958  -17.1901   24.8016 C   0  0  0  0  0  0  0  0  0  0  0  0
   14.4724  -16.5703   23.4859 C   0  0  0  0  0  0  0  0  0  0  0  0
   14.1918  -17.0832   22.3855 O   0  0  0  0  0  0  0  0  0  0  0  0
   12.8246  -18.3468   26.3668 C   0  0  0  0  0  0  0  0  0  0  0  0
   13.5027  -19.4575   26.8118 O   0  0  0  0  0  0  0  0  0  0  0  0
   14.9141  -15.2330   23.4362 O   0  0  0  0  0  0  0  0  0  0  0  0
   12.0161  -17.8288   27.1734 O   0  0  0  0  0  0  0  0  0  0  0  0
  2  1  1  0
  3  2  2  0
  4  2  1  0
  5  4  1  0
  6  8  1  0
  6  5  1  0
  6  7  1  1
  8  9  2  0
 10 11  1  0
 10  8  1  0
 11 12  1  1
 12 13  1  0
 13 14  2  0
 15 14  1  0
 16 15  1  0
 17 16  2  0
 18 17  1  0
 19 20  1  0
 19 18  2  0
 20 21  2  0
 21 16  1  0
 21 13  1  0
 22 11  1  0
 23 22  2  0
 24 22  1  0
 25 24  1  0
 25 26  1  1
 27 26  1  0
 27 28  2  0
 29 25  1  0
 29 30  1  0
 31 27  1  0
 32 29  2  0
M  END
$$$$
