QWD.pdb
     RDKit          3D

 32 33  0  0  1  0  0  0  0  0999 V2000
    7.8645  -17.4173   16.0269 N   0  0  0  0  0  0  0  0  0  0  0  0
    8.3761  -16.4095   16.9189 C   0  0  0  0  0  0  0  0  0  0  0  0
    8.7120  -15.3307   16.3981 O   0  0  0  0  0  0  0  0  0  0  0  0
    8.4861  -16.6803   18.3655 C   0  0  0  0  0  0  0  0  0  0  0  0
    7.9583  -15.5900   19.2360 C   0  0  0  0  0  0  0  0  0  0  0  0
    7.4438  -16.1187   20.5396 C   0  0  2  0  0  0  0  0  0  0  0  0
    6.0689  -15.8560   20.7595 N   0  0  0  0  0  0  0  0  0  0  0  0
    8.2980  -15.7045   21.6784 C   0  0  0  0  0  0  0  0  0  0  0  0
    8.8906  -14.5896   21.5456 O   0  0  0  0  0  0  0  0  0  0  0  0
    8.5087  -16.4117   22.8646 N   0  0  0  0  0  0  0  0  0  0  0  0
    9.3672  -15.9243   23.9266 C   0  0  1  0  0  0  0  0  0  0  0  0
    8.7023  -16.2210   25.2439 C   0  0  0  0  0  0  0  0  0  0  0  0
    7.5565  -15.3393   25.5223 C   0  0  0  0  0  0  0  0  0  0  0  0
    6.2317  -15.7126   25.6081 C   0  0  0  0  0  0  0  0  0  0  0  0
    5.4758  -14.6347   25.8771 N   0  0  0  0  0  0  0  0  0  0  0  0
    6.3082  -13.5561   25.9671 C   0  0  0  0  0  0  0  0  0  0  0  0
    6.0692  -12.2210   26.2214 C   0  0  0  0  0  0  0  0  0  0  0  0
    7.1257  -11.3462   26.2509 C   0  0  0  0  0  0  0  0  0  0  0  0
    8.4257  -11.7525   26.0348 C   0  0  0  0  0  0  0  0  0  0  0  0
    8.6720  -13.0838   25.7805 C   0  0  0  0  0  0  0  0  0  0  0  0
    7.6198  -13.9741   25.7479 C   0  0  0  0  0  0  0  0  0  0  0  0
   10.6698  -16.6165   23.7781 C   0  0  0  0  0  0  0  0  0  0  0  0
   10.6274  -17.8272   23.4341 O   0  0  0  0  0  0  0  0  0  0  0  0
   11.9129  -16.0231   23.9910 N   0  0  0  0  0  0  0  0  0  0  0  0
   13.1478  -16.8042   23.7600 C   0  0  1  0  0  0  0  0  0  0  0  0
   14.2826  -15.8382   23.4504 C   0  0  0  0  0  0  0  0  0  0  0  0
   15.5121  -16.5826   23.2158 C   0  0  0  0  0  0  0  0  0  0  0  0
   15.6356  -17.6951   22.6681 O   0  0  0  0  0  0  0  0  0  0  0  0
   13.3583  -17.5566   25.0153 C   0  0  0  0  0  0  0  0  0  0  0  0
   12.8470  -17.1760   26.2341 O   0  0  0  0  0  0  0  0  0  0  0  0
   16.7114  -15.9866   23.6546 O   0  0  0  0  0  0  0  0  0  0  0  0
   14.0396  -18.6093   25.0026 O   0  0  0  0  0  0  0  0  0  0  0  0
  2  1  1  0
  3  2  2  0
  4  2  1  0
  5  4  1  0
  6  8  1  0
  6  5  1  0
  6  7  1  1
  8  9  2  0
 10 11  1  0
 10  8  1  0
 11 12  1  1
 12 13  1  0
 13 14  2  0
 15 14  1  0
 16 15  1  0
 17 16  2  0
 18 17  1  0
 19 20  1  0
 19 18  2  0
 20 21  2  0
 21 16  1  0
 21 13  1  0
 22 11  1  0
 23 22  2  0
 24 22  1  0
 25 24  1  0
 25 26  1  1
 27 26  1  0
 27 28  2  0
 29 25  1  0
 29 30  1  0
 31 27  1  0
 32 29  2  0
M  END
$$$$
