QWD.pdb
     RDKit          3D

 32 33  0  0  1  0  0  0  0  0999 V2000
    8.2531  -14.8999   16.6171 N   0  0  0  0  0  0  0  0  0  0  0  0
    7.7952  -13.9999   17.6435 C   0  0  0  0  0  0  0  0  0  0  0  0
    7.9837  -12.7874   17.4385 O   0  0  0  0  0  0  0  0  0  0  0  0
    7.1470  -14.5251   18.8609 C   0  0  0  0  0  0  0  0  0  0  0  0
    8.0062  -14.4854   20.0797 C   0  0  0  0  0  0  0  0  0  0  0  0
    8.1067  -15.8293   20.7335 C   0  0  2  0  0  0  0  0  0  0  0  0
    6.8621  -16.4928   20.8693 N   0  0  0  0  0  0  0  0  0  0  0  0
    8.8681  -15.7687   22.0042 C   0  0  0  0  0  0  0  0  0  0  0  0
    9.9658  -15.1326   21.9589 O   0  0  0  0  0  0  0  0  0  0  0  0
    8.4983  -16.3345   23.2269 N   0  0  0  0  0  0  0  0  0  0  0  0
    9.3235  -16.2420   24.4156 C   0  0  1  0  0  0  0  0  0  0  0  0
    8.4286  -16.3537   25.6206 C   0  0  0  0  0  0  0  0  0  0  0  0
    7.4126  -15.2901   25.6841 C   0  0  0  0  0  0  0  0  0  0  0  0
    6.0538  -15.4369   25.4997 C   0  0  0  0  0  0  0  0  0  0  0  0
    5.4488  -14.2448   25.6347 N   0  0  0  0  0  0  0  0  0  0  0  0
    6.4138  -13.3182   25.9078 C   0  0  0  0  0  0  0  0  0  0  0  0
    6.3537  -11.9585   26.1354 C   0  0  0  0  0  0  0  0  0  0  0  0
    7.5135  -11.2710   26.3896 C   0  0  0  0  0  0  0  0  0  0  0  0
    8.7450  -11.8907   26.4265 C   0  0  0  0  0  0  0  0  0  0  0  0
    8.8127  -13.2479   26.2004 C   0  0  0  0  0  0  0  0  0  0  0  0
    7.6551  -13.9513   25.9438 C   0  0  0  0  0  0  0  0  0  0  0  0
   10.3136  -17.3428   24.3381 C   0  0  0  0  0  0  0  0  0  0  0  0
    9.8630  -18.5134   24.4494 O   0  0  0  0  0  0  0  0  0  0  0  0
   11.6839  -17.1664   24.1535 N   0  0  0  0  0  0  0  0  0  0  0  0
   12.5624  -18.3477   24.0074 C   0  0  1  0  0  0  0  0  0  0  0  0
   12.7961  -18.5986   22.5245 C   0  0  0  0  0  0  0  0  0  0  0  0
   13.7792  -19.6594   22.3540 C   0  0  0  0  0  0  0  0  0  0  0  0
   14.3618  -20.3075   23.2447 O   0  0  0  0  0  0  0  0  0  0  0  0
   13.7998  -17.9893   24.7330 C   0  0  0  0  0  0  0  0  0  0  0  0
   14.0416  -16.7476   25.2728 O   0  0  0  0  0  0  0  0  0  0  0  0
   14.1215  -20.0044   21.0312 O   0  0  0  0  0  0  0  0  0  0  0  0
   14.7034  -18.8459   24.8824 O   0  0  0  0  0  0  0  0  0  0  0  0
  2  1  1  0
  3  2  2  0
  4  2  1  0
  5  4  1  0
  6  8  1  0
  6  5  1  0
  6  7  1  1
  8  9  2  0
 10 11  1  0
 10  8  1  0
 11 12  1  1
 12 13  1  0
 13 14  2  0
 15 14  1  0
 16 15  1  0
 17 16  2  0
 18 17  1  0
 19 20  1  0
 19 18  2  0
 20 21  2  0
 21 16  1  0
 21 13  1  0
 22 11  1  0
 23 22  2  0
 24 22  1  0
 25 24  1  0
 25 26  1  6
 27 26  1  0
 27 28  2  0
 29 25  1  0
 29 30  1  0
 31 27  1  0
 32 29  2  0
M  END
$$$$
