QWD.pdb
     RDKit          3D

 32 33  0  0  1  0  0  0  0  0999 V2000
    8.2397  -12.7578   17.3740 N   0  0  0  0  0  0  0  0  0  0  0  0
    7.8124  -14.0749   17.7689 C   0  0  0  0  0  0  0  0  0  0  0  0
    8.2022  -15.0179   17.0571 O   0  0  0  0  0  0  0  0  0  0  0  0
    6.9548  -14.2559   18.9562 C   0  0  0  0  0  0  0  0  0  0  0  0
    7.6665  -14.0965   20.2575 C   0  0  0  0  0  0  0  0  0  0  0  0
    8.2480  -15.3914   20.7358 C   0  0  2  0  0  0  0  0  0  0  0  0
    7.3295  -16.4702   20.7202 N   0  0  0  0  0  0  0  0  0  0  0  0
    8.9344  -15.2389   22.0410 C   0  0  0  0  0  0  0  0  0  0  0  0
    9.7321  -14.2556   22.1324 O   0  0  0  0  0  0  0  0  0  0  0  0
    8.7885  -16.0599   23.1619 N   0  0  0  0  0  0  0  0  0  0  0  0
    9.5615  -15.8760   24.3749 C   0  0  1  0  0  0  0  0  0  0  0  0
    8.6689  -16.1672   25.5513 C   0  0  0  0  0  0  0  0  0  0  0  0
    7.5034  -15.2707   25.6259 C   0  0  0  0  0  0  0  0  0  0  0  0
    6.1917  -15.6010   25.3571 C   0  0  0  0  0  0  0  0  0  0  0  0
    5.4097  -14.5228   25.5341 N   0  0  0  0  0  0  0  0  0  0  0  0
    6.2118  -13.4870   25.9189 C   0  0  0  0  0  0  0  0  0  0  0  0
    5.9387  -12.1703   26.2291 C   0  0  0  0  0  0  0  0  0  0  0  0
    6.9697  -11.3407   26.5907 C   0  0  0  0  0  0  0  0  0  0  0  0
    8.2771  -11.7747   26.6566 C   0  0  0  0  0  0  0  0  0  0  0  0
    8.5573  -13.0879   26.3485 C   0  0  0  0  0  0  0  0  0  0  0  0
    7.5309  -13.9328   25.9835 C   0  0  0  0  0  0  0  0  0  0  0  0
   10.7159  -16.8026   24.2934 C   0  0  0  0  0  0  0  0  0  0  0  0
   10.4661  -17.9817   23.9286 O   0  0  0  0  0  0  0  0  0  0  0  0
   12.0335  -16.4571   24.5893 N   0  0  0  0  0  0  0  0  0  0  0  0
   13.0750  -17.5069   24.6326 C   0  0  1  0  0  0  0  0  0  0  0  0
   14.4409  -16.8353   24.6451 C   0  0  0  0  0  0  0  0  0  0  0  0
   14.6865  -16.1960   23.3599 C   0  0  0  0  0  0  0  0  0  0  0  0
   15.3550  -15.1684   23.1363 O   0  0  0  0  0  0  0  0  0  0  0  0
   12.7946  -18.2652   25.8705 C   0  0  0  0  0  0  0  0  0  0  0  0
   12.1642  -17.7334   26.9711 O   0  0  0  0  0  0  0  0  0  0  0  0
   14.1061  -16.7999   22.2265 O   0  0  0  0  0  0  0  0  0  0  0  0
   13.1398  -19.4678   25.9547 O   0  0  0  0  0  0  0  0  0  0  0  0
  2  1  1  0
  3  2  2  0
  4  2  1  0
  5  4  1  0
  6  8  1  0
  6  5  1  0
  6  7  1  1
  8  9  2  0
 10 11  1  0
 10  8  1  0
 11 12  1  1
 12 13  1  0
 13 14  2  0
 15 14  1  0
 16 15  1  0
 17 16  2  0
 18 17  1  0
 19 20  1  0
 19 18  2  0
 20 21  2  0
 21 16  1  0
 21 13  1  0
 22 11  1  0
 23 22  2  0
 24 22  1  0
 25 24  1  0
 25 26  1  1
 27 26  1  0
 27 28  2  0
 29 25  1  0
 29 30  1  0
 31 27  1  0
 32 29  2  0
M  END
$$$$
