QWD.pdb
     RDKit          3D

 32 33  0  0  1  0  0  0  0  0999 V2000
    8.1006  -12.4747   18.4503 N   0  0  0  0  0  0  0  0  0  0  0  0
    7.8771  -13.7425   17.8055 C   0  0  0  0  0  0  0  0  0  0  0  0
    7.4440  -13.7002   16.6400 O   0  0  0  0  0  0  0  0  0  0  0  0
    8.1535  -15.0026   18.5224 C   0  0  0  0  0  0  0  0  0  0  0  0
    8.6157  -14.8200   19.9289 C   0  0  0  0  0  0  0  0  0  0  0  0
    8.8897  -16.1313   20.5992 C   0  0  2  0  0  0  0  0  0  0  0  0
    7.8396  -17.0727   20.4626 N   0  0  0  0  0  0  0  0  0  0  0  0
    9.3221  -15.9517   22.0058 C   0  0  0  0  0  0  0  0  0  0  0  0
   10.1789  -15.0367   22.2063 O   0  0  0  0  0  0  0  0  0  0  0  0
    8.8829  -16.6806   23.1138 N   0  0  0  0  0  0  0  0  0  0  0  0
    9.3425  -16.4111   24.4624 C   0  0  1  0  0  0  0  0  0  0  0  0
    8.1580  -16.4869   25.3880 C   0  0  0  0  0  0  0  0  0  0  0  0
    7.1944  -15.3932   25.1812 C   0  0  0  0  0  0  0  0  0  0  0  0
    6.0112  -15.4601   24.4759 C   0  0  0  0  0  0  0  0  0  0  0  0
    5.3994  -14.2643   24.5066 N   0  0  0  0  0  0  0  0  0  0  0  0
    6.1840  -13.4152   25.2332 C   0  0  0  0  0  0  0  0  0  0  0  0
    6.0393  -12.0864   25.5764 C   0  0  0  0  0  0  0  0  0  0  0  0
    7.0112  -11.4812   26.3323 C   0  0  0  0  0  0  0  0  0  0  0  0
    8.1346  -12.1542   26.7650 C   0  0  0  0  0  0  0  0  0  0  0  0
    8.2857  -13.4809   26.4263 C   0  0  0  0  0  0  0  0  0  0  0  0
    7.3168  -14.1018   25.6672 C   0  0  0  0  0  0  0  0  0  0  0  0
   10.3754  -17.4274   24.7756 C   0  0  0  0  0  0  0  0  0  0  0  0
   10.1203  -18.6123   24.4343 O   0  0  0  0  0  0  0  0  0  0  0  0
   11.5864  -17.1586   25.4113 N   0  0  0  0  0  0  0  0  0  0  0  0
   12.4977  -18.2723   25.7546 C   0  0  1  0  0  0  0  0  0  0  0  0
   13.8868  -17.7031   26.0057 C   0  0  0  0  0  0  0  0  0  0  0  0
   14.8333  -18.7900   26.2148 C   0  0  0  0  0  0  0  0  0  0  0  0
   14.6266  -20.0130   26.0945 O   0  0  0  0  0  0  0  0  0  0  0  0
   11.9017  -18.8895   26.9588 C   0  0  0  0  0  0  0  0  0  0  0  0
   11.3510  -18.1740   27.9962 O   0  0  0  0  0  0  0  0  0  0  0  0
   16.1410  -18.4312   26.5984 O   0  0  0  0  0  0  0  0  0  0  0  0
   11.8817  -20.1382   27.0724 O   0  0  0  0  0  0  0  0  0  0  0  0
  2  1  1  0
  3  2  2  0
  4  2  1  0
  5  4  1  0
  6  8  1  0
  6  5  1  0
  6  7  1  1
  8  9  2  0
 10 11  1  0
 10  8  1  0
 11 12  1  1
 12 13  1  0
 13 14  2  0
 15 14  1  0
 16 15  1  0
 17 16  2  0
 18 17  1  0
 19 20  1  0
 19 18  2  0
 20 21  2  0
 21 16  1  0
 21 13  1  0
 22 11  1  0
 23 22  2  0
 24 22  1  0
 25 24  1  0
 25 26  1  1
 27 26  1  0
 27 28  2  0
 29 25  1  0
 29 30  1  0
 31 27  1  0
 32 29  2  0
M  END
$$$$
