QWD.pdb
     RDKit          3D

 32 33  0  0  1  0  0  0  0  0999 V2000
    8.5457  -12.7863   16.5869 N   0  0  0  0  0  0  0  0  0  0  0  0
    8.1615  -14.1681   16.4591 C   0  0  0  0  0  0  0  0  0  0  0  0
    7.4188  -14.4479   15.5010 O   0  0  0  0  0  0  0  0  0  0  0  0
    8.6386  -15.1680   17.4341 C   0  0  0  0  0  0  0  0  0  0  0  0
    9.5161  -14.6116   18.5044 C   0  0  0  0  0  0  0  0  0  0  0  0
    9.9185  -15.6605   19.4952 C   0  0  2  0  0  0  0  0  0  0  0  0
    9.3965  -16.9463   19.2091 N   0  0  0  0  0  0  0  0  0  0  0  0
    9.6572  -15.2307   20.8898 C   0  0  0  0  0  0  0  0  0  0  0  0
   10.0049  -14.0435   21.1747 O   0  0  0  0  0  0  0  0  0  0  0  0
    9.0735  -15.9947   21.9034 N   0  0  0  0  0  0  0  0  0  0  0  0
    8.7229  -15.4437   23.1980 C   0  0  1  0  0  0  0  0  0  0  0  0
    7.2461  -15.1535   23.2026 C   0  0  0  0  0  0  0  0  0  0  0  0
    6.7637  -14.6412   24.4958 C   0  0  0  0  0  0  0  0  0  0  0  0
    6.1153  -15.3614   25.4770 C   0  0  0  0  0  0  0  0  0  0  0  0
    5.8304  -14.5559   26.5141 N   0  0  0  0  0  0  0  0  0  0  0  0
    6.2933  -13.3079   26.2096 C   0  0  0  0  0  0  0  0  0  0  0  0
    6.2685  -12.1162   26.9050 C   0  0  0  0  0  0  0  0  0  0  0  0
    6.8232  -10.9980   26.3356 C   0  0  0  0  0  0  0  0  0  0  0  0
    7.4084  -11.0193   25.0870 C   0  0  0  0  0  0  0  0  0  0  0  0
    7.4370  -12.2054   24.3870 C   0  0  0  0  0  0  0  0  0  0  0  0
    6.8833  -13.3370   24.9471 C   0  0  0  0  0  0  0  0  0  0  0  0
    9.1075  -16.4533   24.2133 C   0  0  0  0  0  0  0  0  0  0  0  0
    9.0186  -16.1008   25.4189 O   0  0  0  0  0  0  0  0  0  0  0  0
    9.5521  -17.7420   23.9225 N   0  0  0  0  0  0  0  0  0  0  0  0
   10.9651  -18.1038   24.1699 C   0  0  1  0  0  0  0  0  0  0  0  0
   11.8557  -17.1236   23.4197 C   0  0  0  0  0  0  0  0  0  0  0  0
   13.2551  -17.4425   23.6664 C   0  0  0  0  0  0  0  0  0  0  0  0
   13.7467  -17.9782   24.6784 O   0  0  0  0  0  0  0  0  0  0  0  0
   11.1243  -18.0197   25.6375 C   0  0  0  0  0  0  0  0  0  0  0  0
   12.1629  -18.5950   26.3317 O   0  0  0  0  0  0  0  0  0  0  0  0
   14.1728  -17.1122   22.6492 O   0  0  0  0  0  0  0  0  0  0  0  0
   10.2786  -17.3939   26.3199 O   0  0  0  0  0  0  0  0  0  0  0  0
  2  1  1  0
  3  2  2  0
  4  2  1  0
  5  4  1  0
  6  8  1  0
  6  5  1  0
  6  7  1  6
  8  9  2  0
 10 11  1  0
 10  8  1  0
 11 12  1  6
 12 13  1  0
 13 14  2  0
 15 14  1  0
 16 15  1  0
 17 16  2  0
 18 17  1  0
 19 20  1  0
 19 18  2  0
 20 21  2  0
 21 16  1  0
 21 13  1  0
 22 11  1  0
 23 22  2  0
 24 22  1  0
 25 24  1  0
 25 26  1  6
 27 26  1  0
 27 28  2  0
 29 25  1  0
 29 30  1  0
 31 27  1  0
 32 29  2  0
M  END
$$$$
