QWD.pdb
     RDKit          3D

 32 33  0  0  1  0  0  0  0  0999 V2000
    8.2643  -12.2728   19.0491 N   0  0  0  0  0  0  0  0  0  0  0  0
    8.0330  -13.4825   18.3032 C   0  0  0  0  0  0  0  0  0  0  0  0
    7.5280  -13.3466   17.1743 O   0  0  0  0  0  0  0  0  0  0  0  0
    8.3841  -14.7940   18.8818 C   0  0  0  0  0  0  0  0  0  0  0  0
    8.8846  -14.7314   20.2856 C   0  0  0  0  0  0  0  0  0  0  0  0
    9.0985  -16.0976   20.8614 C   0  0  2  0  0  0  0  0  0  0  0  0
    8.0555  -17.0106   20.5679 N   0  0  0  0  0  0  0  0  0  0  0  0
    9.4247  -16.0420   22.3065 C   0  0  0  0  0  0  0  0  0  0  0  0
   10.3703  -15.2584   22.6281 O   0  0  0  0  0  0  0  0  0  0  0  0
    8.8002  -16.7569   23.3315 N   0  0  0  0  0  0  0  0  0  0  0  0
    9.1754  -16.6192   24.7254 C   0  0  1  0  0  0  0  0  0  0  0  0
    7.9166  -16.5474   25.5475 C   0  0  0  0  0  0  0  0  0  0  0  0
    7.0982  -15.3614   25.2455 C   0  0  0  0  0  0  0  0  0  0  0  0
    6.0008  -15.3084   24.4119 C   0  0  0  0  0  0  0  0  0  0  0  0
    5.5139  -14.0563   24.3862 N   0  0  0  0  0  0  0  0  0  0  0  0
    6.2944  -13.2906   25.2042 C   0  0  0  0  0  0  0  0  0  0  0  0
    6.2478  -11.9536   25.5424 C   0  0  0  0  0  0  0  0  0  0  0  0
    7.1854  -11.4496   26.4080 C   0  0  0  0  0  0  0  0  0  0  0  0
    8.1791  -12.2330   26.9565 C   0  0  0  0  0  0  0  0  0  0  0  0
    8.2317  -13.5687   26.6235 C   0  0  0  0  0  0  0  0  0  0  0  0
    7.2959  -14.0886   25.7549 C   0  0  0  0  0  0  0  0  0  0  0  0
   10.0099  -17.7967   25.0642 C   0  0  0  0  0  0  0  0  0  0  0  0
    9.7897  -18.8494   24.4091 O   0  0  0  0  0  0  0  0  0  0  0  0
   11.0027  -17.8110   26.0425 N   0  0  0  0  0  0  0  0  0  0  0  0
   11.6880  -19.0796   26.3737 C   0  0  1  0  0  0  0  0  0  0  0  0
   12.7788  -19.3260   25.3412 C   0  0  0  0  0  0  0  0  0  0  0  0
   13.7690  -18.2602   25.4078 C   0  0  0  0  0  0  0  0  0  0  0  0
   13.7363  -17.2340   26.1139 O   0  0  0  0  0  0  0  0  0  0  0  0
   12.2213  -18.8750   27.7375 C   0  0  0  0  0  0  0  0  0  0  0  0
   12.1120  -17.6954   28.4362 O   0  0  0  0  0  0  0  0  0  0  0  0
   14.9032  -18.3916   24.5819 O   0  0  0  0  0  0  0  0  0  0  0  0
   12.8149  -19.8134   28.3203 O   0  0  0  0  0  0  0  0  0  0  0  0
  2  1  1  0
  3  2  2  0
  4  2  1  0
  5  4  1  0
  6  8  1  0
  6  5  1  0
  6  7  1  1
  8  9  2  0
 10 11  1  0
 10  8  1  0
 11 12  1  1
 12 13  1  0
 13 14  2  0
 15 14  1  0
 16 15  1  0
 17 16  2  0
 18 17  1  0
 19 20  1  0
 19 18  2  0
 20 21  2  0
 21 16  1  0
 21 13  1  0
 22 11  1  0
 23 22  2  0
 24 22  1  0
 25 24  1  0
 25 26  1  6
 27 26  1  0
 27 28  2  0
 29 25  1  0
 29 30  1  0
 31 27  1  0
 32 29  2  0
M  END
$$$$
