QWD.pdb
     RDKit          3D

 32 33  0  0  1  0  0  0  0  0999 V2000
   10.6842  -16.9383   15.7283 N   0  0  0  0  0  0  0  0  0  0  0  0
   10.3024  -18.3032   15.9819 C   0  0  0  0  0  0  0  0  0  0  0  0
   10.1935  -19.0401   14.9854 O   0  0  0  0  0  0  0  0  0  0  0  0
   10.0571  -18.7648   17.3621 C   0  0  0  0  0  0  0  0  0  0  0  0
   10.1662  -17.6947   18.3957 C   0  0  0  0  0  0  0  0  0  0  0  0
    9.8788  -18.2171   19.7698 C   0  0  2  0  0  0  0  0  0  0  0  0
    8.7229  -19.0335   19.8400 N   0  0  0  0  0  0  0  0  0  0  0  0
    9.8811  -17.1347   20.7828 C   0  0  0  0  0  0  0  0  0  0  0  0
   10.9324  -16.4245   20.8278 O   0  0  0  0  0  0  0  0  0  0  0  0
    8.8532  -16.8260   21.6772 N   0  0  0  0  0  0  0  0  0  0  0  0
    8.9521  -15.7509   22.6451 C   0  0  1  0  0  0  0  0  0  0  0  0
    7.5708  -15.2022   22.8829 C   0  0  0  0  0  0  0  0  0  0  0  0
    7.5780  -13.9090   23.5867 C   0  0  0  0  0  0  0  0  0  0  0  0
    7.9625  -12.6907   23.0674 C   0  0  0  0  0  0  0  0  0  0  0  0
    7.8320  -11.7386   24.0065 N   0  0  0  0  0  0  0  0  0  0  0  0
    7.3616  -12.3360   25.1406 C   0  0  0  0  0  0  0  0  0  0  0  0
    7.0510  -11.8370   26.3891 C   0  0  0  0  0  0  0  0  0  0  0  0
    6.5883  -12.6937   27.3556 C   0  0  0  0  0  0  0  0  0  0  0  0
    6.4205  -14.0432   27.1258 C   0  0  0  0  0  0  0  0  0  0  0  0
    6.7284  -14.5484   25.8818 C   0  0  0  0  0  0  0  0  0  0  0  0
    7.1944  -13.6989   24.9010 C   0  0  0  0  0  0  0  0  0  0  0  0
    9.5531  -16.3297   23.8705 C   0  0  0  0  0  0  0  0  0  0  0  0
    9.0480  -17.4037   24.2914 O   0  0  0  0  0  0  0  0  0  0  0  0
   10.6206  -15.7709   24.5712 N   0  0  0  0  0  0  0  0  0  0  0  0
   11.2746  -16.5435   25.6501 C   0  0  1  0  0  0  0  0  0  0  0  0
   10.3100  -17.6182   26.1309 C   0  0  0  0  0  0  0  0  0  0  0  0
   10.3194  -17.6722   27.5862 C   0  0  0  0  0  0  0  0  0  0  0  0
   10.9727  -16.9571   28.3702 O   0  0  0  0  0  0  0  0  0  0  0  0
   12.4947  -17.1010   25.0282 C   0  0  0  0  0  0  0  0  0  0  0  0
   13.5464  -17.6300   25.7393 O   0  0  0  0  0  0  0  0  0  0  0  0
    9.4972  -18.6426   28.1932 O   0  0  0  0  0  0  0  0  0  0  0  0
   12.6092  -17.1065   23.7795 O   0  0  0  0  0  0  0  0  0  0  0  0
  2  1  1  0
  3  2  2  0
  4  2  1  0
  5  4  1  0
  6  8  1  0
  6  5  1  0
  6  7  1  6
  8  9  2  0
 10 11  1  0
 10  8  1  0
 11 12  1  1
 12 13  1  0
 13 14  2  0
 15 14  1  0
 16 15  1  0
 17 16  2  0
 18 17  1  0
 19 20  1  0
 19 18  2  0
 20 21  2  0
 21 16  1  0
 21 13  1  0
 22 11  1  0
 23 22  2  0
 24 22  1  0
 25 24  1  0
 25 26  1  6
 27 26  1  0
 27 28  2  0
 29 25  1  0
 29 30  1  0
 31 27  1  0
 32 29  2  0
M  END
$$$$
