QWD.pdb
     RDKit          3D

 32 33  0  0  1  0  0  0  0  0999 V2000
    8.1305  -17.1462   15.7443 N   0  0  0  0  0  0  0  0  0  0  0  0
    8.8432  -16.1140   16.4514 C   0  0  0  0  0  0  0  0  0  0  0  0
   10.0446  -15.9742   16.1601 O   0  0  0  0  0  0  0  0  0  0  0  0
    8.1532  -15.2908   17.4635 C   0  0  0  0  0  0  0  0  0  0  0  0
    8.4384  -15.6849   18.8736 C   0  0  0  0  0  0  0  0  0  0  0  0
    7.7614  -14.7761   19.8531 C   0  0  2  0  0  0  0  0  0  0  0  0
    7.5822  -13.4541   19.3757 N   0  0  0  0  0  0  0  0  0  0  0  0
    8.4072  -14.8236   21.1867 C   0  0  0  0  0  0  0  0  0  0  0  0
    9.1333  -13.8254   21.4831 O   0  0  0  0  0  0  0  0  0  0  0  0
    8.2938  -15.8448   22.1333 N   0  0  0  0  0  0  0  0  0  0  0  0
    8.8535  -15.7438   23.4671 C   0  0  1  0  0  0  0  0  0  0  0  0
    7.7426  -15.9502   24.4615 C   0  0  0  0  0  0  0  0  0  0  0  0
    7.0256  -14.7072   24.7903 C   0  0  0  0  0  0  0  0  0  0  0  0
    5.7926  -14.3162   24.3119 C   0  0  0  0  0  0  0  0  0  0  0  0
    5.4628  -13.1237   24.8359 N   0  0  0  0  0  0  0  0  0  0  0  0
    6.4817  -12.7354   25.6577 C   0  0  0  0  0  0  0  0  0  0  0  0
    6.6653  -11.6114   26.4370 C   0  0  0  0  0  0  0  0  0  0  0  0
    7.8158  -11.4897   27.1746 C   0  0  0  0  0  0  0  0  0  0  0  0
    8.8021  -12.4535   27.1669 C   0  0  0  0  0  0  0  0  0  0  0  0
    8.6257  -13.5783   26.3914 C   0  0  0  0  0  0  0  0  0  0  0  0
    7.4744  -13.7139   25.6451 C   0  0  0  0  0  0  0  0  0  0  0  0
    9.9090  -16.7799   23.5699 C   0  0  0  0  0  0  0  0  0  0  0  0
    9.6657  -17.8869   23.0213 O   0  0  0  0  0  0  0  0  0  0  0  0
   11.1288  -16.6085   24.2223 N   0  0  0  0  0  0  0  0  0  0  0  0
   12.0133  -17.7738   24.4418 C   0  0  1  0  0  0  0  0  0  0  0  0
   13.4593  -17.3000   24.4018 C   0  0  0  0  0  0  0  0  0  0  0  0
   13.8116  -16.9095   23.0438 C   0  0  0  0  0  0  0  0  0  0  0  0
   13.9449  -15.7550   22.5941 O   0  0  0  0  0  0  0  0  0  0  0  0
   11.6172  -18.3040   25.7639 C   0  0  0  0  0  0  0  0  0  0  0  0
   12.1071  -19.4713   26.3017 O   0  0  0  0  0  0  0  0  0  0  0  0
   14.0309  -17.9495   22.1183 O   0  0  0  0  0  0  0  0  0  0  0  0
   10.7863  -17.6760   26.4622 O   0  0  0  0  0  0  0  0  0  0  0  0
  2  1  1  0
  3  2  2  0
  4  2  1  0
  5  4  1  0
  6  8  1  0
  6  5  1  0
  6  7  1  6
  8  9  2  0
 10 11  1  0
 10  8  1  0
 11 12  1  1
 12 13  1  0
 13 14  2  0
 15 14  1  0
 16 15  1  0
 17 16  2  0
 18 17  1  0
 19 20  1  0
 19 18  2  0
 20 21  2  0
 21 16  1  0
 21 13  1  0
 22 11  1  0
 23 22  2  0
 24 22  1  0
 25 24  1  0
 25 26  1  1
 27 26  1  0
 27 28  2  0
 29 25  1  0
 29 30  1  0
 31 27  1  0
 32 29  2  0
M  END
$$$$
