QWD.pdb
     RDKit          3D

 32 33  0  0  1  0  0  0  0  0999 V2000
    9.4576  -13.3613   18.0343 N   0  0  0  0  0  0  0  0  0  0  0  0
    8.0629  -13.6711   17.8551 C   0  0  0  0  0  0  0  0  0  0  0  0
    7.6757  -13.8137   16.6814 O   0  0  0  0  0  0  0  0  0  0  0  0
    7.1714  -13.7992   19.0242 C   0  0  0  0  0  0  0  0  0  0  0  0
    7.8757  -13.7747   20.3389 C   0  0  0  0  0  0  0  0  0  0  0  0
    8.3142  -15.1435   20.7607 C   0  0  2  0  0  0  0  0  0  0  0  0
    7.2912  -16.1206   20.6809 N   0  0  0  0  0  0  0  0  0  0  0  0
    8.9894  -15.1239   22.0804 C   0  0  0  0  0  0  0  0  0  0  0  0
    9.8943  -14.2450   22.2233 O   0  0  0  0  0  0  0  0  0  0  0  0
    8.7284  -15.9657   23.1644 N   0  0  0  0  0  0  0  0  0  0  0  0
    9.4386  -15.8651   24.4246 C   0  0  1  0  0  0  0  0  0  0  0  0
    8.4549  -16.0971   25.5399 C   0  0  0  0  0  0  0  0  0  0  0  0
    7.3618  -15.1110   25.5583 C   0  0  0  0  0  0  0  0  0  0  0  0
    6.0400  -15.3405   25.2387 C   0  0  0  0  0  0  0  0  0  0  0  0
    5.3391  -14.2020   25.3735 N   0  0  0  0  0  0  0  0  0  0  0  0
    6.2044  -13.2278   25.7817 C   0  0  0  0  0  0  0  0  0  0  0  0
    6.0238  -11.8901   26.0684 C   0  0  0  0  0  0  0  0  0  0  0  0
    7.1017  -11.1396   26.4647 C   0  0  0  0  0  0  0  0  0  0  0  0
    8.3670  -11.6742   26.5883 C   0  0  0  0  0  0  0  0  0  0  0  0
    8.5548  -13.0090   26.3040 C   0  0  0  0  0  0  0  0  0  0  0  0
    7.4804  -13.7751   25.9046 C   0  0  0  0  0  0  0  0  0  0  0  0
   10.5148  -16.8842   24.3939 C   0  0  0  0  0  0  0  0  0  0  0  0
   10.2283  -17.9890   23.8617 O   0  0  0  0  0  0  0  0  0  0  0  0
   11.7977  -16.6997   24.9068 N   0  0  0  0  0  0  0  0  0  0  0  0
   12.7336  -17.8436   24.9710 C   0  0  1  0  0  0  0  0  0  0  0  0
   14.1574  -17.3057   24.9859 C   0  0  0  0  0  0  0  0  0  0  0  0
   14.5189  -16.8338   23.6564 C   0  0  0  0  0  0  0  0  0  0  0  0
   13.8330  -16.8867   22.6174 O   0  0  0  0  0  0  0  0  0  0  0  0
   12.3738  -18.5556   26.2159 C   0  0  0  0  0  0  0  0  0  0  0  0
   11.4818  -18.0745   27.1457 O   0  0  0  0  0  0  0  0  0  0  0  0
   15.7915  -16.2456   23.5132 O   0  0  0  0  0  0  0  0  0  0  0  0
   12.8958  -19.6672   26.4695 O   0  0  0  0  0  0  0  0  0  0  0  0
  2  1  1  0
  3  2  2  0
  4  2  1  0
  5  4  1  0
  6  8  1  0
  6  5  1  0
  6  7  1  1
  8  9  2  0
 10 11  1  0
 10  8  1  0
 11 12  1  1
 12 13  1  0
 13 14  2  0
 15 14  1  0
 16 15  1  0
 17 16  2  0
 18 17  1  0
 19 20  1  0
 19 18  2  0
 20 21  2  0
 21 16  1  0
 21 13  1  0
 22 11  1  0
 23 22  2  0
 24 22  1  0
 25 24  1  0
 25 26  1  1
 27 26  1  0
 27 28  2  0
 29 25  1  0
 29 30  1  0
 31 27  1  0
 32 29  2  0
M  END
$$$$
