QWD.pdb
     RDKit          3D

 32 33  0  0  1  0  0  0  0  0999 V2000
    8.8794  -12.6305   18.3741 N   0  0  0  0  0  0  0  0  0  0  0  0
    8.1746  -13.7932   17.9002 C   0  0  0  0  0  0  0  0  0  0  0  0
    7.8321  -13.7815   16.7042 O   0  0  0  0  0  0  0  0  0  0  0  0
    7.8880  -14.9155   18.8148 C   0  0  0  0  0  0  0  0  0  0  0  0
    8.3314  -14.6900   20.2210 C   0  0  0  0  0  0  0  0  0  0  0  0
    8.7648  -15.9641   20.8788 C   0  0  2  0  0  0  0  0  0  0  0  0
    7.8485  -17.0322   20.7137 N   0  0  0  0  0  0  0  0  0  0  0  0
    9.1504  -15.7504   22.2943 C   0  0  0  0  0  0  0  0  0  0  0  0
   10.0067  -14.8361   22.5000 O   0  0  0  0  0  0  0  0  0  0  0  0
    8.6684  -16.4470   23.4052 N   0  0  0  0  0  0  0  0  0  0  0  0
    9.1710  -16.2275   24.7475 C   0  0  1  0  0  0  0  0  0  0  0  0
    8.0234  -16.3732   25.7103 C   0  0  0  0  0  0  0  0  0  0  0  0
    7.1098  -15.2187   25.6966 C   0  0  0  0  0  0  0  0  0  0  0  0
    5.7560  -15.2428   25.4349 C   0  0  0  0  0  0  0  0  0  0  0  0
    5.2589  -13.9970   25.5147 N   0  0  0  0  0  0  0  0  0  0  0  0
    6.2896  -13.1582   25.8289 C   0  0  0  0  0  0  0  0  0  0  0  0
    6.3445  -11.7942   26.0303 C   0  0  0  0  0  0  0  0  0  0  0  0
    7.5474  -11.2119   26.3411 C   0  0  0  0  0  0  0  0  0  0  0  0
    8.7111  -11.9423   26.4606 C   0  0  0  0  0  0  0  0  0  0  0  0
    8.6639  -13.3045   26.2610 C   0  0  0  0  0  0  0  0  0  0  0  0
    7.4619  -13.9029   25.9482 C   0  0  0  0  0  0  0  0  0  0  0  0
   10.2372  -17.2317   24.9768 C   0  0  0  0  0  0  0  0  0  0  0  0
   10.1304  -18.3185   24.3497 O   0  0  0  0  0  0  0  0  0  0  0  0
   11.3281  -17.0517   25.8256 N   0  0  0  0  0  0  0  0  0  0  0  0
   12.1762  -18.2091   26.1856 C   0  0  1  0  0  0  0  0  0  0  0  0
   13.6365  -17.7958   26.0688 C   0  0  0  0  0  0  0  0  0  0  0  0
   13.9384  -17.4407   24.6891 C   0  0  0  0  0  0  0  0  0  0  0  0
   13.4459  -17.9269   23.6528 O   0  0  0  0  0  0  0  0  0  0  0  0
   11.7826  -18.5488   27.5698 C   0  0  0  0  0  0  0  0  0  0  0  0
   12.2700  -19.6319   28.2632 O   0  0  0  0  0  0  0  0  0  0  0  0
   14.8986  -16.4292   24.4870 O   0  0  0  0  0  0  0  0  0  0  0  0
   10.9562  -17.8265   28.1763 O   0  0  0  0  0  0  0  0  0  0  0  0
  2  1  1  0
  3  2  2  0
  4  2  1  0
  5  4  1  0
  6  8  1  0
  6  5  1  0
  6  7  1  1
  8  9  2  0
 10 11  1  0
 10  8  1  0
 11 12  1  1
 12 13  1  0
 13 14  2  0
 15 14  1  0
 16 15  1  0
 17 16  2  0
 18 17  1  0
 19 20  1  0
 19 18  2  0
 20 21  2  0
 21 16  1  0
 21 13  1  0
 22 11  1  0
 23 22  2  0
 24 22  1  0
 25 24  1  0
 25 26  1  1
 27 26  1  0
 27 28  2  0
 29 25  1  0
 29 30  1  0
 31 27  1  0
 32 29  2  0
M  END
$$$$
