QWD.pdb
     RDKit          3D

 32 33  0  0  1  0  0  0  0  0999 V2000
    8.4008  -12.4937   17.9796 N   0  0  0  0  0  0  0  0  0  0  0  0
    7.3781  -13.4626   17.6824 C   0  0  0  0  0  0  0  0  0  0  0  0
    6.9709  -13.4924   16.5072 O   0  0  0  0  0  0  0  0  0  0  0  0
    6.8621  -14.3511   18.7420 C   0  0  0  0  0  0  0  0  0  0  0  0
    7.5690  -14.2221   20.0492 C   0  0  0  0  0  0  0  0  0  0  0  0
    8.0636  -15.5454   20.5471 C   0  0  2  0  0  0  0  0  0  0  0  0
    7.0587  -16.5421   20.6143 N   0  0  0  0  0  0  0  0  0  0  0  0
    8.8243  -15.4092   21.8123 C   0  0  0  0  0  0  0  0  0  0  0  0
    9.7735  -14.5664   21.7964 O   0  0  0  0  0  0  0  0  0  0  0  0
    8.5992  -16.1075   23.0012 N   0  0  0  0  0  0  0  0  0  0  0  0
    9.4250  -15.9353   24.1806 C   0  0  1  0  0  0  0  0  0  0  0  0
    8.5946  -16.2695   25.3905 C   0  0  0  0  0  0  0  0  0  0  0  0
    7.4809  -15.3301   25.6022 C   0  0  0  0  0  0  0  0  0  0  0  0
    6.1347  -15.6130   25.5039 C   0  0  0  0  0  0  0  0  0  0  0  0
    5.4206  -14.5056   25.7670 N   0  0  0  0  0  0  0  0  0  0  0  0
    6.3017  -13.4981   26.0374 C   0  0  0  0  0  0  0  0  0  0  0  0
    6.1174  -12.1706   26.3662 C   0  0  0  0  0  0  0  0  0  0  0  0
    7.2151  -11.3777   26.5868 C   0  0  0  0  0  0  0  0  0  0  0  0
    8.5039  -11.8596   26.4920 C   0  0  0  0  0  0  0  0  0  0  0  0
    8.6955  -13.1838   26.1644 C   0  0  0  0  0  0  0  0  0  0  0  0
    7.6014  -13.9921   25.9400 C   0  0  0  0  0  0  0  0  0  0  0  0
   10.5912  -16.8372   24.0240 C   0  0  0  0  0  0  0  0  0  0  0  0
   10.4366  -17.8297   23.2646 O   0  0  0  0  0  0  0  0  0  0  0  0
   11.8227  -16.6587   24.6520 N   0  0  0  0  0  0  0  0  0  0  0  0
   12.9000  -17.6523   24.4500 C   0  0  1  0  0  0  0  0  0  0  0  0
   14.1515  -16.9232   23.9821 C   0  0  0  0  0  0  0  0  0  0  0  0
   15.2799  -17.8437   23.9658 C   0  0  0  0  0  0  0  0  0  0  0  0
   15.2628  -19.0645   23.7162 O   0  0  0  0  0  0  0  0  0  0  0  0
   13.0690  -18.2985   25.7691 C   0  0  0  0  0  0  0  0  0  0  0  0
   12.5481  -17.8009   26.9407 O   0  0  0  0  0  0  0  0  0  0  0  0
   16.5468  -17.3041   24.2654 O   0  0  0  0  0  0  0  0  0  0  0  0
   13.7216  -19.3654   25.8599 O   0  0  0  0  0  0  0  0  0  0  0  0
  2  1  1  0
  3  2  2  0
  4  2  1  0
  5  4  1  0
  6  8  1  0
  6  5  1  0
  6  7  1  1
  8  9  2  0
 10 11  1  0
 10  8  1  0
 11 12  1  1
 12 13  1  0
 13 14  2  0
 15 14  1  0
 16 15  1  0
 17 16  2  0
 18 17  1  0
 19 20  1  0
 19 18  2  0
 20 21  2  0
 21 16  1  0
 21 13  1  0
 22 11  1  0
 23 22  2  0
 24 22  1  0
 25 24  1  0
 25 26  1  1
 27 26  1  0
 27 28  2  0
 29 25  1  0
 29 30  1  0
 31 27  1  0
 32 29  2  0
M  END
$$$$
