FYP.pdb
     RDKit          3D

 31 33  0  0  1  0  0  0  0  0999 V2000
    6.2832  -16.2808   27.0513 N   0  0  0  0  0  0  0  0  0  0  0  0
    6.0227  -15.9591   25.6662 C   0  0  1  0  0  0  0  0  0  0  0  0
    4.9065  -14.9446   25.6504 C   0  0  0  0  0  0  0  0  0  0  0  0
    5.3238  -13.6227   26.1609 C   0  0  0  0  0  0  0  0  0  0  0  0
    4.9508  -13.1892   27.4089 C   0  0  0  0  0  0  0  0  0  0  0  0
    5.3562  -11.9501   27.8578 C   0  0  0  0  0  0  0  0  0  0  0  0
    6.1329  -11.1434   27.0634 C   0  0  0  0  0  0  0  0  0  0  0  0
    6.5077  -11.5867   25.8011 C   0  0  0  0  0  0  0  0  0  0  0  0
    6.0984  -12.8353   25.3506 C   0  0  0  0  0  0  0  0  0  0  0  0
    7.1939  -15.3916   24.9814 C   0  0  0  0  0  0  0  0  0  0  0  0
    7.4139  -14.1635   25.1135 O   0  0  0  0  0  0  0  0  0  0  0  0
   11.1903  -15.2266   29.3220 O   0  0  0  0  0  0  0  0  0  0  0  0
   11.0246  -15.3951   27.9511 C   0  0  0  0  0  0  0  0  0  0  0  0
   11.1348  -14.3459   27.0624 C   0  0  0  0  0  0  0  0  0  0  0  0
   10.9594  -14.5749   25.7084 C   0  0  0  0  0  0  0  0  0  0  0  0
   10.6753  -15.8282   25.2104 C   0  0  0  0  0  0  0  0  0  0  0  0
   10.4844  -16.0783   23.7449 C   0  0  0  0  0  0  0  0  0  0  0  0
    9.1211  -15.5278   23.3550 C   0  0  2  0  0  0  0  0  0  0  0  0
    8.0893  -16.1467   24.1814 N   0  0  0  0  0  0  0  0  0  0  0  0
    8.8969  -15.8436   21.9264 C   0  0  0  0  0  0  0  0  0  0  0  0
    8.6112  -17.0711   21.6730 O   0  0  0  0  0  0  0  0  0  0  0  0
   10.5677  -16.8692   26.1104 C   0  0  0  0  0  0  0  0  0  0  0  0
   10.7400  -16.6506   27.4533 C   0  0  0  0  0  0  0  0  0  0  0  0
    8.9685  -14.9333   20.8656 N   0  0  0  0  0  0  0  0  0  0  0  0
    9.3645  -13.5486   20.8948 C   0  0  0  0  0  0  0  0  0  0  0  0
    8.5667  -12.9055   19.7701 C   0  0  0  0  0  0  0  0  0  0  0  0
    7.8917  -14.0185   19.0483 C   0  0  0  0  0  0  0  0  0  0  0  0
    8.6256  -15.2483   19.4669 C   0  0  1  0  0  0  0  0  0  0  0  0
    9.8705  -15.4309   18.7126 C   0  0  0  0  0  0  0  0  0  0  0  0
   11.1451  -15.1926   19.2475 O   0  0  0  0  0  0  0  0  0  0  0  0
    9.8388  -15.8214   17.5166 O   0  0  0  0  0  0  0  0  0  0  0  0
  2  1  1  1
  2  3  1  0
  3  4  1  0
  4  5  2  0
  5  6  1  0
  7  6  2  0
  8  7  1  0
  9  4  1  0
  9  8  2  0
 10  2  1  0
 11 10  2  0
 13 12  1  0
 13 14  2  0
 15 14  1  0
 16 15  2  0
 17 16  1  0
 18 19  1  0
 18 17  1  1
 19 10  1  0
 20 18  1  0
 21 20  2  0
 22 23  2  0
 22 16  1  0
 23 13  1  0
 24 20  1  0
 25 24  1  0
 26 25  1  0
 26 27  1  0
 27 28  1  0
 28 24  1  0
 28 29  1  6
 30 29  1  0
 31 29  2  0
M  END
$$$$
