FYP.pdb
     RDKit          3D

 31 33  0  0  1  0  0  0  0  0999 V2000
    6.8956  -18.8535   20.6672 N   0  0  0  0  0  0  0  0  0  0  0  0
    7.4722  -17.5691   20.9951 C   0  0  1  0  0  0  0  0  0  0  0  0
    7.1863  -16.6472   19.8358 C   0  0  0  0  0  0  0  0  0  0  0  0
    7.5436  -15.2418   20.1173 C   0  0  0  0  0  0  0  0  0  0  0  0
    6.5812  -14.3012   20.3888 C   0  0  0  0  0  0  0  0  0  0  0  0
    6.9458  -12.9969   20.6478 C   0  0  0  0  0  0  0  0  0  0  0  0
    8.2689  -12.6302   20.6364 C   0  0  0  0  0  0  0  0  0  0  0  0
    9.2391  -13.5859   20.3611 C   0  0  0  0  0  0  0  0  0  0  0  0
    8.8698  -14.8994   20.1003 C   0  0  0  0  0  0  0  0  0  0  0  0
    6.9069  -16.9850   22.2207 C   0  0  0  0  0  0  0  0  0  0  0  0
    5.6608  -17.0126   22.3640 O   0  0  0  0  0  0  0  0  0  0  0  0
   11.9450  -17.8692   28.0476 O   0  0  0  0  0  0  0  0  0  0  0  0
   10.7094  -17.6501   27.4471 C   0  0  0  0  0  0  0  0  0  0  0  0
    9.7470  -16.8431   28.0178 C   0  0  0  0  0  0  0  0  0  0  0  0
    8.5354  -16.6627   27.3729 C   0  0  0  0  0  0  0  0  0  0  0  0
    8.2525  -17.2672   26.1670 C   0  0  0  0  0  0  0  0  0  0  0  0
    6.9412  -17.0736   25.4674 C   0  0  0  0  0  0  0  0  0  0  0  0
    7.1005  -15.9119   24.4986 C   0  0  2  0  0  0  0  0  0  0  0  0
    7.6831  -16.3930   23.2496 N   0  0  0  0  0  0  0  0  0  0  0  0
    7.9898  -14.9125   25.1320 C   0  0  0  0  0  0  0  0  0  0  0  0
    9.2410  -15.0444   24.8680 O   0  0  0  0  0  0  0  0  0  0  0  0
    9.2241  -18.0720   25.6070 C   0  0  0  0  0  0  0  0  0  0  0  0
   10.4270  -18.2560   26.2395 C   0  0  0  0  0  0  0  0  0  0  0  0
    7.5818  -13.8671   25.9685 N   0  0  0  0  0  0  0  0  0  0  0  0
    6.3679  -13.7510   26.7352 C   0  0  0  0  0  0  0  0  0  0  0  0
    6.1006  -12.2542   26.7920 C   0  0  0  0  0  0  0  0  0  0  0  0
    7.2941  -11.5944   26.1958 C   0  0  0  0  0  0  0  0  0  0  0  0
    8.3594  -12.6391   26.2144 C   0  0  1  0  0  0  0  0  0  0  0  0
    8.9999  -12.7498   27.5297 C   0  0  0  0  0  0  0  0  0  0  0  0
    8.8190  -13.8407   28.3926 O   0  0  0  0  0  0  0  0  0  0  0  0
    9.7613  -11.8381   27.9457 O   0  0  0  0  0  0  0  0  0  0  0  0
  2  1  1  6
  2  3  1  0
  3  4  1  0
  4  5  2  0
  5  6  1  0
  7  6  2  0
  8  7  1  0
  9  4  1  0
  9  8  2  0
 10  2  1  0
 11 10  2  0
 13 12  1  0
 13 14  2  0
 15 14  1  0
 16 15  2  0
 17 16  1  0
 18 19  1  0
 18 17  1  1
 19 10  1  0
 20 18  1  0
 21 20  2  0
 22 23  2  0
 22 16  1  0
 23 13  1  0
 24 20  1  0
 25 24  1  0
 26 25  1  0
 26 27  1  0
 27 28  1  0
 28 24  1  0
 28 29  1  1
 30 29  1  0
 31 29  2  0
M  END
$$$$
