FYP.pdb
     RDKit          3D

 31 33  0  0  1  0  0  0  0  0999 V2000
    7.1589  -17.6627   25.9390 N   0  0  0  0  0  0  0  0  0  0  0  0
    6.6602  -16.3082   25.8592 C   0  0  1  0  0  0  0  0  0  0  0  0
    7.1030  -15.5993   27.1149 C   0  0  0  0  0  0  0  0  0  0  0  0
    6.8602  -14.1429   27.0688 C   0  0  0  0  0  0  0  0  0  0  0  0
    5.5863  -13.6320   27.0417 C   0  0  0  0  0  0  0  0  0  0  0  0
    5.3916  -12.2676   26.9990 C   0  0  0  0  0  0  0  0  0  0  0  0
    6.4659  -11.4128   26.9835 C   0  0  0  0  0  0  0  0  0  0  0  0
    7.7532  -11.9348   27.0111 C   0  0  0  0  0  0  0  0  0  0  0  0
    7.9474  -13.3096   27.0540 C   0  0  0  0  0  0  0  0  0  0  0  0
    7.1751  -15.5777   24.6912 C   0  0  0  0  0  0  0  0  0  0  0  0
    6.8006  -14.3914   24.5284 O   0  0  0  0  0  0  0  0  0  0  0  0
    8.7441  -12.8934   16.7290 O   0  0  0  0  0  0  0  0  0  0  0  0
    8.5924  -13.2148   18.0740 C   0  0  0  0  0  0  0  0  0  0  0  0
    7.3575  -13.2461   18.6880 C   0  0  0  0  0  0  0  0  0  0  0  0
    7.2691  -13.5731   20.0303 C   0  0  0  0  0  0  0  0  0  0  0  0
    8.3834  -13.8722   20.7843 C   0  0  0  0  0  0  0  0  0  0  0  0
    8.2899  -14.2260   22.2378 C   0  0  0  0  0  0  0  0  0  0  0  0
    8.0728  -15.7283   22.3355 C   0  0  2  0  0  0  0  0  0  0  0  0
    8.0680  -16.1314   23.7384 N   0  0  0  0  0  0  0  0  0  0  0  0
    9.1785  -16.3938   21.6107 C   0  0  0  0  0  0  0  0  0  0  0  0
   10.3195  -16.3648   22.2021 O   0  0  0  0  0  0  0  0  0  0  0  0
    9.6128  -13.8372   20.1576 C   0  0  0  0  0  0  0  0  0  0  0  0
    9.7089  -13.5141   18.8282 C   0  0  0  0  0  0  0  0  0  0  0  0
    9.0760  -17.0336   20.3700 N   0  0  0  0  0  0  0  0  0  0  0  0
    8.1302  -16.7937   19.3104 C   0  0  0  0  0  0  0  0  0  0  0  0
    7.9715  -18.1473   18.6342 C   0  0  0  0  0  0  0  0  0  0  0  0
    8.9877  -19.0433   19.2508 C   0  0  0  0  0  0  0  0  0  0  0  0
    9.9575  -18.1239   19.9146 C   0  0  1  0  0  0  0  0  0  0  0  0
   10.9300  -17.5703   18.9660 C   0  0  0  0  0  0  0  0  0  0  0  0
   12.0248  -18.2908   18.4662 O   0  0  0  0  0  0  0  0  0  0  0  0
   10.8131  -16.3876   18.5519 O   0  0  0  0  0  0  0  0  0  0  0  0
  2  1  1  1
  2  3  1  0
  3  4  1  0
  4  5  2  0
  5  6  1  0
  7  6  2  0
  8  7  1  0
  9  4  1  0
  9  8  2  0
 10  2  1  0
 11 10  2  0
 13 12  1  0
 13 14  2  0
 15 14  1  0
 16 15  2  0
 17 16  1  0
 18 19  1  0
 18 17  1  1
 19 10  1  0
 20 18  1  0
 21 20  2  0
 22 23  2  0
 22 16  1  0
 23 13  1  0
 24 20  1  0
 25 24  1  0
 26 25  1  0
 26 27  1  0
 27 28  1  0
 28 24  1  0
 28 29  1  6
 30 29  1  0
 31 29  2  0
M  END
$$$$
