FYP.pdb
     RDKit          3D

 31 33  0  0  1  0  0  0  0  0999 V2000
    6.3347  -18.1470   26.1928 N   0  0  0  0  0  0  0  0  0  0  0  0
    6.5457  -16.7402   25.9360 C   0  0  1  0  0  0  0  0  0  0  0  0
    7.4324  -16.2176   27.0388 C   0  0  0  0  0  0  0  0  0  0  0  0
    7.4139  -14.7441   27.1418 C   0  0  0  0  0  0  0  0  0  0  0  0
    8.5774  -14.0165   27.1795 C   0  0  0  0  0  0  0  0  0  0  0  0
    8.5279  -12.6419   27.2758 C   0  0  0  0  0  0  0  0  0  0  0  0
    7.3195  -11.9928   27.3343 C   0  0  0  0  0  0  0  0  0  0  0  0
    6.1448  -12.7337   27.2958 C   0  0  0  0  0  0  0  0  0  0  0  0
    6.1967  -14.1184   27.1988 C   0  0  0  0  0  0  0  0  0  0  0  0
    7.1945  -16.4868   24.6408 C   0  0  0  0  0  0  0  0  0  0  0  0
    8.0411  -17.3191   24.2349 O   0  0  0  0  0  0  0  0  0  0  0  0
    9.1528  -13.3886   16.6829 O   0  0  0  0  0  0  0  0  0  0  0  0
    8.7237  -13.4513   18.0048 C   0  0  0  0  0  0  0  0  0  0  0  0
    9.3951  -12.8134   19.0272 C   0  0  0  0  0  0  0  0  0  0  0  0
    8.9201  -12.9121   20.3237 C   0  0  0  0  0  0  0  0  0  0  0  0
    7.7871  -13.6332   20.6336 C   0  0  0  0  0  0  0  0  0  0  0  0
    7.2714  -13.7418   22.0368 C   0  0  0  0  0  0  0  0  0  0  0  0
    7.5706  -15.1483   22.5324 C   0  0  2  0  0  0  0  0  0  0  0  0
    6.9223  -15.3603   23.8230 N   0  0  0  0  0  0  0  0  0  0  0  0
    9.0390  -15.2791   22.6645 C   0  0  0  0  0  0  0  0  0  0  0  0
    9.5462  -14.7435   23.7174 O   0  0  0  0  0  0  0  0  0  0  0  0
    7.1249  -14.2666   19.6014 C   0  0  0  0  0  0  0  0  0  0  0  0
    7.5891  -14.1738   18.3142 C   0  0  0  0  0  0  0  0  0  0  0  0
    9.8884  -15.9240   21.7580 N   0  0  0  0  0  0  0  0  0  0  0  0
    9.5764  -16.4557   20.4562 C   0  0  0  0  0  0  0  0  0  0  0  0
   10.5353  -17.6248   20.2876 C   0  0  0  0  0  0  0  0  0  0  0  0
   11.4659  -17.5717   21.4480 C   0  0  0  0  0  0  0  0  0  0  0  0
   11.3186  -16.1913   21.9950 C   0  0  1  0  0  0  0  0  0  0  0  0
   12.1064  -15.2118   21.2386 C   0  0  0  0  0  0  0  0  0  0  0  0
   13.4333  -14.8773   21.5468 O   0  0  0  0  0  0  0  0  0  0  0  0
   11.6026  -14.6154   20.2515 O   0  0  0  0  0  0  0  0  0  0  0  0
  2  1  1  1
  2  3  1  0
  3  4  1  0
  4  5  2  0
  5  6  1  0
  7  6  2  0
  8  7  1  0
  9  4  1  0
  9  8  2  0
 10  2  1  0
 11 10  2  0
 13 12  1  0
 13 14  2  0
 15 14  1  0
 16 15  2  0
 17 16  1  0
 18 19  1  0
 18 17  1  1
 19 10  1  0
 20 18  1  0
 21 20  2  0
 22 23  2  0
 22 16  1  0
 23 13  1  0
 24 20  1  0
 25 24  1  0
 26 25  1  0
 26 27  1  0
 27 28  1  0
 28 24  1  0
 28 29  1  6
 30 29  1  0
 31 29  2  0
M  END
$$$$
