FYP.pdb
     RDKit          3D

 31 33  0  0  1  0  0  0  0  0999 V2000
    6.9599  -18.5541   27.0366 N   0  0  0  0  0  0  0  0  0  0  0  0
    7.5901  -17.2834   26.7578 C   0  0  1  0  0  0  0  0  0  0  0  0
    8.9583  -17.3199   27.3919 C   0  0  0  0  0  0  0  0  0  0  0  0
    9.3580  -16.0213   27.9717 C   0  0  0  0  0  0  0  0  0  0  0  0
    9.1584  -14.8449   27.2932 C   0  0  0  0  0  0  0  0  0  0  0  0
    9.5420  -13.6482   27.8607 C   0  0  0  0  0  0  0  0  0  0  0  0
   10.1243  -13.6240   29.1039 C   0  0  0  0  0  0  0  0  0  0  0  0
   10.3241  -14.8175   29.7866 C   0  0  0  0  0  0  0  0  0  0  0  0
    9.9369  -16.0221   29.2133 C   0  0  0  0  0  0  0  0  0  0  0  0
    7.7376  -17.0225   25.3180 C   0  0  0  0  0  0  0  0  0  0  0  0
    7.8933  -18.0065   24.5555 O   0  0  0  0  0  0  0  0  0  0  0  0
    8.4120  -13.3759   17.3878 O   0  0  0  0  0  0  0  0  0  0  0  0
    8.2453  -13.5248   18.7609 C   0  0  0  0  0  0  0  0  0  0  0  0
    9.1925  -13.0961   19.6676 C   0  0  0  0  0  0  0  0  0  0  0  0
    8.9709  -13.2716   21.0228 C   0  0  0  0  0  0  0  0  0  0  0  0
    7.8246  -13.8660   21.5046 C   0  0  0  0  0  0  0  0  0  0  0  0
    7.5829  -14.0574   22.9714 C   0  0  0  0  0  0  0  0  0  0  0  0
    7.9308  -15.4981   23.3138 C   0  0  2  0  0  0  0  0  0  0  0  0
    7.7146  -15.7278   24.7390 N   0  0  0  0  0  0  0  0  0  0  0  0
    9.3528  -15.7157   22.9654 C   0  0  0  0  0  0  0  0  0  0  0  0
   10.2030  -15.2535   23.8116 O   0  0  0  0  0  0  0  0  0  0  0  0
    6.8851  -14.2904   20.5867 C   0  0  0  0  0  0  0  0  0  0  0  0
    7.0970  -14.1203   19.2424 C   0  0  0  0  0  0  0  0  0  0  0  0
    9.8246  -16.3685   21.8207 N   0  0  0  0  0  0  0  0  0  0  0  0
    9.0984  -16.7369   20.6325 C   0  0  0  0  0  0  0  0  0  0  0  0
    9.8037  -17.9893   20.1337 C   0  0  0  0  0  0  0  0  0  0  0  0
   11.0139  -18.1533   20.9845 C   0  0  0  0  0  0  0  0  0  0  0  0
   11.2140  -16.8220   21.6278 C   0  0  1  0  0  0  0  0  0  0  0  0
   11.8926  -15.8752   20.7360 C   0  0  0  0  0  0  0  0  0  0  0  0
   13.2837  -15.8330   20.5613 O   0  0  0  0  0  0  0  0  0  0  0  0
   11.2280  -15.0375   20.0723 O   0  0  0  0  0  0  0  0  0  0  0  0
  2  1  1  6
  2  3  1  0
  3  4  1  0
  4  5  2  0
  5  6  1  0
  7  6  2  0
  8  7  1  0
  9  4  1  0
  9  8  2  0
 10  2  1  0
 11 10  2  0
 13 12  1  0
 13 14  2  0
 15 14  1  0
 16 15  2  0
 17 16  1  0
 18 19  1  0
 18 17  1  1
 19 10  1  0
 20 18  1  0
 21 20  2  0
 22 23  2  0
 22 16  1  0
 23 13  1  0
 24 20  1  0
 25 24  1  0
 26 25  1  0
 26 27  1  0
 27 28  1  0
 28 24  1  0
 28 29  1  6
 30 29  1  0
 31 29  2  0
M  END
$$$$
