FYP.pdb
     RDKit          3D

 31 33  0  0  1  0  0  0  0  0999 V2000
    5.5191  -17.7963   20.4884 N   0  0  0  0  0  0  0  0  0  0  0  0
    6.2636  -16.6918   21.0500 C   0  0  1  0  0  0  0  0  0  0  0  0
    5.4930  -15.4338   20.7355 C   0  0  0  0  0  0  0  0  0  0  0  0
    6.3520  -14.2336   20.6741 C   0  0  0  0  0  0  0  0  0  0  0  0
    6.4636  -13.3801   21.7434 C   0  0  0  0  0  0  0  0  0  0  0  0
    7.2737  -12.2677   21.6559 C   0  0  0  0  0  0  0  0  0  0  0  0
    7.9723  -12.0061   20.5032 C   0  0  0  0  0  0  0  0  0  0  0  0
    7.8560  -12.8731   19.4237 C   0  0  0  0  0  0  0  0  0  0  0  0
    7.0394  -13.9932   19.5138 C   0  0  0  0  0  0  0  0  0  0  0  0
    6.4312  -16.7979   22.5072 C   0  0  0  0  0  0  0  0  0  0  0  0
    5.4002  -16.7618   23.2213 O   0  0  0  0  0  0  0  0  0  0  0  0
    8.6022  -18.8478   30.6089 O   0  0  0  0  0  0  0  0  0  0  0  0
    8.5277  -18.7670   29.2221 C   0  0  0  0  0  0  0  0  0  0  0  0
    9.6536  -18.7056   28.4273 C   0  0  0  0  0  0  0  0  0  0  0  0
    9.5166  -18.6263   27.0521 C   0  0  0  0  0  0  0  0  0  0  0  0
    8.2814  -18.6062   26.4410 C   0  0  0  0  0  0  0  0  0  0  0  0
    8.1309  -18.5198   24.9522 C   0  0  0  0  0  0  0  0  0  0  0  0
    7.8145  -17.0738   24.6020 C   0  0  2  0  0  0  0  0  0  0  0  0
    7.6855  -16.9382   23.1543 N   0  0  0  0  0  0  0  0  0  0  0  0
    8.9252  -16.2332   25.1025 C   0  0  0  0  0  0  0  0  0  0  0  0
   10.0314  -16.3424   24.4568 O   0  0  0  0  0  0  0  0  0  0  0  0
    7.1631  -18.6682   27.2477 C   0  0  0  0  0  0  0  0  0  0  0  0
    7.2903  -18.7469   28.6110 C   0  0  0  0  0  0  0  0  0  0  0  0
    8.8612  -15.3549   26.1904 N   0  0  0  0  0  0  0  0  0  0  0  0
    7.7864  -15.1652   27.1305 C   0  0  0  0  0  0  0  0  0  0  0  0
    7.8979  -13.7040   27.5396 C   0  0  0  0  0  0  0  0  0  0  0  0
    9.1574  -13.1954   26.9311 C   0  0  0  0  0  0  0  0  0  0  0  0
    9.9334  -14.4193   26.5758 C   0  0  1  0  0  0  0  0  0  0  0  0
   10.6436  -14.9767   27.7322 C   0  0  0  0  0  0  0  0  0  0  0  0
   11.8192  -14.4247   28.2619 O   0  0  0  0  0  0  0  0  0  0  0  0
   10.2085  -16.0062   28.3108 O   0  0  0  0  0  0  0  0  0  0  0  0
  2  1  1  1
  2  3  1  0
  3  4  1  0
  4  5  2  0
  5  6  1  0
  7  6  2  0
  8  7  1  0
  9  4  1  0
  9  8  2  0
 10  2  1  0
 11 10  2  0
 13 12  1  0
 13 14  2  0
 15 14  1  0
 16 15  2  0
 17 16  1  0
 18 19  1  0
 18 17  1  6
 19 10  1  0
 20 18  1  0
 21 20  2  0
 22 23  2  0
 22 16  1  0
 23 13  1  0
 24 20  1  0
 25 24  1  0
 26 25  1  0
 26 27  1  0
 27 28  1  0
 28 24  1  0
 28 29  1  1
 30 29  1  0
 31 29  2  0
M  END
$$$$
