FYP.pdb
     RDKit          3D

 31 33  0  0  1  0  0  0  0  0999 V2000
    5.7130  -18.4170   21.1928 N   0  0  0  0  0  0  0  0  0  0  0  0
    6.4889  -17.2272   21.4611 C   0  0  1  0  0  0  0  0  0  0  0  0
    5.7863  -16.0785   20.7813 C   0  0  0  0  0  0  0  0  0  0  0  0
    6.5580  -14.8200   20.8346 C   0  0  0  0  0  0  0  0  0  0  0  0
    6.3785  -13.9150   21.8511 C   0  0  0  0  0  0  0  0  0  0  0  0
    7.1139  -12.7489   21.8736 C   0  0  0  0  0  0  0  0  0  0  0  0
    8.0279  -12.4848   20.8836 C   0  0  0  0  0  0  0  0  0  0  0  0
    8.2058  -13.4039   19.8570 C   0  0  0  0  0  0  0  0  0  0  0  0
    7.4640  -14.5782   19.8360 C   0  0  0  0  0  0  0  0  0  0  0  0
    6.6059  -16.9332   22.8973 C   0  0  0  0  0  0  0  0  0  0  0  0
    5.5494  -16.7349   23.5443 O   0  0  0  0  0  0  0  0  0  0  0  0
    5.4815  -22.0870   27.1775 O   0  0  0  0  0  0  0  0  0  0  0  0
    6.3104  -21.0459   26.7719 C   0  0  0  0  0  0  0  0  0  0  0  0
    7.1419  -21.1518   25.6763 C   0  0  0  0  0  0  0  0  0  0  0  0
    7.9446  -20.0814   25.3207 C   0  0  0  0  0  0  0  0  0  0  0  0
    7.9429  -18.8998   26.0302 C   0  0  0  0  0  0  0  0  0  0  0  0
    8.8116  -17.7399   25.6472 C   0  0  0  0  0  0  0  0  0  0  0  0
    7.9156  -16.6709   25.0406 C   0  0  2  0  0  0  0  0  0  0  0  0
    7.8385  -16.8599   23.5952 N   0  0  0  0  0  0  0  0  0  0  0  0
    8.5062  -15.3513   25.3581 C   0  0  0  0  0  0  0  0  0  0  0  0
    9.4378  -14.9604   24.5631 O   0  0  0  0  0  0  0  0  0  0  0  0
    7.1064  -18.8071   27.1242 C   0  0  0  0  0  0  0  0  0  0  0  0
    6.3081  -19.8629   27.4831 C   0  0  0  0  0  0  0  0  0  0  0  0
    8.1356  -14.5236   26.4241 N   0  0  0  0  0  0  0  0  0  0  0  0
    7.0275  -14.6702   27.3327 C   0  0  0  0  0  0  0  0  0  0  0  0
    6.6604  -13.2431   27.7117 C   0  0  0  0  0  0  0  0  0  0  0  0
    7.7136  -12.3713   27.1234 C   0  0  0  0  0  0  0  0  0  0  0  0
    8.8461  -13.2925   26.8149 C   0  0  1  0  0  0  0  0  0  0  0  0
    9.6600  -13.5818   28.0008 C   0  0  0  0  0  0  0  0  0  0  0  0
   10.5774  -12.6760   28.5533 O   0  0  0  0  0  0  0  0  0  0  0  0
    9.5609  -14.6918   28.5856 O   0  0  0  0  0  0  0  0  0  0  0  0
  2  1  1  1
  2  3  1  0
  3  4  1  0
  4  5  2  0
  5  6  1  0
  7  6  2  0
  8  7  1  0
  9  4  1  0
  9  8  2  0
 10  2  1  0
 11 10  2  0
 13 12  1  0
 13 14  2  0
 15 14  1  0
 16 15  2  0
 17 16  1  0
 18 19  1  0
 18 17  1  1
 19 10  1  0
 20 18  1  0
 21 20  2  0
 22 23  2  0
 22 16  1  0
 23 13  1  0
 24 20  1  0
 25 24  1  0
 26 25  1  0
 26 27  1  0
 27 28  1  0
 28 24  1  0
 28 29  1  1
 30 29  1  0
 31 29  2  0
M  END
$$$$
