FYP.pdb
     RDKit          3D

 31 33  0  0  1  0  0  0  0  0999 V2000
    6.4454  -17.9981   26.0151 N   0  0  0  0  0  0  0  0  0  0  0  0
    6.6381  -16.6052   25.6796 C   0  0  1  0  0  0  0  0  0  0  0  0
    7.6178  -16.0413   26.6784 C   0  0  0  0  0  0  0  0  0  0  0  0
    7.3598  -14.6225   26.9985 C   0  0  0  0  0  0  0  0  0  0  0  0
    8.2904  -13.8588   27.6581 C   0  0  0  0  0  0  0  0  0  0  0  0
    8.0207  -12.5369   27.9429 C   0  0  0  0  0  0  0  0  0  0  0  0
    6.8239  -11.9763   27.5704 C   0  0  0  0  0  0  0  0  0  0  0  0
    5.8853  -12.7535   26.9030 C   0  0  0  0  0  0  0  0  0  0  0  0
    6.1589  -14.0850   26.6170 C   0  0  0  0  0  0  0  0  0  0  0  0
    7.1742  -16.4130   24.3236 C   0  0  0  0  0  0  0  0  0  0  0  0
    7.8575  -17.3397   23.8252 O   0  0  0  0  0  0  0  0  0  0  0  0
    9.1186  -13.2378   16.3873 O   0  0  0  0  0  0  0  0  0  0  0  0
    8.7341  -13.3130   17.7221 C   0  0  0  0  0  0  0  0  0  0  0  0
    9.5611  -12.9094   18.7497 C   0  0  0  0  0  0  0  0  0  0  0  0
    9.1232  -13.0081   20.0593 C   0  0  0  0  0  0  0  0  0  0  0  0
    7.8760  -13.5009   20.3772 C   0  0  0  0  0  0  0  0  0  0  0  0
    7.4000  -13.6092   21.7944 C   0  0  0  0  0  0  0  0  0  0  0  0
    7.5737  -15.0556   22.2318 C   0  0  2  0  0  0  0  0  0  0  0  0
    6.9664  -15.2455   23.5455 N   0  0  0  0  0  0  0  0  0  0  0  0
    9.0251  -15.3406   22.2878 C   0  0  0  0  0  0  0  0  0  0  0  0
    9.6308  -14.9056   23.3349 O   0  0  0  0  0  0  0  0  0  0  0  0
    7.0584  -13.9013   19.3396 C   0  0  0  0  0  0  0  0  0  0  0  0
    7.4848  -13.8067   18.0395 C   0  0  0  0  0  0  0  0  0  0  0  0
    9.7624  -16.0286   21.3172 N   0  0  0  0  0  0  0  0  0  0  0  0
    9.3617  -16.4102   19.9872 C   0  0  0  0  0  0  0  0  0  0  0  0
   10.1413  -17.6873   19.7113 C   0  0  0  0  0  0  0  0  0  0  0  0
   11.0839  -17.8550   20.8509 C   0  0  0  0  0  0  0  0  0  0  0  0
   11.1424  -16.5132   21.5011 C   0  0  1  0  0  0  0  0  0  0  0  0
   12.0530  -15.6007   20.8010 C   0  0  0  0  0  0  0  0  0  0  0  0
   13.4468  -15.6229   20.9567 O   0  0  0  0  0  0  0  0  0  0  0  0
   11.6007  -14.7346   20.0076 O   0  0  0  0  0  0  0  0  0  0  0  0
  2  1  1  1
  2  3  1  0
  3  4  1  0
  4  5  2  0
  5  6  1  0
  7  6  2  0
  8  7  1  0
  9  4  1  0
  9  8  2  0
 10  2  1  0
 11 10  2  0
 13 12  1  0
 13 14  2  0
 15 14  1  0
 16 15  2  0
 17 16  1  0
 18 19  1  0
 18 17  1  1
 19 10  1  0
 20 18  1  0
 21 20  2  0
 22 23  2  0
 22 16  1  0
 23 13  1  0
 24 20  1  0
 25 24  1  0
 26 25  1  0
 26 27  1  0
 27 28  1  0
 28 24  1  0
 28 29  1  6
 30 29  1  0
 31 29  2  0
M  END
$$$$
