FYP.pdb
     RDKit          3D

 31 33  0  0  1  0  0  0  0  0999 V2000
    3.3304  -18.9717   22.6206 N   0  0  0  0  0  0  0  0  0  0  0  0
    4.5676  -18.3069   22.2784 C   0  0  1  0  0  0  0  0  0  0  0  0
    4.2695  -17.3865   21.1210 C   0  0  0  0  0  0  0  0  0  0  0  0
    5.4470  -16.6062   20.6890 C   0  0  0  0  0  0  0  0  0  0  0  0
    6.5367  -17.2152   20.1181 C   0  0  0  0  0  0  0  0  0  0  0  0
    7.6212  -16.4599   19.7248 C   0  0  0  0  0  0  0  0  0  0  0  0
    7.6195  -15.0981   19.9003 C   0  0  0  0  0  0  0  0  0  0  0  0
    6.5142  -14.4864   20.4786 C   0  0  0  0  0  0  0  0  0  0  0  0
    5.4226  -15.2491   20.8742 C   0  0  0  0  0  0  0  0  0  0  0  0
    5.1171  -17.5151   23.3892 C   0  0  0  0  0  0  0  0  0  0  0  0
    4.5028  -16.4756   23.7300 O   0  0  0  0  0  0  0  0  0  0  0  0
   10.3473  -13.2943   28.8793 O   0  0  0  0  0  0  0  0  0  0  0  0
    9.6075  -14.2864   28.2439 C   0  0  0  0  0  0  0  0  0  0  0  0
   10.1480  -15.5134   27.9198 C   0  0  0  0  0  0  0  0  0  0  0  0
    9.3623  -16.4616   27.2874 C   0  0  0  0  0  0  0  0  0  0  0  0
    8.0438  -16.2211   26.9661 C   0  0  0  0  0  0  0  0  0  0  0  0
    7.1914  -17.2461   26.2809 C   0  0  0  0  0  0  0  0  0  0  0  0
    7.1003  -16.8649   24.8112 C   0  0  2  0  0  0  0  0  0  0  0  0
    6.2978  -17.8541   24.0983 N   0  0  0  0  0  0  0  0  0  0  0  0
    8.4763  -16.8269   24.2671 C   0  0  0  0  0  0  0  0  0  0  0  0
    9.0430  -17.9720   24.1247 O   0  0  0  0  0  0  0  0  0  0  0  0
    7.5153  -14.9894   27.2959 C   0  0  0  0  0  0  0  0  0  0  0  0
    8.2871  -14.0446   27.9224 C   0  0  0  0  0  0  0  0  0  0  0  0
    9.1822  -15.6736   23.9058 N   0  0  0  0  0  0  0  0  0  0  0  0
    8.9534  -14.3131   24.3199 C   0  0  0  0  0  0  0  0  0  0  0  0
    9.4199  -13.4765   23.1377 C   0  0  0  0  0  0  0  0  0  0  0  0
   10.0587  -14.4231   22.1831 C   0  0  0  0  0  0  0  0  0  0  0  0
   10.3340  -15.6504   22.9860 C   0  0  1  0  0  0  0  0  0  0  0  0
   11.5611  -15.5255   23.7804 C   0  0  0  0  0  0  0  0  0  0  0  0
   11.5797  -15.5027   25.1828 O   0  0  0  0  0  0  0  0  0  0  0  0
   12.6803  -15.4310   23.2126 O   0  0  0  0  0  0  0  0  0  0  0  0
  2  1  1  1
  2  3  1  0
  3  4  1  0
  4  5  2  0
  5  6  1  0
  7  6  2  0
  8  7  1  0
  9  4  1  0
  9  8  2  0
 10  2  1  0
 11 10  2  0
 13 12  1  0
 13 14  2  0
 15 14  1  0
 16 15  2  0
 17 16  1  0
 18 19  1  0
 18 17  1  1
 19 10  1  0
 20 18  1  0
 21 20  2  0
 22 23  2  0
 22 16  1  0
 23 13  1  0
 24 20  1  0
 25 24  1  0
 26 25  1  0
 26 27  1  0
 27 28  1  0
 28 24  1  0
 28 29  1  1
 30 29  1  0
 31 29  2  0
M  END
$$$$
