FYP.pdb
     RDKit          3D

 31 33  0  0  1  0  0  0  0  0999 V2000
    3.0937  -17.7961   21.6342 N   0  0  0  0  0  0  0  0  0  0  0  0
    4.3340  -18.2964   22.1828 C   0  0  1  0  0  0  0  0  0  0  0  0
    5.2148  -18.6694   21.0164 C   0  0  0  0  0  0  0  0  0  0  0  0
    5.7040  -17.4944   20.2667 C   0  0  0  0  0  0  0  0  0  0  0  0
    6.6719  -16.6698   20.7841 C   0  0  0  0  0  0  0  0  0  0  0  0
    7.1085  -15.5804   20.0603 C   0  0  0  0  0  0  0  0  0  0  0  0
    6.5807  -15.3130   18.8212 C   0  0  0  0  0  0  0  0  0  0  0  0
    5.6014  -16.1506   18.3019 C   0  0  0  0  0  0  0  0  0  0  0  0
    5.1628  -17.2476   19.0327 C   0  0  0  0  0  0  0  0  0  0  0  0
    5.0338  -17.3034   23.0117 C   0  0  0  0  0  0  0  0  0  0  0  0
    4.8771  -16.0902   22.7330 O   0  0  0  0  0  0  0  0  0  0  0  0
   10.2200  -13.1567   28.7003 O   0  0  0  0  0  0  0  0  0  0  0  0
    9.4878  -14.1601   28.0739 C   0  0  0  0  0  0  0  0  0  0  0  0
   10.0815  -15.2994   27.5715 C   0  0  0  0  0  0  0  0  0  0  0  0
    9.3007  -16.2641   26.9581 C   0  0  0  0  0  0  0  0  0  0  0  0
    7.9354  -16.1257   26.8298 C   0  0  0  0  0  0  0  0  0  0  0  0
    7.0883  -17.1686   26.1656 C   0  0  0  0  0  0  0  0  0  0  0  0
    6.6974  -16.6423   24.7930 C   0  0  2  0  0  0  0  0  0  0  0  0
    5.8743  -17.6327   24.1058 N   0  0  0  0  0  0  0  0  0  0  0  0
    7.9424  -16.3890   24.0337 C   0  0  0  0  0  0  0  0  0  0  0  0
    8.5557  -17.4393   23.6172 O   0  0  0  0  0  0  0  0  0  0  0  0
    7.3541  -14.9810   27.3368 C   0  0  0  0  0  0  0  0  0  0  0  0
    8.1206  -14.0206   27.9459 C   0  0  0  0  0  0  0  0  0  0  0  0
    8.4826  -15.1309   23.7432 N   0  0  0  0  0  0  0  0  0  0  0  0
    8.2403  -13.8743   24.4044 C   0  0  0  0  0  0  0  0  0  0  0  0
    8.4125  -12.8332   23.3083 C   0  0  0  0  0  0  0  0  0  0  0  0
    8.9239  -13.5631   22.1163 C   0  0  0  0  0  0  0  0  0  0  0  0
    9.4338  -14.8599   22.6500 C   0  0  1  0  0  0  0  0  0  0  0  0
   10.7774  -14.7294   23.2243 C   0  0  0  0  0  0  0  0  0  0  0  0
   11.0724  -14.9722   24.5739 O   0  0  0  0  0  0  0  0  0  0  0  0
   11.7478  -14.3828   22.5017 O   0  0  0  0  0  0  0  0  0  0  0  0
  2  1  1  6
  2  3  1  0
  3  4  1  0
  4  5  2  0
  5  6  1  0
  7  6  2  0
  8  7  1  0
  9  4  1  0
  9  8  2  0
 10  2  1  0
 11 10  2  0
 13 12  1  0
 13 14  2  0
 15 14  1  0
 16 15  2  0
 17 16  1  0
 18 19  1  0
 18 17  1  1
 19 10  1  0
 20 18  1  0
 21 20  2  0
 22 23  2  0
 22 16  1  0
 23 13  1  0
 24 20  1  0
 25 24  1  0
 26 25  1  0
 26 27  1  0
 27 28  1  0
 28 24  1  0
 28 29  1  1
 30 29  1  0
 31 29  2  0
M  END
$$$$
