FYP.pdb
     RDKit          3D

 31 33  0  0  1  0  0  0  0  0999 V2000
    7.2345  -17.4557   20.6103 N   0  0  0  0  0  0  0  0  0  0  0  0
    8.6210  -17.0809   20.4464 C   0  0  1  0  0  0  0  0  0  0  0  0
    8.6769  -16.0726   19.3258 C   0  0  0  0  0  0  0  0  0  0  0  0
    8.1061  -14.7630   19.7018 C   0  0  0  0  0  0  0  0  0  0  0  0
    8.8902  -13.6391   19.7818 C   0  0  0  0  0  0  0  0  0  0  0  0
    8.3284  -12.4305   20.1354 C   0  0  0  0  0  0  0  0  0  0  0  0
    6.9859  -12.3421   20.4091 C   0  0  0  0  0  0  0  0  0  0  0  0
    6.1966  -13.4826   20.3267 C   0  0  0  0  0  0  0  0  0  0  0  0
    6.7644  -14.6992   19.9704 C   0  0  0  0  0  0  0  0  0  0  0  0
    9.1977  -16.4805   21.6586 C   0  0  0  0  0  0  0  0  0  0  0  0
   10.3914  -16.0967   21.6134 O   0  0  0  0  0  0  0  0  0  0  0  0
   10.7955  -14.1210   29.9456 O   0  0  0  0  0  0  0  0  0  0  0  0
   10.1441  -14.3946   28.7473 C   0  0  0  0  0  0  0  0  0  0  0  0
    9.9843  -13.4418   27.7626 C   0  0  0  0  0  0  0  0  0  0  0  0
    9.3267  -13.7731   26.5903 C   0  0  0  0  0  0  0  0  0  0  0  0
    8.8200  -15.0355   26.3688 C   0  0  0  0  0  0  0  0  0  0  0  0
    8.1072  -15.3962   25.1005 C   0  0  0  0  0  0  0  0  0  0  0  0
    9.1434  -15.9284   24.1224 C   0  0  2  0  0  0  0  0  0  0  0  0
    8.4882  -16.3088   22.8747 N   0  0  0  0  0  0  0  0  0  0  0  0
    9.7916  -17.1046   24.7448 C   0  0  0  0  0  0  0  0  0  0  0  0
    9.0378  -18.1361   24.8879 O   0  0  0  0  0  0  0  0  0  0  0  0
    8.9866  -15.9794   27.3620 C   0  0  0  0  0  0  0  0  0  0  0  0
    9.6369  -15.6592   28.5263 C   0  0  0  0  0  0  0  0  0  0  0  0
   11.1222  -17.1750   25.1731 N   0  0  0  0  0  0  0  0  0  0  0  0
   12.0612  -16.1005   25.3696 C   0  0  0  0  0  0  0  0  0  0  0  0
   13.4163  -16.7266   25.0755 C   0  0  0  0  0  0  0  0  0  0  0  0
   13.1731  -18.1846   24.9008 C   0  0  0  0  0  0  0  0  0  0  0  0
   11.8302  -18.4247   25.5053 C   0  0  1  0  0  0  0  0  0  0  0  0
   11.8971  -18.5472   26.9657 C   0  0  0  0  0  0  0  0  0  0  0  0
   12.4633  -19.6463   27.6281 O   0  0  0  0  0  0  0  0  0  0  0  0
   11.4326  -17.6388   27.7027 O   0  0  0  0  0  0  0  0  0  0  0  0
  2  1  1  1
  2  3  1  0
  3  4  1  0
  4  5  2  0
  5  6  1  0
  7  6  2  0
  8  7  1  0
  9  4  1  0
  9  8  2  0
 10  2  1  0
 11 10  2  0
 13 12  1  0
 13 14  2  0
 15 14  1  0
 16 15  2  0
 17 16  1  0
 18 19  1  0
 18 17  1  1
 19 10  1  0
 20 18  1  0
 21 20  2  0
 22 23  2  0
 22 16  1  0
 23 13  1  0
 24 20  1  0
 25 24  1  0
 26 25  1  0
 26 27  1  0
 27 28  1  0
 28 24  1  0
 28 29  1  1
 30 29  1  0
 31 29  2  0
M  END
$$$$
