FYP.pdb
     RDKit          3D

 31 33  0  0  1  0  0  0  0  0999 V2000
    5.8593  -18.2632   20.2687 N   0  0  0  0  0  0  0  0  0  0  0  0
    6.6648  -17.1133   20.6128 C   0  0  1  0  0  0  0  0  0  0  0  0
    6.0020  -15.9080   19.9937 C   0  0  0  0  0  0  0  0  0  0  0  0
    6.7524  -14.6568   20.2256 C   0  0  0  0  0  0  0  0  0  0  0  0
    7.8073  -14.2981   19.4238 C   0  0  0  0  0  0  0  0  0  0  0  0
    8.4883  -13.1237   19.6652 C   0  0  0  0  0  0  0  0  0  0  0  0
    8.1182  -12.3072   20.7052 C   0  0  0  0  0  0  0  0  0  0  0  0
    7.0498  -12.6748   21.5138 C   0  0  0  0  0  0  0  0  0  0  0  0
    6.3649  -13.8583   21.2690 C   0  0  0  0  0  0  0  0  0  0  0  0
    6.7736  -16.9057   22.0647 C   0  0  0  0  0  0  0  0  0  0  0  0
    5.7130  -16.8682   22.7339 O   0  0  0  0  0  0  0  0  0  0  0  0
    8.8300  -17.6747   30.4002 O   0  0  0  0  0  0  0  0  0  0  0  0
    8.9130  -17.6693   29.0115 C   0  0  0  0  0  0  0  0  0  0  0  0
    9.8981  -16.9792   28.3361 C   0  0  0  0  0  0  0  0  0  0  0  0
    9.9296  -17.0109   26.9525 C   0  0  0  0  0  0  0  0  0  0  0  0
    9.0014  -17.7156   26.2167 C   0  0  0  0  0  0  0  0  0  0  0  0
    9.0334  -17.7508   24.7186 C   0  0  0  0  0  0  0  0  0  0  0  0
    8.0862  -16.6749   24.2098 C   0  0  2  0  0  0  0  0  0  0  0  0
    8.0027  -16.7454   22.7542 N   0  0  0  0  0  0  0  0  0  0  0  0
    8.6228  -15.3621   24.6333 C   0  0  0  0  0  0  0  0  0  0  0  0
    9.7402  -15.0251   24.0943 O   0  0  0  0  0  0  0  0  0  0  0  0
    8.0211  -18.4017   26.9048 C   0  0  0  0  0  0  0  0  0  0  0  0
    7.9829  -18.3752   28.2755 C   0  0  0  0  0  0  0  0  0  0  0  0
    8.0216  -14.4877   25.5461 N   0  0  0  0  0  0  0  0  0  0  0  0
    6.7937  -14.6589   26.2794 C   0  0  0  0  0  0  0  0  0  0  0  0
    6.2637  -13.2443   26.4612 C   0  0  0  0  0  0  0  0  0  0  0  0
    7.3309  -12.3323   25.9664 C   0  0  0  0  0  0  0  0  0  0  0  0
    8.5644  -13.1710   25.9267 C   0  0  1  0  0  0  0  0  0  0  0  0
    9.1921  -13.2909   27.2472 C   0  0  0  0  0  0  0  0  0  0  0  0
    9.2258  -14.4826   27.9862 O   0  0  0  0  0  0  0  0  0  0  0  0
    9.7423  -12.2940   27.7835 O   0  0  0  0  0  0  0  0  0  0  0  0
  2  1  1  1
  2  3  1  0
  3  4  1  0
  4  5  2  0
  5  6  1  0
  7  6  2  0
  8  7  1  0
  9  4  1  0
  9  8  2  0
 10  2  1  0
 11 10  2  0
 13 12  1  0
 13 14  2  0
 15 14  1  0
 16 15  2  0
 17 16  1  0
 18 19  1  0
 18 17  1  6
 19 10  1  0
 20 18  1  0
 21 20  2  0
 22 23  2  0
 22 16  1  0
 23 13  1  0
 24 20  1  0
 25 24  1  0
 26 25  1  0
 26 27  1  0
 27 28  1  0
 28 24  1  0
 28 29  1  1
 30 29  1  0
 31 29  2  0
M  END
$$$$
