FYP.pdb
     RDKit          3D

 31 33  0  0  1  0  0  0  0  0999 V2000
    5.6238  -16.8088   20.8475 N   0  0  0  0  0  0  0  0  0  0  0  0
    6.5689  -15.9450   21.5186 C   0  0  1  0  0  0  0  0  0  0  0  0
    6.0610  -14.5326   21.3685 C   0  0  0  0  0  0  0  0  0  0  0  0
    6.9270  -13.6984   20.5105 C   0  0  0  0  0  0  0  0  0  0  0  0
    6.5965  -13.4346   19.2045 C   0  0  0  0  0  0  0  0  0  0  0  0
    7.4252  -12.6522   18.4283 C   0  0  0  0  0  0  0  0  0  0  0  0
    8.5827  -12.1329   18.9536 C   0  0  0  0  0  0  0  0  0  0  0  0
    8.9127  -12.4029   20.2759 C   0  0  0  0  0  0  0  0  0  0  0  0
    8.0766  -13.1913   21.0562 C   0  0  0  0  0  0  0  0  0  0  0  0
    6.7081  -16.2531   22.9499 C   0  0  0  0  0  0  0  0  0  0  0  0
    5.6988  -16.1131   23.6819 O   0  0  0  0  0  0  0  0  0  0  0  0
    8.7850  -19.5210   30.7241 O   0  0  0  0  0  0  0  0  0  0  0  0
    8.5932  -19.2704   29.3692 C   0  0  0  0  0  0  0  0  0  0  0  0
    7.3401  -19.0703   28.8283 C   0  0  0  0  0  0  0  0  0  0  0  0
    7.2116  -18.8249   27.4720 C   0  0  0  0  0  0  0  0  0  0  0  0
    8.3034  -18.7727   26.6325 C   0  0  0  0  0  0  0  0  0  0  0  0
    8.1665  -18.5077   25.1636 C   0  0  0  0  0  0  0  0  0  0  0  0
    8.0137  -17.0059   24.9764 C   0  0  2  0  0  0  0  0  0  0  0  0
    7.9122  -16.6984   23.5531 N   0  0  0  0  0  0  0  0  0  0  0  0
    9.2059  -16.3529   25.5621 C   0  0  0  0  0  0  0  0  0  0  0  0
   10.2874  -16.4662   24.8764 O   0  0  0  0  0  0  0  0  0  0  0  0
    9.5515  -18.9747   27.1864 C   0  0  0  0  0  0  0  0  0  0  0  0
    9.6872  -19.2184   28.5292 C   0  0  0  0  0  0  0  0  0  0  0  0
    9.2409  -15.6422   26.7674 N   0  0  0  0  0  0  0  0  0  0  0  0
    8.1662  -15.3871   27.6920 C   0  0  0  0  0  0  0  0  0  0  0  0
    8.5199  -14.0471   28.3196 C   0  0  0  0  0  0  0  0  0  0  0  0
    9.8848  -13.7061   27.8334 C   0  0  0  0  0  0  0  0  0  0  0  0
   10.4423  -14.9921   27.3218 C   0  0  1  0  0  0  0  0  0  0  0  0
   10.9693  -15.8329   28.4023 C   0  0  0  0  0  0  0  0  0  0  0  0
   12.1801  -16.5362   28.3193 O   0  0  0  0  0  0  0  0  0  0  0  0
   10.3319  -15.9581   29.4802 O   0  0  0  0  0  0  0  0  0  0  0  0
  2  1  1  1
  2  3  1  0
  3  4  1  0
  4  5  2  0
  5  6  1  0
  7  6  2  0
  8  7  1  0
  9  4  1  0
  9  8  2  0
 10  2  1  0
 11 10  2  0
 13 12  1  0
 13 14  2  0
 15 14  1  0
 16 15  2  0
 17 16  1  0
 18 19  1  0
 18 17  1  6
 19 10  1  0
 20 18  1  0
 21 20  2  0
 22 23  2  0
 22 16  1  0
 23 13  1  0
 24 20  1  0
 25 24  1  0
 26 25  1  0
 26 27  1  0
 27 28  1  0
 28 24  1  0
 28 29  1  1
 30 29  1  0
 31 29  2  0
M  END
$$$$
