FYP.pdb
     RDKit          3D

 31 33  0  0  1  0  0  0  0  0999 V2000
    9.1652  -18.0685   19.1243 N   0  0  0  0  0  0  0  0  0  0  0  0
    8.4995  -18.4101   20.3611 C   0  0  1  0  0  0  0  0  0  0  0  0
    9.0562  -19.7380   20.8107 C   0  0  0  0  0  0  0  0  0  0  0  0
    8.5935  -20.8670   19.9780 C   0  0  0  0  0  0  0  0  0  0  0  0
    9.3761  -21.3815   18.9743 C   0  0  0  0  0  0  0  0  0  0  0  0
    8.9167  -22.4360   18.2139 C   0  0  0  0  0  0  0  0  0  0  0  0
    7.6780  -22.9776   18.4537 C   0  0  0  0  0  0  0  0  0  0  0  0
    6.8898  -22.4533   19.4707 C   0  0  0  0  0  0  0  0  0  0  0  0
    7.3543  -21.3909   20.2357 C   0  0  0  0  0  0  0  0  0  0  0  0
    8.7196  -17.4158   21.4220 C   0  0  0  0  0  0  0  0  0  0  0  0
    9.8904  -17.0055   21.6090 O   0  0  0  0  0  0  0  0  0  0  0  0
    7.7868  -11.5307   27.8504 O   0  0  0  0  0  0  0  0  0  0  0  0
    7.5149  -12.4236   26.8188 C   0  0  0  0  0  0  0  0  0  0  0  0
    7.6776  -12.0855   25.4914 C   0  0  0  0  0  0  0  0  0  0  0  0
    7.3907  -13.0168   24.5081 C   0  0  0  0  0  0  0  0  0  0  0  0
    6.9432  -14.2847   24.8112 C   0  0  0  0  0  0  0  0  0  0  0  0
    6.6315  -15.2944   23.7482 C   0  0  0  0  0  0  0  0  0  0  0  0
    7.9455  -15.9166   23.3012 C   0  0  2  0  0  0  0  0  0  0  0  0
    7.6905  -16.8926   22.2461 N   0  0  0  0  0  0  0  0  0  0  0  0
    8.5579  -16.5751   24.4769 C   0  0  0  0  0  0  0  0  0  0  0  0
    8.0010  -17.6743   24.8433 O   0  0  0  0  0  0  0  0  0  0  0  0
    6.7848  -14.6100   26.1432 C   0  0  0  0  0  0  0  0  0  0  0  0
    7.0667  -13.6930   27.1233 C   0  0  0  0  0  0  0  0  0  0  0  0
    9.6641  -16.1056   25.1944 N   0  0  0  0  0  0  0  0  0  0  0  0
   10.2553  -14.7922   25.1768 C   0  0  0  0  0  0  0  0  0  0  0  0
   11.7286  -15.0389   25.4656 C   0  0  0  0  0  0  0  0  0  0  0  0
   11.8503  -16.4818   25.8099 C   0  0  0  0  0  0  0  0  0  0  0  0
   10.4602  -16.9178   26.1324 C   0  0  1  0  0  0  0  0  0  0  0  0
   10.0737  -16.5595   27.5015 C   0  0  0  0  0  0  0  0  0  0  0  0
    9.0475  -15.6535   27.8072 O   0  0  0  0  0  0  0  0  0  0  0  0
   10.6699  -17.0697   28.4855 O   0  0  0  0  0  0  0  0  0  0  0  0
  2  1  1  6
  2  3  1  0
  3  4  1  0
  4  5  2  0
  5  6  1  0
  7  6  2  0
  8  7  1  0
  9  4  1  0
  9  8  2  0
 10  2  1  0
 11 10  2  0
 13 12  1  0
 13 14  2  0
 15 14  1  0
 16 15  2  0
 17 16  1  0
 18 19  1  0
 18 17  1  1
 19 10  1  0
 20 18  1  0
 21 20  2  0
 22 23  2  0
 22 16  1  0
 23 13  1  0
 24 20  1  0
 25 24  1  0
 26 25  1  0
 26 27  1  0
 27 28  1  0
 28 24  1  0
 28 29  1  1
 30 29  1  0
 31 29  2  0
M  END
$$$$
