FTW.pdb
     RDKit          3D

 33 35  0  0  1  0  0  0  0  0999 V2000
   10.3433  -18.7271   18.5130 N   0  0  0  0  0  0  0  0  0  0  0  0
    9.4427  -18.5615   19.6322 C   0  0  1  0  0  0  0  0  0  0  0  0
    9.8435  -19.6442   20.6455 C   0  0  0  0  0  0  0  0  0  0  0  0
    9.5680  -20.9729   20.0534 C   0  0  0  0  0  0  0  0  0  0  0  0
   10.5965  -21.8975   19.9263 C   0  0  0  0  0  0  0  0  0  0  0  0
   10.3851  -23.1420   19.3845 C   0  0  0  0  0  0  0  0  0  0  0  0
    9.1022  -23.4516   18.9639 C   0  0  0  0  0  0  0  0  0  0  0  0
    8.0740  -22.5365   19.0874 C   0  0  0  0  0  0  0  0  0  0  0  0
    8.2969  -21.2898   19.6328 C   0  0  0  0  0  0  0  0  0  0  0  0
    9.6094  -17.2093   20.1863 C   0  0  0  0  0  0  0  0  0  0  0  0
   10.6917  -16.5569   19.9821 O   0  0  0  0  0  0  0  0  0  0  0  0
    7.3095  -14.0219   19.7783 C   0  0  0  0  0  0  0  0  0  0  0  0
    7.6016  -14.3343   21.2296 C   0  0  1  0  0  0  0  0  0  0  0  0
    6.5067  -15.0232   21.7242 O   0  0  0  0  0  0  0  0  0  0  0  0
    8.8277  -15.1747   21.4076 C   0  0  2  0  0  0  0  0  0  0  0  0
    8.6488  -16.5350   20.9531 N   0  0  0  0  0  0  0  0  0  0  0  0
    9.2261  -15.1379   22.8379 C   0  0  0  0  0  0  0  0  0  0  0  0
    9.5040  -14.0161   23.3997 O   0  0  0  0  0  0  0  0  0  0  0  0
    9.3337  -16.2638   23.6865 N   0  0  0  0  0  0  0  0  0  0  0  0
    9.7700  -16.1211   25.0651 C   0  0  1  0  0  0  0  0  0  0  0  0
    8.7551  -16.5533   26.0539 C   0  0  0  0  0  0  0  0  0  0  0  0
    7.5823  -15.6552   25.9998 C   0  0  0  0  0  0  0  0  0  0  0  0
    6.3236  -15.9771   25.5043 C   0  0  0  0  0  0  0  0  0  0  0  0
    5.5229  -14.9062   25.6018 N   0  0  0  0  0  0  0  0  0  0  0  0
    6.1948  -13.8760   26.1440 C   0  0  0  0  0  0  0  0  0  0  0  0
    5.8214  -12.5914   26.4462 C   0  0  0  0  0  0  0  0  0  0  0  0
    6.7321  -11.7180   27.0145 C   0  0  0  0  0  0  0  0  0  0  0  0
    8.0051  -12.1708   27.2638 C   0  0  0  0  0  0  0  0  0  0  0  0
    8.3777  -13.4584   26.9602 C   0  0  0  0  0  0  0  0  0  0  0  0
    7.4877  -14.3386   26.3961 C   0  0  0  0  0  0  0  0  0  0  0  0
   11.0142  -16.8973   25.2541 C   0  0  0  0  0  0  0  0  0  0  0  0
   11.7073  -16.8330   26.4499 O   0  0  0  0  0  0  0  0  0  0  0  0
   11.4905  -17.6391   24.3462 O   0  0  0  0  0  0  0  0  0  0  0  0
  2  1  1  6
  2 10  1  0
  2  3  1  0
  4  3  1  0
  4  5  2  0
  6  5  1  0
  7  6  2  0
  8  9  2  0
  8  7  1  0
  9  4  1  0
 10 11  2  0
 13 12  1  6
 13 14  1  0
 15 13  1  0
 15 16  1  1
 16 10  1  0
 17 15  1  0
 18 17  2  0
 19 17  1  0
 20 21  1  1
 20 19  1  0
 21 22  1  0
 22 30  1  0
 23 24  1  0
 23 22  2  0
 24 25  1  0
 25 30  2  0
 25 26  1  0
 26 27  2  0
 27 28  1  0
 29 28  2  0
 30 29  1  0
 31 20  1  0
 31 32  1  0
 33 31  2  0
M  END
$$$$
