FTW.pdb
     RDKit          3D

 33 35  0  0  1  0  0  0  0  0999 V2000
    8.0487  -16.9850   16.9369 N   0  0  0  0  0  0  0  0  0  0  0  0
    8.3960  -16.1148   18.0384 C   0  0  1  0  0  0  0  0  0  0  0  0
    7.2666  -15.0763   18.1133 C   0  0  0  0  0  0  0  0  0  0  0  0
    7.4643  -14.2472   19.3238 C   0  0  0  0  0  0  0  0  0  0  0  0
    8.1948  -13.0690   19.2404 C   0  0  0  0  0  0  0  0  0  0  0  0
    8.4012  -12.2688   20.3378 C   0  0  0  0  0  0  0  0  0  0  0  0
    7.8536  -12.6756   21.5434 C   0  0  0  0  0  0  0  0  0  0  0  0
    7.1256  -13.8469   21.6336 C   0  0  0  0  0  0  0  0  0  0  0  0
    6.9242  -14.6429   20.5258 C   0  0  0  0  0  0  0  0  0  0  0  0
    8.4842  -16.9125   19.2709 C   0  0  0  0  0  0  0  0  0  0  0  0
    7.6946  -17.9029   19.4568 O   0  0  0  0  0  0  0  0  0  0  0  0
    9.5416  -19.6835   20.2061 C   0  0  0  0  0  0  0  0  0  0  0  0
   10.2205  -18.7994   21.2291 C   0  0  1  0  0  0  0  0  0  0  0  0
   11.4778  -18.4973   20.7332 O   0  0  0  0  0  0  0  0  0  0  0  0
    9.4763  -17.5249   21.4807 C   0  0  2  0  0  0  0  0  0  0  0  0
    9.3952  -16.6799   20.3109 N   0  0  0  0  0  0  0  0  0  0  0  0
   10.1238  -16.8110   22.6107 C   0  0  0  0  0  0  0  0  0  0  0  0
   11.1682  -16.0916   22.4034 O   0  0  0  0  0  0  0  0  0  0  0  0
    9.6868  -16.8405   23.9552 N   0  0  0  0  0  0  0  0  0  0  0  0
   10.4612  -16.2032   25.0065 C   0  0  1  0  0  0  0  0  0  0  0  0
   10.1297  -14.7724   25.2000 C   0  0  0  0  0  0  0  0  0  0  0  0
    8.7027  -14.6281   25.5575 C   0  0  0  0  0  0  0  0  0  0  0  0
    7.7614  -15.6503   25.6083 C   0  0  0  0  0  0  0  0  0  0  0  0
    6.5707  -15.1384   25.9512 N   0  0  0  0  0  0  0  0  0  0  0  0
    6.6749  -13.8107   26.1332 C   0  0  0  0  0  0  0  0  0  0  0  0
    5.7561  -12.8558   26.4868 C   0  0  0  0  0  0  0  0  0  0  0  0
    6.1407  -11.5320   26.6085 C   0  0  0  0  0  0  0  0  0  0  0  0
    7.4538  -11.2073   26.3675 C   0  0  0  0  0  0  0  0  0  0  0  0
    8.3733  -12.1654   26.0130 C   0  0  0  0  0  0  0  0  0  0  0  0
    8.0097  -13.4834   25.8877 C   0  0  0  0  0  0  0  0  0  0  0  0
   10.2477  -16.9410   26.2699 C   0  0  0  0  0  0  0  0  0  0  0  0
    9.4563  -18.0757   26.2954 O   0  0  0  0  0  0  0  0  0  0  0  0
   10.7692  -16.5723   27.3623 O   0  0  0  0  0  0  0  0  0  0  0  0
  2  1  1  6
  2 10  1  0
  2  3  1  0
  4  3  1  0
  4  5  2  0
  6  5  1  0
  7  6  2  0
  8  9  2  0
  8  7  1  0
  9  4  1  0
 10 11  2  0
 13 12  1  6
 13 14  1  0
 15 13  1  0
 15 16  1  6
 16 10  1  0
 17 15  1  0
 18 17  2  0
 19 17  1  0
 20 21  1  1
 20 19  1  0
 21 22  1  0
 22 30  1  0
 23 24  1  0
 23 22  2  0
 24 25  1  0
 25 30  2  0
 25 26  1  0
 26 27  2  0
 27 28  1  0
 29 28  2  0
 30 29  1  0
 31 20  1  0
 31 32  1  0
 33 31  2  0
M  END
$$$$
