FTW.pdb
     RDKit          3D

 33 35  0  0  1  0  0  0  0  0999 V2000
    7.7167  -16.1662   17.7161 N   0  0  0  0  0  0  0  0  0  0  0  0
    8.9112  -16.2224   18.5292 C   0  0  1  0  0  0  0  0  0  0  0  0
    9.3447  -14.7616   18.7237 C   0  0  0  0  0  0  0  0  0  0  0  0
    8.3065  -14.0600   19.5123 C   0  0  0  0  0  0  0  0  0  0  0  0
    8.5089  -12.7419   19.9002 C   0  0  0  0  0  0  0  0  0  0  0  0
    7.5717  -12.0527   20.6309 C   0  0  0  0  0  0  0  0  0  0  0  0
    6.4059  -12.7179   20.9735 C   0  0  0  0  0  0  0  0  0  0  0  0
    6.1979  -14.0294   20.5909 C   0  0  0  0  0  0  0  0  0  0  0  0
    7.1452  -14.7122   19.8574 C   0  0  0  0  0  0  0  0  0  0  0  0
    8.5899  -16.8698   19.8101 C   0  0  0  0  0  0  0  0  0  0  0  0
    7.6352  -17.7196   19.8824 O   0  0  0  0  0  0  0  0  0  0  0  0
    8.3207  -19.4909   20.9781 C   0  0  0  0  0  0  0  0  0  0  0  0
    9.2728  -18.8861   21.9865 C   0  0  1  0  0  0  0  0  0  0  0  0
   10.5541  -19.0666   21.4932 O   0  0  0  0  0  0  0  0  0  0  0  0
    9.0358  -17.4242   22.2052 C   0  0  2  0  0  0  0  0  0  0  0  0
    9.2628  -16.6331   21.0170 N   0  0  0  0  0  0  0  0  0  0  0  0
    9.8968  -16.9648   23.3247 C   0  0  0  0  0  0  0  0  0  0  0  0
   11.1325  -16.6834   23.1124 O   0  0  0  0  0  0  0  0  0  0  0  0
    9.4760  -16.7943   24.6638 N   0  0  0  0  0  0  0  0  0  0  0  0
   10.4308  -16.4774   25.7122 C   0  0  1  0  0  0  0  0  0  0  0  0
   10.0019  -15.3589   26.5837 C   0  0  0  0  0  0  0  0  0  0  0  0
    8.5920  -15.0132   26.3053 C   0  0  0  0  0  0  0  0  0  0  0  0
    7.5741  -15.9067   25.9908 C   0  0  0  0  0  0  0  0  0  0  0  0
    6.4367  -15.2271   25.7859 N   0  0  0  0  0  0  0  0  0  0  0  0
    6.6505  -13.9103   25.9507 C   0  0  0  0  0  0  0  0  0  0  0  0
    5.8184  -12.8242   25.8548 C   0  0  0  0  0  0  0  0  0  0  0  0
    6.3088  -11.5503   26.0824 C   0  0  0  0  0  0  0  0  0  0  0  0
    7.6372  -11.4082   26.4033 C   0  0  0  0  0  0  0  0  0  0  0  0
    8.4697  -12.4975   26.4988 C   0  0  0  0  0  0  0  0  0  0  0  0
    8.0007  -13.7686   26.2764 C   0  0  0  0  0  0  0  0  0  0  0  0
   10.6607  -17.6880   26.5294 C   0  0  0  0  0  0  0  0  0  0  0  0
   11.7178  -17.7435   27.4206 O   0  0  0  0  0  0  0  0  0  0  0  0
    9.9149  -18.7072   26.4493 O   0  0  0  0  0  0  0  0  0  0  0  0
  2  1  1  6
  2 10  1  0
  2  3  1  0
  4  3  1  0
  4  5  2  0
  6  5  1  0
  7  6  2  0
  8  9  2  0
  8  7  1  0
  9  4  1  0
 10 11  2  0
 13 12  1  6
 13 14  1  0
 15 13  1  0
 15 16  1  6
 16 10  1  0
 17 15  1  0
 18 17  2  0
 19 17  1  0
 20 21  1  1
 20 19  1  0
 21 22  1  0
 22 30  1  0
 23 24  1  0
 23 22  2  0
 24 25  1  0
 25 30  2  0
 25 26  1  0
 26 27  2  0
 27 28  1  0
 29 28  2  0
 30 29  1  0
 31 20  1  0
 31 32  1  0
 33 31  2  0
M  END
$$$$
