FTW.pdb
     RDKit          3D

 33 35  0  0  1  0  0  0  0  0999 V2000
    6.6227  -17.4764   20.0608 N   0  0  0  0  0  0  0  0  0  0  0  0
    7.4527  -16.5088   20.7435 C   0  0  1  0  0  0  0  0  0  0  0  0
    6.5014  -15.3816   21.1725 C   0  0  0  0  0  0  0  0  0  0  0  0
    7.1299  -14.0813   20.8469 C   0  0  0  0  0  0  0  0  0  0  0  0
    7.2306  -13.6769   19.5221 C   0  0  0  0  0  0  0  0  0  0  0  0
    7.8045  -12.4779   19.1753 C   0  0  0  0  0  0  0  0  0  0  0  0
    8.2853  -11.6750   20.1965 C   0  0  0  0  0  0  0  0  0  0  0  0
    8.1883  -12.0710   21.5170 C   0  0  0  0  0  0  0  0  0  0  0  0
    7.6103  -13.2767   21.8543 C   0  0  0  0  0  0  0  0  0  0  0  0
    8.0887  -17.1545   21.9019 C   0  0  0  0  0  0  0  0  0  0  0  0
    7.4301  -17.9843   22.6207 O   0  0  0  0  0  0  0  0  0  0  0  0
   11.0392  -19.4281   21.9220 C   0  0  0  0  0  0  0  0  0  0  0  0
   11.2773  -18.3793   22.9862 C   0  0  1  0  0  0  0  0  0  0  0  0
   12.1623  -17.4562   22.4548 O   0  0  0  0  0  0  0  0  0  0  0  0
   10.0229  -17.6724   23.3962 C   0  0  2  0  0  0  0  0  0  0  0  0
    9.4113  -16.9369   22.3127 N   0  0  0  0  0  0  0  0  0  0  0  0
   10.3332  -16.7778   24.5403 C   0  0  0  0  0  0  0  0  0  0  0  0
   10.9246  -15.6551   24.3373 O   0  0  0  0  0  0  0  0  0  0  0  0
   10.0277  -17.0455   25.8947 N   0  0  0  0  0  0  0  0  0  0  0  0
   10.7579  -16.3932   26.9682 C   0  0  1  0  0  0  0  0  0  0  0  0
    9.8927  -15.6102   27.8808 C   0  0  0  0  0  0  0  0  0  0  0  0
    8.6017  -15.3154   27.2242 C   0  0  0  0  0  0  0  0  0  0  0  0
    7.7066  -16.2501   26.7157 C   0  0  0  0  0  0  0  0  0  0  0  0
    6.6573  -15.6111   26.1788 N   0  0  0  0  0  0  0  0  0  0  0  0
    6.8122  -14.2821   26.3068 C   0  0  0  0  0  0  0  0  0  0  0  0
    6.0266  -13.2237   25.9275 C   0  0  0  0  0  0  0  0  0  0  0  0
    6.4324  -11.9271   26.1906 C   0  0  0  0  0  0  0  0  0  0  0  0
    7.6305  -11.7344   26.8349 C   0  0  0  0  0  0  0  0  0  0  0  0
    8.4166  -12.7960   27.2142 C   0  0  0  0  0  0  0  0  0  0  0  0
    8.0300  -14.0891   26.9616 C   0  0  0  0  0  0  0  0  0  0  0  0
   11.4946  -17.4197   27.7361 C   0  0  0  0  0  0  0  0  0  0  0  0
   11.3523  -18.7618   27.4309 O   0  0  0  0  0  0  0  0  0  0  0  0
   12.2719  -17.1203   28.6888 O   0  0  0  0  0  0  0  0  0  0  0  0
  2  1  1  1
  2 10  1  0
  2  3  1  0
  4  3  1  0
  4  5  2  0
  6  5  1  0
  7  6  2  0
  8  9  2  0
  8  7  1  0
  9  4  1  0
 10 11  2  0
 13 12  1  6
 13 14  1  0
 15 13  1  0
 15 16  1  6
 16 10  1  0
 17 15  1  0
 18 17  2  0
 19 17  1  0
 20 21  1  1
 20 19  1  0
 21 22  1  0
 22 30  1  0
 23 24  1  0
 23 22  2  0
 24 25  1  0
 25 30  2  0
 25 26  1  0
 26 27  2  0
 27 28  1  0
 29 28  2  0
 30 29  1  0
 31 20  1  0
 31 32  1  0
 33 31  2  0
M  END
$$$$
