FTW.pdb
     RDKit          3D

 33 35  0  0  1  0  0  0  0  0999 V2000
   13.3036  -14.1032   18.5913 N   0  0  0  0  0  0  0  0  0  0  0  0
   11.9963  -14.5504   18.1647 C   0  0  1  0  0  0  0  0  0  0  0  0
   12.1104  -16.0756   18.0218 C   0  0  0  0  0  0  0  0  0  0  0  0
   10.8152  -16.6046   17.5374 C   0  0  0  0  0  0  0  0  0  0  0  0
   10.3012  -16.1647   16.3245 C   0  0  0  0  0  0  0  0  0  0  0  0
    9.1044  -16.6302   15.8366 C   0  0  0  0  0  0  0  0  0  0  0  0
    8.4173  -17.5615   16.5979 C   0  0  0  0  0  0  0  0  0  0  0  0
    8.9229  -18.0037   17.8056 C   0  0  0  0  0  0  0  0  0  0  0  0
   10.1254  -17.5300   18.2863 C   0  0  0  0  0  0  0  0  0  0  0  0
   11.0040  -14.1720   19.1822 C   0  0  0  0  0  0  0  0  0  0  0  0
   10.4303  -13.0288   19.1307 O   0  0  0  0  0  0  0  0  0  0  0  0
    8.2983  -13.4753   19.3610 C   0  0  0  0  0  0  0  0  0  0  0  0
    8.2492  -14.3880   20.5667 C   0  0  1  0  0  0  0  0  0  0  0  0
    7.7723  -15.6123   20.1292 O   0  0  0  0  0  0  0  0  0  0  0  0
    9.5909  -14.5856   21.2008 C   0  0  2  0  0  0  0  0  0  0  0  0
   10.6079  -14.9840   20.2542 N   0  0  0  0  0  0  0  0  0  0  0  0
    9.4586  -15.5829   22.2933 C   0  0  0  0  0  0  0  0  0  0  0  0
    9.6622  -16.8291   22.0549 O   0  0  0  0  0  0  0  0  0  0  0  0
    9.1181  -15.2881   23.6336 N   0  0  0  0  0  0  0  0  0  0  0  0
    9.7236  -16.0161   24.7356 C   0  0  1  0  0  0  0  0  0  0  0  0
    9.5537  -15.3503   26.0480 C   0  0  0  0  0  0  0  0  0  0  0  0
    8.1842  -14.8067   26.1654 C   0  0  0  0  0  0  0  0  0  0  0  0
    7.0027  -15.5376   26.1078 C   0  0  0  0  0  0  0  0  0  0  0  0
    5.9603  -14.7039   26.2331 N   0  0  0  0  0  0  0  0  0  0  0  0
    6.3953  -13.4398   26.3729 C   0  0  0  0  0  0  0  0  0  0  0  0
    5.7308  -12.2508   26.5337 C   0  0  0  0  0  0  0  0  0  0  0  0
    6.4401  -11.0691   26.6592 C   0  0  0  0  0  0  0  0  0  0  0  0
    7.8124  -11.1223   26.6185 C   0  0  0  0  0  0  0  0  0  0  0  0
    8.4768  -12.3146   26.4572 C   0  0  0  0  0  0  0  0  0  0  0  0
    7.7896  -13.4965   26.3312 C   0  0  0  0  0  0  0  0  0  0  0  0
    9.1426  -17.3749   24.7856 C   0  0  0  0  0  0  0  0  0  0  0  0
    8.0818  -17.7158   23.9653 O   0  0  0  0  0  0  0  0  0  0  0  0
    9.5820  -18.2676   25.5676 O   0  0  0  0  0  0  0  0  0  0  0  0
  2  1  1  1
  2 10  1  0
  2  3  1  0
  4  3  1  0
  4  5  2  0
  6  5  1  0
  7  6  2  0
  8  9  2  0
  8  7  1  0
  9  4  1  0
 10 11  2  0
 13 12  1  6
 13 14  1  0
 15 13  1  0
 15 16  1  6
 16 10  1  0
 17 15  1  0
 18 17  2  0
 19 17  1  0
 20 21  1  1
 20 19  1  0
 21 22  1  0
 22 30  1  0
 23 24  1  0
 23 22  2  0
 24 25  1  0
 25 30  2  0
 25 26  1  0
 26 27  2  0
 27 28  1  0
 29 28  2  0
 30 29  1  0
 31 20  1  0
 31 32  1  0
 33 31  2  0
M  END
$$$$
