FTW.pdb
     RDKit          3D

 33 35  0  0  1  0  0  0  0  0999 V2000
   11.5884  -18.4624   17.7420 N   0  0  0  0  0  0  0  0  0  0  0  0
   11.0970  -18.6852   19.0837 C   0  0  1  0  0  0  0  0  0  0  0  0
   12.3352  -19.0388   19.9212 C   0  0  0  0  0  0  0  0  0  0  0  0
   12.6426  -20.4743   19.7302 C   0  0  0  0  0  0  0  0  0  0  0  0
   13.5254  -20.8632   18.7310 C   0  0  0  0  0  0  0  0  0  0  0  0
   13.8402  -22.1836   18.5200 C   0  0  0  0  0  0  0  0  0  0  0  0
   13.2451  -23.1266   19.3418 C   0  0  0  0  0  0  0  0  0  0  0  0
   12.3658  -22.7468   20.3381 C   0  0  0  0  0  0  0  0  0  0  0  0
   12.0566  -21.4185   20.5415 C   0  0  0  0  0  0  0  0  0  0  0  0
   10.4460  -17.4578   19.5663 C   0  0  0  0  0  0  0  0  0  0  0  0
   10.8485  -16.3118   19.1621 O   0  0  0  0  0  0  0  0  0  0  0  0
    6.4545  -15.0650   21.0609 C   0  0  0  0  0  0  0  0  0  0  0  0
    7.1856  -16.3494   20.7369 C   0  0  1  0  0  0  0  0  0  0  0  0
    6.8239  -16.7078   19.4490 O   0  0  0  0  0  0  0  0  0  0  0  0
    8.6740  -16.2032   20.8026 C   0  0  2  0  0  0  0  0  0  0  0  0
    9.3749  -17.4228   20.4701 N   0  0  0  0  0  0  0  0  0  0  0  0
    9.0458  -15.7270   22.1594 C   0  0  0  0  0  0  0  0  0  0  0  0
    8.5436  -14.6370   22.6188 O   0  0  0  0  0  0  0  0  0  0  0  0
    9.9361  -16.3822   23.0412 N   0  0  0  0  0  0  0  0  0  0  0  0
   10.1650  -15.8764   24.3838 C   0  0  1  0  0  0  0  0  0  0  0  0
    9.6950  -14.4852   24.5794 C   0  0  0  0  0  0  0  0  0  0  0  0
    8.3626  -14.4871   25.2193 C   0  0  0  0  0  0  0  0  0  0  0  0
    7.4443  -15.5311   25.2011 C   0  0  0  0  0  0  0  0  0  0  0  0
    6.3424  -15.1625   25.8700 N   0  0  0  0  0  0  0  0  0  0  0  0
    6.4843  -13.9104   26.3377 C   0  0  0  0  0  0  0  0  0  0  0  0
    5.6531  -13.1027   27.0711 C   0  0  0  0  0  0  0  0  0  0  0  0
    6.0587  -11.8287   27.4283 C   0  0  0  0  0  0  0  0  0  0  0  0
    7.3032  -11.4029   27.0313 C   0  0  0  0  0  0  0  0  0  0  0  0
    8.1350  -12.2135   26.2964 C   0  0  0  0  0  0  0  0  0  0  0  0
    7.7493  -13.4802   25.9331 C   0  0  0  0  0  0  0  0  0  0  0  0
    9.4942  -16.7712   25.3511 C   0  0  0  0  0  0  0  0  0  0  0  0
    9.7504  -16.6589   26.7063 O   0  0  0  0  0  0  0  0  0  0  0  0
    8.6728  -17.6625   24.9876 O   0  0  0  0  0  0  0  0  0  0  0  0
  2  1  1  6
  2 10  1  0
  2  3  1  0
  4  3  1  0
  4  5  2  0
  6  5  1  0
  7  6  2  0
  8  9  2  0
  8  7  1  0
  9  4  1  0
 10 11  2  0
 13 12  1  6
 13 14  1  0
 15 13  1  0
 15 16  1  1
 16 10  1  0
 17 15  1  0
 18 17  2  0
 19 17  1  0
 20 21  1  6
 20 19  1  0
 21 22  1  0
 22 30  1  0
 23 24  1  0
 23 22  2  0
 24 25  1  0
 25 30  2  0
 25 26  1  0
 26 27  2  0
 27 28  1  0
 29 28  2  0
 30 29  1  0
 31 20  1  0
 31 32  1  0
 33 31  2  0
M  END
$$$$
