FTW.pdb
     RDKit          3D

 33 35  0  0  1  0  0  0  0  0999 V2000
    7.0918  -20.8889   21.6641 N   0  0  0  0  0  0  0  0  0  0  0  0
    6.7099  -19.7417   22.4575 C   0  0  1  0  0  0  0  0  0  0  0  0
    7.1660  -20.0622   23.8889 C   0  0  0  0  0  0  0  0  0  0  0  0
    6.3794  -21.2115   24.3910 C   0  0  0  0  0  0  0  0  0  0  0  0
    7.0313  -22.3708   24.7910 C   0  0  0  0  0  0  0  0  0  0  0  0
    6.3410  -23.4600   25.2646 C   0  0  0  0  0  0  0  0  0  0  0  0
    4.9605  -23.3677   25.3325 C   0  0  0  0  0  0  0  0  0  0  0  0
    4.3053  -22.2172   24.9362 C   0  0  0  0  0  0  0  0  0  0  0  0
    5.0078  -21.1294   24.4622 C   0  0  0  0  0  0  0  0  0  0  0  0
    7.3823  -18.5460   21.9270 C   0  0  0  0  0  0  0  0  0  0  0  0
    8.4189  -18.6640   21.1851 O   0  0  0  0  0  0  0  0  0  0  0  0
    7.6582  -13.6900   20.9586 C   0  0  0  0  0  0  0  0  0  0  0  0
    6.8634  -14.9020   21.3926 C   0  0  1  0  0  0  0  0  0  0  0  0
    6.0205  -15.2307   20.3441 O   0  0  0  0  0  0  0  0  0  0  0  0
    7.7294  -16.0813   21.7103 C   0  0  2  0  0  0  0  0  0  0  0  0
    6.9755  -17.2263   22.1683 N   0  0  0  0  0  0  0  0  0  0  0  0
    8.7412  -15.6711   22.7171 C   0  0  0  0  0  0  0  0  0  0  0  0
    9.6471  -14.8141   22.4066 O   0  0  0  0  0  0  0  0  0  0  0  0
    8.8122  -16.1469   24.0467 N   0  0  0  0  0  0  0  0  0  0  0  0
    9.9276  -15.7934   24.9081 C   0  0  1  0  0  0  0  0  0  0  0  0
    9.5108  -15.2509   26.2220 C   0  0  0  0  0  0  0  0  0  0  0  0
    8.1575  -14.6649   26.1205 C   0  0  0  0  0  0  0  0  0  0  0  0
    6.9731  -15.3639   25.9156 C   0  0  0  0  0  0  0  0  0  0  0  0
    5.9519  -14.4970   25.8601 N   0  0  0  0  0  0  0  0  0  0  0  0
    6.4040  -13.2413   26.0198 C   0  0  0  0  0  0  0  0  0  0  0  0
    5.7632  -12.0289   26.0426 C   0  0  0  0  0  0  0  0  0  0  0  0
    6.4860  -10.8638   26.2309 C   0  0  0  0  0  0  0  0  0  0  0  0
    7.8472  -10.9571   26.3924 C   0  0  0  0  0  0  0  0  0  0  0  0
    8.4878  -12.1728   26.3692 C   0  0  0  0  0  0  0  0  0  0  0  0
    7.7870  -13.3389   26.1836 C   0  0  0  0  0  0  0  0  0  0  0  0
   10.7742  -16.9892   25.1069 C   0  0  0  0  0  0  0  0  0  0  0  0
   10.4253  -18.1998   24.5346 O   0  0  0  0  0  0  0  0  0  0  0  0
   11.8342  -16.9577   25.7974 O   0  0  0  0  0  0  0  0  0  0  0  0
  2  1  1  6
  2 10  1  0
  2  3  1  0
  4  3  1  0
  4  5  2  0
  6  5  1  0
  7  6  2  0
  8  9  2  0
  8  7  1  0
  9  4  1  0
 10 11  2  0
 13 12  1  6
 13 14  1  0
 15 13  1  0
 15 16  1  1
 16 10  1  0
 17 15  1  0
 18 17  2  0
 19 17  1  0
 20 21  1  1
 20 19  1  0
 21 22  1  0
 22 30  1  0
 23 24  1  0
 23 22  2  0
 24 25  1  0
 25 30  2  0
 25 26  1  0
 26 27  2  0
 27 28  1  0
 29 28  2  0
 30 29  1  0
 31 20  1  0
 31 32  1  0
 33 31  2  0
M  END
$$$$
