FTW.pdb
     RDKit          3D

 33 35  0  0  1  0  0  0  0  0999 V2000
    6.1485  -18.5369   20.8475 N   0  0  0  0  0  0  0  0  0  0  0  0
    7.0595  -17.4463   21.1158 C   0  0  1  0  0  0  0  0  0  0  0  0
    6.3789  -16.6006   22.2026 C   0  0  0  0  0  0  0  0  0  0  0  0
    6.6275  -15.1697   21.9149 C   0  0  0  0  0  0  0  0  0  0  0  0
    6.7111  -14.2607   22.9616 C   0  0  0  0  0  0  0  0  0  0  0  0
    6.9422  -12.9247   22.7402 C   0  0  0  0  0  0  0  0  0  0  0  0
    7.0910  -12.5058   21.4283 C   0  0  0  0  0  0  0  0  0  0  0  0
    7.0090  -13.4049   20.3819 C   0  0  0  0  0  0  0  0  0  0  0  0
    6.7768  -14.7440   20.6151 C   0  0  0  0  0  0  0  0  0  0  0  0
    8.3430  -17.9959   21.5782 C   0  0  0  0  0  0  0  0  0  0  0  0
    8.9429  -18.8971   20.8951 O   0  0  0  0  0  0  0  0  0  0  0  0
   10.4962  -17.0068   20.3735 C   0  0  0  0  0  0  0  0  0  0  0  0
   11.0167  -16.6345   21.7445 C   0  0  1  0  0  0  0  0  0  0  0  0
   10.6640  -15.3139   21.9671 O   0  0  0  0  0  0  0  0  0  0  0  0
   10.4408  -17.4835   22.8348 C   0  0  2  0  0  0  0  0  0  0  0  0
    9.0031  -17.6071   22.7523 N   0  0  0  0  0  0  0  0  0  0  0  0
   10.8536  -16.9195   24.1452 C   0  0  0  0  0  0  0  0  0  0  0  0
   12.0998  -16.7503   24.4090 O   0  0  0  0  0  0  0  0  0  0  0  0
    9.9744  -16.5283   25.1812 N   0  0  0  0  0  0  0  0  0  0  0  0
   10.4739  -16.2336   26.5134 C   0  0  1  0  0  0  0  0  0  0  0  0
    9.4738  -15.5780   27.3879 C   0  0  0  0  0  0  0  0  0  0  0  0
    8.3046  -15.1541   26.5891 C   0  0  0  0  0  0  0  0  0  0  0  0
    7.4055  -15.9931   25.9402 C   0  0  0  0  0  0  0  0  0  0  0  0
    6.4891  -15.2507   25.3026 N   0  0  0  0  0  0  0  0  0  0  0  0
    6.7372  -13.9442   25.4979 C   0  0  0  0  0  0  0  0  0  0  0  0
    6.0967  -12.8114   25.0645 C   0  0  0  0  0  0  0  0  0  0  0  0
    6.5732  -11.5627   25.4234 C   0  0  0  0  0  0  0  0  0  0  0  0
    7.6927  -11.4928   26.2168 C   0  0  0  0  0  0  0  0  0  0  0  0
    8.3335  -12.6288   26.6501 C   0  0  0  0  0  0  0  0  0  0  0  0
    7.8750  -13.8759   26.3040 C   0  0  0  0  0  0  0  0  0  0  0  0
   10.9362  -17.4914   27.1383 C   0  0  0  0  0  0  0  0  0  0  0  0
   10.7887  -18.6988   26.4788 O   0  0  0  0  0  0  0  0  0  0  0  0
   11.4755  -17.5171   28.2827 O   0  0  0  0  0  0  0  0  0  0  0  0
  2  1  1  1
  2 10  1  0
  2  3  1  0
  4  3  1  0
  4  5  2  0
  6  5  1  0
  7  6  2  0
  8  9  2  0
  8  7  1  0
  9  4  1  0
 10 11  2  0
 13 12  1  6
 13 14  1  0
 15 13  1  0
 15 16  1  1
 16 10  1  0
 17 15  1  0
 18 17  2  0
 19 17  1  0
 20 21  1  1
 20 19  1  0
 21 22  1  0
 22 30  1  0
 23 24  1  0
 23 22  2  0
 24 25  1  0
 25 30  2  0
 25 26  1  0
 26 27  2  0
 27 28  1  0
 29 28  2  0
 30 29  1  0
 31 20  1  0
 31 32  1  0
 33 31  2  0
M  END
$$$$
