FTW.pdb
     RDKit          3D

 33 35  0  0  1  0  0  0  0  0999 V2000
    7.0331  -17.1806   19.0899 N   0  0  0  0  0  0  0  0  0  0  0  0
    7.7162  -16.4903   20.1615 C   0  0  1  0  0  0  0  0  0  0  0  0
    6.7517  -15.3857   20.6190 C   0  0  0  0  0  0  0  0  0  0  0  0
    7.3385  -14.0711   20.2735 C   0  0  0  0  0  0  0  0  0  0  0  0
    6.6899  -13.2440   19.3657 C   0  0  0  0  0  0  0  0  0  0  0  0
    7.1977  -12.0159   19.0179 C   0  0  0  0  0  0  0  0  0  0  0  0
    8.3887  -11.6218   19.6054 C   0  0  0  0  0  0  0  0  0  0  0  0
    9.0394  -12.4397   20.5096 C   0  0  0  0  0  0  0  0  0  0  0  0
    8.5209  -13.6708   20.8519 C   0  0  0  0  0  0  0  0  0  0  0  0
    8.0015  -17.4458   21.2427 C   0  0  0  0  0  0  0  0  0  0  0  0
    7.0914  -18.2473   21.6527 O   0  0  0  0  0  0  0  0  0  0  0  0
    9.7205  -20.5206   22.1107 C   0  0  0  0  0  0  0  0  0  0  0  0
   10.2686  -19.4697   23.0511 C   0  0  1  0  0  0  0  0  0  0  0  0
   11.5018  -19.0835   22.5529 O   0  0  0  0  0  0  0  0  0  0  0  0
    9.3856  -18.2652   23.1545 C   0  0  2  0  0  0  0  0  0  0  0  0
    9.2350  -17.5677   21.8976 N   0  0  0  0  0  0  0  0  0  0  0  0
    9.9299  -17.3647   24.2026 C   0  0  0  0  0  0  0  0  0  0  0  0
   10.8431  -16.5105   23.9062 O   0  0  0  0  0  0  0  0  0  0  0  0
    9.5257  -17.3477   25.5575 N   0  0  0  0  0  0  0  0  0  0  0  0
   10.3750  -16.7665   26.5832 C   0  0  1  0  0  0  0  0  0  0  0  0
   10.1791  -15.3084   26.7564 C   0  0  0  0  0  0  0  0  0  0  0  0
    8.7808  -14.9456   26.4430 C   0  0  0  0  0  0  0  0  0  0  0  0
    7.7420  -15.8314   26.1791 C   0  0  0  0  0  0  0  0  0  0  0  0
    6.6245  -15.1377   25.9195 N   0  0  0  0  0  0  0  0  0  0  0  0
    6.8717  -13.8189   25.9988 C   0  0  0  0  0  0  0  0  0  0  0  0
    6.0693  -12.7204   25.8239 C   0  0  0  0  0  0  0  0  0  0  0  0
    6.5914  -11.4473   25.9712 C   0  0  0  0  0  0  0  0  0  0  0  0
    7.9207  -11.3185   26.2940 C   0  0  0  0  0  0  0  0  0  0  0  0
    8.7235  -12.4203   26.4688 C   0  0  0  0  0  0  0  0  0  0  0  0
    8.2227  -13.6908   26.3267 C   0  0  0  0  0  0  0  0  0  0  0  0
   10.1194  -17.4607   27.8634 C   0  0  0  0  0  0  0  0  0  0  0  0
   10.8728  -17.1645   28.9856 O   0  0  0  0  0  0  0  0  0  0  0  0
    9.2179  -18.3405   27.9851 O   0  0  0  0  0  0  0  0  0  0  0  0
  2  1  1  6
  2 10  1  0
  2  3  1  0
  4  3  1  0
  4  5  2  0
  6  5  1  0
  7  6  2  0
  8  9  2  0
  8  7  1  0
  9  4  1  0
 10 11  2  0
 13 12  1  6
 13 14  1  0
 15 13  1  0
 15 16  1  6
 16 10  1  0
 17 15  1  0
 18 17  2  0
 19 17  1  0
 20 21  1  1
 20 19  1  0
 21 22  1  0
 22 30  1  0
 23 24  1  0
 23 22  2  0
 24 25  1  0
 25 30  2  0
 25 26  1  0
 26 27  2  0
 27 28  1  0
 29 28  2  0
 30 29  1  0
 31 20  1  0
 31 32  1  0
 33 31  2  0
M  END
$$$$
