FTW.pdb
     RDKit          3D

 33 35  0  0  1  0  0  0  0  0999 V2000
    7.9033  -17.2481   18.2533 N   0  0  0  0  0  0  0  0  0  0  0  0
    8.2478  -16.4090   19.3796 C   0  0  1  0  0  0  0  0  0  0  0  0
    7.0502  -15.4661   19.5707 C   0  0  0  0  0  0  0  0  0  0  0  0
    7.4845  -14.3068   20.3827 C   0  0  0  0  0  0  0  0  0  0  0  0
    7.2420  -14.2935   21.7502 C   0  0  0  0  0  0  0  0  0  0  0  0
    7.6292  -13.2394   22.5414 C   0  0  0  0  0  0  0  0  0  0  0  0
    8.2757  -12.1782   21.9292 C   0  0  0  0  0  0  0  0  0  0  0  0
    8.5203  -12.1848   20.5690 C   0  0  0  0  0  0  0  0  0  0  0  0
    8.1274  -13.2480   19.7838 C   0  0  0  0  0  0  0  0  0  0  0  0
    8.4664  -17.2573   20.5609 C   0  0  0  0  0  0  0  0  0  0  0  0
    8.1146  -18.4881   20.5459 O   0  0  0  0  0  0  0  0  0  0  0  0
    9.9234  -19.6403   21.2331 C   0  0  0  0  0  0  0  0  0  0  0  0
   10.4622  -18.7487   22.3303 C   0  0  1  0  0  0  0  0  0  0  0  0
   11.5625  -18.0871   21.8113 O   0  0  0  0  0  0  0  0  0  0  0  0
    9.4629  -17.7383   22.8010 C   0  0  2  0  0  0  0  0  0  0  0  0
    9.0520  -16.8248   21.7590 N   0  0  0  0  0  0  0  0  0  0  0  0
   10.0367  -17.0048   23.9580 C   0  0  0  0  0  0  0  0  0  0  0  0
   10.8659  -16.0427   23.7627 O   0  0  0  0  0  0  0  0  0  0  0  0
    9.7487  -17.2668   25.3173 N   0  0  0  0  0  0  0  0  0  0  0  0
   10.3219  -16.4497   26.3732 C   0  0  1  0  0  0  0  0  0  0  0  0
    9.3439  -16.0592   27.4151 C   0  0  0  0  0  0  0  0  0  0  0  0
    8.1121  -15.5412   26.7832 C   0  0  0  0  0  0  0  0  0  0  0  0
    7.0534  -16.3030   26.3015 C   0  0  0  0  0  0  0  0  0  0  0  0
    6.1236  -15.4891   25.7813 N   0  0  0  0  0  0  0  0  0  0  0  0
    6.5163  -14.2086   25.8949 C   0  0  0  0  0  0  0  0  0  0  0  0
    5.9243  -13.0285   25.5233 C   0  0  0  0  0  0  0  0  0  0  0  0
    6.5610  -11.8242   25.7669 C   0  0  0  0  0  0  0  0  0  0  0  0
    7.7882  -11.8461   26.3844 C   0  0  0  0  0  0  0  0  0  0  0  0
    8.3801  -13.0294   26.7561 C   0  0  0  0  0  0  0  0  0  0  0  0
    7.7632  -14.2336   26.5224 C   0  0  0  0  0  0  0  0  0  0  0  0
   11.4433  -17.1884   26.9921 C   0  0  0  0  0  0  0  0  0  0  0  0
   12.2488  -16.5790   27.9378 O   0  0  0  0  0  0  0  0  0  0  0  0
   11.7103  -18.3873   26.6878 O   0  0  0  0  0  0  0  0  0  0  0  0
  2  1  1  6
  2 10  1  0
  2  3  1  0
  4  3  1  0
  4  5  2  0
  6  5  1  0
  7  6  2  0
  8  9  2  0
  8  7  1  0
  9  4  1  0
 10 11  2  0
 13 12  1  6
 13 14  1  0
 15 13  1  0
 15 16  1  6
 16 10  1  0
 17 15  1  0
 18 17  2  0
 19 17  1  0
 20 21  1  1
 20 19  1  0
 21 22  1  0
 22 30  1  0
 23 24  1  0
 23 22  2  0
 24 25  1  0
 25 30  2  0
 25 26  1  0
 26 27  2  0
 27 28  1  0
 29 28  2  0
 30 29  1  0
 31 20  1  0
 31 32  1  0
 33 31  2  0
M  END
$$$$
