DCP.pdb
     RDKit          3D

 22 22  0  0  1  0  0  0  0  0999 V2000
   28.1430  -23.5371  -16.2565 N   0  0  0  0  0  0  0  0  0  0  0  0
   27.6300  -22.1854  -15.9272 C   0  0  1  0  0  0  0  0  0  0  0  0
   27.3038  -21.5714  -17.2392 C   0  0  0  0  0  0  0  0  0  0  0  0
   28.4227  -21.1853  -18.0921 C   0  0  0  0  0  0  0  0  0  0  0  0
   29.3546  -20.5032  -17.6031 O   0  0  0  0  0  0  0  0  0  0  0  0
   26.5640  -22.2730  -14.9402 C   0  0  0  0  0  0  0  0  0  0  0  0
   25.5031  -22.9062  -15.2330 O   0  0  0  0  0  0  0  0  0  0  0  0
   28.5248  -21.5288  -19.4302 O   0  0  0  0  0  0  0  0  0  0  0  0
   26.6050  -21.7016  -13.6431 N   0  0  0  0  0  0  0  0  0  0  0  0
   25.4193  -21.7246  -12.7700 C   0  0  1  0  0  0  0  0  0  0  0  0
   25.8853  -21.1725  -11.4347 C   0  0  0  0  0  0  0  0  0  0  0  0
   24.4744  -20.8175  -10.3600 S   0  0  0  0  0  0  0  0  0  0  0  0
   24.3212  -20.8782  -13.2923 C   0  0  0  0  0  0  0  0  0  0  0  0
   24.6708  -19.7325  -13.7403 O   0  0  0  0  0  0  0  0  0  0  0  0
   22.9700  -21.2903  -13.3045 N   0  0  0  0  0  0  0  0  0  0  0  0
   22.3837  -22.5188  -12.8233 C   0  0  0  0  0  0  0  0  0  0  0  0
   21.1456  -22.7310  -13.6666 C   0  0  0  0  0  0  0  0  0  0  0  0
   21.0049  -21.5260  -14.5501 C   0  0  0  0  0  0  0  0  0  0  0  0
   21.8778  -20.5037  -13.8351 C   0  0  1  0  0  0  0  0  0  0  0  0
   21.1241  -19.8883  -12.7263 C   0  0  0  0  0  0  0  0  0  0  0  0
   21.3327  -20.1853  -11.5229 O   0  0  0  0  0  0  0  0  0  0  0  0
   20.1246  -18.9305  -12.9491 O   0  0  0  0  0  0  0  0  0  0  0  0
  2  1  1  6
  2  3  1  0
  3  4  1  0
  4  8  1  0
  5  4  2  0
  6  2  1  0
  7  6  2  0
  9  6  1  0
 10 13  1  0
 10  9  1  0
 11 12  1  0
 10 11  1  1
 13 15  1  0
 14 13  2  0
 15 16  1  0
 15 19  1  0
 16 17  1  0
 17 18  1  0
 19 20  1  1
 19 18  1  0
 20 22  1  0
 21 20  2  0
M  END
$$$$
