DCP.pdb
     RDKit          3D

 22 22  0  0  1  0  0  0  0  0999 V2000
   19.3498  -14.0338  -17.6142 N   0  0  0  0  0  0  0  0  0  0  0  0
   19.6288  -12.6519  -18.0737 C   0  0  1  0  0  0  0  0  0  0  0  0
   18.3113  -12.1206  -18.5059 C   0  0  0  0  0  0  0  0  0  0  0  0
   17.6793  -12.7579  -19.6560 C   0  0  0  0  0  0  0  0  0  0  0  0
   16.4421  -12.6330  -19.8184 O   0  0  0  0  0  0  0  0  0  0  0  0
   20.3511  -11.9119  -17.0496 C   0  0  0  0  0  0  0  0  0  0  0  0
   19.8511  -11.8218  -15.8859 O   0  0  0  0  0  0  0  0  0  0  0  0
   18.3686  -13.5051  -20.5970 O   0  0  0  0  0  0  0  0  0  0  0  0
   21.5995  -11.2664  -17.2379 N   0  0  0  0  0  0  0  0  0  0  0  0
   22.2270  -10.5028  -16.1463 C   0  0  1  0  0  0  0  0  0  0  0  0
   23.7237  -10.6672  -16.3414 C   0  0  0  0  0  0  0  0  0  0  0  0
   24.6401   -9.6420  -15.1662 S   0  0  0  0  0  0  0  0  0  0  0  0
   21.8828   -9.0627  -16.1986 C   0  0  0  0  0  0  0  0  0  0  0  0
   21.9013   -8.5313  -17.3617 O   0  0  0  0  0  0  0  0  0  0  0  0
   21.5525   -8.3074  -15.0514 N   0  0  0  0  0  0  0  0  0  0  0  0
   21.5093   -8.7168  -13.6676 C   0  0  0  0  0  0  0  0  0  0  0  0
   20.4866   -7.8143  -13.0128 C   0  0  0  0  0  0  0  0  0  0  0  0
   20.0500   -6.8213  -14.0500 C   0  0  0  0  0  0  0  0  0  0  0  0
   21.1771   -6.9103  -15.0698 C   0  0  1  0  0  0  0  0  0  0  0  0
   22.3172   -6.0835  -14.6310 C   0  0  0  0  0  0  0  0  0  0  0  0
   23.3841   -6.5842  -14.1937 O   0  0  0  0  0  0  0  0  0  0  0  0
   22.2795   -4.6826  -14.6752 O   0  0  0  0  0  0  0  0  0  0  0  0
  2  1  1  1
  2  3  1  0
  3  4  1  0
  4  8  1  0
  5  4  2  0
  6  2  1  0
  7  6  2  0
  9  6  1  0
 10 13  1  0
 10  9  1  0
 11 12  1  0
 10 11  1  6
 13 15  1  0
 14 13  2  0
 15 16  1  0
 15 19  1  0
 16 17  1  0
 17 18  1  0
 19 20  1  1
 19 18  1  0
 20 22  1  0
 21 20  2  0
M  END
$$$$
