DCP.pdb
     RDKit          3D

 22 22  0  0  1  0  0  0  0  0999 V2000
   19.8896  -11.4451  -15.1212 N   0  0  0  0  0  0  0  0  0  0  0  0
   18.9916  -10.2722  -15.2494 C   0  0  1  0  0  0  0  0  0  0  0  0
   17.6188  -10.8329  -15.1724 C   0  0  0  0  0  0  0  0  0  0  0  0
   17.1515  -11.6130  -16.3132 C   0  0  0  0  0  0  0  0  0  0  0  0
   17.6137  -11.3641  -17.4521 O   0  0  0  0  0  0  0  0  0  0  0  0
   19.3556   -9.2456  -14.2843 C   0  0  0  0  0  0  0  0  0  0  0  0
   19.2940   -9.5148  -13.0449 O   0  0  0  0  0  0  0  0  0  0  0  0
   16.2140  -12.6285  -16.2189 O   0  0  0  0  0  0  0  0  0  0  0  0
   19.7881   -7.9354  -14.6117 N   0  0  0  0  0  0  0  0  0  0  0  0
   20.0822   -6.9515  -13.5562 C   0  0  1  0  0  0  0  0  0  0  0  0
   21.4159   -6.3329  -13.9355 C   0  0  0  0  0  0  0  0  0  0  0  0
   21.7353   -4.8467  -12.9554 S   0  0  0  0  0  0  0  0  0  0  0  0
   19.0544   -5.8873  -13.4786 C   0  0  0  0  0  0  0  0  0  0  0  0
   18.6105   -5.4640  -14.6008 O   0  0  0  0  0  0  0  0  0  0  0  0
   18.5814   -5.3608  -12.2560 N   0  0  0  0  0  0  0  0  0  0  0  0
   19.0120   -5.6485  -10.9083 C   0  0  0  0  0  0  0  0  0  0  0  0
   17.8010   -5.3971  -10.0369 C   0  0  0  0  0  0  0  0  0  0  0  0
   16.7234   -4.8543  -10.9293 C   0  0  0  0  0  0  0  0  0  0  0  0
   17.5192   -4.3854  -12.1398 C   0  0  1  0  0  0  0  0  0  0  0  0
   18.0948   -3.0529  -11.8764 C   0  0  0  0  0  0  0  0  0  0  0  0
   17.3808   -2.0371  -11.6808 O   0  0  0  0  0  0  0  0  0  0  0  0
   19.4795   -2.8382  -11.8283 O   0  0  0  0  0  0  0  0  0  0  0  0
  2  1  1  1
  2  3  1  0
  3  4  1  0
  4  8  1  0
  5  4  2  0
  6  2  1  0
  7  6  2  0
  9  6  1  0
 10 13  1  0
 10  9  1  0
 11 12  1  0
 10 11  1  6
 13 15  1  0
 14 13  2  0
 15 16  1  0
 15 19  1  0
 16 17  1  0
 17 18  1  0
 19 20  1  1
 19 18  1  0
 20 22  1  0
 21 20  2  0
M  END
$$$$
