DCP.pdb
     RDKit          3D

 22 22  0  0  1  0  0  0  0  0999 V2000
   21.1397  -12.4103  -18.8538 N   0  0  0  0  0  0  0  0  0  0  0  0
   22.0040  -11.2607  -18.4930 C   0  0  1  0  0  0  0  0  0  0  0  0
   22.5619  -10.7834  -19.7836 C   0  0  0  0  0  0  0  0  0  0  0  0
   23.4737   -9.6455  -19.7365 C   0  0  0  0  0  0  0  0  0  0  0  0
   24.5397   -9.7455  -19.0836 O   0  0  0  0  0  0  0  0  0  0  0  0
   21.2650  -10.3039  -17.6829 C   0  0  0  0  0  0  0  0  0  0  0  0
   20.2407   -9.7389  -18.1769 O   0  0  0  0  0  0  0  0  0  0  0  0
   23.2349   -8.4408  -20.3772 O   0  0  0  0  0  0  0  0  0  0  0  0
   21.5925   -9.9369  -16.3529 N   0  0  0  0  0  0  0  0  0  0  0  0
   20.7925   -8.9361  -15.6270 C   0  0  1  0  0  0  0  0  0  0  0  0
   20.4149   -9.5923  -14.3110 C   0  0  0  0  0  0  0  0  0  0  0  0
   19.0206  -10.7225  -14.5349 S   0  0  0  0  0  0  0  0  0  0  0  0
   21.5576   -7.6972  -15.3534 C   0  0  0  0  0  0  0  0  0  0  0  0
   22.8243   -7.8404  -15.2506 O   0  0  0  0  0  0  0  0  0  0  0  0
   20.9480   -6.4306  -15.2120 N   0  0  0  0  0  0  0  0  0  0  0  0
   19.5461   -6.0857  -15.2044 C   0  0  0  0  0  0  0  0  0  0  0  0
   19.4791   -4.6630  -15.7147 C   0  0  0  0  0  0  0  0  0  0  0  0
   20.8935   -4.1953  -15.8968 C   0  0  0  0  0  0  0  0  0  0  0  0
   21.6693   -5.1881  -15.0419 C   0  0  1  0  0  0  0  0  0  0  0  0
   21.6219   -4.7757  -13.6263 C   0  0  0  0  0  0  0  0  0  0  0  0
   20.9309   -5.3834  -12.7701 O   0  0  0  0  0  0  0  0  0  0  0  0
   22.3481   -3.6756  -13.1484 O   0  0  0  0  0  0  0  0  0  0  0  0
  2  1  1  6
  2  3  1  0
  3  4  1  0
  4  8  1  0
  5  4  2  0
  6  2  1  0
  7  6  2  0
  9  6  1  0
 10 13  1  0
 10  9  1  0
 11 12  1  0
 10 11  1  1
 13 15  1  0
 14 13  2  0
 15 16  1  0
 15 19  1  0
 16 17  1  0
 17 18  1  0
 19 20  1  1
 19 18  1  0
 20 22  1  0
 21 20  2  0
M  END
$$$$
