DCP.pdb
     RDKit          3D

 22 22  0  0  1  0  0  0  0  0999 V2000
   20.2962  -10.5349  -16.7272 N   0  0  0  0  0  0  0  0  0  0  0  0
   19.0741  -10.1413  -15.9854 C   0  0  1  0  0  0  0  0  0  0  0  0
   18.6631  -11.3649  -15.2514 C   0  0  0  0  0  0  0  0  0  0  0  0
   18.3538  -12.5481  -16.0468 C   0  0  0  0  0  0  0  0  0  0  0  0
   18.3019  -13.6662  -15.4811 O   0  0  0  0  0  0  0  0  0  0  0  0
   19.3189   -8.9374  -15.2051 C   0  0  0  0  0  0  0  0  0  0  0  0
   18.3975   -8.4916  -14.4538 O   0  0  0  0  0  0  0  0  0  0  0  0
   18.1095  -12.5168  -17.4100 O   0  0  0  0  0  0  0  0  0  0  0  0
   20.5287   -8.1976  -15.2055 N   0  0  0  0  0  0  0  0  0  0  0  0
   20.6604   -6.9652  -14.4102 C   0  0  1  0  0  0  0  0  0  0  0  0
   21.9190   -7.1476  -13.5809 C   0  0  0  0  0  0  0  0  0  0  0  0
   22.3788   -5.6004  -12.7644 S   0  0  0  0  0  0  0  0  0  0  0  0
   20.8060   -5.7611  -15.2610 C   0  0  0  0  0  0  0  0  0  0  0  0
   21.6099   -5.8756  -16.2491 O   0  0  0  0  0  0  0  0  0  0  0  0
   20.1118   -4.5556  -15.0151 N   0  0  0  0  0  0  0  0  0  0  0  0
   19.1493   -4.2480  -13.9839 C   0  0  0  0  0  0  0  0  0  0  0  0
   18.2635   -3.1700  -14.5691 C   0  0  0  0  0  0  0  0  0  0  0  0
   18.8350   -2.8126  -15.9099 C   0  0  0  0  0  0  0  0  0  0  0  0
   20.2552   -3.3514  -15.8041 C   0  0  1  0  0  0  0  0  0  0  0  0
   21.1064   -2.3846  -15.0852 C   0  0  0  0  0  0  0  0  0  0  0  0
   21.2917   -1.2121  -15.4984 O   0  0  0  0  0  0  0  0  0  0  0  0
   21.7633   -2.7169  -13.8919 O   0  0  0  0  0  0  0  0  0  0  0  0
  2  1  1  1
  2  3  1  0
  3  4  1  0
  4  8  1  0
  5  4  2  0
  6  2  1  0
  7  6  2  0
  9  6  1  0
 10 13  1  0
 10  9  1  0
 11 12  1  0
 10 11  1  1
 13 15  1  0
 14 13  2  0
 15 16  1  0
 15 19  1  0
 16 17  1  0
 17 18  1  0
 19 20  1  1
 19 18  1  0
 20 22  1  0
 21 20  2  0
M  END
$$$$
