DCP.pdb
     RDKit          3D

 22 22  0  0  1  0  0  0  0  0999 V2000
   21.1656  -22.0088  -13.8022 N   0  0  0  0  0  0  0  0  0  0  0  0
   21.2855  -20.5323  -13.7361 C   0  0  1  0  0  0  0  0  0  0  0  0
   20.1570  -20.0963  -12.8752 C   0  0  0  0  0  0  0  0  0  0  0  0
   18.8818  -19.8284  -13.5313 C   0  0  0  0  0  0  0  0  0  0  0  0
   18.8206  -18.9243  -14.3983 O   0  0  0  0  0  0  0  0  0  0  0  0
   22.6297  -20.1493  -13.3307 C   0  0  0  0  0  0  0  0  0  0  0  0
   22.9666  -18.9265  -13.3893 O   0  0  0  0  0  0  0  0  0  0  0  0
   17.7136  -20.5195  -13.2545 O   0  0  0  0  0  0  0  0  0  0  0  0
   23.6250  -21.0430  -12.8598 N   0  0  0  0  0  0  0  0  0  0  0  0
   25.0410  -20.6411  -12.8161 C   0  0  1  0  0  0  0  0  0  0  0  0
   25.6655  -21.4676  -11.7062 C   0  0  0  0  0  0  0  0  0  0  0  0
   27.4641  -21.2768  -11.6987 S   0  0  0  0  0  0  0  0  0  0  0  0
   25.7439  -20.9226  -14.0895 C   0  0  0  0  0  0  0  0  0  0  0  0
   25.3405  -21.9548  -14.7278 O   0  0  0  0  0  0  0  0  0  0  0  0
   26.7931  -20.1166  -14.5848 N   0  0  0  0  0  0  0  0  0  0  0  0
   27.5629  -19.0995  -13.9087 C   0  0  0  0  0  0  0  0  0  0  0  0
   28.0014  -18.1396  -14.9929 C   0  0  0  0  0  0  0  0  0  0  0  0
   27.5464  -18.7179  -16.3009 C   0  0  0  0  0  0  0  0  0  0  0  0
   27.3047  -20.1765  -15.9368 C   0  0  1  0  0  0  0  0  0  0  0  0
   28.5810  -20.9159  -15.9530 C   0  0  0  0  0  0  0  0  0  0  0  0
   29.1327  -21.3313  -14.9028 O   0  0  0  0  0  0  0  0  0  0  0  0
   29.2591  -21.2011  -17.1467 O   0  0  0  0  0  0  0  0  0  0  0  0
  2  1  1  1
  2  3  1  0
  3  4  1  0
  4  8  1  0
  5  4  2  0
  6  2  1  0
  7  6  2  0
  9  6  1  0
 10 13  1  0
 10  9  1  0
 11 12  1  0
 10 11  1  1
 13 15  1  0
 14 13  2  0
 15 16  1  0
 15 19  1  0
 16 17  1  0
 17 18  1  0
 19 20  1  1
 19 18  1  0
 20 22  1  0
 21 20  2  0
M  END
$$$$
