DCP.pdb
     RDKit          3D

 22 22  0  0  1  0  0  0  0  0999 V2000
   18.6336  -10.9731  -14.8852 N   0  0  0  0  0  0  0  0  0  0  0  0
   19.4326  -10.0800  -15.7585 C   0  0  1  0  0  0  0  0  0  0  0  0
   18.7759  -10.1595  -17.0879 C   0  0  0  0  0  0  0  0  0  0  0  0
   18.7860  -11.4537  -17.7611 C   0  0  0  0  0  0  0  0  0  0  0  0
   19.8107  -12.1726  -17.6841 O   0  0  0  0  0  0  0  0  0  0  0  0
   19.5688   -8.7644  -15.1514 C   0  0  0  0  0  0  0  0  0  0  0  0
   18.5218   -8.0986  -14.8814 O   0  0  0  0  0  0  0  0  0  0  0  0
   17.7191  -11.9492  -18.4926 O   0  0  0  0  0  0  0  0  0  0  0  0
   20.7995   -8.1420  -14.8219 N   0  0  0  0  0  0  0  0  0  0  0  0
   20.8361   -6.7544  -14.3300 C   0  0  1  0  0  0  0  0  0  0  0  0
   22.0733   -6.6646  -13.4545 C   0  0  0  0  0  0  0  0  0  0  0  0
   22.4316   -4.9444  -13.0254 S   0  0  0  0  0  0  0  0  0  0  0  0
   20.9451   -5.7707  -15.4324 C   0  0  0  0  0  0  0  0  0  0  0  0
   21.7283   -6.0967  -16.3894 O   0  0  0  0  0  0  0  0  0  0  0  0
   20.2389   -4.5473  -15.4458 N   0  0  0  0  0  0  0  0  0  0  0  0
   19.3361   -4.0011  -14.4604 C   0  0  0  0  0  0  0  0  0  0  0  0
   18.3895   -3.1086  -15.2329 C   0  0  0  0  0  0  0  0  0  0  0  0
   18.8668   -3.0904  -16.6557 C   0  0  0  0  0  0  0  0  0  0  0  0
   20.3034   -3.5752  -16.5154 C   0  0  1  0  0  0  0  0  0  0  0  0
   21.1746   -2.4538  -16.1160 C   0  0  0  0  0  0  0  0  0  0  0  0
   21.7015   -2.3822  -14.9770 O   0  0  0  0  0  0  0  0  0  0  0  0
   21.4689   -1.3951  -16.9869 O   0  0  0  0  0  0  0  0  0  0  0  0
  2  1  1  1
  2  3  1  0
  3  4  1  0
  4  8  1  0
  5  4  2  0
  6  2  1  0
  7  6  2  0
  9  6  1  0
 10 13  1  0
 10  9  1  0
 11 12  1  0
 10 11  1  1
 13 15  1  0
 14 13  2  0
 15 16  1  0
 15 19  1  0
 16 17  1  0
 17 18  1  0
 19 20  1  1
 19 18  1  0
 20 22  1  0
 21 20  2  0
M  END
$$$$
