DCP.pdb
     RDKit          3D

 22 22  0  0  1  0  0  0  0  0999 V2000
   20.7714   -0.9183  -13.7869 N   0  0  0  0  0  0  0  0  0  0  0  0
   20.6748   -1.6478  -15.0741 C   0  0  1  0  0  0  0  0  0  0  0  0
   21.1399   -0.6779  -16.0978 C   0  0  0  0  0  0  0  0  0  0  0  0
   21.0210   -1.0751  -17.4965 C   0  0  0  0  0  0  0  0  0  0  0  0
   20.5000   -2.1818  -17.7735 O   0  0  0  0  0  0  0  0  0  0  0  0
   21.3704   -2.9233  -14.9888 C   0  0  0  0  0  0  0  0  0  0  0  0
   22.4606   -2.9890  -14.3413 O   0  0  0  0  0  0  0  0  0  0  0  0
   21.4534   -0.2962  -18.5572 O   0  0  0  0  0  0  0  0  0  0  0  0
   20.9268   -4.1348  -15.5774 N   0  0  0  0  0  0  0  0  0  0  0  0
   21.5350   -5.4228  -15.2038 C   0  0  1  0  0  0  0  0  0  0  0  0
   21.3043   -5.5647  -13.7099 C   0  0  0  0  0  0  0  0  0  0  0  0
   21.7802   -7.2145  -13.1414 S   0  0  0  0  0  0  0  0  0  0  0  0
   20.9056   -6.5654  -15.9061 C   0  0  0  0  0  0  0  0  0  0  0  0
   19.6267   -6.5792  -15.9049 O   0  0  0  0  0  0  0  0  0  0  0  0
   21.6502   -7.5835  -16.5423 N   0  0  0  0  0  0  0  0  0  0  0  0
   23.0731   -7.8269  -16.5190 C   0  0  0  0  0  0  0  0  0  0  0  0
   23.3838   -8.5219  -17.8266 C   0  0  0  0  0  0  0  0  0  0  0  0
   22.0740   -8.7555  -18.5211 C   0  0  0  0  0  0  0  0  0  0  0  0
   21.0785   -8.6174  -17.3773 C   0  0  1  0  0  0  0  0  0  0  0  0
   21.0040   -9.8821  -16.6216 C   0  0  0  0  0  0  0  0  0  0  0  0
   20.6777  -10.9703  -17.1593 O   0  0  0  0  0  0  0  0  0  0  0  0
   21.2941   -9.9468  -15.2513 O   0  0  0  0  0  0  0  0  0  0  0  0
  2  1  1  1
  2  3  1  0
  3  4  1  0
  4  8  1  0
  5  4  2  0
  6  2  1  0
  7  6  2  0
  9  6  1  0
 10 13  1  0
 10  9  1  0
 11 12  1  0
 10 11  1  1
 13 15  1  0
 14 13  2  0
 15 16  1  0
 15 19  1  0
 16 17  1  0
 17 18  1  0
 19 20  1  1
 19 18  1  0
 20 22  1  0
 21 20  2  0
M  END
$$$$
