DCP.pdb
     RDKit          3D

 22 22  0  0  1  0  0  0  0  0999 V2000
   23.0102  -13.4220  -17.8958 N   0  0  0  0  0  0  0  0  0  0  0  0
   23.6813  -12.3516  -17.1196 C   0  0  1  0  0  0  0  0  0  0  0  0
   25.0736  -12.3229  -17.6349 C   0  0  0  0  0  0  0  0  0  0  0  0
   25.9209  -13.4716  -17.3331 C   0  0  0  0  0  0  0  0  0  0  0  0
   26.0883  -14.3524  -18.2099 O   0  0  0  0  0  0  0  0  0  0  0  0
   22.9125  -11.1177  -17.1857 C   0  0  0  0  0  0  0  0  0  0  0  0
   22.4432  -10.7427  -18.3044 O   0  0  0  0  0  0  0  0  0  0  0  0
   26.5637  -13.6562  -16.1200 O   0  0  0  0  0  0  0  0  0  0  0  0
   22.6292  -10.2735  -16.0821 N   0  0  0  0  0  0  0  0  0  0  0  0
   21.8053   -9.0644  -16.2483 C   0  0  1  0  0  0  0  0  0  0  0  0
   20.4200   -9.4439  -15.7562 C   0  0  0  0  0  0  0  0  0  0  0  0
   20.5013  -10.1487  -14.0924 S   0  0  0  0  0  0  0  0  0  0  0  0
   22.3127   -7.9251  -15.4485 C   0  0  0  0  0  0  0  0  0  0  0  0
   23.0766   -8.2327  -14.4701 O   0  0  0  0  0  0  0  0  0  0  0  0
   21.9869   -6.5798  -15.7311 N   0  0  0  0  0  0  0  0  0  0  0  0
   21.0642   -6.0471  -16.7054 C   0  0  0  0  0  0  0  0  0  0  0  0
   21.5976   -4.6754  -17.0565 C   0  0  0  0  0  0  0  0  0  0  0  0
   22.7776   -4.4221  -16.1643 C   0  0  0  0  0  0  0  0  0  0  0  0
   22.5586   -5.4378  -15.0513 C   0  0  1  0  0  0  0  0  0  0  0  0
   21.5919   -4.9076  -14.0713 C   0  0  0  0  0  0  0  0  0  0  0  0
   21.8904   -4.0020  -13.2523 O   0  0  0  0  0  0  0  0  0  0  0  0
   20.2756   -5.3842  -13.9937 O   0  0  0  0  0  0  0  0  0  0  0  0
  2  1  1  6
  2  3  1  0
  3  4  1  0
  4  8  1  0
  5  4  2  0
  6  2  1  0
  7  6  2  0
  9  6  1  0
 10 13  1  0
 10  9  1  0
 11 12  1  0
 10 11  1  1
 13 15  1  0
 14 13  2  0
 15 16  1  0
 15 19  1  0
 16 17  1  0
 17 18  1  0
 19 20  1  1
 19 18  1  0
 20 22  1  0
 21 20  2  0
M  END
$$$$
