DCP.pdb
     RDKit          3D

 22 22  0  0  1  0  0  0  0  0999 V2000
   19.1393  -11.5725  -18.0287 N   0  0  0  0  0  0  0  0  0  0  0  0
   20.1854  -10.7600  -18.6950 C   0  0  1  0  0  0  0  0  0  0  0  0
   19.4496   -9.9189  -19.6729 C   0  0  0  0  0  0  0  0  0  0  0  0
   18.7611  -10.6066  -20.7598 C   0  0  0  0  0  0  0  0  0  0  0  0
   17.7924  -10.0418  -21.3214 O   0  0  0  0  0  0  0  0  0  0  0  0
   21.0079  -10.0801  -17.7054 C   0  0  0  0  0  0  0  0  0  0  0  0
   20.4420   -9.4870  -16.7358 O   0  0  0  0  0  0  0  0  0  0  0  0
   19.1136  -11.8646  -21.2202 O   0  0  0  0  0  0  0  0  0  0  0  0
   22.4245  -10.0208  -17.7247 N   0  0  0  0  0  0  0  0  0  0  0  0
   23.1611   -9.2344  -16.7209 C   0  0  1  0  0  0  0  0  0  0  0  0
   24.5614   -9.8203  -16.6910 C   0  0  0  0  0  0  0  0  0  0  0  0
   25.6319   -8.8672  -15.5877 S   0  0  0  0  0  0  0  0  0  0  0  0
   23.2395   -7.7991  -17.0795 C   0  0  0  0  0  0  0  0  0  0  0  0
   23.3678   -7.5465  -18.3266 O   0  0  0  0  0  0  0  0  0  0  0  0
   23.1782   -6.7614  -16.1227 N   0  0  0  0  0  0  0  0  0  0  0  0
   23.1232   -6.8469  -14.6826 C   0  0  0  0  0  0  0  0  0  0  0  0
   22.3974   -5.5979  -14.2329 C   0  0  0  0  0  0  0  0  0  0  0  0
   22.1537   -4.7669  -15.4587 C   0  0  0  0  0  0  0  0  0  0  0  0
   23.1576   -5.3508  -16.4434 C   0  0  1  0  0  0  0  0  0  0  0  0
   24.4914   -4.7674  -16.2054 C   0  0  0  0  0  0  0  0  0  0  0  0
   25.3936   -5.3807  -15.5811 O   0  0  0  0  0  0  0  0  0  0  0  0
   24.8348   -3.4874  -16.6634 O   0  0  0  0  0  0  0  0  0  0  0  0
  2  1  1  1
  2  3  1  0
  3  4  1  0
  4  8  1  0
  5  4  2  0
  6  2  1  0
  7  6  2  0
  9  6  1  0
 10 13  1  0
 10  9  1  0
 11 12  1  0
 10 11  1  6
 13 15  1  0
 14 13  2  0
 15 16  1  0
 15 19  1  0
 16 17  1  0
 17 18  1  0
 19 20  1  1
 19 18  1  0
 20 22  1  0
 21 20  2  0
M  END
$$$$
