DCP.pdb
     RDKit          3D

 22 22  0  0  1  0  0  0  0  0999 V2000
   25.5329  -21.6245  -10.2375 N   0  0  0  0  0  0  0  0  0  0  0  0
   24.8623  -21.1247  -11.4619 C   0  0  1  0  0  0  0  0  0  0  0  0
   23.5754  -20.5565  -10.9868 C   0  0  0  0  0  0  0  0  0  0  0  0
   22.3696  -21.3416  -11.2278 C   0  0  0  0  0  0  0  0  0  0  0  0
   22.4478  -22.3792  -11.9278 O   0  0  0  0  0  0  0  0  0  0  0  0
   25.7527  -20.2470  -12.2067 C   0  0  0  0  0  0  0  0  0  0  0  0
   26.2084  -19.2060  -11.6401 O   0  0  0  0  0  0  0  0  0  0  0  0
   21.1221  -21.0100  -10.7253 O   0  0  0  0  0  0  0  0  0  0  0  0
   26.1720  -20.4562  -13.5451 N   0  0  0  0  0  0  0  0  0  0  0  0
   27.0136  -19.4651  -14.2364 C   0  0  1  0  0  0  0  0  0  0  0  0
   28.2469  -20.2243  -14.6921 C   0  0  0  0  0  0  0  0  0  0  0  0
   27.8638  -21.9727  -14.9529 S   0  0  0  0  0  0  0  0  0  0  0  0
   26.3365  -18.8794  -15.4168 C   0  0  0  0  0  0  0  0  0  0  0  0
   25.4284  -19.6049  -15.9503 O   0  0  0  0  0  0  0  0  0  0  0  0
   26.6570  -17.6050  -15.9353 N   0  0  0  0  0  0  0  0  0  0  0  0
   27.7295  -16.7110  -15.5678 C   0  0  0  0  0  0  0  0  0  0  0  0
   27.2202  -15.3214  -15.8820 C   0  0  0  0  0  0  0  0  0  0  0  0
   25.8802  -15.4832  -16.5382 C   0  0  0  0  0  0  0  0  0  0  0  0
   25.9190  -16.9380  -16.9859 C   0  0  1  0  0  0  0  0  0  0  0  0
   26.6548  -17.0517  -18.2594 C   0  0  0  0  0  0  0  0  0  0  0  0
   27.7964  -17.5724  -18.3340 O   0  0  0  0  0  0  0  0  0  0  0  0
   26.1226  -16.5834  -19.4691 O   0  0  0  0  0  0  0  0  0  0  0  0
  2  1  1  1
  2  3  1  0
  3  4  1  0
  4  8  1  0
  5  4  2  0
  6  2  1  0
  7  6  2  0
  9  6  1  0
 10 13  1  0
 10  9  1  0
 11 12  1  0
 10 11  1  6
 13 15  1  0
 14 13  2  0
 15 16  1  0
 15 19  1  0
 16 17  1  0
 17 18  1  0
 19 20  1  6
 19 18  1  0
 20 22  1  0
 21 20  2  0
M  END
$$$$
