PCC.pdb
     RDKit          3D

 20 20  0  0  1  0  0  0  0  0999 V2000
    7.8665  -15.1293   18.8235 N   0  0  0  0  0  0  0  0  0  0  0  0
    6.9635  -14.0356   18.5844 C   0  0  0  0  0  0  0  0  0  0  0  0
    7.9574  -12.8637   18.5673 C   0  0  0  0  0  0  0  0  0  0  0  0
    8.8194  -13.1940   19.7658 C   0  0  0  0  0  0  0  0  0  0  0  0
    8.6875  -14.7073   19.9090 C   0  0  1  0  0  0  0  0  0  0  0  0
    8.0762  -15.0673   21.2017 C   0  0  0  0  0  0  0  0  0  0  0  0
    6.7996  -14.9571   21.2351 O   0  0  0  0  0  0  0  0  0  0  0  0
    8.8085  -15.4966   22.3129 N   0  0  0  0  0  0  0  0  0  0  0  0
    8.0812  -15.8090   23.5529 C   0  0  1  0  0  0  0  0  0  0  0  0
    8.3790  -17.2536   23.9493 C   0  0  0  0  0  0  0  0  0  0  0  0
    6.8518  -18.2000   23.7333 S   0  0  0  0  0  0  0  0  0  0  0  0
    8.6059  -14.9627   24.6697 C   0  0  0  0  0  0  0  0  0  0  0  0
    9.8335  -14.7373   24.7481 O   0  0  0  0  0  0  0  0  0  0  0  0
    7.7643  -14.3987   25.6542 N   0  0  0  0  0  0  0  0  0  0  0  0
    8.1992  -13.5909   26.7462 C   0  0  1  0  0  0  0  0  0  0  0  0
    7.1919  -12.4623   27.0063 C   0  0  0  0  0  0  0  0  0  0  0  0
    5.5020  -13.0629   27.0254 S   0  0  0  0  0  0  0  0  0  0  0  0
    8.3968  -14.3085   27.9995 C   0  0  0  0  0  0  0  0  0  0  0  0
    9.0000  -13.6959   29.0770 O   0  0  0  0  0  0  0  0  0  0  0  0
    8.0260  -15.4937   28.1297 O   0  0  0  0  0  0  0  0  0  0  0  0
  1  2  1  0
  3  2  1  0
  4  5  1  0
  4  3  1  0
  5  1  1  0
  6  8  1  0
  5  6  1  1
  7  6  2  0
  9 10  1  1
  9  8  1  0
  9 12  1  0
 11 10  1  0
 12 14  1  0
 13 12  2  0
 14 15  1  0
 15 16  1  1
 16 17  1  0
 18 15  1  0
 18 19  1  0
 20 18  2  0
M  END
$$$$
