PCC.pdb
     RDKit          3D

 20 20  0  0  1  0  0  0  0  0999 V2000
    8.2413  -15.1304   20.1797 N   0  0  0  0  0  0  0  0  0  0  0  0
    8.5711  -16.5305   20.1807 C   0  0  0  0  0  0  0  0  0  0  0  0
    7.1608  -17.1400   20.2133 C   0  0  0  0  0  0  0  0  0  0  0  0
    6.4938  -16.2777   21.2622 C   0  0  0  0  0  0  0  0  0  0  0  0
    7.2801  -14.9709   21.2195 C   0  0  1  0  0  0  0  0  0  0  0  0
    7.9413  -14.7064   22.5108 C   0  0  0  0  0  0  0  0  0  0  0  0
    9.1962  -14.9671   22.5286 O   0  0  0  0  0  0  0  0  0  0  0  0
    7.2750  -14.2117   23.6362 N   0  0  0  0  0  0  0  0  0  0  0  0
    8.0595  -13.9360   24.8498 C   0  0  1  0  0  0  0  0  0  0  0  0
    7.2386  -13.0400   25.7752 C   0  0  0  0  0  0  0  0  0  0  0  0
    8.2503  -12.6999   27.2365 S   0  0  0  0  0  0  0  0  0  0  0  0
    8.2809  -15.2087   25.6046 C   0  0  0  0  0  0  0  0  0  0  0  0
    7.3060  -15.9454   25.8705 O   0  0  0  0  0  0  0  0  0  0  0  0
    9.5609  -15.6216   26.0366 N   0  0  0  0  0  0  0  0  0  0  0  0
    9.8475  -16.8418   26.7171 C   0  0  1  0  0  0  0  0  0  0  0  0
   11.1090  -17.4924   26.1327 C   0  0  0  0  0  0  0  0  0  0  0  0
   11.1206  -17.4415   24.3398 S   0  0  0  0  0  0  0  0  0  0  0  0
   10.0402  -16.7111   28.1560 C   0  0  0  0  0  0  0  0  0  0  0  0
   10.3289  -17.8124   28.9332 O   0  0  0  0  0  0  0  0  0  0  0  0
    9.9492  -15.6013   28.7209 O   0  0  0  0  0  0  0  0  0  0  0  0
  1  2  1  0
  3  2  1  0
  4  5  1  0
  4  3  1  0
  5  1  1  0
  6  8  1  0
  5  6  1  1
  7  6  2  0
  9 10  1  1
  9  8  1  0
  9 12  1  0
 11 10  1  0
 12 14  1  0
 13 12  2  0
 14 15  1  0
 15 16  1  6
 16 17  1  0
 18 15  1  0
 18 19  1  0
 20 18  2  0
M  END
$$$$
