PCC.pdb
     RDKit          3D

 20 20  0  0  1  0  0  0  0  0999 V2000
    8.1976  -14.6252   20.2960 N   0  0  0  0  0  0  0  0  0  0  0  0
    8.4472  -16.0358   20.1658 C   0  0  0  0  0  0  0  0  0  0  0  0
    7.0042  -16.5636   20.1355 C   0  0  0  0  0  0  0  0  0  0  0  0
    6.3780  -15.7669   21.2589 C   0  0  0  0  0  0  0  0  0  0  0  0
    7.2378  -14.5093   21.3428 C   0  0  1  0  0  0  0  0  0  0  0  0
    7.9013  -14.4060   22.6556 C   0  0  0  0  0  0  0  0  0  0  0  0
    9.1277  -14.7787   22.6621 O   0  0  0  0  0  0  0  0  0  0  0  0
    7.2655  -13.9424   23.8115 N   0  0  0  0  0  0  0  0  0  0  0  0
    8.0535  -13.8349   25.0491 C   0  0  1  0  0  0  0  0  0  0  0  0
    7.2623  -13.0176   26.0685 C   0  0  0  0  0  0  0  0  0  0  0  0
    8.2858  -12.8673   27.5533 S   0  0  0  0  0  0  0  0  0  0  0  0
    8.2225  -15.1918   25.6564 C   0  0  0  0  0  0  0  0  0  0  0  0
    7.2177  -15.9115   25.8470 O   0  0  0  0  0  0  0  0  0  0  0  0
    9.4850  -15.7040   26.0297 N   0  0  0  0  0  0  0  0  0  0  0  0
    9.7151  -16.9842   26.6146 C   0  0  1  0  0  0  0  0  0  0  0  0
   10.9226  -17.6617   25.9520 C   0  0  0  0  0  0  0  0  0  0  0  0
   10.8623  -17.5395   24.1636 S   0  0  0  0  0  0  0  0  0  0  0  0
    9.9480  -16.9683   28.0535 C   0  0  0  0  0  0  0  0  0  0  0  0
   10.1677  -18.1394   28.7467 O   0  0  0  0  0  0  0  0  0  0  0  0
    9.9547  -15.8966   28.6941 O   0  0  0  0  0  0  0  0  0  0  0  0
  1  2  1  0
  3  2  1  0
  4  5  1  0
  4  3  1  0
  5  1  1  0
  6  8  1  0
  5  6  1  1
  7  6  2  0
  9 10  1  1
  9  8  1  0
  9 12  1  0
 11 10  1  0
 12 14  1  0
 13 12  2  0
 14 15  1  0
 15 16  1  6
 16 17  1  0
 18 15  1  0
 18 19  1  0
 20 18  2  0
M  END
$$$$
