PCC.pdb
     RDKit          3D

 20 20  0  0  1  0  0  0  0  0999 V2000
    6.8772  -14.8021   20.8682 N   0  0  0  0  0  0  0  0  0  0  0  0
    6.3765  -13.4566   20.7800 C   0  0  0  0  0  0  0  0  0  0  0  0
    7.2625  -12.9125   19.6484 C   0  0  0  0  0  0  0  0  0  0  0  0
    8.6192  -13.4407   20.0597 C   0  0  0  0  0  0  0  0  0  0  0  0
    8.2959  -14.6730   20.8993 C   0  0  1  0  0  0  0  0  0  0  0  0
    8.7793  -14.5145   22.2833 C   0  0  0  0  0  0  0  0  0  0  0  0
   10.0510  -14.3951   22.3918 O   0  0  0  0  0  0  0  0  0  0  0  0
    7.9388  -14.4929   23.4006 N   0  0  0  0  0  0  0  0  0  0  0  0
    8.5516  -14.4603   24.7376 C   0  0  1  0  0  0  0  0  0  0  0  0
    7.5714  -13.8134   25.7142 C   0  0  0  0  0  0  0  0  0  0  0  0
    5.9406  -14.5320   25.3999 S   0  0  0  0  0  0  0  0  0  0  0  0
    8.7563  -15.8581   25.2305 C   0  0  0  0  0  0  0  0  0  0  0  0
    7.8614  -16.7128   25.0498 O   0  0  0  0  0  0  0  0  0  0  0  0
    9.9326  -16.2616   25.9006 N   0  0  0  0  0  0  0  0  0  0  0  0
   10.2112  -17.5855   26.3522 C   0  0  1  0  0  0  0  0  0  0  0  0
   11.6393  -17.9905   25.9616 C   0  0  0  0  0  0  0  0  0  0  0  0
   12.0369  -17.5086   24.2803 S   0  0  0  0  0  0  0  0  0  0  0  0
   10.0692  -17.7860   27.7891 C   0  0  0  0  0  0  0  0  0  0  0  0
   10.2305  -19.0360   28.3474 O   0  0  0  0  0  0  0  0  0  0  0  0
    9.7984  -16.8336   28.5497 O   0  0  0  0  0  0  0  0  0  0  0  0
  1  2  1  0
  3  2  1  0
  4  5  1  0
  4  3  1  0
  5  1  1  0
  6  8  1  0
  5  6  1  1
  7  6  2  0
  9 10  1  1
  9  8  1  0
  9 12  1  0
 11 10  1  0
 12 14  1  0
 13 12  2  0
 14 15  1  0
 15 16  1  1
 16 17  1  0
 18 15  1  0
 18 19  1  0
 20 18  2  0
M  END
$$$$
