PCC.pdb
     RDKit          3D

 20 20  0  0  1  0  0  0  0  0999 V2000
    9.5876  -17.5025   17.2507 N   0  0  0  0  0  0  0  0  0  0  0  0
   10.4936  -18.6197   17.2465 C   0  0  0  0  0  0  0  0  0  0  0  0
    9.4991  -19.7745   17.4439 C   0  0  0  0  0  0  0  0  0  0  0  0
    8.6174  -19.2168   18.5395 C   0  0  0  0  0  0  0  0  0  0  0  0
    8.7482  -17.7046   18.3842 C   0  0  1  0  0  0  0  0  0  0  0  0
    9.3380  -17.0957   19.5907 C   0  0  0  0  0  0  0  0  0  0  0  0
   10.5671  -16.7536   19.4668 O   0  0  0  0  0  0  0  0  0  0  0  0
    8.6340  -16.8973   20.7825 N   0  0  0  0  0  0  0  0  0  0  0  0
    9.3128  -16.2077   21.8905 C   0  0  1  0  0  0  0  0  0  0  0  0
    8.2693  -15.4662   22.7236 C   0  0  0  0  0  0  0  0  0  0  0  0
    9.1433  -14.6415   24.0767 S   0  0  0  0  0  0  0  0  0  0  0  0
    9.9269  -17.2166   22.8091 C   0  0  0  0  0  0  0  0  0  0  0  0
    9.2946  -18.2576   23.0926 O   0  0  0  0  0  0  0  0  0  0  0  0
   11.2078  -17.0433   23.3789 N   0  0  0  0  0  0  0  0  0  0  0  0
   11.8782  -17.9935   24.2047 C   0  0  1  0  0  0  0  0  0  0  0  0
   13.3896  -17.7253   24.2038 C   0  0  0  0  0  0  0  0  0  0  0  0
   14.0598  -17.6689   22.5411 S   0  0  0  0  0  0  0  0  0  0  0  0
   11.4323  -18.0230   25.5922 C   0  0  0  0  0  0  0  0  0  0  0  0
   11.9671  -18.9247   26.4872 O   0  0  0  0  0  0  0  0  0  0  0  0
   10.5568  -17.2344   26.0054 O   0  0  0  0  0  0  0  0  0  0  0  0
  1  2  1  0
  3  2  1  0
  4  5  1  0
  4  3  1  0
  5  1  1  0
  6  8  1  0
  5  6  1  1
  7  6  2  0
  9 10  1  1
  9  8  1  0
  9 12  1  0
 11 10  1  0
 12 14  1  0
 13 12  2  0
 14 15  1  0
 15 16  1  1
 16 17  1  0
 18 15  1  0
 18 19  1  0
 20 18  2  0
M  END
$$$$
