PCC.pdb
     RDKit          3D

 20 20  0  0  1  0  0  0  0  0999 V2000
    8.2045  -15.5237   20.1988 N   0  0  0  0  0  0  0  0  0  0  0  0
    6.8674  -15.0984   19.8821 C   0  0  0  0  0  0  0  0  0  0  0  0
    7.1731  -13.8355   19.0615 C   0  0  0  0  0  0  0  0  0  0  0  0
    8.2449  -13.1877   19.9102 C   0  0  0  0  0  0  0  0  0  0  0  0
    8.8680  -14.3544   20.6709 C   0  0  1  0  0  0  0  0  0  0  0  0
    8.6861  -14.1977   22.1258 C   0  0  0  0  0  0  0  0  0  0  0  0
    8.9815  -13.0346   22.5762 O   0  0  0  0  0  0  0  0  0  0  0  0
    8.2299  -15.2192   22.9647 N   0  0  0  0  0  0  0  0  0  0  0  0
    8.0945  -14.9371   24.4021 C   0  0  1  0  0  0  0  0  0  0  0  0
    6.8684  -15.6746   24.9365 C   0  0  0  0  0  0  0  0  0  0  0  0
    7.0395  -17.4155   24.4735 S   0  0  0  0  0  0  0  0  0  0  0  0
    9.2662  -15.5062   25.1382 C   0  0  0  0  0  0  0  0  0  0  0  0
    9.8987  -16.4649   24.6435 O   0  0  0  0  0  0  0  0  0  0  0  0
    9.6965  -15.0015   26.3855 N   0  0  0  0  0  0  0  0  0  0  0  0
   10.7622  -15.5365   27.1680 C   0  0  1  0  0  0  0  0  0  0  0  0
   11.1167  -14.5749   28.3108 C   0  0  0  0  0  0  0  0  0  0  0  0
    9.6998  -13.6111   28.8402 S   0  0  0  0  0  0  0  0  0  0  0  0
   10.4965  -16.8447   27.7536 C   0  0  0  0  0  0  0  0  0  0  0  0
   11.4961  -17.5514   28.3872 O   0  0  0  0  0  0  0  0  0  0  0  0
    9.3597  -17.3580   27.6968 O   0  0  0  0  0  0  0  0  0  0  0  0
  1  2  1  0
  3  2  1  0
  4  5  1  0
  4  3  1  0
  5  1  1  0
  6  8  1  0
  5  6  1  1
  7  6  2  0
  9 10  1  1
  9  8  1  0
  9 12  1  0
 11 10  1  0
 12 14  1  0
 13 12  2  0
 14 15  1  0
 15 16  1  1
 16 17  1  0
 18 15  1  0
 18 19  1  0
 20 18  2  0
M  END
$$$$
