PCC.pdb
     RDKit          3D

 20 20  0  0  1  0  0  0  0  0999 V2000
    8.1341  -15.1708   18.7241 N   0  0  0  0  0  0  0  0  0  0  0  0
    7.0398  -14.3110   18.3604 C   0  0  0  0  0  0  0  0  0  0  0  0
    7.7503  -12.9485   18.3760 C   0  0  0  0  0  0  0  0  0  0  0  0
    8.5484  -13.0497   19.6573 C   0  0  0  0  0  0  0  0  0  0  0  0
    8.7382  -14.5505   19.8558 C   0  0  1  0  0  0  0  0  0  0  0  0
    8.1031  -15.0055   21.1063 C   0  0  0  0  0  0  0  0  0  0  0  0
    6.9954  -15.6296   20.9434 O   0  0  0  0  0  0  0  0  0  0  0  0
    8.6459  -14.7862   22.3762 N   0  0  0  0  0  0  0  0  0  0  0  0
    7.9307  -15.3205   23.5455 C   0  0  1  0  0  0  0  0  0  0  0  0
    8.2134  -16.8174   23.6555 C   0  0  0  0  0  0  0  0  0  0  0  0
   10.0093  -17.0342   23.6054 S   0  0  0  0  0  0  0  0  0  0  0  0
    8.4820  -14.7080   24.7944 C   0  0  0  0  0  0  0  0  0  0  0  0
    9.7197  -14.5891   24.9284 O   0  0  0  0  0  0  0  0  0  0  0  0
    7.6548  -14.2512   25.8444 N   0  0  0  0  0  0  0  0  0  0  0  0
    8.1090  -13.5897   27.0235 C   0  0  1  0  0  0  0  0  0  0  0  0
    7.0014  -12.6890   27.5874 C   0  0  0  0  0  0  0  0  0  0  0  0
    6.0241  -11.9336   26.2869 S   0  0  0  0  0  0  0  0  0  0  0  0
    8.5491  -14.4765   28.0934 C   0  0  0  0  0  0  0  0  0  0  0  0
    9.1509  -13.9723   29.2265 O   0  0  0  0  0  0  0  0  0  0  0  0
    8.3930  -15.7126   28.0121 O   0  0  0  0  0  0  0  0  0  0  0  0
  1  2  1  0
  3  2  1  0
  4  5  1  0
  4  3  1  0
  5  1  1  0
  6  8  1  0
  5  6  1  1
  7  6  2  0
  9 10  1  1
  9  8  1  0
  9 12  1  0
 11 10  1  0
 12 14  1  0
 13 12  2  0
 14 15  1  0
 15 16  1  1
 16 17  1  0
 18 15  1  0
 18 19  1  0
 20 18  2  0
M  END
$$$$
