PCC.pdb
     RDKit          3D

 20 20  0  0  1  0  0  0  0  0999 V2000
    7.9332  -14.0666   20.5825 N   0  0  0  0  0  0  0  0  0  0  0  0
    8.4640  -15.3627   20.2549 C   0  0  0  0  0  0  0  0  0  0  0  0
    7.1585  -16.1605   20.1106 C   0  0  0  0  0  0  0  0  0  0  0  0
    6.3880  -15.6816   21.3212 C   0  0  0  0  0  0  0  0  0  0  0  0
    6.9744  -14.3028   21.6097 C   0  0  1  0  0  0  0  0  0  0  0  0
    7.6085  -14.2630   22.9403 C   0  0  0  0  0  0  0  0  0  0  0  0
    8.8815  -14.4123   22.9271 O   0  0  0  0  0  0  0  0  0  0  0  0
    6.9002  -14.0783   24.1317 N   0  0  0  0  0  0  0  0  0  0  0  0
    7.6559  -14.0050   25.3917 C   0  0  1  0  0  0  0  0  0  0  0  0
    6.7185  -13.5363   26.5029 C   0  0  0  0  0  0  0  0  0  0  0  0
    6.6003  -11.7343   26.3871 S   0  0  0  0  0  0  0  0  0  0  0  0
    8.1056  -15.3758   25.7881 C   0  0  0  0  0  0  0  0  0  0  0  0
    7.2760  -16.3110   25.8227 O   0  0  0  0  0  0  0  0  0  0  0  0
    9.4453  -15.6654   26.1301 N   0  0  0  0  0  0  0  0  0  0  0  0
    9.9350  -16.9419   26.5361 C   0  0  1  0  0  0  0  0  0  0  0  0
   11.3109  -17.2070   25.9093 C   0  0  0  0  0  0  0  0  0  0  0  0
   11.2984  -16.9559   24.1334 S   0  0  0  0  0  0  0  0  0  0  0  0
   10.0608  -17.1206   27.9773 C   0  0  0  0  0  0  0  0  0  0  0  0
   10.5119  -18.3116   28.5049 O   0  0  0  0  0  0  0  0  0  0  0  0
    9.7642  -16.2023   28.7696 O   0  0  0  0  0  0  0  0  0  0  0  0
  1  2  1  0
  3  2  1  0
  4  5  1  0
  4  3  1  0
  5  1  1  0
  6  8  1  0
  5  6  1  1
  7  6  2  0
  9 10  1  1
  9  8  1  0
  9 12  1  0
 11 10  1  0
 12 14  1  0
 13 12  2  0
 14 15  1  0
 15 16  1  6
 16 17  1  0
 18 15  1  0
 18 19  1  0
 20 18  2  0
M  END
$$$$
