PCC.pdb
     RDKit          3D

 20 20  0  0  1  0  0  0  0  0999 V2000
    8.1822  -14.6687   20.9472 N   0  0  0  0  0  0  0  0  0  0  0  0
    9.2317  -15.6337   20.7563 C   0  0  0  0  0  0  0  0  0  0  0  0
    8.4085  -16.9313   20.7557 C   0  0  0  0  0  0  0  0  0  0  0  0
    7.4835  -16.6912   21.9285 C   0  0  0  0  0  0  0  0  0  0  0  0
    7.4035  -15.1709   22.0297 C   0  0  1  0  0  0  0  0  0  0  0  0
    7.9314  -14.6959   23.3220 C   0  0  0  0  0  0  0  0  0  0  0  0
    9.1417  -14.2761   23.2798 O   0  0  0  0  0  0  0  0  0  0  0  0
    7.1912  -14.6937   24.5083 N   0  0  0  0  0  0  0  0  0  0  0  0
    7.8255  -14.1719   25.7288 C   0  0  1  0  0  0  0  0  0  0  0  0
    6.7343  -13.7684   26.7184 C   0  0  0  0  0  0  0  0  0  0  0  0
    5.7333  -12.4853   25.9268 S   0  0  0  0  0  0  0  0  0  0  0  0
    8.6004  -15.2630   26.3980 C   0  0  0  0  0  0  0  0  0  0  0  0
    8.2675  -16.4550   26.2184 O   0  0  0  0  0  0  0  0  0  0  0  0
    9.7076  -15.0030   27.2359 N   0  0  0  0  0  0  0  0  0  0  0  0
   10.6251  -15.9831   27.7172 C   0  0  1  0  0  0  0  0  0  0  0  0
   11.9986  -15.3461   27.9701 C   0  0  0  0  0  0  0  0  0  0  0  0
   12.4235  -14.1451   26.7075 S   0  0  0  0  0  0  0  0  0  0  0  0
   10.2152  -16.6577   28.9427 C   0  0  0  0  0  0  0  0  0  0  0  0
   10.9360  -17.7233   29.4377 O   0  0  0  0  0  0  0  0  0  0  0  0
    9.2033  -16.2891   29.5745 O   0  0  0  0  0  0  0  0  0  0  0  0
  1  2  1  0
  3  2  1  0
  4  5  1  0
  4  3  1  0
  5  1  1  0
  6  8  1  0
  5  6  1  1
  7  6  2  0
  9 10  1  1
  9  8  1  0
  9 12  1  0
 11 10  1  0
 12 14  1  0
 13 12  2  0
 14 15  1  0
 15 16  1  1
 16 17  1  0
 18 15  1  0
 18 19  1  0
 20 18  2  0
M  END
$$$$
