PCC.pdb
     RDKit          3D

 20 20  0  0  1  0  0  0  0  0999 V2000
    7.6778  -14.2893   19.9936 N   0  0  0  0  0  0  0  0  0  0  0  0
    8.3111  -15.4954   19.5321 C   0  0  0  0  0  0  0  0  0  0  0  0
    7.1180  -16.4627   19.5815 C   0  0  0  0  0  0  0  0  0  0  0  0
    6.5123  -16.1115   20.9226 C   0  0  0  0  0  0  0  0  0  0  0  0
    6.9514  -14.6695   21.1591 C   0  0  1  0  0  0  0  0  0  0  0  0
    7.7956  -14.5620   22.3633 C   0  0  0  0  0  0  0  0  0  0  0  0
    9.0563  -14.5829   22.1323 O   0  0  0  0  0  0  0  0  0  0  0  0
    7.2855  -14.4454   23.6600 N   0  0  0  0  0  0  0  0  0  0  0  0
    8.2344  -14.3291   24.7782 C   0  0  1  0  0  0  0  0  0  0  0  0
    7.5159  -13.7042   25.9724 C   0  0  0  0  0  0  0  0  0  0  0  0
    5.8502  -14.4091   26.0312 S   0  0  0  0  0  0  0  0  0  0  0  0
    8.6556  -15.6940   25.2235 C   0  0  0  0  0  0  0  0  0  0  0  0
    7.8829  -16.6629   25.0560 O   0  0  0  0  0  0  0  0  0  0  0  0
    9.9055  -15.9408   25.8338 N   0  0  0  0  0  0  0  0  0  0  0  0
   10.4127  -17.2272   26.1830 C   0  0  1  0  0  0  0  0  0  0  0  0
   11.9091  -17.3158   25.8526 C   0  0  0  0  0  0  0  0  0  0  0  0
   12.2514  -16.8364   24.1586 S   0  0  0  0  0  0  0  0  0  0  0  0
   10.2439  -17.5936   27.5838 C   0  0  0  0  0  0  0  0  0  0  0  0
   10.6741  -18.8171   28.0509 O   0  0  0  0  0  0  0  0  0  0  0  0
    9.7066  -16.8112   28.3951 O   0  0  0  0  0  0  0  0  0  0  0  0
  1  2  1  0
  3  2  1  0
  4  5  1  0
  4  3  1  0
  5  1  1  0
  6  8  1  0
  5  6  1  1
  7  6  2  0
  9 10  1  1
  9  8  1  0
  9 12  1  0
 11 10  1  0
 12 14  1  0
 13 12  2  0
 14 15  1  0
 15 16  1  1
 16 17  1  0
 18 15  1  0
 18 19  1  0
 20 18  2  0
M  END
$$$$
