PCC.pdb
     RDKit          3D

 20 20  0  0  1  0  0  0  0  0999 V2000
    7.9122  -14.8912   18.9075 N   0  0  0  0  0  0  0  0  0  0  0  0
    6.8882  -13.8881   18.7882 C   0  0  0  0  0  0  0  0  0  0  0  0
    7.7398  -12.6158   18.9213 C   0  0  0  0  0  0  0  0  0  0  0  0
    8.6363  -12.9844   20.0829 C   0  0  0  0  0  0  0  0  0  0  0  0
    8.6807  -14.5091   20.0449 C   0  0  1  0  0  0  0  0  0  0  0  0
    8.1174  -15.0878   21.2787 C   0  0  0  0  0  0  0  0  0  0  0  0
    6.8429  -15.2242   21.2681 O   0  0  0  0  0  0  0  0  0  0  0  0
    8.8901  -15.4646   22.3815 N   0  0  0  0  0  0  0  0  0  0  0  0
    8.1992  -15.9117   23.6010 C   0  0  1  0  0  0  0  0  0  0  0  0
    8.7606  -17.2700   24.0165 C   0  0  0  0  0  0  0  0  0  0  0  0
    8.0120  -17.7017   25.6064 S   0  0  0  0  0  0  0  0  0  0  0  0
    8.5135  -14.9781   24.7272 C   0  0  0  0  0  0  0  0  0  0  0  0
    9.7017  -14.6562   24.9479 O   0  0  0  0  0  0  0  0  0  0  0  0
    7.5135  -14.4361   25.5649 N   0  0  0  0  0  0  0  0  0  0  0  0
    7.7413  -13.5214   26.6351 C   0  0  1  0  0  0  0  0  0  0  0  0
    6.4286  -12.8328   27.0339 C   0  0  0  0  0  0  0  0  0  0  0  0
    5.5667  -12.1582   25.6130 S   0  0  0  0  0  0  0  0  0  0  0  0
    8.3157  -14.1139   27.8367 C   0  0  0  0  0  0  0  0  0  0  0  0
    8.5250  -15.4736   27.9234 O   0  0  0  0  0  0  0  0  0  0  0  0
    8.6325  -13.4074   28.8163 O   0  0  0  0  0  0  0  0  0  0  0  0
  1  2  1  0
  3  2  1  0
  4  5  1  0
  4  3  1  0
  5  1  1  0
  6  8  1  0
  5  6  1  1
  7  6  2  0
  9 10  1  1
  9  8  1  0
  9 12  1  0
 11 10  1  0
 12 14  1  0
 13 12  2  0
 14 15  1  0
 15 16  1  1
 16 17  1  0
 18 15  1  0
 18 19  1  0
 20 18  2  0
M  END
$$$$
