PCC.pdb
     RDKit          3D

 20 20  0  0  1  0  0  0  0  0999 V2000
    8.2717  -14.3202   20.2099 N   0  0  0  0  0  0  0  0  0  0  0  0
    8.4106  -15.7333   19.9801 C   0  0  0  0  0  0  0  0  0  0  0  0
    6.9309  -16.1414   19.9052 C   0  0  0  0  0  0  0  0  0  0  0  0
    6.3578  -15.3794   21.0798 C   0  0  0  0  0  0  0  0  0  0  0  0
    7.3132  -14.2032   21.2578 C   0  0  1  0  0  0  0  0  0  0  0  0
    7.9691  -14.2466   22.5777 C   0  0  0  0  0  0  0  0  0  0  0  0
    9.1943  -14.6221   22.5503 O   0  0  0  0  0  0  0  0  0  0  0  0
    7.3277  -13.9099   23.7738 N   0  0  0  0  0  0  0  0  0  0  0  0
    8.1065  -13.9488   25.0212 C   0  0  1  0  0  0  0  0  0  0  0  0
    7.3435  -13.1875   26.1034 C   0  0  0  0  0  0  0  0  0  0  0  0
    5.5797  -13.4938   25.8392 S   0  0  0  0  0  0  0  0  0  0  0  0
    8.2055  -15.3603   25.5078 C   0  0  0  0  0  0  0  0  0  0  0  0
    7.3386  -16.1933   25.1635 O   0  0  0  0  0  0  0  0  0  0  0  0
    9.2497  -15.8005   26.3511 N   0  0  0  0  0  0  0  0  0  0  0  0
    9.6342  -17.1601   26.5462 C   0  0  1  0  0  0  0  0  0  0  0  0
   10.7133  -17.5580   25.5297 C   0  0  0  0  0  0  0  0  0  0  0  0
   11.2369  -19.2606   25.7394 S   0  0  0  0  0  0  0  0  0  0  0  0
   10.1414  -17.4692   27.8774 C   0  0  0  0  0  0  0  0  0  0  0  0
   10.2875  -18.7756   28.2921 O   0  0  0  0  0  0  0  0  0  0  0  0
   10.4559  -16.5613   28.6748 O   0  0  0  0  0  0  0  0  0  0  0  0
  1  2  1  0
  3  2  1  0
  4  5  1  0
  4  3  1  0
  5  1  1  0
  6  8  1  0
  5  6  1  1
  7  6  2  0
  9 10  1  1
  9  8  1  0
  9 12  1  0
 11 10  1  0
 12 14  1  0
 13 12  2  0
 14 15  1  0
 15 16  1  6
 16 17  1  0
 18 15  1  0
 18 19  1  0
 20 18  2  0
M  END
$$$$
