PCC.pdb
     RDKit          3D

 20 20  0  0  1  0  0  0  0  0999 V2000
    8.5575  -14.6010   19.1897 N   0  0  0  0  0  0  0  0  0  0  0  0
    7.1700  -14.2856   18.9792 C   0  0  0  0  0  0  0  0  0  0  0  0
    7.1995  -12.7673   19.2144 C   0  0  0  0  0  0  0  0  0  0  0  0
    8.0588  -12.6806   20.4566 C   0  0  0  0  0  0  0  0  0  0  0  0
    8.9110  -13.9451   20.4043 C   0  0  1  0  0  0  0  0  0  0  0  0
    8.6463  -14.8127   21.5668 C   0  0  0  0  0  0  0  0  0  0  0  0
    7.4131  -14.8799   21.9100 O   0  0  0  0  0  0  0  0  0  0  0  0
    9.6420  -15.5142   22.2536 N   0  0  0  0  0  0  0  0  0  0  0  0
    9.2750  -16.2198   23.4911 C   0  0  1  0  0  0  0  0  0  0  0  0
    9.6048  -17.7025   23.3304 C   0  0  0  0  0  0  0  0  0  0  0  0
   11.1729  -17.8140   22.4342 S   0  0  0  0  0  0  0  0  0  0  0  0
   10.1280  -15.7318   24.6194 C   0  0  0  0  0  0  0  0  0  0  0  0
   10.9189  -14.7821   24.4283 O   0  0  0  0  0  0  0  0  0  0  0  0
   10.0793  -16.3043   25.9099 N   0  0  0  0  0  0  0  0  0  0  0  0
   10.4996  -15.6632   27.1126 C   0  0  1  0  0  0  0  0  0  0  0  0
    9.6425  -14.4178   27.3783 C   0  0  0  0  0  0  0  0  0  0  0  0
   10.2100  -13.5073   28.8156 S   0  0  0  0  0  0  0  0  0  0  0  0
   10.4487  -16.5009   28.3044 C   0  0  0  0  0  0  0  0  0  0  0  0
   11.3934  -16.3716   29.2999 O   0  0  0  0  0  0  0  0  0  0  0  0
    9.5506  -17.3552   28.4545 O   0  0  0  0  0  0  0  0  0  0  0  0
  1  2  1  0
  3  2  1  0
  4  5  1  0
  4  3  1  0
  5  1  1  0
  6  8  1  0
  5  6  1  1
  7  6  2  0
  9 10  1  6
  9  8  1  0
  9 12  1  0
 11 10  1  0
 12 14  1  0
 13 12  2  0
 14 15  1  0
 15 16  1  1
 16 17  1  0
 18 15  1  0
 18 19  1  0
 20 18  2  0
M  END
$$$$
