QFD.pdb
     RDKit          3D

 29 29  0  0  1  0  0  0  0  0999 V2000
    8.2742  -12.6061   16.8752 N   0  0  0  0  0  0  0  0  0  0  0  0
    7.6125  -13.8480   16.8921 C   0  0  0  0  0  0  0  0  0  0  0  0
    6.7135  -14.0821   16.0611 O   0  0  0  0  0  0  0  0  0  0  0  0
    7.9721  -14.8764   17.8835 C   0  0  0  0  0  0  0  0  0  0  0  0
    9.1294  -14.4378   18.7622 C   0  0  0  0  0  0  0  0  0  0  0  0
    9.4627  -15.5970   19.6873 C   0  0  2  0  0  0  0  0  0  0  0  0
    8.3289  -16.5195   19.5551 N   0  0  0  0  0  0  0  0  0  0  0  0
    9.5106  -15.1626   21.1019 C   0  0  0  0  0  0  0  0  0  0  0  0
   10.5636  -14.6699   21.5676 O   0  0  0  0  0  0  0  0  0  0  0  0
    8.4108  -15.2681   22.0002 N   0  0  0  0  0  0  0  0  0  0  0  0
    8.4716  -14.8417   23.3721 C   0  0  1  0  0  0  0  0  0  0  0  0
    7.1800  -14.1179   23.7177 C   0  0  0  0  0  0  0  0  0  0  0  0
    7.2523  -13.4463   25.0346 C   0  0  0  0  0  0  0  0  0  0  0  0
    6.4078  -13.7164   26.0849 C   0  0  0  0  0  0  0  0  0  0  0  0
    6.4942  -13.0828   27.3012 C   0  0  0  0  0  0  0  0  0  0  0  0
    7.4514  -12.1280   27.5277 C   0  0  0  0  0  0  0  0  0  0  0  0
    8.3202  -11.8321   26.4859 C   0  0  0  0  0  0  0  0  0  0  0  0
    8.2200  -12.4776   25.2708 C   0  0  0  0  0  0  0  0  0  0  0  0
    8.6508  -15.9332   24.3436 C   0  0  0  0  0  0  0  0  0  0  0  0
    7.6692  -16.6395   24.6603 O   0  0  0  0  0  0  0  0  0  0  0  0
    9.9062  -16.2078   24.9284 N   0  0  0  0  0  0  0  0  0  0  0  0
   10.1639  -17.4875   25.6439 C   0  0  1  0  0  0  0  0  0  0  0  0
   11.5302  -17.9889   25.2159 C   0  0  0  0  0  0  0  0  0  0  0  0
   12.0435  -19.0283   26.0849 C   0  0  0  0  0  0  0  0  0  0  0  0
   11.3385  -19.5346   26.9899 O   0  0  0  0  0  0  0  0  0  0  0  0
   10.1612  -17.1215   27.0688 C   0  0  0  0  0  0  0  0  0  0  0  0
    9.6067  -17.8481   27.9149 O   0  0  0  0  0  0  0  0  0  0  0  0
   13.3429  -19.5452   25.9905 O   0  0  0  0  0  0  0  0  0  0  0  0
   10.7662  -15.9673   27.5462 O   0  0  0  0  0  0  0  0  0  0  0  0
  2  1  1  0
  2  3  2  0
  4  2  1  0
  5  4  1  0
  5  6  1  0
  6  7  1  1
  8  6  1  0
  8 10  1  0
  9  8  2  0
 11 10  1  0
 12 13  1  0
 11 12  1  1
 13 18  2  0
 14 13  1  0
 14 15  2  0
 15 16  1  0
 16 17  2  0
 18 17  1  0
 19 21  1  0
 19 11  1  0
 20 19  2  0
 22 21  1  0
 22 26  1  0
 22 23  1  6
 24 25  2  0
 24 23  1  0
 26 27  2  0
 26 29  1  0
 28 24  1  0
M  END
$$$$
