QFD.pdb
     RDKit          3D

 29 29  0  0  1  0  0  0  0  0999 V2000
   10.9027  -17.4734   16.6213 N   0  0  0  0  0  0  0  0  0  0  0  0
    9.5170  -17.2384   16.5525 C   0  0  0  0  0  0  0  0  0  0  0  0
    8.8596  -17.6867   15.5931 O   0  0  0  0  0  0  0  0  0  0  0  0
    8.8336  -16.4666   17.6047 C   0  0  0  0  0  0  0  0  0  0  0  0
    9.7845  -16.0515   18.7126 C   0  0  0  0  0  0  0  0  0  0  0  0
    9.3818  -16.8113   19.9661 C   0  0  2  0  0  0  0  0  0  0  0  0
    7.9749  -17.1698   19.7508 N   0  0  0  0  0  0  0  0  0  0  0  0
    9.4336  -15.9430   21.1641 C   0  0  0  0  0  0  0  0  0  0  0  0
   10.5056  -15.3766   21.4778 O   0  0  0  0  0  0  0  0  0  0  0  0
    8.3170  -15.6975   22.0130 N   0  0  0  0  0  0  0  0  0  0  0  0
    8.4298  -15.0609   23.2973 C   0  0  1  0  0  0  0  0  0  0  0  0
    7.1194  -14.3568   23.6117 C   0  0  0  0  0  0  0  0  0  0  0  0
    7.1949  -13.5712   24.8638 C   0  0  0  0  0  0  0  0  0  0  0  0
    8.0009  -12.4713   25.0361 C   0  0  0  0  0  0  0  0  0  0  0  0
    8.0538  -11.7539   26.2070 C   0  0  0  0  0  0  0  0  0  0  0  0
    7.2850  -12.1123   27.2839 C   0  0  0  0  0  0  0  0  0  0  0  0
    6.4597  -13.2197   27.1416 C   0  0  0  0  0  0  0  0  0  0  0  0
    6.4184  -13.9291   25.9591 C   0  0  0  0  0  0  0  0  0  0  0  0
    8.7273  -15.9782   24.4096 C   0  0  0  0  0  0  0  0  0  0  0  0
    7.9780  -16.9578   24.6137 O   0  0  0  0  0  0  0  0  0  0  0  0
    9.8414  -15.7834   25.2547 N   0  0  0  0  0  0  0  0  0  0  0  0
   10.2470  -16.8126   26.2509 C   0  0  1  0  0  0  0  0  0  0  0  0
   11.7257  -17.0882   26.0542 C   0  0  0  0  0  0  0  0  0  0  0  0
   11.9996  -17.8459   24.8502 C   0  0  0  0  0  0  0  0  0  0  0  0
   11.3695  -18.8952   24.5775 O   0  0  0  0  0  0  0  0  0  0  0  0
    9.9993  -16.1813   27.5565 C   0  0  0  0  0  0  0  0  0  0  0  0
   10.0488  -16.8465   28.6083 O   0  0  0  0  0  0  0  0  0  0  0  0
   12.9705  -17.4792   23.9082 O   0  0  0  0  0  0  0  0  0  0  0  0
    9.7030  -14.8323   27.6913 O   0  0  0  0  0  0  0  0  0  0  0  0
  2  1  1  0
  2  3  2  0
  4  2  1  0
  5  4  1  0
  5  6  1  0
  6  7  1  6
  8  6  1  0
  8 10  1  0
  9  8  2  0
 11 10  1  0
 12 13  1  0
 11 12  1  1
 13 18  2  0
 14 13  1  0
 14 15  2  0
 15 16  1  0
 16 17  2  0
 18 17  1  0
 19 21  1  0
 19 11  1  0
 20 19  2  0
 22 21  1  0
 22 26  1  0
 22 23  1  6
 24 25  2  0
 24 23  1  0
 26 27  2  0
 26 29  1  0
 28 24  1  0
M  END
$$$$
