QFD.pdb
     RDKit          3D

 29 29  0  0  1  0  0  0  0  0999 V2000
    8.3231  -12.6432   16.4542 N   0  0  0  0  0  0  0  0  0  0  0  0
    8.0954  -13.9896   16.1141 C   0  0  0  0  0  0  0  0  0  0  0  0
    7.8074  -14.2916   14.9396 O   0  0  0  0  0  0  0  0  0  0  0  0
    8.1943  -15.0481   17.1337 C   0  0  0  0  0  0  0  0  0  0  0  0
    8.5640  -14.4911   18.4964 C   0  0  0  0  0  0  0  0  0  0  0  0
    8.7640  -15.6726   19.4317 C   0  0  2  0  0  0  0  0  0  0  0  0
    7.4831  -16.3888   19.4093 N   0  0  0  0  0  0  0  0  0  0  0  0
    8.9913  -15.2262   20.8248 C   0  0  0  0  0  0  0  0  0  0  0  0
   10.1053  -14.7596   21.1562 O   0  0  0  0  0  0  0  0  0  0  0  0
    8.0034  -15.2913   21.8483 N   0  0  0  0  0  0  0  0  0  0  0  0
    8.2468  -14.8795   23.2043 C   0  0  1  0  0  0  0  0  0  0  0  0
    6.9656  -14.2932   23.7756 C   0  0  0  0  0  0  0  0  0  0  0  0
    7.1716  -13.7055   25.1183 C   0  0  0  0  0  0  0  0  0  0  0  0
    7.7576  -12.4826   25.3427 C   0  0  0  0  0  0  0  0  0  0  0  0
    7.9367  -11.9538   26.5984 C   0  0  0  0  0  0  0  0  0  0  0  0
    7.5284  -12.6401   27.7127 C   0  0  0  0  0  0  0  0  0  0  0  0
    6.9326  -13.8792   27.5194 C   0  0  0  0  0  0  0  0  0  0  0  0
    6.7602  -14.3958   26.2518 C   0  0  0  0  0  0  0  0  0  0  0  0
    8.6873  -15.9607   24.1012 C   0  0  0  0  0  0  0  0  0  0  0  0
    8.0540  -17.0383   24.1196 O   0  0  0  0  0  0  0  0  0  0  0  0
    9.8114  -15.8153   24.9430 N   0  0  0  0  0  0  0  0  0  0  0  0
   10.4102  -16.9840   25.6440 C   0  0  1  0  0  0  0  0  0  0  0  0
   11.9172  -16.8859   25.5009 C   0  0  0  0  0  0  0  0  0  0  0  0
   12.6134  -17.9885   26.1321 C   0  0  0  0  0  0  0  0  0  0  0  0
   13.0588  -17.9004   27.3011 O   0  0  0  0  0  0  0  0  0  0  0  0
   10.0042  -16.8205   27.0486 C   0  0  0  0  0  0  0  0  0  0  0  0
   10.0394  -15.7036   27.5987 O   0  0  0  0  0  0  0  0  0  0  0  0
   12.8435  -19.2205   25.5045 O   0  0  0  0  0  0  0  0  0  0  0  0
    9.5645  -17.8806   27.8288 O   0  0  0  0  0  0  0  0  0  0  0  0
  2  1  1  0
  2  3  2  0
  4  2  1  0
  5  4  1  0
  5  6  1  0
  6  7  1  1
  8  6  1  0
  8 10  1  0
  9  8  2  0
 11 10  1  0
 12 13  1  0
 11 12  1  1
 13 18  2  0
 14 13  1  0
 14 15  2  0
 15 16  1  0
 16 17  2  0
 18 17  1  0
 19 21  1  0
 19 11  1  0
 20 19  2  0
 22 21  1  0
 22 26  1  0
 22 23  1  1
 24 25  2  0
 24 23  1  0
 26 27  2  0
 26 29  1  0
 28 24  1  0
M  END
$$$$
