QFD.pdb
     RDKit          3D

 29 29  0  0  1  0  0  0  0  0999 V2000
    7.4549  -17.2392   17.1482 N   0  0  0  0  0  0  0  0  0  0  0  0
    8.4954  -17.8130   16.3943 C   0  0  0  0  0  0  0  0  0  0  0  0
    8.2251  -18.5447   15.4221 O   0  0  0  0  0  0  0  0  0  0  0  0
    9.9037  -17.5572   16.7425 C   0  0  0  0  0  0  0  0  0  0  0  0
   10.0355  -16.5547   17.8745 C   0  0  0  0  0  0  0  0  0  0  0  0
   10.5971  -17.2970   19.0763 C   0  0  2  0  0  0  0  0  0  0  0  0
    9.5540  -18.2630   19.4407 N   0  0  0  0  0  0  0  0  0  0  0  0
   10.7788  -16.3918   20.2337 C   0  0  0  0  0  0  0  0  0  0  0  0
   11.7452  -15.5956   20.2570 O   0  0  0  0  0  0  0  0  0  0  0  0
    9.9064  -16.3602   21.3587 N   0  0  0  0  0  0  0  0  0  0  0  0
   10.0902  -15.4692   22.4722 C   0  0  1  0  0  0  0  0  0  0  0  0
    8.7334  -14.9314   22.8983 C   0  0  0  0  0  0  0  0  0  0  0  0
    8.0459  -14.2182   21.7987 C   0  0  0  0  0  0  0  0  0  0  0  0
    8.3721  -12.9506   21.3795 C   0  0  0  0  0  0  0  0  0  0  0  0
    7.7223  -12.3072   20.3537 C   0  0  0  0  0  0  0  0  0  0  0  0
    6.6925  -12.9168   19.6849 C   0  0  0  0  0  0  0  0  0  0  0  0
    6.3385  -14.1983   20.0848 C   0  0  0  0  0  0  0  0  0  0  0  0
    7.0013  -14.8302   21.1167 C   0  0  0  0  0  0  0  0  0  0  0  0
   10.7211  -16.0863   23.6505 C   0  0  0  0  0  0  0  0  0  0  0  0
   10.6844  -15.4900   24.7485 O   0  0  0  0  0  0  0  0  0  0  0  0
   11.3671  -17.3395   23.5758 N   0  0  0  0  0  0  0  0  0  0  0  0
   11.9768  -17.9694   24.7789 C   0  0  1  0  0  0  0  0  0  0  0  0
   11.0254  -19.0440   25.2700 C   0  0  0  0  0  0  0  0  0  0  0  0
   11.5933  -19.8554   26.3273 C   0  0  0  0  0  0  0  0  0  0  0  0
   12.3096  -19.3542   27.2263 O   0  0  0  0  0  0  0  0  0  0  0  0
   13.2316  -18.5620   24.2903 C   0  0  0  0  0  0  0  0  0  0  0  0
   13.2955  -19.0836   23.1611 O   0  0  0  0  0  0  0  0  0  0  0  0
   11.3952  -21.2388   26.4336 O   0  0  0  0  0  0  0  0  0  0  0  0
   14.3971  -18.5734   25.0436 O   0  0  0  0  0  0  0  0  0  0  0  0
  2  1  1  0
  2  3  2  0
  4  2  1  0
  5  4  1  0
  5  6  1  0
  6  7  1  1
  8  6  1  0
  8 10  1  0
  9  8  2  0
 11 10  1  0
 12 13  1  0
 11 12  1  1
 13 18  2  0
 14 13  1  0
 14 15  2  0
 15 16  1  0
 16 17  2  0
 18 17  1  0
 19 21  1  0
 19 11  1  0
 20 19  2  0
 22 21  1  0
 22 26  1  0
 22 23  1  6
 24 25  2  0
 24 23  1  0
 26 27  2  0
 26 29  1  0
 28 24  1  0
M  END
$$$$
