QFD.pdb
     RDKit          3D

 29 29  0  0  1  0  0  0  0  0999 V2000
    9.3122  -20.8491   19.8647 N   0  0  0  0  0  0  0  0  0  0  0  0
    9.5963  -20.1587   18.6719 C   0  0  0  0  0  0  0  0  0  0  0  0
    9.7086  -20.7897   17.6028 O   0  0  0  0  0  0  0  0  0  0  0  0
    9.7626  -18.6951   18.6733 C   0  0  0  0  0  0  0  0  0  0  0  0
    9.5934  -18.1059   20.0619 C   0  0  0  0  0  0  0  0  0  0  0  0
    8.8364  -16.7964   19.9111 C   0  0  2  0  0  0  0  0  0  0  0  0
    9.4815  -16.1191   18.7800 N   0  0  0  0  0  0  0  0  0  0  0  0
    9.0136  -15.9302   21.0986 C   0  0  0  0  0  0  0  0  0  0  0  0
   10.1491  -15.4837   21.3809 O   0  0  0  0  0  0  0  0  0  0  0  0
    7.9523  -15.5561   21.9712 N   0  0  0  0  0  0  0  0  0  0  0  0
    8.1645  -14.8913   23.2284 C   0  0  1  0  0  0  0  0  0  0  0  0
    6.8513  -14.2759   23.6848 C   0  0  0  0  0  0  0  0  0  0  0  0
    6.9890  -13.5598   24.9728 C   0  0  0  0  0  0  0  0  0  0  0  0
    7.6886  -12.3875   25.1320 C   0  0  0  0  0  0  0  0  0  0  0  0
    7.8016  -11.7370   26.3372 C   0  0  0  0  0  0  0  0  0  0  0  0
    7.2060  -12.2412   27.4643 C   0  0  0  0  0  0  0  0  0  0  0  0
    6.4916  -13.4248   27.3365 C   0  0  0  0  0  0  0  0  0  0  0  0
    6.3879  -14.0654   26.1190 C   0  0  0  0  0  0  0  0  0  0  0  0
    8.6517  -15.7664   24.3074 C   0  0  0  0  0  0  0  0  0  0  0  0
    8.0323  -16.8203   24.5690 O   0  0  0  0  0  0  0  0  0  0  0  0
    9.8054  -15.4490   25.0568 N   0  0  0  0  0  0  0  0  0  0  0  0
   10.4153  -16.4324   25.9933 C   0  0  1  0  0  0  0  0  0  0  0  0
   11.9113  -16.1818   26.0162 C   0  0  0  0  0  0  0  0  0  0  0  0
   12.5743  -16.6350   24.8104 C   0  0  0  0  0  0  0  0  0  0  0  0
   13.7389  -16.2685   24.5245 O   0  0  0  0  0  0  0  0  0  0  0  0
    9.8110  -16.1239   27.2986 C   0  0  0  0  0  0  0  0  0  0  0  0
    9.4814  -14.9590   27.5917 O   0  0  0  0  0  0  0  0  0  0  0  0
   11.9840  -17.5025   23.8811 O   0  0  0  0  0  0  0  0  0  0  0  0
    9.5751  -17.0943   28.2623 O   0  0  0  0  0  0  0  0  0  0  0  0
  2  1  1  0
  2  3  2  0
  4  2  1  0
  5  4  1  0
  5  6  1  0
  6  7  1  6
  8  6  1  0
  8 10  1  0
  9  8  2  0
 11 10  1  0
 12 13  1  0
 11 12  1  1
 13 18  2  0
 14 13  1  0
 14 15  2  0
 15 16  1  0
 16 17  2  0
 18 17  1  0
 19 21  1  0
 19 11  1  0
 20 19  2  0
 22 21  1  0
 22 26  1  0
 22 23  1  1
 24 25  2  0
 24 23  1  0
 26 27  2  0
 26 29  1  0
 28 24  1  0
M  END
$$$$
