QFD.pdb
     RDKit          3D

 29 29  0  0  1  0  0  0  0  0999 V2000
    6.8557  -19.0996   19.5339 N   0  0  0  0  0  0  0  0  0  0  0  0
    7.9798  -19.4410   18.7593 C   0  0  0  0  0  0  0  0  0  0  0  0
    7.8265  -20.0286   17.6707 O   0  0  0  0  0  0  0  0  0  0  0  0
    9.3386  -19.1103   19.2220 C   0  0  0  0  0  0  0  0  0  0  0  0
    9.3240  -18.3945   20.5604 C   0  0  0  0  0  0  0  0  0  0  0  0
    9.1316  -16.9127   20.2816 C   0  0  2  0  0  0  0  0  0  0  0  0
   10.2396  -16.5528   19.3888 N   0  0  0  0  0  0  0  0  0  0  0  0
    9.2835  -16.1069   21.5142 C   0  0  0  0  0  0  0  0  0  0  0  0
   10.4277  -15.8130   21.9301 O   0  0  0  0  0  0  0  0  0  0  0  0
    8.1876  -15.6266   22.2863 N   0  0  0  0  0  0  0  0  0  0  0  0
    8.3497  -14.8295   23.4719 C   0  0  1  0  0  0  0  0  0  0  0  0
    7.0600  -14.0664   23.7293 C   0  0  0  0  0  0  0  0  0  0  0  0
    7.1286  -13.2565   24.9661 C   0  0  0  0  0  0  0  0  0  0  0  0
    7.9303  -12.1507   25.1199 C   0  0  0  0  0  0  0  0  0  0  0  0
    7.9767  -11.4106   26.2768 C   0  0  0  0  0  0  0  0  0  0  0  0
    7.2054  -11.7509   27.3579 C   0  0  0  0  0  0  0  0  0  0  0  0
    6.3845  -12.8637   27.2343 C   0  0  0  0  0  0  0  0  0  0  0  0
    6.3496  -13.5959   26.0655 C   0  0  0  0  0  0  0  0  0  0  0  0
    8.6687  -15.5986   24.6860 C   0  0  0  0  0  0  0  0  0  0  0  0
    8.8168  -14.9969   25.7717 O   0  0  0  0  0  0  0  0  0  0  0  0
    8.8102  -17.0031   24.6593 N   0  0  0  0  0  0  0  0  0  0  0  0
    9.9691  -17.6771   25.3063 C   0  0  1  0  0  0  0  0  0  0  0  0
   11.2317  -17.1703   24.6354 C   0  0  0  0  0  0  0  0  0  0  0  0
   12.4307  -17.4881   25.3838 C   0  0  0  0  0  0  0  0  0  0  0  0
   12.3891  -18.1878   26.4236 O   0  0  0  0  0  0  0  0  0  0  0  0
    9.9110  -17.2449   26.7114 C   0  0  0  0  0  0  0  0  0  0  0  0
    9.7679  -18.0735   27.6301 O   0  0  0  0  0  0  0  0  0  0  0  0
   13.7110  -17.0507   25.0179 O   0  0  0  0  0  0  0  0  0  0  0  0
   10.0117  -15.9134   27.0896 O   0  0  0  0  0  0  0  0  0  0  0  0
  2  1  1  0
  2  3  2  0
  4  2  1  0
  5  4  1  0
  5  6  1  0
  6  7  1  6
  8  6  1  0
  8 10  1  0
  9  8  2  0
 11 10  1  0
 12 13  1  0
 11 12  1  1
 13 18  2  0
 14 13  1  0
 14 15  2  0
 15 16  1  0
 16 17  2  0
 18 17  1  0
 19 21  1  0
 19 11  1  0
 20 19  2  0
 22 21  1  0
 22 26  1  0
 22 23  1  6
 24 25  2  0
 24 23  1  0
 26 27  2  0
 26 29  1  0
 28 24  1  0
M  END
$$$$
