QFD.pdb
     RDKit          3D

 29 29  0  0  1  0  0  0  0  0999 V2000
    7.8436  -12.7457   16.2774 N   0  0  0  0  0  0  0  0  0  0  0  0
    7.8364  -14.1234   15.9910 C   0  0  0  0  0  0  0  0  0  0  0  0
    7.6012  -14.5135   14.8307 O   0  0  0  0  0  0  0  0  0  0  0  0
    8.1048  -15.1114   17.0500 C   0  0  0  0  0  0  0  0  0  0  0  0
    8.3429  -14.4508   18.3956 C   0  0  0  0  0  0  0  0  0  0  0  0
    8.8619  -15.5210   19.3422 C   0  0  2  0  0  0  0  0  0  0  0  0
    7.8137  -16.5483   19.3567 N   0  0  0  0  0  0  0  0  0  0  0  0
    8.9879  -15.0049   20.7240 C   0  0  0  0  0  0  0  0  0  0  0  0
    9.9664  -14.2878   21.0351 O   0  0  0  0  0  0  0  0  0  0  0  0
    8.0470  -15.2737   21.7585 N   0  0  0  0  0  0  0  0  0  0  0  0
    8.2100  -14.8114   23.1102 C   0  0  1  0  0  0  0  0  0  0  0  0
    6.8647  -14.3282   23.6283 C   0  0  0  0  0  0  0  0  0  0  0  0
    6.9840  -13.6413   24.9338 C   0  0  0  0  0  0  0  0  0  0  0  0
    7.5239  -12.3881   25.0989 C   0  0  0  0  0  0  0  0  0  0  0  0
    7.6225  -11.7669   26.3207 C   0  0  0  0  0  0  0  0  0  0  0  0
    7.1752  -12.3852   27.4595 C   0  0  0  0  0  0  0  0  0  0  0  0
    6.6243  -13.6526   27.3261 C   0  0  0  0  0  0  0  0  0  0  0  0
    6.5326  -14.2623   26.0919 C   0  0  0  0  0  0  0  0  0  0  0  0
    8.7152  -15.8286   24.0469 C   0  0  0  0  0  0  0  0  0  0  0  0
    8.1352  -16.9333   24.1238 O   0  0  0  0  0  0  0  0  0  0  0  0
    9.8429  -15.5917   24.8627 N   0  0  0  0  0  0  0  0  0  0  0  0
   10.4236  -16.6672   25.7125 C   0  0  1  0  0  0  0  0  0  0  0  0
   11.9343  -16.5575   25.6281 C   0  0  0  0  0  0  0  0  0  0  0  0
   12.4673  -17.0947   24.3927 C   0  0  0  0  0  0  0  0  0  0  0  0
   11.7289  -17.6549   23.5481 O   0  0  0  0  0  0  0  0  0  0  0  0
    9.9498  -16.3611   27.0713 C   0  0  0  0  0  0  0  0  0  0  0  0
    9.5411  -15.2217   27.3647 O   0  0  0  0  0  0  0  0  0  0  0  0
   13.8234  -17.0355   24.0436 O   0  0  0  0  0  0  0  0  0  0  0  0
    9.9289  -17.3063   28.0872 O   0  0  0  0  0  0  0  0  0  0  0  0
  2  1  1  0
  2  3  2  0
  4  2  1  0
  5  4  1  0
  5  6  1  0
  6  7  1  1
  8  6  1  0
  8 10  1  0
  9  8  2  0
 11 10  1  0
 12 13  1  0
 11 12  1  1
 13 18  2  0
 14 13  1  0
 14 15  2  0
 15 16  1  0
 16 17  2  0
 18 17  1  0
 19 21  1  0
 19 11  1  0
 20 19  2  0
 22 21  1  0
 22 26  1  0
 22 23  1  1
 24 25  2  0
 24 23  1  0
 26 27  2  0
 26 29  1  0
 28 24  1  0
M  END
$$$$
