QFD.pdb
     RDKit          3D

 29 29  0  0  1  0  0  0  0  0999 V2000
    8.7589  -12.9998   16.7519 N   0  0  0  0  0  0  0  0  0  0  0  0
    8.3626  -14.3492   16.7059 C   0  0  0  0  0  0  0  0  0  0  0  0
    8.0311  -14.8606   15.6186 O   0  0  0  0  0  0  0  0  0  0  0  0
    8.3356  -15.1657   17.9316 C   0  0  0  0  0  0  0  0  0  0  0  0
    9.5830  -14.9675   18.7734 C   0  0  0  0  0  0  0  0  0  0  0  0
    9.5069  -15.9437   19.9361 C   0  0  2  0  0  0  0  0  0  0  0  0
    8.1964  -16.5899   19.7972 N   0  0  0  0  0  0  0  0  0  0  0  0
    9.5102  -15.2361   21.2365 C   0  0  0  0  0  0  0  0  0  0  0  0
   10.4803  -14.5077   21.5477 O   0  0  0  0  0  0  0  0  0  0  0  0
    8.4564  -15.3269   22.1900 N   0  0  0  0  0  0  0  0  0  0  0  0
    8.4781  -14.6424   23.4543 C   0  0  1  0  0  0  0  0  0  0  0  0
    7.0788  -14.1317   23.7588 C   0  0  0  0  0  0  0  0  0  0  0  0
    7.0426  -13.3006   24.9830 C   0  0  0  0  0  0  0  0  0  0  0  0
    6.3493  -13.6353   26.1216 C   0  0  0  0  0  0  0  0  0  0  0  0
    6.3313  -12.8501   27.2492 C   0  0  0  0  0  0  0  0  0  0  0  0
    7.0221  -11.6667   27.2902 C   0  0  0  0  0  0  0  0  0  0  0  0
    7.7328  -11.3001   26.1552 C   0  0  0  0  0  0  0  0  0  0  0  0
    7.7405  -12.1001   25.0312 C   0  0  0  0  0  0  0  0  0  0  0  0
    8.9127  -15.4717   24.5904 C   0  0  0  0  0  0  0  0  0  0  0  0
    9.1987  -14.9226   25.6764 O   0  0  0  0  0  0  0  0  0  0  0  0
    9.0135  -16.8763   24.4885 N   0  0  0  0  0  0  0  0  0  0  0  0
   10.0781  -17.6303   25.2056 C   0  0  1  0  0  0  0  0  0  0  0  0
   11.4179  -17.0855   24.7483 C   0  0  0  0  0  0  0  0  0  0  0  0
   12.4277  -18.1162   24.6187 C   0  0  0  0  0  0  0  0  0  0  0  0
   13.5983  -17.8466   24.2589 O   0  0  0  0  0  0  0  0  0  0  0  0
    9.8478  -17.3328   26.6279 C   0  0  0  0  0  0  0  0  0  0  0  0
   10.5314  -17.8787   27.5144 O   0  0  0  0  0  0  0  0  0  0  0  0
   12.1881  -19.4725   24.8786 O   0  0  0  0  0  0  0  0  0  0  0  0
    8.8745  -16.4420   27.0581 O   0  0  0  0  0  0  0  0  0  0  0  0
  2  1  1  0
  2  3  2  0
  4  2  1  0
  5  4  1  0
  5  6  1  0
  6  7  1  6
  8  6  1  0
  8 10  1  0
  9  8  2  0
 11 10  1  0
 12 13  1  0
 11 12  1  1
 13 18  2  0
 14 13  1  0
 14 15  2  0
 15 16  1  0
 16 17  2  0
 18 17  1  0
 19 21  1  0
 19 11  1  0
 20 19  2  0
 22 21  1  0
 22 26  1  0
 22 23  1  6
 24 25  2  0
 24 23  1  0
 26 27  2  0
 26 29  1  0
 28 24  1  0
M  END
$$$$
