QFD.pdb
     RDKit          3D

 29 29  0  0  1  0  0  0  0  0999 V2000
    8.7444  -12.2195   18.3518 N   0  0  0  0  0  0  0  0  0  0  0  0
    7.9293  -13.2901   17.9396 C   0  0  0  0  0  0  0  0  0  0  0  0
    7.7300  -13.4846   16.7247 O   0  0  0  0  0  0  0  0  0  0  0  0
    7.3081  -14.1852   18.9308 C   0  0  0  0  0  0  0  0  0  0  0  0
    7.7368  -13.8483   20.3474 C   0  0  0  0  0  0  0  0  0  0  0  0
    8.4720  -15.0585   20.9001 C   0  0  2  0  0  0  0  0  0  0  0  0
    7.4576  -16.1176   20.9603 N   0  0  0  0  0  0  0  0  0  0  0  0
    8.9391  -14.8209   22.2847 C   0  0  0  0  0  0  0  0  0  0  0  0
    9.8492  -13.9883   22.5015 O   0  0  0  0  0  0  0  0  0  0  0  0
    8.4118  -15.4922   23.4244 N   0  0  0  0  0  0  0  0  0  0  0  0
    8.9103  -15.2893   24.7578 C   0  0  1  0  0  0  0  0  0  0  0  0
    7.7302  -15.1696   25.7089 C   0  0  0  0  0  0  0  0  0  0  0  0
    7.2991  -13.7652   25.8886 C   0  0  0  0  0  0  0  0  0  0  0  0
    8.1561  -12.6907   25.8950 C   0  0  0  0  0  0  0  0  0  0  0  0
    7.7343  -11.3933   26.0606 C   0  0  0  0  0  0  0  0  0  0  0  0
    6.4050  -11.1050   26.2314 C   0  0  0  0  0  0  0  0  0  0  0  0
    5.5133  -12.1692   26.2299 C   0  0  0  0  0  0  0  0  0  0  0  0
    5.9533  -13.4659   26.0622 C   0  0  0  0  0  0  0  0  0  0  0  0
    9.7823  -16.3665   25.2543 C   0  0  0  0  0  0  0  0  0  0  0  0
    9.8300  -16.6003   26.4814 O   0  0  0  0  0  0  0  0  0  0  0  0
   10.5680  -17.1482   24.3797 N   0  0  0  0  0  0  0  0  0  0  0  0
   11.4553  -18.2282   24.8919 C   0  0  1  0  0  0  0  0  0  0  0  0
   11.1851  -19.4756   24.0722 C   0  0  0  0  0  0  0  0  0  0  0  0
    9.9406  -20.1243   24.4318 C   0  0  0  0  0  0  0  0  0  0  0  0
    9.2237  -19.6959   25.3673 O   0  0  0  0  0  0  0  0  0  0  0  0
   12.8190  -17.7294   24.6556 C   0  0  0  0  0  0  0  0  0  0  0  0
   13.8101  -18.3469   25.0891 O   0  0  0  0  0  0  0  0  0  0  0  0
    9.4425  -21.2605   23.7796 O   0  0  0  0  0  0  0  0  0  0  0  0
   13.0776  -16.5641   23.9476 O   0  0  0  0  0  0  0  0  0  0  0  0
  2  1  1  0
  2  3  2  0
  4  2  1  0
  5  4  1  0
  5  6  1  0
  6  7  1  1
  8  6  1  0
  8 10  1  0
  9  8  2  0
 11 10  1  0
 12 13  1  0
 11 12  1  1
 13 18  2  0
 14 13  1  0
 14 15  2  0
 15 16  1  0
 16 17  2  0
 18 17  1  0
 19 21  1  0
 19 11  1  0
 20 19  2  0
 22 21  1  0
 22 26  1  0
 22 23  1  6
 24 25  2  0
 24 23  1  0
 26 27  2  0
 26 29  1  0
 28 24  1  0
M  END
$$$$
