QFD.pdb
     RDKit          3D

 29 29  0  0  1  0  0  0  0  0999 V2000
    6.4869  -15.2174   16.2165 N   0  0  0  0  0  0  0  0  0  0  0  0
    7.8687  -15.1447   16.4723 C   0  0  0  0  0  0  0  0  0  0  0  0
    8.6577  -15.8549   15.8191 O   0  0  0  0  0  0  0  0  0  0  0  0
    8.3938  -14.2360   17.5059 C   0  0  0  0  0  0  0  0  0  0  0  0
    8.4851  -14.9113   18.8622 C   0  0  0  0  0  0  0  0  0  0  0  0
    7.7635  -14.0225   19.8623 C   0  0  2  0  0  0  0  0  0  0  0  0
    8.0426  -12.6526   19.4152 N   0  0  0  0  0  0  0  0  0  0  0  0
    8.3342  -14.1641   21.2210 C   0  0  0  0  0  0  0  0  0  0  0  0
    9.4582  -13.6758   21.4792 O   0  0  0  0  0  0  0  0  0  0  0  0
    7.6767  -14.8371   22.2898 N   0  0  0  0  0  0  0  0  0  0  0  0
    8.2706  -15.0242   23.5858 C   0  0  1  0  0  0  0  0  0  0  0  0
    7.1691  -15.0249   24.6339 C   0  0  0  0  0  0  0  0  0  0  0  0
    7.1017  -13.7443   25.3728 C   0  0  0  0  0  0  0  0  0  0  0  0
    6.0188  -12.8981   25.3514 C   0  0  0  0  0  0  0  0  0  0  0  0
    5.9758  -11.7142   26.0477 C   0  0  0  0  0  0  0  0  0  0  0  0
    7.0387  -11.3134   26.8151 C   0  0  0  0  0  0  0  0  0  0  0  0
    8.1484  -12.1466   26.8576 C   0  0  0  0  0  0  0  0  0  0  0  0
    8.1755  -13.3321   26.1525 C   0  0  0  0  0  0  0  0  0  0  0  0
    9.0342  -16.2742   23.7331 C   0  0  0  0  0  0  0  0  0  0  0  0
    8.5035  -17.3586   23.4091 O   0  0  0  0  0  0  0  0  0  0  0  0
   10.3558  -16.2826   24.2297 N   0  0  0  0  0  0  0  0  0  0  0  0
   11.1165  -17.5527   24.3855 C   0  0  1  0  0  0  0  0  0  0  0  0
   12.5945  -17.2141   24.3421 C   0  0  0  0  0  0  0  0  0  0  0  0
   13.4415  -18.3769   24.5138 C   0  0  0  0  0  0  0  0  0  0  0  0
   12.9879  -19.5409   24.4055 O   0  0  0  0  0  0  0  0  0  0  0  0
   10.7311  -18.0539   25.7139 C   0  0  0  0  0  0  0  0  0  0  0  0
   10.7694  -19.2714   25.9741 O   0  0  0  0  0  0  0  0  0  0  0  0
   14.8095  -18.3020   24.8090 O   0  0  0  0  0  0  0  0  0  0  0  0
   10.3113  -17.2158   26.7372 O   0  0  0  0  0  0  0  0  0  0  0  0
  2  1  1  0
  2  3  2  0
  4  2  1  0
  5  4  1  0
  5  6  1  0
  6  7  1  6
  8  6  1  0
  8 10  1  0
  9  8  2  0
 11 10  1  0
 12 13  1  0
 11 12  1  1
 13 18  2  0
 14 13  1  0
 14 15  2  0
 15 16  1  0
 16 17  2  0
 18 17  1  0
 19 21  1  0
 19 11  1  0
 20 19  2  0
 22 21  1  0
 22 26  1  0
 22 23  1  1
 24 25  2  0
 24 23  1  0
 26 27  2  0
 26 29  1  0
 28 24  1  0
M  END
$$$$
