YFR.pdb
     RDKit          3D

 35 36  0  0  1  0  0  0  0  0999 V2000
   16.1989  -24.2902  -13.4024 O   0  0  0  0  0  0  0  0  0  0  0  0
   17.4529  -23.6853  -13.4712 C   0  0  0  0  0  0  0  0  0  0  0  0
   17.7127  -22.5909  -14.2873 C   0  0  0  0  0  0  0  0  0  0  0  0
   18.9346  -21.9881  -14.3607 C   0  0  0  0  0  0  0  0  0  0  0  0
   19.9943  -22.4525  -13.6059 C   0  0  0  0  0  0  0  0  0  0  0  0
   21.3187  -21.7637  -13.6850 C   0  0  0  0  0  0  0  0  0  0  0  0
   21.3983  -20.6971  -12.5813 C   0  0  2  0  0  0  0  0  0  0  0  0
   20.7211  -19.4888  -13.0260 N   0  0  0  0  0  0  0  0  0  0  0  0
   22.8196  -20.3817  -12.2967 C   0  0  0  0  0  0  0  0  0  0  0  0
   23.4404  -19.4772  -12.9444 O   0  0  0  0  0  0  0  0  0  0  0  0
   19.7832  -23.5345  -12.7831 C   0  0  0  0  0  0  0  0  0  0  0  0
   18.5345  -24.1288  -12.7266 C   0  0  0  0  0  0  0  0  0  0  0  0
   23.5625  -21.0733  -11.2820 N   0  0  0  0  0  0  0  0  0  0  0  0
   24.9580  -20.7112  -10.9745 C   0  0  1  0  0  0  0  0  0  0  0  0
   25.3529  -21.3373   -9.6500 C   0  0  0  0  0  0  0  0  0  0  0  0
   26.6471  -20.8274   -9.1722 C   0  0  0  0  0  0  0  0  0  0  0  0
   27.8779  -21.3013   -9.6344 C   0  0  0  0  0  0  0  0  0  0  0  0
   29.0799  -20.8005   -9.1927 C   0  0  0  0  0  0  0  0  0  0  0  0
   29.1093  -19.7979   -8.2638 C   0  0  0  0  0  0  0  0  0  0  0  0
   27.9176  -19.3023   -7.7807 C   0  0  0  0  0  0  0  0  0  0  0  0
   26.7080  -19.8231   -8.2421 C   0  0  0  0  0  0  0  0  0  0  0  0
   25.7767  -21.0789  -12.1115 C   0  0  0  0  0  0  0  0  0  0  0  0
   25.7920  -22.3207  -12.4364 O   0  0  0  0  0  0  0  0  0  0  0  0
   29.7755  -20.0136  -18.7301 N   0  0  0  0  0  0  0  0  0  0  0  0
   28.8213  -21.0248  -19.0059 C   0  0  0  0  0  0  0  0  0  0  0  0
   29.0849  -22.0421  -19.7073 N   0  0  0  0  0  0  0  0  0  0  0  0
   27.5200  -20.8462  -18.4522 N   0  0  0  0  0  0  0  0  0  0  0  0
   27.2012  -19.7516  -17.5607 C   0  0  0  0  0  0  0  0  0  0  0  0
   28.0457  -19.8443  -16.3335 C   0  0  0  0  0  0  0  0  0  0  0  0
   27.3839  -19.6113  -15.0470 C   0  0  0  0  0  0  0  0  0  0  0  0
   27.3884  -20.7025  -14.0201 C   0  0  2  0  0  0  0  0  0  0  0  0
   26.5510  -20.2397  -12.9036 N   0  0  0  0  0  0  0  0  0  0  0  0
   28.6578  -21.2196  -13.5762 C   0  0  0  0  0  0  0  0  0  0  0  0
   29.3234  -22.0737  -14.2271 O   0  0  0  0  0  0  0  0  0  0  0  0
   29.3058  -20.8358  -12.3740 O   0  0  0  0  0  0  0  0  0  0  0  0
  2 12  2  0
  2  1  1  0
  3  2  1  0
  4  5  1  0
  4  3  2  0
  5 11  2  0
  6  5  1  0
  7  6  1  0
  7  8  1  6
  9  7  1  0
  9 10  2  0
 11 12  1  0
 13  9  1  0
 14 13  1  0
 14 22  1  0
 14 15  1  1
 16 17  2  0
 16 15  1  0
 18 17  1  0
 19 18  2  0
 20 19  1  0
 20 21  2  0
 21 16  1  0
 22 32  1  0
 22 23  2  0
 25 24  1  0
 25 27  1  0
 26 25  2  0
 27 28  1  0
 29 28  1  0
 29 30  1  0
 31 30  1  6
 31 33  1  0
 32 31  1  0
 33 35  1  0
 34 33  2  0
M  END
$$$$
