YFR.pdb
     RDKit          3D

 35 36  0  0  1  0  0  0  0  0999 V2000
   28.4418  -17.0493  -18.4960 O   0  0  0  0  0  0  0  0  0  0  0  0
   28.0948  -17.7170  -17.3225 C   0  0  0  0  0  0  0  0  0  0  0  0
   28.3786  -17.2097  -16.0602 C   0  0  0  0  0  0  0  0  0  0  0  0
   28.0409  -17.8519  -14.9047 C   0  0  0  0  0  0  0  0  0  0  0  0
   27.3843  -19.0667  -14.9414 C   0  0  0  0  0  0  0  0  0  0  0  0
   27.0043  -19.7428  -13.6634 C   0  0  0  0  0  0  0  0  0  0  0  0
   28.2314  -20.4737  -13.0961 C   0  0  2  0  0  0  0  0  0  0  0  0
   28.5052  -21.6554  -13.8993 N   0  0  0  0  0  0  0  0  0  0  0  0
   27.9606  -20.8879  -11.6976 C   0  0  0  0  0  0  0  0  0  0  0  0
   27.2022  -21.8772  -11.4344 O   0  0  0  0  0  0  0  0  0  0  0  0
   27.0828  -19.6074  -16.1698 C   0  0  0  0  0  0  0  0  0  0  0  0
   27.4362  -18.9365  -17.3277 C   0  0  0  0  0  0  0  0  0  0  0  0
   28.5372  -20.2013  -10.5770 N   0  0  0  0  0  0  0  0  0  0  0  0
   28.1129  -20.4980   -9.1968 C   0  0  1  0  0  0  0  0  0  0  0  0
   29.0572  -19.8103   -8.2285 C   0  0  0  0  0  0  0  0  0  0  0  0
   28.5827  -19.9144   -6.8402 C   0  0  0  0  0  0  0  0  0  0  0  0
   28.7641  -21.0522   -6.0493 C   0  0  0  0  0  0  0  0  0  0  0  0
   28.3324  -21.1272   -4.7459 C   0  0  0  0  0  0  0  0  0  0  0  0
   27.6957  -20.0640   -4.1685 C   0  0  0  0  0  0  0  0  0  0  0  0
   27.4954  -18.9225   -4.9140 C   0  0  0  0  0  0  0  0  0  0  0  0
   27.9417  -18.8656   -6.2349 C   0  0  0  0  0  0  0  0  0  0  0  0
   26.7149  -20.1395   -9.0717 C   0  0  0  0  0  0  0  0  0  0  0  0
   26.4176  -18.9018   -9.2372 O   0  0  0  0  0  0  0  0  0  0  0  0
   24.7025  -22.6725  -14.2355 N   0  0  0  0  0  0  0  0  0  0  0  0
   23.9887  -23.2963  -13.1817 C   0  0  0  0  0  0  0  0  0  0  0  0
   24.0038  -24.5450  -12.9896 N   0  0  0  0  0  0  0  0  0  0  0  0
   23.2317  -22.4428  -12.3271 N   0  0  0  0  0  0  0  0  0  0  0  0
   23.2946  -20.9999  -12.4207 C   0  0  0  0  0  0  0  0  0  0  0  0
   23.9635  -20.4490  -11.2053 C   0  0  0  0  0  0  0  0  0  0  0  0
   23.5375  -20.9813   -9.9082 C   0  0  0  0  0  0  0  0  0  0  0  0
   24.2522  -20.5335   -8.6696 C   0  0  2  0  0  0  0  0  0  0  0  0
   25.6461  -20.9840   -8.7963 N   0  0  0  0  0  0  0  0  0  0  0  0
   23.6811  -20.8696   -7.3903 C   0  0  0  0  0  0  0  0  0  0  0  0
   24.1300  -21.7916   -6.6524 O   0  0  0  0  0  0  0  0  0  0  0  0
   22.5642  -20.2137   -6.8116 O   0  0  0  0  0  0  0  0  0  0  0  0
  2 12  2  0
  2  1  1  0
  3  2  1  0
  4  5  1  0
  4  3  2  0
  5 11  2  0
  6  5  1  0
  7  6  1  0
  7  8  1  6
  9  7  1  0
  9 10  2  0
 11 12  1  0
 13  9  1  0
 14 13  1  0
 14 22  1  0
 14 15  1  1
 16 17  2  0
 16 15  1  0
 18 17  1  0
 19 18  2  0
 20 19  1  0
 20 21  2  0
 21 16  1  0
 22 32  1  0
 22 23  2  0
 25 24  1  0
 25 27  1  0
 26 25  2  0
 27 28  1  0
 29 28  1  0
 29 30  1  0
 31 30  1  6
 31 33  1  0
 32 31  1  0
 33 35  1  0
 34 33  2  0
M  END
$$$$
