YFR.pdb
     RDKit          3D

 35 36  0  0  1  0  0  0  0  0999 V2000
   30.6748  -16.5907  -19.9095 O   0  0  0  0  0  0  0  0  0  0  0  0
   29.7140  -17.2381  -19.1343 C   0  0  0  0  0  0  0  0  0  0  0  0
   28.6506  -17.9389  -19.6906 C   0  0  0  0  0  0  0  0  0  0  0  0
   27.7063  -18.5795  -18.9426 C   0  0  0  0  0  0  0  0  0  0  0  0
   27.7688  -18.5584  -17.5628 C   0  0  0  0  0  0  0  0  0  0  0  0
   26.7360  -19.2853  -16.7628 C   0  0  0  0  0  0  0  0  0  0  0  0
   27.3333  -20.6052  -16.2500 C   0  0  2  0  0  0  0  0  0  0  0  0
   27.2294  -21.6193  -17.2880 N   0  0  0  0  0  0  0  0  0  0  0  0
   26.5848  -21.0570  -15.0516 C   0  0  0  0  0  0  0  0  0  0  0  0
   25.5348  -21.7708  -15.1560 O   0  0  0  0  0  0  0  0  0  0  0  0
   28.8049  -17.8765  -16.9680 C   0  0  0  0  0  0  0  0  0  0  0  0
   29.7503  -17.2344  -17.7487 C   0  0  0  0  0  0  0  0  0  0  0  0
   27.0037  -20.7170  -13.7217 N   0  0  0  0  0  0  0  0  0  0  0  0
   26.2020  -21.0998  -12.5454 C   0  0  1  0  0  0  0  0  0  0  0  0
   27.0305  -20.8931  -11.2912 C   0  0  0  0  0  0  0  0  0  0  0  0
   26.1911  -20.8638  -10.0839 C   0  0  0  0  0  0  0  0  0  0  0  0
   25.6761  -22.0129   -9.4779 C   0  0  0  0  0  0  0  0  0  0  0  0
   24.9090  -21.9709   -8.3374 C   0  0  0  0  0  0  0  0  0  0  0  0
   24.6186  -20.7731   -7.7459 C   0  0  0  0  0  0  0  0  0  0  0  0
   25.1060  -19.6151   -8.3119 C   0  0  0  0  0  0  0  0  0  0  0  0
   25.8834  -19.6786   -9.4690 C   0  0  0  0  0  0  0  0  0  0  0  0
   24.9518  -20.3700  -12.5992 C   0  0  0  0  0  0  0  0  0  0  0  0
   25.0146  -19.1403  -12.9619 O   0  0  0  0  0  0  0  0  0  0  0  0
   19.0139  -23.2478  -14.5230 N   0  0  0  0  0  0  0  0  0  0  0  0
   19.6456  -23.0159  -15.7705 C   0  0  0  0  0  0  0  0  0  0  0  0
   19.7974  -23.9201  -16.6397 N   0  0  0  0  0  0  0  0  0  0  0  0
   20.1181  -21.6932  -16.0136 N   0  0  0  0  0  0  0  0  0  0  0  0
   20.3762  -20.7540  -14.9431 C   0  0  0  0  0  0  0  0  0  0  0  0
   21.8489  -20.5696  -14.7843 C   0  0  0  0  0  0  0  0  0  0  0  0
   22.2970  -19.5922  -13.7888 C   0  0  0  0  0  0  0  0  0  0  0  0
   22.4597  -20.0291  -12.3646 C   0  0  2  0  0  0  0  0  0  0  0  0
   23.6798  -20.8476  -12.3074 N   0  0  0  0  0  0  0  0  0  0  0  0
   21.3429  -20.6625  -11.7111 C   0  0  0  0  0  0  0  0  0  0  0  0
   21.3169  -21.8918  -11.4206 O   0  0  0  0  0  0  0  0  0  0  0  0
   20.1561  -19.9921  -11.3177 O   0  0  0  0  0  0  0  0  0  0  0  0
  2 12  2  0
  2  1  1  0
  3  2  1  0
  4  5  1  0
  4  3  2  0
  5 11  2  0
  6  5  1  0
  7  6  1  0
  7  8  1  6
  9  7  1  0
  9 10  2  0
 11 12  1  0
 13  9  1  0
 14 13  1  0
 14 22  1  0
 14 15  1  1
 16 17  2  0
 16 15  1  0
 18 17  1  0
 19 18  2  0
 20 19  1  0
 20 21  2  0
 21 16  1  0
 22 32  1  0
 22 23  2  0
 25 24  1  0
 25 27  1  0
 26 25  2  0
 27 28  1  0
 29 28  1  0
 29 30  1  0
 31 30  1  6
 31 33  1  0
 32 31  1  0
 33 35  1  0
 34 33  2  0
M  END
$$$$
