YFR.pdb
     RDKit          3D

 35 36  0  0  1  0  0  0  0  0999 V2000
   22.2315  -18.3640  -17.4687 O   0  0  0  0  0  0  0  0  0  0  0  0
   22.5872  -18.8896  -16.2276 C   0  0  0  0  0  0  0  0  0  0  0  0
   22.4287  -20.2333  -15.9100 C   0  0  0  0  0  0  0  0  0  0  0  0
   22.7764  -20.7601  -14.7004 C   0  0  0  0  0  0  0  0  0  0  0  0
   23.3157  -19.9585  -13.7130 C   0  0  0  0  0  0  0  0  0  0  0  0
   23.7099  -20.5605  -12.4026 C   0  0  0  0  0  0  0  0  0  0  0  0
   25.2428  -20.6423  -12.3268 C   0  0  2  0  0  0  0  0  0  0  0  0
   25.7194  -21.6612  -13.2493 N   0  0  0  0  0  0  0  0  0  0  0  0
   25.6536  -21.0036  -10.9480 C   0  0  0  0  0  0  0  0  0  0  0  0
   25.4615  -22.1746  -10.4845 O   0  0  0  0  0  0  0  0  0  0  0  0
   23.4908  -18.6211  -13.9831 C   0  0  0  0  0  0  0  0  0  0  0  0
   23.1300  -18.1106  -15.2179 C   0  0  0  0  0  0  0  0  0  0  0  0
   26.2864  -20.0592  -10.0720 N   0  0  0  0  0  0  0  0  0  0  0  0
   26.6074  -20.4063   -8.6758 C   0  0  1  0  0  0  0  0  0  0  0  0
   27.6721  -19.4562   -8.1602 C   0  0  0  0  0  0  0  0  0  0  0  0
   28.0052  -19.7251   -6.7531 C   0  0  0  0  0  0  0  0  0  0  0  0
   27.6051  -18.9010   -5.6976 C   0  0  0  0  0  0  0  0  0  0  0  0
   27.9074  -19.1764   -4.3848 C   0  0  0  0  0  0  0  0  0  0  0  0
   28.6271  -20.2932   -4.0628 C   0  0  0  0  0  0  0  0  0  0  0  0
   29.0424  -21.1325   -5.0738 C   0  0  0  0  0  0  0  0  0  0  0  0
   28.7250  -20.8362   -6.4000 C   0  0  0  0  0  0  0  0  0  0  0  0
   25.3692  -20.4290   -7.9243 C   0  0  0  0  0  0  0  0  0  0  0  0
   24.5881  -19.4200   -8.0649 O   0  0  0  0  0  0  0  0  0  0  0  0
   18.3076  -24.8382   -5.2086 N   0  0  0  0  0  0  0  0  0  0  0  0
   18.5365  -24.5889   -6.5850 C   0  0  0  0  0  0  0  0  0  0  0  0
   17.6696  -24.8163   -7.4755 N   0  0  0  0  0  0  0  0  0  0  0  0
   19.8133  -24.0622   -6.9373 N   0  0  0  0  0  0  0  0  0  0  0  0
   20.8563  -23.8400   -5.9587 C   0  0  0  0  0  0  0  0  0  0  0  0
   21.4248  -22.4714   -6.1363 C   0  0  0  0  0  0  0  0  0  0  0  0
   22.7564  -22.3734   -6.7400 C   0  0  0  0  0  0  0  0  0  0  0  0
   23.7001  -21.3179   -6.2492 C   0  0  2  0  0  0  0  0  0  0  0  0
   24.9187  -21.4240   -7.0651 N   0  0  0  0  0  0  0  0  0  0  0  0
   23.9876  -21.2589   -4.8387 C   0  0  0  0  0  0  0  0  0  0  0  0
   23.3579  -20.5155   -4.0343 O   0  0  0  0  0  0  0  0  0  0  0  0
   24.9954  -22.0191   -4.1914 O   0  0  0  0  0  0  0  0  0  0  0  0
  2 12  2  0
  2  1  1  0
  3  2  1  0
  4  5  1  0
  4  3  2  0
  5 11  2  0
  6  5  1  0
  7  6  1  0
  7  8  1  6
  9  7  1  0
  9 10  2  0
 11 12  1  0
 13  9  1  0
 14 13  1  0
 14 22  1  0
 14 15  1  1
 16 17  2  0
 16 15  1  0
 18 17  1  0
 19 18  2  0
 20 19  1  0
 20 21  2  0
 21 16  1  0
 22 32  1  0
 22 23  2  0
 25 24  1  0
 25 27  1  0
 26 25  2  0
 27 28  1  0
 29 28  1  0
 29 30  1  0
 31 30  1  1
 31 33  1  0
 32 31  1  0
 33 35  1  0
 34 33  2  0
M  END
$$$$
