YFR.pdb
     RDKit          3D

 35 36  0  0  1  0  0  0  0  0999 V2000
   23.0648  -18.2072  -17.8446 O   0  0  0  0  0  0  0  0  0  0  0  0
   23.2741  -18.7226  -16.5664 C   0  0  0  0  0  0  0  0  0  0  0  0
   23.0584  -20.0593  -16.2532 C   0  0  0  0  0  0  0  0  0  0  0  0
   23.2632  -20.5762  -15.0072 C   0  0  0  0  0  0  0  0  0  0  0  0
   23.7061  -19.7710  -13.9759 C   0  0  0  0  0  0  0  0  0  0  0  0
   23.9448  -20.3624  -12.6238 C   0  0  0  0  0  0  0  0  0  0  0  0
   25.4512  -20.6050  -12.4392 C   0  0  2  0  0  0  0  0  0  0  0  0
   25.8727  -21.7048  -13.2933 N   0  0  0  0  0  0  0  0  0  0  0  0
   25.7286  -20.9538  -11.0243 C   0  0  0  0  0  0  0  0  0  0  0  0
   25.4561  -22.1087  -10.5606 O   0  0  0  0  0  0  0  0  0  0  0  0
   23.9331  -18.4402  -14.2399 C   0  0  0  0  0  0  0  0  0  0  0  0
   23.7177  -17.9397  -15.5122 C   0  0  0  0  0  0  0  0  0  0  0  0
   26.3165  -20.0149  -10.1119 N   0  0  0  0  0  0  0  0  0  0  0  0
   26.5793  -20.3751   -8.7068 C   0  0  1  0  0  0  0  0  0  0  0  0
   27.6063  -19.4171   -8.1325 C   0  0  0  0  0  0  0  0  0  0  0  0
   27.8198  -19.6466   -6.6956 C   0  0  0  0  0  0  0  0  0  0  0  0
   28.4577  -20.7803   -6.1848 C   0  0  0  0  0  0  0  0  0  0  0  0
   28.6678  -20.9714   -4.8394 C   0  0  0  0  0  0  0  0  0  0  0  0
   28.2485  -20.0344   -3.9364 C   0  0  0  0  0  0  0  0  0  0  0  0
   27.6138  -18.9017   -4.3979 C   0  0  0  0  0  0  0  0  0  0  0  0
   27.4106  -18.7257   -5.7672 C   0  0  0  0  0  0  0  0  0  0  0  0
   25.3091  -20.4241   -8.0123 C   0  0  0  0  0  0  0  0  0  0  0  0
   24.4796  -19.4750   -8.2551 O   0  0  0  0  0  0  0  0  0  0  0  0
   18.0473  -24.9188   -6.4005 N   0  0  0  0  0  0  0  0  0  0  0  0
   18.1463  -23.8935   -7.3742 C   0  0  0  0  0  0  0  0  0  0  0  0
   17.1682  -23.5278   -8.0854 N   0  0  0  0  0  0  0  0  0  0  0  0
   19.4221  -23.2766   -7.5279 N   0  0  0  0  0  0  0  0  0  0  0  0
   20.6118  -23.7859   -6.8798 C   0  0  0  0  0  0  0  0  0  0  0  0
   21.4132  -22.6479   -6.3408 C   0  0  0  0  0  0  0  0  0  0  0  0
   22.7302  -22.4146   -6.9396 C   0  0  0  0  0  0  0  0  0  0  0  0
   23.5950  -21.3222   -6.3882 C   0  0  2  0  0  0  0  0  0  0  0  0
   24.8746  -21.3873   -7.1097 N   0  0  0  0  0  0  0  0  0  0  0  0
   23.7735  -21.2449   -4.9607 C   0  0  0  0  0  0  0  0  0  0  0  0
   24.7584  -21.7568   -4.3573 O   0  0  0  0  0  0  0  0  0  0  0  0
   22.8799  -20.5918   -4.0733 O   0  0  0  0  0  0  0  0  0  0  0  0
  2 12  2  0
  2  1  1  0
  3  2  1  0
  4  5  1  0
  4  3  2  0
  5 11  2  0
  6  5  1  0
  7  6  1  0
  7  8  1  6
  9  7  1  0
  9 10  2  0
 11 12  1  0
 13  9  1  0
 14 13  1  0
 14 22  1  0
 14 15  1  1
 16 17  2  0
 16 15  1  0
 18 17  1  0
 19 18  2  0
 20 19  1  0
 20 21  2  0
 21 16  1  0
 22 32  1  0
 22 23  2  0
 25 24  1  0
 25 27  1  0
 26 25  2  0
 27 28  1  0
 29 28  1  0
 29 30  1  0
 31 30  1  1
 31 33  1  0
 32 31  1  0
 33 35  1  0
 34 33  2  0
M  END
$$$$
