YFR.pdb
     RDKit          3D

 35 36  0  0  1  0  0  0  0  0999 V2000
   26.8200  -15.1358  -21.4397 O   0  0  0  0  0  0  0  0  0  0  0  0
   26.6672  -15.9623  -20.3277 C   0  0  0  0  0  0  0  0  0  0  0  0
   25.7393  -16.9960  -20.2846 C   0  0  0  0  0  0  0  0  0  0  0  0
   25.5828  -17.8137  -19.2037 C   0  0  0  0  0  0  0  0  0  0  0  0
   26.3615  -17.6445  -18.0753 C   0  0  0  0  0  0  0  0  0  0  0  0
   26.1887  -18.5655  -16.9105 C   0  0  0  0  0  0  0  0  0  0  0  0
   27.4589  -19.4154  -16.7477 C   0  0  2  0  0  0  0  0  0  0  0  0
   27.4973  -20.4326  -17.7871 N   0  0  0  0  0  0  0  0  0  0  0  0
   27.4476  -20.0765  -15.4199 C   0  0  0  0  0  0  0  0  0  0  0  0
   26.9866  -21.2547  -15.2699 O   0  0  0  0  0  0  0  0  0  0  0  0
   27.2939  -16.6331  -18.0729 C   0  0  0  0  0  0  0  0  0  0  0  0
   27.4333  -15.8167  -19.1818 C   0  0  0  0  0  0  0  0  0  0  0  0
   27.9541  -19.4279  -14.2441 N   0  0  0  0  0  0  0  0  0  0  0  0
   27.9346  -20.0985  -12.9315 C   0  0  1  0  0  0  0  0  0  0  0  0
   28.9385  -19.4246  -12.0148 C   0  0  0  0  0  0  0  0  0  0  0  0
   28.8220  -19.9096  -10.6312 C   0  0  0  0  0  0  0  0  0  0  0  0
   29.4251  -21.0851  -10.1755 C   0  0  0  0  0  0  0  0  0  0  0  0
   29.3236  -21.5153   -8.8734 C   0  0  0  0  0  0  0  0  0  0  0  0
   28.6114  -20.7880   -7.9607 C   0  0  0  0  0  0  0  0  0  0  0  0
   27.9998  -19.6226   -8.3689 C   0  0  0  0  0  0  0  0  0  0  0  0
   28.1151  -19.2023   -9.6945 C   0  0  0  0  0  0  0  0  0  0  0  0
   26.5656  -20.1161  -12.4584 C   0  0  0  0  0  0  0  0  0  0  0  0
   25.9103  -19.0154  -12.5412 O   0  0  0  0  0  0  0  0  0  0  0  0
   19.7636  -21.5899  -14.6012 N   0  0  0  0  0  0  0  0  0  0  0  0
   19.1885  -21.3457  -13.3290 C   0  0  0  0  0  0  0  0  0  0  0  0
   17.9428  -21.3846  -13.1218 N   0  0  0  0  0  0  0  0  0  0  0  0
   20.0888  -21.0441  -12.2658 N   0  0  0  0  0  0  0  0  0  0  0  0
   21.5117  -20.8850  -12.4775 C   0  0  0  0  0  0  0  0  0  0  0  0
   22.2265  -22.1085  -12.0083 C   0  0  0  0  0  0  0  0  0  0  0  0
   23.6853  -22.1251  -12.1467 C   0  0  0  0  0  0  0  0  0  0  0  0
   24.4967  -21.1090  -11.4021 C   0  0  2  0  0  0  0  0  0  0  0  0
   25.8683  -21.1935  -11.9251 N   0  0  0  0  0  0  0  0  0  0  0  0
   24.4569  -21.1229   -9.9620 C   0  0  0  0  0  0  0  0  0  0  0  0
   25.2026  -21.8588   -9.2558 O   0  0  0  0  0  0  0  0  0  0  0  0
   23.5907  -20.3219   -9.1742 O   0  0  0  0  0  0  0  0  0  0  0  0
  2 12  2  0
  2  1  1  0
  3  2  1  0
  4  5  1  0
  4  3  2  0
  5 11  2  0
  6  5  1  0
  7  6  1  0
  7  8  1  6
  9  7  1  0
  9 10  2  0
 11 12  1  0
 13  9  1  0
 14 13  1  0
 14 22  1  0
 14 15  1  1
 16 17  2  0
 16 15  1  0
 18 17  1  0
 19 18  2  0
 20 19  1  0
 20 21  2  0
 21 16  1  0
 22 32  1  0
 22 23  2  0
 25 24  1  0
 25 27  1  0
 26 25  2  0
 27 28  1  0
 29 28  1  0
 29 30  1  0
 31 30  1  6
 31 33  1  0
 32 31  1  0
 33 35  1  0
 34 33  2  0
M  END
$$$$
