YFR.pdb
     RDKit          3D

 35 36  0  0  1  0  0  0  0  0999 V2000
   27.1506  -16.4605  -22.8271 O   0  0  0  0  0  0  0  0  0  0  0  0
   26.7175  -17.2393  -21.7552 C   0  0  0  0  0  0  0  0  0  0  0  0
   26.8173  -16.8179  -20.4347 C   0  0  0  0  0  0  0  0  0  0  0  0
   26.3938  -17.5694  -19.3775 C   0  0  0  0  0  0  0  0  0  0  0  0
   25.8323  -18.8151  -19.5804 C   0  0  0  0  0  0  0  0  0  0  0  0
   25.3550  -19.6126  -18.4095 C   0  0  0  0  0  0  0  0  0  0  0  0
   26.5561  -20.3117  -17.7531 C   0  0  2  0  0  0  0  0  0  0  0  0
   27.0096  -21.3987  -18.6070 N   0  0  0  0  0  0  0  0  0  0  0  0
   26.1516  -20.8632  -16.4368 C   0  0  0  0  0  0  0  0  0  0  0  0
   25.5162  -21.9636  -16.3460 O   0  0  0  0  0  0  0  0  0  0  0  0
   25.7134  -19.2736  -20.8719 C   0  0  0  0  0  0  0  0  0  0  0  0
   26.1507  -18.4924  -21.9274 C   0  0  0  0  0  0  0  0  0  0  0  0
   26.4555  -20.1907  -15.2058 N   0  0  0  0  0  0  0  0  0  0  0  0
   26.0312  -20.7435  -13.9068 C   0  0  1  0  0  0  0  0  0  0  0  0
   26.8336  -20.0840  -12.8007 C   0  0  0  0  0  0  0  0  0  0  0  0
   26.2836  -20.3926  -11.4721 C   0  0  0  0  0  0  0  0  0  0  0  0
   26.6349  -21.5301  -10.7401 C   0  0  0  0  0  0  0  0  0  0  0  0
   26.1271  -21.7950   -9.4900 C   0  0  0  0  0  0  0  0  0  0  0  0
   25.2400  -20.9320   -8.9094 C   0  0  0  0  0  0  0  0  0  0  0  0
   24.8658  -19.7983   -9.5977 C   0  0  0  0  0  0  0  0  0  0  0  0
   25.3929  -19.5467  -10.8650 C   0  0  0  0  0  0  0  0  0  0  0  0
   24.5929  -20.6024  -13.8086 C   0  0  0  0  0  0  0  0  0  0  0  0
   24.1003  -19.4603  -14.1261 O   0  0  0  0  0  0  0  0  0  0  0  0
   18.5121  -26.4183  -14.6312 N   0  0  0  0  0  0  0  0  0  0  0  0
   19.1226  -25.4965  -15.5181 C   0  0  0  0  0  0  0  0  0  0  0  0
   19.1840  -25.6847  -16.7659 N   0  0  0  0  0  0  0  0  0  0  0  0
   19.6818  -24.3216  -14.9361 N   0  0  0  0  0  0  0  0  0  0  0  0
   19.3704  -23.9023  -13.5863 C   0  0  0  0  0  0  0  0  0  0  0  0
   20.0587  -22.6107  -13.2929 C   0  0  0  0  0  0  0  0  0  0  0  0
   21.5124  -22.5716  -13.4731 C   0  0  0  0  0  0  0  0  0  0  0  0
   22.2456  -21.2971  -13.1843 C   0  0  2  0  0  0  0  0  0  0  0  0
   23.6729  -21.5661  -13.4132 N   0  0  0  0  0  0  0  0  0  0  0  0
   22.0064  -20.6400  -11.9247 C   0  0  0  0  0  0  0  0  0  0  0  0
   22.5896  -20.9653  -10.8522 O   0  0  0  0  0  0  0  0  0  0  0  0
   21.1027  -19.5622  -11.7394 O   0  0  0  0  0  0  0  0  0  0  0  0
  2 12  2  0
  2  1  1  0
  3  2  1  0
  4  5  1  0
  4  3  2  0
  5 11  2  0
  6  5  1  0
  7  6  1  0
  7  8  1  6
  9  7  1  0
  9 10  2  0
 11 12  1  0
 13  9  1  0
 14 13  1  0
 14 22  1  0
 14 15  1  1
 16 17  2  0
 16 15  1  0
 18 17  1  0
 19 18  2  0
 20 19  1  0
 20 21  2  0
 21 16  1  0
 22 32  1  0
 22 23  2  0
 25 24  1  0
 25 27  1  0
 26 25  2  0
 27 28  1  0
 29 28  1  0
 29 30  1  0
 31 30  1  1
 31 33  1  0
 32 31  1  0
 33 35  1  0
 34 33  2  0
M  END
$$$$
