YFR.pdb
     RDKit          3D

 35 36  0  0  1  0  0  0  0  0999 V2000
   29.2382  -15.6848  -19.9801 O   0  0  0  0  0  0  0  0  0  0  0  0
   28.6502  -16.6536  -19.1684 C   0  0  0  0  0  0  0  0  0  0  0  0
   28.2581  -16.3971  -17.8601 C   0  0  0  0  0  0  0  0  0  0  0  0
   27.6785  -17.3357  -17.0571 C   0  0  0  0  0  0  0  0  0  0  0  0
   27.4502  -18.6158  -17.5234 C   0  0  0  0  0  0  0  0  0  0  0  0
   26.7940  -19.6226  -16.6342 C   0  0  0  0  0  0  0  0  0  0  0  0
   27.8189  -20.1329  -15.6089 C   0  0  2  0  0  0  0  0  0  0  0  0
   28.7459  -21.0436  -16.2632 N   0  0  0  0  0  0  0  0  0  0  0  0
   27.1157  -20.8537  -14.5197 C   0  0  0  0  0  0  0  0  0  0  0  0
   26.9407  -22.1148  -14.5646 O   0  0  0  0  0  0  0  0  0  0  0  0
   27.8223  -18.9153  -18.8134 C   0  0  0  0  0  0  0  0  0  0  0  0
   28.4089  -17.9457  -19.6081 C   0  0  0  0  0  0  0  0  0  0  0  0
   26.6018  -20.1720  -13.3661 N   0  0  0  0  0  0  0  0  0  0  0  0
   25.9646  -20.9111  -12.2612 C   0  0  1  0  0  0  0  0  0  0  0  0
   26.4770  -20.3682  -10.9402 C   0  0  0  0  0  0  0  0  0  0  0  0
   27.8752  -20.7557  -10.6992 C   0  0  0  0  0  0  0  0  0  0  0  0
   28.9678  -20.0356  -11.1899 C   0  0  0  0  0  0  0  0  0  0  0  0
   30.2700  -20.3992  -10.9392 C   0  0  0  0  0  0  0  0  0  0  0  0
   30.5435  -21.5048  -10.1830 C   0  0  0  0  0  0  0  0  0  0  0  0
   29.4948  -22.2441   -9.6804 C   0  0  0  0  0  0  0  0  0  0  0  0
   28.1801  -21.8583   -9.9452 C   0  0  0  0  0  0  0  0  0  0  0  0
   24.5298  -20.8498  -12.4508 C   0  0  0  0  0  0  0  0  0  0  0  0
   24.0075  -19.6809  -12.5440 O   0  0  0  0  0  0  0  0  0  0  0  0
   22.7440  -25.9774  -14.6650 N   0  0  0  0  0  0  0  0  0  0  0  0
   21.3807  -26.1937  -14.9873 C   0  0  0  0  0  0  0  0  0  0  0  0
   20.7734  -27.2662  -14.7099 N   0  0  0  0  0  0  0  0  0  0  0  0
   20.7038  -25.1318  -15.6552 N   0  0  0  0  0  0  0  0  0  0  0  0
   21.2365  -23.7873  -15.7105 C   0  0  0  0  0  0  0  0  0  0  0  0
   20.8092  -23.0301  -14.4972 C   0  0  0  0  0  0  0  0  0  0  0  0
   21.7070  -23.0603  -13.3395 C   0  0  0  0  0  0  0  0  0  0  0  0
   22.1964  -21.7651  -12.7665 C   0  0  2  0  0  0  0  0  0  0  0  0
   23.6429  -21.9152  -12.5499 N   0  0  0  0  0  0  0  0  0  0  0  0
   21.5216  -21.2287  -11.6121 C   0  0  0  0  0  0  0  0  0  0  0  0
   21.8747  -21.4792  -10.4252 O   0  0  0  0  0  0  0  0  0  0  0  0
   20.3976  -20.3649  -11.6675 O   0  0  0  0  0  0  0  0  0  0  0  0
  2 12  2  0
  2  1  1  0
  3  2  1  0
  4  5  1  0
  4  3  2  0
  5 11  2  0
  6  5  1  0
  7  6  1  0
  7  8  1  6
  9  7  1  0
  9 10  2  0
 11 12  1  0
 13  9  1  0
 14 13  1  0
 14 22  1  0
 14 15  1  1
 16 17  2  0
 16 15  1  0
 18 17  1  0
 19 18  2  0
 20 19  1  0
 20 21  2  0
 21 16  1  0
 22 32  1  0
 22 23  2  0
 25 24  1  0
 25 27  1  0
 26 25  2  0
 27 28  1  0
 29 28  1  0
 29 30  1  0
 31 30  1  1
 31 33  1  0
 32 31  1  0
 33 35  1  0
 34 33  2  0
M  END
$$$$
