YFR.pdb
     RDKit          3D

 35 36  0  0  1  0  0  0  0  0999 V2000
   18.1754  -13.6338  -17.3826 O   0  0  0  0  0  0  0  0  0  0  0  0
   19.1531  -14.6052  -17.1735 C   0  0  0  0  0  0  0  0  0  0  0  0
   19.2181  -15.7754  -17.9204 C   0  0  0  0  0  0  0  0  0  0  0  0
   20.1721  -16.7316  -17.7277 C   0  0  0  0  0  0  0  0  0  0  0  0
   21.1406  -16.5728  -16.7555 C   0  0  0  0  0  0  0  0  0  0  0  0
   22.1895  -17.6228  -16.5758 C   0  0  0  0  0  0  0  0  0  0  0  0
   23.4701  -17.1851  -17.3043 C   0  0  2  0  0  0  0  0  0  0  0  0
   23.3686  -17.5332  -18.7132 N   0  0  0  0  0  0  0  0  0  0  0  0
   24.6399  -17.8806  -16.7142 C   0  0  0  0  0  0  0  0  0  0  0  0
   24.9761  -19.0498  -17.0924 O   0  0  0  0  0  0  0  0  0  0  0  0
   21.1153  -15.4292  -15.9914 C   0  0  0  0  0  0  0  0  0  0  0  0
   20.1370  -14.4740  -16.2061 C   0  0  0  0  0  0  0  0  0  0  0  0
   25.4490  -17.2750  -15.6952 N   0  0  0  0  0  0  0  0  0  0  0  0
   26.5344  -18.0226  -15.0348 C   0  0  1  0  0  0  0  0  0  0  0  0
   27.7719  -17.1471  -14.9694 C   0  0  0  0  0  0  0  0  0  0  0  0
   28.4433  -17.0567  -16.2748 C   0  0  0  0  0  0  0  0  0  0  0  0
   29.3316  -18.0250  -16.7508 C   0  0  0  0  0  0  0  0  0  0  0  0
   29.9365  -17.9364  -17.9825 C   0  0  0  0  0  0  0  0  0  0  0  0
   29.6814  -16.8712  -18.8007 C   0  0  0  0  0  0  0  0  0  0  0  0
   28.8120  -15.8930  -18.3692 C   0  0  0  0  0  0  0  0  0  0  0  0
   28.2075  -16.0013  -17.1161 C   0  0  0  0  0  0  0  0  0  0  0  0
   26.0369  -18.5025  -13.7617 C   0  0  0  0  0  0  0  0  0  0  0  0
   25.3288  -17.6842  -13.0713 O   0  0  0  0  0  0  0  0  0  0  0  0
   19.3899  -18.6748  -10.8468 N   0  0  0  0  0  0  0  0  0  0  0  0
   19.6686  -19.9701  -10.3431 C   0  0  0  0  0  0  0  0  0  0  0  0
   18.9489  -20.5356   -9.4722 N   0  0  0  0  0  0  0  0  0  0  0  0
   20.8210  -20.6266  -10.8655 N   0  0  0  0  0  0  0  0  0  0  0  0
   21.6299  -20.0506  -11.9183 C   0  0  0  0  0  0  0  0  0  0  0  0
   22.8016  -20.9348  -12.1888 C   0  0  0  0  0  0  0  0  0  0  0  0
   23.9404  -20.3394  -12.8931 C   0  0  0  0  0  0  0  0  0  0  0  0
   25.2954  -20.3901  -12.2553 C   0  0  2  0  0  0  0  0  0  0  0  0
   26.2320  -19.7565  -13.1952 N   0  0  0  0  0  0  0  0  0  0  0  0
   25.7775  -21.6588  -11.7720 C   0  0  0  0  0  0  0  0  0  0  0  0
   25.3897  -22.1795  -10.6882 O   0  0  0  0  0  0  0  0  0  0  0  0
   26.7297  -22.4663  -12.4457 O   0  0  0  0  0  0  0  0  0  0  0  0
  2 12  2  0
  2  1  1  0
  3  2  1  0
  4  5  1  0
  4  3  2  0
  5 11  2  0
  6  5  1  0
  7  6  1  0
  7  8  1  6
  9  7  1  0
  9 10  2  0
 11 12  1  0
 13  9  1  0
 14 13  1  0
 14 22  1  0
 14 15  1  1
 16 17  2  0
 16 15  1  0
 18 17  1  0
 19 18  2  0
 20 19  1  0
 20 21  2  0
 21 16  1  0
 22 32  1  0
 22 23  2  0
 25 24  1  0
 25 27  1  0
 26 25  2  0
 27 28  1  0
 29 28  1  0
 29 30  1  0
 31 30  1  6
 31 33  1  0
 32 31  1  0
 33 35  1  0
 34 33  2  0
M  END
$$$$
