YFR.pdb
     RDKit          3D

 35 36  0  0  1  0  0  0  0  0999 V2000
   30.4392  -27.3343  -19.1591 O   0  0  0  0  0  0  0  0  0  0  0  0
   29.4575  -26.5657  -18.5356 C   0  0  0  0  0  0  0  0  0  0  0  0
   29.6180  -26.0366  -17.2606 C   0  0  0  0  0  0  0  0  0  0  0  0
   28.6663  -25.2800  -16.6414 C   0  0  0  0  0  0  0  0  0  0  0  0
   27.4700  -24.9999  -17.2728 C   0  0  0  0  0  0  0  0  0  0  0  0
   26.4498  -24.1508  -16.5850 C   0  0  0  0  0  0  0  0  0  0  0  0
   25.9368  -24.8900  -15.3390 C   0  0  2  0  0  0  0  0  0  0  0  0
   25.1299  -26.0288  -15.7495 N   0  0  0  0  0  0  0  0  0  0  0  0
   25.1039  -23.9718  -14.5243 C   0  0  0  0  0  0  0  0  0  0  0  0
   23.8444  -24.1342  -14.4220 O   0  0  0  0  0  0  0  0  0  0  0  0
   27.2671  -25.5033  -18.5369 C   0  0  0  0  0  0  0  0  0  0  0  0
   28.2480  -26.2683  -19.1436 C   0  0  0  0  0  0  0  0  0  0  0  0
   25.6709  -22.8621  -13.8124 N   0  0  0  0  0  0  0  0  0  0  0  0
   24.8745  -22.0865  -12.8443 C   0  0  1  0  0  0  0  0  0  0  0  0
   25.8126  -21.3635  -11.8959 C   0  0  0  0  0  0  0  0  0  0  0  0
   26.7983  -20.5488  -12.6224 C   0  0  0  0  0  0  0  0  0  0  0  0
   26.5509  -19.2404  -13.0466 C   0  0  0  0  0  0  0  0  0  0  0  0
   27.4899  -18.4839  -13.7075 C   0  0  0  0  0  0  0  0  0  0  0  0
   28.7263  -19.0014  -13.9773 C   0  0  0  0  0  0  0  0  0  0  0  0
   29.0113  -20.2889  -13.5771 C   0  0  0  0  0  0  0  0  0  0  0  0
   28.0453  -21.0403  -12.9068 C   0  0  0  0  0  0  0  0  0  0  0  0
   23.9623  -21.2430  -13.5892 C   0  0  0  0  0  0  0  0  0  0  0  0
   24.3365  -20.8801  -14.7623 O   0  0  0  0  0  0  0  0  0  0  0  0
   15.3551  -21.2518  -14.8385 N   0  0  0  0  0  0  0  0  0  0  0  0
   15.7534  -20.0757  -15.5221 C   0  0  0  0  0  0  0  0  0  0  0  0
   14.9771  -19.4278  -16.2796 N   0  0  0  0  0  0  0  0  0  0  0  0
   17.0962  -19.6415  -15.3215 N   0  0  0  0  0  0  0  0  0  0  0  0
   18.0055  -20.3245  -14.4263 C   0  0  0  0  0  0  0  0  0  0  0  0
   19.3721  -19.7392  -14.5600 C   0  0  0  0  0  0  0  0  0  0  0  0
   20.4472  -20.3675  -13.7875 C   0  0  0  0  0  0  0  0  0  0  0  0
   21.8575  -19.9074  -13.9992 C   0  0  2  0  0  0  0  0  0  0  0  0
   22.7163  -20.7794  -13.1843 N   0  0  0  0  0  0  0  0  0  0  0  0
   22.1576  -18.5109  -13.8110 C   0  0  0  0  0  0  0  0  0  0  0  0
   22.4673  -18.0140  -12.6915 O   0  0  0  0  0  0  0  0  0  0  0  0
   22.1447  -17.5397  -14.8450 O   0  0  0  0  0  0  0  0  0  0  0  0
  2 12  2  0
  2  1  1  0
  3  2  1  0
  4  5  1  0
  4  3  2  0
  5 11  2  0
  6  5  1  0
  7  6  1  0
  7  8  1  6
  9  7  1  0
  9 10  2  0
 11 12  1  0
 13  9  1  0
 14 13  1  0
 14 22  1  0
 14 15  1  6
 16 17  2  0
 16 15  1  0
 18 17  1  0
 19 18  2  0
 20 19  1  0
 20 21  2  0
 21 16  1  0
 22 32  1  0
 22 23  2  0
 25 24  1  0
 25 27  1  0
 26 25  2  0
 27 28  1  0
 29 28  1  0
 29 30  1  0
 31 30  1  1
 31 33  1  0
 32 31  1  0
 33 35  1  0
 34 33  2  0
M  END
$$$$
