YFR.pdb
     RDKit          3D

 35 36  0  0  1  0  0  0  0  0999 V2000
   31.1645  -21.4796  -23.5031 O   0  0  0  0  0  0  0  0  0  0  0  0
   30.3391  -21.6743  -22.3968 C   0  0  0  0  0  0  0  0  0  0  0  0
   29.6167  -22.8448  -22.1981 C   0  0  0  0  0  0  0  0  0  0  0  0
   28.8086  -23.0486  -21.1178 C   0  0  0  0  0  0  0  0  0  0  0  0
   28.6707  -22.0738  -20.1488 C   0  0  0  0  0  0  0  0  0  0  0  0
   27.7972  -22.3264  -18.9622 C   0  0  0  0  0  0  0  0  0  0  0  0
   28.6761  -22.4526  -17.7077 C   0  0  2  0  0  0  0  0  0  0  0  0
   29.2948  -23.7690  -17.6804 N   0  0  0  0  0  0  0  0  0  0  0  0
   27.8386  -22.2832  -16.4951 C   0  0  0  0  0  0  0  0  0  0  0  0
   27.2548  -23.2752  -15.9489 O   0  0  0  0  0  0  0  0  0  0  0  0
   29.3675  -20.8979  -20.3040 C   0  0  0  0  0  0  0  0  0  0  0  0
   30.1806  -20.7151  -21.4090 C   0  0  0  0  0  0  0  0  0  0  0  0
   27.6461  -21.0019  -15.8779 N   0  0  0  0  0  0  0  0  0  0  0  0
   26.8870  -20.8638  -14.6219 C   0  0  1  0  0  0  0  0  0  0  0  0
   27.4236  -19.6756  -13.8456 C   0  0  0  0  0  0  0  0  0  0  0  0
   27.3480  -18.4344  -14.6309 C   0  0  0  0  0  0  0  0  0  0  0  0
   26.3929  -17.4393  -14.4055 C   0  0  0  0  0  0  0  0  0  0  0  0
   26.3472  -16.2747  -15.1352 C   0  0  0  0  0  0  0  0  0  0  0  0
   27.2578  -16.0482  -16.1295 C   0  0  0  0  0  0  0  0  0  0  0  0
   28.2163  -17.0046  -16.3855 C   0  0  0  0  0  0  0  0  0  0  0  0
   28.2467  -18.1797  -15.6333 C   0  0  0  0  0  0  0  0  0  0  0  0
   25.4779  -20.8121  -14.9539 C   0  0  0  0  0  0  0  0  0  0  0  0
   25.1769  -20.4308  -16.1421 O   0  0  0  0  0  0  0  0  0  0  0  0
   18.3194  -20.3757  -12.5864 N   0  0  0  0  0  0  0  0  0  0  0  0
   17.9762  -21.6109  -13.1912 C   0  0  0  0  0  0  0  0  0  0  0  0
   16.8480  -21.8254  -13.7177 N   0  0  0  0  0  0  0  0  0  0  0  0
   18.9741  -22.6287  -13.1806 N   0  0  0  0  0  0  0  0  0  0  0  0
   20.3892  -22.3259  -13.1621 C   0  0  0  0  0  0  0  0  0  0  0  0
   20.9442  -22.4468  -14.5424 C   0  0  0  0  0  0  0  0  0  0  0  0
   22.3922  -22.2838  -14.6976 C   0  0  0  0  0  0  0  0  0  0  0  0
   22.9948  -20.9257  -14.5031 C   0  0  2  0  0  0  0  0  0  0  0  0
   24.4029  -21.1338  -14.1342 N   0  0  0  0  0  0  0  0  0  0  0  0
   22.3280  -20.0005  -13.6227 C   0  0  0  0  0  0  0  0  0  0  0  0
   22.6355  -19.8589  -12.4055 O   0  0  0  0  0  0  0  0  0  0  0  0
   21.2632  -19.1472  -14.0108 O   0  0  0  0  0  0  0  0  0  0  0  0
  2 12  2  0
  2  1  1  0
  3  2  1  0
  4  5  1  0
  4  3  2  0
  5 11  2  0
  6  5  1  0
  7  6  1  0
  7  8  1  1
  9  7  1  0
  9 10  2  0
 11 12  1  0
 13  9  1  0
 14 13  1  0
 14 22  1  0
 14 15  1  6
 16 17  2  0
 16 15  1  0
 18 17  1  0
 19 18  2  0
 20 19  1  0
 20 21  2  0
 21 16  1  0
 22 32  1  0
 22 23  2  0
 25 24  1  0
 25 27  1  0
 26 25  2  0
 27 28  1  0
 29 28  1  0
 29 30  1  0
 31 30  1  1
 31 33  1  0
 32 31  1  0
 33 35  1  0
 34 33  2  0
M  END
$$$$
