YFR.pdb
     RDKit          3D

 35 36  0  0  1  0  0  0  0  0999 V2000
   24.9474  -16.8706  -22.5850 O   0  0  0  0  0  0  0  0  0  0  0  0
   25.0954  -17.5391  -21.3708 C   0  0  0  0  0  0  0  0  0  0  0  0
   24.4958  -18.7661  -21.1135 C   0  0  0  0  0  0  0  0  0  0  0  0
   24.6360  -19.4318  -19.9308 C   0  0  0  0  0  0  0  0  0  0  0  0
   25.4012  -18.9001  -18.9110 C   0  0  0  0  0  0  0  0  0  0  0  0
   25.5594  -19.6564  -17.6312 C   0  0  0  0  0  0  0  0  0  0  0  0
   26.9768  -20.2472  -17.5673 C   0  0  2  0  0  0  0  0  0  0  0  0
   27.0929  -21.3323  -18.5294 N   0  0  0  0  0  0  0  0  0  0  0  0
   27.2343  -20.7749  -16.2051 C   0  0  0  0  0  0  0  0  0  0  0  0
   26.7814  -21.9072  -15.8363 O   0  0  0  0  0  0  0  0  0  0  0  0
   26.0140  -17.6866  -19.1212 C   0  0  0  0  0  0  0  0  0  0  0  0
   25.8562  -17.0308  -20.3297 C   0  0  0  0  0  0  0  0  0  0  0  0
   28.0037  -20.0428  -15.2398 N   0  0  0  0  0  0  0  0  0  0  0  0
   28.2911  -20.6024  -13.9067 C   0  0  1  0  0  0  0  0  0  0  0  0
   29.5965  -20.0219  -13.3956 C   0  0  0  0  0  0  0  0  0  0  0  0
   29.8939  -20.4742  -12.0281 C   0  0  0  0  0  0  0  0  0  0  0  0
   30.6507  -21.6140  -11.7430 C   0  0  0  0  0  0  0  0  0  0  0  0
   30.9373  -22.0131  -10.4588 C   0  0  0  0  0  0  0  0  0  0  0  0
   30.4791  -21.2891   -9.3935 C   0  0  0  0  0  0  0  0  0  0  0  0
   29.7278  -20.1584   -9.6303 C   0  0  0  0  0  0  0  0  0  0  0  0
   29.4484  -19.7692  -10.9409 C   0  0  0  0  0  0  0  0  0  0  0  0
   27.1324  -20.3764  -13.0672 C   0  0  0  0  0  0  0  0  0  0  0  0
   26.6090  -19.2049  -13.1061 O   0  0  0  0  0  0  0  0  0  0  0  0
   20.5930  -23.8007  -14.7306 N   0  0  0  0  0  0  0  0  0  0  0  0
   21.7908  -24.2607  -14.1284 C   0  0  0  0  0  0  0  0  0  0  0  0
   22.0845  -25.4861  -14.0369 N   0  0  0  0  0  0  0  0  0  0  0  0
   22.6727  -23.2659  -13.6141 N   0  0  0  0  0  0  0  0  0  0  0  0
   22.4416  -21.8505  -13.8089 C   0  0  0  0  0  0  0  0  0  0  0  0
   23.5432  -21.0718  -13.1702 C   0  0  0  0  0  0  0  0  0  0  0  0
   24.1672  -21.6508  -11.9774 C   0  0  0  0  0  0  0  0  0  0  0  0
   25.3533  -20.9635  -11.3724 C   0  0  2  0  0  0  0  0  0  0  0  0
   26.5103  -21.2861  -12.2206 N   0  0  0  0  0  0  0  0  0  0  0  0
   25.6244  -21.1708   -9.9727 C   0  0  0  0  0  0  0  0  0  0  0  0
   26.4866  -21.9911   -9.5485 O   0  0  0  0  0  0  0  0  0  0  0  0
   24.9680  -20.4870   -8.9172 O   0  0  0  0  0  0  0  0  0  0  0  0
  2 12  2  0
  2  1  1  0
  3  2  1  0
  4  5  1  0
  4  3  2  0
  5 11  2  0
  6  5  1  0
  7  6  1  0
  7  8  1  6
  9  7  1  0
  9 10  2  0
 11 12  1  0
 13  9  1  0
 14 13  1  0
 14 22  1  0
 14 15  1  1
 16 17  2  0
 16 15  1  0
 18 17  1  0
 19 18  2  0
 20 19  1  0
 20 21  2  0
 21 16  1  0
 22 32  1  0
 22 23  2  0
 25 24  1  0
 25 27  1  0
 26 25  2  0
 27 28  1  0
 29 28  1  0
 29 30  1  0
 31 30  1  6
 31 33  1  0
 32 31  1  0
 33 35  1  0
 34 33  2  0
M  END
$$$$
