YFR.pdb
     RDKit          3D

 35 36  0  0  1  0  0  0  0  0999 V2000
   27.1618  -15.5250  -23.1739 O   0  0  0  0  0  0  0  0  0  0  0  0
   26.8090  -16.3361  -22.0964 C   0  0  0  0  0  0  0  0  0  0  0  0
   26.3244  -17.6284  -22.2589 C   0  0  0  0  0  0  0  0  0  0  0  0
   25.9793  -18.4330  -21.2124 C   0  0  0  0  0  0  0  0  0  0  0  0
   26.1005  -17.9851  -19.9112 C   0  0  0  0  0  0  0  0  0  0  0  0
   25.7374  -18.8909  -18.7787 C   0  0  0  0  0  0  0  0  0  0  0  0
   27.0198  -19.3316  -18.0553 C   0  0  2  0  0  0  0  0  0  0  0  0
   27.7209  -20.3138  -18.8678 N   0  0  0  0  0  0  0  0  0  0  0  0
   26.6690  -19.9416  -16.7494 C   0  0  0  0  0  0  0  0  0  0  0  0
   26.4565  -21.1928  -16.6379 O   0  0  0  0  0  0  0  0  0  0  0  0
   26.5764  -16.7115  -19.7024 C   0  0  0  0  0  0  0  0  0  0  0  0
   26.9195  -15.9145  -20.7807 C   0  0  0  0  0  0  0  0  0  0  0  0
   26.5541  -19.1589  -15.5519 N   0  0  0  0  0  0  0  0  0  0  0  0
   26.3259  -19.7941  -14.2414 C   0  0  1  0  0  0  0  0  0  0  0  0
   27.0254  -18.9818  -13.1675 C   0  0  0  0  0  0  0  0  0  0  0  0
   26.5872  -19.3721  -11.8189 C   0  0  0  0  0  0  0  0  0  0  0  0
   25.6105  -18.6799  -11.0978 C   0  0  0  0  0  0  0  0  0  0  0  0
   25.1968  -19.0688   -9.8454 C   0  0  0  0  0  0  0  0  0  0  0  0
   25.7420  -20.1729   -9.2514 C   0  0  0  0  0  0  0  0  0  0  0  0
   26.7094  -20.8839   -9.9279 C   0  0  0  0  0  0  0  0  0  0  0  0
   27.1153  -20.4737  -11.1984 C   0  0  0  0  0  0  0  0  0  0  0  0
   24.8977  -19.9643  -14.0692 C   0  0  0  0  0  0  0  0  0  0  0  0
   24.1504  -18.9843  -14.4286 O   0  0  0  0  0  0  0  0  0  0  0  0
   23.9408  -26.6314  -16.6715 N   0  0  0  0  0  0  0  0  0  0  0  0
   23.7158  -25.5738  -17.5880 C   0  0  0  0  0  0  0  0  0  0  0  0
   23.7637  -25.7314  -18.8406 N   0  0  0  0  0  0  0  0  0  0  0  0
   23.4296  -24.2932  -17.0312 N   0  0  0  0  0  0  0  0  0  0  0  0
   23.4314  -24.0512  -15.6043 C   0  0  0  0  0  0  0  0  0  0  0  0
   22.5482  -22.8887  -15.2935 C   0  0  0  0  0  0  0  0  0  0  0  0
   22.3779  -22.5369  -13.8812 C   0  0  0  0  0  0  0  0  0  0  0  0
   22.7719  -21.1660  -13.4220 C   0  0  2  0  0  0  0  0  0  0  0  0
   24.2327  -21.0740  -13.5616 N   0  0  0  0  0  0  0  0  0  0  0  0
   22.3148  -20.7187  -12.1310 C   0  0  0  0  0  0  0  0  0  0  0  0
   22.9566  -20.9197  -11.0615 O   0  0  0  0  0  0  0  0  0  0  0  0
   21.1083  -20.0064  -11.9081 O   0  0  0  0  0  0  0  0  0  0  0  0
  2 12  2  0
  2  1  1  0
  3  2  1  0
  4  5  1  0
  4  3  2  0
  5 11  2  0
  6  5  1  0
  7  6  1  0
  7  8  1  6
  9  7  1  0
  9 10  2  0
 11 12  1  0
 13  9  1  0
 14 13  1  0
 14 22  1  0
 14 15  1  1
 16 17  2  0
 16 15  1  0
 18 17  1  0
 19 18  2  0
 20 19  1  0
 20 21  2  0
 21 16  1  0
 22 32  1  0
 22 23  2  0
 25 24  1  0
 25 27  1  0
 26 25  2  0
 27 28  1  0
 29 28  1  0
 29 30  1  0
 31 30  1  1
 31 33  1  0
 32 31  1  0
 33 35  1  0
 34 33  2  0
M  END
$$$$
