LSL.pdb
     RDKit          3D

 23 22  0  0  1  0  0  0  0  0999 V2000
   25.5038  -36.5938  -13.5565 C   0  0  0  0  0  0  0  0  0  0  0  0
   25.7786  -35.3029  -14.3464 C   0  0  2  0  0  0  0  0  0  0  0  0
   27.1026  -35.4271  -15.0585 C   0  0  0  0  0  0  0  0  0  0  0  0
   25.7808  -34.2002  -13.3466 C   0  0  0  0  0  0  0  0  0  0  0  0
   24.4971  -33.9964  -12.6053 C   0  0  2  0  0  0  0  0  0  0  0  0
   23.6244  -33.1597  -13.4006 N   0  0  0  0  0  0  0  0  0  0  0  0
   24.7344  -33.3049  -11.2982 C   0  0  0  0  0  0  0  0  0  0  0  0
   25.0537  -32.0711  -11.2700 O   0  0  0  0  0  0  0  0  0  0  0  0
   23.7514  -32.2982   -6.9197 O   0  0  0  0  0  0  0  0  0  0  0  0
   23.6038  -32.9281   -8.1512 C   0  0  0  0  0  0  0  0  0  0  0  0
   24.9178  -33.2848   -8.7677 C   0  0  2  0  0  0  0  0  0  0  0  0
   24.6255  -33.9490  -10.0415 N   0  0  0  0  0  0  0  0  0  0  0  0
   25.8139  -34.0944   -7.9669 C   0  0  0  0  0  0  0  0  0  0  0  0
   25.6696  -35.3513   -7.9788 O   0  0  0  0  0  0  0  0  0  0  0  0
   30.8683  -33.2057   -4.6188 C   0  0  0  0  0  0  0  0  0  0  0  0
   29.9672  -34.2862   -5.2440 C   0  0  2  0  0  0  0  0  0  0  0  0
   30.9171  -35.1164   -6.0990 C   0  0  0  0  0  0  0  0  0  0  0  0
   28.9369  -33.5626   -6.0354 C   0  0  0  0  0  0  0  0  0  0  0  0
   27.6456  -34.2777   -6.2483 C   0  0  2  0  0  0  0  0  0  0  0  0
   26.8367  -33.5198   -7.1797 N   0  0  0  0  0  0  0  0  0  0  0  0
   26.8728  -34.5699   -5.0409 C   0  0  0  0  0  0  0  0  0  0  0  0
   27.0816  -35.6841   -4.2390 O   0  0  0  0  0  0  0  0  0  0  0  0
   25.9583  -33.7881   -4.6771 O   0  0  0  0  0  0  0  0  0  0  0  0
  2  1  1  1
  2  3  1  0
  4  2  1  0
  4  5  1  0
  5  7  1  0
  5  6  1  6
  7  8  2  0
  9 10  1  0
 11 10  1  1
 12 11  1  0
 12  7  1  0
 13 11  1  0
 14 13  2  0
 16 15  1  6
 16 17  1  0
 18 16  1  0
 19 20  1  0
 19 18  1  1
 20 13  1  0
 21 19  1  0
 22 21  1  0
 23 21  2  0
M  END
$$$$
