LSL.pdb
     RDKit          3D

 23 22  0  0  1  0  0  0  0  0999 V2000
   28.1167  -19.1789  -16.6737 C   0  0  0  0  0  0  0  0  0  0  0  0
   26.8554  -18.6736  -15.9529 C   0  0  2  0  0  0  0  0  0  0  0  0
   26.2815  -17.5045  -16.7141 C   0  0  0  0  0  0  0  0  0  0  0  0
   27.2894  -18.2912  -14.5814 C   0  0  0  0  0  0  0  0  0  0  0  0
   27.5139  -19.4271  -13.6336 C   0  0  2  0  0  0  0  0  0  0  0  0
   26.9564  -20.6331  -14.2070 N   0  0  0  0  0  0  0  0  0  0  0  0
   26.8293  -19.1791  -12.3248 C   0  0  0  0  0  0  0  0  0  0  0  0
   26.8050  -18.0083  -11.8214 O   0  0  0  0  0  0  0  0  0  0  0  0
   23.7928  -21.2479   -9.2791 O   0  0  0  0  0  0  0  0  0  0  0  0
   24.1470  -20.4672  -10.3747 C   0  0  0  0  0  0  0  0  0  0  0  0
   25.5471  -19.9533  -10.2768 C   0  0  2  0  0  0  0  0  0  0  0  0
   26.1815  -20.1924  -11.5765 N   0  0  0  0  0  0  0  0  0  0  0  0
   26.3639  -20.4898   -9.2068 C   0  0  0  0  0  0  0  0  0  0  0  0
   26.8963  -21.6269   -9.3621 O   0  0  0  0  0  0  0  0  0  0  0  0
   29.0238  -18.4620   -4.1036 C   0  0  0  0  0  0  0  0  0  0  0  0
   28.5163  -19.7492   -4.7787 C   0  0  2  0  0  0  0  0  0  0  0  0
   29.7647  -20.6105   -4.9279 C   0  0  0  0  0  0  0  0  0  0  0  0
   27.9252  -19.3328   -6.0781 C   0  0  0  0  0  0  0  0  0  0  0  0
   27.1619  -20.3768   -6.8209 C   0  0  2  0  0  0  0  0  0  0  0  0
   26.5790  -19.7801   -8.0042 N   0  0  0  0  0  0  0  0  0  0  0  0
   26.1295  -21.0763   -6.0558 C   0  0  0  0  0  0  0  0  0  0  0  0
   24.7672  -20.8639   -6.2197 O   0  0  0  0  0  0  0  0  0  0  0  0
   26.4583  -21.9271   -5.1909 O   0  0  0  0  0  0  0  0  0  0  0  0
  2  1  1  6
  2  3  1  0
  4  2  1  0
  4  5  1  0
  5  7  1  0
  5  6  1  6
  7  8  2  0
  9 10  1  0
 11 10  1  6
 12 11  1  0
 12  7  1  0
 13 11  1  0
 14 13  2  0
 16 15  1  1
 16 17  1  0
 18 16  1  0
 19 20  1  0
 19 18  1  1
 20 13  1  0
 21 19  1  0
 22 21  1  0
 23 21  2  0
M  END
$$$$
