LSL.pdb
     RDKit          3D

 23 22  0  0  1  0  0  0  0  0999 V2000
   12.8286  -11.1799  -15.1138 C   0  0  0  0  0  0  0  0  0  0  0  0
   12.5621  -12.1975  -13.9916 C   0  0  2  0  0  0  0  0  0  0  0  0
   11.0881  -12.2103  -13.6708 C   0  0  0  0  0  0  0  0  0  0  0  0
   13.3846  -11.7573  -12.8318 C   0  0  0  0  0  0  0  0  0  0  0  0
   14.8623  -11.7194  -13.0640 C   0  0  2  0  0  0  0  0  0  0  0  0
   15.3871  -13.0642  -12.9640 N   0  0  0  0  0  0  0  0  0  0  0  0
   15.5478  -10.8784  -12.0315 C   0  0  0  0  0  0  0  0  0  0  0  0
   15.5999  -11.2630  -10.8174 O   0  0  0  0  0  0  0  0  0  0  0  0
   17.7121   -7.3207  -12.9462 O   0  0  0  0  0  0  0  0  0  0  0  0
   18.0055   -8.1876  -11.8985 C   0  0  0  0  0  0  0  0  0  0  0  0
   16.7757   -8.7842  -11.2938 C   0  0  2  0  0  0  0  0  0  0  0  0
   16.1666   -9.6371  -12.3188 N   0  0  0  0  0  0  0  0  0  0  0  0
   15.7987   -7.8577  -10.7582 C   0  0  0  0  0  0  0  0  0  0  0  0
   14.8365   -7.4972  -11.4963 O   0  0  0  0  0  0  0  0  0  0  0  0
   14.3940   -5.7227   -5.1886 C   0  0  0  0  0  0  0  0  0  0  0  0
   14.0505   -5.5759   -6.6822 C   0  0  2  0  0  0  0  0  0  0  0  0
   12.5827   -5.9768   -6.7695 C   0  0  0  0  0  0  0  0  0  0  0  0
   14.9608   -6.4983   -7.4116 C   0  0  0  0  0  0  0  0  0  0  0  0
   14.9740   -6.3742   -8.8977 C   0  0  2  0  0  0  0  0  0  0  0  0
   15.8931   -7.3512   -9.4427 N   0  0  0  0  0  0  0  0  0  0  0  0
   15.2899   -5.0459   -9.4232 C   0  0  0  0  0  0  0  0  0  0  0  0
   14.3316   -4.1051   -9.7762 O   0  0  0  0  0  0  0  0  0  0  0  0
   16.4888   -4.7011   -9.5769 O   0  0  0  0  0  0  0  0  0  0  0  0
  2  1  1  6
  2  3  1  0
  4  2  1  0
  4  5  1  0
  5  7  1  0
  5  6  1  1
  7  8  2  0
  9 10  1  0
 11 10  1  6
 12 11  1  0
 12  7  1  0
 13 11  1  0
 14 13  2  0
 16 15  1  1
 16 17  1  0
 18 16  1  0
 19 20  1  0
 19 18  1  1
 20 13  1  0
 21 19  1  0
 22 21  1  0
 23 21  2  0
M  END
$$$$
