LSL.pdb
     RDKit          3D

 23 22  0  0  1  0  0  0  0  0999 V2000
   21.3335  -13.4888  -18.5495 C   0  0  0  0  0  0  0  0  0  0  0  0
   22.1330  -14.8025  -18.5189 C   0  0  2  0  0  0  0  0  0  0  0  0
   21.5198  -15.7813  -19.4892 C   0  0  0  0  0  0  0  0  0  0  0  0
   22.0700  -15.2911  -17.1144 C   0  0  0  0  0  0  0  0  0  0  0  0
   21.1212  -16.4209  -16.8644 C   0  0  2  0  0  0  0  0  0  0  0  0
   19.8491  -15.8789  -16.4379 N   0  0  0  0  0  0  0  0  0  0  0  0
   21.6280  -17.3187  -15.7780 C   0  0  0  0  0  0  0  0  0  0  0  0
   21.6188  -16.9306  -14.5638 O   0  0  0  0  0  0  0  0  0  0  0  0
   22.1591  -21.5090  -16.1953 O   0  0  0  0  0  0  0  0  0  0  0  0
   21.8063  -20.7770  -15.0662 C   0  0  0  0  0  0  0  0  0  0  0  0
   22.5919  -19.5116  -14.9415 C   0  0  2  0  0  0  0  0  0  0  0  0
   22.1372  -18.6195  -16.0122 N   0  0  0  0  0  0  0  0  0  0  0  0
   24.0354  -19.6369  -14.9639 C   0  0  0  0  0  0  0  0  0  0  0  0
   24.6400  -19.4877  -16.0652 O   0  0  0  0  0  0  0  0  0  0  0  0
   28.1786  -21.4395  -10.7778 C   0  0  0  0  0  0  0  0  0  0  0  0
   28.0129  -21.0785  -12.2652 C   0  0  2  0  0  0  0  0  0  0  0  0
   29.0706  -20.0091  -12.5106 C   0  0  0  0  0  0  0  0  0  0  0  0
   26.6202  -20.5808  -12.4204 C   0  0  0  0  0  0  0  0  0  0  0  0
   26.1866  -20.2551  -13.8096 C   0  0  2  0  0  0  0  0  0  0  0  0
   24.7784  -19.9190  -13.7959 N   0  0  0  0  0  0  0  0  0  0  0  0
   26.4426  -21.2865  -14.8152 C   0  0  0  0  0  0  0  0  0  0  0  0
   25.7823  -22.5072  -14.8574 O   0  0  0  0  0  0  0  0  0  0  0  0
   27.3039  -21.0904  -15.7094 O   0  0  0  0  0  0  0  0  0  0  0  0
  2  1  1  1
  2  3  1  0
  4  2  1  0
  4  5  1  0
  5  7  1  0
  5  6  1  1
  7  8  2  0
  9 10  1  0
 11 10  1  6
 12 11  1  0
 12  7  1  0
 13 11  1  0
 14 13  2  0
 16 15  1  1
 16 17  1  0
 18 16  1  0
 19 20  1  0
 19 18  1  1
 20 13  1  0
 21 19  1  0
 22 21  1  0
 23 21  2  0
M  END
$$$$
