LSL.pdb
     RDKit          3D

 23 22  0  0  1  0  0  0  0  0999 V2000
   21.2481  -12.0296  -18.0729 C   0  0  0  0  0  0  0  0  0  0  0  0
   19.8964  -12.3589  -18.7288 C   0  0  2  0  0  0  0  0  0  0  0  0
   20.0645  -12.3899  -20.2276 C   0  0  0  0  0  0  0  0  0  0  0  0
   18.9551  -11.2918  -18.2921 C   0  0  0  0  0  0  0  0  0  0  0  0
   18.7249  -11.1963  -16.8166 C   0  0  2  0  0  0  0  0  0  0  0  0
   18.1181  -12.4267  -16.3564 N   0  0  0  0  0  0  0  0  0  0  0  0
   17.7923  -10.0710  -16.4892 C   0  0  0  0  0  0  0  0  0  0  0  0
   16.5475  -10.1698  -16.7456 O   0  0  0  0  0  0  0  0  0  0  0  0
   18.3585   -7.5985  -13.3825 O   0  0  0  0  0  0  0  0  0  0  0  0
   17.1487   -7.8221  -14.0317 C   0  0  0  0  0  0  0  0  0  0  0  0
   17.2867   -7.7817  -15.5194 C   0  0  2  0  0  0  0  0  0  0  0  0
   18.2109   -8.8569  -15.8918 N   0  0  0  0  0  0  0  0  0  0  0  0
   17.7113   -6.5236  -16.0996 C   0  0  0  0  0  0  0  0  0  0  0  0
   18.9443   -6.3414  -16.3167 O   0  0  0  0  0  0  0  0  0  0  0  0
   14.8593   -1.5615  -18.3692 C   0  0  0  0  0  0  0  0  0  0  0  0
   16.2411   -2.1289  -17.9963 C   0  0  2  0  0  0  0  0  0  0  0  0
   16.9929   -2.1832  -19.3208 C   0  0  0  0  0  0  0  0  0  0  0  0
   15.9942   -3.4686  -17.4000 C   0  0  0  0  0  0  0  0  0  0  0  0
   17.1875   -4.1797  -16.8574 C   0  0  2  0  0  0  0  0  0  0  0  0
   16.7901   -5.5035  -16.4264 N   0  0  0  0  0  0  0  0  0  0  0  0
   17.8990   -3.4969  -15.7766 C   0  0  0  0  0  0  0  0  0  0  0  0
   17.8015   -3.8546  -14.4385 O   0  0  0  0  0  0  0  0  0  0  0  0
   18.6524   -2.5252  -16.0377 O   0  0  0  0  0  0  0  0  0  0  0  0
  2  1  1  1
  2  3  1  0
  4  2  1  0
  4  5  1  0
  5  7  1  0
  5  6  1  6
  7  8  2  0
  9 10  1  0
 11 10  1  1
 12 11  1  0
 12  7  1  0
 13 11  1  0
 14 13  2  0
 16 15  1  6
 16 17  1  0
 18 16  1  0
 19 20  1  0
 19 18  1  1
 20 13  1  0
 21 19  1  0
 22 21  1  0
 23 21  2  0
M  END
$$$$
