LSL.pdb
     RDKit          3D

 23 22  0  0  1  0  0  0  0  0999 V2000
   28.8468  -17.4807  -14.8758 C   0  0  0  0  0  0  0  0  0  0  0  0
   27.8339  -17.7033  -16.0116 C   0  0  2  0  0  0  0  0  0  0  0  0
   27.3365  -16.3670  -16.5042 C   0  0  0  0  0  0  0  0  0  0  0  0
   26.7400  -18.5302  -15.4327 C   0  0  0  0  0  0  0  0  0  0  0  0
   27.1563  -19.5074  -14.3787 C   0  0  2  0  0  0  0  0  0  0  0  0
   26.9563  -20.8502  -14.8793 N   0  0  0  0  0  0  0  0  0  0  0  0
   26.3288  -19.3483  -13.1405 C   0  0  0  0  0  0  0  0  0  0  0  0
   25.3291  -18.5575  -13.1302 O   0  0  0  0  0  0  0  0  0  0  0  0
   24.8096  -22.2179  -11.7462 O   0  0  0  0  0  0  0  0  0  0  0  0
   24.4533  -20.9272  -11.3690 C   0  0  0  0  0  0  0  0  0  0  0  0
   25.6149  -20.1487  -10.8411 C   0  0  2  0  0  0  0  0  0  0  0  0
   26.5878  -20.0408  -11.9324 N   0  0  0  0  0  0  0  0  0  0  0  0
   26.2502  -20.6597   -9.6432 C   0  0  0  0  0  0  0  0  0  0  0  0
   27.0256  -21.6541   -9.7451 O   0  0  0  0  0  0  0  0  0  0  0  0
   29.1631  -20.4691   -6.3392 C   0  0  0  0  0  0  0  0  0  0  0  0
   28.1788  -19.2918   -6.4628 C   0  0  2  0  0  0  0  0  0  0  0  0
   28.6844  -18.2736   -5.4478 C   0  0  0  0  0  0  0  0  0  0  0  0
   26.8344  -19.8367   -6.1358 C   0  0  0  0  0  0  0  0  0  0  0  0
   26.2462  -20.7822   -7.1278 C   0  0  2  0  0  0  0  0  0  0  0  0
   26.0273  -20.0794   -8.3745 N   0  0  0  0  0  0  0  0  0  0  0  0
   25.0155  -21.4562   -6.7133 C   0  0  0  0  0  0  0  0  0  0  0  0
   23.7752  -21.2292   -7.2947 O   0  0  0  0  0  0  0  0  0  0  0  0
   25.0450  -22.2971   -5.7796 O   0  0  0  0  0  0  0  0  0  0  0  0
  2  1  1  1
  2  3  1  0
  4  2  1  0
  4  5  1  0
  5  7  1  0
  5  6  1  6
  7  8  2  0
  9 10  1  0
 11 10  1  6
 12 11  1  0
 12  7  1  0
 13 11  1  0
 14 13  2  0
 16 15  1  1
 16 17  1  0
 18 16  1  0
 19 20  1  0
 19 18  1  1
 20 13  1  0
 21 19  1  0
 22 21  1  0
 23 21  2  0
M  END
$$$$
