LSL.pdb
     RDKit          3D

 23 22  0  0  1  0  0  0  0  0999 V2000
   18.4954  -10.4399  -21.1830 C   0  0  0  0  0  0  0  0  0  0  0  0
   17.3018   -9.8629  -20.4032 C   0  0  2  0  0  0  0  0  0  0  0  0
   16.6439   -8.7836  -21.2265 C   0  0  0  0  0  0  0  0  0  0  0  0
   17.8589   -9.3344  -19.1281 C   0  0  0  0  0  0  0  0  0  0  0  0
   18.3358  -10.3653  -18.1539 C   0  0  2  0  0  0  0  0  0  0  0  0
   17.2063  -11.1604  -17.7226 N   0  0  0  0  0  0  0  0  0  0  0  0
   18.9376   -9.7229  -16.9422 C   0  0  0  0  0  0  0  0  0  0  0  0
   18.2030   -9.0861  -16.1178 O   0  0  0  0  0  0  0  0  0  0  0  0
   23.0301  -10.1145  -15.9882 O   0  0  0  0  0  0  0  0  0  0  0  0
   22.0424  -10.0205  -15.0131 C   0  0  0  0  0  0  0  0  0  0  0  0
   20.9024   -9.1538  -15.4412 C   0  0  2  0  0  0  0  0  0  0  0  0
   20.3193   -9.7741  -16.6346 N   0  0  0  0  0  0  0  0  0  0  0  0
   21.2037   -7.7584  -15.6901 C   0  0  0  0  0  0  0  0  0  0  0  0
   21.1469   -7.3283  -16.8785 O   0  0  0  0  0  0  0  0  0  0  0  0
   20.7827   -2.6214  -14.5312 C   0  0  0  0  0  0  0  0  0  0  0  0
   21.0016   -3.3558  -15.8664 C   0  0  2  0  0  0  0  0  0  0  0  0
   19.9415   -2.7718  -16.7926 C   0  0  0  0  0  0  0  0  0  0  0  0
   20.8081   -4.8027  -15.5827 C   0  0  0  0  0  0  0  0  0  0  0  0
   21.9211   -5.4894  -14.8659 C   0  0  2  0  0  0  0  0  0  0  0  0
   21.5561   -6.8732  -14.6469 N   0  0  0  0  0  0  0  0  0  0  0  0
   22.3386   -4.8787  -13.6037 C   0  0  0  0  0  0  0  0  0  0  0  0
   23.1913   -3.7862  -13.5170 O   0  0  0  0  0  0  0  0  0  0  0  0
   21.9198   -5.3434  -12.5135 O   0  0  0  0  0  0  0  0  0  0  0  0
  2  1  1  6
  2  3  1  0
  4  2  1  0
  4  5  1  0
  5  7  1  0
  5  6  1  1
  7  8  2  0
  9 10  1  0
 11 10  1  6
 12 11  1  0
 12  7  1  0
 13 11  1  0
 14 13  2  0
 16 15  1  1
 16 17  1  0
 18 16  1  0
 19 20  1  0
 19 18  1  1
 20 13  1  0
 21 19  1  0
 22 21  1  0
 23 21  2  0
M  END
$$$$
