LSL.pdb
     RDKit          3D

 23 22  0  0  1  0  0  0  0  0999 V2000
   28.9264  -17.6622  -15.3283 C   0  0  0  0  0  0  0  0  0  0  0  0
   28.0213  -18.3656  -16.3539 C   0  0  2  0  0  0  0  0  0  0  0  0
   27.2837  -17.3272  -17.1620 C   0  0  0  0  0  0  0  0  0  0  0  0
   27.0956  -19.2249  -15.5663 C   0  0  0  0  0  0  0  0  0  0  0  0
   27.7488  -20.2596  -14.7049 C   0  0  2  0  0  0  0  0  0  0  0  0
   28.4047  -21.2303  -15.5542 N   0  0  0  0  0  0  0  0  0  0  0  0
   26.7361  -20.9840  -13.8726 C   0  0  0  0  0  0  0  0  0  0  0  0
   25.9821  -21.8672  -14.3982 O   0  0  0  0  0  0  0  0  0  0  0  0
   25.7039  -19.6978   -9.9149 O   0  0  0  0  0  0  0  0  0  0  0  0
   25.6808  -21.0365  -10.2923 C   0  0  0  0  0  0  0  0  0  0  0  0
   25.3735  -21.2119  -11.7445 C   0  0  2  0  0  0  0  0  0  0  0  0
   26.5485  -20.7486  -12.4885 N   0  0  0  0  0  0  0  0  0  0  0  0
   24.1733  -20.5672  -12.2381 C   0  0  0  0  0  0  0  0  0  0  0  0
   24.2912  -19.5161  -12.9321 O   0  0  0  0  0  0  0  0  0  0  0  0
   20.4608  -19.9782  -15.0344 C   0  0  0  0  0  0  0  0  0  0  0  0
   21.1127  -21.3524  -15.2725 C   0  0  2  0  0  0  0  0  0  0  0  0
   19.9490  -22.3344  -15.2086 C   0  0  0  0  0  0  0  0  0  0  0  0
   22.1048  -21.5377  -14.1804 C   0  0  0  0  0  0  0  0  0  0  0  0
   21.7605  -20.9252  -12.8649 C   0  0  2  0  0  0  0  0  0  0  0  0
   22.8850  -21.0794  -11.9660 N   0  0  0  0  0  0  0  0  0  0  0  0
   20.5420  -21.4258  -12.2286 C   0  0  0  0  0  0  0  0  0  0  0  0
   19.3470  -20.7201  -12.1821 O   0  0  0  0  0  0  0  0  0  0  0  0
   20.5394  -22.5578  -11.6823 O   0  0  0  0  0  0  0  0  0  0  0  0
  2  1  1  1
  2  3  1  0
  4  2  1  0
  4  5  1  0
  5  7  1  0
  5  6  1  6
  7  8  2  0
  9 10  1  0
 11 10  1  1
 12 11  1  0
 12  7  1  0
 13 11  1  0
 14 13  2  0
 16 15  1  1
 16 17  1  0
 18 16  1  0
 19 20  1  0
 19 18  1  6
 20 13  1  0
 21 19  1  0
 22 21  1  0
 23 21  2  0
M  END
$$$$
