LSL.pdb
     RDKit          3D

 23 22  0  0  1  0  0  0  0  0999 V2000
   28.9178  -20.5859  -15.0711 C   0  0  0  0  0  0  0  0  0  0  0  0
   27.8335  -19.6676  -15.6599 C   0  0  2  0  0  0  0  0  0  0  0  0
   28.4900  -18.4754  -16.3104 C   0  0  0  0  0  0  0  0  0  0  0  0
   26.9617  -19.2747  -14.5193 C   0  0  0  0  0  0  0  0  0  0  0  0
   26.4550  -20.4010  -13.6744 C   0  0  2  0  0  0  0  0  0  0  0  0
   25.4026  -21.0881  -14.3916 N   0  0  0  0  0  0  0  0  0  0  0  0
   25.8810  -19.8925  -12.3879 C   0  0  0  0  0  0  0  0  0  0  0  0
   24.9807  -18.9902  -12.3954 O   0  0  0  0  0  0  0  0  0  0  0  0
   23.3369  -20.5180   -8.9900 O   0  0  0  0  0  0  0  0  0  0  0  0
   24.1244  -20.5714  -10.1355 C   0  0  0  0  0  0  0  0  0  0  0  0
   25.5230  -20.1074   -9.8853 C   0  0  2  0  0  0  0  0  0  0  0  0
   26.2830  -20.3608  -11.1130 N   0  0  0  0  0  0  0  0  0  0  0  0
   26.2030  -20.6786   -8.7402 C   0  0  0  0  0  0  0  0  0  0  0  0
   26.5745  -21.8867   -8.7960 O   0  0  0  0  0  0  0  0  0  0  0  0
   29.8049  -20.3817   -5.4047 C   0  0  0  0  0  0  0  0  0  0  0  0
   29.0085  -19.1244   -5.7985 C   0  0  2  0  0  0  0  0  0  0  0  0
   29.5796  -18.0263   -4.9093 C   0  0  0  0  0  0  0  0  0  0  0  0
   27.5806  -19.4310   -5.5181 C   0  0  0  0  0  0  0  0  0  0  0  0
   26.9618  -20.5067   -6.3450 C   0  0  2  0  0  0  0  0  0  0  0  0
   26.4597  -19.9259   -7.5725 N   0  0  0  0  0  0  0  0  0  0  0  0
   25.9068  -21.2835   -5.6937 C   0  0  0  0  0  0  0  0  0  0  0  0
   26.1388  -22.2166   -4.6919 O   0  0  0  0  0  0  0  0  0  0  0  0
   24.7079  -21.1226   -6.0351 O   0  0  0  0  0  0  0  0  0  0  0  0
  2  1  1  1
  2  3  1  0
  4  2  1  0
  4  5  1  0
  5  7  1  0
  5  6  1  6
  7  8  2  0
  9 10  1  0
 11 10  1  6
 12 11  1  0
 12  7  1  0
 13 11  1  0
 14 13  2  0
 16 15  1  1
 16 17  1  0
 18 16  1  0
 19 20  1  0
 19 18  1  1
 20 13  1  0
 21 19  1  0
 22 21  1  0
 23 21  2  0
M  END
$$$$
