LSL.pdb
     RDKit          3D

 23 22  0  0  1  0  0  0  0  0999 V2000
   29.2545  -17.5883  -16.6173 C   0  0  0  0  0  0  0  0  0  0  0  0
   28.0473  -16.6394  -16.5282 C   0  0  2  0  0  0  0  0  0  0  0  0
   28.5381  -15.2256  -16.3384 C   0  0  0  0  0  0  0  0  0  0  0  0
   27.2361  -17.1113  -15.3729 C   0  0  0  0  0  0  0  0  0  0  0  0
   26.8270  -18.5500  -15.4144 C   0  0  2  0  0  0  0  0  0  0  0  0
   25.9622  -18.7586  -16.5557 N   0  0  0  0  0  0  0  0  0  0  0  0
   26.0644  -18.9283  -14.1821 C   0  0  0  0  0  0  0  0  0  0  0  0
   25.0032  -18.2988  -13.8618 O   0  0  0  0  0  0  0  0  0  0  0  0
   24.1877  -22.4963  -11.9936 O   0  0  0  0  0  0  0  0  0  0  0  0
   24.9724  -21.7924  -12.9013 C   0  0  0  0  0  0  0  0  0  0  0  0
   25.5637  -20.5571  -12.3024 C   0  0  2  0  0  0  0  0  0  0  0  0
   26.4532  -19.9766  -13.3126 N   0  0  0  0  0  0  0  0  0  0  0  0
   26.2611  -20.7147  -11.0420 C   0  0  0  0  0  0  0  0  0  0  0  0
   27.4273  -21.2051  -11.0515 O   0  0  0  0  0  0  0  0  0  0  0  0
   27.9755  -18.4596   -6.0678 C   0  0  0  0  0  0  0  0  0  0  0  0
   27.5732  -19.8472   -6.5996 C   0  0  2  0  0  0  0  0  0  0  0  0
   28.8770  -20.6363   -6.6093 C   0  0  0  0  0  0  0  0  0  0  0  0
   27.0052  -19.6250   -7.9558 C   0  0  0  0  0  0  0  0  0  0  0  0
   26.1979  -20.7425   -8.5246 C   0  0  2  0  0  0  0  0  0  0  0  0
   25.6760  -20.3371   -9.8127 N   0  0  0  0  0  0  0  0  0  0  0  0
   25.1105  -21.2369   -7.6799 C   0  0  0  0  0  0  0  0  0  0  0  0
   25.2997  -22.0570   -6.5755 O   0  0  0  0  0  0  0  0  0  0  0  0
   23.9219  -20.9204   -7.9387 O   0  0  0  0  0  0  0  0  0  0  0  0
  2  1  1  1
  2  3  1  0
  4  2  1  0
  4  5  1  0
  5  7  1  0
  5  6  1  6
  7  8  2  0
  9 10  1  0
 11 10  1  6
 12 11  1  0
 12  7  1  0
 13 11  1  0
 14 13  2  0
 16 15  1  6
 16 17  1  0
 18 16  1  0
 19 20  1  0
 19 18  1  1
 20 13  1  0
 21 19  1  0
 22 21  1  0
 23 21  2  0
M  END
$$$$
