QDH.pdb
     RDKit          3D

 28 28  0  0  1  0  0  0  0  0999 V2000
   11.9885  -20.8106   15.0601 N   0  0  0  0  0  0  0  0  0  0  0  0
   10.8712  -21.5799   14.6522 C   0  0  0  0  0  0  0  0  0  0  0  0
   10.7555  -21.9405   13.4633 O   0  0  0  0  0  0  0  0  0  0  0  0
    9.8389  -21.9566   15.6393 C   0  0  0  0  0  0  0  0  0  0  0  0
   10.2198  -21.4157   16.9876 C   0  0  0  0  0  0  0  0  0  0  0  0
   10.9209  -22.4711   17.8234 C   0  0  2  0  0  0  0  0  0  0  0  0
   10.1729  -23.6847   17.9142 N   0  0  0  0  0  0  0  0  0  0  0  0
   11.1960  -21.8671   19.1583 C   0  0  0  0  0  0  0  0  0  0  0  0
   11.7880  -20.7842   19.2826 O   0  0  0  0  0  0  0  0  0  0  0  0
   10.8041  -22.4812   20.3790 N   0  0  0  0  0  0  0  0  0  0  0  0
   10.9803  -21.9344   21.6554 C   0  0  1  0  0  0  0  0  0  0  0  0
   10.0447  -22.2866   22.7391 C   0  0  0  0  0  0  0  0  0  0  0  0
   10.2943  -21.5509   24.0068 C   0  0  0  0  0  0  0  0  0  0  0  0
   10.4780  -22.1028   25.1169 O   0  0  0  0  0  0  0  0  0  0  0  0
   12.3548  -22.2325   22.1350 C   0  0  0  0  0  0  0  0  0  0  0  0
   12.8333  -23.3939   22.1921 O   0  0  0  0  0  0  0  0  0  0  0  0
   10.3262  -20.1652   23.9595 O   0  0  0  0  0  0  0  0  0  0  0  0
   13.1698  -21.1497   22.5502 N   0  0  0  0  0  0  0  0  0  0  0  0
   14.5506  -21.3856   22.9246 C   0  0  1  0  0  0  0  0  0  0  0  0
   15.4495  -20.6126   21.9797 C   0  0  0  0  0  0  0  0  0  0  0  0
   16.8706  -20.9277   22.1999 C   0  0  0  0  0  0  0  0  0  0  0  0
   17.3876  -22.1834   22.4503 C   0  0  0  0  0  0  0  0  0  0  0  0
   18.7260  -22.0830   22.5984 N   0  0  0  0  0  0  0  0  0  0  0  0
   19.0617  -20.7911   22.4466 C   0  0  0  0  0  0  0  0  0  0  0  0
   17.9212  -20.0897   22.2029 N   0  0  0  0  0  0  0  0  0  0  0  0
   14.7879  -20.9627   24.3294 C   0  0  0  0  0  0  0  0  0  0  0  0
   13.9332  -20.2634   24.9326 O   0  0  0  0  0  0  0  0  0  0  0  0
   15.9537  -21.3446   24.9637 O   0  0  0  0  0  0  0  0  0  0  0  0
  2  3  2  0
  2  1  1  0
  4  2  1  0
  5  4  1  0
  5  6  1  0
  6  8  1  0
  6  7  1  1
  8  9  2  0
 10 11  1  0
 10  8  1  0
 11 12  1  1
 13 12  1  0
 14 13  2  0
 15 18  1  0
 15 11  1  0
 16 15  2  0
 17 13  1  0
 19 18  1  0
 19 20  1  6
 21 20  1  0
 22 21  2  0
 23 22  1  0
 24 23  1  0
 24 25  2  0
 25 21  1  0
 26 28  1  0
 26 19  1  0
 27 26  2  0
M  END
$$$$
