QDH.pdb
     RDKit          3D

 28 28  0  0  1  0  0  0  0  0999 V2000
    8.8689  -13.1731   16.3410 N   0  0  0  0  0  0  0  0  0  0  0  0
    7.6198  -13.5137   16.9157 C   0  0  0  0  0  0  0  0  0  0  0  0
    6.6862  -13.9224   16.1959 O   0  0  0  0  0  0  0  0  0  0  0  0
    7.4224  -13.3841   18.3739 C   0  0  0  0  0  0  0  0  0  0  0  0
    8.7574  -13.4173   19.0609 C   0  0  0  0  0  0  0  0  0  0  0  0
    9.3556  -14.8119   19.0291 C   0  0  2  0  0  0  0  0  0  0  0  0
    8.3833  -15.8193   18.7458 N   0  0  0  0  0  0  0  0  0  0  0  0
   10.0408  -15.0291   20.3352 C   0  0  0  0  0  0  0  0  0  0  0  0
   10.8727  -14.2262   20.7848 O   0  0  0  0  0  0  0  0  0  0  0  0
    9.7947  -16.1626   21.1569 N   0  0  0  0  0  0  0  0  0  0  0  0
   10.4700  -16.4652   22.3452 C   0  0  1  0  0  0  0  0  0  0  0  0
   10.0084  -17.5852   23.1855 C   0  0  0  0  0  0  0  0  0  0  0  0
   10.2209  -17.3674   24.6409 C   0  0  0  0  0  0  0  0  0  0  0  0
    9.3010  -17.3482   25.4919 O   0  0  0  0  0  0  0  0  0  0  0  0
   11.9097  -16.6880   22.0521 C   0  0  0  0  0  0  0  0  0  0  0  0
   12.3336  -17.6238   21.3270 O   0  0  0  0  0  0  0  0  0  0  0  0
   11.5196  -17.1731   25.0869 O   0  0  0  0  0  0  0  0  0  0  0  0
   12.8552  -15.7982   22.6203 N   0  0  0  0  0  0  0  0  0  0  0  0
   14.2648  -15.9492   22.3157 C   0  0  1  0  0  0  0  0  0  0  0  0
   14.8026  -14.6177   21.8295 C   0  0  0  0  0  0  0  0  0  0  0  0
   14.5347  -14.4125   20.3966 C   0  0  0  0  0  0  0  0  0  0  0  0
   13.9844  -15.3442   19.5387 C   0  0  0  0  0  0  0  0  0  0  0  0
   13.8898  -14.8007   18.3062 N   0  0  0  0  0  0  0  0  0  0  0  0
   14.3688  -13.5472   18.3707 C   0  0  0  0  0  0  0  0  0  0  0  0
   14.7618  -13.3163   19.6530 N   0  0  0  0  0  0  0  0  0  0  0  0
   15.0111  -16.4027   23.5182 C   0  0  0  0  0  0  0  0  0  0  0  0
   16.2520  -16.6016   23.4549 O   0  0  0  0  0  0  0  0  0  0  0  0
   14.3295  -16.6028   24.7024 O   0  0  0  0  0  0  0  0  0  0  0  0
  2  3  2  0
  2  1  1  0
  4  2  1  0
  5  4  1  0
  5  6  1  0
  6  8  1  0
  6  7  1  1
  8  9  2  0
 10 11  1  0
 10  8  1  0
 11 12  1  6
 13 12  1  0
 14 13  2  0
 15 18  1  0
 15 11  1  0
 16 15  2  0
 17 13  1  0
 19 18  1  0
 19 20  1  1
 21 20  1  0
 22 21  2  0
 23 22  1  0
 24 23  1  0
 24 25  2  0
 25 21  1  0
 26 28  1  0
 26 19  1  0
 27 26  2  0
M  END
$$$$
