QDH.pdb
     RDKit          3D

 28 28  0  0  1  0  0  0  0  0999 V2000
    8.7677  -12.7177   18.9906 N   0  0  0  0  0  0  0  0  0  0  0  0
    8.3588  -13.5269   17.9022 C   0  0  0  0  0  0  0  0  0  0  0  0
    8.0737  -13.0078   16.8041 O   0  0  0  0  0  0  0  0  0  0  0  0
    8.2697  -14.9919   18.0690 C   0  0  0  0  0  0  0  0  0  0  0  0
    8.6388  -15.3549   19.4787 C   0  0  0  0  0  0  0  0  0  0  0  0
    8.6400  -16.8601   19.6746 C   0  0  2  0  0  0  0  0  0  0  0  0
    7.3688  -17.4500   19.3979 N   0  0  0  0  0  0  0  0  0  0  0  0
    9.1027  -17.1244   21.0670 C   0  0  0  0  0  0  0  0  0  0  0  0
    8.3187  -17.4490   21.9718 O   0  0  0  0  0  0  0  0  0  0  0  0
   10.4653  -17.0252   21.4595 N   0  0  0  0  0  0  0  0  0  0  0  0
   10.9501  -17.2055   22.7602 C   0  0  1  0  0  0  0  0  0  0  0  0
   12.3951  -17.3933   22.9842 C   0  0  0  0  0  0  0  0  0  0  0  0
   13.0069  -18.4252   22.1059 C   0  0  0  0  0  0  0  0  0  0  0  0
   12.5468  -19.5805   21.9506 O   0  0  0  0  0  0  0  0  0  0  0  0
   10.5074  -16.0725   23.6138 C   0  0  0  0  0  0  0  0  0  0  0  0
   10.7254  -14.8662   23.3338 O   0  0  0  0  0  0  0  0  0  0  0  0
   14.1607  -18.0893   21.4135 O   0  0  0  0  0  0  0  0  0  0  0  0
    9.8018  -16.3676   24.8070 N   0  0  0  0  0  0  0  0  0  0  0  0
    9.2750  -15.2898   25.6215 C   0  0  1  0  0  0  0  0  0  0  0  0
    7.8084  -15.1001   25.2876 C   0  0  0  0  0  0  0  0  0  0  0  0
    7.2075  -14.0101   26.0737 C   0  0  0  0  0  0  0  0  0  0  0  0
    7.8609  -13.2431   27.0179 C   0  0  0  0  0  0  0  0  0  0  0  0
    6.9913  -12.3454   27.5292 N   0  0  0  0  0  0  0  0  0  0  0  0
    5.8050  -12.5316   26.9266 C   0  0  0  0  0  0  0  0  0  0  0  0
    5.9446  -13.5519   26.0370 N   0  0  0  0  0  0  0  0  0  0  0  0
    9.4431  -15.5991   27.0653 C   0  0  0  0  0  0  0  0  0  0  0  0
    9.3422  -14.6849   27.9241 O   0  0  0  0  0  0  0  0  0  0  0  0
    9.7104  -16.8973   27.4530 O   0  0  0  0  0  0  0  0  0  0  0  0
  2  3  2  0
  2  1  1  0
  4  2  1  0
  5  4  1  0
  5  6  1  0
  6  8  1  0
  6  7  1  1
  8  9  2  0
 10 11  1  0
 10  8  1  0
 11 12  1  6
 13 12  1  0
 14 13  2  0
 15 18  1  0
 15 11  1  0
 16 15  2  0
 17 13  1  0
 19 18  1  0
 19 20  1  1
 21 20  1  0
 22 21  2  0
 23 22  1  0
 24 23  1  0
 24 25  2  0
 25 21  1  0
 26 28  1  0
 26 19  1  0
 27 26  2  0
M  END
$$$$
