QDH.pdb
     RDKit          3D

 28 28  0  0  1  0  0  0  0  0999 V2000
    8.1520  -15.4711   16.4597 N   0  0  0  0  0  0  0  0  0  0  0  0
    7.5180  -14.2090   16.3514 C   0  0  0  0  0  0  0  0  0  0  0  0
    7.1528  -13.7815   15.2375 O   0  0  0  0  0  0  0  0  0  0  0  0
    7.2885  -13.3959   17.5630 C   0  0  0  0  0  0  0  0  0  0  0  0
    7.6786  -14.1907   18.7761 C   0  0  0  0  0  0  0  0  0  0  0  0
    8.8972  -13.5924   19.4548 C   0  0  2  0  0  0  0  0  0  0  0  0
    9.8905  -13.1654   18.5212 N   0  0  0  0  0  0  0  0  0  0  0  0
    9.4134  -14.6101   20.4142 C   0  0  0  0  0  0  0  0  0  0  0  0
    8.6628  -15.2379   21.1765 O   0  0  0  0  0  0  0  0  0  0  0  0
   10.7926  -14.9352   20.5267 N   0  0  0  0  0  0  0  0  0  0  0  0
   11.3376  -15.8589   21.4264 C   0  0  1  0  0  0  0  0  0  0  0  0
   12.7180  -16.3404   21.2360 C   0  0  0  0  0  0  0  0  0  0  0  0
   12.9949  -16.8323   19.8605 C   0  0  0  0  0  0  0  0  0  0  0  0
   13.9167  -16.3995   19.1299 O   0  0  0  0  0  0  0  0  0  0  0  0
   11.2367  -15.3211   22.8080 C   0  0  0  0  0  0  0  0  0  0  0  0
   11.7120  -14.2105   23.1569 O   0  0  0  0  0  0  0  0  0  0  0  0
   12.1821  -17.8344   19.3519 O   0  0  0  0  0  0  0  0  0  0  0  0
   10.5691  -16.1020   23.7844 N   0  0  0  0  0  0  0  0  0  0  0  0
    9.7790  -15.4536   24.8129 C   0  0  1  0  0  0  0  0  0  0  0  0
    8.6330  -14.7135   24.1515 C   0  0  0  0  0  0  0  0  0  0  0  0
    7.7778  -14.0376   25.1410 C   0  0  0  0  0  0  0  0  0  0  0  0
    8.0033  -13.9916   26.5026 C   0  0  0  0  0  0  0  0  0  0  0  0
    7.0110  -13.2855   27.0859 N   0  0  0  0  0  0  0  0  0  0  0  0
    6.1664  -12.8866   26.1203 C   0  0  0  0  0  0  0  0  0  0  0  0
    6.6419  -13.3504   24.9325 N   0  0  0  0  0  0  0  0  0  0  0  0
    9.2604  -16.4560   25.7798 C   0  0  0  0  0  0  0  0  0  0  0  0
    8.6640  -16.0801   26.8220 O   0  0  0  0  0  0  0  0  0  0  0  0
    9.4400  -17.8009   25.5223 O   0  0  0  0  0  0  0  0  0  0  0  0
  2  3  2  0
  2  1  1  0
  4  2  1  0
  5  4  1  0
  5  6  1  0
  6  8  1  0
  6  7  1  6
  8  9  2  0
 10 11  1  0
 10  8  1  0
 11 12  1  6
 13 12  1  0
 14 13  2  0
 15 18  1  0
 15 11  1  0
 16 15  2  0
 17 13  1  0
 19 18  1  0
 19 20  1  6
 21 20  1  0
 22 21  2  0
 23 22  1  0
 24 23  1  0
 24 25  2  0
 25 21  1  0
 26 28  1  0
 26 19  1  0
 27 26  2  0
M  END
$$$$
