QDH.pdb
     RDKit          3D

 28 28  0  0  1  0  0  0  0  0999 V2000
    8.7087  -12.3902   18.4758 N   0  0  0  0  0  0  0  0  0  0  0  0
    7.9034  -13.3769   17.8557 C   0  0  0  0  0  0  0  0  0  0  0  0
    7.9543  -13.5458   16.6205 O   0  0  0  0  0  0  0  0  0  0  0  0
    6.9997  -14.2093   18.6757 C   0  0  0  0  0  0  0  0  0  0  0  0
    7.4230  -14.1331   20.1146 C   0  0  0  0  0  0  0  0  0  0  0  0
    8.7667  -14.8064   20.3270 C   0  0  2  0  0  0  0  0  0  0  0  0
    9.1644  -15.6014   19.2088 N   0  0  0  0  0  0  0  0  0  0  0  0
    8.6705  -15.5979   21.5867 C   0  0  0  0  0  0  0  0  0  0  0  0
    7.6304  -15.6395   22.2613 O   0  0  0  0  0  0  0  0  0  0  0  0
    9.7539  -16.3580   22.1053 N   0  0  0  0  0  0  0  0  0  0  0  0
    9.7029  -17.1712   23.2436 C   0  0  1  0  0  0  0  0  0  0  0  0
   10.5838  -18.3492   23.3426 C   0  0  0  0  0  0  0  0  0  0  0  0
   10.2638  -19.2400   24.4893 C   0  0  0  0  0  0  0  0  0  0  0  0
    9.2220  -19.1519   25.1803 O   0  0  0  0  0  0  0  0  0  0  0  0
    9.9276  -16.3400   24.4548 C   0  0  0  0  0  0  0  0  0  0  0  0
   10.9382  -15.6097   24.6176 O   0  0  0  0  0  0  0  0  0  0  0  0
   11.1756  -20.2325   24.8164 O   0  0  0  0  0  0  0  0  0  0  0  0
    8.9505  -16.3723   25.4810 N   0  0  0  0  0  0  0  0  0  0  0  0
    9.1881  -15.6725   26.7285 C   0  0  1  0  0  0  0  0  0  0  0  0
    7.8717  -15.1125   27.2303 C   0  0  0  0  0  0  0  0  0  0  0  0
    7.5306  -13.8441   26.5656 C   0  0  0  0  0  0  0  0  0  0  0  0
    8.3543  -13.1337   25.7149 C   0  0  0  0  0  0  0  0  0  0  0  0
    7.7030  -12.0257   25.3007 N   0  0  0  0  0  0  0  0  0  0  0  0
    6.4874  -12.0242   25.8727 C   0  0  0  0  0  0  0  0  0  0  0  0
    6.3887  -13.1400   26.6455 N   0  0  0  0  0  0  0  0  0  0  0  0
    9.7792  -16.5914   27.7359 C   0  0  0  0  0  0  0  0  0  0  0  0
   10.0247  -16.1808   28.8997 O   0  0  0  0  0  0  0  0  0  0  0  0
   10.0554  -17.8973   27.3814 O   0  0  0  0  0  0  0  0  0  0  0  0
  2  3  2  0
  2  1  1  0
  4  2  1  0
  5  4  1  0
  5  6  1  0
  6  8  1  0
  6  7  1  6
  8  9  2  0
 10 11  1  0
 10  8  1  0
 11 12  1  6
 13 12  1  0
 14 13  2  0
 15 18  1  0
 15 11  1  0
 16 15  2  0
 17 13  1  0
 19 18  1  0
 19 20  1  1
 21 20  1  0
 22 21  2  0
 23 22  1  0
 24 23  1  0
 24 25  2  0
 25 21  1  0
 26 28  1  0
 26 19  1  0
 27 26  2  0
M  END
$$$$
