QDH.pdb
     RDKit          3D

 28 28  0  0  1  0  0  0  0  0999 V2000
    9.0824  -15.8867   13.1458 N   0  0  0  0  0  0  0  0  0  0  0  0
    8.3153  -15.2917   14.1775 C   0  0  0  0  0  0  0  0  0  0  0  0
    7.0704  -15.3733   14.1632 O   0  0  0  0  0  0  0  0  0  0  0  0
    8.9932  -14.5718   15.2748 C   0  0  0  0  0  0  0  0  0  0  0  0
    8.8723  -15.3693   16.5416 C   0  0  0  0  0  0  0  0  0  0  0  0
    9.7853  -16.5816   16.5152 C   0  0  2  0  0  0  0  0  0  0  0  0
    9.2475  -17.6563   15.7431 N   0  0  0  0  0  0  0  0  0  0  0  0
   10.0471  -16.9689   17.9308 C   0  0  0  0  0  0  0  0  0  0  0  0
    9.2232  -17.6082   18.6025 O   0  0  0  0  0  0  0  0  0  0  0  0
   11.2501  -16.6377   18.6119 N   0  0  0  0  0  0  0  0  0  0  0  0
   11.5456  -16.9624   19.9411 C   0  0  1  0  0  0  0  0  0  0  0  0
   12.9417  -17.2182   20.3399 C   0  0  0  0  0  0  0  0  0  0  0  0
   13.0857  -17.6895   21.7427 C   0  0  0  0  0  0  0  0  0  0  0  0
   12.3892  -18.5962   22.2561 O   0  0  0  0  0  0  0  0  0  0  0  0
   11.0090  -15.9064   20.8385 C   0  0  0  0  0  0  0  0  0  0  0  0
   11.5383  -14.7735   20.9710 O   0  0  0  0  0  0  0  0  0  0  0  0
   14.0522  -17.0884   22.5351 O   0  0  0  0  0  0  0  0  0  0  0  0
    9.8383  -16.1917   21.5847 N   0  0  0  0  0  0  0  0  0  0  0  0
    9.3399  -15.2270   22.5456 C   0  0  1  0  0  0  0  0  0  0  0  0
    7.8903  -14.9229   22.2222 C   0  0  0  0  0  0  0  0  0  0  0  0
    7.7562  -14.2085   20.9420 C   0  0  0  0  0  0  0  0  0  0  0  0
    8.1789  -12.9179   20.6919 C   0  0  0  0  0  0  0  0  0  0  0  0
    7.8884  -12.6038   19.4111 N   0  0  0  0  0  0  0  0  0  0  0  0
    7.2921  -13.6691   18.8506 C   0  0  0  0  0  0  0  0  0  0  0  0
    7.2144  -14.6476   19.7932 N   0  0  0  0  0  0  0  0  0  0  0  0
    9.4629  -15.7587   23.9279 C   0  0  0  0  0  0  0  0  0  0  0  0
    9.0928  -15.0627   24.9087 O   0  0  0  0  0  0  0  0  0  0  0  0
    9.9865  -17.0216   24.1234 O   0  0  0  0  0  0  0  0  0  0  0  0
  2  3  2  0
  2  1  1  0
  4  2  1  0
  5  4  1  0
  5  6  1  0
  6  8  1  0
  6  7  1  6
  8  9  2  0
 10 11  1  0
 10  8  1  0
 11 12  1  6
 13 12  1  0
 14 13  2  0
 15 18  1  0
 15 11  1  0
 16 15  2  0
 17 13  1  0
 19 18  1  0
 19 20  1  6
 21 20  1  0
 22 21  2  0
 23 22  1  0
 24 23  1  0
 24 25  2  0
 25 21  1  0
 26 28  1  0
 26 19  1  0
 27 26  2  0
M  END
$$$$
