QDH.pdb
     RDKit          3D

 28 28  0  0  1  0  0  0  0  0999 V2000
    1.5613  -20.4620   19.6975 N   0  0  0  0  0  0  0  0  0  0  0  0
    1.9949  -20.4548   18.3489 C   0  0  0  0  0  0  0  0  0  0  0  0
    1.2350  -20.8489   17.4412 O   0  0  0  0  0  0  0  0  0  0  0  0
    3.3531  -19.9784   18.0166 C   0  0  0  0  0  0  0  0  0  0  0  0
    4.0170  -19.4624   19.2610 C   0  0  0  0  0  0  0  0  0  0  0  0
    5.4357  -19.0044   18.9756 C   0  0  2  0  0  0  0  0  0  0  0  0
    6.2051  -19.9958   18.2933 N   0  0  0  0  0  0  0  0  0  0  0  0
    6.0419  -18.6055   20.2779 C   0  0  0  0  0  0  0  0  0  0  0  0
    5.5446  -17.7231   20.9939 O   0  0  0  0  0  0  0  0  0  0  0  0
    7.2255  -19.2011   20.7930 N   0  0  0  0  0  0  0  0  0  0  0  0
    7.8814  -18.8172   21.9685 C   0  0  1  0  0  0  0  0  0  0  0  0
    8.4970  -19.8414   22.8320 C   0  0  0  0  0  0  0  0  0  0  0  0
    7.5746  -20.3871   23.8627 C   0  0  0  0  0  0  0  0  0  0  0  0
    6.5366  -21.0401   23.6041 O   0  0  0  0  0  0  0  0  0  0  0  0
    8.9295  -17.8148   21.6445 C   0  0  0  0  0  0  0  0  0  0  0  0
    9.8313  -18.0054   20.7892 O   0  0  0  0  0  0  0  0  0  0  0  0
    7.8811  -20.1598   25.1960 O   0  0  0  0  0  0  0  0  0  0  0  0
    8.9115  -16.5781   22.3366 N   0  0  0  0  0  0  0  0  0  0  0  0
    9.9062  -15.5666   22.0367 C   0  0  1  0  0  0  0  0  0  0  0  0
    9.2042  -14.2371   21.8418 C   0  0  0  0  0  0  0  0  0  0  0  0
    8.5245  -14.1660   20.5379 C   0  0  0  0  0  0  0  0  0  0  0  0
    7.5718  -13.2342   20.1761 C   0  0  0  0  0  0  0  0  0  0  0  0
    7.1772  -13.4826   18.9088 N   0  0  0  0  0  0  0  0  0  0  0  0
    7.8612  -14.5507   18.4661 C   0  0  0  0  0  0  0  0  0  0  0  0
    8.6840  -14.9639   19.4683 N   0  0  0  0  0  0  0  0  0  0  0  0
   10.9003  -15.4725   23.1373 C   0  0  0  0  0  0  0  0  0  0  0  0
   11.9194  -14.7456   23.0088 O   0  0  0  0  0  0  0  0  0  0  0  0
   10.6939  -16.1895   24.2994 O   0  0  0  0  0  0  0  0  0  0  0  0
  2  3  2  0
  2  1  1  0
  4  2  1  0
  5  4  1  0
  5  6  1  0
  6  8  1  0
  6  7  1  1
  8  9  2  0
 10 11  1  0
 10  8  1  0
 11 12  1  6
 13 12  1  0
 14 13  2  0
 15 18  1  0
 15 11  1  0
 16 15  2  0
 17 13  1  0
 19 18  1  0
 19 20  1  1
 21 20  1  0
 22 21  2  0
 23 22  1  0
 24 23  1  0
 24 25  2  0
 25 21  1  0
 26 28  1  0
 26 19  1  0
 27 26  2  0
M  END
$$$$
