QDH.pdb
     RDKit          3D

 28 28  0  0  1  0  0  0  0  0999 V2000
    8.0754  -14.5719   15.0570 N   0  0  0  0  0  0  0  0  0  0  0  0
    8.4217  -13.7119   16.1281 C   0  0  0  0  0  0  0  0  0  0  0  0
    9.4776  -13.0484   16.0865 O   0  0  0  0  0  0  0  0  0  0  0  0
    7.5282  -13.6006   17.2991 C   0  0  0  0  0  0  0  0  0  0  0  0
    8.3309  -13.7813   18.5555 C   0  0  0  0  0  0  0  0  0  0  0  0
    9.1044  -15.0870   18.5286 C   0  0  2  0  0  0  0  0  0  0  0  0
    8.2950  -16.1957   18.1333 N   0  0  0  0  0  0  0  0  0  0  0  0
    9.7076  -15.2715   19.8794 C   0  0  0  0  0  0  0  0  0  0  0  0
   10.3709  -14.3811   20.4324 O   0  0  0  0  0  0  0  0  0  0  0  0
    9.5694  -16.4713   20.6291 N   0  0  0  0  0  0  0  0  0  0  0  0
   10.2466  -16.7677   21.8178 C   0  0  1  0  0  0  0  0  0  0  0  0
    9.8392  -17.9344   22.6219 C   0  0  0  0  0  0  0  0  0  0  0  0
    9.1566  -18.9944   21.8338 C   0  0  0  0  0  0  0  0  0  0  0  0
    9.5518  -19.4076   20.7186 O   0  0  0  0  0  0  0  0  0  0  0  0
   11.6999  -16.9011   21.5382 C   0  0  0  0  0  0  0  0  0  0  0  0
   12.1700  -17.6679   20.6594 O   0  0  0  0  0  0  0  0  0  0  0  0
    8.0090  -19.5633   22.3655 O   0  0  0  0  0  0  0  0  0  0  0  0
   12.6042  -16.1225   22.3028 N   0  0  0  0  0  0  0  0  0  0  0  0
   14.0314  -16.3524   22.1901 C   0  0  1  0  0  0  0  0  0  0  0  0
   14.6693  -15.1407   21.5393 C   0  0  0  0  0  0  0  0  0  0  0  0
   14.3473  -15.0601   20.1050 C   0  0  0  0  0  0  0  0  0  0  0  0
   14.5569  -16.0592   19.1752 C   0  0  0  0  0  0  0  0  0  0  0  0
   14.1400  -15.6252   17.9664 N   0  0  0  0  0  0  0  0  0  0  0  0
   13.6727  -14.3746   18.1162 C   0  0  0  0  0  0  0  0  0  0  0  0
   13.8026  -14.0351   19.4277 N   0  0  0  0  0  0  0  0  0  0  0  0
   14.6264  -16.5955   23.5300 C   0  0  0  0  0  0  0  0  0  0  0  0
   13.9207  -16.4822   24.5656 O   0  0  0  0  0  0  0  0  0  0  0  0
   15.9587  -16.9463   23.6257 O   0  0  0  0  0  0  0  0  0  0  0  0
  2  3  2  0
  2  1  1  0
  4  2  1  0
  5  4  1  0
  5  6  1  0
  6  8  1  0
  6  7  1  1
  8  9  2  0
 10 11  1  0
 10  8  1  0
 11 12  1  6
 13 12  1  0
 14 13  2  0
 15 18  1  0
 15 11  1  0
 16 15  2  0
 17 13  1  0
 19 18  1  0
 19 20  1  1
 21 20  1  0
 22 21  2  0
 23 22  1  0
 24 23  1  0
 24 25  2  0
 25 21  1  0
 26 28  1  0
 26 19  1  0
 27 26  2  0
M  END
$$$$
