KGP.pdb
     RDKit          3D

 21 21  0  0  1  0  0  0  0  0999 V2000
    6.8271  -20.6109   23.3837 N   0  0  0  0  0  0  0  0  0  0  0  0
    6.6338  -19.3668   22.7155 C   0  0  1  0  0  0  0  0  0  0  0  0
    5.8757  -19.4597   21.4425 C   0  0  0  0  0  0  0  0  0  0  0  0
    6.6300  -19.2690   20.1836 C   0  0  0  0  0  0  0  0  0  0  0  0
    7.0118  -20.5316   19.4654 C   0  0  0  0  0  0  0  0  0  0  0  0
    7.6332  -20.2726   18.1048 C   0  0  0  0  0  0  0  0  0  0  0  0
    7.9953  -21.5577   17.5529 N   0  0  0  0  0  0  0  0  0  0  0  0
    6.0971  -18.3068   23.6316 C   0  0  0  0  0  0  0  0  0  0  0  0
    4.9443  -18.3648   24.1323 O   0  0  0  0  0  0  0  0  0  0  0  0
    6.8776  -17.1688   23.9830 N   0  0  0  0  0  0  0  0  0  0  0  0
    6.4121  -16.1697   24.9223 C   0  0  0  0  0  0  0  0  0  0  0  0
    7.4640  -15.1042   25.0838 C   0  0  0  0  0  0  0  0  0  0  0  0
    8.5038  -15.1499   24.3749 O   0  0  0  0  0  0  0  0  0  0  0  0
    7.2651  -14.0661   26.0328 N   0  0  0  0  0  0  0  0  0  0  0  0
    6.0953  -13.8856   26.8666 C   0  0  0  0  0  0  0  0  0  0  0  0
    6.1314  -12.4804   27.3780 C   0  0  0  0  0  0  0  0  0  0  0  0
    7.2268  -11.8306   26.5578 C   0  0  0  0  0  0  0  0  0  0  0  0
    8.1793  -13.0032   26.3460 C   0  0  1  0  0  0  0  0  0  0  0  0
    8.8604  -13.2610   27.6253 C   0  0  0  0  0  0  0  0  0  0  0  0
    8.4466  -14.1987   28.3515 O   0  0  0  0  0  0  0  0  0  0  0  0
    9.9385  -12.5112   28.0592 O   0  0  0  0  0  0  0  0  0  0  0  0
  2  8  1  0
  2  1  1  1
  3  2  1  0
  4  3  1  0
  5  4  1  0
  6  5  1  0
  7  6  1  0
  8  9  2  0
 10  8  1  0
 10 11  1  0
 12 14  1  0
 12 11  1  0
 13 12  2  0
 14 18  1  0
 15 14  1  0
 15 16  1  0
 16 17  1  0
 18 19  1  1
 18 17  1  0
 19 21  1  0
 20 19  2  0
M  END
$$$$
