KGP.pdb
     RDKit          3D

 21 21  0  0  1  0  0  0  0  0999 V2000
    5.7493  -16.8449   21.7281 N   0  0  0  0  0  0  0  0  0  0  0  0
    6.9738  -16.1153   21.7289 C   0  0  1  0  0  0  0  0  0  0  0  0
    7.1853  -15.2608   20.5335 C   0  0  0  0  0  0  0  0  0  0  0  0
    7.3409  -15.9401   19.2279 C   0  0  0  0  0  0  0  0  0  0  0  0
    8.7151  -16.4738   18.9407 C   0  0  0  0  0  0  0  0  0  0  0  0
    8.7860  -17.2544   17.6407 C   0  0  0  0  0  0  0  0  0  0  0  0
   10.1239  -17.7904   17.5407 N   0  0  0  0  0  0  0  0  0  0  0  0
    7.1936  -15.3746   23.0149 C   0  0  0  0  0  0  0  0  0  0  0  0
    7.2911  -14.1213   23.0663 O   0  0  0  0  0  0  0  0  0  0  0  0
    7.3037  -16.0643   24.2559 N   0  0  0  0  0  0  0  0  0  0  0  0
    7.5861  -15.3800   25.5005 C   0  0  0  0  0  0  0  0  0  0  0  0
    9.0455  -15.5353   25.8385 C   0  0  0  0  0  0  0  0  0  0  0  0
    9.8310  -16.0157   24.9794 O   0  0  0  0  0  0  0  0  0  0  0  0
    9.5105  -15.1374   27.1203 N   0  0  0  0  0  0  0  0  0  0  0  0
    8.7359  -14.4523   28.1337 C   0  0  0  0  0  0  0  0  0  0  0  0
    9.7066  -13.8708   29.1119 C   0  0  0  0  0  0  0  0  0  0  0  0
   11.0472  -14.0390   28.4268 C   0  0  0  0  0  0  0  0  0  0  0  0
   10.8291  -15.3363   27.6545 C   0  0  1  0  0  0  0  0  0  0  0  0
   10.8366  -16.4410   28.6274 C   0  0  0  0  0  0  0  0  0  0  0  0
   11.9323  -16.7987   29.1266 O   0  0  0  0  0  0  0  0  0  0  0  0
    9.6840  -17.1009   29.0136 O   0  0  0  0  0  0  0  0  0  0  0  0
  2  8  1  0
  2  1  1  1
  3  2  1  0
  4  3  1  0
  5  4  1  0
  6  5  1  0
  7  6  1  0
  8  9  2  0
 10  8  1  0
 10 11  1  0
 12 14  1  0
 12 11  1  0
 13 12  2  0
 14 18  1  0
 15 14  1  0
 15 16  1  0
 16 17  1  0
 18 19  1  1
 18 17  1  0
 19 21  1  0
 20 19  2  0
M  END
$$$$
