KGP.pdb
     RDKit          3D

 21 21  0  0  1  0  0  0  0  0999 V2000
    6.8652  -15.9110   20.5522 N   0  0  0  0  0  0  0  0  0  0  0  0
    7.4340  -14.7163   21.0822 C   0  0  1  0  0  0  0  0  0  0  0  0
    6.9996  -13.4700   20.4025 C   0  0  0  0  0  0  0  0  0  0  0  0
    7.2039  -13.3840   18.9392 C   0  0  0  0  0  0  0  0  0  0  0  0
    8.5630  -13.8008   18.4544 C   0  0  0  0  0  0  0  0  0  0  0  0
    8.6695  -13.8212   16.9402 C   0  0  0  0  0  0  0  0  0  0  0  0
   10.0293  -14.1857   16.6160 N   0  0  0  0  0  0  0  0  0  0  0  0
    7.3016  -14.6369   22.5745 C   0  0  0  0  0  0  0  0  0  0  0  0
    6.2343  -14.2877   23.1419 O   0  0  0  0  0  0  0  0  0  0  0  0
    8.3925  -14.9573   23.4317 N   0  0  0  0  0  0  0  0  0  0  0  0
    8.2798  -14.9239   24.8751 C   0  0  0  0  0  0  0  0  0  0  0  0
    9.6003  -15.3056   25.4904 C   0  0  0  0  0  0  0  0  0  0  0  0
   10.5480  -15.6679   24.7443 O   0  0  0  0  0  0  0  0  0  0  0  0
    9.7540  -15.2505   26.9014 N   0  0  0  0  0  0  0  0  0  0  0  0
    8.7401  -14.8510   27.8548 C   0  0  0  0  0  0  0  0  0  0  0  0
    9.4412  -14.5392   29.1388 C   0  0  0  0  0  0  0  0  0  0  0  0
   10.9053  -14.5227   28.7506 C   0  0  0  0  0  0  0  0  0  0  0  0
   10.9361  -15.5778   27.6492 C   0  0  1  0  0  0  0  0  0  0  0  0
   10.7994  -16.8958   28.2904 C   0  0  0  0  0  0  0  0  0  0  0  0
    9.6839  -17.4722   28.2541 O   0  0  0  0  0  0  0  0  0  0  0  0
   11.8513  -17.5247   28.9314 O   0  0  0  0  0  0  0  0  0  0  0  0
  2  8  1  0
  2  1  1  6
  3  2  1  0
  4  3  1  0
  5  4  1  0
  6  5  1  0
  7  6  1  0
  8  9  2  0
 10  8  1  0
 10 11  1  0
 12 14  1  0
 12 11  1  0
 13 12  2  0
 14 18  1  0
 15 14  1  0
 15 16  1  0
 16 17  1  0
 18 19  1  1
 18 17  1  0
 19 21  1  0
 20 19  2  0
M  END
$$$$
