KGP.pdb
     RDKit          3D

 21 21  0  0  1  0  0  0  0  0999 V2000
    6.2286  -19.0121   25.4279 N   0  0  0  0  0  0  0  0  0  0  0  0
    7.5965  -18.6128   25.3953 C   0  0  1  0  0  0  0  0  0  0  0  0
    8.5122  -19.5939   24.7605 C   0  0  0  0  0  0  0  0  0  0  0  0
    8.1381  -20.1119   23.4256 C   0  0  0  0  0  0  0  0  0  0  0  0
    9.0506  -21.1655   22.8661 C   0  0  0  0  0  0  0  0  0  0  0  0
    8.6158  -21.6576   21.4975 C   0  0  0  0  0  0  0  0  0  0  0  0
    9.6434  -22.5558   21.0239 N   0  0  0  0  0  0  0  0  0  0  0  0
    7.7709  -17.2249   24.8530 C   0  0  0  0  0  0  0  0  0  0  0  0
    8.8929  -16.6592   24.7883 O   0  0  0  0  0  0  0  0  0  0  0  0
    6.6596  -16.4711   24.3792 N   0  0  0  0  0  0  0  0  0  0  0  0
    6.8170  -15.2022   23.6993 C   0  0  0  0  0  0  0  0  0  0  0  0
    6.9775  -15.4416   22.2211 C   0  0  0  0  0  0  0  0  0  0  0  0
    6.5775  -16.5273   21.7240 O   0  0  0  0  0  0  0  0  0  0  0  0
    7.5770  -14.4388   21.4134 N   0  0  0  0  0  0  0  0  0  0  0  0
    7.9930  -13.1240   21.8547 C   0  0  0  0  0  0  0  0  0  0  0  0
    8.1661  -12.2826   20.6302 C   0  0  0  0  0  0  0  0  0  0  0  0
    7.5563  -13.1256   19.5293 C   0  0  0  0  0  0  0  0  0  0  0  0
    7.8840  -14.5347   20.0133 C   0  0  1  0  0  0  0  0  0  0  0  0
    9.3255  -14.7523   19.8091 C   0  0  0  0  0  0  0  0  0  0  0  0
    9.7347  -15.0474   18.6588 O   0  0  0  0  0  0  0  0  0  0  0  0
   10.2474  -14.6446   20.8345 O   0  0  0  0  0  0  0  0  0  0  0  0
  2  8  1  0
  2  1  1  6
  3  2  1  0
  4  3  1  0
  5  4  1  0
  6  5  1  0
  7  6  1  0
  8  9  2  0
 10  8  1  0
 10 11  1  0
 12 14  1  0
 12 11  1  0
 13 12  2  0
 14 18  1  0
 15 14  1  0
 15 16  1  0
 16 17  1  0
 18 19  1  1
 18 17  1  0
 19 21  1  0
 20 19  2  0
M  END
$$$$
