KGP.pdb
     RDKit          3D

 21 21  0  0  1  0  0  0  0  0999 V2000
    7.7756  -19.5608   22.7983 N   0  0  0  0  0  0  0  0  0  0  0  0
    6.4295  -19.1795   22.5255 C   0  0  1  0  0  0  0  0  0  0  0  0
    5.4492  -20.2934   22.5741 C   0  0  0  0  0  0  0  0  0  0  0  0
    5.7263  -21.4831   21.7386 C   0  0  0  0  0  0  0  0  0  0  0  0
    6.7598  -22.4259   22.2852 C   0  0  0  0  0  0  0  0  0  0  0  0
    6.9415  -23.6652   21.4276 C   0  0  0  0  0  0  0  0  0  0  0  0
    8.0553  -24.4021   21.9785 N   0  0  0  0  0  0  0  0  0  0  0  0
    5.9983  -17.9946   23.3384 C   0  0  0  0  0  0  0  0  0  0  0  0
    4.9704  -17.3230   23.0639 O   0  0  0  0  0  0  0  0  0  0  0  0
    6.7423  -17.5675   24.4750 N   0  0  0  0  0  0  0  0  0  0  0  0
    6.3713  -16.4025   25.2511 C   0  0  0  0  0  0  0  0  0  0  0  0
    7.4999  -15.4057   25.2303 C   0  0  0  0  0  0  0  0  0  0  0  0
    8.5117  -15.6326   24.5156 O   0  0  0  0  0  0  0  0  0  0  0  0
    7.4037  -14.2269   26.0170 N   0  0  0  0  0  0  0  0  0  0  0  0
    6.2339  -13.7795   26.7434 C   0  0  0  0  0  0  0  0  0  0  0  0
    6.4402  -12.3329   27.0629 C   0  0  0  0  0  0  0  0  0  0  0  0
    7.6501  -11.9538   26.2339 C   0  0  0  0  0  0  0  0  0  0  0  0
    8.4406  -13.2584   26.2420 C   0  0  1  0  0  0  0  0  0  0  0  0
    9.0220  -13.4192   27.5847 C   0  0  0  0  0  0  0  0  0  0  0  0
    9.9955  -12.6958   27.9119 O   0  0  0  0  0  0  0  0  0  0  0  0
    8.5384  -14.3357   28.5007 O   0  0  0  0  0  0  0  0  0  0  0  0
  2  8  1  0
  2  1  1  1
  3  2  1  0
  4  3  1  0
  5  4  1  0
  6  5  1  0
  7  6  1  0
  8  9  2  0
 10  8  1  0
 10 11  1  0
 12 14  1  0
 12 11  1  0
 13 12  2  0
 14 18  1  0
 15 14  1  0
 15 16  1  0
 16 17  1  0
 18 19  1  1
 18 17  1  0
 19 21  1  0
 20 19  2  0
M  END
$$$$
