KGP.pdb
     RDKit          3D

 21 21  0  0  1  0  0  0  0  0999 V2000
    7.2340  -16.6758   19.2634 N   0  0  0  0  0  0  0  0  0  0  0  0
    7.6602  -15.4917   19.9327 C   0  0  1  0  0  0  0  0  0  0  0  0
    7.6213  -14.2628   19.1007 C   0  0  0  0  0  0  0  0  0  0  0  0
    8.7525  -13.3170   19.2273 C   0  0  0  0  0  0  0  0  0  0  0  0
   10.1191  -13.9342   19.1432 C   0  0  0  0  0  0  0  0  0  0  0  0
   11.2367  -12.9181   19.2942 C   0  0  0  0  0  0  0  0  0  0  0  0
   12.4695  -13.6602   19.4234 N   0  0  0  0  0  0  0  0  0  0  0  0
    6.9825  -15.3132   21.2592 C   0  0  0  0  0  0  0  0  0  0  0  0
    5.7401  -15.4444   21.4079 O   0  0  0  0  0  0  0  0  0  0  0  0
    7.7233  -14.9821   22.4294 N   0  0  0  0  0  0  0  0  0  0  0  0
    7.0838  -14.7036   23.6985 C   0  0  0  0  0  0  0  0  0  0  0  0
    8.1339  -14.3889   24.7310 C   0  0  0  0  0  0  0  0  0  0  0  0
    9.3445  -14.6189   24.4712 O   0  0  0  0  0  0  0  0  0  0  0  0
    7.7409  -13.8381   25.9800 N   0  0  0  0  0  0  0  0  0  0  0  0
    6.3898  -13.4997   26.3755 C   0  0  0  0  0  0  0  0  0  0  0  0
    6.4919  -12.5862   27.5555 C   0  0  0  0  0  0  0  0  0  0  0  0
    7.9632  -12.2288   27.6033 C   0  0  0  0  0  0  0  0  0  0  0  0
    8.6014  -13.5130   27.0833 C   0  0  1  0  0  0  0  0  0  0  0  0
    8.4932  -14.5265   28.1455 C   0  0  0  0  0  0  0  0  0  0  0  0
    9.2742  -14.4585   29.1269 O   0  0  0  0  0  0  0  0  0  0  0  0
    7.5649  -15.5511   28.1053 O   0  0  0  0  0  0  0  0  0  0  0  0
  2  8  1  0
  2  1  1  6
  3  2  1  0
  4  3  1  0
  5  4  1  0
  6  5  1  0
  7  6  1  0
  8  9  2  0
 10  8  1  0
 10 11  1  0
 12 14  1  0
 12 11  1  0
 13 12  2  0
 14 18  1  0
 15 14  1  0
 15 16  1  0
 16 17  1  0
 18 19  1  1
 18 17  1  0
 19 21  1  0
 20 19  2  0
M  END
$$$$
