KGP.pdb
     RDKit          3D

 21 21  0  0  1  0  0  0  0  0999 V2000
    9.0833  -17.8023   20.4811 N   0  0  0  0  0  0  0  0  0  0  0  0
    8.1854  -17.4761   21.5390 C   0  0  1  0  0  0  0  0  0  0  0  0
    8.2152  -18.4163   22.6876 C   0  0  0  0  0  0  0  0  0  0  0  0
    9.0346  -19.6406   22.5461 C   0  0  0  0  0  0  0  0  0  0  0  0
    8.9432  -20.6108   23.6889 C   0  0  0  0  0  0  0  0  0  0  0  0
    9.7580  -21.8711   23.4606 C   0  0  0  0  0  0  0  0  0  0  0  0
    9.6631  -22.6612   24.6663 N   0  0  0  0  0  0  0  0  0  0  0  0
    8.3037  -16.0419   21.9631 C   0  0  0  0  0  0  0  0  0  0  0  0
    9.3987  -15.4223   21.9580 O   0  0  0  0  0  0  0  0  0  0  0  0
    7.1664  -15.3032   22.3977 N   0  0  0  0  0  0  0  0  0  0  0  0
    7.2541  -13.9187   22.8133 C   0  0  0  0  0  0  0  0  0  0  0  0
    8.0371  -13.8288   24.0965 C   0  0  0  0  0  0  0  0  0  0  0  0
    9.2207  -14.2577   24.1296 O   0  0  0  0  0  0  0  0  0  0  0  0
    7.4273  -13.2617   25.2473 N   0  0  0  0  0  0  0  0  0  0  0  0
    6.0224  -12.9466   25.4001 C   0  0  0  0  0  0  0  0  0  0  0  0
    5.9051  -12.0069   26.5579 C   0  0  0  0  0  0  0  0  0  0  0  0
    7.3397  -11.6146   26.8454 C   0  0  0  0  0  0  0  0  0  0  0  0
    8.0816  -12.8942   26.4721 C   0  0  1  0  0  0  0  0  0  0  0  0
    7.8143  -13.8878   27.5248 C   0  0  0  0  0  0  0  0  0  0  0  0
    8.3937  -13.7648   28.6325 O   0  0  0  0  0  0  0  0  0  0  0  0
    6.9499  -14.9520   27.3421 O   0  0  0  0  0  0  0  0  0  0  0  0
  2  8  1  0
  2  1  1  6
  3  2  1  0
  4  3  1  0
  5  4  1  0
  6  5  1  0
  7  6  1  0
  8  9  2  0
 10  8  1  0
 10 11  1  0
 12 14  1  0
 12 11  1  0
 13 12  2  0
 14 18  1  0
 15 14  1  0
 15 16  1  0
 16 17  1  0
 18 19  1  1
 18 17  1  0
 19 21  1  0
 20 19  2  0
M  END
$$$$
