KGP.pdb
     RDKit          3D

 21 21  0  0  1  0  0  0  0  0999 V2000
    7.4510  -18.3946   26.8637 N   0  0  0  0  0  0  0  0  0  0  0  0
    7.7153  -18.1986   25.4768 C   0  0  1  0  0  0  0  0  0  0  0  0
    7.3453  -19.3447   24.6087 C   0  0  0  0  0  0  0  0  0  0  0  0
    7.9707  -20.6533   24.9028 C   0  0  0  0  0  0  0  0  0  0  0  0
    7.6026  -21.7670   23.9648 C   0  0  0  0  0  0  0  0  0  0  0  0
    8.3256  -23.0650   24.2761 C   0  0  0  0  0  0  0  0  0  0  0  0
    7.9046  -24.0319   23.2886 N   0  0  0  0  0  0  0  0  0  0  0  0
    7.1727  -16.8937   24.9735 C   0  0  0  0  0  0  0  0  0  0  0  0
    5.9400  -16.6463   24.9252 O   0  0  0  0  0  0  0  0  0  0  0  0
    8.0389  -15.8583   24.5201 N   0  0  0  0  0  0  0  0  0  0  0  0
    7.5614  -14.7328   23.7440 C   0  0  0  0  0  0  0  0  0  0  0  0
    7.4800  -15.1232   22.2918 C   0  0  0  0  0  0  0  0  0  0  0  0
    6.9824  -16.2368   21.9783 O   0  0  0  0  0  0  0  0  0  0  0  0
    7.9659  -14.2289   21.3009 N   0  0  0  0  0  0  0  0  0  0  0  0
    8.4717  -12.8922   21.5329 C   0  0  0  0  0  0  0  0  0  0  0  0
    8.4681  -12.1849   20.2149 C   0  0  0  0  0  0  0  0  0  0  0  0
    7.6772  -13.1120   19.3150 C   0  0  0  0  0  0  0  0  0  0  0  0
    8.0485  -14.4760   19.8883 C   0  0  1  0  0  0  0  0  0  0  0  0
    9.4357  -14.7647   19.4895 C   0  0  0  0  0  0  0  0  0  0  0  0
   10.3597  -14.5361   20.3092 O   0  0  0  0  0  0  0  0  0  0  0  0
    9.7620  -15.2779   18.2473 O   0  0  0  0  0  0  0  0  0  0  0  0
  2  8  1  0
  2  1  1  1
  3  2  1  0
  4  3  1  0
  5  4  1  0
  6  5  1  0
  7  6  1  0
  8  9  2  0
 10  8  1  0
 10 11  1  0
 12 14  1  0
 12 11  1  0
 13 12  2  0
 14 18  1  0
 15 14  1  0
 15 16  1  0
 16 17  1  0
 18 19  1  1
 18 17  1  0
 19 21  1  0
 20 19  2  0
M  END
$$$$
