KGP.pdb
     RDKit          3D

 21 21  0  0  1  0  0  0  0  0999 V2000
    6.4310  -19.7847   22.0729 N   0  0  0  0  0  0  0  0  0  0  0  0
    6.2862  -19.1143   23.3225 C   0  0  1  0  0  0  0  0  0  0  0  0
    7.2399  -19.5513   24.3729 C   0  0  0  0  0  0  0  0  0  0  0  0
    8.6731  -19.6156   24.0093 C   0  0  0  0  0  0  0  0  0  0  0  0
    9.4802  -18.3983   24.3591 C   0  0  0  0  0  0  0  0  0  0  0  0
   10.9574  -18.5594   24.0485 C   0  0  0  0  0  0  0  0  0  0  0  0
   11.5777  -17.2719   24.2595 N   0  0  0  0  0  0  0  0  0  0  0  0
    6.2426  -17.6229   23.1659 C   0  0  0  0  0  0  0  0  0  0  0  0
    6.3329  -16.8364   24.1438 O   0  0  0  0  0  0  0  0  0  0  0  0
    6.0950  -17.0179   21.8853 N   0  0  0  0  0  0  0  0  0  0  0  0
    6.4805  -15.6461   21.6271 C   0  0  0  0  0  0  0  0  0  0  0  0
    7.6721  -15.6247   20.7064 C   0  0  0  0  0  0  0  0  0  0  0  0
    8.0905  -16.7046   20.2121 O   0  0  0  0  0  0  0  0  0  0  0  0
    8.3033  -14.3868   20.4116 N   0  0  0  0  0  0  0  0  0  0  0  0
    7.9567  -13.0978   20.9726 C   0  0  0  0  0  0  0  0  0  0  0  0
    8.5688  -12.0551   20.0920 C   0  0  0  0  0  0  0  0  0  0  0  0
    9.0264  -12.8374   18.8782 C   0  0  0  0  0  0  0  0  0  0  0  0
    9.3991  -14.1764   19.5069 C   0  0  1  0  0  0  0  0  0  0  0  0
   10.6574  -13.9867   20.2468 C   0  0  0  0  0  0  0  0  0  0  0  0
   11.7274  -13.8712   19.5990 O   0  0  0  0  0  0  0  0  0  0  0  0
   10.7079  -13.9307   21.6279 O   0  0  0  0  0  0  0  0  0  0  0  0
  2  8  1  0
  2  1  1  6
  3  2  1  0
  4  3  1  0
  5  4  1  0
  6  5  1  0
  7  6  1  0
  8  9  2  0
 10  8  1  0
 10 11  1  0
 12 14  1  0
 12 11  1  0
 13 12  2  0
 14 18  1  0
 15 14  1  0
 15 16  1  0
 16 17  1  0
 18 19  1  1
 18 17  1  0
 19 21  1  0
 20 19  2  0
M  END
$$$$
