KGP.pdb
     RDKit          3D

 21 21  0  0  1  0  0  0  0  0999 V2000
    8.0551  -18.1512   21.3004 N   0  0  0  0  0  0  0  0  0  0  0  0
    6.9103  -17.3094   21.1873 C   0  0  1  0  0  0  0  0  0  0  0  0
    5.6225  -18.0332   21.0401 C   0  0  0  0  0  0  0  0  0  0  0  0
    5.4149  -19.2341   21.8797 C   0  0  0  0  0  0  0  0  0  0  0  0
    4.1899  -20.0407   21.5561 C   0  0  0  0  0  0  0  0  0  0  0  0
    3.9167  -21.1340   22.5733 C   0  0  0  0  0  0  0  0  0  0  0  0
    2.6850  -21.7792   22.1813 N   0  0  0  0  0  0  0  0  0  0  0  0
    6.8656  -16.2632   22.2616 C   0  0  0  0  0  0  0  0  0  0  0  0
    5.9129  -15.4494   22.3751 O   0  0  0  0  0  0  0  0  0  0  0  0
    7.9140  -16.1396   23.2174 N   0  0  0  0  0  0  0  0  0  0  0  0
    7.8272  -15.2430   24.3513 C   0  0  0  0  0  0  0  0  0  0  0  0
    9.0825  -15.3542   25.1759 C   0  0  0  0  0  0  0  0  0  0  0  0
   10.0959  -15.9184   24.6856 O   0  0  0  0  0  0  0  0  0  0  0  0
    9.1016  -14.8208   26.4923 N   0  0  0  0  0  0  0  0  0  0  0  0
    7.9852  -14.2065   27.1798 C   0  0  0  0  0  0  0  0  0  0  0  0
    8.5478  -13.4319   28.3290 C   0  0  0  0  0  0  0  0  0  0  0  0
   10.0391  -13.4323   28.0632 C   0  0  0  0  0  0  0  0  0  0  0  0
   10.2236  -14.7880   27.3887 C   0  0  1  0  0  0  0  0  0  0  0  0
   10.0926  -15.8239   28.4264 C   0  0  0  0  0  0  0  0  0  0  0  0
    9.0195  -16.4726   28.5000 O   0  0  0  0  0  0  0  0  0  0  0  0
   11.1051  -16.1110   29.3238 O   0  0  0  0  0  0  0  0  0  0  0  0
  2  8  1  0
  2  1  1  1
  3  2  1  0
  4  3  1  0
  5  4  1  0
  6  5  1  0
  7  6  1  0
  8  9  2  0
 10  8  1  0
 10 11  1  0
 12 14  1  0
 12 11  1  0
 13 12  2  0
 14 18  1  0
 15 14  1  0
 15 16  1  0
 16 17  1  0
 18 19  1  1
 18 17  1  0
 19 21  1  0
 20 19  2  0
M  END
$$$$
