KGP.pdb
     RDKit          3D

 21 21  0  0  1  0  0  0  0  0999 V2000
    9.0035  -17.7031   20.8028 N   0  0  0  0  0  0  0  0  0  0  0  0
    8.2401  -16.5393   20.4950 C   0  0  1  0  0  0  0  0  0  0  0  0
    7.3557  -16.6753   19.3103 C   0  0  0  0  0  0  0  0  0  0  0  0
    7.9290  -16.3374   17.9884 C   0  0  0  0  0  0  0  0  0  0  0  0
    8.1057  -14.8702   17.7204 C   0  0  0  0  0  0  0  0  0  0  0  0
    8.8305  -14.5909   16.4162 C   0  0  0  0  0  0  0  0  0  0  0  0
    9.0725  -13.1677   16.3623 N   0  0  0  0  0  0  0  0  0  0  0  0
    7.5199  -15.9980   21.6946 C   0  0  0  0  0  0  0  0  0  0  0  0
    7.0269  -16.7421   22.5812 O   0  0  0  0  0  0  0  0  0  0  0  0
    7.3578  -14.5967   21.8896 N   0  0  0  0  0  0  0  0  0  0  0  0
    6.7450  -14.0458   23.0804 C   0  0  0  0  0  0  0  0  0  0  0  0
    7.7798  -13.9267   24.1679 C   0  0  0  0  0  0  0  0  0  0  0  0
    8.9723  -14.2498   23.9243 O   0  0  0  0  0  0  0  0  0  0  0  0
    7.3930  -13.4519   25.4496 N   0  0  0  0  0  0  0  0  0  0  0  0
    6.0377  -13.2005   25.8926 C   0  0  0  0  0  0  0  0  0  0  0  0
    6.1253  -12.3355   27.1097 C   0  0  0  0  0  0  0  0  0  0  0  0
    7.5776  -11.9058   27.1379 C   0  0  0  0  0  0  0  0  0  0  0  0
    8.2652  -13.1319   26.5453 C   0  0  1  0  0  0  0  0  0  0  0  0
    8.2358  -14.1950   27.5630 C   0  0  0  0  0  0  0  0  0  0  0  0
    7.3431  -15.0758   27.4907 O   0  0  0  0  0  0  0  0  0  0  0  0
    9.1530  -14.2624   28.5961 O   0  0  0  0  0  0  0  0  0  0  0  0
  2  8  1  0
  2  1  1  1
  3  2  1  0
  4  3  1  0
  5  4  1  0
  6  5  1  0
  7  6  1  0
  8  9  2  0
 10  8  1  0
 10 11  1  0
 12 14  1  0
 12 11  1  0
 13 12  2  0
 14 18  1  0
 15 14  1  0
 15 16  1  0
 16 17  1  0
 18 19  1  1
 18 17  1  0
 19 21  1  0
 20 19  2  0
M  END
$$$$
