KGP.pdb
     RDKit          3D

 21 21  0  0  1  0  0  0  0  0999 V2000
    8.5899  -18.9708   22.9959 N   0  0  0  0  0  0  0  0  0  0  0  0
    7.5240  -18.3146   22.3139 C   0  0  1  0  0  0  0  0  0  0  0  0
    6.5026  -19.2264   21.7402 C   0  0  0  0  0  0  0  0  0  0  0  0
    6.8372  -19.9155   20.4739 C   0  0  0  0  0  0  0  0  0  0  0  0
    8.1891  -20.5687   20.4354 C   0  0  0  0  0  0  0  0  0  0  0  0
    8.4721  -21.2637   19.1158 C   0  0  0  0  0  0  0  0  0  0  0  0
    9.8020  -21.8205   19.2069 N   0  0  0  0  0  0  0  0  0  0  0  0
    6.9198  -17.2113   23.1316 C   0  0  0  0  0  0  0  0  0  0  0  0
    6.4679  -17.3972   24.2910 O   0  0  0  0  0  0  0  0  0  0  0  0
    6.8276  -15.8827   22.6274 N   0  0  0  0  0  0  0  0  0  0  0  0
    6.4171  -14.7668   23.4542 C   0  0  0  0  0  0  0  0  0  0  0  0
    7.5786  -14.3149   24.2996 C   0  0  0  0  0  0  0  0  0  0  0  0
    8.7520  -14.5937   23.9373 O   0  0  0  0  0  0  0  0  0  0  0  0
    7.3305  -13.5822   25.4910 N   0  0  0  0  0  0  0  0  0  0  0  0
    6.0294  -13.2527   26.0342 C   0  0  0  0  0  0  0  0  0  0  0  0
    6.2316  -12.1488   27.0230 C   0  0  0  0  0  0  0  0  0  0  0  0
    7.6620  -11.7122   26.7824 C   0  0  0  0  0  0  0  0  0  0  0  0
    8.3149  -13.0309   26.3800 C   0  0  1  0  0  0  0  0  0  0  0  0
    8.4414  -13.8544   27.5935 C   0  0  0  0  0  0  0  0  0  0  0  0
    7.6064  -14.7720   27.7904 O   0  0  0  0  0  0  0  0  0  0  0  0
    9.4438  -13.6575   28.5259 O   0  0  0  0  0  0  0  0  0  0  0  0
  2  8  1  0
  2  1  1  1
  3  2  1  0
  4  3  1  0
  5  4  1  0
  6  5  1  0
  7  6  1  0
  8  9  2  0
 10  8  1  0
 10 11  1  0
 12 14  1  0
 12 11  1  0
 13 12  2  0
 14 18  1  0
 15 14  1  0
 15 16  1  0
 16 17  1  0
 18 19  1  1
 18 17  1  0
 19 21  1  0
 20 19  2  0
M  END
$$$$
