YVS.pdb
     RDKit          3D

 26 26  0  0  1  0  0  0  0  0999 V2000
   19.7969  -23.1064   -7.2209 O   0  0  0  0  0  0  0  0  0  0  0  0
   20.7467  -22.3681   -7.9144 C   0  0  0  0  0  0  0  0  0  0  0  0
   21.8235  -21.8138   -7.2416 C   0  0  0  0  0  0  0  0  0  0  0  0
   22.7827  -21.0801   -7.8804 C   0  0  0  0  0  0  0  0  0  0  0  0
   22.7240  -20.8516   -9.2527 C   0  0  0  0  0  0  0  0  0  0  0  0
   23.7202  -20.0809   -9.9816 C   0  0  0  0  0  0  0  0  0  0  0  0
   24.8767  -20.8734  -10.5341 C   0  0  2  0  0  0  0  0  0  0  0  0
   25.7035  -21.4116   -9.4601 N   0  0  0  0  0  0  0  0  0  0  0  0
   25.7403  -20.1045  -11.4584 C   0  0  0  0  0  0  0  0  0  0  0  0
   26.6259  -19.3161  -10.9790 O   0  0  0  0  0  0  0  0  0  0  0  0
   21.6580  -21.3984   -9.9290 C   0  0  0  0  0  0  0  0  0  0  0  0
   20.6745  -22.1506   -9.2741 C   0  0  0  0  0  0  0  0  0  0  0  0
   27.3935  -21.6337  -14.5106 C   0  0  0  0  0  0  0  0  0  0  0  0
   27.7686  -20.2967  -13.9546 C   0  0  2  0  0  0  0  0  0  0  0  0
   28.4979  -20.5405  -12.6420 C   0  0  0  0  0  0  0  0  0  0  0  0
   26.5721  -19.3768  -13.7392 C   0  0  2  0  0  0  0  0  0  0  0  0
   25.6764  -20.1648  -12.8558 N   0  0  0  0  0  0  0  0  0  0  0  0
   25.8765  -19.0099  -14.9704 C   0  0  0  0  0  0  0  0  0  0  0  0
   24.8951  -19.7106  -15.4107 O   0  0  0  0  0  0  0  0  0  0  0  0
   25.0642  -15.3658  -16.1914 O   0  0  0  0  0  0  0  0  0  0  0  0
   25.5041  -16.1046  -17.2863 C   0  0  0  0  0  0  0  0  0  0  0  0
   25.4928  -17.5897  -16.9874 C   0  0  2  0  0  0  0  0  0  0  0  0
   26.2168  -17.8805  -15.7552 N   0  0  0  0  0  0  0  0  0  0  0  0
   26.0357  -18.3646  -18.1270 C   0  0  0  0  0  0  0  0  0  0  0  0
   25.2087  -18.8008  -19.1371 O   0  0  0  0  0  0  0  0  0  0  0  0
   27.2587  -18.6361  -18.1902 O   0  0  0  0  0  0  0  0  0  0  0  0
  2  3  2  0
  2  1  1  0
  4  3  1  0
  5  4  2  0
  6  5  1  0
  7  6  1  0
  7  9  1  0
  7  8  1  1
  9 17  1  0
  9 10  2  0
 11  5  1  0
 11 12  2  0
 12  2  1  0
 14 13  1  1
 14 15  1  0
 16 14  1  0
 16 17  1  1
 18 16  1  0
 18 19  2  0
 20 21  1  0
 22 21  1  6
 22 23  1  0
 23 18  1  0
 24 22  1  0
 25 24  1  0
 26 24  2  0
M  END
$$$$
