YVS.pdb
     RDKit          3D

 26 26  0  0  1  0  0  0  0  0999 V2000
   24.4291  -14.9221  -25.1746 O   0  0  0  0  0  0  0  0  0  0  0  0
   24.1016  -14.4100  -23.9262 C   0  0  0  0  0  0  0  0  0  0  0  0
   23.2888  -15.1340  -23.0691 C   0  0  0  0  0  0  0  0  0  0  0  0
   22.9394  -14.6718  -21.8319 C   0  0  0  0  0  0  0  0  0  0  0  0
   23.3879  -13.4381  -21.3675 C   0  0  0  0  0  0  0  0  0  0  0  0
   23.0483  -12.9013  -20.0583 C   0  0  0  0  0  0  0  0  0  0  0  0
   24.1503  -12.9499  -19.0315 C   0  0  2  0  0  0  0  0  0  0  0  0
   24.5255  -14.3266  -18.7305 N   0  0  0  0  0  0  0  0  0  0  0  0
   23.8170  -12.2607  -17.7645 C   0  0  0  0  0  0  0  0  0  0  0  0
   23.0486  -12.8377  -16.9205 O   0  0  0  0  0  0  0  0  0  0  0  0
   24.1957  -12.7122  -22.2121 C   0  0  0  0  0  0  0  0  0  0  0  0
   24.5539  -13.1860  -23.4806 C   0  0  0  0  0  0  0  0  0  0  0  0
   26.1793   -9.2556  -16.1923 C   0  0  0  0  0  0  0  0  0  0  0  0
   25.2353  -10.1140  -15.4116 C   0  0  2  0  0  0  0  0  0  0  0  0
   25.9342  -11.4410  -15.1576 C   0  0  0  0  0  0  0  0  0  0  0  0
   23.9018  -10.3376  -16.1159 C   0  0  2  0  0  0  0  0  0  0  0  0
   24.2830  -10.9941  -17.3916 N   0  0  0  0  0  0  0  0  0  0  0  0
   23.1568   -9.1089  -16.3800 C   0  0  0  0  0  0  0  0  0  0  0  0
   23.4821   -8.3325  -17.3493 O   0  0  0  0  0  0  0  0  0  0  0  0
   19.1598   -6.5821  -16.4966 O   0  0  0  0  0  0  0  0  0  0  0  0
   19.8561   -7.7491  -16.1940 C   0  0  0  0  0  0  0  0  0  0  0  0
   21.3253   -7.4662  -15.9566 C   0  0  2  0  0  0  0  0  0  0  0  0
   22.0439   -8.6874  -15.6114 N   0  0  0  0  0  0  0  0  0  0  0  0
   21.5042   -6.4243  -14.9191 C   0  0  0  0  0  0  0  0  0  0  0  0
   21.1883   -5.1106  -15.1813 O   0  0  0  0  0  0  0  0  0  0  0  0
   21.9468   -6.7224  -13.7839 O   0  0  0  0  0  0  0  0  0  0  0  0
  2  3  2  0
  2  1  1  0
  4  3  1  0
  5  4  2  0
  6  5  1  0
  7  6  1  0
  7  9  1  0
  7  8  1  1
  9 17  1  0
  9 10  2  0
 11  5  1  0
 11 12  2  0
 12  2  1  0
 14 13  1  6
 14 15  1  0
 16 14  1  0
 16 17  1  6
 18 16  1  0
 18 19  2  0
 20 21  1  0
 22 21  1  1
 22 23  1  0
 23 18  1  0
 24 22  1  0
 25 24  1  0
 26 24  2  0
M  END
$$$$
