YVS.pdb
     RDKit          3D

 26 26  0  0  1  0  0  0  0  0999 V2000
   20.9415    0.6735  -14.4613 O   0  0  0  0  0  0  0  0  0  0  0  0
   20.8236   -0.6936  -14.6736 C   0  0  0  0  0  0  0  0  0  0  0  0
   21.6672   -1.5746  -14.0167 C   0  0  0  0  0  0  0  0  0  0  0  0
   21.5893   -2.9271  -14.1934 C   0  0  0  0  0  0  0  0  0  0  0  0
   20.6486   -3.4915  -15.0509 C   0  0  0  0  0  0  0  0  0  0  0  0
   20.5215   -4.9241  -15.2722 C   0  0  0  0  0  0  0  0  0  0  0  0
   21.7153   -5.5912  -15.9051 C   0  0  2  0  0  0  0  0  0  0  0  0
   22.0387   -4.9784  -17.1884 N   0  0  0  0  0  0  0  0  0  0  0  0
   21.5497   -7.0489  -16.1034 C   0  0  0  0  0  0  0  0  0  0  0  0
   21.1133   -7.4833  -17.2242 O   0  0  0  0  0  0  0  0  0  0  0  0
   19.8064   -2.6240  -15.7074 C   0  0  0  0  0  0  0  0  0  0  0  0
   19.8863   -1.2373  -15.5263 C   0  0  0  0  0  0  0  0  0  0  0  0
   24.1141   -9.8246  -14.9068 C   0  0  0  0  0  0  0  0  0  0  0  0
   22.7082  -10.1328  -14.4995 C   0  0  2  0  0  0  0  0  0  0  0  0
   22.5542  -11.6462  -14.5128 C   0  0  0  0  0  0  0  0  0  0  0  0
   21.6640   -9.4806  -15.3986 C   0  0  2  0  0  0  0  0  0  0  0  0
   21.8387   -8.0284  -15.1455 N   0  0  0  0  0  0  0  0  0  0  0  0
   20.2915   -9.8857  -15.1045 C   0  0  0  0  0  0  0  0  0  0  0  0
   19.6736   -9.4328  -14.0744 O   0  0  0  0  0  0  0  0  0  0  0  0
   15.9010  -10.4319  -16.2086 O   0  0  0  0  0  0  0  0  0  0  0  0
   17.2437  -10.1304  -16.4202 C   0  0  0  0  0  0  0  0  0  0  0  0
   18.1455  -11.0508  -15.6238 C   0  0  2  0  0  0  0  0  0  0  0  0
   19.5502  -10.7839  -15.9113 N   0  0  0  0  0  0  0  0  0  0  0  0
   17.8056  -12.4712  -15.8710 C   0  0  0  0  0  0  0  0  0  0  0  0
   16.7700  -13.0736  -15.1933 O   0  0  0  0  0  0  0  0  0  0  0  0
   18.4562  -13.1486  -16.7024 O   0  0  0  0  0  0  0  0  0  0  0  0
  2  3  2  0
  2  1  1  0
  4  3  1  0
  5  4  2  0
  6  5  1  0
  7  6  1  0
  7  9  1  0
  7  8  1  6
  9 17  1  0
  9 10  2  0
 11  5  1  0
 11 12  2  0
 12  2  1  0
 14 13  1  6
 14 15  1  0
 16 14  1  0
 16 17  1  1
 18 16  1  0
 18 19  2  0
 20 21  1  0
 22 21  1  6
 22 23  1  0
 23 18  1  0
 24 22  1  0
 25 24  1  0
 26 24  2  0
M  END
$$$$
