YVS.pdb
     RDKit          3D

 26 26  0  0  1  0  0  0  0  0999 V2000
   23.1575  -15.3997  -19.7417 O   0  0  0  0  0  0  0  0  0  0  0  0
   22.6757  -16.3619  -18.8642 C   0  0  0  0  0  0  0  0  0  0  0  0
   22.0880  -15.9809  -17.6689 C   0  0  0  0  0  0  0  0  0  0  0  0
   21.5997  -16.8906  -16.7743 C   0  0  0  0  0  0  0  0  0  0  0  0
   21.6696  -18.2589  -17.0230 C   0  0  0  0  0  0  0  0  0  0  0  0
   21.1623  -19.2685  -16.1061 C   0  0  0  0  0  0  0  0  0  0  0  0
   21.9941  -19.4997  -14.8709 C   0  0  2  0  0  0  0  0  0  0  0  0
   23.3098  -20.0259  -15.2163 N   0  0  0  0  0  0  0  0  0  0  0  0
   21.3629  -20.4079  -13.8870 C   0  0  0  0  0  0  0  0  0  0  0  0
   21.5364  -21.6701  -13.9978 O   0  0  0  0  0  0  0  0  0  0  0  0
   22.2516  -18.6464  -18.2078 C   0  0  0  0  0  0  0  0  0  0  0  0
   22.7523  -17.7137  -19.1251 C   0  0  0  0  0  0  0  0  0  0  0  0
   21.7318  -19.9783  -10.1413 C   0  0  0  0  0  0  0  0  0  0  0  0
   20.2867  -20.1866  -10.4665 C   0  0  2  0  0  0  0  0  0  0  0  0
   19.6658  -20.9460   -9.3038 C   0  0  0  0  0  0  0  0  0  0  0  0
   20.0659  -20.9372  -11.7749 C   0  0  2  0  0  0  0  0  0  0  0  0
   20.5689  -19.9983  -12.8089 N   0  0  0  0  0  0  0  0  0  0  0  0
   18.6693  -21.2781  -12.0350 C   0  0  0  0  0  0  0  0  0  0  0  0
   17.8042  -20.3682  -12.3025 O   0  0  0  0  0  0  0  0  0  0  0  0
   15.1545  -24.5036  -12.9262 O   0  0  0  0  0  0  0  0  0  0  0  0
   16.5082  -24.2704  -12.6996 C   0  0  0  0  0  0  0  0  0  0  0  0
   16.7462  -22.8619  -12.1953 C   0  0  2  0  0  0  0  0  0  0  0  0
   18.1704  -22.6040  -12.0168 N   0  0  0  0  0  0  0  0  0  0  0  0
   15.9924  -22.6114  -10.9451 C   0  0  0  0  0  0  0  0  0  0  0  0
   14.7647  -21.9900  -10.9777 O   0  0  0  0  0  0  0  0  0  0  0  0
   16.4609  -22.9617   -9.8355 O   0  0  0  0  0  0  0  0  0  0  0  0
  2  3  2  0
  2  1  1  0
  4  3  1  0
  5  4  2  0
  6  5  1  0
  7  6  1  0
  7  9  1  0
  7  8  1  6
  9 17  1  0
  9 10  2  0
 11  5  1  0
 11 12  2  0
 12  2  1  0
 14 13  1  1
 14 15  1  0
 16 14  1  0
 16 17  1  6
 18 16  1  0
 18 19  2  0
 20 21  1  0
 22 21  1  1
 22 23  1  0
 23 18  1  0
 24 22  1  0
 25 24  1  0
 26 24  2  0
M  END
$$$$
