YVS.pdb
     RDKit          3D

 26 26  0  0  1  0  0  0  0  0999 V2000
   14.0880  -13.4493  -19.9398 O   0  0  0  0  0  0  0  0  0  0  0  0
   14.8437  -12.6562  -19.0866 C   0  0  0  0  0  0  0  0  0  0  0  0
   14.2193  -11.7550  -18.2397 C   0  0  0  0  0  0  0  0  0  0  0  0
   14.9200  -10.9539  -17.3832 C   0  0  0  0  0  0  0  0  0  0  0  0
   16.3101  -11.0050  -17.3192 C   0  0  0  0  0  0  0  0  0  0  0  0
   17.1034  -10.1769  -16.4234 C   0  0  0  0  0  0  0  0  0  0  0  0
   18.2413  -10.8790  -15.7283 C   0  0  2  0  0  0  0  0  0  0  0  0
   17.7467  -11.9178  -14.8320 N   0  0  0  0  0  0  0  0  0  0  0  0
   19.1242   -9.9712  -14.9615 C   0  0  0  0  0  0  0  0  0  0  0  0
   18.7833   -9.6142  -13.7817 O   0  0  0  0  0  0  0  0  0  0  0  0
   16.9386  -11.8973  -18.1567 C   0  0  0  0  0  0  0  0  0  0  0  0
   16.2202  -12.7185  -19.0349 C   0  0  0  0  0  0  0  0  0  0  0  0
   23.0857   -9.4378  -16.0141 C   0  0  0  0  0  0  0  0  0  0  0  0
   22.5576   -9.2118  -14.6330 C   0  0  2  0  0  0  0  0  0  0  0  0
   22.4993  -10.5664  -13.9432 C   0  0  0  0  0  0  0  0  0  0  0  0
   21.1882   -8.5421  -14.6139 C   0  0  2  0  0  0  0  0  0  0  0  0
   20.3397   -9.4521  -15.4236 N   0  0  0  0  0  0  0  0  0  0  0  0
   21.1775   -7.1969  -15.1838 C   0  0  0  0  0  0  0  0  0  0  0  0
   21.2741   -7.0136  -16.4507 O   0  0  0  0  0  0  0  0  0  0  0  0
   18.7620   -4.3774  -15.0524 O   0  0  0  0  0  0  0  0  0  0  0  0
   19.9707   -3.8338  -14.6259 C   0  0  0  0  0  0  0  0  0  0  0  0
   21.1401   -4.7051  -15.0361 C   0  0  2  0  0  0  0  0  0  0  0  0
   21.0599   -6.0182  -14.4066 N   0  0  0  0  0  0  0  0  0  0  0  0
   22.4288   -4.0405  -14.7337 C   0  0  0  0  0  0  0  0  0  0  0  0
   23.3291   -4.6159  -13.8660 O   0  0  0  0  0  0  0  0  0  0  0  0
   22.7210   -2.9419  -15.2639 O   0  0  0  0  0  0  0  0  0  0  0  0
  2  3  2  0
  2  1  1  0
  4  3  1  0
  5  4  2  0
  6  5  1  0
  7  6  1  0
  7  9  1  0
  7  8  1  1
  9 17  1  0
  9 10  2  0
 11  5  1  0
 11 12  2  0
 12  2  1  0
 14 13  1  6
 14 15  1  0
 16 14  1  0
 16 17  1  6
 18 16  1  0
 18 19  2  0
 20 21  1  0
 22 21  1  1
 22 23  1  0
 23 18  1  0
 24 22  1  0
 25 24  1  0
 26 24  2  0
M  END
$$$$
