YVS.pdb
     RDKit          3D

 26 26  0  0  1  0  0  0  0  0999 V2000
   20.5169  -14.0968  -22.9734 O   0  0  0  0  0  0  0  0  0  0  0  0
   20.3490  -13.2573  -21.8802 C   0  0  0  0  0  0  0  0  0  0  0  0
   19.0804  -12.8381  -21.5139 C   0  0  0  0  0  0  0  0  0  0  0  0
   18.8653  -12.0127  -20.4467 C   0  0  0  0  0  0  0  0  0  0  0  0
   19.9216  -11.5479  -19.6675 C   0  0  0  0  0  0  0  0  0  0  0  0
   19.7472  -10.6707  -18.5197 C   0  0  0  0  0  0  0  0  0  0  0  0
   19.9602  -11.3135  -17.1735 C   0  0  2  0  0  0  0  0  0  0  0  0
   19.0160  -12.4040  -16.9584 N   0  0  0  0  0  0  0  0  0  0  0  0
   19.8613  -10.3689  -16.0380 C   0  0  0  0  0  0  0  0  0  0  0  0
   18.7094  -10.0712  -15.5689 O   0  0  0  0  0  0  0  0  0  0  0  0
   21.1851  -11.9592  -20.0240 C   0  0  0  0  0  0  0  0  0  0  0  0
   21.4056  -12.8055  -21.1182 C   0  0  0  0  0  0  0  0  0  0  0  0
   21.6245   -8.4499  -11.9639 C   0  0  0  0  0  0  0  0  0  0  0  0
   21.5780   -9.3426  -13.1632 C   0  0  2  0  0  0  0  0  0  0  0  0
   23.0152   -9.6210  -13.5766 C   0  0  0  0  0  0  0  0  0  0  0  0
   20.7921   -8.7480  -14.3264 C   0  0  2  0  0  0  0  0  0  0  0  0
   20.9493   -9.7527  -15.4079 N   0  0  0  0  0  0  0  0  0  0  0  0
   21.2820   -7.4448  -14.7690 C   0  0  0  0  0  0  0  0  0  0  0  0
   22.3860   -7.3369  -15.4152 O   0  0  0  0  0  0  0  0  0  0  0  0
   19.6417   -4.4696  -16.6770 O   0  0  0  0  0  0  0  0  0  0  0  0
   20.1497   -4.0075  -15.4659 C   0  0  0  0  0  0  0  0  0  0  0  0
   21.1946   -4.9539  -14.9116 C   0  0  2  0  0  0  0  0  0  0  0  0
   20.5963   -6.2282  -14.5305 N   0  0  0  0  0  0  0  0  0  0  0  0
   21.9195   -4.3381  -13.7761 C   0  0  0  0  0  0  0  0  0  0  0  0
   23.2769   -4.1207  -13.8444 O   0  0  0  0  0  0  0  0  0  0  0  0
   21.3078   -4.0044  -12.7331 O   0  0  0  0  0  0  0  0  0  0  0  0
  2  3  2  0
  2  1  1  0
  4  3  1  0
  5  4  2  0
  6  5  1  0
  7  6  1  0
  7  9  1  0
  7  8  1  1
  9 17  1  0
  9 10  2  0
 11  5  1  0
 11 12  2  0
 12  2  1  0
 14 13  1  1
 14 15  1  0
 16 14  1  0
 16 17  1  6
 18 16  1  0
 18 19  2  0
 20 21  1  0
 22 21  1  1
 22 23  1  0
 23 18  1  0
 24 22  1  0
 25 24  1  0
 26 24  2  0
M  END
$$$$
