YVS.pdb
     RDKit          3D

 26 26  0  0  1  0  0  0  0  0999 V2000
   18.1662  -14.1953  -18.2203 O   0  0  0  0  0  0  0  0  0  0  0  0
   18.9850  -15.1926  -17.7075 C   0  0  0  0  0  0  0  0  0  0  0  0
   20.2733  -14.8916  -17.2963 C   0  0  0  0  0  0  0  0  0  0  0  0
   21.1154  -15.8385  -16.7857 C   0  0  0  0  0  0  0  0  0  0  0  0
   20.7156  -17.1656  -16.6523 C   0  0  0  0  0  0  0  0  0  0  0  0
   21.5711  -18.2114  -16.1122 C   0  0  0  0  0  0  0  0  0  0  0  0
   22.7424  -18.6020  -16.9762 C   0  0  2  0  0  0  0  0  0  0  0  0
   22.2961  -19.2741  -18.1911 N   0  0  0  0  0  0  0  0  0  0  0  0
   23.7287  -19.4669  -16.2901 C   0  0  0  0  0  0  0  0  0  0  0  0
   23.6212  -20.7377  -16.3853 O   0  0  0  0  0  0  0  0  0  0  0  0
   19.4376  -17.4736  -17.0581 C   0  0  0  0  0  0  0  0  0  0  0  0
   18.5742  -16.5028  -17.5817 C   0  0  0  0  0  0  0  0  0  0  0  0
   28.1180  -20.2730  -14.3221 C   0  0  0  0  0  0  0  0  0  0  0  0
   27.0742  -19.5111  -15.0754 C   0  0  2  0  0  0  0  0  0  0  0  0
   27.3090  -18.0327  -14.8048 C   0  0  0  0  0  0  0  0  0  0  0  0
   25.6508  -19.9050  -14.6974 C   0  0  2  0  0  0  0  0  0  0  0  0
   24.8056  -19.0063  -15.5229 N   0  0  0  0  0  0  0  0  0  0  0  0
   25.3435  -19.7305  -13.2798 C   0  0  0  0  0  0  0  0  0  0  0  0
   24.6551  -18.7274  -12.8699 O   0  0  0  0  0  0  0  0  0  0  0  0
   23.0729  -20.7577   -9.7674 O   0  0  0  0  0  0  0  0  0  0  0  0
   23.6665  -20.8445  -11.0238 C   0  0  0  0  0  0  0  0  0  0  0  0
   25.1585  -20.5946  -10.9449 C   0  0  2  0  0  0  0  0  0  0  0  0
   25.7655  -20.6306  -12.2705 N   0  0  0  0  0  0  0  0  0  0  0  0
   25.8102  -21.5577  -10.0275 C   0  0  0  0  0  0  0  0  0  0  0  0
   25.9384  -21.2739   -8.6868 O   0  0  0  0  0  0  0  0  0  0  0  0
   26.2560  -22.6484  -10.4577 O   0  0  0  0  0  0  0  0  0  0  0  0
  2  3  2  0
  2  1  1  0
  4  3  1  0
  5  4  2  0
  6  5  1  0
  7  6  1  0
  7  9  1  0
  7  8  1  6
  9 17  1  0
  9 10  2  0
 11  5  1  0
 11 12  2  0
 12  2  1  0
 14 13  1  1
 14 15  1  0
 16 14  1  0
 16 17  1  6
 18 16  1  0
 18 19  2  0
 20 21  1  0
 22 21  1  6
 22 23  1  0
 23 18  1  0
 24 22  1  0
 25 24  1  0
 26 24  2  0
M  END
$$$$
