YVS.pdb
     RDKit          3D

 26 26  0  0  1  0  0  0  0  0999 V2000
   14.5689  -13.7718  -20.5048 O   0  0  0  0  0  0  0  0  0  0  0  0
   15.3207  -13.1260  -19.5324 C   0  0  0  0  0  0  0  0  0  0  0  0
   15.0962  -13.3897  -18.1909 C   0  0  0  0  0  0  0  0  0  0  0  0
   15.8100  -12.7793  -17.1988 C   0  0  0  0  0  0  0  0  0  0  0  0
   16.8080  -11.8532  -17.4906 C   0  0  0  0  0  0  0  0  0  0  0  0
   17.5990  -11.1778  -16.4729 C   0  0  0  0  0  0  0  0  0  0  0  0
   18.9654  -11.7609  -16.2203 C   0  0  2  0  0  0  0  0  0  0  0  0
   18.8676  -13.1274  -15.7201 N   0  0  0  0  0  0  0  0  0  0  0  0
   19.7884  -10.9685  -15.2790 C   0  0  0  0  0  0  0  0  0  0  0  0
   19.5279  -11.0135  -14.0277 O   0  0  0  0  0  0  0  0  0  0  0  0
   17.0379  -11.5852  -18.8203 C   0  0  0  0  0  0  0  0  0  0  0  0
   16.3060  -12.2109  -19.8376 C   0  0  0  0  0  0  0  0  0  0  0  0
   23.5917   -9.7079  -16.1465 C   0  0  0  0  0  0  0  0  0  0  0  0
   23.0276   -9.7746  -14.7628 C   0  0  2  0  0  0  0  0  0  0  0  0
   23.1308  -11.2203  -14.3008 C   0  0  0  0  0  0  0  0  0  0  0  0
   21.5859   -9.2866  -14.6760 C   0  0  2  0  0  0  0  0  0  0  0  0
   20.8632  -10.1488  -15.6444 N   0  0  0  0  0  0  0  0  0  0  0  0
   21.4142   -7.8780  -15.0237 C   0  0  0  0  0  0  0  0  0  0  0  0
   21.4649   -7.4865  -16.2452 O   0  0  0  0  0  0  0  0  0  0  0  0
   19.4103   -3.6798  -14.6115 O   0  0  0  0  0  0  0  0  0  0  0  0
   19.5836   -5.0069  -14.2278 C   0  0  0  0  0  0  0  0  0  0  0  0
   21.0002   -5.4744  -14.4911 C   0  0  2  0  0  0  0  0  0  0  0  0
   21.1813   -6.8584  -14.0681 N   0  0  0  0  0  0  0  0  0  0  0  0
   21.9843   -4.5790  -13.8401 C   0  0  0  0  0  0  0  0  0  0  0  0
   22.2142   -3.3136  -14.3304 O   0  0  0  0  0  0  0  0  0  0  0  0
   22.6245   -4.9594  -12.8307 O   0  0  0  0  0  0  0  0  0  0  0  0
  2  3  2  0
  2  1  1  0
  4  3  1  0
  5  4  2  0
  6  5  1  0
  7  6  1  0
  7  9  1  0
  7  8  1  1
  9 17  1  0
  9 10  2  0
 11  5  1  0
 11 12  2  0
 12  2  1  0
 14 13  1  6
 14 15  1  0
 16 14  1  0
 16 17  1  6
 18 16  1  0
 18 19  2  0
 20 21  1  0
 22 21  1  1
 22 23  1  0
 23 18  1  0
 24 22  1  0
 25 24  1  0
 26 24  2  0
M  END
$$$$
