YVS.pdb
     RDKit          3D

 26 26  0  0  1  0  0  0  0  0999 V2000
   45.0586  -18.0602  -10.4538 O   0  0  0  0  0  0  0  0  0  0  0  0
   44.3479  -16.9387  -10.0474 C   0  0  0  0  0  0  0  0  0  0  0  0
   44.4685  -15.7483  -10.7459 C   0  0  0  0  0  0  0  0  0  0  0  0
   43.7899  -14.6191  -10.3843 C   0  0  0  0  0  0  0  0  0  0  0  0
   42.9354  -14.6097   -9.2850 C   0  0  0  0  0  0  0  0  0  0  0  0
   42.1874  -13.4362   -8.8595 C   0  0  0  0  0  0  0  0  0  0  0  0
   43.0103  -12.1999   -8.6041 C   0  0  2  0  0  0  0  0  0  0  0  0
   43.8016  -12.3394   -7.3871 N   0  0  0  0  0  0  0  0  0  0  0  0
   42.2096  -10.9582   -8.5102 C   0  0  0  0  0  0  0  0  0  0  0  0
   42.0409  -10.4062   -7.3689 O   0  0  0  0  0  0  0  0  0  0  0  0
   42.8094  -15.7876   -8.5853 C   0  0  0  0  0  0  0  0  0  0  0  0
   43.5052  -16.9453   -8.9561 C   0  0  0  0  0  0  0  0  0  0  0  0
   42.9568   -7.7935   -9.5354 C   0  0  0  0  0  0  0  0  0  0  0  0
   41.7296   -8.1057   -8.7391 C   0  0  2  0  0  0  0  0  0  0  0  0
   42.1881   -8.6749   -7.4049 C   0  0  0  0  0  0  0  0  0  0  0  0
   40.7877   -9.0778   -9.4404 C   0  0  2  0  0  0  0  0  0  0  0  0
   41.6019  -10.3098   -9.5921 N   0  0  0  0  0  0  0  0  0  0  0  0
   40.3202   -8.6145  -10.7447 C   0  0  0  0  0  0  0  0  0  0  0  0
   41.0892   -8.6427  -11.7722 O   0  0  0  0  0  0  0  0  0  0  0  0
   37.1611   -8.4787  -14.1320 O   0  0  0  0  0  0  0  0  0  0  0  0
   37.5463   -8.7667  -12.8255 C   0  0  0  0  0  0  0  0  0  0  0  0
   38.5797   -7.7776  -12.3267 C   0  0  2  0  0  0  0  0  0  0  0  0
   39.0155   -8.1131  -10.9760 N   0  0  0  0  0  0  0  0  0  0  0  0
   38.0646   -6.3907  -12.3978 C   0  0  0  0  0  0  0  0  0  0  0  0
   37.8364   -5.7878  -13.6139 O   0  0  0  0  0  0  0  0  0  0  0  0
   37.8278   -5.7426  -11.3503 O   0  0  0  0  0  0  0  0  0  0  0  0
  2  3  2  0
  2  1  1  0
  4  3  1  0
  5  4  2  0
  6  5  1  0
  7  6  1  0
  7  9  1  0
  7  8  1  1
  9 17  1  0
  9 10  2  0
 11  5  1  0
 11 12  2  0
 12  2  1  0
 14 13  1  6
 14 15  1  0
 16 14  1  0
 16 17  1  6
 18 16  1  0
 18 19  2  0
 20 21  1  0
 22 21  1  1
 22 23  1  0
 23 18  1  0
 24 22  1  0
 25 24  1  0
 26 24  2  0
M  END
$$$$
