YVS.pdb
     RDKit          3D

 26 26  0  0  1  0  0  0  0  0999 V2000
   12.2312  -23.9709   -3.7446 O   0  0  0  0  0  0  0  0  0  0  0  0
   13.3871  -24.0720   -4.5073 C   0  0  0  0  0  0  0  0  0  0  0  0
   14.6000  -23.6453   -3.9915 C   0  0  0  0  0  0  0  0  0  0  0  0
   15.7632  -23.7246   -4.7036 C   0  0  0  0  0  0  0  0  0  0  0  0
   15.7864  -24.2435   -5.9955 C   0  0  0  0  0  0  0  0  0  0  0  0
   16.9973  -24.3532   -6.7950 C   0  0  0  0  0  0  0  0  0  0  0  0
   17.6735  -25.6996   -6.7668 C   0  0  2  0  0  0  0  0  0  0  0  0
   18.3674  -25.9108   -5.5015 N   0  0  0  0  0  0  0  0  0  0  0  0
   18.6323  -25.9099   -7.8749 C   0  0  0  0  0  0  0  0  0  0  0  0
   19.8619  -25.6012   -7.7069 O   0  0  0  0  0  0  0  0  0  0  0  0
   14.5863  -24.6699   -6.5158 C   0  0  0  0  0  0  0  0  0  0  0  0
   13.3936  -24.5886   -5.7858 C   0  0  0  0  0  0  0  0  0  0  0  0
   17.8129  -28.5645  -10.8957 C   0  0  0  0  0  0  0  0  0  0  0  0
   19.1944  -28.1509  -10.4987 C   0  0  2  0  0  0  0  0  0  0  0  0
   19.5812  -28.9750   -9.2799 C   0  0  0  0  0  0  0  0  0  0  0  0
   19.3140  -26.6612  -10.1974 C   0  0  2  0  0  0  0  0  0  0  0  0
   18.3063  -26.4354   -9.1311 N   0  0  0  0  0  0  0  0  0  0  0  0
   19.0404  -25.7999  -11.3453 C   0  0  0  0  0  0  0  0  0  0  0  0
   17.8566  -25.3601  -11.5760 O   0  0  0  0  0  0  0  0  0  0  0  0
   20.2179  -22.5677  -14.6240 O   0  0  0  0  0  0  0  0  0  0  0  0
   20.5544  -23.3467  -13.5203 C   0  0  0  0  0  0  0  0  0  0  0  0
   19.6744  -24.5763  -13.4269 C   0  0  2  0  0  0  0  0  0  0  0  0
   20.0321  -25.3886  -12.2697 N   0  0  0  0  0  0  0  0  0  0  0  0
   19.7321  -25.3664  -14.6784 C   0  0  0  0  0  0  0  0  0  0  0  0
   18.8737  -25.0961  -15.7198 O   0  0  0  0  0  0  0  0  0  0  0  0
   20.5646  -26.2955  -14.8097 O   0  0  0  0  0  0  0  0  0  0  0  0
  2  3  2  0
  2  1  1  0
  4  3  1  0
  5  4  2  0
  6  5  1  0
  7  6  1  0
  7  9  1  0
  7  8  1  1
  9 17  1  0
  9 10  2  0
 11  5  1  0
 11 12  2  0
 12  2  1  0
 14 13  1  1
 14 15  1  0
 16 14  1  0
 16 17  1  1
 18 16  1  0
 18 19  2  0
 20 21  1  0
 22 21  1  6
 22 23  1  0
 23 18  1  0
 24 22  1  0
 25 24  1  0
 26 24  2  0
M  END
$$$$
