YVS.pdb
     RDKit          3D

 26 26  0  0  1  0  0  0  0  0999 V2000
   19.2213  -23.7220   -6.8250 O   0  0  0  0  0  0  0  0  0  0  0  0
   20.0465  -22.9372   -7.6194 C   0  0  0  0  0  0  0  0  0  0  0  0
   20.8571  -21.9740   -7.0410 C   0  0  0  0  0  0  0  0  0  0  0  0
   21.6852  -21.1782   -7.7809 C   0  0  0  0  0  0  0  0  0  0  0  0
   21.7554  -21.2979   -9.1664 C   0  0  0  0  0  0  0  0  0  0  0  0
   22.6220  -20.4784  -10.0001 C   0  0  0  0  0  0  0  0  0  0  0  0
   24.0426  -20.9632  -10.1323 C   0  0  2  0  0  0  0  0  0  0  0  0
   24.7662  -20.8145   -8.8748 N   0  0  0  0  0  0  0  0  0  0  0  0
   24.8078  -20.2859  -11.2033 C   0  0  0  0  0  0  0  0  0  0  0  0
   25.4247  -19.1969  -10.9402 O   0  0  0  0  0  0  0  0  0  0  0  0
   20.9538  -22.2519   -9.7494 C   0  0  0  0  0  0  0  0  0  0  0  0
   20.1048  -23.0678   -8.9908 C   0  0  0  0  0  0  0  0  0  0  0  0
   27.8029  -20.1724  -14.8462 C   0  0  0  0  0  0  0  0  0  0  0  0
   26.9067  -20.7789  -13.8135 C   0  0  2  0  0  0  0  0  0  0  0  0
   26.5785  -22.1917  -14.2721 C   0  0  0  0  0  0  0  0  0  0  0  0
   25.6286  -19.9809  -13.5817 C   0  0  2  0  0  0  0  0  0  0  0  0
   24.9241  -20.7442  -12.5213 N   0  0  0  0  0  0  0  0  0  0  0  0
   24.7825  -19.8583  -14.7663 C   0  0  0  0  0  0  0  0  0  0  0  0
   24.0306  -20.8270  -15.1462 O   0  0  0  0  0  0  0  0  0  0  0  0
   23.0635  -16.6114  -15.6735 O   0  0  0  0  0  0  0  0  0  0  0  0
   23.2707  -17.2348  -16.9010 C   0  0  0  0  0  0  0  0  0  0  0  0
   23.8303  -18.6309  -16.7206 C   0  0  2  0  0  0  0  0  0  0  0  0
   24.7221  -18.6919  -15.5682 N   0  0  0  0  0  0  0  0  0  0  0  0
   24.5099  -19.0935  -17.9528 C   0  0  0  0  0  0  0  0  0  0  0  0
   23.7809  -19.5415  -19.0309 O   0  0  0  0  0  0  0  0  0  0  0  0
   25.7616  -19.0846  -18.0339 O   0  0  0  0  0  0  0  0  0  0  0  0
  2  3  2  0
  2  1  1  0
  4  3  1  0
  5  4  2  0
  6  5  1  0
  7  6  1  0
  7  9  1  0
  7  8  1  1
  9 17  1  0
  9 10  2  0
 11  5  1  0
 11 12  2  0
 12  2  1  0
 14 13  1  6
 14 15  1  0
 16 14  1  0
 16 17  1  1
 18 16  1  0
 18 19  2  0
 20 21  1  0
 22 21  1  6
 22 23  1  0
 23 18  1  0
 24 22  1  0
 25 24  1  0
 26 24  2  0
M  END
$$$$
