YVS.pdb
     RDKit          3D

 26 26  0  0  1  0  0  0  0  0999 V2000
   32.2338   -9.2708  -19.1079 O   0  0  0  0  0  0  0  0  0  0  0  0
   30.8778   -9.1768  -18.8243 C   0  0  0  0  0  0  0  0  0  0  0  0
   30.4162   -9.4310  -17.5430 C   0  0  0  0  0  0  0  0  0  0  0  0
   29.0921   -9.3513  -17.2162 C   0  0  0  0  0  0  0  0  0  0  0  0
   28.1325   -9.0073  -18.1647 C   0  0  0  0  0  0  0  0  0  0  0  0
   26.7114   -8.9053  -17.8685 C   0  0  0  0  0  0  0  0  0  0  0  0
   26.0163  -10.2080  -17.5675 C   0  0  2  0  0  0  0  0  0  0  0  0
   26.1203  -11.1295  -18.6931 N   0  0  0  0  0  0  0  0  0  0  0  0
   24.5880  -10.0543  -17.2101 C   0  0  0  0  0  0  0  0  0  0  0  0
   23.6930  -10.2709  -18.0976 O   0  0  0  0  0  0  0  0  0  0  0  0
   28.5819   -8.7531  -19.4399 C   0  0  0  0  0  0  0  0  0  0  0  0
   29.9395   -8.8348  -19.7750 C   0  0  0  0  0  0  0  0  0  0  0  0
   22.7230  -11.7274  -14.3484 C   0  0  0  0  0  0  0  0  0  0  0  0
   22.5254  -10.2462  -14.2821 C   0  0  2  0  0  0  0  0  0  0  0  0
   21.1429   -9.9994  -13.6975 C   0  0  0  0  0  0  0  0  0  0  0  0
   22.6647   -9.5588  -15.6357 C   0  0  2  0  0  0  0  0  0  0  0  0
   24.1107   -9.6835  -15.9471 N   0  0  0  0  0  0  0  0  0  0  0  0
   22.2656   -8.1534  -15.6314 C   0  0  0  0  0  0  0  0  0  0  0  0
   22.8396   -7.3043  -14.8584 O   0  0  0  0  0  0  0  0  0  0  0  0
   19.7618   -6.3374  -18.5140 O   0  0  0  0  0  0  0  0  0  0  0  0
   20.7322   -5.6401  -17.7995 C   0  0  0  0  0  0  0  0  0  0  0  0
   20.9039   -6.2098  -16.4063 C   0  0  2  0  0  0  0  0  0  0  0  0
   21.2433   -7.6272  -16.4591 N   0  0  0  0  0  0  0  0  0  0  0  0
   19.6940   -5.9757  -15.5844 C   0  0  0  0  0  0  0  0  0  0  0  0
   18.9732   -7.0336  -15.0785 O   0  0  0  0  0  0  0  0  0  0  0  0
   19.3064   -4.8089  -15.3358 O   0  0  0  0  0  0  0  0  0  0  0  0
  2  3  2  0
  2  1  1  0
  4  3  1  0
  5  4  2  0
  6  5  1  0
  7  6  1  0
  7  9  1  0
  7  8  1  6
  9 17  1  0
  9 10  2  0
 11  5  1  0
 11 12  2  0
 12  2  1  0
 14 13  1  6
 14 15  1  0
 16 14  1  0
 16 17  1  1
 18 16  1  0
 18 19  2  0
 20 21  1  0
 22 21  1  6
 22 23  1  0
 23 18  1  0
 24 22  1  0
 25 24  1  0
 26 24  2  0
M  END
$$$$
