DWP.pdb
     RDKit          3D

 30 32  0  0  1  0  0  0  0  0999 V2000
    9.1631  -16.9019   20.9959 N   0  0  0  0  0  0  0  0  0  0  0  0
   10.3968  -16.5991   21.6710 C   0  0  1  0  0  0  0  0  0  0  0  0
   11.3692  -15.8212   20.8252 C   0  0  0  0  0  0  0  0  0  0  0  0
   12.4420  -16.6244   20.2326 C   0  0  0  0  0  0  0  0  0  0  0  0
   12.5304  -17.8506   20.4338 O   0  0  0  0  0  0  0  0  0  0  0  0
   10.1750  -15.9789   23.0011 C   0  0  0  0  0  0  0  0  0  0  0  0
   10.3298  -14.7436   23.1674 O   0  0  0  0  0  0  0  0  0  0  0  0
   13.3804  -16.0084   19.4300 O   0  0  0  0  0  0  0  0  0  0  0  0
    9.7836  -16.7437   24.1413 N   0  0  0  0  0  0  0  0  0  0  0  0
    9.5055  -16.1268   25.4174 C   0  0  1  0  0  0  0  0  0  0  0  0
    8.1231  -16.4739   25.8625 C   0  0  0  0  0  0  0  0  0  0  0  0
    7.0829  -15.4753   25.6172 C   0  0  0  0  0  0  0  0  0  0  0  0
    5.7682  -15.7594   25.2067 C   0  0  0  0  0  0  0  0  0  0  0  0
    5.0638  -14.6577   25.0367 N   0  0  0  0  0  0  0  0  0  0  0  0
    5.8863  -13.6313   25.3285 C   0  0  0  0  0  0  0  0  0  0  0  0
    5.5917  -12.2895   25.3066 C   0  0  0  0  0  0  0  0  0  0  0  0
    6.5778  -11.3887   25.6580 C   0  0  0  0  0  0  0  0  0  0  0  0
    7.8253  -11.8453   26.0205 C   0  0  0  0  0  0  0  0  0  0  0  0
    8.1109  -13.1879   26.0389 C   0  0  0  0  0  0  0  0  0  0  0  0
    7.1365  -14.1064   25.6894 C   0  0  0  0  0  0  0  0  0  0  0  0
   10.5350  -16.6532   26.3896 C   0  0  0  0  0  0  0  0  0  0  0  0
   10.9657  -17.8145   26.1643 O   0  0  0  0  0  0  0  0  0  0  0  0
   11.0107  -15.9444   27.4758 N   0  0  0  0  0  0  0  0  0  0  0  0
   11.0338  -14.4685   27.5426 C   0  0  0  0  0  0  0  0  0  0  0  0
   10.3681  -14.2849   28.8887 C   0  0  0  0  0  0  0  0  0  0  0  0
   10.7665  -15.5042   29.6985 C   0  0  0  0  0  0  0  0  0  0  0  0
   11.6242  -16.3210   28.6824 C   0  0  1  0  0  0  0  0  0  0  0  0
   11.6797  -17.7072   29.0985 C   0  0  0  0  0  0  0  0  0  0  0  0
   10.5100  -18.4685   28.8045 O   0  0  0  0  0  0  0  0  0  0  0  0
   12.5697  -18.3237   29.6608 O   0  0  0  0  0  0  0  0  0  0  0  0
  2  1  1  6
  3  2  1  0
  3  4  1  0
  4  5  2  0
  6  2  1  0
  6  7  2  0
  8  4  1  0
  9  6  1  0
 10  9  1  0
 10 11  1  1
 12 13  2  0
 12 11  1  0
 14 13  1  0
 15 20  2  0
 15 14  1  0
 16 15  1  0
 17 18  1  0
 17 16  2  0
 18 19  2  0
 19 20  1  0
 20 12  1  0
 21 10  1  0
 22 21  2  0
 23 27  1  0
 23 21  1  0
 24 23  1  0
 25 24  1  0
 25 26  1  0
 26 27  1  0
 28 29  1  0
 27 28  1  1
 30 28  2  0
M  END
$$$$
