DWP.pdb
     RDKit          3D

 30 32  0  0  1  0  0  0  0  0999 V2000
   10.1784  -16.9230   20.6963 N   0  0  0  0  0  0  0  0  0  0  0  0
   11.1825  -17.0381   21.7201 C   0  0  1  0  0  0  0  0  0  0  0  0
   12.5687  -16.6960   21.2430 C   0  0  0  0  0  0  0  0  0  0  0  0
   13.0325  -17.4843   20.0981 C   0  0  0  0  0  0  0  0  0  0  0  0
   12.8393  -18.7129   20.0268 O   0  0  0  0  0  0  0  0  0  0  0  0
   10.8106  -16.3114   22.9597 C   0  0  0  0  0  0  0  0  0  0  0  0
   11.2207  -15.1423   23.1661 O   0  0  0  0  0  0  0  0  0  0  0  0
   13.7013  -16.8510   19.0704 O   0  0  0  0  0  0  0  0  0  0  0  0
    9.9836  -16.8967   23.9655 N   0  0  0  0  0  0  0  0  0  0  0  0
    9.5552  -16.1566   25.1297 C   0  0  1  0  0  0  0  0  0  0  0  0
    8.0640  -16.1344   25.2009 C   0  0  0  0  0  0  0  0  0  0  0  0
    7.3956  -14.9638   24.6327 C   0  0  0  0  0  0  0  0  0  0  0  0
    6.9246  -14.8621   23.3116 C   0  0  0  0  0  0  0  0  0  0  0  0
    6.3929  -13.6787   23.0755 N   0  0  0  0  0  0  0  0  0  0  0  0
    6.4978  -12.9788   24.2219 C   0  0  0  0  0  0  0  0  0  0  0  0
    6.0686  -11.6959   24.4624 C   0  0  0  0  0  0  0  0  0  0  0  0
    6.2567  -11.1592   25.7208 C   0  0  0  0  0  0  0  0  0  0  0  0
    6.8640  -11.9102   26.7024 C   0  0  0  0  0  0  0  0  0  0  0  0
    7.2902  -13.1910   26.4529 C   0  0  0  0  0  0  0  0  0  0  0  0
    7.1116  -13.7466   25.1980 C   0  0  0  0  0  0  0  0  0  0  0  0
   10.1439  -16.8565   26.3320 C   0  0  0  0  0  0  0  0  0  0  0  0
   10.0535  -18.1122   26.3404 O   0  0  0  0  0  0  0  0  0  0  0  0
   10.7567  -16.2063   27.3857 N   0  0  0  0  0  0  0  0  0  0  0  0
   11.2630  -14.8204   27.3082 C   0  0  0  0  0  0  0  0  0  0  0  0
   10.6107  -14.2631   28.5543 C   0  0  0  0  0  0  0  0  0  0  0  0
   10.5300  -15.4324   29.5173 C   0  0  0  0  0  0  0  0  0  0  0  0
   11.1321  -16.6037   28.6801 C   0  0  1  0  0  0  0  0  0  0  0  0
   10.6985  -17.8694   29.2348 C   0  0  0  0  0  0  0  0  0  0  0  0
   11.4388  -18.3110   30.3710 O   0  0  0  0  0  0  0  0  0  0  0  0
    9.8002  -18.6155   28.8815 O   0  0  0  0  0  0  0  0  0  0  0  0
  2  1  1  6
  3  2  1  0
  3  4  1  0
  4  5  2  0
  6  2  1  0
  6  7  2  0
  8  4  1  0
  9  6  1  0
 10  9  1  0
 10 11  1  1
 12 13  2  0
 12 11  1  0
 14 13  1  0
 15 20  2  0
 15 14  1  0
 16 15  1  0
 17 18  1  0
 17 16  2  0
 18 19  2  0
 19 20  1  0
 20 12  1  0
 21 10  1  0
 22 21  2  0
 23 27  1  0
 23 21  1  0
 24 23  1  0
 25 24  1  0
 25 26  1  0
 26 27  1  0
 28 29  1  0
 27 28  1  1
 30 28  2  0
M  END
$$$$
