DWP.pdb
     RDKit          3D

 30 32  0  0  1  0  0  0  0  0999 V2000
   10.1496  -16.9294   20.4565 N   0  0  0  0  0  0  0  0  0  0  0  0
   11.2052  -16.7881   21.4235 C   0  0  1  0  0  0  0  0  0  0  0  0
   12.4522  -16.1576   20.8637 C   0  0  0  0  0  0  0  0  0  0  0  0
   13.1514  -16.9697   19.8642 C   0  0  0  0  0  0  0  0  0  0  0  0
   13.1537  -18.2143   19.9160 O   0  0  0  0  0  0  0  0  0  0  0  0
   10.7436  -16.1289   22.6708 C   0  0  0  0  0  0  0  0  0  0  0  0
   11.1839  -15.0000   23.0011 O   0  0  0  0  0  0  0  0  0  0  0  0
   13.8258  -16.3412   18.8373 O   0  0  0  0  0  0  0  0  0  0  0  0
    9.7932  -16.7369   23.5456 N   0  0  0  0  0  0  0  0  0  0  0  0
    9.3284  -16.0802   24.7453 C   0  0  1  0  0  0  0  0  0  0  0  0
    7.9150  -16.4707   25.0267 C   0  0  0  0  0  0  0  0  0  0  0  0
    7.0278  -15.4182   25.5216 C   0  0  0  0  0  0  0  0  0  0  0  0
    5.7262  -15.6213   26.0136 C   0  0  0  0  0  0  0  0  0  0  0  0
    5.1555  -14.4843   26.3608 N   0  0  0  0  0  0  0  0  0  0  0  0
    6.0563  -13.5143   26.1104 C   0  0  0  0  0  0  0  0  0  0  0  0
    5.9155  -12.1646   26.3253 C   0  0  0  0  0  0  0  0  0  0  0  0
    6.9713  -11.3304   26.0147 C   0  0  0  0  0  0  0  0  0  0  0  0
    8.1343  -11.8593   25.5008 C   0  0  0  0  0  0  0  0  0  0  0  0
    8.2658  -13.2091   25.2888 C   0  0  0  0  0  0  0  0  0  0  0  0
    7.2189  -14.0617   25.5930 C   0  0  0  0  0  0  0  0  0  0  0  0
   10.2438  -16.5182   25.8644 C   0  0  0  0  0  0  0  0  0  0  0  0
   10.5199  -17.7458   25.9048 O   0  0  0  0  0  0  0  0  0  0  0  0
   10.7747  -15.6645   26.8119 N   0  0  0  0  0  0  0  0  0  0  0  0
   11.0621  -14.2376   26.5576 C   0  0  0  0  0  0  0  0  0  0  0  0
   10.3617  -13.6404   27.7583 C   0  0  0  0  0  0  0  0  0  0  0  0
   10.4824  -14.6869   28.8498 C   0  0  0  0  0  0  0  0  0  0  0  0
   11.2362  -15.8462   28.1265 C   0  0  1  0  0  0  0  0  0  0  0  0
   11.0135  -17.0880   28.8380 C   0  0  0  0  0  0  0  0  0  0  0  0
    9.7755  -17.7329   28.5450 O   0  0  0  0  0  0  0  0  0  0  0  0
   11.7187  -17.6669   29.6479 O   0  0  0  0  0  0  0  0  0  0  0  0
  2  1  1  6
  3  2  1  0
  3  4  1  0
  4  5  2  0
  6  2  1  0
  6  7  2  0
  8  4  1  0
  9  6  1  0
 10  9  1  0
 10 11  1  1
 12 13  2  0
 12 11  1  0
 14 13  1  0
 15 20  2  0
 15 14  1  0
 16 15  1  0
 17 18  1  0
 17 16  2  0
 18 19  2  0
 19 20  1  0
 20 12  1  0
 21 10  1  0
 22 21  2  0
 23 27  1  0
 23 21  1  0
 24 23  1  0
 25 24  1  0
 25 26  1  0
 26 27  1  0
 28 29  1  0
 27 28  1  1
 30 28  2  0
M  END
$$$$
