DWP.pdb
     RDKit          3D

 30 32  0  0  1  0  0  0  0  0999 V2000
   11.1355  -16.7969   19.7453 N   0  0  0  0  0  0  0  0  0  0  0  0
   11.6562  -17.0167   21.0682 C   0  0  1  0  0  0  0  0  0  0  0  0
   13.1589  -16.9623   21.1389 C   0  0  0  0  0  0  0  0  0  0  0  0
   13.8468  -17.8892   20.2363 C   0  0  0  0  0  0  0  0  0  0  0  0
   13.4214  -19.0421   20.0319 O   0  0  0  0  0  0  0  0  0  0  0  0
   11.0059  -16.1493   22.0820 C   0  0  0  0  0  0  0  0  0  0  0  0
   11.1392  -14.9011   22.0396 O   0  0  0  0  0  0  0  0  0  0  0  0
   14.9965  -17.4763   19.5943 O   0  0  0  0  0  0  0  0  0  0  0  0
   10.2112  -16.6819   23.1417 N   0  0  0  0  0  0  0  0  0  0  0  0
    9.5633  -15.8321   24.1135 C   0  0  1  0  0  0  0  0  0  0  0  0
    8.1001  -15.7514   23.8270 C   0  0  0  0  0  0  0  0  0  0  0  0
    7.2727  -15.0638   24.8180 C   0  0  0  0  0  0  0  0  0  0  0  0
    6.3834  -15.6931   25.7073 C   0  0  0  0  0  0  0  0  0  0  0  0
    5.7521  -14.8168   26.4639 N   0  0  0  0  0  0  0  0  0  0  0  0
    6.2046  -13.6018   26.0975 C   0  0  0  0  0  0  0  0  0  0  0  0
    5.8443  -12.3820   26.6172 C   0  0  0  0  0  0  0  0  0  0  0  0
    6.4406  -11.2439   26.1112 C   0  0  0  0  0  0  0  0  0  0  0  0
    7.3759  -11.3494   25.1060 C   0  0  0  0  0  0  0  0  0  0  0  0
    7.7294  -12.5723   24.5924 C   0  0  0  0  0  0  0  0  0  0  0  0
    7.1425  -13.7247   25.0855 C   0  0  0  0  0  0  0  0  0  0  0  0
    9.8159  -16.4490   25.4692 C   0  0  0  0  0  0  0  0  0  0  0  0
    9.5155  -17.6658   25.5879 O   0  0  0  0  0  0  0  0  0  0  0  0
   10.3437  -15.7649   26.5471 N   0  0  0  0  0  0  0  0  0  0  0  0
   10.9211  -14.4082   26.4514 C   0  0  0  0  0  0  0  0  0  0  0  0
   10.1675  -13.7526   27.5877 C   0  0  0  0  0  0  0  0  0  0  0  0
    9.9291  -14.8596   28.5972 C   0  0  0  0  0  0  0  0  0  0  0  0
   10.5600  -16.1017   27.8939 C   0  0  1  0  0  0  0  0  0  0  0  0
   10.0099  -17.3138   28.4648 C   0  0  0  0  0  0  0  0  0  0  0  0
   10.7765  -17.8775   29.5273 O   0  0  0  0  0  0  0  0  0  0  0  0
    8.9947  -17.9268   28.1784 O   0  0  0  0  0  0  0  0  0  0  0  0
  2  1  1  6
  3  2  1  0
  3  4  1  0
  4  5  2  0
  6  2  1  0
  6  7  2  0
  8  4  1  0
  9  6  1  0
 10  9  1  0
 10 11  1  6
 12 13  2  0
 12 11  1  0
 14 13  1  0
 15 20  2  0
 15 14  1  0
 16 15  1  0
 17 18  1  0
 17 16  2  0
 18 19  2  0
 19 20  1  0
 20 12  1  0
 21 10  1  0
 22 21  2  0
 23 27  1  0
 23 21  1  0
 24 23  1  0
 25 24  1  0
 25 26  1  0
 26 27  1  0
 28 29  1  0
 27 28  1  1
 30 28  2  0
M  END
$$$$
