DWP.pdb
     RDKit          3D

 30 32  0  0  1  0  0  0  0  0999 V2000
   11.2523  -16.6850   19.8542 N   0  0  0  0  0  0  0  0  0  0  0  0
   11.8416  -16.8627   21.1544 C   0  0  1  0  0  0  0  0  0  0  0  0
   13.3389  -16.7070   21.1615 C   0  0  0  0  0  0  0  0  0  0  0  0
   14.0423  -17.5205   20.1662 C   0  0  0  0  0  0  0  0  0  0  0  0
   13.8737  -18.7523   20.0888 O   0  0  0  0  0  0  0  0  0  0  0  0
   11.1775  -16.0360   22.1930 C   0  0  0  0  0  0  0  0  0  0  0  0
   11.2100  -14.7819   22.1331 O   0  0  0  0  0  0  0  0  0  0  0  0
   14.9152  -16.9079   19.2902 O   0  0  0  0  0  0  0  0  0  0  0  0
   10.4819  -16.6157   23.2967 N   0  0  0  0  0  0  0  0  0  0  0  0
    9.7642  -15.8099   24.2570 C   0  0  1  0  0  0  0  0  0  0  0  0
    8.3151  -15.7599   23.9007 C   0  0  0  0  0  0  0  0  0  0  0  0
    7.4315  -15.0639   24.8358 C   0  0  0  0  0  0  0  0  0  0  0  0
    6.5349  -15.6892   25.7206 C   0  0  0  0  0  0  0  0  0  0  0  0
    5.8485  -14.8069   26.4203 N   0  0  0  0  0  0  0  0  0  0  0  0
    6.2710  -13.5919   26.0198 C   0  0  0  0  0  0  0  0  0  0  0  0
    5.8514  -12.3663   26.4777 C   0  0  0  0  0  0  0  0  0  0  0  0
    6.4249  -11.2283   25.9455 C   0  0  0  0  0  0  0  0  0  0  0  0
    7.3966  -11.3397   24.9762 C   0  0  0  0  0  0  0  0  0  0  0  0
    7.8092  -12.5685   24.5243 C   0  0  0  0  0  0  0  0  0  0  0  0
    7.2462  -13.7208   25.0445 C   0  0  0  0  0  0  0  0  0  0  0  0
    9.9674  -16.4567   25.6070 C   0  0  0  0  0  0  0  0  0  0  0  0
    9.7827  -17.7009   25.6578 O   0  0  0  0  0  0  0  0  0  0  0  0
   10.3348  -15.7711   26.7487 N   0  0  0  0  0  0  0  0  0  0  0  0
   10.6835  -14.3353   26.7638 C   0  0  0  0  0  0  0  0  0  0  0  0
    9.7905  -13.8898   27.9009 C   0  0  0  0  0  0  0  0  0  0  0  0
    9.7009  -15.0870   28.8282 C   0  0  0  0  0  0  0  0  0  0  0  0
   10.5538  -16.1593   28.0812 C   0  0  1  0  0  0  0  0  0  0  0  0
   10.1906  -17.4807   28.5500 C   0  0  0  0  0  0  0  0  0  0  0  0
   10.9616  -17.9593   29.6503 O   0  0  0  0  0  0  0  0  0  0  0  0
    9.3294  -18.2470   28.1503 O   0  0  0  0  0  0  0  0  0  0  0  0
  2  1  1  6
  3  2  1  0
  3  4  1  0
  4  5  2  0
  6  2  1  0
  6  7  2  0
  8  4  1  0
  9  6  1  0
 10  9  1  0
 10 11  1  6
 12 13  2  0
 12 11  1  0
 14 13  1  0
 15 20  2  0
 15 14  1  0
 16 15  1  0
 17 18  1  0
 17 16  2  0
 18 19  2  0
 19 20  1  0
 20 12  1  0
 21 10  1  0
 22 21  2  0
 23 27  1  0
 23 21  1  0
 24 23  1  0
 25 24  1  0
 25 26  1  0
 26 27  1  0
 28 29  1  0
 27 28  1  6
 30 28  2  0
M  END
$$$$
