DWP.pdb
     RDKit          3D

 30 32  0  0  1  0  0  0  0  0999 V2000
    9.3242  -17.7007   21.5988 N   0  0  0  0  0  0  0  0  0  0  0  0
   10.4868  -16.9354   21.9624 C   0  0  1  0  0  0  0  0  0  0  0  0
   10.9451  -15.9904   20.8841 C   0  0  0  0  0  0  0  0  0  0  0  0
   11.5437  -16.6410   19.7155 C   0  0  0  0  0  0  0  0  0  0  0  0
   11.6494  -17.8798   19.6375 O   0  0  0  0  0  0  0  0  0  0  0  0
   10.3337  -16.2673   23.2789 C   0  0  0  0  0  0  0  0  0  0  0  0
   10.8344  -15.1342   23.4859 O   0  0  0  0  0  0  0  0  0  0  0  0
   12.0030  -15.8629   18.6725 O   0  0  0  0  0  0  0  0  0  0  0  0
    9.6234  -16.8708   24.3603 N   0  0  0  0  0  0  0  0  0  0  0  0
    9.4652  -16.2102   25.6351 C   0  0  1  0  0  0  0  0  0  0  0  0
    8.0537  -16.3373   26.1048 C   0  0  0  0  0  0  0  0  0  0  0  0
    7.0848  -15.3993   25.5381 C   0  0  0  0  0  0  0  0  0  0  0  0
    5.9435  -15.7611   24.8004 C   0  0  0  0  0  0  0  0  0  0  0  0
    5.2732  -14.7013   24.3922 N   0  0  0  0  0  0  0  0  0  0  0  0
    5.9473  -13.6267   24.8459 C   0  0  0  0  0  0  0  0  0  0  0  0
    5.6218  -12.3022   24.6795 C   0  0  0  0  0  0  0  0  0  0  0  0
    6.4413  -11.3429   25.2411 C   0  0  0  0  0  0  0  0  0  0  0  0
    7.5579  -11.7255   25.9504 C   0  0  0  0  0  0  0  0  0  0  0  0
    7.8756  -13.0513   26.1110 C   0  0  0  0  0  0  0  0  0  0  0  0
    7.0675  -14.0277   25.5553 C   0  0  0  0  0  0  0  0  0  0  0  0
   10.4177  -16.8827   26.5955 C   0  0  0  0  0  0  0  0  0  0  0  0
   10.6280  -18.1083   26.3990 O   0  0  0  0  0  0  0  0  0  0  0  0
   11.0481  -16.2383   27.6425 N   0  0  0  0  0  0  0  0  0  0  0  0
   11.3541  -14.7928   27.6476 C   0  0  0  0  0  0  0  0  0  0  0  0
   10.7709  -14.4351   28.9970 C   0  0  0  0  0  0  0  0  0  0  0  0
   10.9504  -15.6772   29.8492 C   0  0  0  0  0  0  0  0  0  0  0  0
   11.6097  -16.6804   28.8521 C   0  0  1  0  0  0  0  0  0  0  0  0
   11.4105  -18.0351   29.3242 C   0  0  0  0  0  0  0  0  0  0  0  0
   12.2166  -18.4052   30.4412 O   0  0  0  0  0  0  0  0  0  0  0  0
   10.6620  -18.9076   28.9155 O   0  0  0  0  0  0  0  0  0  0  0  0
  2  1  1  6
  3  2  1  0
  3  4  1  0
  4  5  2  0
  6  2  1  0
  6  7  2  0
  8  4  1  0
  9  6  1  0
 10  9  1  0
 10 11  1  1
 12 13  2  0
 12 11  1  0
 14 13  1  0
 15 20  2  0
 15 14  1  0
 16 15  1  0
 17 18  1  0
 17 16  2  0
 18 19  2  0
 19 20  1  0
 20 12  1  0
 21 10  1  0
 22 21  2  0
 23 27  1  0
 23 21  1  0
 24 23  1  0
 25 24  1  0
 25 26  1  0
 26 27  1  0
 28 29  1  0
 27 28  1  1
 30 28  2  0
M  END
$$$$
