DWP.pdb
     RDKit          3D

 30 32  0  0  1  0  0  0  0  0999 V2000
   10.1888  -16.9975   20.6978 N   0  0  0  0  0  0  0  0  0  0  0  0
   11.2079  -16.7296   21.6771 C   0  0  1  0  0  0  0  0  0  0  0  0
   12.4095  -16.0185   21.1146 C   0  0  0  0  0  0  0  0  0  0  0  0
   13.1278  -16.7611   20.0754 C   0  0  0  0  0  0  0  0  0  0  0  0
   13.1128  -16.4006   18.8831 O   0  0  0  0  0  0  0  0  0  0  0  0
   10.6662  -16.0635   22.8879 C   0  0  0  0  0  0  0  0  0  0  0  0
   10.6286  -14.8107   22.9689 O   0  0  0  0  0  0  0  0  0  0  0  0
   13.8405  -17.8900   20.4245 O   0  0  0  0  0  0  0  0  0  0  0  0
   10.1712  -16.8017   24.0051 N   0  0  0  0  0  0  0  0  0  0  0  0
    9.5337  -16.1542   25.1279 C   0  0  1  0  0  0  0  0  0  0  0  0
    8.0571  -16.3688   25.0708 C   0  0  0  0  0  0  0  0  0  0  0  0
    7.2511  -15.2625   24.5550 C   0  0  0  0  0  0  0  0  0  0  0  0
    6.6520  -15.2212   23.2833 C   0  0  0  0  0  0  0  0  0  0  0  0
    6.0117  -14.0857   23.0849 N   0  0  0  0  0  0  0  0  0  0  0  0
    6.1698  -13.3584   24.2080 C   0  0  0  0  0  0  0  0  0  0  0  0
    5.6683  -12.1070   24.4731 C   0  0  0  0  0  0  0  0  0  0  0  0
    5.9318  -11.5341   25.7017 C   0  0  0  0  0  0  0  0  0  0  0  0
    6.6840  -12.2189   26.6299 C   0  0  0  0  0  0  0  0  0  0  0  0
    7.1814  -13.4687   26.3561 C   0  0  0  0  0  0  0  0  0  0  0  0
    6.9291  -14.0596   25.1303 C   0  0  0  0  0  0  0  0  0  0  0  0
   10.1217  -16.7683   26.3766 C   0  0  0  0  0  0  0  0  0  0  0  0
   10.0348  -18.0207   26.4709 O   0  0  0  0  0  0  0  0  0  0  0  0
   10.7304  -16.0455   27.3844 N   0  0  0  0  0  0  0  0  0  0  0  0
   11.1663  -14.6416   27.2353 C   0  0  0  0  0  0  0  0  0  0  0  0
   10.5215  -14.0636   28.4759 C   0  0  0  0  0  0  0  0  0  0  0  0
   10.5239  -15.1935   29.4881 C   0  0  0  0  0  0  0  0  0  0  0  0
   11.1595  -16.3693   28.6826 C   0  0  1  0  0  0  0  0  0  0  0  0
   10.8033  -17.6295   29.3012 C   0  0  0  0  0  0  0  0  0  0  0  0
    9.5389  -18.1562   28.9034 O   0  0  0  0  0  0  0  0  0  0  0  0
   11.4153  -18.3092   30.1085 O   0  0  0  0  0  0  0  0  0  0  0  0
  2  1  1  6
  3  2  1  0
  3  4  1  0
  4  5  2  0
  6  2  1  0
  6  7  2  0
  8  4  1  0
  9  6  1  0
 10  9  1  0
 10 11  1  6
 12 13  2  0
 12 11  1  0
 14 13  1  0
 15 20  2  0
 15 14  1  0
 16 15  1  0
 17 18  1  0
 17 16  2  0
 18 19  2  0
 19 20  1  0
 20 12  1  0
 21 10  1  0
 22 21  2  0
 23 27  1  0
 23 21  1  0
 24 23  1  0
 25 24  1  0
 25 26  1  0
 26 27  1  0
 28 29  1  0
 27 28  1  1
 30 28  2  0
M  END
$$$$
