DWP.pdb
     RDKit          3D

 30 32  0  0  1  0  0  0  0  0999 V2000
   10.7253  -16.5262   20.6142 N   0  0  0  0  0  0  0  0  0  0  0  0
   11.2909  -17.0195   21.8414 C   0  0  1  0  0  0  0  0  0  0  0  0
   12.7937  -17.1043   21.8187 C   0  0  0  0  0  0  0  0  0  0  0  0
   13.3377  -18.0449   20.8356 C   0  0  0  0  0  0  0  0  0  0  0  0
   12.6605  -18.9900   20.3881 O   0  0  0  0  0  0  0  0  0  0  0  0
   10.7787  -16.2942   23.0308 C   0  0  0  0  0  0  0  0  0  0  0  0
   11.0752  -15.0892   23.2249 O   0  0  0  0  0  0  0  0  0  0  0  0
   14.6342  -17.8816   20.3920 O   0  0  0  0  0  0  0  0  0  0  0  0
    9.9389  -16.9208   24.0005 N   0  0  0  0  0  0  0  0  0  0  0  0
    9.4682  -16.2193   25.1722 C   0  0  1  0  0  0  0  0  0  0  0  0
    7.9780  -16.2830   25.2416 C   0  0  0  0  0  0  0  0  0  0  0  0
    7.2459  -15.1197   24.7413 C   0  0  0  0  0  0  0  0  0  0  0  0
    6.6889  -15.0053   23.4550 C   0  0  0  0  0  0  0  0  0  0  0  0
    6.1140  -13.8319   23.2776 N   0  0  0  0  0  0  0  0  0  0  0  0
    6.2746  -13.1513   24.4292 C   0  0  0  0  0  0  0  0  0  0  0  0
    5.8301  -11.8848   24.7227 C   0  0  0  0  0  0  0  0  0  0  0  0
    6.0849  -11.3673   25.9775 C   0  0  0  0  0  0  0  0  0  0  0  0
    6.7723  -12.1207   26.9028 C   0  0  0  0  0  0  0  0  0  0  0  0
    7.2132  -13.3851   26.6005 C   0  0  0  0  0  0  0  0  0  0  0  0
    6.9684  -13.9212   25.3483 C   0  0  0  0  0  0  0  0  0  0  0  0
   10.0950  -16.8978   26.3675 C   0  0  0  0  0  0  0  0  0  0  0  0
    9.9917  -18.1518   26.4090 O   0  0  0  0  0  0  0  0  0  0  0  0
   10.7544  -16.2304   27.3816 N   0  0  0  0  0  0  0  0  0  0  0  0
   11.1821  -14.8192   27.2886 C   0  0  0  0  0  0  0  0  0  0  0  0
   10.6016  -14.3127   28.5907 C   0  0  0  0  0  0  0  0  0  0  0  0
   10.6558  -15.4970   29.5371 C   0  0  0  0  0  0  0  0  0  0  0  0
   11.2493  -16.6245   28.6361 C   0  0  1  0  0  0  0  0  0  0  0  0
   10.9251  -17.9181   29.2011 C   0  0  0  0  0  0  0  0  0  0  0  0
    9.5978  -18.3703   28.9406 O   0  0  0  0  0  0  0  0  0  0  0  0
   11.6096  -18.6795   29.8645 O   0  0  0  0  0  0  0  0  0  0  0  0
  2  1  1  6
  3  2  1  0
  3  4  1  0
  4  5  2  0
  6  2  1  0
  6  7  2  0
  8  4  1  0
  9  6  1  0
 10  9  1  0
 10 11  1  1
 12 13  2  0
 12 11  1  0
 14 13  1  0
 15 20  2  0
 15 14  1  0
 16 15  1  0
 17 18  1  0
 17 16  2  0
 18 19  2  0
 19 20  1  0
 20 12  1  0
 21 10  1  0
 22 21  2  0
 23 27  1  0
 23 21  1  0
 24 23  1  0
 25 24  1  0
 25 26  1  0
 26 27  1  0
 28 29  1  0
 27 28  1  1
 30 28  2  0
M  END
$$$$
