DWP.pdb
     RDKit          3D

 30 32  0  0  1  0  0  0  0  0999 V2000
   11.0643  -16.8586   19.7919 N   0  0  0  0  0  0  0  0  0  0  0  0
   11.6458  -17.0315   21.0963 C   0  0  1  0  0  0  0  0  0  0  0  0
   13.1483  -16.9383   21.1012 C   0  0  0  0  0  0  0  0  0  0  0  0
   13.8176  -17.8122   20.1340 C   0  0  0  0  0  0  0  0  0  0  0  0
   14.1486  -17.4067   19.0036 O   0  0  0  0  0  0  0  0  0  0  0  0
   11.0168  -16.1547   22.1154 C   0  0  0  0  0  0  0  0  0  0  0  0
   11.0983  -14.9046   22.0253 O   0  0  0  0  0  0  0  0  0  0  0  0
   14.0898  -19.1195   20.4824 O   0  0  0  0  0  0  0  0  0  0  0  0
   10.3014  -16.6800   23.2336 N   0  0  0  0  0  0  0  0  0  0  0  0
    9.6655  -15.8221   24.2064 C   0  0  1  0  0  0  0  0  0  0  0  0
    8.1912  -15.7895   23.9728 C   0  0  0  0  0  0  0  0  0  0  0  0
    7.3922  -15.0116   24.9195 C   0  0  0  0  0  0  0  0  0  0  0  0
    6.6113  -15.5528   25.9563 C   0  0  0  0  0  0  0  0  0  0  0  0
    5.9786  -14.6118   26.6294 N   0  0  0  0  0  0  0  0  0  0  0  0
    6.3230  -13.4400   26.0606 C   0  0  0  0  0  0  0  0  0  0  0  0
    5.9206  -12.1793   26.4300 C   0  0  0  0  0  0  0  0  0  0  0  0
    6.4034  -11.0959   25.7228 C   0  0  0  0  0  0  0  0  0  0  0  0
    7.2702  -11.2949   24.6715 C   0  0  0  0  0  0  0  0  0  0  0  0
    7.6665  -12.5583   24.3092 C   0  0  0  0  0  0  0  0  0  0  0  0
    7.1932  -13.6571   25.0049 C   0  0  0  0  0  0  0  0  0  0  0  0
    9.9852  -16.3946   25.5673 C   0  0  0  0  0  0  0  0  0  0  0  0
    9.6962  -17.6078   25.7389 O   0  0  0  0  0  0  0  0  0  0  0  0
   10.5609  -15.6749   26.5965 N   0  0  0  0  0  0  0  0  0  0  0  0
   11.0523  -14.2892   26.4502 C   0  0  0  0  0  0  0  0  0  0  0  0
   10.3592  -13.6681   27.6430 C   0  0  0  0  0  0  0  0  0  0  0  0
   10.2662  -14.7794   28.6714 C   0  0  0  0  0  0  0  0  0  0  0  0
   10.9052  -15.9897   27.9218 C   0  0  1  0  0  0  0  0  0  0  0  0
   10.4718  -17.2262   28.5390 C   0  0  0  0  0  0  0  0  0  0  0  0
    9.0880  -17.5277   28.3701 O   0  0  0  0  0  0  0  0  0  0  0  0
   11.1052  -18.0485   29.1803 O   0  0  0  0  0  0  0  0  0  0  0  0
  2  1  1  6
  3  2  1  0
  3  4  1  0
  4  5  2  0
  6  2  1  0
  6  7  2  0
  8  4  1  0
  9  6  1  0
 10  9  1  0
 10 11  1  6
 12 13  2  0
 12 11  1  0
 14 13  1  0
 15 20  2  0
 15 14  1  0
 16 15  1  0
 17 18  1  0
 17 16  2  0
 18 19  2  0
 19 20  1  0
 20 12  1  0
 21 10  1  0
 22 21  2  0
 23 27  1  0
 23 21  1  0
 24 23  1  0
 25 24  1  0
 25 26  1  0
 26 27  1  0
 28 29  1  0
 27 28  1  1
 30 28  2  0
M  END
$$$$
