DWP.pdb
     RDKit          3D

 30 32  0  0  1  0  0  0  0  0999 V2000
   10.9309  -18.2008   20.9404 N   0  0  0  0  0  0  0  0  0  0  0  0
   11.4644  -16.8655   20.9822 C   0  0  1  0  0  0  0  0  0  0  0  0
   11.5432  -16.2076   19.6306 C   0  0  0  0  0  0  0  0  0  0  0  0
   12.2735  -16.9760   18.6189 C   0  0  0  0  0  0  0  0  0  0  0  0
   13.5089  -16.8818   18.4898 O   0  0  0  0  0  0  0  0  0  0  0  0
   10.7824  -16.0165   21.9907 C   0  0  0  0  0  0  0  0  0  0  0  0
   10.8488  -14.7639   21.9261 O   0  0  0  0  0  0  0  0  0  0  0  0
   11.5763  -17.8272   17.7860 O   0  0  0  0  0  0  0  0  0  0  0  0
   10.0308  -16.5722   23.0699 N   0  0  0  0  0  0  0  0  0  0  0  0
    9.4445  -15.7456   24.0991 C   0  0  1  0  0  0  0  0  0  0  0  0
    7.9610  -15.7010   23.9353 C   0  0  0  0  0  0  0  0  0  0  0  0
    7.2047  -15.0069   24.9775 C   0  0  0  0  0  0  0  0  0  0  0  0
    6.4710  -15.6348   25.9998 C   0  0  0  0  0  0  0  0  0  0  0  0
    5.8685  -14.7550   26.7755 N   0  0  0  0  0  0  0  0  0  0  0  0
    6.1869  -13.5390   26.2906 C   0  0  0  0  0  0  0  0  0  0  0  0
    5.8008  -12.3146   26.7802 C   0  0  0  0  0  0  0  0  0  0  0  0
    6.2513  -11.1746   26.1441 C   0  0  0  0  0  0  0  0  0  0  0  0
    7.0705  -11.2829   25.0425 C   0  0  0  0  0  0  0  0  0  0  0  0
    7.4507  -12.5105   24.5600 C   0  0  0  0  0  0  0  0  0  0  0  0
    7.0092  -13.6648   25.1830 C   0  0  0  0  0  0  0  0  0  0  0  0
    9.8241  -16.3643   25.4240 C   0  0  0  0  0  0  0  0  0  0  0  0
    9.5860  -17.5942   25.5486 O   0  0  0  0  0  0  0  0  0  0  0  0
   10.4015  -15.6685   26.4685 N   0  0  0  0  0  0  0  0  0  0  0  0
   10.8398  -14.2609   26.3701 C   0  0  0  0  0  0  0  0  0  0  0  0
   10.1575  -13.7165   27.6059 C   0  0  0  0  0  0  0  0  0  0  0  0
   10.1311  -14.8731   28.5871 C   0  0  0  0  0  0  0  0  0  0  0  0
   10.7920  -16.0266   27.7698 C   0  0  1  0  0  0  0  0  0  0  0  0
   10.4190  -17.3031   28.3436 C   0  0  0  0  0  0  0  0  0  0  0  0
    9.0221  -17.5893   28.3120 O   0  0  0  0  0  0  0  0  0  0  0  0
   11.1127  -18.1700   28.8492 O   0  0  0  0  0  0  0  0  0  0  0  0
  2  1  1  6
  3  2  1  0
  3  4  1  0
  4  5  2  0
  6  2  1  0
  6  7  2  0
  8  4  1  0
  9  6  1  0
 10  9  1  0
 10 11  1  6
 12 13  2  0
 12 11  1  0
 14 13  1  0
 15 20  2  0
 15 14  1  0
 16 15  1  0
 17 18  1  0
 17 16  2  0
 18 19  2  0
 19 20  1  0
 20 12  1  0
 21 10  1  0
 22 21  2  0
 23 27  1  0
 23 21  1  0
 24 23  1  0
 25 24  1  0
 25 26  1  0
 26 27  1  0
 28 29  1  0
 27 28  1  1
 30 28  2  0
M  END
$$$$
