DWP.pdb
     RDKit          3D

 30 32  0  0  1  0  0  0  0  0999 V2000
    9.6030  -17.8928   21.6920 N   0  0  0  0  0  0  0  0  0  0  0  0
   10.4866  -16.7702   21.8615 C   0  0  1  0  0  0  0  0  0  0  0  0
   10.4563  -15.8027   20.7087 C   0  0  0  0  0  0  0  0  0  0  0  0
   10.8317  -16.3811   19.4158 C   0  0  0  0  0  0  0  0  0  0  0  0
   10.8362  -15.7028   18.3708 O   0  0  0  0  0  0  0  0  0  0  0  0
   10.3029  -16.1003   23.1732 C   0  0  0  0  0  0  0  0  0  0  0  0
   10.7260  -14.9330   23.3628 O   0  0  0  0  0  0  0  0  0  0  0  0
   11.1903  -17.7121   19.3514 O   0  0  0  0  0  0  0  0  0  0  0  0
    9.6490  -16.7402   24.2692 N   0  0  0  0  0  0  0  0  0  0  0  0
    9.5029  -16.0966   25.5541 C   0  0  1  0  0  0  0  0  0  0  0  0
    8.1128  -16.2858   26.0653 C   0  0  0  0  0  0  0  0  0  0  0  0
    7.1016  -15.3441   25.5853 C   0  0  0  0  0  0  0  0  0  0  0  0
    5.9479  -15.6942   24.8614 C   0  0  0  0  0  0  0  0  0  0  0  0
    5.2367  -14.6318   24.5380 N   0  0  0  0  0  0  0  0  0  0  0  0
    5.8953  -13.5670   25.0356 C   0  0  0  0  0  0  0  0  0  0  0  0
    5.5291  -12.2450   24.9593 C   0  0  0  0  0  0  0  0  0  0  0  0
    6.3395  -11.2976   25.5532 C   0  0  0  0  0  0  0  0  0  0  0  0
    7.4878  -11.6893   26.2046 C   0  0  0  0  0  0  0  0  0  0  0  0
    7.8461  -13.0125   26.2753 C   0  0  0  0  0  0  0  0  0  0  0  0
    7.0477  -13.9771   25.6858 C   0  0  0  0  0  0  0  0  0  0  0  0
   10.5113  -16.7366   26.4792 C   0  0  0  0  0  0  0  0  0  0  0  0
   10.8154  -17.9314   26.2246 O   0  0  0  0  0  0  0  0  0  0  0  0
   11.0961  -16.0944   27.5535 N   0  0  0  0  0  0  0  0  0  0  0  0
   11.2723  -14.6295   27.6335 C   0  0  0  0  0  0  0  0  0  0  0  0
   10.6783  -14.3971   29.0053 C   0  0  0  0  0  0  0  0  0  0  0  0
   10.9793  -15.6613   29.7879 C   0  0  0  0  0  0  0  0  0  0  0  0
   11.7115  -16.5475   28.7325 C   0  0  1  0  0  0  0  0  0  0  0  0
   11.6401  -17.9375   29.1330 C   0  0  0  0  0  0  0  0  0  0  0  0
   10.3267  -18.4936   29.1367 O   0  0  0  0  0  0  0  0  0  0  0  0
   12.5273  -18.7054   29.4675 O   0  0  0  0  0  0  0  0  0  0  0  0
  2  1  1  6
  3  2  1  0
  3  4  1  0
  4  5  2  0
  6  2  1  0
  6  7  2  0
  8  4  1  0
  9  6  1  0
 10  9  1  0
 10 11  1  1
 12 13  2  0
 12 11  1  0
 14 13  1  0
 15 20  2  0
 15 14  1  0
 16 15  1  0
 17 18  1  0
 17 16  2  0
 18 19  2  0
 19 20  1  0
 20 12  1  0
 21 10  1  0
 22 21  2  0
 23 27  1  0
 23 21  1  0
 24 23  1  0
 25 24  1  0
 25 26  1  0
 26 27  1  0
 28 29  1  0
 27 28  1  1
 30 28  2  0
M  END
$$$$
