DWP.pdb
     RDKit          3D

 30 32  0  0  1  0  0  0  0  0999 V2000
   11.0720  -17.7126   20.3639 N   0  0  0  0  0  0  0  0  0  0  0  0
   11.9946  -17.0116   21.2164 C   0  0  1  0  0  0  0  0  0  0  0  0
   13.0802  -16.2911   20.4626 C   0  0  0  0  0  0  0  0  0  0  0  0
   13.8646  -17.1395   19.5615 C   0  0  0  0  0  0  0  0  0  0  0  0
   13.8465  -18.3820   19.6497 O   0  0  0  0  0  0  0  0  0  0  0  0
   11.3041  -16.1368   22.1968 C   0  0  0  0  0  0  0  0  0  0  0  0
   11.5887  -14.9163   22.2802 O   0  0  0  0  0  0  0  0  0  0  0  0
   14.6448  -16.5489   18.5885 O   0  0  0  0  0  0  0  0  0  0  0  0
   10.2996  -16.6315   23.0825 N   0  0  0  0  0  0  0  0  0  0  0  0
    9.6503  -15.7819   24.0536 C   0  0  1  0  0  0  0  0  0  0  0  0
    8.1853  -15.7129   23.7738 C   0  0  0  0  0  0  0  0  0  0  0  0
    7.3562  -15.0370   24.7715 C   0  0  0  0  0  0  0  0  0  0  0  0
    6.4539  -15.6752   25.6412 C   0  0  0  0  0  0  0  0  0  0  0  0
    5.8246  -14.8078   26.4097 N   0  0  0  0  0  0  0  0  0  0  0  0
    6.2913  -13.5903   26.0708 C   0  0  0  0  0  0  0  0  0  0  0  0
    5.9380  -12.3775   26.6113 C   0  0  0  0  0  0  0  0  0  0  0  0
    6.5490  -11.2354   26.1324 C   0  0  0  0  0  0  0  0  0  0  0  0
    7.4913  -11.3301   25.1328 C   0  0  0  0  0  0  0  0  0  0  0  0
    7.8377  -12.5461   24.5983 C   0  0  0  0  0  0  0  0  0  0  0  0
    7.2362  -13.7022   25.0641 C   0  0  0  0  0  0  0  0  0  0  0  0
    9.9139  -16.3909   25.4108 C   0  0  0  0  0  0  0  0  0  0  0  0
    9.7802  -17.6401   25.4920 O   0  0  0  0  0  0  0  0  0  0  0  0
   10.2831  -15.6670   26.5280 N   0  0  0  0  0  0  0  0  0  0  0  0
   10.5455  -14.2130   26.5102 C   0  0  0  0  0  0  0  0  0  0  0  0
    9.6717  -13.8034   27.6754 C   0  0  0  0  0  0  0  0  0  0  0  0
    9.6896  -14.9892   28.6213 C   0  0  0  0  0  0  0  0  0  0  0  0
   10.5758  -16.0206   27.8559 C   0  0  1  0  0  0  0  0  0  0  0  0
   10.3105  -17.3537   28.3561 C   0  0  0  0  0  0  0  0  0  0  0  0
    8.9456  -17.7609   28.2828 O   0  0  0  0  0  0  0  0  0  0  0  0
   11.0717  -18.1810   28.8301 O   0  0  0  0  0  0  0  0  0  0  0  0
  2  1  1  6
  3  2  1  0
  3  4  1  0
  4  5  2  0
  6  2  1  0
  6  7  2  0
  8  4  1  0
  9  6  1  0
 10  9  1  0
 10 11  1  6
 12 13  2  0
 12 11  1  0
 14 13  1  0
 15 20  2  0
 15 14  1  0
 16 15  1  0
 17 18  1  0
 17 16  2  0
 18 19  2  0
 19 20  1  0
 20 12  1  0
 21 10  1  0
 22 21  2  0
 23 27  1  0
 23 21  1  0
 24 23  1  0
 25 24  1  0
 25 26  1  0
 26 27  1  0
 28 29  1  0
 27 28  1  6
 30 28  2  0
M  END
$$$$
