ICQ.pdb
     RDKit          3D

 24 23  0  0  1  0  0  0  0  0999 V2000
   17.2969  -13.0266  -20.7067 C   0  0  0  0  0  0  0  0  0  0  0  0
   18.6019  -13.2103  -19.9345 C   0  0  0  0  0  0  0  0  0  0  0  0
   18.6085  -12.1306  -18.8826 C   0  0  2  0  0  0  0  0  0  0  0  0
   18.2823  -10.7752  -19.4480 C   0  0  0  0  0  0  0  0  0  0  0  0
   19.7480  -12.1680  -17.9325 C   0  0  2  0  0  0  0  0  0  0  0  0
   19.7548  -13.5307  -17.3730 N   0  0  0  0  0  0  0  0  0  0  0  0
   19.7923  -11.2223  -16.8485 C   0  0  0  0  0  0  0  0  0  0  0  0
   18.9614  -11.3487  -15.8968 O   0  0  0  0  0  0  0  0  0  0  0  0
   20.6859  -10.1314  -16.7153 N   0  0  0  0  0  0  0  0  0  0  0  0
   20.5522   -9.1113  -15.6666 C   0  0  1  0  0  0  0  0  0  0  0  0
   21.8752   -8.8893  -14.9879 C   0  0  0  0  0  0  0  0  0  0  0  0
   21.8542   -7.7368  -13.6247 S   0  0  0  0  0  0  0  0  0  0  0  0
   19.9133   -7.9020  -16.2024 C   0  0  0  0  0  0  0  0  0  0  0  0
   20.1517   -7.5914  -17.4268 O   0  0  0  0  0  0  0  0  0  0  0  0
   14.3298   -6.2334  -17.2973 N   0  0  0  0  0  0  0  0  0  0  0  0
   15.0072   -4.9864  -17.4985 C   0  0  0  0  0  0  0  0  0  0  0  0
   14.3102   -4.0871  -18.0283 O   0  0  0  0  0  0  0  0  0  0  0  0
   16.4198   -4.8229  -17.0962 C   0  0  0  0  0  0  0  0  0  0  0  0
   17.0540   -6.0242  -16.5016 C   0  0  0  0  0  0  0  0  0  0  0  0
   18.4849   -5.8241  -16.1286 C   0  0  2  0  0  0  0  0  0  0  0  0
   19.0475   -7.0244  -15.5113 N   0  0  0  0  0  0  0  0  0  0  0  0
   18.7364   -4.6317  -15.2820 C   0  0  0  0  0  0  0  0  0  0  0  0
   18.9790   -4.8083  -14.0606 O   0  0  0  0  0  0  0  0  0  0  0  0
   18.7234   -3.3296  -15.7455 O   0  0  0  0  0  0  0  0  0  0  0  0
  1  2  1  0
  3  4  1  6
  3  2  1  0
  3  5  1  0
  5  6  1  1
  7  5  1  0
  7  9  1  0
  8  7  2  0
 10  9  1  0
 10 11  1  6
 12 11  1  0
 13 10  1  0
 14 13  2  0
 16 17  2  0
 16 15  1  0
 18 16  1  0
 19 18  1  0
 20 19  1  1
 20 21  1  0
 21 13  1  0
 22 20  1  0
 23 22  2  0
 24 22  1  0
M  END
$$$$
