ICQ.pdb
     RDKit          3D

 24 23  0  0  1  0  0  0  0  0999 V2000
   15.1675  -13.4754  -17.5556 C   0  0  0  0  0  0  0  0  0  0  0  0
   16.6925  -13.4513  -17.6402 C   0  0  0  0  0  0  0  0  0  0  0  0
   17.1227  -12.2158  -16.8912 C   0  0  2  0  0  0  0  0  0  0  0  0
   16.3960  -10.9819  -17.3525 C   0  0  0  0  0  0  0  0  0  0  0  0
   18.5858  -12.0598  -16.6985 C   0  0  2  0  0  0  0  0  0  0  0  0
   19.0381  -13.3075  -16.0592 N   0  0  0  0  0  0  0  0  0  0  0  0
   19.0807  -10.9436  -15.9365 C   0  0  0  0  0  0  0  0  0  0  0  0
   18.8770  -10.9245  -14.6835 O   0  0  0  0  0  0  0  0  0  0  0  0
   19.7932   -9.8272  -16.4391 N   0  0  0  0  0  0  0  0  0  0  0  0
   20.1291   -8.6566  -15.6173 C   0  0  1  0  0  0  0  0  0  0  0  0
   21.6198   -8.4682  -15.5687 C   0  0  0  0  0  0  0  0  0  0  0  0
   22.4367   -9.1773  -14.1485 S   0  0  0  0  0  0  0  0  0  0  0  0
   19.3641   -7.4821  -16.0565 C   0  0  0  0  0  0  0  0  0  0  0  0
   18.9769   -7.4437  -17.2818 O   0  0  0  0  0  0  0  0  0  0  0  0
   14.6165   -3.8938  -15.5177 N   0  0  0  0  0  0  0  0  0  0  0  0
   14.8542   -4.9492  -14.5774 C   0  0  0  0  0  0  0  0  0  0  0  0
   14.0277   -5.0117  -13.6349 O   0  0  0  0  0  0  0  0  0  0  0  0
   15.9998   -5.8669  -14.7485 C   0  0  0  0  0  0  0  0  0  0  0  0
   16.7690   -5.6952  -16.0046 C   0  0  0  0  0  0  0  0  0  0  0  0
   18.1827   -5.2694  -15.7883 C   0  0  2  0  0  0  0  0  0  0  0  0
   18.9964   -6.3678  -15.2688 N   0  0  0  0  0  0  0  0  0  0  0  0
   18.3357   -4.0585  -14.9444 C   0  0  0  0  0  0  0  0  0  0  0  0
   18.9237   -4.1731  -13.8384 O   0  0  0  0  0  0  0  0  0  0  0  0
   17.8740   -2.8028  -15.2915 O   0  0  0  0  0  0  0  0  0  0  0  0
  1  2  1  0
  3  4  1  6
  3  2  1  0
  3  5  1  0
  5  6  1  1
  7  5  1  0
  7  9  1  0
  8  7  2  0
 10  9  1  0
 10 11  1  6
 12 11  1  0
 13 10  1  0
 14 13  2  0
 16 17  2  0
 16 15  1  0
 18 16  1  0
 19 18  1  0
 20 19  1  1
 20 21  1  0
 21 13  1  0
 22 20  1  0
 23 22  2  0
 24 22  1  0
M  END
$$$$
