ICQ.pdb
     RDKit          3D

 24 23  0  0  1  0  0  0  0  0999 V2000
   18.1586  -13.9469  -16.8756 C   0  0  0  0  0  0  0  0  0  0  0  0
   17.7273  -12.4840  -16.9597 C   0  0  0  0  0  0  0  0  0  0  0  0
   17.8641  -11.9378  -15.5615 C   0  0  2  0  0  0  0  0  0  0  0  0
   17.3172  -12.8770  -14.5213 C   0  0  0  0  0  0  0  0  0  0  0  0
   17.4923  -10.5112  -15.3912 C   0  0  2  0  0  0  0  0  0  0  0  0
   18.0028   -9.8214  -16.5885 N   0  0  0  0  0  0  0  0  0  0  0  0
   17.9401   -9.8014  -14.2219 C   0  0  0  0  0  0  0  0  0  0  0  0
   17.5558  -10.2050  -13.0811 O   0  0  0  0  0  0  0  0  0  0  0  0
   18.7889   -8.6677  -14.1955 N   0  0  0  0  0  0  0  0  0  0  0  0
   19.1641   -7.9781  -12.9537 C   0  0  1  0  0  0  0  0  0  0  0  0
   20.4188   -7.1772  -13.1646 C   0  0  0  0  0  0  0  0  0  0  0  0
   20.8568   -6.0727  -11.8322 S   0  0  0  0  0  0  0  0  0  0  0  0
   18.0231   -7.2239  -12.4181 C   0  0  0  0  0  0  0  0  0  0  0  0
   17.2949   -6.5686  -13.2505 O   0  0  0  0  0  0  0  0  0  0  0  0
   14.3185   -7.8814   -7.2411 N   0  0  0  0  0  0  0  0  0  0  0  0
   14.0059   -6.5772   -7.7469 C   0  0  0  0  0  0  0  0  0  0  0  0
   13.1115   -5.9662   -7.1130 O   0  0  0  0  0  0  0  0  0  0  0  0
   14.7111   -6.0385   -8.9286 C   0  0  0  0  0  0  0  0  0  0  0  0
   15.8224   -6.8757   -9.4415 C   0  0  0  0  0  0  0  0  0  0  0  0
   16.5219   -6.2866  -10.6206 C   0  0  2  0  0  0  0  0  0  0  0  0
   17.6259   -7.1365  -11.0646 N   0  0  0  0  0  0  0  0  0  0  0  0
   16.9815   -4.8892  -10.4253 C   0  0  0  0  0  0  0  0  0  0  0  0
   16.1389   -3.9628  -10.5424 O   0  0  0  0  0  0  0  0  0  0  0  0
   18.2813   -4.5313  -10.1206 O   0  0  0  0  0  0  0  0  0  0  0  0
  1  2  1  0
  3  4  1  1
  3  2  1  0
  3  5  1  0
  5  6  1  6
  7  5  1  0
  7  9  1  0
  8  7  2  0
 10  9  1  0
 10 11  1  6
 12 11  1  0
 13 10  1  0
 14 13  2  0
 16 17  2  0
 16 15  1  0
 18 16  1  0
 19 18  1  0
 20 19  1  1
 20 21  1  0
 21 13  1  0
 22 20  1  0
 23 22  2  0
 24 22  1  0
M  END
$$$$
