ICQ.pdb
     RDKit          3D

 24 23  0  0  1  0  0  0  0  0999 V2000
   16.8512  -14.3166  -19.1998 C   0  0  0  0  0  0  0  0  0  0  0  0
   18.1955  -14.8663  -18.7265 C   0  0  0  0  0  0  0  0  0  0  0  0
   18.8356  -13.7533  -17.9367 C   0  0  2  0  0  0  0  0  0  0  0  0
   18.8258  -12.4437  -18.6771 C   0  0  0  0  0  0  0  0  0  0  0  0
   20.1136  -14.0966  -17.2649 C   0  0  2  0  0  0  0  0  0  0  0  0
   19.8406  -15.3209  -16.4926 N   0  0  0  0  0  0  0  0  0  0  0  0
   20.7346  -13.1308  -16.3971 C   0  0  0  0  0  0  0  0  0  0  0  0
   20.1781  -12.8636  -15.2876 O   0  0  0  0  0  0  0  0  0  0  0  0
   21.9350  -12.4210  -16.6452 N   0  0  0  0  0  0  0  0  0  0  0  0
   22.4599  -11.3942  -15.7350 C   0  0  1  0  0  0  0  0  0  0  0  0
   23.9243  -11.6237  -15.4842 C   0  0  0  0  0  0  0  0  0  0  0  0
   24.3170  -13.0476  -14.4816 S   0  0  0  0  0  0  0  0  0  0  0  0
   22.1107  -10.0512  -16.2168 C   0  0  0  0  0  0  0  0  0  0  0  0
   21.9073   -9.9016  -17.4773 O   0  0  0  0  0  0  0  0  0  0  0  0
   17.7421   -7.9440  -18.1364 N   0  0  0  0  0  0  0  0  0  0  0  0
   17.8265   -7.1153  -16.9700 C   0  0  0  0  0  0  0  0  0  0  0  0
   16.7588   -6.5341  -16.6577 O   0  0  0  0  0  0  0  0  0  0  0  0
   19.0974   -6.9876  -16.2269 C   0  0  0  0  0  0  0  0  0  0  0  0
   20.2246   -7.7950  -16.7528 C   0  0  0  0  0  0  0  0  0  0  0  0
   21.4965   -7.6148  -15.9934 C   0  0  2  0  0  0  0  0  0  0  0  0
   21.9683   -8.8818  -15.4361 N   0  0  0  0  0  0  0  0  0  0  0  0
   21.4401   -6.5683  -14.9429 C   0  0  0  0  0  0  0  0  0  0  0  0
   21.2858   -6.9305  -13.7484 O   0  0  0  0  0  0  0  0  0  0  0  0
   21.5466   -5.2120  -15.1870 O   0  0  0  0  0  0  0  0  0  0  0  0
  1  2  1  0
  3  4  1  6
  3  2  1  0
  3  5  1  0
  5  6  1  1
  7  5  1  0
  7  9  1  0
  8  7  2  0
 10  9  1  0
 10 11  1  6
 12 11  1  0
 13 10  1  0
 14 13  2  0
 16 17  2  0
 16 15  1  0
 18 16  1  0
 19 18  1  0
 20 19  1  1
 20 21  1  0
 21 13  1  0
 22 20  1  0
 23 22  2  0
 24 22  1  0
M  END
$$$$
