ICQ.pdb
     RDKit          3D

 24 23  0  0  1  0  0  0  0  0999 V2000
   27.7279  -20.1553   -6.8256 C   0  0  0  0  0  0  0  0  0  0  0  0
   28.0609  -20.9820   -8.0661 C   0  0  0  0  0  0  0  0  0  0  0  0
   27.0517  -20.5758   -9.1095 C   0  0  2  0  0  0  0  0  0  0  0  0
   25.6379  -20.6468   -8.6001 C   0  0  0  0  0  0  0  0  0  0  0  0
   27.2699  -21.1375  -10.4657 C   0  0  2  0  0  0  0  0  0  0  0  0
   28.7080  -20.9712  -10.7384 N   0  0  0  0  0  0  0  0  0  0  0  0
   26.5239  -20.6068  -11.5762 C   0  0  0  0  0  0  0  0  0  0  0  0
   27.0008  -19.6163  -12.2114 O   0  0  0  0  0  0  0  0  0  0  0  0
   25.2784  -21.0778  -12.0593 N   0  0  0  0  0  0  0  0  0  0  0  0
   24.7242  -20.6826  -13.3612 C   0  0  1  0  0  0  0  0  0  0  0  0
   25.6293  -21.1413  -14.4705 C   0  0  0  0  0  0  0  0  0  0  0  0
   25.1635  -20.6101  -16.1099 S   0  0  0  0  0  0  0  0  0  0  0  0
   23.3246  -21.1129  -13.4775 C   0  0  0  0  0  0  0  0  0  0  0  0
   22.9130  -22.0335  -12.6802 O   0  0  0  0  0  0  0  0  0  0  0  0
   18.9068  -22.7147  -10.9369 N   0  0  0  0  0  0  0  0  0  0  0  0
   18.5929  -22.4691  -12.3137 C   0  0  0  0  0  0  0  0  0  0  0  0
   18.0427  -23.4278  -12.9082 O   0  0  0  0  0  0  0  0  0  0  0  0
   18.9139  -21.1694  -12.9394 C   0  0  0  0  0  0  0  0  0  0  0  0
   20.3572  -20.8352  -13.0048 C   0  0  0  0  0  0  0  0  0  0  0  0
   20.9601  -21.0436  -14.3538 C   0  0  2  0  0  0  0  0  0  0  0  0
   22.3590  -20.6187  -14.3835 N   0  0  0  0  0  0  0  0  0  0  0  0
   20.1999  -20.4237  -15.4672 C   0  0  0  0  0  0  0  0  0  0  0  0
   20.5597  -19.2901  -15.8762 O   0  0  0  0  0  0  0  0  0  0  0  0
   19.1153  -21.0099  -16.0921 O   0  0  0  0  0  0  0  0  0  0  0  0
  1  2  1  0
  3  4  1  1
  3  2  1  0
  3  5  1  0
  5  6  1  6
  7  5  1  0
  7  9  1  0
  8  7  2  0
 10  9  1  0
 10 11  1  6
 12 11  1  0
 13 10  1  0
 14 13  2  0
 16 17  2  0
 16 15  1  0
 18 16  1  0
 19 18  1  0
 20 19  1  1
 20 21  1  0
 21 13  1  0
 22 20  1  0
 23 22  2  0
 24 22  1  0
M  END
$$$$
