ICQ.pdb
     RDKit          3D

 24 23  0  0  1  0  0  0  0  0999 V2000
   12.0068  -12.7821  -11.6814 C   0  0  0  0  0  0  0  0  0  0  0  0
   13.2471  -12.3561  -12.4645 C   0  0  0  0  0  0  0  0  0  0  0  0
   13.9135  -11.2949  -11.6267 C   0  0  2  0  0  0  0  0  0  0  0  0
   12.9399  -10.2646  -11.1231 C   0  0  0  0  0  0  0  0  0  0  0  0
   15.1877  -10.7583  -12.1663 C   0  0  2  0  0  0  0  0  0  0  0  0
   16.0955  -11.9142  -12.2660 N   0  0  0  0  0  0  0  0  0  0  0  0
   15.8613   -9.7003  -11.4603 C   0  0  0  0  0  0  0  0  0  0  0  0
   16.5661   -9.9979  -10.4470 O   0  0  0  0  0  0  0  0  0  0  0  0
   15.8289   -8.3199  -11.7761 N   0  0  0  0  0  0  0  0  0  0  0  0
   16.6046   -7.3125  -11.0401 C   0  0  1  0  0  0  0  0  0  0  0  0
   17.9314   -7.0885  -11.7107 C   0  0  0  0  0  0  0  0  0  0  0  0
   19.1149   -8.4129  -11.5312 S   0  0  0  0  0  0  0  0  0  0  0  0
   15.8017   -6.1020  -10.8221 C   0  0  0  0  0  0  0  0  0  0  0  0
   15.1660   -5.6159  -11.8282 O   0  0  0  0  0  0  0  0  0  0  0  0
   13.6215   -3.5818   -5.3651 N   0  0  0  0  0  0  0  0  0  0  0  0
   13.0999   -4.7000   -6.0945 C   0  0  0  0  0  0  0  0  0  0  0  0
   12.3226   -5.4387   -5.4423 O   0  0  0  0  0  0  0  0  0  0  0  0
   13.4796   -4.9227   -7.5051 C   0  0  0  0  0  0  0  0  0  0  0  0
   14.4355   -3.9389   -8.0686 C   0  0  0  0  0  0  0  0  0  0  0  0
   14.8035   -4.2068   -9.4897 C   0  0  2  0  0  0  0  0  0  0  0  0
   15.6440   -5.3977   -9.6070 N   0  0  0  0  0  0  0  0  0  0  0  0
   15.4250   -3.0552  -10.1893 C   0  0  0  0  0  0  0  0  0  0  0  0
   16.6682   -3.0731  -10.3787 O   0  0  0  0  0  0  0  0  0  0  0  0
   14.7275   -1.9552  -10.6519 O   0  0  0  0  0  0  0  0  0  0  0  0
  1  2  1  0
  3  4  1  6
  3  2  1  0
  3  5  1  0
  5  6  1  1
  7  5  1  0
  7  9  1  0
  8  7  2  0
 10  9  1  0
 10 11  1  6
 12 11  1  0
 13 10  1  0
 14 13  2  0
 16 17  2  0
 16 15  1  0
 18 16  1  0
 19 18  1  0
 20 19  1  1
 20 21  1  0
 21 13  1  0
 22 20  1  0
 23 22  2  0
 24 22  1  0
M  END
$$$$
