ICQ.pdb
     RDKit          3D

 24 23  0  0  1  0  0  0  0  0999 V2000
   27.3476  -14.6696  -15.4717 C   0  0  0  0  0  0  0  0  0  0  0  0
   25.9381  -15.2473  -15.5852 C   0  0  0  0  0  0  0  0  0  0  0  0
   25.0313  -14.0664  -15.8208 C   0  0  2  0  0  0  0  0  0  0  0  0
   25.2838  -12.9451  -14.8502 C   0  0  0  0  0  0  0  0  0  0  0  0
   23.6036  -14.3922  -16.0615 C   0  0  2  0  0  0  0  0  0  0  0  0
   23.6066  -15.4968  -17.0362 N   0  0  0  0  0  0  0  0  0  0  0  0
   22.7159  -13.3619  -16.5324 C   0  0  0  0  0  0  0  0  0  0  0  0
   22.8235  -12.9692  -17.7350 O   0  0  0  0  0  0  0  0  0  0  0  0
   21.7016  -12.7144  -15.7851 N   0  0  0  0  0  0  0  0  0  0  0  0
   20.8309  -11.6752  -16.3510 C   0  0  1  0  0  0  0  0  0  0  0  0
   19.4793  -12.2499  -16.6719 C   0  0  0  0  0  0  0  0  0  0  0  0
   19.1235  -13.8342  -15.9299 S   0  0  0  0  0  0  0  0  0  0  0  0
   20.8165  -10.4878  -15.4863 C   0  0  0  0  0  0  0  0  0  0  0  0
   21.0567  -10.6558  -14.2346 O   0  0  0  0  0  0  0  0  0  0  0  0
   23.4759   -4.9605  -15.8538 N   0  0  0  0  0  0  0  0  0  0  0  0
   22.5982   -4.7999  -14.7321 C   0  0  0  0  0  0  0  0  0  0  0  0
   22.7512   -3.7314  -14.0916 O   0  0  0  0  0  0  0  0  0  0  0  0
   21.6063   -5.8425  -14.3963 C   0  0  0  0  0  0  0  0  0  0  0  0
   21.5987   -7.0241  -15.2922 C   0  0  0  0  0  0  0  0  0  0  0  0
   20.5636   -8.0388  -14.9373 C   0  0  2  0  0  0  0  0  0  0  0  0
   20.5654   -9.1546  -15.8824 N   0  0  0  0  0  0  0  0  0  0  0  0
   19.1949   -7.4881  -14.7783 C   0  0  0  0  0  0  0  0  0  0  0  0
   18.4143   -7.5377  -15.7632 O   0  0  0  0  0  0  0  0  0  0  0  0
   18.7134   -6.9203  -13.6138 O   0  0  0  0  0  0  0  0  0  0  0  0
  1  2  1  0
  3  4  1  1
  3  2  1  0
  3  5  1  0
  5  6  1  6
  7  5  1  0
  7  9  1  0
  8  7  2  0
 10  9  1  0
 10 11  1  1
 12 11  1  0
 13 10  1  0
 14 13  2  0
 16 17  2  0
 16 15  1  0
 18 16  1  0
 19 18  1  0
 20 19  1  6
 20 21  1  0
 21 13  1  0
 22 20  1  0
 23 22  2  0
 24 22  1  0
M  END
$$$$
