ICQ.pdb
     RDKit          3D

 24 23  0  0  1  0  0  0  0  0999 V2000
   28.4769  -15.7631  -17.9255 C   0  0  0  0  0  0  0  0  0  0  0  0
   27.8094  -15.0126  -16.7746 C   0  0  0  0  0  0  0  0  0  0  0  0
   26.8490  -14.0469  -17.4205 C   0  0  2  0  0  0  0  0  0  0  0  0
   27.4459  -13.3556  -18.6159 C   0  0  0  0  0  0  0  0  0  0  0  0
   26.0954  -13.1720  -16.4883 C   0  0  2  0  0  0  0  0  0  0  0  0
   25.6650  -14.0457  -15.3831 N   0  0  0  0  0  0  0  0  0  0  0  0
   24.9531  -12.4436  -16.9741 C   0  0  0  0  0  0  0  0  0  0  0  0
   25.1479  -11.4241  -17.7053 O   0  0  0  0  0  0  0  0  0  0  0  0
   23.5915  -12.7429  -16.7236 N   0  0  0  0  0  0  0  0  0  0  0  0
   22.4850  -11.9216  -17.2331 C   0  0  1  0  0  0  0  0  0  0  0  0
   21.3871  -12.8018  -17.7619 C   0  0  0  0  0  0  0  0  0  0  0  0
   19.7706  -12.0483  -17.8408 S   0  0  0  0  0  0  0  0  0  0  0  0
   22.0674  -10.9375  -16.2257 C   0  0  0  0  0  0  0  0  0  0  0  0
   22.0891  -11.2978  -14.9918 O   0  0  0  0  0  0  0  0  0  0  0  0
   23.4662   -5.0266  -15.1689 N   0  0  0  0  0  0  0  0  0  0  0  0
   22.3779   -5.2508  -14.2636 C   0  0  0  0  0  0  0  0  0  0  0  0
   22.1668   -4.3175  -13.4514 O   0  0  0  0  0  0  0  0  0  0  0  0
   21.5951   -6.5028  -14.3219 C   0  0  0  0  0  0  0  0  0  0  0  0
   22.0429   -7.4852  -15.3384 C   0  0  0  0  0  0  0  0  0  0  0  0
   21.2056   -8.7193  -15.3890 C   0  0  2  0  0  0  0  0  0  0  0  0
   21.6373   -9.6124  -16.4634 N   0  0  0  0  0  0  0  0  0  0  0  0
   19.7457   -8.4664  -15.4720 C   0  0  0  0  0  0  0  0  0  0  0  0
   19.1900   -8.5458  -16.5975 O   0  0  0  0  0  0  0  0  0  0  0  0
   18.9469   -8.1476  -14.3900 O   0  0  0  0  0  0  0  0  0  0  0  0
  1  2  1  0
  3  4  1  6
  3  2  1  0
  3  5  1  0
  5  6  1  1
  7  5  1  0
  7  9  1  0
  8  7  2  0
 10  9  1  0
 10 11  1  1
 12 11  1  0
 13 10  1  0
 14 13  2  0
 16 17  2  0
 16 15  1  0
 18 16  1  0
 19 18  1  0
 20 19  1  6
 20 21  1  0
 21 13  1  0
 22 20  1  0
 23 22  2  0
 24 22  1  0
M  END
$$$$
