ICQ.pdb
     RDKit          3D

 24 23  0  0  1  0  0  0  0  0999 V2000
   26.1730  -12.7470  -16.5951 C   0  0  0  0  0  0  0  0  0  0  0  0
   24.8603  -12.7551  -15.8140 C   0  0  0  0  0  0  0  0  0  0  0  0
   24.3014  -11.3610  -15.9419 C   0  0  2  0  0  0  0  0  0  0  0  0
   25.3469  -10.3007  -15.7279 C   0  0  0  0  0  0  0  0  0  0  0  0
   23.0047  -11.1250  -15.2597 C   0  0  2  0  0  0  0  0  0  0  0  0
   22.1836  -12.3147  -15.5436 N   0  0  0  0  0  0  0  0  0  0  0  0
   22.2422   -9.9482  -15.5842 C   0  0  0  0  0  0  0  0  0  0  0  0
   22.6586   -8.8213  -15.1734 O   0  0  0  0  0  0  0  0  0  0  0  0
   21.0418   -9.8999  -16.3346 N   0  0  0  0  0  0  0  0  0  0  0  0
   20.3071   -8.6534  -16.5891 C   0  0  1  0  0  0  0  0  0  0  0  0
   19.4008   -8.8193  -17.7770 C   0  0  0  0  0  0  0  0  0  0  0  0
   20.1667   -9.5059  -19.2362 S   0  0  0  0  0  0  0  0  0  0  0  0
   19.6506   -8.1825  -15.3623 C   0  0  0  0  0  0  0  0  0  0  0  0
   19.3358   -9.0600  -14.4771 O   0  0  0  0  0  0  0  0  0  0  0  0
   18.0388   -8.6000  -11.1537 N   0  0  0  0  0  0  0  0  0  0  0  0
   18.4397   -7.3580  -10.5612 C   0  0  0  0  0  0  0  0  0  0  0  0
   17.9710   -7.1442   -9.4167 O   0  0  0  0  0  0  0  0  0  0  0  0
   19.3376   -6.4334  -11.2842 C   0  0  0  0  0  0  0  0  0  0  0  0
   19.7536   -6.8792  -12.6359 C   0  0  0  0  0  0  0  0  0  0  0  0
   18.8189   -6.4578  -13.7201 C   0  0  2  0  0  0  0  0  0  0  0  0
   19.3205   -6.8473  -15.0373 N   0  0  0  0  0  0  0  0  0  0  0  0
   18.4653   -5.0168  -13.6986 C   0  0  0  0  0  0  0  0  0  0  0  0
   19.1678   -4.2205  -14.3726 O   0  0  0  0  0  0  0  0  0  0  0  0
   17.4088   -4.4838  -12.9843 O   0  0  0  0  0  0  0  0  0  0  0  0
  1  2  1  0
  3  4  1  1
  3  2  1  0
  3  5  1  0
  5  6  1  6
  7  5  1  0
  7  9  1  0
  8  7  2  0
 10  9  1  0
 10 11  1  6
 12 11  1  0
 13 10  1  0
 14 13  2  0
 16 17  2  0
 16 15  1  0
 18 16  1  0
 19 18  1  0
 20 19  1  1
 20 21  1  0
 21 13  1  0
 22 20  1  0
 23 22  2  0
 24 22  1  0
M  END
$$$$
