ICQ.pdb
     RDKit          3D

 24 23  0  0  1  0  0  0  0  0999 V2000
   10.9248  -12.9483  -12.9331 C   0  0  0  0  0  0  0  0  0  0  0  0
   12.4050  -13.0003  -12.5592 C   0  0  0  0  0  0  0  0  0  0  0  0
   12.7554  -11.6119  -12.0882 C   0  0  2  0  0  0  0  0  0  0  0  0
   12.2608  -10.5448  -13.0261 C   0  0  0  0  0  0  0  0  0  0  0  0
   14.1434  -11.4337  -11.5943 C   0  0  2  0  0  0  0  0  0  0  0  0
   14.3155  -12.4302  -10.5231 N   0  0  0  0  0  0  0  0  0  0  0  0
   14.5550  -10.1464  -11.0994 C   0  0  0  0  0  0  0  0  0  0  0  0
   13.9832   -9.6811  -10.0657 O   0  0  0  0  0  0  0  0  0  0  0  0
   15.5579   -9.3111  -11.6496 N   0  0  0  0  0  0  0  0  0  0  0  0
   15.9007   -7.9970  -11.0893 C   0  0  1  0  0  0  0  0  0  0  0  0
   16.9488   -8.1461  -10.0220 C   0  0  0  0  0  0  0  0  0  0  0  0
   16.9864   -6.8480   -8.7970 S   0  0  0  0  0  0  0  0  0  0  0  0
   16.2307   -7.0495  -12.1622 C   0  0  0  0  0  0  0  0  0  0  0  0
   16.9075   -7.4899  -13.1625 O   0  0  0  0  0  0  0  0  0  0  0  0
   13.1090   -1.9086  -14.0098 N   0  0  0  0  0  0  0  0  0  0  0  0
   12.8289   -3.3061  -14.1611 C   0  0  0  0  0  0  0  0  0  0  0  0
   11.6417   -3.5760  -14.4662 O   0  0  0  0  0  0  0  0  0  0  0  0
   13.8915   -4.3135  -13.9615 C   0  0  0  0  0  0  0  0  0  0  0  0
   15.2196   -3.7702  -13.5872 C   0  0  0  0  0  0  0  0  0  0  0  0
   16.2505   -4.8214  -13.3446 C   0  0  2  0  0  0  0  0  0  0  0  0
   15.8802   -5.6817  -12.2217 N   0  0  0  0  0  0  0  0  0  0  0  0
   17.6291   -4.2997  -13.1734 C   0  0  0  0  0  0  0  0  0  0  0  0
   18.2113   -4.5023  -12.0771 O   0  0  0  0  0  0  0  0  0  0  0  0
   18.3245   -3.6014  -14.1426 O   0  0  0  0  0  0  0  0  0  0  0  0
  1  2  1  0
  3  4  1  6
  3  2  1  0
  3  5  1  0
  5  6  1  1
  7  5  1  0
  7  9  1  0
  8  7  2  0
 10  9  1  0
 10 11  1  1
 12 11  1  0
 13 10  1  0
 14 13  2  0
 16 17  2  0
 16 15  1  0
 18 16  1  0
 19 18  1  0
 20 19  1  1
 20 21  1  0
 21 13  1  0
 22 20  1  0
 23 22  2  0
 24 22  1  0
M  END
$$$$
