ICQ.pdb
     RDKit          3D

 24 23  0  0  1  0  0  0  0  0999 V2000
   29.0687  -11.2785  -17.1661 C   0  0  0  0  0  0  0  0  0  0  0  0
   28.0289  -12.1503  -16.4649 C   0  0  0  0  0  0  0  0  0  0  0  0
   26.7439  -11.3633  -16.5042 C   0  0  2  0  0  0  0  0  0  0  0  0
   26.9208   -9.9493  -16.0219 C   0  0  0  0  0  0  0  0  0  0  0  0
   25.5443  -12.0679  -15.9875 C   0  0  2  0  0  0  0  0  0  0  0  0
   25.5239  -13.3724  -16.6717 N   0  0  0  0  0  0  0  0  0  0  0  0
   24.2511  -11.4519  -16.1270 C   0  0  0  0  0  0  0  0  0  0  0  0
   23.7167  -11.4135  -17.2781 O   0  0  0  0  0  0  0  0  0  0  0  0
   23.4793  -10.8648  -15.0945 N   0  0  0  0  0  0  0  0  0  0  0  0
   22.2029  -10.1803  -15.3403 C   0  0  1  0  0  0  0  0  0  0  0  0
   21.0693  -10.9684  -14.7454 C   0  0  0  0  0  0  0  0  0  0  0  0
   19.5150  -10.0995  -14.6173 S   0  0  0  0  0  0  0  0  0  0  0  0
   22.2803   -8.7767  -14.9141 C   0  0  0  0  0  0  0  0  0  0  0  0
   23.1638   -8.4664  -14.0333 O   0  0  0  0  0  0  0  0  0  0  0  0
   25.4547   -4.5720  -16.0441 N   0  0  0  0  0  0  0  0  0  0  0  0
   24.4215   -4.7286  -17.0252 C   0  0  0  0  0  0  0  0  0  0  0  0
   24.7196   -4.3217  -18.1744 O   0  0  0  0  0  0  0  0  0  0  0  0
   23.1211   -5.3285  -16.6607 C   0  0  0  0  0  0  0  0  0  0  0  0
   23.0146   -5.8134  -15.2634 C   0  0  0  0  0  0  0  0  0  0  0  0
   21.6605   -6.3315  -14.9102 C   0  0  2  0  0  0  0  0  0  0  0  0
   21.4789   -7.7068  -15.3728 N   0  0  0  0  0  0  0  0  0  0  0  0
   20.5385   -5.4730  -15.3640 C   0  0  0  0  0  0  0  0  0  0  0  0
   19.5998   -6.0092  -16.0068 O   0  0  0  0  0  0  0  0  0  0  0  0
   20.4514   -4.1140  -15.1273 O   0  0  0  0  0  0  0  0  0  0  0  0
  1  2  1  0
  3  4  1  1
  3  2  1  0
  3  5  1  0
  5  6  1  6
  7  5  1  0
  7  9  1  0
  8  7  2  0
 10  9  1  0
 10 11  1  1
 12 11  1  0
 13 10  1  0
 14 13  2  0
 16 17  2  0
 16 15  1  0
 18 16  1  0
 19 18  1  0
 20 19  1  6
 20 21  1  0
 21 13  1  0
 22 20  1  0
 23 22  2  0
 24 22  1  0
M  END
$$$$
