ICQ.pdb
     RDKit          3D

 24 23  0  0  1  0  0  0  0  0999 V2000
   20.5984  -12.7553  -16.5840 C   0  0  0  0  0  0  0  0  0  0  0  0
   21.2391  -11.3937  -16.8463 C   0  0  0  0  0  0  0  0  0  0  0  0
   20.8101  -10.5138  -15.7001 C   0  0  2  0  0  0  0  0  0  0  0  0
   19.3360  -10.6159  -15.4175 C   0  0  0  0  0  0  0  0  0  0  0  0
   21.3645   -9.1372  -15.7061 C   0  0  2  0  0  0  0  0  0  0  0  0
   22.8244   -9.2969  -15.8211 N   0  0  0  0  0  0  0  0  0  0  0  0
   21.0806   -8.2588  -14.6020 C   0  0  0  0  0  0  0  0  0  0  0  0
   21.7587   -8.3833  -13.5358 O   0  0  0  0  0  0  0  0  0  0  0  0
   20.1005   -7.2368  -14.5660 N   0  0  0  0  0  0  0  0  0  0  0  0
   19.8851   -6.3758  -13.3953 C   0  0  1  0  0  0  0  0  0  0  0  0
   20.5666   -5.0507  -13.5942 C   0  0  0  0  0  0  0  0  0  0  0  0
   22.3231   -5.0359  -13.2755 S   0  0  0  0  0  0  0  0  0  0  0  0
   18.4553   -6.3008  -13.0668 C   0  0  0  0  0  0  0  0  0  0  0  0
   17.6182   -6.2638  -14.0417 O   0  0  0  0  0  0  0  0  0  0  0  0
   15.2494   -7.0370   -7.4710 N   0  0  0  0  0  0  0  0  0  0  0  0
   14.2485   -6.8167   -8.4730 C   0  0  0  0  0  0  0  0  0  0  0  0
   13.0655   -6.8662   -8.0566 O   0  0  0  0  0  0  0  0  0  0  0  0
   14.6317   -6.5560   -9.8762 C   0  0  0  0  0  0  0  0  0  0  0  0
   16.0887   -6.5776  -10.1512 C   0  0  0  0  0  0  0  0  0  0  0  0
   16.4397   -6.2054  -11.5530 C   0  0  2  0  0  0  0  0  0  0  0  0
   17.8839   -6.2658  -11.7747 N   0  0  0  0  0  0  0  0  0  0  0  0
   15.8956   -4.8973  -11.9943 C   0  0  0  0  0  0  0  0  0  0  0  0
   16.6153   -3.8751  -11.8560 O   0  0  0  0  0  0  0  0  0  0  0  0
   14.6431   -4.7219  -12.5518 O   0  0  0  0  0  0  0  0  0  0  0  0
  1  2  1  0
  3  4  1  6
  3  2  1  0
  3  5  1  0
  5  6  1  1
  7  5  1  0
  7  9  1  0
  8  7  2  0
 10  9  1  0
 10 11  1  6
 12 11  1  0
 13 10  1  0
 14 13  2  0
 16 17  2  0
 16 15  1  0
 18 16  1  0
 19 18  1  0
 20 19  1  1
 20 21  1  0
 21 13  1  0
 22 20  1  0
 23 22  2  0
 24 22  1  0
M  END
$$$$
