ICQ.pdb
     RDKit          3D

 24 23  0  0  1  0  0  0  0  0999 V2000
   31.7917  -20.9308   -7.2680 C   0  0  0  0  0  0  0  0  0  0  0  0
   30.9105  -20.8049   -8.5093 C   0  0  0  0  0  0  0  0  0  0  0  0
   31.0792  -22.1000   -9.2620 C   0  0  2  0  0  0  0  0  0  0  0  0
   32.5168  -22.3839   -9.6024 C   0  0  0  0  0  0  0  0  0  0  0  0
   30.1057  -22.3369  -10.3568 C   0  0  2  0  0  0  0  0  0  0  0  0
   30.5421  -21.4766  -11.4702 N   0  0  0  0  0  0  0  0  0  0  0  0
   28.7054  -22.1073  -10.1160 C   0  0  0  0  0  0  0  0  0  0  0  0
   28.2481  -22.3084   -8.9487 O   0  0  0  0  0  0  0  0  0  0  0  0
   27.7468  -21.6673  -11.0614 N   0  0  0  0  0  0  0  0  0  0  0  0
   26.3457  -21.3958  -10.7129 C   0  0  1  0  0  0  0  0  0  0  0  0
   26.2741  -20.3727   -9.6136 C   0  0  0  0  0  0  0  0  0  0  0  0
   24.6273  -19.9057   -9.1064 S   0  0  0  0  0  0  0  0  0  0  0  0
   25.5678  -21.0756  -11.9170 C   0  0  0  0  0  0  0  0  0  0  0  0
   25.8543  -19.9904  -12.5439 O   0  0  0  0  0  0  0  0  0  0  0  0
   21.5477  -24.5594  -15.6220 N   0  0  0  0  0  0  0  0  0  0  0  0
   21.3284  -23.1943  -15.9997 C   0  0  0  0  0  0  0  0  0  0  0  0
   20.4907  -23.0297  -16.9196 O   0  0  0  0  0  0  0  0  0  0  0  0
   22.0588  -22.0998  -15.3269 C   0  0  0  0  0  0  0  0  0  0  0  0
   22.9464  -22.5180  -14.2150 C   0  0  0  0  0  0  0  0  0  0  0  0
   23.7673  -21.4060  -13.6526 C   0  0  2  0  0  0  0  0  0  0  0  0
   24.5203  -21.8414  -12.4771 N   0  0  0  0  0  0  0  0  0  0  0  0
   23.0030  -20.1688  -13.3574 C   0  0  0  0  0  0  0  0  0  0  0  0
   23.0582  -19.2225  -14.1841 O   0  0  0  0  0  0  0  0  0  0  0  0
   22.2277  -19.9820  -12.2285 O   0  0  0  0  0  0  0  0  0  0  0  0
  1  2  1  0
  3  4  1  6
  3  2  1  0
  3  5  1  0
  5  6  1  6
  7  5  1  0
  7  9  1  0
  8  7  2  0
 10  9  1  0
 10 11  1  1
 12 11  1  0
 13 10  1  0
 14 13  2  0
 16 17  2  0
 16 15  1  0
 18 16  1  0
 19 18  1  0
 20 19  1  1
 20 21  1  0
 21 13  1  0
 22 20  1  0
 23 22  2  0
 24 22  1  0
M  END
$$$$
