HGS.pdb
     RDKit          3D

 21 21  0  0  1  0  0  0  0  0999 V2000
   10.7663  -16.5489   18.0625 N   0  0  0  0  0  0  0  0  0  0  0  0
   10.0023  -16.0692   19.1724 C   0  0  1  0  0  0  0  0  0  0  0  0
    8.7333  -15.3941   18.6863 C   0  0  0  0  0  0  0  0  0  0  0  0
    8.5938  -14.0809   19.3614 C   0  0  0  0  0  0  0  0  0  0  0  0
    9.3146  -12.9375   19.0473 C   0  0  0  0  0  0  0  0  0  0  0  0
    8.9004  -11.9675   19.8792 N   0  0  0  0  0  0  0  0  0  0  0  0
    7.9526  -12.4836   20.6875 C   0  0  0  0  0  0  0  0  0  0  0  0
    7.7680  -13.7821   20.3653 N   0  0  0  0  0  0  0  0  0  0  0  0
    9.6648  -17.1642   20.1091 C   0  0  0  0  0  0  0  0  0  0  0  0
    9.3248  -18.3010   19.6961 O   0  0  0  0  0  0  0  0  0  0  0  0
    9.7322  -16.9065   21.4996 N   0  0  0  0  0  0  0  0  0  0  0  0
    9.5047  -17.9552   22.4662 C   0  0  0  0  0  0  0  0  0  0  0  0
    9.5620  -17.3866   23.8401 C   0  0  0  0  0  0  0  0  0  0  0  0
   10.3419  -16.4626   24.1006 O   0  0  0  0  0  0  0  0  0  0  0  0
    6.6392  -18.4832   26.3375 O   0  0  0  0  0  0  0  0  0  0  0  0
    7.6533  -17.9361   27.0952 C   0  0  0  0  0  0  0  0  0  0  0  0
    8.7747  -17.4467   26.2350 C   0  0  2  0  0  0  0  0  0  0  0  0
    8.7357  -17.8770   24.8857 N   0  0  0  0  0  0  0  0  0  0  0  0
   10.0661  -17.8451   26.8341 C   0  0  0  0  0  0  0  0  0  0  0  0
   10.8800  -18.5704   26.2170 O   0  0  0  0  0  0  0  0  0  0  0  0
   10.3798  -17.4060   28.1034 O   0  0  0  0  0  0  0  0  0  0  0  0
  2  1  1  6
  2  3  1  0
  3  4  1  0
  4  5  2  0
  5  6  1  0
  7  6  1  0
  8  4  1  0
  8  7  2  0
  9  2  1  0
  9 10  2  0
 11  9  1  0
 12 11  1  0
 12 13  1  0
 13 18  1  0
 14 13  2  0
 16 15  1  0
 17 16  1  1
 17 19  1  0
 18 17  1  0
 19 20  2  0
 19 21  1  0
M  END
$$$$
