HGS.pdb
     RDKit          3D

 21 21  0  0  1  0  0  0  0  0999 V2000
    8.3861  -16.6215   22.3387 N   0  0  0  0  0  0  0  0  0  0  0  0
    8.6783  -17.1992   21.0633 C   0  0  1  0  0  0  0  0  0  0  0  0
    7.7969  -16.5846   19.9919 C   0  0  0  0  0  0  0  0  0  0  0  0
    7.7870  -15.1109   20.1591 C   0  0  0  0  0  0  0  0  0  0  0  0
    7.7421  -14.4423   21.3742 C   0  0  0  0  0  0  0  0  0  0  0  0
    7.7481  -13.1267   21.1026 N   0  0  0  0  0  0  0  0  0  0  0  0
    7.7951  -12.9744   19.7636 C   0  0  0  0  0  0  0  0  0  0  0  0
    7.8189  -14.1963   19.1888 N   0  0  0  0  0  0  0  0  0  0  0  0
   10.1037  -17.0254   20.7056 C   0  0  0  0  0  0  0  0  0  0  0  0
   10.5721  -17.4798   19.6320 O   0  0  0  0  0  0  0  0  0  0  0  0
   10.9446  -16.3281   21.6063 N   0  0  0  0  0  0  0  0  0  0  0  0
   12.3285  -16.0662   21.2869 C   0  0  0  0  0  0  0  0  0  0  0  0
   13.2032  -16.6867   22.3184 C   0  0  0  0  0  0  0  0  0  0  0  0
   12.7190  -17.4246   23.1850 O   0  0  0  0  0  0  0  0  0  0  0  0
   17.2073  -15.4149   22.8581 O   0  0  0  0  0  0  0  0  0  0  0  0
   16.9598  -16.7653   22.9883 C   0  0  0  0  0  0  0  0  0  0  0  0
   15.5145  -17.0313   23.2663 C   0  0  2  0  0  0  0  0  0  0  0  0
   14.6044  -16.4573   22.3446 N   0  0  0  0  0  0  0  0  0  0  0  0
   15.1810  -16.5677   24.6299 C   0  0  0  0  0  0  0  0  0  0  0  0
   14.3380  -15.6624   24.8275 O   0  0  0  0  0  0  0  0  0  0  0  0
   15.8149  -17.1479   25.7087 O   0  0  0  0  0  0  0  0  0  0  0  0
  2  1  1  1
  2  3  1  0
  3  4  1  0
  4  5  2  0
  5  6  1  0
  7  6  1  0
  8  4  1  0
  8  7  2  0
  9  2  1  0
  9 10  2  0
 11  9  1  0
 12 11  1  0
 12 13  1  0
 13 18  1  0
 14 13  2  0
 16 15  1  0
 17 16  1  6
 17 19  1  0
 18 17  1  0
 19 20  2  0
 19 21  1  0
M  END
$$$$
