HGS.pdb
     RDKit          3D

 21 21  0  0  1  0  0  0  0  0999 V2000
    9.4256  -15.5923   20.2711 N   0  0  0  0  0  0  0  0  0  0  0  0
    8.4154  -14.7079   20.7644 C   0  0  1  0  0  0  0  0  0  0  0  0
    7.1607  -14.8167   19.9181 C   0  0  0  0  0  0  0  0  0  0  0  0
    7.5032  -14.5282   18.5041 C   0  0  0  0  0  0  0  0  0  0  0  0
    8.0735  -13.3507   18.0417 C   0  0  0  0  0  0  0  0  0  0  0  0
    8.2258  -13.4798   16.7133 N   0  0  0  0  0  0  0  0  0  0  0  0
    7.7672  -14.6958   16.3539 C   0  0  0  0  0  0  0  0  0  0  0  0
    7.3244  -15.3357   17.4578 N   0  0  0  0  0  0  0  0  0  0  0  0
    8.0950  -14.9908   22.1812 C   0  0  0  0  0  0  0  0  0  0  0  0
    7.2374  -14.3198   22.8078 O   0  0  0  0  0  0  0  0  0  0  0  0
    8.7809  -16.0460   22.8297 N   0  0  0  0  0  0  0  0  0  0  0  0
    8.5714  -16.3240   24.2314 C   0  0  0  0  0  0  0  0  0  0  0  0
    9.3298  -15.3416   25.0522 C   0  0  0  0  0  0  0  0  0  0  0  0
   10.5408  -15.1744   24.8640 O   0  0  0  0  0  0  0  0  0  0  0  0
    7.3229  -12.8516   27.8725 O   0  0  0  0  0  0  0  0  0  0  0  0
    8.5238  -12.4609   27.3186 C   0  0  0  0  0  0  0  0  0  0  0  0
    9.3487  -13.6414   26.9146 C   0  0  2  0  0  0  0  0  0  0  0  0
    8.6998  -14.5722   26.0660 N   0  0  0  0  0  0  0  0  0  0  0  0
    9.8323  -14.3421   28.1232 C   0  0  0  0  0  0  0  0  0  0  0  0
   10.5260  -13.7575   28.9872 O   0  0  0  0  0  0  0  0  0  0  0  0
    9.5106  -15.6713   28.3010 O   0  0  0  0  0  0  0  0  0  0  0  0
  2  1  1  6
  2  3  1  0
  3  4  1  0
  4  5  2  0
  5  6  1  0
  7  6  1  0
  8  4  1  0
  8  7  2  0
  9  2  1  0
  9 10  2  0
 11  9  1  0
 12 11  1  0
 12 13  1  0
 13 18  1  0
 14 13  2  0
 16 15  1  0
 17 16  1  1
 17 19  1  0
 18 17  1  0
 19 20  2  0
 19 21  1  0
M  END
$$$$
