HGS.pdb
     RDKit          3D

 21 21  0  0  1  0  0  0  0  0999 V2000
    8.5196  -15.3678   20.0049 N   0  0  0  0  0  0  0  0  0  0  0  0
    9.6571  -15.7964   19.2513 C   0  0  1  0  0  0  0  0  0  0  0  0
   10.0981  -14.7038   18.2952 C   0  0  0  0  0  0  0  0  0  0  0  0
    8.9738  -14.3721   17.3865 C   0  0  0  0  0  0  0  0  0  0  0  0
    8.0591  -13.3475   17.5839 C   0  0  0  0  0  0  0  0  0  0  0  0
    7.2049  -13.3744   16.5475 N   0  0  0  0  0  0  0  0  0  0  0  0
    7.5703  -14.3807   15.7278 C   0  0  0  0  0  0  0  0  0  0  0  0
    8.6575  -14.9904   16.2479 N   0  0  0  0  0  0  0  0  0  0  0  0
   10.7802  -16.1755   20.1374 C   0  0  0  0  0  0  0  0  0  0  0  0
   11.8869  -16.5475   19.6734 O   0  0  0  0  0  0  0  0  0  0  0  0
   10.5849  -16.1115   21.5382 N   0  0  0  0  0  0  0  0  0  0  0  0
   11.6142  -16.5383   22.4569 C   0  0  0  0  0  0  0  0  0  0  0  0
   11.1476  -16.3370   23.8554 C   0  0  0  0  0  0  0  0  0  0  0  0
   11.8072  -16.7806   24.8031 O   0  0  0  0  0  0  0  0  0  0  0  0
    7.4315  -14.5190   24.4697 O   0  0  0  0  0  0  0  0  0  0  0  0
    8.2951  -14.4621   25.5433 C   0  0  0  0  0  0  0  0  0  0  0  0
    9.3705  -15.4961   25.4346 C   0  0  2  0  0  0  0  0  0  0  0  0
    9.9461  -15.6388   24.1479 N   0  0  0  0  0  0  0  0  0  0  0  0
    8.8436  -16.8042   25.8782 C   0  0  0  0  0  0  0  0  0  0  0  0
    8.8166  -17.7949   25.1119 O   0  0  0  0  0  0  0  0  0  0  0  0
    8.3712  -16.9341   27.1674 O   0  0  0  0  0  0  0  0  0  0  0  0
  2  1  1  1
  2  3  1  0
  3  4  1  0
  4  5  2  0
  5  6  1  0
  7  6  1  0
  8  4  1  0
  8  7  2  0
  9  2  1  0
  9 10  2  0
 11  9  1  0
 12 11  1  0
 12 13  1  0
 13 18  1  0
 14 13  2  0
 16 15  1  0
 17 16  1  6
 17 19  1  0
 18 17  1  0
 19 20  2  0
 19 21  1  0
M  END
$$$$
