HGS.pdb
     RDKit          3D

 21 21  0  0  1  0  0  0  0  0999 V2000
    9.4442  -15.0273   20.8179 N   0  0  0  0  0  0  0  0  0  0  0  0
    8.1267  -14.4986   20.9924 C   0  0  1  0  0  0  0  0  0  0  0  0
    7.1731  -15.1172   19.9872 C   0  0  0  0  0  0  0  0  0  0  0  0
    7.6019  -14.7420   18.6179 C   0  0  0  0  0  0  0  0  0  0  0  0
    8.0215  -13.4783   18.2273 C   0  0  0  0  0  0  0  0  0  0  0  0
    8.3211  -13.5474   16.9196 N   0  0  0  0  0  0  0  0  0  0  0  0
    8.0975  -14.8103   16.5034 C   0  0  0  0  0  0  0  0  0  0  0  0
    7.6558  -15.5400   17.5506 N   0  0  0  0  0  0  0  0  0  0  0  0
    7.6302  -14.7290   22.3674 C   0  0  0  0  0  0  0  0  0  0  0  0
    6.4410  -14.4804   22.6871 O   0  0  0  0  0  0  0  0  0  0  0  0
    8.5307  -15.2420   23.3321 N   0  0  0  0  0  0  0  0  0  0  0  0
    8.0895  -15.5673   24.6683 C   0  0  0  0  0  0  0  0  0  0  0  0
    9.2503  -15.5299   25.5985 C   0  0  0  0  0  0  0  0  0  0  0  0
   10.4048  -15.5804   25.1575 O   0  0  0  0  0  0  0  0  0  0  0  0
    9.0907  -13.2819   28.7079 O   0  0  0  0  0  0  0  0  0  0  0  0
    9.8073  -14.3896   29.1091 C   0  0  0  0  0  0  0  0  0  0  0  0
   10.1184  -15.2868   27.9535 C   0  0  2  0  0  0  0  0  0  0  0  0
    9.0769  -15.4362   27.0048 N   0  0  0  0  0  0  0  0  0  0  0  0
   10.5117  -16.6203   28.4562 C   0  0  0  0  0  0  0  0  0  0  0  0
   11.4633  -16.7649   29.2580 O   0  0  0  0  0  0  0  0  0  0  0  0
    9.8122  -17.7300   28.0304 O   0  0  0  0  0  0  0  0  0  0  0  0
  2  1  1  1
  2  3  1  0
  3  4  1  0
  4  5  2  0
  5  6  1  0
  7  6  1  0
  8  4  1  0
  8  7  2  0
  9  2  1  0
  9 10  2  0
 11  9  1  0
 12 11  1  0
 12 13  1  0
 13 18  1  0
 14 13  2  0
 16 15  1  0
 17 16  1  1
 17 19  1  0
 18 17  1  0
 19 20  2  0
 19 21  1  0
M  END
$$$$
