HGS.pdb
     RDKit          3D

 21 21  0  0  1  0  0  0  0  0999 V2000
    9.3587  -15.6434   20.4326 N   0  0  0  0  0  0  0  0  0  0  0  0
    8.5275  -14.6486   21.0369 C   0  0  1  0  0  0  0  0  0  0  0  0
    7.2263  -14.5113   20.2685 C   0  0  0  0  0  0  0  0  0  0  0  0
    7.5315  -14.2232   18.8459 C   0  0  0  0  0  0  0  0  0  0  0  0
    8.0778  -13.0410   18.3669 C   0  0  0  0  0  0  0  0  0  0  0  0
    8.1995  -13.1722   17.0355 N   0  0  0  0  0  0  0  0  0  0  0  0
    7.7455  -14.3941   16.6905 C   0  0  0  0  0  0  0  0  0  0  0  0
    7.3363  -15.0356   17.8063 N   0  0  0  0  0  0  0  0  0  0  0  0
    8.2457  -14.9687   22.4540 C   0  0  0  0  0  0  0  0  0  0  0  0
    7.5103  -14.2344   23.1601 O   0  0  0  0  0  0  0  0  0  0  0  0
    8.8269  -16.1337   23.0105 N   0  0  0  0  0  0  0  0  0  0  0  0
    8.6919  -16.4385   24.4157 C   0  0  0  0  0  0  0  0  0  0  0  0
    9.5788  -15.5429   25.2065 C   0  0  0  0  0  0  0  0  0  0  0  0
   10.5704  -15.0236   24.6800 O   0  0  0  0  0  0  0  0  0  0  0  0
    8.0498  -13.3582   28.0984 O   0  0  0  0  0  0  0  0  0  0  0  0
    9.3712  -13.1159   27.7870 C   0  0  0  0  0  0  0  0  0  0  0  0
   10.0764  -14.3717   27.3836 C   0  0  2  0  0  0  0  0  0  0  0  0
    9.3226  -15.2566   26.5736 N   0  0  0  0  0  0  0  0  0  0  0  0
   10.5336  -15.0905   28.5919 C   0  0  0  0  0  0  0  0  0  0  0  0
   11.1979  -14.5160   29.4853 O   0  0  0  0  0  0  0  0  0  0  0  0
   10.2198  -16.4257   28.7363 O   0  0  0  0  0  0  0  0  0  0  0  0
  2  1  1  6
  2  3  1  0
  3  4  1  0
  4  5  2  0
  5  6  1  0
  7  6  1  0
  8  4  1  0
  8  7  2  0
  9  2  1  0
  9 10  2  0
 11  9  1  0
 12 11  1  0
 12 13  1  0
 13 18  1  0
 14 13  2  0
 16 15  1  0
 17 16  1  1
 17 19  1  0
 18 17  1  0
 19 20  2  0
 19 21  1  0
M  END
$$$$
