HGS.pdb
     RDKit          3D

 21 21  0  0  1  0  0  0  0  0999 V2000
   10.3411  -18.5883   21.5284 N   0  0  0  0  0  0  0  0  0  0  0  0
   11.3310  -17.5762   21.3251 C   0  0  1  0  0  0  0  0  0  0  0  0
   11.2770  -17.0654   19.8973 C   0  0  0  0  0  0  0  0  0  0  0  0
   11.2566  -18.2221   18.9692 C   0  0  0  0  0  0  0  0  0  0  0  0
   11.8522  -19.4523   19.2084 C   0  0  0  0  0  0  0  0  0  0  0  0
   11.6106  -20.2242   18.1358 N   0  0  0  0  0  0  0  0  0  0  0  0
   10.8886  -19.5040   17.2538 C   0  0  0  0  0  0  0  0  0  0  0  0
   10.6739  -18.2748   17.7706 N   0  0  0  0  0  0  0  0  0  0  0  0
   11.1554  -16.4514   22.2707 C   0  0  0  0  0  0  0  0  0  0  0  0
   11.8841  -15.4293   22.2191 O   0  0  0  0  0  0  0  0  0  0  0  0
   10.1373  -16.5468   23.2500 N   0  0  0  0  0  0  0  0  0  0  0  0
    9.9395  -15.5019   24.2272 C   0  0  0  0  0  0  0  0  0  0  0  0
   10.4784  -15.9423   25.5424 C   0  0  0  0  0  0  0  0  0  0  0  0
   11.0411  -17.0384   25.6505 O   0  0  0  0  0  0  0  0  0  0  0  0
    9.7198  -13.6119   28.9179 O   0  0  0  0  0  0  0  0  0  0  0  0
   10.9057  -14.3144   28.9615 C   0  0  0  0  0  0  0  0  0  0  0  0
   10.9110  -15.4389   27.9752 C   0  0  2  0  0  0  0  0  0  0  0  0
   10.3675  -15.1319   26.7033 N   0  0  0  0  0  0  0  0  0  0  0  0
   10.1899  -16.5973   28.5442 C   0  0  0  0  0  0  0  0  0  0  0  0
    9.1346  -17.0317   28.0274 O   0  0  0  0  0  0  0  0  0  0  0  0
   10.6934  -17.2125   29.6711 O   0  0  0  0  0  0  0  0  0  0  0  0
  2  1  1  6
  2  3  1  0
  3  4  1  0
  4  5  2  0
  5  6  1  0
  7  6  1  0
  8  4  1  0
  8  7  2  0
  9  2  1  0
  9 10  2  0
 11  9  1  0
 12 11  1  0
 12 13  1  0
 13 18  1  0
 14 13  2  0
 16 15  1  0
 17 16  1  1
 17 19  1  0
 18 17  1  0
 19 20  2  0
 19 21  1  0
M  END
$$$$
