HGS.pdb
     RDKit          3D

 21 21  0  0  1  0  0  0  0  0999 V2000
    9.6406  -14.6625   18.0183 N   0  0  0  0  0  0  0  0  0  0  0  0
   10.6547  -14.8815   17.0337 C   0  0  1  0  0  0  0  0  0  0  0  0
   10.5062  -13.8901   15.8946 C   0  0  0  0  0  0  0  0  0  0  0  0
    9.2344  -14.1593   15.1805 C   0  0  0  0  0  0  0  0  0  0  0  0
    8.1635  -13.2813   15.0918 C   0  0  0  0  0  0  0  0  0  0  0  0
    7.2106  -13.8912   14.3675 N   0  0  0  0  0  0  0  0  0  0  0  0
    7.6670  -15.1096   14.0137 C   0  0  0  0  0  0  0  0  0  0  0  0
    8.9107  -15.2693   14.5156 N   0  0  0  0  0  0  0  0  0  0  0  0
   12.0090  -14.7766   17.6210 C   0  0  0  0  0  0  0  0  0  0  0  0
   13.0380  -15.0474   16.9529 O   0  0  0  0  0  0  0  0  0  0  0  0
   12.1289  -14.3598   18.9688 N   0  0  0  0  0  0  0  0  0  0  0  0
   13.4233  -14.1841   19.5848 C   0  0  0  0  0  0  0  0  0  0  0  0
   13.4307  -14.8365   20.9221 C   0  0  0  0  0  0  0  0  0  0  0  0
   14.4353  -14.7742   21.6410 O   0  0  0  0  0  0  0  0  0  0  0  0
   10.0330  -15.2378   22.7851 O   0  0  0  0  0  0  0  0  0  0  0  0
   10.8385  -16.2504   23.2621 C   0  0  0  0  0  0  0  0  0  0  0  0
   12.2136  -16.1752   22.6787 C   0  0  2  0  0  0  0  0  0  0  0  0
   12.3014  -15.5435   21.4136 N   0  0  0  0  0  0  0  0  0  0  0  0
   12.7836  -17.5358   22.5822 C   0  0  0  0  0  0  0  0  0  0  0  0
   12.9376  -18.2563   23.5954 O   0  0  0  0  0  0  0  0  0  0  0  0
   13.1540  -18.0210   21.3454 O   0  0  0  0  0  0  0  0  0  0  0  0
  2  1  1  1
  2  3  1  0
  3  4  1  0
  4  5  2  0
  5  6  1  0
  7  6  1  0
  8  4  1  0
  8  7  2  0
  9  2  1  0
  9 10  2  0
 11  9  1  0
 12 11  1  0
 12 13  1  0
 13 18  1  0
 14 13  2  0
 16 15  1  0
 17 16  1  6
 17 19  1  0
 18 17  1  0
 19 20  2  0
 19 21  1  0
M  END
$$$$
