HGS.pdb
     RDKit          3D

 21 21  0  0  1  0  0  0  0  0999 V2000
    8.7236  -15.2476   22.6632 N   0  0  0  0  0  0  0  0  0  0  0  0
    7.3113  -15.0240   22.6278 C   0  0  1  0  0  0  0  0  0  0  0  0
    6.7990  -15.1141   21.2024 C   0  0  0  0  0  0  0  0  0  0  0  0
    7.6588  -14.2831   20.3249 C   0  0  0  0  0  0  0  0  0  0  0  0
    7.9353  -12.9368   20.5159 C   0  0  0  0  0  0  0  0  0  0  0  0
    8.7448  -12.5531   19.5149 N   0  0  0  0  0  0  0  0  0  0  0  0
    8.9689  -13.6211   18.7228 C   0  0  0  0  0  0  0  0  0  0  0  0
    8.2995  -14.6812   19.2250 N   0  0  0  0  0  0  0  0  0  0  0  0
    6.5900  -15.9904   23.4857 C   0  0  0  0  0  0  0  0  0  0  0  0
    5.3386  -16.0956   23.4489 O   0  0  0  0  0  0  0  0  0  0  0  0
    7.3441  -16.8076   24.3622 N   0  0  0  0  0  0  0  0  0  0  0  0
    6.7160  -17.8531   25.1356 C   0  0  0  0  0  0  0  0  0  0  0  0
    7.7477  -18.5708   25.9322 C   0  0  0  0  0  0  0  0  0  0  0  0
    7.4239  -19.5066   26.6734 O   0  0  0  0  0  0  0  0  0  0  0  0
   11.4909  -18.4212   24.5817 O   0  0  0  0  0  0  0  0  0  0  0  0
   11.5420  -18.6464   25.9413 C   0  0  0  0  0  0  0  0  0  0  0  0
   10.1807  -18.9078   26.5032 C   0  0  2  0  0  0  0  0  0  0  0  0
    9.1204  -18.2124   25.8710 N   0  0  0  0  0  0  0  0  0  0  0  0
   10.1744  -18.5929   27.9475 C   0  0  0  0  0  0  0  0  0  0  0  0
    9.3718  -17.7636   28.4349 O   0  0  0  0  0  0  0  0  0  0  0  0
   11.0751  -19.2289   28.7760 O   0  0  0  0  0  0  0  0  0  0  0  0
  2  1  1  6
  2  3  1  0
  3  4  1  0
  4  5  2  0
  5  6  1  0
  7  6  1  0
  8  4  1  0
  8  7  2  0
  9  2  1  0
  9 10  2  0
 11  9  1  0
 12 11  1  0
 12 13  1  0
 13 18  1  0
 14 13  2  0
 16 15  1  0
 17 16  1  6
 17 19  1  0
 18 17  1  0
 19 20  2  0
 19 21  1  0
M  END
$$$$
