HGS.pdb
     RDKit          3D

 21 21  0  0  1  0  0  0  0  0999 V2000
    7.5244  -16.1864   21.0122 N   0  0  0  0  0  0  0  0  0  0  0  0
    8.9244  -15.9008   20.9471 C   0  0  1  0  0  0  0  0  0  0  0  0
    9.1488  -14.4384   20.6102 C   0  0  0  0  0  0  0  0  0  0  0  0
    8.5708  -14.1545   19.2741 C   0  0  0  0  0  0  0  0  0  0  0  0
    7.3876  -13.4679   19.0420 C   0  0  0  0  0  0  0  0  0  0  0  0
    7.2119  -13.4206   17.7111 N   0  0  0  0  0  0  0  0  0  0  0  0
    8.2486  -14.0555   17.1276 C   0  0  0  0  0  0  0  0  0  0  0  0
    9.0805  -14.5044   18.0923 N   0  0  0  0  0  0  0  0  0  0  0  0
    9.6035  -16.2361   22.2184 C   0  0  0  0  0  0  0  0  0  0  0  0
   10.8540  -16.1853   22.3290 O   0  0  0  0  0  0  0  0  0  0  0  0
    8.8096  -16.6212   23.3257 N   0  0  0  0  0  0  0  0  0  0  0  0
    9.4131  -17.0817   24.5543 C   0  0  0  0  0  0  0  0  0  0  0  0
   10.0684  -15.9386   25.2457 C   0  0  0  0  0  0  0  0  0  0  0  0
   11.0313  -15.3633   24.7242 O   0  0  0  0  0  0  0  0  0  0  0  0
    8.1374  -13.6157   28.0244 O   0  0  0  0  0  0  0  0  0  0  0  0
    9.3778  -13.2533   27.5430 C   0  0  0  0  0  0  0  0  0  0  0  0
   10.2316  -14.4520   27.2760 C   0  0  2  0  0  0  0  0  0  0  0  0
    9.6186  -15.4741   26.5100 N   0  0  0  0  0  0  0  0  0  0  0  0
   10.6985  -15.0205   28.5584 C   0  0  0  0  0  0  0  0  0  0  0  0
   10.4293  -16.1979   28.8910 O   0  0  0  0  0  0  0  0  0  0  0  0
   11.4483  -14.2332   29.4070 O   0  0  0  0  0  0  0  0  0  0  0  0
  2  1  1  1
  2  3  1  0
  3  4  1  0
  4  5  2  0
  5  6  1  0
  7  6  1  0
  8  4  1  0
  8  7  2  0
  9  2  1  0
  9 10  2  0
 11  9  1  0
 12 11  1  0
 12 13  1  0
 13 18  1  0
 14 13  2  0
 16 15  1  0
 17 16  1  1
 17 19  1  0
 18 17  1  0
 19 20  2  0
 19 21  1  0
M  END
$$$$
