HGS.pdb
     RDKit          3D

 21 21  0  0  1  0  0  0  0  0999 V2000
    7.8592  -15.8844   21.0406 N   0  0  0  0  0  0  0  0  0  0  0  0
    9.0333  -16.4638   20.4647 C   0  0  1  0  0  0  0  0  0  0  0  0
    9.4492  -15.6914   19.2267 C   0  0  0  0  0  0  0  0  0  0  0  0
    8.3461  -14.7833   18.8285 C   0  0  0  0  0  0  0  0  0  0  0  0
    7.1182  -14.6856   19.4673 C   0  0  0  0  0  0  0  0  0  0  0  0
    6.4023  -13.7590   18.8091 N   0  0  0  0  0  0  0  0  0  0  0  0
    7.1542  -13.2910   17.7924 C   0  0  0  0  0  0  0  0  0  0  0  0
    8.3474  -13.9236   17.8088 N   0  0  0  0  0  0  0  0  0  0  0  0
   10.1494  -16.5002   21.4359 C   0  0  0  0  0  0  0  0  0  0  0  0
   11.1968  -17.1559   21.2091 O   0  0  0  0  0  0  0  0  0  0  0  0
   10.0162  -15.7732   22.6435 N   0  0  0  0  0  0  0  0  0  0  0  0
   11.0693  -15.7658   23.6318 C   0  0  0  0  0  0  0  0  0  0  0  0
   10.7567  -16.7542   24.6992 C   0  0  0  0  0  0  0  0  0  0  0  0
    9.6867  -16.6884   25.3163 O   0  0  0  0  0  0  0  0  0  0  0  0
   10.4045  -20.9630   26.3591 O   0  0  0  0  0  0  0  0  0  0  0  0
   10.6112  -19.9887   25.4054 C   0  0  0  0  0  0  0  0  0  0  0  0
   11.3998  -18.8434   25.9565 C   0  0  2  0  0  0  0  0  0  0  0  0
   11.6621  -17.7929   25.0427 N   0  0  0  0  0  0  0  0  0  0  0  0
   12.6798  -19.3430   26.5018 C   0  0  0  0  0  0  0  0  0  0  0  0
   12.7188  -20.0811   27.5133 O   0  0  0  0  0  0  0  0  0  0  0  0
   13.8579  -18.9863   25.8797 O   0  0  0  0  0  0  0  0  0  0  0  0
  2  1  1  1
  2  3  1  0
  3  4  1  0
  4  5  2  0
  5  6  1  0
  7  6  1  0
  8  4  1  0
  8  7  2  0
  9  2  1  0
  9 10  2  0
 11  9  1  0
 12 11  1  0
 12 13  1  0
 13 18  1  0
 14 13  2  0
 16 15  1  0
 17 16  1  6
 17 19  1  0
 18 17  1  0
 19 20  2  0
 19 21  1  0
M  END
$$$$
