HGS.pdb
     RDKit          3D

 21 21  0  0  1  0  0  0  0  0999 V2000
    9.0540  -17.7450   17.8188 N   0  0  0  0  0  0  0  0  0  0  0  0
    8.6233  -16.7023   18.6980 C   0  0  1  0  0  0  0  0  0  0  0  0
    7.3646  -16.0466   18.1612 C   0  0  0  0  0  0  0  0  0  0  0  0
    7.7413  -14.8516   17.3675 C   0  0  0  0  0  0  0  0  0  0  0  0
    9.0397  -14.4673   17.0645 C   0  0  0  0  0  0  0  0  0  0  0  0
    8.9594  -13.3422   16.3349 N   0  0  0  0  0  0  0  0  0  0  0  0
    7.6560  -13.0308   16.1849 C   0  0  0  0  0  0  0  0  0  0  0  0
    6.9120  -13.9613   16.8211 N   0  0  0  0  0  0  0  0  0  0  0  0
    8.3822  -17.2143   20.0655 C   0  0  0  0  0  0  0  0  0  0  0  0
    7.3212  -17.8173   20.3639 O   0  0  0  0  0  0  0  0  0  0  0  0
    9.3815  -17.0106   21.0475 N   0  0  0  0  0  0  0  0  0  0  0  0
    9.2570  -17.5779   22.3698 C   0  0  0  0  0  0  0  0  0  0  0  0
   10.3829  -17.1072   23.2212 C   0  0  0  0  0  0  0  0  0  0  0  0
   11.3055  -16.4481   22.7268 O   0  0  0  0  0  0  0  0  0  0  0  0
   10.4441  -18.6818   27.0145 O   0  0  0  0  0  0  0  0  0  0  0  0
   11.4039  -17.7048   26.8531 C   0  0  0  0  0  0  0  0  0  0  0  0
   11.6084  -17.3733   25.4090 C   0  0  2  0  0  0  0  0  0  0  0  0
   10.4379  -17.3937   24.6110 N   0  0  0  0  0  0  0  0  0  0  0  0
   12.6077  -18.2950   24.8281 C   0  0  0  0  0  0  0  0  0  0  0  0
   12.3116  -19.0849   23.9018 O   0  0  0  0  0  0  0  0  0  0  0  0
   13.8962  -18.2826   25.3197 O   0  0  0  0  0  0  0  0  0  0  0  0
  2  1  1  6
  2  3  1  0
  3  4  1  0
  4  5  2  0
  5  6  1  0
  7  6  1  0
  8  4  1  0
  8  7  2  0
  9  2  1  0
  9 10  2  0
 11  9  1  0
 12 11  1  0
 12 13  1  0
 13 18  1  0
 14 13  2  0
 16 15  1  0
 17 16  1  1
 17 19  1  0
 18 17  1  0
 19 20  2  0
 19 21  1  0
M  END
$$$$
