SDV.pdb
     RDKit          3D

 22 21  0  0  1  0  0  0  0  0999 V2000
   10.4023  -15.2759   14.0108 O   0  0  0  0  0  0  0  0  0  0  0  0
   10.5852  -16.6379   14.3240 C   0  0  0  0  0  0  0  0  0  0  0  0
    9.2055  -17.2472   14.4481 C   0  0  2  0  0  0  0  0  0  0  0  0
    8.3660  -16.7398   13.3776 N   0  0  0  0  0  0  0  0  0  0  0  0
    8.5631  -16.9585   15.7399 C   0  0  0  0  0  0  0  0  0  0  0  0
    7.5726  -16.1922   15.8256 O   0  0  0  0  0  0  0  0  0  0  0  0
    9.0362  -17.5382   16.9389 N   0  0  0  0  0  0  0  0  0  0  0  0
    8.3562  -17.3790   18.2141 C   0  0  1  0  0  0  0  0  0  0  0  0
    8.6317  -18.7213   18.9381 C   0  0  0  0  0  0  0  0  0  0  0  0
   10.0547  -19.0264   19.0279 C   0  0  0  0  0  0  0  0  0  0  0  0
   10.7577  -18.7645   20.0321 O   0  0  0  0  0  0  0  0  0  0  0  0
    9.0615  -16.3253   18.9826 C   0  0  0  0  0  0  0  0  0  0  0  0
   10.2770  -16.0444   18.7412 O   0  0  0  0  0  0  0  0  0  0  0  0
   10.6574  -19.6443   17.9276 O   0  0  0  0  0  0  0  0  0  0  0  0
    7.7422  -12.7019   19.7130 C   0  0  0  0  0  0  0  0  0  0  0  0
    8.0015  -13.4260   21.0419 C   0  0  1  0  0  0  0  0  0  0  0  0
    6.7291  -13.8280   21.7070 C   0  0  0  0  0  0  0  0  0  0  0  0
    8.9620  -14.5816   20.8168 C   0  0  2  0  0  0  0  0  0  0  0  0
    8.4172  -15.6104   19.9923 N   0  0  0  0  0  0  0  0  0  0  0  0
    9.3267  -15.1585   22.1232 C   0  0  0  0  0  0  0  0  0  0  0  0
    8.7926  -16.2546   22.4863 O   0  0  0  0  0  0  0  0  0  0  0  0
   10.2311  -14.5686   22.9981 O   0  0  0  0  0  0  0  0  0  0  0  0
  1  2  1  0
  2  3  1  0
  3  4  1  6
  5  3  1  0
  5  6  2  0
  7  5  1  0
  8 12  1  0
  8  7  1  0
  8  9  1  1
 10  9  1  0
 10 11  2  0
 12 13  2  0
 14 10  1  0
 16 15  1  6
 16 17  1  0
 18 16  1  0
 19 12  1  0
 18 19  1  6
 20 22  1  0
 20 18  1  0
 21 20  2  0
M  END
$$$$
