SDV.pdb
     RDKit          3D

 22 21  0  0  1  0  0  0  0  0999 V2000
    7.2447  -12.5603   19.1111 O   0  0  0  0  0  0  0  0  0  0  0  0
    8.6431  -12.6963   18.9980 C   0  0  0  0  0  0  0  0  0  0  0  0
    8.9391  -14.1804   18.9946 C   0  0  2  0  0  0  0  0  0  0  0  0
    8.4350  -14.7608   17.7628 N   0  0  0  0  0  0  0  0  0  0  0  0
    8.3432  -14.8886   20.1382 C   0  0  0  0  0  0  0  0  0  0  0  0
    7.4589  -15.7656   19.9809 O   0  0  0  0  0  0  0  0  0  0  0  0
    8.7474  -14.6105   21.4635 N   0  0  0  0  0  0  0  0  0  0  0  0
    8.5029  -15.5207   22.5705 C   0  0  1  0  0  0  0  0  0  0  0  0
    9.4787  -16.6926   22.2943 C   0  0  0  0  0  0  0  0  0  0  0  0
    9.4408  -17.7098   23.3383 C   0  0  0  0  0  0  0  0  0  0  0  0
    8.3990  -18.0280   23.9585 O   0  0  0  0  0  0  0  0  0  0  0  0
    8.9650  -14.8634   23.8166 C   0  0  0  0  0  0  0  0  0  0  0  0
   10.1900  -14.5709   23.9847 O   0  0  0  0  0  0  0  0  0  0  0  0
   10.6380  -18.3587   23.6571 O   0  0  0  0  0  0  0  0  0  0  0  0
    7.4137  -11.6339   25.4008 C   0  0  0  0  0  0  0  0  0  0  0  0
    7.3135  -12.7987   26.3961 C   0  0  1  0  0  0  0  0  0  0  0  0
    5.9246  -13.3348   26.4779 C   0  0  0  0  0  0  0  0  0  0  0  0
    8.3538  -13.8530   26.0572 C   0  0  2  0  0  0  0  0  0  0  0  0
    8.0742  -14.5457   24.8420 N   0  0  0  0  0  0  0  0  0  0  0  0
    8.4188  -14.8289   27.1600 C   0  0  0  0  0  0  0  0  0  0  0  0
    7.9477  -15.9970   26.9809 O   0  0  0  0  0  0  0  0  0  0  0  0
    8.9700  -14.5469   28.4041 O   0  0  0  0  0  0  0  0  0  0  0  0
  1  2  1  0
  2  3  1  0
  3  4  1  6
  5  3  1  0
  5  6  2  0
  7  5  1  0
  8 12  1  0
  8  7  1  0
  8  9  1  6
 10  9  1  0
 10 11  2  0
 12 13  2  0
 14 10  1  0
 16 15  1  6
 16 17  1  0
 18 16  1  0
 19 12  1  0
 18 19  1  6
 20 22  1  0
 20 18  1  0
 21 20  2  0
M  END
$$$$
