SDV.pdb
     RDKit          3D

 22 21  0  0  1  0  0  0  0  0999 V2000
    7.5107  -13.7292   20.0309 O   0  0  0  0  0  0  0  0  0  0  0  0
    8.5840  -14.4710   19.4975 C   0  0  0  0  0  0  0  0  0  0  0  0
    8.3390  -15.9190   19.8631 C   0  0  2  0  0  0  0  0  0  0  0  0
    7.0543  -16.3317   19.3270 N   0  0  0  0  0  0  0  0  0  0  0  0
    8.3518  -16.1559   21.3151 C   0  0  0  0  0  0  0  0  0  0  0  0
    7.2886  -16.2691   21.9728 O   0  0  0  0  0  0  0  0  0  0  0  0
    9.5668  -16.2694   22.0281 N   0  0  0  0  0  0  0  0  0  0  0  0
    9.6250  -16.6296   23.4355 C   0  0  1  0  0  0  0  0  0  0  0  0
   11.0300  -17.2661   23.5856 C   0  0  0  0  0  0  0  0  0  0  0  0
   11.0831  -18.6308   23.0748 C   0  0  0  0  0  0  0  0  0  0  0  0
   10.3515  -19.5575   23.4959 O   0  0  0  0  0  0  0  0  0  0  0  0
    9.6349  -15.3779   24.2301 C   0  0  0  0  0  0  0  0  0  0  0  0
   10.4903  -14.4665   24.0018 O   0  0  0  0  0  0  0  0  0  0  0  0
   12.0047  -18.9096   22.0605 O   0  0  0  0  0  0  0  0  0  0  0  0
    7.1085  -12.2561   27.0811 C   0  0  0  0  0  0  0  0  0  0  0  0
    7.1715  -13.4455   26.1122 C   0  0  1  0  0  0  0  0  0  0  0  0
    6.6433  -13.0864   24.7649 C   0  0  0  0  0  0  0  0  0  0  0  0
    8.5828  -14.0077   26.0823 C   0  0  2  0  0  0  0  0  0  0  0  0
    8.7095  -15.1599   25.2509 N   0  0  0  0  0  0  0  0  0  0  0  0
    8.9826  -14.3628   27.4559 C   0  0  0  0  0  0  0  0  0  0  0  0
    8.8758  -15.5713   27.8385 O   0  0  0  0  0  0  0  0  0  0  0  0
    9.4752  -13.4437   28.3746 O   0  0  0  0  0  0  0  0  0  0  0  0
  1  2  1  0
  2  3  1  0
  3  4  1  1
  5  3  1  0
  5  6  2  0
  7  5  1  0
  8 12  1  0
  8  7  1  0
  8  9  1  6
 10  9  1  0
 10 11  2  0
 12 13  2  0
 14 10  1  0
 16 15  1  1
 16 17  1  0
 18 16  1  0
 19 12  1  0
 18 19  1  6
 20 22  1  0
 20 18  1  0
 21 20  2  0
M  END
$$$$
