SDV.pdb
     RDKit          3D

 22 21  0  0  1  0  0  0  0  0999 V2000
   10.1445  -12.2956   20.2102 O   0  0  0  0  0  0  0  0  0  0  0  0
   10.2419  -13.5008   19.4857 C   0  0  0  0  0  0  0  0  0  0  0  0
    8.8364  -14.0463   19.3539 C   0  0  2  0  0  0  0  0  0  0  0  0
    7.9458  -12.9697   18.9589 N   0  0  0  0  0  0  0  0  0  0  0  0
    8.3354  -14.6522   20.5974 C   0  0  0  0  0  0  0  0  0  0  0  0
    7.2244  -14.3303   21.0851 O   0  0  0  0  0  0  0  0  0  0  0  0
    9.0871  -15.6267   21.2922 N   0  0  0  0  0  0  0  0  0  0  0  0
    8.6310  -16.2415   22.5283 C   0  0  1  0  0  0  0  0  0  0  0  0
    9.5249  -17.5012   22.6540 C   0  0  0  0  0  0  0  0  0  0  0  0
    9.2634  -18.2526   23.8759 C   0  0  0  0  0  0  0  0  0  0  0  0
   10.1369  -18.9177   24.4810 O   0  0  0  0  0  0  0  0  0  0  0  0
    8.9962  -15.3435   23.6501 C   0  0  0  0  0  0  0  0  0  0  0  0
   10.1570  -14.8325   23.7258 O   0  0  0  0  0  0  0  0  0  0  0  0
    7.9637  -18.2231   24.3914 O   0  0  0  0  0  0  0  0  0  0  0  0
    7.2190  -12.5232   27.3573 C   0  0  0  0  0  0  0  0  0  0  0  0
    6.9825  -13.3716   26.0997 C   0  0  1  0  0  0  0  0  0  0  0  0
    6.4348  -12.5542   24.9794 C   0  0  0  0  0  0  0  0  0  0  0  0
    8.2546  -14.1211   25.7407 C   0  0  2  0  0  0  0  0  0  0  0  0
    8.0815  -15.0312   24.6560 N   0  0  0  0  0  0  0  0  0  0  0  0
    8.7157  -14.8695   26.9239 C   0  0  0  0  0  0  0  0  0  0  0  0
    8.3946  -16.0944   27.0450 O   0  0  0  0  0  0  0  0  0  0  0  0
    9.4906  -14.3101   27.9328 O   0  0  0  0  0  0  0  0  0  0  0  0
  1  2  1  0
  2  3  1  0
  3  4  1  1
  5  3  1  0
  5  6  2  0
  7  5  1  0
  8 12  1  0
  8  7  1  0
  8  9  1  1
 10  9  1  0
 10 11  2  0
 12 13  2  0
 14 10  1  0
 16 15  1  1
 16 17  1  0
 18 16  1  0
 19 12  1  0
 18 19  1  6
 20 22  1  0
 20 18  1  0
 21 20  2  0
M  END
$$$$
