SDV.pdb
     RDKit          3D

 22 21  0  0  1  0  0  0  0  0999 V2000
    7.2151  -13.5063   20.2359 O   0  0  0  0  0  0  0  0  0  0  0  0
    8.0380  -14.3380   19.4500 C   0  0  0  0  0  0  0  0  0  0  0  0
    7.6910  -15.7655   19.8133 C   0  0  2  0  0  0  0  0  0  0  0  0
    6.3248  -16.0392   19.4046 N   0  0  0  0  0  0  0  0  0  0  0  0
    7.8263  -16.0423   21.2519 C   0  0  0  0  0  0  0  0  0  0  0  0
    6.8228  -16.1565   21.9974 O   0  0  0  0  0  0  0  0  0  0  0  0
    9.0967  -16.1946   21.8522 N   0  0  0  0  0  0  0  0  0  0  0  0
    9.2707  -16.5424   23.2531 C   0  0  1  0  0  0  0  0  0  0  0  0
   10.7043  -17.1292   23.3022 C   0  0  0  0  0  0  0  0  0  0  0  0
   11.0933  -17.5433   24.6450 C   0  0  0  0  0  0  0  0  0  0  0  0
   12.2426  -17.3753   25.1165 O   0  0  0  0  0  0  0  0  0  0  0  0
    9.2955  -15.2853   24.0390 C   0  0  0  0  0  0  0  0  0  0  0  0
   10.0844  -14.3382   23.7307 O   0  0  0  0  0  0  0  0  0  0  0  0
   10.1236  -18.1612   25.4410 O   0  0  0  0  0  0  0  0  0  0  0  0
    6.9600  -12.2301   27.1003 C   0  0  0  0  0  0  0  0  0  0  0  0
    6.9863  -13.3600   26.0610 C   0  0  1  0  0  0  0  0  0  0  0  0
    6.4706  -12.9035   24.7386 C   0  0  0  0  0  0  0  0  0  0  0  0
    8.3793  -13.9634   25.9955 C   0  0  2  0  0  0  0  0  0  0  0  0
    8.4573  -15.1013   25.1387 N   0  0  0  0  0  0  0  0  0  0  0  0
    8.7907  -14.3590   27.3545 C   0  0  0  0  0  0  0  0  0  0  0  0
    9.0045  -13.4551   28.2239 O   0  0  0  0  0  0  0  0  0  0  0  0
    8.9643  -15.6796   27.7510 O   0  0  0  0  0  0  0  0  0  0  0  0
  1  2  1  0
  2  3  1  0
  3  4  1  1
  5  3  1  0
  5  6  2  0
  7  5  1  0
  8 12  1  0
  8  7  1  0
  8  9  1  6
 10  9  1  0
 10 11  2  0
 12 13  2  0
 14 10  1  0
 16 15  1  1
 16 17  1  0
 18 16  1  0
 19 12  1  0
 18 19  1  6
 20 22  1  0
 20 18  1  0
 21 20  2  0
M  END
$$$$
