SDV.pdb
     RDKit          3D

 22 21  0  0  1  0  0  0  0  0999 V2000
    9.6121  -12.2350   18.6208 O   0  0  0  0  0  0  0  0  0  0  0  0
    8.8641  -12.6029   19.7574 C   0  0  0  0  0  0  0  0  0  0  0  0
    8.3139  -13.9870   19.4894 C   0  0  2  0  0  0  0  0  0  0  0  0
    7.2782  -13.8966   18.4758 N   0  0  0  0  0  0  0  0  0  0  0  0
    7.7554  -14.6268   20.6908 C   0  0  0  0  0  0  0  0  0  0  0  0
    6.5222  -14.6228   20.9255 O   0  0  0  0  0  0  0  0  0  0  0  0
    8.5888  -15.2764   21.6293 N   0  0  0  0  0  0  0  0  0  0  0  0
    8.0810  -15.8789   22.8512 C   0  0  1  0  0  0  0  0  0  0  0  0
    8.8463  -17.2240   22.9334 C   0  0  0  0  0  0  0  0  0  0  0  0
    8.5766  -17.9461   24.1712 C   0  0  0  0  0  0  0  0  0  0  0  0
    9.4744  -18.3592   24.9424 O   0  0  0  0  0  0  0  0  0  0  0  0
    8.5398  -15.0546   23.9951 C   0  0  0  0  0  0  0  0  0  0  0  0
    9.7724  -14.7921   24.1576 O   0  0  0  0  0  0  0  0  0  0  0  0
    7.2400  -18.1857   24.5056 O   0  0  0  0  0  0  0  0  0  0  0  0
    7.0967  -12.1726   27.8329 C   0  0  0  0  0  0  0  0  0  0  0  0
    6.6980  -13.0282   26.6219 C   0  0  1  0  0  0  0  0  0  0  0  0
    5.9534  -12.2306   25.6057 C   0  0  0  0  0  0  0  0  0  0  0  0
    7.9249  -13.7303   26.0646 C   0  0  2  0  0  0  0  0  0  0  0  0
    7.6375  -14.5421   24.9273 N   0  0  0  0  0  0  0  0  0  0  0  0
    8.5096  -14.5763   27.1206 C   0  0  0  0  0  0  0  0  0  0  0  0
    8.1181  -15.7812   27.2356 O   0  0  0  0  0  0  0  0  0  0  0  0
    9.4764  -14.1313   28.0141 O   0  0  0  0  0  0  0  0  0  0  0  0
  1  2  1  0
  2  3  1  0
  3  4  1  6
  5  3  1  0
  5  6  2  0
  7  5  1  0
  8 12  1  0
  8  7  1  0
  8  9  1  1
 10  9  1  0
 10 11  2  0
 12 13  2  0
 14 10  1  0
 16 15  1  1
 16 17  1  0
 18 16  1  0
 19 12  1  0
 18 19  1  6
 20 22  1  0
 20 18  1  0
 21 20  2  0
M  END
$$$$
