SDV.pdb
     RDKit          3D

 22 21  0  0  1  0  0  0  0  0999 V2000
    8.0175  -12.0395   19.6212 O   0  0  0  0  0  0  0  0  0  0  0  0
    9.0154  -13.0350   19.6154 C   0  0  0  0  0  0  0  0  0  0  0  0
    8.3031  -14.3675   19.5290 C   0  0  2  0  0  0  0  0  0  0  0  0
    7.0406  -14.1852   18.8355 N   0  0  0  0  0  0  0  0  0  0  0  0
    8.0446  -14.9683   20.8469 C   0  0  0  0  0  0  0  0  0  0  0  0
    6.9066  -14.9311   21.3752 O   0  0  0  0  0  0  0  0  0  0  0  0
    9.0711  -15.6164   21.5705 N   0  0  0  0  0  0  0  0  0  0  0  0
    8.8487  -16.2483   22.8609 C   0  0  1  0  0  0  0  0  0  0  0  0
    9.9658  -17.3200   22.9333 C   0  0  0  0  0  0  0  0  0  0  0  0
    9.9099  -18.1038   24.1616 C   0  0  0  0  0  0  0  0  0  0  0  0
    8.8507  -18.3275   24.7936 O   0  0  0  0  0  0  0  0  0  0  0  0
    9.1431  -15.2509   23.9177 C   0  0  0  0  0  0  0  0  0  0  0  0
   10.2587  -14.6436   23.9496 O   0  0  0  0  0  0  0  0  0  0  0  0
   11.1096  -18.6291   24.6524 O   0  0  0  0  0  0  0  0  0  0  0  0
    7.1141  -12.1493   27.2152 C   0  0  0  0  0  0  0  0  0  0  0  0
    6.9483  -13.2328   26.1400 C   0  0  1  0  0  0  0  0  0  0  0  0
    6.3147  -12.6896   24.9044 C   0  0  0  0  0  0  0  0  0  0  0  0
    8.2828  -13.9149   25.8900 C   0  0  2  0  0  0  0  0  0  0  0  0
    8.2091  -14.9474   24.9084 N   0  0  0  0  0  0  0  0  0  0  0  0
    8.7663  -14.4929   27.1568 C   0  0  0  0  0  0  0  0  0  0  0  0
    8.5490  -15.7229   27.3983 O   0  0  0  0  0  0  0  0  0  0  0  0
    9.4543  -13.7652   28.1203 O   0  0  0  0  0  0  0  0  0  0  0  0
  1  2  1  0
  2  3  1  0
  3  4  1  1
  5  3  1  0
  5  6  2  0
  7  5  1  0
  8 12  1  0
  8  7  1  0
  8  9  1  1
 10  9  1  0
 10 11  2  0
 12 13  2  0
 14 10  1  0
 16 15  1  1
 16 17  1  0
 18 16  1  0
 19 12  1  0
 18 19  1  6
 20 22  1  0
 20 18  1  0
 21 20  2  0
M  END
$$$$
