SDV.pdb
     RDKit          3D

 22 21  0  0  1  0  0  0  0  0999 V2000
    8.0195  -12.1193   19.9708 O   0  0  0  0  0  0  0  0  0  0  0  0
    8.8317  -13.1573   19.4710 C   0  0  0  0  0  0  0  0  0  0  0  0
    8.0366  -14.4378   19.6056 C   0  0  2  0  0  0  0  0  0  0  0  0
    6.7359  -14.2547   18.9867 N   0  0  0  0  0  0  0  0  0  0  0  0
    7.8484  -14.8540   21.0042 C   0  0  0  0  0  0  0  0  0  0  0  0
    6.7586  -14.6791   21.6019 O   0  0  0  0  0  0  0  0  0  0  0  0
    8.8908  -15.4728   21.7309 N   0  0  0  0  0  0  0  0  0  0  0  0
    8.7026  -16.0308   23.0602 C   0  0  1  0  0  0  0  0  0  0  0  0
    9.8252  -17.0940   23.1657 C   0  0  0  0  0  0  0  0  0  0  0  0
    9.8302  -17.7758   24.4546 C   0  0  0  0  0  0  0  0  0  0  0  0
   10.8721  -18.0084   25.1117 O   0  0  0  0  0  0  0  0  0  0  0  0
    9.0191  -14.9742   24.0510 C   0  0  0  0  0  0  0  0  0  0  0  0
   10.0750  -14.2754   23.9454 O   0  0  0  0  0  0  0  0  0  0  0  0
    8.6000  -18.1889   24.9760 O   0  0  0  0  0  0  0  0  0  0  0  0
    7.3156  -11.8355   25.0071 C   0  0  0  0  0  0  0  0  0  0  0  0
    7.2685  -12.7248   26.2579 C   0  0  1  0  0  0  0  0  0  0  0  0
    5.9093  -13.2981   26.4747 C   0  0  0  0  0  0  0  0  0  0  0  0
    8.3661  -13.7728   26.1830 C   0  0  2  0  0  0  0  0  0  0  0  0
    8.1718  -14.7131   25.1280 N   0  0  0  0  0  0  0  0  0  0  0  0
    8.4204  -14.4973   27.4655 C   0  0  0  0  0  0  0  0  0  0  0  0
    8.7730  -13.8712   28.5152 O   0  0  0  0  0  0  0  0  0  0  0  0
    8.1070  -15.8444   27.6008 O   0  0  0  0  0  0  0  0  0  0  0  0
  1  2  1  0
  2  3  1  0
  3  4  1  1
  5  3  1  0
  5  6  2  0
  7  5  1  0
  8 12  1  0
  8  7  1  0
  8  9  1  1
 10  9  1  0
 10 11  2  0
 12 13  2  0
 14 10  1  0
 16 15  1  6
 16 17  1  0
 18 16  1  0
 19 12  1  0
 18 19  1  6
 20 22  1  0
 20 18  1  0
 21 20  2  0
M  END
$$$$
