SDV.pdb
     RDKit          3D

 22 21  0  0  1  0  0  0  0  0999 V2000
    6.6750  -17.1418   19.3515 O   0  0  0  0  0  0  0  0  0  0  0  0
    6.2941  -15.7847   19.3567 C   0  0  0  0  0  0  0  0  0  0  0  0
    7.4009  -15.0226   20.0528 C   0  0  2  0  0  0  0  0  0  0  0  0
    8.6573  -15.2883   19.3753 N   0  0  0  0  0  0  0  0  0  0  0  0
    7.5376  -15.3770   21.4742 C   0  0  0  0  0  0  0  0  0  0  0  0
    6.5980  -15.2050   22.2887 O   0  0  0  0  0  0  0  0  0  0  0  0
    8.7361  -15.9304   21.9792 N   0  0  0  0  0  0  0  0  0  0  0  0
    8.8697  -16.4095   23.3453 C   0  0  1  0  0  0  0  0  0  0  0  0
   10.1918  -17.2175   23.3150 C   0  0  0  0  0  0  0  0  0  0  0  0
   10.4967  -17.8392   24.5982 C   0  0  0  0  0  0  0  0  0  0  0  0
    9.7283  -17.7994   25.5878 O   0  0  0  0  0  0  0  0  0  0  0  0
    9.1042  -15.2373   24.2224 C   0  0  0  0  0  0  0  0  0  0  0  0
   10.0431  -14.4167   23.9781 O   0  0  0  0  0  0  0  0  0  0  0  0
   11.7160  -18.5133   24.7202 O   0  0  0  0  0  0  0  0  0  0  0  0
    7.0288  -12.0018   27.2736 C   0  0  0  0  0  0  0  0  0  0  0  0
    6.9615  -13.1571   26.2645 C   0  0  1  0  0  0  0  0  0  0  0  0
    6.4469  -12.7024   24.9409 C   0  0  0  0  0  0  0  0  0  0  0  0
    8.3120  -13.8491   26.1871 C   0  0  2  0  0  0  0  0  0  0  0  0
    8.3055  -14.9973   25.3407 N   0  0  0  0  0  0  0  0  0  0  0  0
    8.7155  -14.2579   27.5446 C   0  0  0  0  0  0  0  0  0  0  0  0
    8.9760  -13.3615   28.4089 O   0  0  0  0  0  0  0  0  0  0  0  0
    8.8327  -15.5836   27.9448 O   0  0  0  0  0  0  0  0  0  0  0  0
  1  2  1  0
  2  3  1  0
  3  4  1  6
  5  3  1  0
  5  6  2  0
  7  5  1  0
  8 12  1  0
  8  7  1  0
  8  9  1  6
 10  9  1  0
 10 11  2  0
 12 13  2  0
 14 10  1  0
 16 15  1  1
 16 17  1  0
 18 16  1  0
 19 12  1  0
 18 19  1  6
 20 22  1  0
 20 18  1  0
 21 20  2  0
M  END
$$$$
