YNV.pdb
     RDKit          3D

 28 28  0  0  1  0  0  0  0  0999 V2000
    9.6597  -12.0339   19.1031 O   0  0  0  0  0  0  0  0  0  0  0  0
    8.7230  -12.8931   19.6333 C   0  0  0  0  0  0  0  0  0  0  0  0
    8.5460  -12.9865   20.9888 C   0  0  0  0  0  0  0  0  0  0  0  0
    7.5981  -13.8554   21.5368 C   0  0  0  0  0  0  0  0  0  0  0  0
    6.8379  -14.6231   20.6828 C   0  0  0  0  0  0  0  0  0  0  0  0
    5.8355  -15.5426   21.2634 C   0  0  0  0  0  0  0  0  0  0  0  0
    6.4852  -16.9270   21.3014 C   0  0  2  0  0  0  0  0  0  0  0  0
    5.5763  -17.8468   20.6857 N   0  0  0  0  0  0  0  0  0  0  0  0
    6.7121  -17.2533   22.7361 C   0  0  0  0  0  0  0  0  0  0  0  0
    5.7461  -17.5070   23.4955 O   0  0  0  0  0  0  0  0  0  0  0  0
    6.9938  -14.5496   19.3266 C   0  0  0  0  0  0  0  0  0  0  0  0
    7.9536  -13.6677   18.8113 C   0  0  0  0  0  0  0  0  0  0  0  0
   10.0071  -20.4631   26.0243 N   0  0  0  0  0  0  0  0  0  0  0  0
   10.1834  -19.1170   25.5618 C   0  0  0  0  0  0  0  0  0  0  0  0
   11.0110  -18.4134   26.1461 O   0  0  0  0  0  0  0  0  0  0  0  0
    9.3775  -18.6949   24.4496 C   0  0  0  0  0  0  0  0  0  0  0  0
    8.3619  -17.6044   24.6378 C   0  0  2  0  0  0  0  0  0  0  0  0
    8.0339  -17.2680   23.2105 N   0  0  0  0  0  0  0  0  0  0  0  0
    8.8803  -16.3435   25.1767 C   0  0  0  0  0  0  0  0  0  0  0  0
    9.7698  -15.7014   24.5091 O   0  0  0  0  0  0  0  0  0  0  0  0
    8.6569  -12.1497   27.6181 C   0  0  0  0  0  0  0  0  0  0  0  0
    8.0477  -13.4442   27.1241 C   0  0  1  0  0  0  0  0  0  0  0  0
    7.2787  -13.1376   25.8586 C   0  0  0  0  0  0  0  0  0  0  0  0
    9.1103  -14.4534   26.7990 C   0  0  2  0  0  0  0  0  0  0  0  0
    8.5005  -15.7271   26.3843 N   0  0  0  0  0  0  0  0  0  0  0  0
    9.9230  -14.7246   27.9986 C   0  0  0  0  0  0  0  0  0  0  0  0
   11.0946  -13.9931   28.2662 O   0  0  0  0  0  0  0  0  0  0  0  0
    9.5711  -15.6201   28.7979 O   0  0  0  0  0  0  0  0  0  0  0  0
  2  1  1  0
  2 12  2  0
  3  2  1  0
  4  3  2  0
  4  5  1  0
  5 11  2  0
  6  5  1  0
  7  9  1  0
  7  6  1  0
  7  8  1  1
  9 18  1  0
 10  9  2  0
 11 12  1  0
 14 13  1  0
 15 14  2  0
 16 14  1  0
 17 16  1  6
 18 17  1  0
 19 17  1  0
 20 19  2  0
 22 21  1  6
 22 23  1  0
 22 24  1  0
 24 26  1  0
 24 25  1  1
 25 19  1  0
 26 27  1  0
 28 26  2  0
M  END
$$$$
