YNV.pdb
     RDKit          3D

 28 28  0  0  1  0  0  0  0  0999 V2000
    9.3371  -12.4551   17.7769 O   0  0  0  0  0  0  0  0  0  0  0  0
    8.6781  -13.0030   18.8550 C   0  0  0  0  0  0  0  0  0  0  0  0
    7.3121  -13.1092   18.8610 C   0  0  0  0  0  0  0  0  0  0  0  0
    6.6339  -13.6636   19.9503 C   0  0  0  0  0  0  0  0  0  0  0  0
    7.3695  -14.1054   21.0276 C   0  0  0  0  0  0  0  0  0  0  0  0
    6.6512  -14.6914   22.1800 C   0  0  0  0  0  0  0  0  0  0  0  0
    6.7895  -16.2096   22.0527 C   0  0  2  0  0  0  0  0  0  0  0  0
    5.6316  -16.6915   21.3611 N   0  0  0  0  0  0  0  0  0  0  0  0
    6.8683  -16.7491   23.4380 C   0  0  0  0  0  0  0  0  0  0  0  0
    5.8341  -16.8688   24.1382 O   0  0  0  0  0  0  0  0  0  0  0  0
    8.7331  -14.0115   21.0477 C   0  0  0  0  0  0  0  0  0  0  0  0
    9.3806  -13.4502   19.9385 C   0  0  0  0  0  0  0  0  0  0  0  0
    6.3816  -19.7132   24.7729 N   0  0  0  0  0  0  0  0  0  0  0  0
    7.7603  -20.0912   24.6574 C   0  0  0  0  0  0  0  0  0  0  0  0
    8.0109  -21.2418   24.2905 O   0  0  0  0  0  0  0  0  0  0  0  0
    8.7429  -19.0938   24.9802 C   0  0  0  0  0  0  0  0  0  0  0  0
    8.3040  -17.6957   25.3100 C   0  0  2  0  0  0  0  0  0  0  0  0
    8.1296  -17.1175   23.9341 N   0  0  0  0  0  0  0  0  0  0  0  0
    9.3271  -16.8377   25.9151 C   0  0  0  0  0  0  0  0  0  0  0  0
   10.4260  -16.6392   25.2811 O   0  0  0  0  0  0  0  0  0  0  0  0
    9.3136  -13.3078   26.7631 C   0  0  0  0  0  0  0  0  0  0  0  0
    9.9205  -13.9789   27.9764 C   0  0  1  0  0  0  0  0  0  0  0  0
    8.8507  -14.0573   29.0424 C   0  0  0  0  0  0  0  0  0  0  0  0
   10.3707  -15.3743   27.6548 C   0  0  2  0  0  0  0  0  0  0  0  0
    9.2424  -16.1766   27.1554 N   0  0  0  0  0  0  0  0  0  0  0  0
   10.8702  -16.0303   28.8769 C   0  0  0  0  0  0  0  0  0  0  0  0
   12.1184  -15.6894   29.4291 O   0  0  0  0  0  0  0  0  0  0  0  0
   10.1774  -16.9072   29.4387 O   0  0  0  0  0  0  0  0  0  0  0  0
  2  1  1  0
  2 12  2  0
  3  2  1  0
  4  3  2  0
  4  5  1  0
  5 11  2  0
  6  5  1  0
  7  9  1  0
  7  6  1  0
  7  8  1  1
  9 18  1  0
 10  9  2  0
 11 12  1  0
 14 13  1  0
 15 14  2  0
 16 14  1  0
 17 16  1  6
 18 17  1  0
 19 17  1  0
 20 19  2  0
 22 21  1  6
 22 23  1  0
 22 24  1  0
 24 26  1  0
 24 25  1  1
 25 19  1  0
 26 27  1  0
 28 26  2  0
M  END
$$$$
