YNV.pdb
     RDKit          3D

 28 28  0  0  1  0  0  0  0  0999 V2000
    7.9775  -12.7372   15.9200 O   0  0  0  0  0  0  0  0  0  0  0  0
    7.8202  -13.2679   17.1811 C   0  0  0  0  0  0  0  0  0  0  0  0
    7.9245  -12.4742   18.2932 C   0  0  0  0  0  0  0  0  0  0  0  0
    7.7667  -13.0031   19.5774 C   0  0  0  0  0  0  0  0  0  0  0  0
    7.5020  -14.3484   19.7068 C   0  0  0  0  0  0  0  0  0  0  0  0
    7.3356  -14.9074   21.0660 C   0  0  0  0  0  0  0  0  0  0  0  0
    8.7364  -14.9970   21.6742 C   0  0  2  0  0  0  0  0  0  0  0  0
    9.5664  -15.7009   20.7432 N   0  0  0  0  0  0  0  0  0  0  0  0
    8.5980  -15.7373   22.9584 C   0  0  0  0  0  0  0  0  0  0  0  0
    7.7668  -15.3693   23.8232 O   0  0  0  0  0  0  0  0  0  0  0  0
    7.3927  -15.1629   18.6143 C   0  0  0  0  0  0  0  0  0  0  0  0
    7.5568  -14.5992   17.3416 C   0  0  0  0  0  0  0  0  0  0  0  0
   10.0202  -20.9738   25.3183 N   0  0  0  0  0  0  0  0  0  0  0  0
   10.6855  -19.7244   25.0871 C   0  0  0  0  0  0  0  0  0  0  0  0
   11.6796  -19.4685   25.7709 O   0  0  0  0  0  0  0  0  0  0  0  0
   10.1371  -18.8674   24.0724 C   0  0  0  0  0  0  0  0  0  0  0  0
    9.4172  -17.6102   24.4692 C   0  0  2  0  0  0  0  0  0  0  0  0
    9.4227  -16.8542   23.1706 N   0  0  0  0  0  0  0  0  0  0  0  0
   10.1460  -16.7259   25.3836 C   0  0  0  0  0  0  0  0  0  0  0  0
   11.1464  -16.0570   24.9356 O   0  0  0  0  0  0  0  0  0  0  0  0
    8.4954  -14.3241   28.0395 C   0  0  0  0  0  0  0  0  0  0  0  0
    9.9034  -14.1894   27.5009 C   0  0  1  0  0  0  0  0  0  0  0  0
   10.6510  -13.2315   28.4011 C   0  0  0  0  0  0  0  0  0  0  0  0
   10.6181  -15.5094   27.5177 C   0  0  2  0  0  0  0  0  0  0  0  0
    9.8652  -16.5118   26.7466 N   0  0  0  0  0  0  0  0  0  0  0  0
   10.7179  -16.0038   28.9028 C   0  0  0  0  0  0  0  0  0  0  0  0
   11.5934  -15.4072   29.8285 O   0  0  0  0  0  0  0  0  0  0  0  0
   10.0149  -16.9712   29.2693 O   0  0  0  0  0  0  0  0  0  0  0  0
  2  1  1  0
  2 12  2  0
  3  2  1  0
  4  3  2  0
  4  5  1  0
  5 11  2  0
  6  5  1  0
  7  9  1  0
  7  6  1  0
  7  8  1  6
  9 18  1  0
 10  9  2  0
 11 12  1  0
 14 13  1  0
 15 14  2  0
 16 14  1  0
 17 16  1  6
 18 17  1  0
 19 17  1  0
 20 19  2  0
 22 21  1  1
 22 23  1  0
 22 24  1  0
 24 26  1  0
 24 25  1  6
 25 19  1  0
 26 27  1  0
 28 26  2  0
M  END
$$$$
