YNV.pdb
     RDKit          3D

 28 28  0  0  1  0  0  0  0  0999 V2000
    7.1655  -12.6720   15.5123 O   0  0  0  0  0  0  0  0  0  0  0  0
    7.4689  -13.5723   16.5094 C   0  0  0  0  0  0  0  0  0  0  0  0
    6.6118  -14.5977   16.8119 C   0  0  0  0  0  0  0  0  0  0  0  0
    6.9105  -15.5166   17.8220 C   0  0  0  0  0  0  0  0  0  0  0  0
    8.0921  -15.3721   18.5145 C   0  0  0  0  0  0  0  0  0  0  0  0
    8.4071  -16.3444   19.5835 C   0  0  0  0  0  0  0  0  0  0  0  0
    8.1555  -15.6279   20.9115 C   0  0  2  0  0  0  0  0  0  0  0  0
    9.1246  -14.5796   21.0261 N   0  0  0  0  0  0  0  0  0  0  0  0
    8.3170  -16.6474   21.9843 C   0  0  0  0  0  0  0  0  0  0  0  0
    7.7786  -17.7760   21.8813 O   0  0  0  0  0  0  0  0  0  0  0  0
    8.9651  -14.3584   18.2332 C   0  0  0  0  0  0  0  0  0  0  0  0
    8.6339  -13.4550   17.2140 C   0  0  0  0  0  0  0  0  0  0  0  0
    9.8181  -20.6253   22.7715 N   0  0  0  0  0  0  0  0  0  0  0  0
    9.6595  -19.7169   23.8700 C   0  0  0  0  0  0  0  0  0  0  0  0
    9.2064  -20.1664   24.9255 O   0  0  0  0  0  0  0  0  0  0  0  0
   10.0433  -18.3496   23.6509 C   0  0  0  0  0  0  0  0  0  0  0  0
    9.2430  -17.2427   24.2755 C   0  0  2  0  0  0  0  0  0  0  0  0
    9.0863  -16.3082   23.1093 N   0  0  0  0  0  0  0  0  0  0  0  0
    9.9526  -16.4330   25.2705 C   0  0  0  0  0  0  0  0  0  0  0  0
   11.0924  -15.9281   24.9623 O   0  0  0  0  0  0  0  0  0  0  0  0
   10.0030  -12.9940   28.6425 C   0  0  0  0  0  0  0  0  0  0  0  0
    9.3049  -14.0002   27.7530 C   0  0  1  0  0  0  0  0  0  0  0  0
    8.8986  -13.2876   26.4826 C   0  0  0  0  0  0  0  0  0  0  0  0
   10.2237  -15.1298   27.3884 C   0  0  2  0  0  0  0  0  0  0  0  0
    9.5133  -16.1281   26.5731 N   0  0  0  0  0  0  0  0  0  0  0  0
   10.6865  -15.8097   28.6118 C   0  0  0  0  0  0  0  0  0  0  0  0
   10.3076  -17.1341   28.8976 O   0  0  0  0  0  0  0  0  0  0  0  0
   11.4297  -15.2045   29.4156 O   0  0  0  0  0  0  0  0  0  0  0  0
  2  1  1  0
  2 12  2  0
  3  2  1  0
  4  3  2  0
  4  5  1  0
  5 11  2  0
  6  5  1  0
  7  9  1  0
  7  6  1  0
  7  8  1  1
  9 18  1  0
 10  9  2  0
 11 12  1  0
 14 13  1  0
 15 14  2  0
 16 14  1  0
 17 16  1  6
 18 17  1  0
 19 17  1  0
 20 19  2  0
 22 21  1  1
 22 23  1  0
 22 24  1  0
 24 26  1  0
 24 25  1  6
 25 19  1  0
 26 27  1  0
 28 26  2  0
M  END
$$$$
