YNV.pdb
     RDKit          3D

 28 28  0  0  1  0  0  0  0  0999 V2000
    8.2053  -12.1757   17.0181 O   0  0  0  0  0  0  0  0  0  0  0  0
    8.1045  -12.8014   18.2409 C   0  0  0  0  0  0  0  0  0  0  0  0
    9.2268  -13.2001   18.9184 C   0  0  0  0  0  0  0  0  0  0  0  0
    9.1352  -13.8359   20.1598 C   0  0  0  0  0  0  0  0  0  0  0  0
    7.8857  -14.0567   20.6953 C   0  0  0  0  0  0  0  0  0  0  0  0
    7.7897  -14.7299   22.0087 C   0  0  0  0  0  0  0  0  0  0  0  0
    8.1681  -16.1938   21.7761 C   0  0  2  0  0  0  0  0  0  0  0  0
    7.1246  -16.7903   20.9973 N   0  0  0  0  0  0  0  0  0  0  0  0
    8.2822  -16.8243   23.1199 C   0  0  0  0  0  0  0  0  0  0  0  0
    7.2659  -16.9937   23.8359 O   0  0  0  0  0  0  0  0  0  0  0  0
    6.7498  -13.6691   20.0408 C   0  0  0  0  0  0  0  0  0  0  0  0
    6.8785  -13.0343   18.7979 C   0  0  0  0  0  0  0  0  0  0  0  0
   11.0137  -20.2835   22.3736 N   0  0  0  0  0  0  0  0  0  0  0  0
   10.3432  -20.1042   23.6287 C   0  0  0  0  0  0  0  0  0  0  0  0
    9.4575  -20.9094   23.9262 O   0  0  0  0  0  0  0  0  0  0  0  0
   10.7597  -18.9953   24.4421 C   0  0  0  0  0  0  0  0  0  0  0  0
    9.7564  -17.9561   24.8540 C   0  0  2  0  0  0  0  0  0  0  0  0
    9.5559  -17.2212   23.5588 N   0  0  0  0  0  0  0  0  0  0  0  0
   10.2561  -16.9196   25.7624 C   0  0  0  0  0  0  0  0  0  0  0  0
   11.2768  -16.2244   25.4105 O   0  0  0  0  0  0  0  0  0  0  0  0
    9.9426  -13.4610   29.1589 C   0  0  0  0  0  0  0  0  0  0  0  0
    9.3308  -14.5100   28.2555 C   0  0  1  0  0  0  0  0  0  0  0  0
    8.8227  -13.8098   27.0151 C   0  0  0  0  0  0  0  0  0  0  0  0
   10.3522  -15.5281   27.8388 C   0  0  2  0  0  0  0  0  0  0  0  0
    9.7262  -16.5802   27.0219 N   0  0  0  0  0  0  0  0  0  0  0  0
   10.9222  -16.1787   29.0326 C   0  0  0  0  0  0  0  0  0  0  0  0
   11.9847  -15.5928   29.7447 O   0  0  0  0  0  0  0  0  0  0  0  0
   10.4584  -17.2718   29.4254 O   0  0  0  0  0  0  0  0  0  0  0  0
  2  1  1  0
  2 12  2  0
  3  2  1  0
  4  3  2  0
  4  5  1  0
  5 11  2  0
  6  5  1  0
  7  9  1  0
  7  6  1  0
  7  8  1  6
  9 18  1  0
 10  9  2  0
 11 12  1  0
 14 13  1  0
 15 14  2  0
 16 14  1  0
 17 16  1  6
 18 17  1  0
 19 17  1  0
 20 19  2  0
 22 21  1  1
 22 23  1  0
 22 24  1  0
 24 26  1  0
 24 25  1  6
 25 19  1  0
 26 27  1  0
 28 26  2  0
M  END
$$$$
