YNV.pdb
     RDKit          3D

 28 28  0  0  1  0  0  0  0  0999 V2000
    7.8914  -12.0371   17.7146 O   0  0  0  0  0  0  0  0  0  0  0  0
    8.0149  -12.7921   18.8598 C   0  0  0  0  0  0  0  0  0  0  0  0
    9.2435  -13.2260   19.2836 C   0  0  0  0  0  0  0  0  0  0  0  0
    9.3795  -13.9927   20.4444 C   0  0  0  0  0  0  0  0  0  0  0  0
    8.2466  -14.3074   21.1615 C   0  0  0  0  0  0  0  0  0  0  0  0
    8.3913  -15.1192   22.3893 C   0  0  0  0  0  0  0  0  0  0  0  0
    9.0365  -16.4396   21.9645 C   0  0  2  0  0  0  0  0  0  0  0  0
    8.1363  -17.0874   21.0582 N   0  0  0  0  0  0  0  0  0  0  0  0
    9.2366  -17.2363   23.2061 C   0  0  0  0  0  0  0  0  0  0  0  0
    8.4514  -18.1692   23.5018 O   0  0  0  0  0  0  0  0  0  0  0  0
    7.0088  -13.8875   20.7613 C   0  0  0  0  0  0  0  0  0  0  0  0
    6.9091  -13.1204   19.5925 C   0  0  0  0  0  0  0  0  0  0  0  0
   12.2379  -20.0034   26.2845 N   0  0  0  0  0  0  0  0  0  0  0  0
   12.7385  -19.5245   25.0287 C   0  0  0  0  0  0  0  0  0  0  0  0
   13.7356  -20.0788   24.5596 O   0  0  0  0  0  0  0  0  0  0  0  0
   12.0343  -18.4324   24.4155 C   0  0  0  0  0  0  0  0  0  0  0  0
   10.8252  -17.8527   25.0923 C   0  0  2  0  0  0  0  0  0  0  0  0
   10.3256  -16.9126   24.0319 N   0  0  0  0  0  0  0  0  0  0  0  0
   11.0997  -16.9705   26.2306 C   0  0  0  0  0  0  0  0  0  0  0  0
   11.7673  -17.4305   27.2264 O   0  0  0  0  0  0  0  0  0  0  0  0
    9.0692  -13.4707   28.9936 C   0  0  0  0  0  0  0  0  0  0  0  0
    9.1622  -14.3662   27.7768 C   0  0  1  0  0  0  0  0  0  0  0  0
    8.9880  -13.4973   26.5514 C   0  0  0  0  0  0  0  0  0  0  0  0
   10.5047  -15.0330   27.6967 C   0  0  2  0  0  0  0  0  0  0  0  0
   10.7062  -15.6252   26.3645 N   0  0  0  0  0  0  0  0  0  0  0  0
   10.5758  -16.1285   28.6805 C   0  0  0  0  0  0  0  0  0  0  0  0
   11.3143  -15.9932   29.8703 O   0  0  0  0  0  0  0  0  0  0  0  0
    9.9715  -17.2013   28.4604 O   0  0  0  0  0  0  0  0  0  0  0  0
  2  1  1  0
  2 12  2  0
  3  2  1  0
  4  3  2  0
  4  5  1  0
  5 11  2  0
  6  5  1  0
  7  9  1  0
  7  6  1  0
  7  8  1  6
  9 18  1  0
 10  9  2  0
 11 12  1  0
 14 13  1  0
 15 14  2  0
 16 14  1  0
 17 16  1  6
 18 17  1  0
 19 17  1  0
 20 19  2  0
 22 21  1  1
 22 23  1  0
 22 24  1  0
 24 26  1  0
 24 25  1  6
 25 19  1  0
 26 27  1  0
 28 26  2  0
M  END
$$$$
