YNV.pdb
     RDKit          3D

 28 28  0  0  1  0  0  0  0  0999 V2000
    9.0475  -12.7275   17.2504 O   0  0  0  0  0  0  0  0  0  0  0  0
    8.5554  -13.1986   18.4473 C   0  0  0  0  0  0  0  0  0  0  0  0
    9.3842  -13.8012   19.3570 C   0  0  0  0  0  0  0  0  0  0  0  0
    8.8946  -14.2826   20.5745 C   0  0  0  0  0  0  0  0  0  0  0  0
    7.5521  -14.1395   20.8465 C   0  0  0  0  0  0  0  0  0  0  0  0
    7.0348  -14.6497   22.1347 C   0  0  0  0  0  0  0  0  0  0  0  0
    6.9638  -16.1721   22.0030 C   0  0  2  0  0  0  0  0  0  0  0  0
    5.7699  -16.4869   21.2772 N   0  0  0  0  0  0  0  0  0  0  0  0
    6.9280  -16.7195   23.3869 C   0  0  0  0  0  0  0  0  0  0  0  0
    5.8601  -16.7257   24.0455 O   0  0  0  0  0  0  0  0  0  0  0  0
    6.7031  -13.5423   19.9569 C   0  0  0  0  0  0  0  0  0  0  0  0
    7.2279  -13.0711   18.7457 C   0  0  0  0  0  0  0  0  0  0  0  0
    6.4088  -20.0415   25.6544 N   0  0  0  0  0  0  0  0  0  0  0  0
    7.7081  -20.3406   25.1260 C   0  0  0  0  0  0  0  0  0  0  0  0
    7.9577  -21.5162   24.8481 O   0  0  0  0  0  0  0  0  0  0  0  0
    8.6186  -19.2411   24.9624 C   0  0  0  0  0  0  0  0  0  0  0  0
    8.1700  -17.8472   25.2967 C   0  0  2  0  0  0  0  0  0  0  0  0
    8.1204  -17.2258   23.9295 N   0  0  0  0  0  0  0  0  0  0  0  0
    9.1481  -17.0226   26.0126 C   0  0  0  0  0  0  0  0  0  0  0  0
   10.2339  -16.6868   25.4148 O   0  0  0  0  0  0  0  0  0  0  0  0
   10.4388  -13.5691   29.2182 C   0  0  0  0  0  0  0  0  0  0  0  0
    9.4068  -14.4537   28.5524 C   0  0  1  0  0  0  0  0  0  0  0  0
    8.7087  -13.6301   27.4935 C   0  0  0  0  0  0  0  0  0  0  0  0
   10.0537  -15.6322   27.8846 C   0  0  2  0  0  0  0  0  0  0  0  0
    9.0315  -16.5329   27.3276 N   0  0  0  0  0  0  0  0  0  0  0  0
   10.8268  -16.4032   28.8751 C   0  0  0  0  0  0  0  0  0  0  0  0
   10.4440  -17.7053   29.2454 O   0  0  0  0  0  0  0  0  0  0  0  0
   11.8427  -15.8970   29.4006 O   0  0  0  0  0  0  0  0  0  0  0  0
  2  1  1  0
  2 12  2  0
  3  2  1  0
  4  3  2  0
  4  5  1  0
  5 11  2  0
  6  5  1  0
  7  9  1  0
  7  6  1  0
  7  8  1  6
  9 18  1  0
 10  9  2  0
 11 12  1  0
 14 13  1  0
 15 14  2  0
 16 14  1  0
 17 16  1  6
 18 17  1  0
 19 17  1  0
 20 19  2  0
 22 21  1  6
 22 23  1  0
 22 24  1  0
 24 26  1  0
 24 25  1  1
 25 19  1  0
 26 27  1  0
 28 26  2  0
M  END
$$$$
