YNV.pdb
     RDKit          3D

 28 28  0  0  1  0  0  0  0  0999 V2000
    6.1634  -13.1604   17.9902 O   0  0  0  0  0  0  0  0  0  0  0  0
    7.2872  -13.6445   18.6223 C   0  0  0  0  0  0  0  0  0  0  0  0
    8.2555  -14.3099   17.9175 C   0  0  0  0  0  0  0  0  0  0  0  0
    9.3996  -14.8051   18.5497 C   0  0  0  0  0  0  0  0  0  0  0  0
    9.5380  -14.6107   19.9060 C   0  0  0  0  0  0  0  0  0  0  0  0
   10.7486  -15.1354   20.5743 C   0  0  0  0  0  0  0  0  0  0  0  0
   10.5932  -16.6564   20.6249 C   0  0  2  0  0  0  0  0  0  0  0  0
   10.1455  -17.0872   19.3344 N   0  0  0  0  0  0  0  0  0  0  0  0
    9.5873  -16.9482   21.6829 C   0  0  0  0  0  0  0  0  0  0  0  0
    8.6600  -17.7677   21.4762 O   0  0  0  0  0  0  0  0  0  0  0  0
    8.5874  -13.9503   20.6333 C   0  0  0  0  0  0  0  0  0  0  0  0
    7.4528  -13.4670   19.9672 C   0  0  0  0  0  0  0  0  0  0  0  0
    8.7763  -19.8718   25.7070 N   0  0  0  0  0  0  0  0  0  0  0  0
    9.7447  -18.8227   25.5703 C   0  0  0  0  0  0  0  0  0  0  0  0
   10.4760  -18.5876   26.5354 O   0  0  0  0  0  0  0  0  0  0  0  0
    9.7847  -18.1268   24.3138 C   0  0  0  0  0  0  0  0  0  0  0  0
    9.0761  -16.8104   24.1691 C   0  0  2  0  0  0  0  0  0  0  0  0
    9.7078  -16.2808   22.9128 N   0  0  0  0  0  0  0  0  0  0  0  0
    9.4116  -15.7977   25.1746 C   0  0  0  0  0  0  0  0  0  0  0  0
   10.5936  -15.2960   25.1809 O   0  0  0  0  0  0  0  0  0  0  0  0
    8.1704  -12.0934   28.1698 C   0  0  0  0  0  0  0  0  0  0  0  0
    7.7674  -13.2993   27.3487 C   0  0  1  0  0  0  0  0  0  0  0  0
    7.1318  -12.7956   26.0723 C   0  0  0  0  0  0  0  0  0  0  0  0
    8.9630  -14.1311   26.9852 C   0  0  2  0  0  0  0  0  0  0  0  0
    8.5567  -15.2873   26.1702 N   0  0  0  0  0  0  0  0  0  0  0  0
    9.5949  -14.6559   28.2093 C   0  0  0  0  0  0  0  0  0  0  0  0
   10.5080  -13.8814   28.9480 O   0  0  0  0  0  0  0  0  0  0  0  0
    9.3194  -15.8102   28.6047 O   0  0  0  0  0  0  0  0  0  0  0  0
  2  1  1  0
  2 12  2  0
  3  2  1  0
  4  3  2  0
  4  5  1  0
  5 11  2  0
  6  5  1  0
  7  9  1  0
  7  6  1  0
  7  8  1  6
  9 18  1  0
 10  9  2  0
 11 12  1  0
 14 13  1  0
 15 14  2  0
 16 14  1  0
 17 16  1  1
 18 17  1  0
 19 17  1  0
 20 19  2  0
 22 21  1  1
 22 23  1  0
 22 24  1  0
 24 26  1  0
 24 25  1  6
 25 19  1  0
 26 27  1  0
 28 26  2  0
M  END
$$$$
