YNV.pdb
     RDKit          3D

 28 28  0  0  1  0  0  0  0  0999 V2000
   15.1283  -27.3459   10.4306 O   0  0  0  0  0  0  0  0  0  0  0  0
   15.1901  -26.5211   11.5318 C   0  0  0  0  0  0  0  0  0  0  0  0
   14.8144  -26.9749   12.7689 C   0  0  0  0  0  0  0  0  0  0  0  0
   14.8733  -26.1457   13.8927 C   0  0  0  0  0  0  0  0  0  0  0  0
   15.3198  -24.8526   13.7334 C   0  0  0  0  0  0  0  0  0  0  0  0
   15.3813  -23.9758   14.9229 C   0  0  0  0  0  0  0  0  0  0  0  0
   13.9358  -23.7377   15.3633 C   0  0  2  0  0  0  0  0  0  0  0  0
   13.2730  -23.0354   14.3057 N   0  0  0  0  0  0  0  0  0  0  0  0
   13.9972  -22.9262   16.6100 C   0  0  0  0  0  0  0  0  0  0  0  0
   14.0045  -21.6726   16.5582 O   0  0  0  0  0  0  0  0  0  0  0  0
   15.7008  -24.3743   12.5108 C   0  0  0  0  0  0  0  0  0  0  0  0
   15.6289  -25.2331   11.4054 C   0  0  0  0  0  0  0  0  0  0  0  0
   10.5532  -24.0058   19.2875 N   0  0  0  0  0  0  0  0  0  0  0  0
   11.5568  -23.0361   19.6184 C   0  0  0  0  0  0  0  0  0  0  0  0
   11.2122  -21.8536   19.6849 O   0  0  0  0  0  0  0  0  0  0  0  0
   12.8892  -23.5231   19.8467 C   0  0  0  0  0  0  0  0  0  0  0  0
   14.0495  -22.8709   19.1508 C   0  0  2  0  0  0  0  0  0  0  0  0
   14.0466  -23.6040   17.8391 N   0  0  0  0  0  0  0  0  0  0  0  0
   15.3716  -23.1715   19.7084 C   0  0  0  0  0  0  0  0  0  0  0  0
   15.9680  -24.2498   19.3469 O   0  0  0  0  0  0  0  0  0  0  0  0
   19.6157  -22.0409   21.9786 C   0  0  0  0  0  0  0  0  0  0  0  0
   18.2621  -21.6185   21.4492 C   0  0  1  0  0  0  0  0  0  0  0  0
   18.4916  -20.8058   20.1947 C   0  0  0  0  0  0  0  0  0  0  0  0
   17.4237  -22.8115   21.0930 C   0  0  2  0  0  0  0  0  0  0  0  0
   16.0947  -22.3853   20.6258 N   0  0  0  0  0  0  0  0  0  0  0  0
   17.2216  -23.6523   22.2869 C   0  0  0  0  0  0  0  0  0  0  0  0
   17.9920  -24.8095   22.5025 O   0  0  0  0  0  0  0  0  0  0  0  0
   16.3509  -23.3378   23.1280 O   0  0  0  0  0  0  0  0  0  0  0  0
  2  1  1  0
  2 12  2  0
  3  2  1  0
  4  3  2  0
  4  5  1  0
  5 11  2  0
  6  5  1  0
  7  9  1  0
  7  6  1  0
  7  8  1  6
  9 18  1  0
 10  9  2  0
 11 12  1  0
 14 13  1  0
 15 14  2  0
 16 14  1  0
 17 16  1  1
 18 17  1  0
 19 17  1  0
 20 19  2  0
 22 21  1  6
 22 23  1  0
 22 24  1  0
 24 26  1  0
 24 25  1  1
 25 19  1  0
 26 27  1  0
 28 26  2  0
M  END
$$$$
