YNV.pdb
     RDKit          3D

 28 28  0  0  1  0  0  0  0  0999 V2000
    8.7950  -12.8424   16.6444 O   0  0  0  0  0  0  0  0  0  0  0  0
    8.3248  -13.3263   17.8451 C   0  0  0  0  0  0  0  0  0  0  0  0
    7.9314  -14.6330   17.9679 C   0  0  0  0  0  0  0  0  0  0  0  0
    7.4528  -15.1338   19.1821 C   0  0  0  0  0  0  0  0  0  0  0  0
    7.3830  -14.2830   20.2628 C   0  0  0  0  0  0  0  0  0  0  0  0
    6.8761  -14.8135   21.5470 C   0  0  0  0  0  0  0  0  0  0  0  0
    7.9602  -14.5372   22.5903 C   0  0  2  0  0  0  0  0  0  0  0  0
    9.1929  -14.3380   21.8889 N   0  0  0  0  0  0  0  0  0  0  0  0
    8.0166  -15.7332   23.4750 C   0  0  0  0  0  0  0  0  0  0  0  0
    6.9930  -16.1281   24.0838 O   0  0  0  0  0  0  0  0  0  0  0  0
    7.7691  -12.9751   20.1679 C   0  0  0  0  0  0  0  0  0  0  0  0
    8.2440  -12.5064   18.9353 C   0  0  0  0  0  0  0  0  0  0  0  0
   12.1903  -19.9197   23.9801 N   0  0  0  0  0  0  0  0  0  0  0  0
   10.8175  -19.6625   24.3061 C   0  0  0  0  0  0  0  0  0  0  0  0
   10.2550  -20.4435   25.0775 O   0  0  0  0  0  0  0  0  0  0  0  0
   10.2055  -18.5100   23.7046 C   0  0  0  0  0  0  0  0  0  0  0  0
    9.4256  -17.5509   24.5577 C   0  0  2  0  0  0  0  0  0  0  0  0
    9.2446  -16.4020   23.6063 N   0  0  0  0  0  0  0  0  0  0  0  0
   10.1629  -16.9563   25.6767 C   0  0  0  0  0  0  0  0  0  0  0  0
   10.6556  -17.7286   26.5766 O   0  0  0  0  0  0  0  0  0  0  0  0
    9.7825  -13.3179   28.8426 C   0  0  0  0  0  0  0  0  0  0  0  0
    9.4777  -14.0828   27.5726 C   0  0  1  0  0  0  0  0  0  0  0  0
    9.3823  -13.0813   26.4436 C   0  0  0  0  0  0  0  0  0  0  0  0
   10.5745  -15.0558   27.2502 C   0  0  2  0  0  0  0  0  0  0  0  0
   10.4077  -15.5858   25.8873 N   0  0  0  0  0  0  0  0  0  0  0  0
   10.5135  -16.1999   28.1778 C   0  0  0  0  0  0  0  0  0  0  0  0
   11.4572  -16.3528   29.2099 O   0  0  0  0  0  0  0  0  0  0  0  0
    9.6093  -17.0548   28.0510 O   0  0  0  0  0  0  0  0  0  0  0  0
  2  1  1  0
  2 12  2  0
  3  2  1  0
  4  3  2  0
  4  5  1  0
  5 11  2  0
  6  5  1  0
  7  9  1  0
  7  6  1  0
  7  8  1  6
  9 18  1  0
 10  9  2  0
 11 12  1  0
 14 13  1  0
 15 14  2  0
 16 14  1  0
 17 16  1  6
 18 17  1  0
 19 17  1  0
 20 19  2  0
 22 21  1  1
 22 23  1  0
 22 24  1  0
 24 26  1  0
 24 25  1  6
 25 19  1  0
 26 27  1  0
 28 26  2  0
M  END
$$$$
