YNV.pdb
     RDKit          3D

 28 28  0  0  1  0  0  0  0  0999 V2000
    7.9608  -11.9060   17.1059 O   0  0  0  0  0  0  0  0  0  0  0  0
    7.8951  -12.6430   18.2675 C   0  0  0  0  0  0  0  0  0  0  0  0
    6.7560  -13.3291   18.5983 C   0  0  0  0  0  0  0  0  0  0  0  0
    6.6792  -14.0799   19.7748 C   0  0  0  0  0  0  0  0  0  0  0  0
    7.7784  -14.1186   20.6035 C   0  0  0  0  0  0  0  0  0  0  0  0
    7.6961  -14.9129   21.8484 C   0  0  0  0  0  0  0  0  0  0  0  0
    8.3216  -16.2741   21.5383 C   0  0  2  0  0  0  0  0  0  0  0  0
    7.4411  -16.9585   20.6396 N   0  0  0  0  0  0  0  0  0  0  0  0
    8.4500  -16.9911   22.8367 C   0  0  0  0  0  0  0  0  0  0  0  0
    7.4353  -17.4356   23.4257 O   0  0  0  0  0  0  0  0  0  0  0  0
    8.9272  -13.4437   20.2976 C   0  0  0  0  0  0  0  0  0  0  0  0
    8.9695  -12.7007   19.1099 C   0  0  0  0  0  0  0  0  0  0  0  0
   11.0920  -19.5453   26.6680 N   0  0  0  0  0  0  0  0  0  0  0  0
   11.6731  -19.5985   25.3578 C   0  0  0  0  0  0  0  0  0  0  0  0
   12.6638  -20.3158   25.1983 O   0  0  0  0  0  0  0  0  0  0  0  0
   11.0511  -18.8077   24.3320 C   0  0  0  0  0  0  0  0  0  0  0  0
    9.9611  -17.8405   24.6959 C   0  0  2  0  0  0  0  0  0  0  0  0
    9.7355  -17.1532   23.3789 N   0  0  0  0  0  0  0  0  0  0  0  0
   10.3574  -16.7478   25.5892 C   0  0  0  0  0  0  0  0  0  0  0  0
   11.3022  -15.9584   25.2242 O   0  0  0  0  0  0  0  0  0  0  0  0
    9.7700  -13.1510   28.7107 C   0  0  0  0  0  0  0  0  0  0  0  0
    9.2816  -14.2624   27.8067 C   0  0  1  0  0  0  0  0  0  0  0  0
    9.0073  -13.6620   26.4461 C   0  0  0  0  0  0  0  0  0  0  0  0
   10.3242  -15.3310   27.6505 C   0  0  2  0  0  0  0  0  0  0  0  0
    9.8003  -16.4472   26.8470 N   0  0  0  0  0  0  0  0  0  0  0  0
   10.6843  -15.8722   28.9736 C   0  0  0  0  0  0  0  0  0  0  0  0
   11.6159  -15.2178   29.8001 O   0  0  0  0  0  0  0  0  0  0  0  0
   10.1564  -16.9325   29.3756 O   0  0  0  0  0  0  0  0  0  0  0  0
  2  1  1  0
  2 12  2  0
  3  2  1  0
  4  3  2  0
  4  5  1  0
  5 11  2  0
  6  5  1  0
  7  9  1  0
  7  6  1  0
  7  8  1  6
  9 18  1  0
 10  9  2  0
 11 12  1  0
 14 13  1  0
 15 14  2  0
 16 14  1  0
 17 16  1  6
 18 17  1  0
 19 17  1  0
 20 19  2  0
 22 21  1  1
 22 23  1  0
 22 24  1  0
 24 26  1  0
 24 25  1  6
 25 19  1  0
 26 27  1  0
 28 26  2  0
M  END
$$$$
