IMV.pdb
     RDKit          3D

 24 23  0  0  1  0  0  0  0  0999 V2000
    6.2142  -22.8770   25.7513 C   0  0  0  0  0  0  0  0  0  0  0  0
    5.4741  -21.7301   25.1499 C   0  0  0  0  0  0  0  0  0  0  0  0
    6.3769  -20.6626   24.5683 C   0  0  2  0  0  0  0  0  0  0  0  0
    7.3739  -20.2947   25.6399 C   0  0  0  0  0  0  0  0  0  0  0  0
    5.5664  -19.4776   24.1109 C   0  0  2  0  0  0  0  0  0  0  0  0
    4.6878  -19.7980   23.0179 N   0  0  0  0  0  0  0  0  0  0  0  0
    6.3585  -18.2904   23.8239 C   0  0  0  0  0  0  0  0  0  0  0  0
    6.9907  -18.1285   22.7486 O   0  0  0  0  0  0  0  0  0  0  0  0
    6.8235  -12.8801   27.9067 C   0  0  0  0  0  0  0  0  0  0  0  0
    6.9178  -12.3027   26.1890 S   0  0  0  0  0  0  0  0  0  0  0  0
    7.5259  -13.6422   25.1335 C   0  0  0  0  0  0  0  0  0  0  0  0
    6.7075  -14.8873   25.3973 C   0  0  0  0  0  0  0  0  0  0  0  0
    7.1904  -16.0403   24.5424 C   0  0  2  0  0  0  0  0  0  0  0  0
    6.4415  -17.2456   24.7853 N   0  0  0  0  0  0  0  0  0  0  0  0
    8.6323  -16.2801   24.6954 C   0  0  0  0  0  0  0  0  0  0  0  0
    9.0200  -16.9435   25.7070 O   0  0  0  0  0  0  0  0  0  0  0  0
   13.0460  -16.4841   22.5383 C   0  0  0  0  0  0  0  0  0  0  0  0
   11.6096  -15.9925   22.5170 C   0  0  1  0  0  0  0  0  0  0  0  0
   10.8476  -16.6161   21.3676 C   0  0  0  0  0  0  0  0  0  0  0  0
   10.9438  -16.3075   23.8489 C   0  0  2  0  0  0  0  0  0  0  0  0
    9.6045  -15.8128   23.7787 N   0  0  0  0  0  0  0  0  0  0  0  0
   11.7104  -15.7585   24.9827 C   0  0  0  0  0  0  0  0  0  0  0  0
   12.7474  -16.4993   25.5190 O   0  0  0  0  0  0  0  0  0  0  0  0
   11.4510  -14.6374   25.4778 O   0  0  0  0  0  0  0  0  0  0  0  0
  2  1  1  0
  3  2  1  0
  3  4  1  1
  5  6  1  6
  5  3  1  0
  7  5  1  0
  8  7  2  0
 10  9  1  0
 11 10  1  0
 12 11  1  0
 13 12  1  1
 13 14  1  0
 14  7  1  0
 15 13  1  0
 15 16  2  0
 18 17  1  1
 18 20  1  0
 19 18  1  0
 20 21  1  6
 21 15  1  0
 22 20  1  0
 23 22  1  0
 24 22  2  0
M  END
$$$$
