IMV.pdb
     RDKit          3D

 24 23  0  0  1  0  0  0  0  0999 V2000
    6.3597  -21.0899   27.9712 C   0  0  0  0  0  0  0  0  0  0  0  0
    6.0497  -20.5780   26.6050 C   0  0  0  0  0  0  0  0  0  0  0  0
    7.1206  -19.6690   26.0395 C   0  0  2  0  0  0  0  0  0  0  0  0
    7.3131  -18.5445   27.0275 C   0  0  0  0  0  0  0  0  0  0  0  0
    6.7221  -19.1689   24.6752 C   0  0  2  0  0  0  0  0  0  0  0  0
    6.3413  -20.2336   23.7860 N   0  0  0  0  0  0  0  0  0  0  0  0
    7.7001  -18.2857   24.0565 C   0  0  0  0  0  0  0  0  0  0  0  0
    8.8242  -18.6795   23.6524 O   0  0  0  0  0  0  0  0  0  0  0  0
    7.7493  -12.6706   20.1256 C   0  0  0  0  0  0  0  0  0  0  0  0
    6.4706  -13.9321   20.3832 S   0  0  0  0  0  0  0  0  0  0  0  0
    7.1761  -15.3317   21.2895 C   0  0  0  0  0  0  0  0  0  0  0  0
    7.7219  -14.8377   22.6115 C   0  0  0  0  0  0  0  0  0  0  0  0
    8.3695  -15.9684   23.3831 C   0  0  2  0  0  0  0  0  0  0  0  0
    7.3999  -16.9059   23.8866 N   0  0  0  0  0  0  0  0  0  0  0  0
    9.2353  -15.4789   24.4652 C   0  0  0  0  0  0  0  0  0  0  0  0
   10.3932  -15.0584   24.1550 O   0  0  0  0  0  0  0  0  0  0  0  0
   10.0344  -13.3634   28.6637 C   0  0  0  0  0  0  0  0  0  0  0  0
    9.0657  -13.9437   27.6486 C   0  0  1  0  0  0  0  0  0  0  0  0
    8.5007  -12.8534   26.7640 C   0  0  0  0  0  0  0  0  0  0  0  0
    9.7724  -15.0077   26.8209 C   0  0  2  0  0  0  0  0  0  0  0  0
    8.8471  -15.4522   25.8262 N   0  0  0  0  0  0  0  0  0  0  0  0
   10.2895  -16.0994   27.6667 C   0  0  0  0  0  0  0  0  0  0  0  0
   11.2744  -15.8245   28.5974 O   0  0  0  0  0  0  0  0  0  0  0  0
    9.8630  -17.2732   27.5687 O   0  0  0  0  0  0  0  0  0  0  0  0
  2  1  1  0
  3  2  1  0
  3  4  1  1
  5  6  1  6
  5  3  1  0
  7  5  1  0
  8  7  2  0
 10  9  1  0
 11 10  1  0
 12 11  1  0
 13 12  1  1
 13 14  1  0
 14  7  1  0
 15 13  1  0
 15 16  2  0
 18 17  1  1
 18 20  1  0
 19 18  1  0
 20 21  1  6
 21 15  1  0
 22 20  1  0
 23 22  1  0
 24 22  2  0
M  END
$$$$
