IMV.pdb
     RDKit          3D

 24 23  0  0  1  0  0  0  0  0999 V2000
    8.1103  -22.2844   25.3051 C   0  0  0  0  0  0  0  0  0  0  0  0
    7.1154  -21.2349   24.9399 C   0  0  0  0  0  0  0  0  0  0  0  0
    7.7419  -19.9079   24.5662 C   0  0  2  0  0  0  0  0  0  0  0  0
    8.5916  -19.4750   25.7360 C   0  0  0  0  0  0  0  0  0  0  0  0
    6.6763  -18.8973   24.2292 C   0  0  2  0  0  0  0  0  0  0  0  0
    5.7960  -19.3500   23.1854 N   0  0  0  0  0  0  0  0  0  0  0  0
    7.1885  -17.5637   23.9495 C   0  0  0  0  0  0  0  0  0  0  0  0
    7.9228  -17.3017   22.9624 O   0  0  0  0  0  0  0  0  0  0  0  0
    5.6797  -11.8656   27.4534 C   0  0  0  0  0  0  0  0  0  0  0  0
    5.9909  -11.4766   25.7085 S   0  0  0  0  0  0  0  0  0  0  0  0
    7.1043  -12.7172   25.0018 C   0  0  0  0  0  0  0  0  0  0  0  0
    6.5198  -14.0933   25.2348 C   0  0  0  0  0  0  0  0  0  0  0  0
    7.4047  -15.1636   24.6309 C   0  0  2  0  0  0  0  0  0  0  0  0
    6.8609  -16.4838   24.8151 N   0  0  0  0  0  0  0  0  0  0  0  0
    8.7849  -15.0915   25.1310 C   0  0  0  0  0  0  0  0  0  0  0  0
    9.6668  -14.5860   24.3693 O   0  0  0  0  0  0  0  0  0  0  0  0
   10.2601  -13.2439   27.7757 C   0  0  0  0  0  0  0  0  0  0  0  0
   10.6391  -14.6845   28.0700 C   0  0  1  0  0  0  0  0  0  0  0  0
    9.7462  -15.2635   29.1461 C   0  0  0  0  0  0  0  0  0  0  0  0
   10.5555  -15.5046   26.7906 C   0  0  2  0  0  0  0  0  0  0  0  0
    9.1786  -15.5534   26.4098 N   0  0  0  0  0  0  0  0  0  0  0  0
   11.1623  -16.8379   26.9594 C   0  0  0  0  0  0  0  0  0  0  0  0
   10.3862  -17.9641   26.7565 O   0  0  0  0  0  0  0  0  0  0  0  0
   12.3639  -16.9837   27.2821 O   0  0  0  0  0  0  0  0  0  0  0  0
  2  1  1  0
  3  2  1  0
  3  4  1  1
  5  6  1  6
  5  3  1  0
  7  5  1  0
  8  7  2  0
 10  9  1  0
 11 10  1  0
 12 11  1  0
 13 12  1  1
 13 14  1  0
 14  7  1  0
 15 13  1  0
 15 16  2  0
 18 17  1  6
 18 20  1  0
 19 18  1  0
 20 21  1  1
 21 15  1  0
 22 20  1  0
 23 22  1  0
 24 22  2  0
M  END
$$$$
