IMV.pdb
     RDKit          3D

 24 23  0  0  1  0  0  0  0  0999 V2000
    5.8239  -23.1076   23.9794 C   0  0  0  0  0  0  0  0  0  0  0  0
    5.1388  -21.7842   24.0421 C   0  0  0  0  0  0  0  0  0  0  0  0
    6.0309  -20.6200   23.6658 C   0  0  2  0  0  0  0  0  0  0  0  0
    7.2253  -20.6622   24.5873 C   0  0  0  0  0  0  0  0  0  0  0  0
    5.2750  -19.3207   23.7694 C   0  0  2  0  0  0  0  0  0  0  0  0
    4.1494  -19.2636   22.8755 N   0  0  0  0  0  0  0  0  0  0  0  0
    6.1106  -18.1350   23.6460 C   0  0  0  0  0  0  0  0  0  0  0  0
    6.6761  -17.8003   22.5735 O   0  0  0  0  0  0  0  0  0  0  0  0
    5.6047  -12.0964   26.6470 C   0  0  0  0  0  0  0  0  0  0  0  0
    7.2832  -12.7158   26.9499 S   0  0  0  0  0  0  0  0  0  0  0  0
    7.7312  -13.9039   25.6592 C   0  0  0  0  0  0  0  0  0  0  0  0
    6.8449  -15.1241   25.7837 C   0  0  0  0  0  0  0  0  0  0  0  0
    7.1924  -16.1523   24.7276 C   0  0  2  0  0  0  0  0  0  0  0  0
    6.3170  -17.2942   24.7745 N   0  0  0  0  0  0  0  0  0  0  0  0
    8.6002  -16.5685   24.7988 C   0  0  0  0  0  0  0  0  0  0  0  0
    8.9237  -17.4195   25.6846 O   0  0  0  0  0  0  0  0  0  0  0  0
   10.6096  -17.1981   21.5721 C   0  0  0  0  0  0  0  0  0  0  0  0
   11.5085  -16.4999   22.5771 C   0  0  1  0  0  0  0  0  0  0  0  0
   11.6918  -15.0432   22.2095 C   0  0  0  0  0  0  0  0  0  0  0  0
   10.9180  -16.6412   23.9728 C   0  0  2  0  0  0  0  0  0  0  0  0
    9.6069  -16.0729   23.9359 N   0  0  0  0  0  0  0  0  0  0  0  0
   11.7894  -16.0333   24.9954 C   0  0  0  0  0  0  0  0  0  0  0  0
   13.0539  -16.5534   25.2014 O   0  0  0  0  0  0  0  0  0  0  0  0
   11.4191  -15.0564   25.6865 O   0  0  0  0  0  0  0  0  0  0  0  0
  2  1  1  0
  3  2  1  0
  3  4  1  1
  5  6  1  6
  5  3  1  0
  7  5  1  0
  8  7  2  0
 10  9  1  0
 11 10  1  0
 12 11  1  0
 13 12  1  1
 13 14  1  0
 14  7  1  0
 15 13  1  0
 15 16  2  0
 18 17  1  6
 18 20  1  0
 19 18  1  0
 20 21  1  6
 21 15  1  0
 22 20  1  0
 23 22  1  0
 24 22  2  0
M  END
$$$$
