IMV.pdb
     RDKit          3D

 24 23  0  0  1  0  0  0  0  0999 V2000
    6.5793  -18.0921   18.1555 C   0  0  0  0  0  0  0  0  0  0  0  0
    6.7589  -16.6661   18.5543 C   0  0  0  0  0  0  0  0  0  0  0  0
    7.5551  -16.4879   19.8300 C   0  0  2  0  0  0  0  0  0  0  0  0
    6.8934  -17.3383   20.8867 C   0  0  0  0  0  0  0  0  0  0  0  0
    7.6099  -15.0333   20.2191 C   0  0  2  0  0  0  0  0  0  0  0  0
    8.1224  -14.1986   19.1655 N   0  0  0  0  0  0  0  0  0  0  0  0
    8.2962  -14.7798   21.4776 C   0  0  0  0  0  0  0  0  0  0  0  0
    9.5489  -14.7804   21.5904 O   0  0  0  0  0  0  0  0  0  0  0  0
    5.7322  -11.4179   26.2205 C   0  0  0  0  0  0  0  0  0  0  0  0
    7.0013  -12.2163   27.2425 S   0  0  0  0  0  0  0  0  0  0  0  0
    7.9822  -13.3419   26.2184 C   0  0  0  0  0  0  0  0  0  0  0  0
    7.3440  -13.4458   24.8504 C   0  0  0  0  0  0  0  0  0  0  0  0
    8.1669  -14.3311   23.9379 C   0  0  2  0  0  0  0  0  0  0  0  0
    7.5421  -14.5155   22.6541 N   0  0  0  0  0  0  0  0  0  0  0  0
    8.4835  -15.6260   24.5569 C   0  0  0  0  0  0  0  0  0  0  0  0
    7.5314  -16.4479   24.7344 O   0  0  0  0  0  0  0  0  0  0  0  0
   12.3370  -16.9730   24.6300 C   0  0  0  0  0  0  0  0  0  0  0  0
   11.1498  -17.9196   24.6361 C   0  0  1  0  0  0  0  0  0  0  0  0
   11.5513  -19.2780   25.1691 C   0  0  0  0  0  0  0  0  0  0  0  0
   10.0235  -17.3184   25.4646 C   0  0  2  0  0  0  0  0  0  0  0  0
    9.7868  -16.0012   24.9624 N   0  0  0  0  0  0  0  0  0  0  0  0
   10.3344  -17.3467   26.9058 C   0  0  0  0  0  0  0  0  0  0  0  0
   10.3223  -18.5560   27.5760 O   0  0  0  0  0  0  0  0  0  0  0  0
   10.6106  -16.3055   27.5452 O   0  0  0  0  0  0  0  0  0  0  0  0
  2  1  1  0
  3  2  1  0
  3  4  1  1
  5  6  1  6
  5  3  1  0
  7  5  1  0
  8  7  2  0
 10  9  1  0
 11 10  1  0
 12 11  1  0
 13 12  1  1
 13 14  1  0
 14  7  1  0
 15 13  1  0
 15 16  2  0
 18 17  1  1
 18 20  1  0
 19 18  1  0
 20 21  1  6
 21 15  1  0
 22 20  1  0
 23 22  1  0
 24 22  2  0
M  END
$$$$
