IMV.pdb
     RDKit          3D

 24 23  0  0  1  0  0  0  0  0999 V2000
    7.5162  -19.5874   18.7698 C   0  0  0  0  0  0  0  0  0  0  0  0
    7.5543  -18.1107   18.9762 C   0  0  0  0  0  0  0  0  0  0  0  0
    8.1803  -17.6973   20.2916 C   0  0  2  0  0  0  0  0  0  0  0  0
    7.3811  -18.3574   21.3885 C   0  0  0  0  0  0  0  0  0  0  0  0
    8.1958  -16.1961   20.4201 C   0  0  2  0  0  0  0  0  0  0  0  0
    8.8863  -15.5557   19.3328 N   0  0  0  0  0  0  0  0  0  0  0  0
    8.6730  -15.7144   21.7082 C   0  0  0  0  0  0  0  0  0  0  0  0
    9.8729  -15.8041   22.0748 O   0  0  0  0  0  0  0  0  0  0  0  0
    7.0396  -11.4312   28.1656 C   0  0  0  0  0  0  0  0  0  0  0  0
    6.5011  -11.9765   26.5208 S   0  0  0  0  0  0  0  0  0  0  0  0
    7.6349  -13.2460   25.9036 C   0  0  0  0  0  0  0  0  0  0  0  0
    7.2181  -13.6399   24.5033 C   0  0  0  0  0  0  0  0  0  0  0  0
    8.1707  -14.6661   23.9264 C   0  0  2  0  0  0  0  0  0  0  0  0
    7.7634  -15.1084   22.6184 N   0  0  0  0  0  0  0  0  0  0  0  0
    8.3684  -15.8100   24.8279 C   0  0  0  0  0  0  0  0  0  0  0  0
    7.3489  -16.4965   25.1483 O   0  0  0  0  0  0  0  0  0  0  0  0
   10.4075  -18.6009   24.1344 C   0  0  0  0  0  0  0  0  0  0  0  0
   10.8111  -18.2342   25.5515 C   0  0  1  0  0  0  0  0  0  0  0  0
   12.1592  -17.5464   25.5629 C   0  0  0  0  0  0  0  0  0  0  0  0
    9.7405  -17.3488   26.1730 C   0  0  2  0  0  0  0  0  0  0  0  0
    9.6288  -16.1831   25.3533 N   0  0  0  0  0  0  0  0  0  0  0  0
   10.0398  -17.0436   27.5843 C   0  0  0  0  0  0  0  0  0  0  0  0
   10.2807  -15.7338   27.9560 O   0  0  0  0  0  0  0  0  0  0  0  0
   10.0830  -17.9371   28.4613 O   0  0  0  0  0  0  0  0  0  0  0  0
  2  1  1  0
  3  2  1  0
  3  4  1  1
  5  6  1  6
  5  3  1  0
  7  5  1  0
  8  7  2  0
 10  9  1  0
 11 10  1  0
 12 11  1  0
 13 12  1  1
 13 14  1  0
 14  7  1  0
 15 13  1  0
 15 16  2  0
 18 17  1  6
 18 20  1  0
 19 18  1  0
 20 21  1  6
 21 15  1  0
 22 20  1  0
 23 22  1  0
 24 22  2  0
M  END
$$$$
