IMV.pdb
     RDKit          3D

 24 23  0  0  1  0  0  0  0  0999 V2000
    2.4825  -17.1102   21.2124 C   0  0  0  0  0  0  0  0  0  0  0  0
    3.4234  -18.2676   21.2189 C   0  0  0  0  0  0  0  0  0  0  0  0
    4.8821  -17.8647   21.1667 C   0  0  2  0  0  0  0  0  0  0  0  0
    5.4672  -18.4826   19.9203 C   0  0  0  0  0  0  0  0  0  0  0  0
    5.5979  -18.3106   22.4154 C   0  0  2  0  0  0  0  0  0  0  0  0
    4.6922  -18.7298   23.4514 N   0  0  0  0  0  0  0  0  0  0  0  0
    6.5706  -17.3513   22.9180 C   0  0  0  0  0  0  0  0  0  0  0  0
    7.5525  -16.9490   22.2426 O   0  0  0  0  0  0  0  0  0  0  0  0
    6.2981  -11.5964   26.2437 C   0  0  0  0  0  0  0  0  0  0  0  0
    7.1190  -12.7739   27.3539 S   0  0  0  0  0  0  0  0  0  0  0  0
    7.9007  -14.0822   26.3764 C   0  0  0  0  0  0  0  0  0  0  0  0
    6.8230  -14.9203   25.7239 C   0  0  0  0  0  0  0  0  0  0  0  0
    7.4320  -15.9768   24.8260 C   0  0  2  0  0  0  0  0  0  0  0  0
    6.4319  -16.8252   24.2321 N   0  0  0  0  0  0  0  0  0  0  0  0
    8.4515  -16.7762   25.5201 C   0  0  0  0  0  0  0  0  0  0  0  0
    8.0545  -17.6781   26.3217 O   0  0  0  0  0  0  0  0  0  0  0  0
   11.3786  -18.1806   23.6392 C   0  0  0  0  0  0  0  0  0  0  0  0
   11.9167  -17.6941   24.9731 C   0  0  1  0  0  0  0  0  0  0  0  0
   12.6984  -16.4100   24.7985 C   0  0  0  0  0  0  0  0  0  0  0  0
   10.7638  -17.5038   25.9484 C   0  0  2  0  0  0  0  0  0  0  0  0
    9.8438  -16.5934   25.3417 N   0  0  0  0  0  0  0  0  0  0  0  0
   11.2393  -17.0586   27.2713 C   0  0  0  0  0  0  0  0  0  0  0  0
   12.0403  -17.9010   28.0201 O   0  0  0  0  0  0  0  0  0  0  0  0
   10.9395  -15.9366   27.7407 O   0  0  0  0  0  0  0  0  0  0  0  0
  2  1  1  0
  3  2  1  0
  3  4  1  6
  5  6  1  1
  5  3  1  0
  7  5  1  0
  8  7  2  0
 10  9  1  0
 11 10  1  0
 12 11  1  0
 13 12  1  1
 13 14  1  0
 14  7  1  0
 15 13  1  0
 15 16  2  0
 18 17  1  6
 18 20  1  0
 19 18  1  0
 20 21  1  6
 21 15  1  0
 22 20  1  0
 23 22  1  0
 24 22  2  0
M  END
$$$$
