IMV.pdb
     RDKit          3D

 24 23  0  0  1  0  0  0  0  0999 V2000
    4.4525  -17.5790   20.5286 C   0  0  0  0  0  0  0  0  0  0  0  0
    5.1886  -17.5286   21.8249 C   0  0  0  0  0  0  0  0  0  0  0  0
    6.3011  -18.5503   21.9317 C   0  0  2  0  0  0  0  0  0  0  0  0
    5.6618  -19.9131   21.8234 C   0  0  0  0  0  0  0  0  0  0  0  0
    7.0567  -18.3747   23.2235 C   0  0  2  0  0  0  0  0  0  0  0  0
    6.2106  -18.5011   24.3800 N   0  0  0  0  0  0  0  0  0  0  0  0
    7.8585  -17.1612   23.2832 C   0  0  0  0  0  0  0  0  0  0  0  0
    8.7788  -16.9035   22.4655 O   0  0  0  0  0  0  0  0  0  0  0  0
    5.6694  -12.1582   26.4362 C   0  0  0  0  0  0  0  0  0  0  0  0
    5.5284  -12.2158   24.6280 S   0  0  0  0  0  0  0  0  0  0  0  0
    6.5195  -13.5892   23.9878 C   0  0  0  0  0  0  0  0  0  0  0  0
    7.6875  -13.8299   24.9192 C   0  0  0  0  0  0  0  0  0  0  0  0
    8.4673  -15.0581   24.4989 C   0  0  2  0  0  0  0  0  0  0  0  0
    7.6140  -16.2010   24.3037 N   0  0  0  0  0  0  0  0  0  0  0  0
    9.5569  -15.3719   25.4340 C   0  0  0  0  0  0  0  0  0  0  0  0
   10.7314  -15.0009   25.1233 O   0  0  0  0  0  0  0  0  0  0  0  0
   11.2460  -15.4100   29.7959 C   0  0  0  0  0  0  0  0  0  0  0  0
   10.0875  -15.3838   28.8147 C   0  0  1  0  0  0  0  0  0  0  0  0
    9.7281  -13.9599   28.4491 C   0  0  0  0  0  0  0  0  0  0  0  0
   10.4505  -16.1910   27.5765 C   0  0  2  0  0  0  0  0  0  0  0  0
    9.3653  -16.0617   26.6552 N   0  0  0  0  0  0  0  0  0  0  0  0
   10.7660  -17.5914   27.9142 C   0  0  0  0  0  0  0  0  0  0  0  0
   12.0795  -17.9485   28.1569 O   0  0  0  0  0  0  0  0  0  0  0  0
    9.8780  -18.4718   27.9887 O   0  0  0  0  0  0  0  0  0  0  0  0
  2  1  1  0
  3  2  1  0
  3  4  1  1
  5  6  1  1
  5  3  1  0
  7  5  1  0
  8  7  2  0
 10  9  1  0
 11 10  1  0
 12 11  1  0
 13 12  1  1
 13 14  1  0
 14  7  1  0
 15 13  1  0
 15 16  2  0
 18 17  1  1
 18 20  1  0
 19 18  1  0
 20 21  1  6
 21 15  1  0
 22 20  1  0
 23 22  1  0
 24 22  2  0
M  END
$$$$
