IMV.pdb
     RDKit          3D

 24 23  0  0  1  0  0  0  0  0999 V2000
   11.6686  -19.7305   19.5420 C   0  0  0  0  0  0  0  0  0  0  0  0
   10.5926  -18.7087   19.6932 C   0  0  0  0  0  0  0  0  0  0  0  0
   10.7957  -17.7830   20.8741 C   0  0  2  0  0  0  0  0  0  0  0  0
   10.9543  -18.6538   22.0965 C   0  0  0  0  0  0  0  0  0  0  0  0
    9.6382  -16.8266   21.0003 C   0  0  2  0  0  0  0  0  0  0  0  0
    9.4420  -16.0372   19.8139 N   0  0  0  0  0  0  0  0  0  0  0  0
    9.6845  -15.9909   22.1914 C   0  0  0  0  0  0  0  0  0  0  0  0
   10.6834  -15.2937   22.5044 O   0  0  0  0  0  0  0  0  0  0  0  0
    5.7659  -11.2588   26.0206 C   0  0  0  0  0  0  0  0  0  0  0  0
    5.5307  -13.0573   26.0736 S   0  0  0  0  0  0  0  0  0  0  0  0
    7.1321  -13.8821   25.8913 C   0  0  0  0  0  0  0  0  0  0  0  0
    7.1330  -14.6770   24.6037 C   0  0  0  0  0  0  0  0  0  0  0  0
    8.5393  -15.0980   24.2317 C   0  0  2  0  0  0  0  0  0  0  0  0
    8.5620  -15.9387   23.0633 N   0  0  0  0  0  0  0  0  0  0  0  0
    9.2424  -15.7393   25.3518 C   0  0  0  0  0  0  0  0  0  0  0  0
    9.2554  -17.0088   25.3959 O   0  0  0  0  0  0  0  0  0  0  0  0
    9.7789  -13.9262   28.9301 C   0  0  0  0  0  0  0  0  0  0  0  0
   10.9994  -14.6969   28.4590 C   0  0  1  0  0  0  0  0  0  0  0  0
   11.6975  -15.3594   29.6269 C   0  0  0  0  0  0  0  0  0  0  0  0
   10.5816  -15.7250   27.4173 C   0  0  2  0  0  0  0  0  0  0  0  0
    9.9014  -15.0191   26.3768 N   0  0  0  0  0  0  0  0  0  0  0  0
    9.7748  -16.8057   28.0137 C   0  0  0  0  0  0  0  0  0  0  0  0
   10.4147  -17.8911   28.5830 O   0  0  0  0  0  0  0  0  0  0  0  0
    8.5226  -16.7717   28.0212 O   0  0  0  0  0  0  0  0  0  0  0  0
  2  1  1  0
  3  2  1  0
  3  4  1  1
  5  6  1  6
  5  3  1  0
  7  5  1  0
  8  7  2  0
 10  9  1  0
 11 10  1  0
 12 11  1  0
 13 12  1  1
 13 14  1  0
 14  7  1  0
 15 13  1  0
 15 16  2  0
 18 17  1  1
 18 20  1  0
 19 18  1  0
 20 21  1  6
 21 15  1  0
 22 20  1  0
 23 22  1  0
 24 22  2  0
M  END
$$$$
