IMV.pdb
     RDKit          3D

 24 23  0  0  1  0  0  0  0  0999 V2000
    6.9999  -18.2335   17.9189 C   0  0  0  0  0  0  0  0  0  0  0  0
    7.1612  -16.8245   18.3806 C   0  0  0  0  0  0  0  0  0  0  0  0
    7.7985  -16.7028   19.7488 C   0  0  2  0  0  0  0  0  0  0  0  0
    6.9506  -17.5060   20.7047 C   0  0  0  0  0  0  0  0  0  0  0  0
    7.9031  -15.2557   20.1556 C   0  0  2  0  0  0  0  0  0  0  0  0
    8.5936  -14.4560   19.1794 N   0  0  0  0  0  0  0  0  0  0  0  0
    8.4480  -15.0510   21.4899 C   0  0  0  0  0  0  0  0  0  0  0  0
    9.6648  -15.2069   21.7676 O   0  0  0  0  0  0  0  0  0  0  0  0
    6.2620  -10.8344   26.0902 C   0  0  0  0  0  0  0  0  0  0  0  0
    6.5383  -12.3505   27.0482 S   0  0  0  0  0  0  0  0  0  0  0  0
    7.6481  -13.4501   26.1331 C   0  0  0  0  0  0  0  0  0  0  0  0
    7.1393  -13.5948   24.7154 C   0  0  0  0  0  0  0  0  0  0  0  0
    8.0716  -14.4608   23.8944 C   0  0  2  0  0  0  0  0  0  0  0  0
    7.5889  -14.6554   22.5521 N   0  0  0  0  0  0  0  0  0  0  0  0
    8.3486  -15.7502   24.5432 C   0  0  0  0  0  0  0  0  0  0  0  0
    7.3878  -16.5723   24.6647 O   0  0  0  0  0  0  0  0  0  0  0  0
   10.5229  -18.3068   23.4348 C   0  0  0  0  0  0  0  0  0  0  0  0
   10.9352  -18.0945   24.8806 C   0  0  1  0  0  0  0  0  0  0  0  0
   12.2145  -17.2897   24.9595 C   0  0  0  0  0  0  0  0  0  0  0  0
    9.8080  -17.4045   25.6355 C   0  0  2  0  0  0  0  0  0  0  0  0
    9.6229  -16.1201   25.0360 N   0  0  0  0  0  0  0  0  0  0  0  0
   10.0837  -17.3392   27.0827 C   0  0  0  0  0  0  0  0  0  0  0  0
   10.1806  -16.1043   27.6970 O   0  0  0  0  0  0  0  0  0  0  0  0
   10.2337  -18.3714   27.7765 O   0  0  0  0  0  0  0  0  0  0  0  0
  2  1  1  0
  3  2  1  0
  3  4  1  1
  5  6  1  6
  5  3  1  0
  7  5  1  0
  8  7  2  0
 10  9  1  0
 11 10  1  0
 12 11  1  0
 13 12  1  1
 13 14  1  0
 14  7  1  0
 15 13  1  0
 15 16  2  0
 18 17  1  6
 18 20  1  0
 19 18  1  0
 20 21  1  6
 21 15  1  0
 22 20  1  0
 23 22  1  0
 24 22  2  0
M  END
$$$$
