IMV.pdb
     RDKit          3D

 24 23  0  0  1  0  0  0  0  0999 V2000
    6.3306  -16.6267   18.9186 C   0  0  0  0  0  0  0  0  0  0  0  0
    7.5866  -17.3983   19.1460 C   0  0  0  0  0  0  0  0  0  0  0  0
    8.2113  -17.1552   20.5038 C   0  0  2  0  0  0  0  0  0  0  0  0
    7.2856  -17.7597   21.5311 C   0  0  0  0  0  0  0  0  0  0  0  0
    8.4294  -15.6813   20.7283 C   0  0  2  0  0  0  0  0  0  0  0  0
    9.1908  -15.0684   19.6728 N   0  0  0  0  0  0  0  0  0  0  0  0
    8.9776  -15.3537   22.0364 C   0  0  0  0  0  0  0  0  0  0  0  0
   10.1690  -15.5913   22.3623 O   0  0  0  0  0  0  0  0  0  0  0  0
    5.6344  -11.8571   26.4082 C   0  0  0  0  0  0  0  0  0  0  0  0
    7.2108  -12.0124   27.2934 S   0  0  0  0  0  0  0  0  0  0  0  0
    8.2220  -13.2921   26.5073 C   0  0  0  0  0  0  0  0  0  0  0  0
    7.7069  -13.5348   25.1053 C   0  0  0  0  0  0  0  0  0  0  0  0
    8.6048  -14.5012   24.3614 C   0  0  2  0  0  0  0  0  0  0  0  0
    8.1518  -14.7347   23.0150 N   0  0  0  0  0  0  0  0  0  0  0  0
    8.7757  -15.7697   25.0837 C   0  0  0  0  0  0  0  0  0  0  0  0
    7.7953  -16.5771   25.1059 O   0  0  0  0  0  0  0  0  0  0  0  0
   11.7207  -19.2957   26.5657 C   0  0  0  0  0  0  0  0  0  0  0  0
   11.3480  -18.0700   25.7507 C   0  0  1  0  0  0  0  0  0  0  0  0
   11.1521  -18.4348   24.2950 C   0  0  0  0  0  0  0  0  0  0  0  0
   10.0908  -17.4367   26.3294 C   0  0  2  0  0  0  0  0  0  0  0  0
    9.9694  -16.1351   25.7511 N   0  0  0  0  0  0  0  0  0  0  0  0
   10.1201  -17.4202   27.8037 C   0  0  0  0  0  0  0  0  0  0  0  0
    9.9934  -18.6107   28.4953 O   0  0  0  0  0  0  0  0  0  0  0  0
   10.2567  -16.3573   28.4524 O   0  0  0  0  0  0  0  0  0  0  0  0
  2  1  1  0
  3  2  1  0
  3  4  1  1
  5  6  1  6
  5  3  1  0
  7  5  1  0
  8  7  2  0
 10  9  1  0
 11 10  1  0
 12 11  1  0
 13 12  1  1
 13 14  1  0
 14  7  1  0
 15 13  1  0
 15 16  2  0
 18 17  1  1
 18 20  1  0
 19 18  1  0
 20 21  1  6
 21 15  1  0
 22 20  1  0
 23 22  1  0
 24 22  2  0
M  END
$$$$
