IMV.pdb
     RDKit          3D

 24 23  0  0  1  0  0  0  0  0999 V2000
    5.9801  -11.6166   28.1182 C   0  0  0  0  0  0  0  0  0  0  0  0
    5.5019  -12.7013   27.2130 C   0  0  0  0  0  0  0  0  0  0  0  0
    6.6191  -13.5313   26.6166 C   0  0  2  0  0  0  0  0  0  0  0  0
    7.4903  -12.5921   25.8188 C   0  0  0  0  0  0  0  0  0  0  0  0
    6.0564  -14.6449   25.7718 C   0  0  2  0  0  0  0  0  0  0  0  0
    5.2662  -15.5727   26.5360 N   0  0  0  0  0  0  0  0  0  0  0  0
    7.0485  -15.3358   24.9609 C   0  0  0  0  0  0  0  0  0  0  0  0
    7.5952  -16.4127   25.3121 O   0  0  0  0  0  0  0  0  0  0  0  0
    9.4269  -12.9204   19.1754 C   0  0  0  0  0  0  0  0  0  0  0  0
    9.6344  -14.7177   19.0363 S   0  0  0  0  0  0  0  0  0  0  0  0
    9.6148  -15.4582   20.6884 C   0  0  0  0  0  0  0  0  0  0  0  0
    8.5364  -14.7913   21.5143 C   0  0  0  0  0  0  0  0  0  0  0  0
    8.4787  -15.3860   22.9058 C   0  0  2  0  0  0  0  0  0  0  0  0
    7.4396  -14.7923   23.7061 N   0  0  0  0  0  0  0  0  0  0  0  0
    9.7750  -15.3155   23.5949 C   0  0  0  0  0  0  0  0  0  0  0  0
   10.6358  -14.4901   23.1575 O   0  0  0  0  0  0  0  0  0  0  0  0
   10.4261  -14.1677   26.8196 C   0  0  0  0  0  0  0  0  0  0  0  0
   11.0895  -15.5333   26.7989 C   0  0  1  0  0  0  0  0  0  0  0  0
   10.2211  -16.5606   27.4923 C   0  0  0  0  0  0  0  0  0  0  0  0
   11.3736  -15.9396   25.3598 C   0  0  2  0  0  0  0  0  0  0  0  0
   10.1106  -16.1151   24.7137 N   0  0  0  0  0  0  0  0  0  0  0  0
   12.2348  -17.1347   25.2927 C   0  0  0  0  0  0  0  0  0  0  0  0
   13.5299  -17.0620   25.7716 O   0  0  0  0  0  0  0  0  0  0  0  0
   11.8289  -18.2186   24.8135 O   0  0  0  0  0  0  0  0  0  0  0  0
  2  1  1  0
  3  2  1  0
  3  4  1  6
  5  6  1  1
  5  3  1  0
  7  5  1  0
  8  7  2  0
 10  9  1  0
 11 10  1  0
 12 11  1  0
 13 12  1  6
 13 14  1  0
 14  7  1  0
 15 13  1  0
 15 16  2  0
 18 17  1  6
 18 20  1  0
 19 18  1  0
 20 21  1  1
 21 15  1  0
 22 20  1  0
 23 22  1  0
 24 22  2  0
M  END
$$$$
