KMP.pdb
     RDKit          3D

 25 25  0  0  1  0  0  0  0  0999 V2000
   20.7229  -22.1776  -13.6647 N   0  0  0  0  0  0  0  0  0  0  0  0
   20.9191  -20.8583  -14.1985 C   0  0  1  0  0  0  0  0  0  0  0  0
   19.6608  -20.0590  -13.9287 C   0  0  0  0  0  0  0  0  0  0  0  0
   18.5015  -21.0024  -14.0328 C   0  0  0  0  0  0  0  0  0  0  0  0
   17.7513  -20.8787  -15.3340 C   0  0  0  0  0  0  0  0  0  0  0  0
   17.2022  -19.4455  -15.3753 C   0  0  0  0  0  0  0  0  0  0  0  0
   16.4494  -19.2304  -16.5990 N   0  0  0  0  0  0  0  0  0  0  0  0
   22.1332  -20.2026  -13.6755 C   0  0  0  0  0  0  0  0  0  0  0  0
   22.3269  -19.0084  -14.0007 O   0  0  0  0  0  0  0  0  0  0  0  0
   27.3133  -19.9096   -7.9009 C   0  0  0  0  0  0  0  0  0  0  0  0
   25.8826  -20.7251   -8.6319 S   0  0  0  0  0  0  0  0  0  0  0  0
   25.9043  -20.3547  -10.4401 C   0  0  0  0  0  0  0  0  0  0  0  0
   24.6227  -20.7938  -11.0488 C   0  0  0  0  0  0  0  0  0  0  0  0
   24.3638  -20.3985  -12.4657 C   0  0  2  0  0  0  0  0  0  0  0  0
   23.0199  -20.9163  -12.8461 N   0  0  0  0  0  0  0  0  0  0  0  0
   25.3001  -20.8835  -13.4782 C   0  0  0  0  0  0  0  0  0  0  0  0
   25.0752  -21.9999  -14.0763 O   0  0  0  0  0  0  0  0  0  0  0  0
   26.4807  -20.2272  -13.9004 N   0  0  0  0  0  0  0  0  0  0  0  0
   27.1451  -19.1137  -13.2963 C   0  0  0  0  0  0  0  0  0  0  0  0
   27.5193  -18.2359  -14.4979 C   0  0  0  0  0  0  0  0  0  0  0  0
   27.5366  -19.1687  -15.6787 C   0  0  0  0  0  0  0  0  0  0  0  0
   27.3010  -20.5429  -15.0804 C   0  0  1  0  0  0  0  0  0  0  0  0
   28.5656  -21.2040  -14.7069 C   0  0  0  0  0  0  0  0  0  0  0  0
   28.8807  -21.2650  -13.5053 O   0  0  0  0  0  0  0  0  0  0  0  0
   29.4101  -21.7570  -15.6514 O   0  0  0  0  0  0  0  0  0  0  0  0
  2  1  1  1
  2  8  1  0
  2  3  1  0
  4  3  1  0
  4  5  1  0
  6  5  1  0
  6  7  1  0
  8  9  2  0
 10 11  1  0
 11 12  1  0
 13 12  1  0
 14 13  1  1
 15 14  1  0
 15  8  1  0
 16 14  1  0
 16 17  2  0
 18 16  1  0
 19 18  1  0
 20 19  1  0
 21 20  1  0
 21 22  1  0
 22 18  1  0
 22 23  1  1
 23 25  1  0
 24 23  2  0
M  END
$$$$
