KMP.pdb
     RDKit          3D

 25 25  0  0  1  0  0  0  0  0999 V2000
   29.3550  -20.5381  -16.5174 N   0  0  0  0  0  0  0  0  0  0  0  0
   28.3740  -19.8386  -15.7350 C   0  0  1  0  0  0  0  0  0  0  0  0
   27.4349  -19.1352  -16.6932 C   0  0  0  0  0  0  0  0  0  0  0  0
   28.2583  -18.1872  -17.5106 C   0  0  0  0  0  0  0  0  0  0  0  0
   28.2306  -16.7744  -16.9867 C   0  0  0  0  0  0  0  0  0  0  0  0
   28.8337  -15.8973  -18.0931 C   0  0  0  0  0  0  0  0  0  0  0  0
   30.1543  -15.4339  -17.7037 N   0  0  0  0  0  0  0  0  0  0  0  0
   27.6651  -20.7175  -14.7850 C   0  0  0  0  0  0  0  0  0  0  0  0
   27.2686  -21.8259  -15.2137 O   0  0  0  0  0  0  0  0  0  0  0  0
   28.0531  -20.2259   -8.3879 C   0  0  0  0  0  0  0  0  0  0  0  0
   26.2649  -20.0424   -8.5105 S   0  0  0  0  0  0  0  0  0  0  0  0
   25.7449  -20.7940  -10.1142 C   0  0  0  0  0  0  0  0  0  0  0  0
   26.7554  -20.4804  -11.1564 C   0  0  0  0  0  0  0  0  0  0  0  0
   26.4843  -20.9625  -12.5438 C   0  0  2  0  0  0  0  0  0  0  0  0
   27.4575  -20.2998  -13.4562 N   0  0  0  0  0  0  0  0  0  0  0  0
   25.1545  -20.7059  -13.0942 C   0  0  0  0  0  0  0  0  0  0  0  0
   24.9041  -19.5814  -13.6667 O   0  0  0  0  0  0  0  0  0  0  0  0
   24.0595  -21.6022  -13.0734 N   0  0  0  0  0  0  0  0  0  0  0  0
   23.9982  -22.9204  -12.5213 C   0  0  0  0  0  0  0  0  0  0  0  0
   23.2329  -23.7119  -13.5901 C   0  0  0  0  0  0  0  0  0  0  0  0
   22.4594  -22.6810  -14.3671 C   0  0  0  0  0  0  0  0  0  0  0  0
   22.7163  -21.3794  -13.6312 C   0  0  1  0  0  0  0  0  0  0  0  0
   21.7170  -21.1398  -12.5730 C   0  0  0  0  0  0  0  0  0  0  0  0
   20.5742  -20.7708  -12.8970 O   0  0  0  0  0  0  0  0  0  0  0  0
   22.0123  -21.3125  -11.2336 O   0  0  0  0  0  0  0  0  0  0  0  0
  2  1  1  6
  2  8  1  0
  2  3  1  0
  4  3  1  0
  4  5  1  0
  6  5  1  0
  6  7  1  0
  8  9  2  0
 10 11  1  0
 11 12  1  0
 13 12  1  0
 14 13  1  1
 15 14  1  0
 15  8  1  0
 16 14  1  0
 16 17  2  0
 18 16  1  0
 19 18  1  0
 20 19  1  0
 21 20  1  0
 21 22  1  0
 22 18  1  0
 22 23  1  1
 23 25  1  0
 24 23  2  0
M  END
$$$$
