KMP.pdb
     RDKit          3D

 25 25  0  0  1  0  0  0  0  0999 V2000
   27.6508  -24.2229  -17.0203 N   0  0  0  0  0  0  0  0  0  0  0  0
   27.2843  -22.9107  -16.5643 C   0  0  1  0  0  0  0  0  0  0  0  0
   26.8461  -22.1078  -17.7718 C   0  0  0  0  0  0  0  0  0  0  0  0
   27.9990  -22.0741  -18.7282 C   0  0  0  0  0  0  0  0  0  0  0  0
   29.1144  -21.1649  -18.2804 C   0  0  0  0  0  0  0  0  0  0  0  0
   30.1322  -21.1404  -19.4296 C   0  0  0  0  0  0  0  0  0  0  0  0
   31.2948  -20.3541  -19.0551 N   0  0  0  0  0  0  0  0  0  0  0  0
   26.2646  -22.9381  -15.4981 C   0  0  0  0  0  0  0  0  0  0  0  0
   25.4497  -23.8897  -15.5065 O   0  0  0  0  0  0  0  0  0  0  0  0
   25.4505  -21.4607   -8.7765 C   0  0  0  0  0  0  0  0  0  0  0  0
   25.4615  -20.0123   -9.8483 S   0  0  0  0  0  0  0  0  0  0  0  0
   24.6096  -20.4836  -11.4165 C   0  0  0  0  0  0  0  0  0  0  0  0
   25.6130  -20.9784  -12.3933 C   0  0  0  0  0  0  0  0  0  0  0  0
   25.1075  -21.7577  -13.5628 C   0  0  2  0  0  0  0  0  0  0  0  0
   26.2337  -21.9216  -14.5239 N   0  0  0  0  0  0  0  0  0  0  0  0
   23.9940  -21.1858  -14.3180 C   0  0  0  0  0  0  0  0  0  0  0  0
   24.2268  -20.3560  -15.2729 O   0  0  0  0  0  0  0  0  0  0  0  0
   22.6214  -21.4614  -14.1112 N   0  0  0  0  0  0  0  0  0  0  0  0
   22.0222  -22.3154  -13.1324 C   0  0  0  0  0  0  0  0  0  0  0  0
   20.9396  -23.0550  -13.9295 C   0  0  0  0  0  0  0  0  0  0  0  0
   20.6521  -22.1753  -15.1162 C   0  0  0  0  0  0  0  0  0  0  0  0
   21.4819  -20.9284  -14.8743 C   0  0  1  0  0  0  0  0  0  0  0  0
   20.7367  -19.9125  -14.1073 C   0  0  0  0  0  0  0  0  0  0  0  0
   21.0462  -19.7081  -12.9201 O   0  0  0  0  0  0  0  0  0  0  0  0
   19.7058  -19.1816  -14.6678 O   0  0  0  0  0  0  0  0  0  0  0  0
  2  1  1  6
  2  8  1  0
  2  3  1  0
  4  3  1  0
  4  5  1  0
  6  5  1  0
  6  7  1  0
  8  9  2  0
 10 11  1  0
 11 12  1  0
 13 12  1  0
 14 13  1  1
 15 14  1  0
 15  8  1  0
 16 14  1  0
 16 17  2  0
 18 16  1  0
 19 18  1  0
 20 19  1  0
 21 20  1  0
 21 22  1  0
 22 18  1  0
 22 23  1  1
 23 25  1  0
 24 23  2  0
M  END
$$$$
