KMP.pdb
     RDKit          3D

 25 25  0  0  1  0  0  0  0  0999 V2000
   19.9470  -19.4894  -14.2696 N   0  0  0  0  0  0  0  0  0  0  0  0
   20.7965  -20.4707  -13.6537 C   0  0  1  0  0  0  0  0  0  0  0  0
   20.6445  -21.7641  -14.4275 C   0  0  0  0  0  0  0  0  0  0  0  0
   20.8593  -21.4462  -15.8757 C   0  0  0  0  0  0  0  0  0  0  0  0
   21.5995  -22.5296  -16.6172 C   0  0  0  0  0  0  0  0  0  0  0  0
   21.7790  -22.0175  -18.0534 C   0  0  0  0  0  0  0  0  0  0  0  0
   22.4991  -22.9961  -18.8498 N   0  0  0  0  0  0  0  0  0  0  0  0
   22.2011  -20.0301  -13.5512 C   0  0  0  0  0  0  0  0  0  0  0  0
   22.5234  -18.9891  -14.1693 O   0  0  0  0  0  0  0  0  0  0  0  0
   25.9286  -20.2927   -8.2192 C   0  0  0  0  0  0  0  0  0  0  0  0
   26.8441  -21.3640   -9.3420 S   0  0  0  0  0  0  0  0  0  0  0  0
   26.5029  -20.7791  -11.0591 C   0  0  0  0  0  0  0  0  0  0  0  0
   25.0602  -20.9579  -11.3634 C   0  0  0  0  0  0  0  0  0  0  0  0
   24.5532  -20.3899  -12.6483 C   0  0  2  0  0  0  0  0  0  0  0  0
   23.1193  -20.7706  -12.7819 N   0  0  0  0  0  0  0  0  0  0  0  0
   25.2158  -20.8199  -13.8784 C   0  0  0  0  0  0  0  0  0  0  0  0
   24.6767  -21.7284  -14.6125 O   0  0  0  0  0  0  0  0  0  0  0  0
   26.4404  -20.3196  -14.3812 N   0  0  0  0  0  0  0  0  0  0  0  0
   27.4066  -19.4993  -13.7178 C   0  0  0  0  0  0  0  0  0  0  0  0
   27.7919  -18.4743  -14.7927 C   0  0  0  0  0  0  0  0  0  0  0  0
   27.4441  -19.1265  -16.1036 C   0  0  0  0  0  0  0  0  0  0  0  0
   27.0021  -20.5276  -15.7251 C   0  0  1  0  0  0  0  0  0  0  0  0
   28.1331  -21.4742  -15.7051 C   0  0  0  0  0  0  0  0  0  0  0  0
   28.5385  -21.9045  -14.6108 O   0  0  0  0  0  0  0  0  0  0  0  0
   28.7556  -21.8968  -16.8649 O   0  0  0  0  0  0  0  0  0  0  0  0
  2  1  1  6
  2  8  1  0
  2  3  1  0
  4  3  1  0
  4  5  1  0
  6  5  1  0
  6  7  1  0
  8  9  2  0
 10 11  1  0
 11 12  1  0
 13 12  1  0
 14 13  1  1
 15 14  1  0
 15  8  1  0
 16 14  1  0
 16 17  2  0
 18 16  1  0
 19 18  1  0
 20 19  1  0
 21 20  1  0
 21 22  1  0
 22 18  1  0
 22 23  1  1
 23 25  1  0
 24 23  2  0
M  END
$$$$
