KMP.pdb
     RDKit          3D

 25 25  0  0  1  0  0  0  0  0999 V2000
   15.9461  -12.0627  -16.0721 N   0  0  0  0  0  0  0  0  0  0  0  0
   17.0824  -11.7330  -15.2571 C   0  0  1  0  0  0  0  0  0  0  0  0
   18.3283  -12.1505  -16.0111 C   0  0  0  0  0  0  0  0  0  0  0  0
   18.3203  -13.6464  -16.0934 C   0  0  0  0  0  0  0  0  0  0  0  0
   19.5612  -14.2115  -16.7354 C   0  0  0  0  0  0  0  0  0  0  0  0
   19.3782  -15.7358  -16.7489 C   0  0  0  0  0  0  0  0  0  0  0  0
   20.5422  -16.3769  -17.3358 N   0  0  0  0  0  0  0  0  0  0  0  0
   17.1083  -10.3130  -14.8565 C   0  0  0  0  0  0  0  0  0  0  0  0
   16.7128   -9.4717  -15.6964 O   0  0  0  0  0  0  0  0  0  0  0  0
   16.5264   -5.8892   -8.4227 C   0  0  0  0  0  0  0  0  0  0  0  0
   16.2448   -7.4074   -9.3513 S   0  0  0  0  0  0  0  0  0  0  0  0
   17.1573   -7.2512  -10.9482 C   0  0  0  0  0  0  0  0  0  0  0  0
   16.9876   -8.4981  -11.7371 C   0  0  0  0  0  0  0  0  0  0  0  0
   17.5972   -8.5373  -13.1000 C   0  0  2  0  0  0  0  0  0  0  0  0
   17.5642   -9.9489  -13.5748 N   0  0  0  0  0  0  0  0  0  0  0  0
   18.9818   -8.0861  -13.2278 C   0  0  0  0  0  0  0  0  0  0  0  0
   19.9464   -8.8970  -12.9692 O   0  0  0  0  0  0  0  0  0  0  0  0
   19.4014   -6.7959  -13.6307 N   0  0  0  0  0  0  0  0  0  0  0  0
   18.5962   -5.6661  -13.9792 C   0  0  0  0  0  0  0  0  0  0  0  0
   19.3041   -5.1009  -15.2177 C   0  0  0  0  0  0  0  0  0  0  0  0
   20.7190   -5.6057  -15.1290 C   0  0  0  0  0  0  0  0  0  0  0  0
   20.7842   -6.3198  -13.7920 C   0  0  1  0  0  0  0  0  0  0  0  0
   21.1804   -5.4093  -12.7012 C   0  0  0  0  0  0  0  0  0  0  0  0
   20.3038   -4.9698  -11.9360 O   0  0  0  0  0  0  0  0  0  0  0  0
   22.4951   -5.0301  -12.5043 O   0  0  0  0  0  0  0  0  0  0  0  0
  2  1  1  6
  2  8  1  0
  2  3  1  0
  4  3  1  0
  4  5  1  0
  6  5  1  0
  6  7  1  0
  8  9  2  0
 10 11  1  0
 11 12  1  0
 13 12  1  0
 14 13  1  1
 15 14  1  0
 15  8  1  0
 16 14  1  0
 16 17  2  0
 18 16  1  0
 19 18  1  0
 20 19  1  0
 21 20  1  0
 21 22  1  0
 22 18  1  0
 22 23  1  1
 23 25  1  0
 24 23  2  0
M  END
$$$$
