KMP.pdb
     RDKit          3D

 25 25  0  0  1  0  0  0  0  0999 V2000
   20.0670  -20.2714  -13.8246 N   0  0  0  0  0  0  0  0  0  0  0  0
   21.0876  -21.1327  -13.2952 C   0  0  1  0  0  0  0  0  0  0  0  0
   21.1146  -22.3901  -14.1397 C   0  0  0  0  0  0  0  0  0  0  0  0
   21.2046  -21.9637  -15.5731 C   0  0  0  0  0  0  0  0  0  0  0  0
   22.5680  -22.1888  -16.1743 C   0  0  0  0  0  0  0  0  0  0  0  0
   22.4606  -21.7653  -17.6462 C   0  0  0  0  0  0  0  0  0  0  0  0
   23.7570  -21.8649  -18.2941 N   0  0  0  0  0  0  0  0  0  0  0  0
   22.4059  -20.4752  -13.2105 C   0  0  0  0  0  0  0  0  0  0  0  0
   22.5768  -19.4399  -13.8950 O   0  0  0  0  0  0  0  0  0  0  0  0
   27.3426  -19.8151   -8.3965 C   0  0  0  0  0  0  0  0  0  0  0  0
   25.9203  -20.9211   -8.3775 S   0  0  0  0  0  0  0  0  0  0  0  0
   24.8302  -20.4376   -9.7864 C   0  0  0  0  0  0  0  0  0  0  0  0
   25.4236  -20.9236  -11.0582 C   0  0  0  0  0  0  0  0  0  0  0  0
   24.7942  -20.4608  -12.3312 C   0  0  2  0  0  0  0  0  0  0  0  0
   23.4118  -21.0130  -12.3846 N   0  0  0  0  0  0  0  0  0  0  0  0
   25.4470  -20.8480  -13.5806 C   0  0  0  0  0  0  0  0  0  0  0  0
   24.9931  -21.8420  -14.2593 O   0  0  0  0  0  0  0  0  0  0  0  0
   26.5736  -20.2168  -14.1598 N   0  0  0  0  0  0  0  0  0  0  0  0
   27.4689  -19.2728  -13.5653 C   0  0  0  0  0  0  0  0  0  0  0  0
   27.6693  -18.2336  -14.6763 C   0  0  0  0  0  0  0  0  0  0  0  0
   27.3315  -18.9517  -15.9549 C   0  0  0  0  0  0  0  0  0  0  0  0
   27.0822  -20.3866  -15.5300 C   0  0  1  0  0  0  0  0  0  0  0  0
   28.3181  -21.1912  -15.5593 C   0  0  0  0  0  0  0  0  0  0  0  0
   28.8652  -21.4932  -14.4839 O   0  0  0  0  0  0  0  0  0  0  0  0
   28.8861  -21.6190  -16.7448 O   0  0  0  0  0  0  0  0  0  0  0  0
  2  1  1  6
  2  8  1  0
  2  3  1  0
  4  3  1  0
  4  5  1  0
  6  5  1  0
  6  7  1  0
  8  9  2  0
 10 11  1  0
 11 12  1  0
 13 12  1  0
 14 13  1  1
 15 14  1  0
 15  8  1  0
 16 14  1  0
 16 17  2  0
 18 16  1  0
 19 18  1  0
 20 19  1  0
 21 20  1  0
 21 22  1  0
 22 18  1  0
 22 23  1  1
 23 25  1  0
 24 23  2  0
M  END
$$$$
