KMP.pdb
     RDKit          3D

 25 25  0  0  1  0  0  0  0  0999 V2000
   20.1428  -20.0844  -14.7732 N   0  0  0  0  0  0  0  0  0  0  0  0
   21.0103  -20.9602  -14.0353 C   0  0  1  0  0  0  0  0  0  0  0  0
   21.1828  -22.2290  -14.8448 C   0  0  0  0  0  0  0  0  0  0  0  0
   19.8954  -22.4742  -15.5709 C   0  0  0  0  0  0  0  0  0  0  0  0
   20.0726  -22.6161  -17.0607 C   0  0  0  0  0  0  0  0  0  0  0  0
   20.6600  -24.0161  -17.2891 C   0  0  0  0  0  0  0  0  0  0  0  0
   19.6202  -25.0235  -17.1693 N   0  0  0  0  0  0  0  0  0  0  0  0
   22.2973  -20.3298  -13.6834 C   0  0  0  0  0  0  0  0  0  0  0  0
   22.6250  -19.3000  -14.3172 O   0  0  0  0  0  0  0  0  0  0  0  0
   26.2682  -19.3852   -8.0202 C   0  0  0  0  0  0  0  0  0  0  0  0
   26.4618  -20.9808   -8.8343 S   0  0  0  0  0  0  0  0  0  0  0  0
   26.3124  -20.6916  -10.6512 C   0  0  0  0  0  0  0  0  0  0  0  0
   24.9102  -20.9359  -11.0757 C   0  0  0  0  0  0  0  0  0  0  0  0
   24.5107  -20.4607  -12.4342 C   0  0  2  0  0  0  0  0  0  0  0  0
   23.1031  -20.8863  -12.6714 N   0  0  0  0  0  0  0  0  0  0  0  0
   25.2912  -20.9475  -13.5704 C   0  0  0  0  0  0  0  0  0  0  0  0
   24.9220  -22.0112  -14.1926 O   0  0  0  0  0  0  0  0  0  0  0  0
   26.4610  -20.3467  -14.0933 N   0  0  0  0  0  0  0  0  0  0  0  0
   27.2900  -19.3448  -13.4974 C   0  0  0  0  0  0  0  0  0  0  0  0
   27.5833  -18.3937  -14.6652 C   0  0  0  0  0  0  0  0  0  0  0  0
   27.3706  -19.2160  -15.9076 C   0  0  0  0  0  0  0  0  0  0  0  0
   27.0951  -20.6164  -15.3933 C   0  0  1  0  0  0  0  0  0  0  0  0
   28.3350  -21.4015  -15.2452 C   0  0  0  0  0  0  0  0  0  0  0  0
   28.7670  -21.6342  -14.1023 O   0  0  0  0  0  0  0  0  0  0  0  0
   29.0307  -21.8857  -16.3374 O   0  0  0  0  0  0  0  0  0  0  0  0
  2  1  1  6
  2  8  1  0
  2  3  1  0
  4  3  1  0
  4  5  1  0
  6  5  1  0
  6  7  1  0
  8  9  2  0
 10 11  1  0
 11 12  1  0
 13 12  1  0
 14 13  1  1
 15 14  1  0
 15  8  1  0
 16 14  1  0
 16 17  2  0
 18 16  1  0
 19 18  1  0
 20 19  1  0
 21 20  1  0
 21 22  1  0
 22 18  1  0
 22 23  1  1
 23 25  1  0
 24 23  2  0
M  END
$$$$
