KMP.pdb
     RDKit          3D

 25 25  0  0  1  0  0  0  0  0999 V2000
   28.8519  -22.2030  -16.3102 N   0  0  0  0  0  0  0  0  0  0  0  0
   28.0545  -21.1418  -15.7606 C   0  0  1  0  0  0  0  0  0  0  0  0
   27.4524  -20.3701  -16.9169 C   0  0  0  0  0  0  0  0  0  0  0  0
   28.5381  -20.1615  -17.9282 C   0  0  0  0  0  0  0  0  0  0  0  0
   29.0924  -18.7602  -17.9225 C   0  0  0  0  0  0  0  0  0  0  0  0
   29.0108  -18.2631  -19.3728 C   0  0  0  0  0  0  0  0  0  0  0  0
   29.6738  -16.9770  -19.5018 N   0  0  0  0  0  0  0  0  0  0  0  0
   27.0372  -21.6238  -14.8066 C   0  0  0  0  0  0  0  0  0  0  0  0
   26.3336  -22.5982  -15.1603 O   0  0  0  0  0  0  0  0  0  0  0  0
   27.3518  -20.7268   -8.4039 C   0  0  0  0  0  0  0  0  0  0  0  0
   25.7241  -20.0128   -8.6991 S   0  0  0  0  0  0  0  0  0  0  0  0
   25.0601  -20.7793  -10.2414 C   0  0  0  0  0  0  0  0  0  0  0  0
   26.1258  -20.8093  -11.2755 C   0  0  0  0  0  0  0  0  0  0  0  0
   25.7441  -21.2743  -12.6425 C   0  0  2  0  0  0  0  0  0  0  0  0
   26.8867  -20.9938  -13.5561 N   0  0  0  0  0  0  0  0  0  0  0  0
   24.5631  -20.6651  -13.2518 C   0  0  0  0  0  0  0  0  0  0  0  0
   24.6701  -19.5465  -13.8780 O   0  0  0  0  0  0  0  0  0  0  0  0
   23.2518  -21.1971  -13.2356 N   0  0  0  0  0  0  0  0  0  0  0  0
   22.7984  -22.4310  -12.6713 C   0  0  0  0  0  0  0  0  0  0  0  0
   21.8426  -22.9745  -13.7416 C   0  0  0  0  0  0  0  0  0  0  0  0
   21.4156  -21.7711  -14.5380 C   0  0  0  0  0  0  0  0  0  0  0  0
   22.0396  -20.5943  -13.8118 C   0  0  1  0  0  0  0  0  0  0  0  0
   21.1468  -20.0562  -12.7682 C   0  0  0  0  0  0  0  0  0  0  0  0
   21.3868  -20.3194  -11.5765 O   0  0  0  0  0  0  0  0  0  0  0  0
   20.0524  -19.2691  -13.0746 O   0  0  0  0  0  0  0  0  0  0  0  0
  2  1  1  6
  2  8  1  0
  2  3  1  0
  4  3  1  0
  4  5  1  0
  6  5  1  0
  6  7  1  0
  8  9  2  0
 10 11  1  0
 11 12  1  0
 13 12  1  0
 14 13  1  1
 15 14  1  0
 15  8  1  0
 16 14  1  0
 16 17  2  0
 18 16  1  0
 19 18  1  0
 20 19  1  0
 21 20  1  0
 21 22  1  0
 22 18  1  0
 22 23  1  1
 23 25  1  0
 24 23  2  0
M  END
$$$$
