KMP.pdb
     RDKit          3D

 25 25  0  0  1  0  0  0  0  0999 V2000
   22.6573   -9.9483  -20.3843 N   0  0  0  0  0  0  0  0  0  0  0  0
   21.2306   -9.8832  -20.2286 C   0  0  1  0  0  0  0  0  0  0  0  0
   20.6594  -11.2245  -20.6401 C   0  0  0  0  0  0  0  0  0  0  0  0
   21.1771  -12.2460  -19.6740 C   0  0  0  0  0  0  0  0  0  0  0  0
   20.6091  -13.6225  -19.9054 C   0  0  0  0  0  0  0  0  0  0  0  0
   21.2720  -14.5379  -18.8662 C   0  0  0  0  0  0  0  0  0  0  0  0
   20.8046  -15.9038  -19.0281 N   0  0  0  0  0  0  0  0  0  0  0  0
   20.8197   -9.4820  -18.8693 C   0  0  0  0  0  0  0  0  0  0  0  0
   19.5971   -9.2943  -18.6705 O   0  0  0  0  0  0  0  0  0  0  0  0
   21.9213  -12.0294  -12.8474 C   0  0  0  0  0  0  0  0  0  0  0  0
   23.1034  -10.6971  -13.1192 S   0  0  0  0  0  0  0  0  0  0  0  0
   22.2424   -9.3907  -14.0984 C   0  0  0  0  0  0  0  0  0  0  0  0
   22.2058   -9.7901  -15.5285 C   0  0  0  0  0  0  0  0  0  0  0  0
   21.4400   -8.9161  -16.4668 C   0  0  2  0  0  0  0  0  0  0  0  0
   21.7858   -9.3247  -17.8569 N   0  0  0  0  0  0  0  0  0  0  0  0
   21.6761   -7.4758  -16.3840 C   0  0  0  0  0  0  0  0  0  0  0  0
   22.5897   -6.9336  -17.1093 O   0  0  0  0  0  0  0  0  0  0  0  0
   20.9731   -6.5646  -15.5603 N   0  0  0  0  0  0  0  0  0  0  0  0
   19.9181   -6.8341  -14.6326 C   0  0  0  0  0  0  0  0  0  0  0  0
   18.9256   -5.6927  -14.8906 C   0  0  0  0  0  0  0  0  0  0  0  0
   19.7400   -4.5959  -15.5220 C   0  0  0  0  0  0  0  0  0  0  0  0
   21.1672   -5.1085  -15.4763 C   0  0  1  0  0  0  0  0  0  0  0  0
   21.8517   -4.7186  -14.2292 C   0  0  0  0  0  0  0  0  0  0  0  0
   22.0136   -5.5724  -13.3393 O   0  0  0  0  0  0  0  0  0  0  0  0
   22.3178   -3.4340  -14.0200 O   0  0  0  0  0  0  0  0  0  0  0  0
  2  1  1  1
  2  8  1  0
  2  3  1  0
  4  3  1  0
  4  5  1  0
  6  5  1  0
  6  7  1  0
  8  9  2  0
 10 11  1  0
 11 12  1  0
 13 12  1  0
 14 13  1  1
 15 14  1  0
 15  8  1  0
 16 14  1  0
 16 17  2  0
 18 16  1  0
 19 18  1  0
 20 19  1  0
 21 20  1  0
 21 22  1  0
 22 18  1  0
 22 23  1  1
 23 25  1  0
 24 23  2  0
M  END
$$$$
