KMP.pdb
     RDKit          3D

 25 25  0  0  1  0  0  0  0  0999 V2000
   25.3908  -26.3452  -16.0481 N   0  0  0  0  0  0  0  0  0  0  0  0
   25.8649  -25.0746  -15.5740 C   0  0  1  0  0  0  0  0  0  0  0  0
   26.5439  -24.3734  -16.7326 C   0  0  0  0  0  0  0  0  0  0  0  0
   27.6654  -25.2540  -17.1925 C   0  0  0  0  0  0  0  0  0  0  0  0
   27.3802  -25.9416  -18.5028 C   0  0  0  0  0  0  0  0  0  0  0  0
   28.6672  -26.6881  -18.8819 C   0  0  0  0  0  0  0  0  0  0  0  0
   28.5171  -27.3219  -20.1804 N   0  0  0  0  0  0  0  0  0  0  0  0
   24.8004  -24.2583  -14.9592 C   0  0  0  0  0  0  0  0  0  0  0  0
   23.6300  -24.4373  -15.3687 O   0  0  0  0  0  0  0  0  0  0  0  0
   26.4959  -20.5517  -10.0554 C   0  0  0  0  0  0  0  0  0  0  0  0
   24.7207  -20.4214   -9.7763 S   0  0  0  0  0  0  0  0  0  0  0  0
   23.8829  -20.8383  -11.3673 C   0  0  0  0  0  0  0  0  0  0  0  0
   24.6476  -21.9050  -12.0625 C   0  0  0  0  0  0  0  0  0  0  0  0
   24.1118  -22.3957  -13.3674 C   0  0  2  0  0  0  0  0  0  0  0  0
   25.1181  -23.3238  -13.9546 N   0  0  0  0  0  0  0  0  0  0  0  0
   23.8205  -21.3937  -14.3913 C   0  0  0  0  0  0  0  0  0  0  0  0
   24.7728  -20.9244  -15.1177 O   0  0  0  0  0  0  0  0  0  0  0  0
   22.5446  -20.8606  -14.6930 N   0  0  0  0  0  0  0  0  0  0  0  0
   21.2931  -21.1309  -14.0550 C   0  0  0  0  0  0  0  0  0  0  0  0
   20.3210  -21.2641  -15.2347 C   0  0  0  0  0  0  0  0  0  0  0  0
   20.9728  -20.5215  -16.3698 C   0  0  0  0  0  0  0  0  0  0  0  0
   22.2108  -19.8974  -15.7539 C   0  0  1  0  0  0  0  0  0  0  0  0
   21.9360  -18.5551  -15.2077 C   0  0  0  0  0  0  0  0  0  0  0  0
   21.8973  -18.4038  -13.9737 O   0  0  0  0  0  0  0  0  0  0  0  0
   21.7201  -17.4614  -16.0253 O   0  0  0  0  0  0  0  0  0  0  0  0
  2  1  1  6
  2  8  1  0
  2  3  1  0
  4  3  1  0
  4  5  1  0
  6  5  1  0
  6  7  1  0
  8  9  2  0
 10 11  1  0
 11 12  1  0
 13 12  1  0
 14 13  1  1
 15 14  1  0
 15  8  1  0
 16 14  1  0
 16 17  2  0
 18 16  1  0
 19 18  1  0
 20 19  1  0
 21 20  1  0
 21 22  1  0
 22 18  1  0
 22 23  1  1
 23 25  1  0
 24 23  2  0
M  END
$$$$
