KMP.pdb
     RDKit          3D

 25 25  0  0  1  0  0  0  0  0999 V2000
   29.1258  -19.6312  -16.9903 N   0  0  0  0  0  0  0  0  0  0  0  0
   28.4504  -19.0178  -15.8805 C   0  0  1  0  0  0  0  0  0  0  0  0
   27.7585  -17.7713  -16.3926 C   0  0  0  0  0  0  0  0  0  0  0  0
   27.5365  -17.9556  -17.8628 C   0  0  0  0  0  0  0  0  0  0  0  0
   28.5429  -17.2218  -18.7111 C   0  0  0  0  0  0  0  0  0  0  0  0
   27.9672  -17.2010  -20.1343 C   0  0  0  0  0  0  0  0  0  0  0  0
   28.9027  -16.5655  -21.0460 N   0  0  0  0  0  0  0  0  0  0  0  0
   27.5268  -19.9392  -15.1909 C   0  0  0  0  0  0  0  0  0  0  0  0
   26.8043  -20.6709  -15.9065 O   0  0  0  0  0  0  0  0  0  0  0  0
   25.0139  -21.2860   -7.7685 C   0  0  0  0  0  0  0  0  0  0  0  0
   26.2779  -20.6615   -8.8905 S   0  0  0  0  0  0  0  0  0  0  0  0
   25.7373  -21.0692  -10.6076 C   0  0  0  0  0  0  0  0  0  0  0  0
   26.7738  -20.6182  -11.5711 C   0  0  0  0  0  0  0  0  0  0  0  0
   26.4654  -20.7543  -13.0261 C   0  0  2  0  0  0  0  0  0  0  0  0
   27.4819  -19.9722  -13.7837 N   0  0  0  0  0  0  0  0  0  0  0  0
   25.1564  -20.2878  -13.4799 C   0  0  0  0  0  0  0  0  0  0  0  0
   25.0034  -19.0635  -13.8437 O   0  0  0  0  0  0  0  0  0  0  0  0
   23.9822  -21.0720  -13.5755 N   0  0  0  0  0  0  0  0  0  0  0  0
   23.8215  -22.4698  -13.3174 C   0  0  0  0  0  0  0  0  0  0  0  0
   22.9301  -22.9388  -14.4749 C   0  0  0  0  0  0  0  0  0  0  0  0
   22.2218  -21.7008  -14.9550 C   0  0  0  0  0  0  0  0  0  0  0  0
   22.6404  -20.6201  -13.9759 C   0  0  1  0  0  0  0  0  0  0  0  0
   21.7239  -20.5377  -12.8232 C   0  0  0  0  0  0  0  0  0  0  0  0
   22.0654  -21.0548  -11.7447 O   0  0  0  0  0  0  0  0  0  0  0  0
   20.4980  -19.9040  -12.9055 O   0  0  0  0  0  0  0  0  0  0  0  0
  2  1  1  6
  2  8  1  0
  2  3  1  0
  4  3  1  0
  4  5  1  0
  6  5  1  0
  6  7  1  0
  8  9  2  0
 10 11  1  0
 11 12  1  0
 13 12  1  0
 14 13  1  1
 15 14  1  0
 15  8  1  0
 16 14  1  0
 16 17  2  0
 18 16  1  0
 19 18  1  0
 20 19  1  0
 21 20  1  0
 21 22  1  0
 22 18  1  0
 22 23  1  1
 23 25  1  0
 24 23  2  0
M  END
$$$$
