KMP.pdb
     RDKit          3D

 25 25  0  0  1  0  0  0  0  0999 V2000
   25.0486  -22.2293  -14.3867 N   0  0  0  0  0  0  0  0  0  0  0  0
   23.6435  -22.0152  -14.5956 C   0  0  1  0  0  0  0  0  0  0  0  0
   23.1187  -23.1692  -15.4249 C   0  0  0  0  0  0  0  0  0  0  0  0
   22.7830  -22.6284  -16.7812 C   0  0  0  0  0  0  0  0  0  0  0  0
   23.9983  -22.3725  -17.6349 C   0  0  0  0  0  0  0  0  0  0  0  0
   23.4756  -21.8041  -18.9619 C   0  0  0  0  0  0  0  0  0  0  0  0
   24.5806  -21.5485  -19.8696 N   0  0  0  0  0  0  0  0  0  0  0  0
   22.8973  -21.8339  -13.3355 C   0  0  0  0  0  0  0  0  0  0  0  0
   23.2127  -22.5676  -12.3702 O   0  0  0  0  0  0  0  0  0  0  0  0
   19.9415  -16.4984  -12.6833 C   0  0  0  0  0  0  0  0  0  0  0  0
   19.0025  -17.1388  -11.2852 S   0  0  0  0  0  0  0  0  0  0  0  0
   19.5548  -18.8774  -11.0034 C   0  0  0  0  0  0  0  0  0  0  0  0
   20.5164  -19.2677  -12.0659 C   0  0  0  0  0  0  0  0  0  0  0  0
   21.0613  -20.6576  -12.0229 C   0  0  2  0  0  0  0  0  0  0  0  0
   21.8771  -20.8667  -13.2516 N   0  0  0  0  0  0  0  0  0  0  0  0
   20.0960  -21.7542  -11.9710 C   0  0  0  0  0  0  0  0  0  0  0  0
   19.7520  -22.3568  -13.0542 O   0  0  0  0  0  0  0  0  0  0  0  0
   19.4719  -22.2572  -10.8046 N   0  0  0  0  0  0  0  0  0  0  0  0
   19.6434  -21.8327   -9.4494 C   0  0  0  0  0  0  0  0  0  0  0  0
   19.7131  -23.1554   -8.6749 C   0  0  0  0  0  0  0  0  0  0  0  0
   19.0298  -24.1660   -9.5562 C   0  0  0  0  0  0  0  0  0  0  0  0
   18.4947  -23.3540  -10.7207 C   0  0  1  0  0  0  0  0  0  0  0  0
   17.1315  -22.8539  -10.4616 C   0  0  0  0  0  0  0  0  0  0  0  0
   16.1939  -23.6686  -10.3962 O   0  0  0  0  0  0  0  0  0  0  0  0
   16.8649  -21.5083  -10.2898 O   0  0  0  0  0  0  0  0  0  0  0  0
  2  1  1  1
  2  8  1  0
  2  3  1  0
  4  3  1  0
  4  5  1  0
  6  5  1  0
  6  7  1  0
  8  9  2  0
 10 11  1  0
 11 12  1  0
 13 12  1  0
 14 13  1  6
 15 14  1  0
 15  8  1  0
 16 14  1  0
 16 17  2  0
 18 16  1  0
 19 18  1  0
 20 19  1  0
 21 20  1  0
 21 22  1  0
 22 18  1  0
 22 23  1  1
 23 25  1  0
 24 23  2  0
M  END
$$$$
