NTR.pdb
     RDKit          3D

 27 26  0  0  1  0  0  0  0  0999 V2000
    7.0359  -15.9195   15.3841 N   0  0  0  0  0  0  0  0  0  0  0  0
    7.6476  -15.2342   14.3128 C   0  0  0  0  0  0  0  0  0  0  0  0
    6.9693  -14.8803   13.3228 O   0  0  0  0  0  0  0  0  0  0  0  0
    9.1115  -14.9296   14.3608 C   0  0  0  0  0  0  0  0  0  0  0  0
    9.6733  -15.4984   15.6470 C   0  0  2  0  0  0  0  0  0  0  0  0
    8.8767  -16.6885   15.9780 N   0  0  0  0  0  0  0  0  0  0  0  0
    9.5157  -14.5616   16.7795 C   0  0  0  0  0  0  0  0  0  0  0  0
   10.1039  -13.4254   16.8221 O   0  0  0  0  0  0  0  0  0  0  0  0
    6.8785  -12.9160   19.1656 C   0  0  0  0  0  0  0  0  0  0  0  0
    7.6664  -13.9772   19.8923 C   0  0  1  0  0  0  0  0  0  0  0  0
    6.8626  -15.0792   20.0516 O   0  0  0  0  0  0  0  0  0  0  0  0
    8.9875  -14.2787   19.2197 C   0  0  2  0  0  0  0  0  0  0  0  0
    8.6925  -14.8498   17.9203 N   0  0  0  0  0  0  0  0  0  0  0  0
    9.8237  -15.1933   20.0403 C   0  0  0  0  0  0  0  0  0  0  0  0
    9.9120  -16.4257   19.7631 O   0  0  0  0  0  0  0  0  0  0  0  0
   17.0115  -13.4768   19.1428 N   0  0  0  0  0  0  0  0  0  0  0  0
   16.9419  -14.2279   20.3457 C   0  0  0  0  0  0  0  0  0  0  0  0
   17.9522  -14.2919   21.1766 N   0  0  0  0  0  0  0  0  0  0  0  0
   15.7579  -14.9411   20.6974 N   0  0  0  0  0  0  0  0  0  0  0  0
   14.5319  -14.7068   20.0226 C   0  0  0  0  0  0  0  0  0  0  0  0
   13.3789  -15.5379   20.4863 C   0  0  0  0  0  0  0  0  0  0  0  0
   12.8557  -15.2381   21.8374 C   0  0  0  0  0  0  0  0  0  0  0  0
   11.4104  -15.6573   21.9663 C   0  0  2  0  0  0  0  0  0  0  0  0
   10.5622  -14.7468   21.1664 N   0  0  0  0  0  0  0  0  0  0  0  0
   10.8875  -15.5700   23.3403 C   0  0  0  0  0  0  0  0  0  0  0  0
   11.2553  -16.4985   24.3364 O   0  0  0  0  0  0  0  0  0  0  0  0
   10.0894  -14.6872   23.7393 O   0  0  0  0  0  0  0  0  0  0  0  0
  2  1  1  0
  3  2  2  0
  4  2  1  0
  5  4  1  0
  5  6  1  1
  7  5  1  0
  7  8  2  0
 10  9  1  6
 10 12  1  0
 11 10  1  0
 12 13  1  6
 13  7  1  0
 14 12  1  0
 15 14  2  0
 16 17  1  0
 17 18  2  0
 19 17  1  0
 20 19  1  0
 21 20  1  0
 23 22  1  1
 22 21  1  0
 23 24  1  0
 24 14  1  0
 25 23  1  0
 26 25  1  0
 27 25  2  0
M  END
$$$$
