NTR.pdb
     RDKit          3D

 27 26  0  0  1  0  0  0  0  0999 V2000
    6.3716  -13.1718   14.9614 N   0  0  0  0  0  0  0  0  0  0  0  0
    7.2557  -13.8170   15.8523 C   0  0  0  0  0  0  0  0  0  0  0  0
    8.0245  -14.7129   15.4375 O   0  0  0  0  0  0  0  0  0  0  0  0
    7.2742  -13.4288   17.2969 C   0  0  0  0  0  0  0  0  0  0  0  0
    8.6155  -13.8248   17.8782 C   0  0  2  0  0  0  0  0  0  0  0  0
    9.3125  -14.6184   16.8560 N   0  0  0  0  0  0  0  0  0  0  0  0
    8.4676  -14.7013   19.0592 C   0  0  0  0  0  0  0  0  0  0  0  0
    7.7698  -14.3712   20.0804 O   0  0  0  0  0  0  0  0  0  0  0  0
    8.1101  -18.6679   18.8216 C   0  0  0  0  0  0  0  0  0  0  0  0
    9.0918  -18.2620   19.8923 C   0  0  1  0  0  0  0  0  0  0  0  0
   10.3591  -18.5505   19.4486 O   0  0  0  0  0  0  0  0  0  0  0  0
    8.9111  -16.8245   20.3276 C   0  0  2  0  0  0  0  0  0  0  0  0
    9.0933  -15.9903   19.1561 N   0  0  0  0  0  0  0  0  0  0  0  0
    9.8594  -16.4571   21.4115 C   0  0  0  0  0  0  0  0  0  0  0  0
   10.9266  -15.8231   21.1611 O   0  0  0  0  0  0  0  0  0  0  0  0
   10.3736  -15.8460   30.5423 N   0  0  0  0  0  0  0  0  0  0  0  0
   10.2463  -14.7159   29.6923 C   0  0  0  0  0  0  0  0  0  0  0  0
   10.3302  -13.4937   30.1551 N   0  0  0  0  0  0  0  0  0  0  0  0
   10.0258  -14.8729   28.2919 N   0  0  0  0  0  0  0  0  0  0  0  0
   10.1912  -16.1321   27.6592 C   0  0  0  0  0  0  0  0  0  0  0  0
   10.7701  -16.0833   26.2817 C   0  0  0  0  0  0  0  0  0  0  0  0
    9.8480  -16.4072   25.1708 C   0  0  0  0  0  0  0  0  0  0  0  0
   10.5743  -16.4175   23.8466 C   0  0  2  0  0  0  0  0  0  0  0  0
    9.6290  -16.7897   22.7713 N   0  0  0  0  0  0  0  0  0  0  0  0
   11.6591  -17.4109   23.7725 C   0  0  0  0  0  0  0  0  0  0  0  0
   11.4230  -18.7409   23.3661 O   0  0  0  0  0  0  0  0  0  0  0  0
   12.8582  -17.1723   24.0563 O   0  0  0  0  0  0  0  0  0  0  0  0
  2  1  1  0
  3  2  2  0
  4  2  1  0
  5  4  1  0
  5  6  1  6
  7  5  1  0
  7  8  2  0
 10  9  1  6
 10 12  1  0
 11 10  1  0
 12 13  1  6
 13  7  1  0
 14 12  1  0
 15 14  2  0
 16 17  1  0
 17 18  2  0
 19 17  1  0
 20 19  1  0
 21 20  1  0
 23 22  1  1
 22 21  1  0
 23 24  1  0
 24 14  1  0
 25 23  1  0
 26 25  1  0
 27 25  2  0
M  END
$$$$
