NTR.pdb
     RDKit          3D

 27 26  0  0  1  0  0  0  0  0999 V2000
    8.1584  -16.0819   13.0053 N   0  0  0  0  0  0  0  0  0  0  0  0
    7.5643  -16.7790   14.0789 C   0  0  0  0  0  0  0  0  0  0  0  0
    6.7280  -17.6828   13.8565 O   0  0  0  0  0  0  0  0  0  0  0  0
    7.9356  -16.4370   15.4871 C   0  0  0  0  0  0  0  0  0  0  0  0
    8.6986  -15.1289   15.4731 C   0  0  2  0  0  0  0  0  0  0  0  0
    9.9355  -15.3579   14.7127 N   0  0  0  0  0  0  0  0  0  0  0  0
    9.1127  -14.7174   16.8311 C   0  0  0  0  0  0  0  0  0  0  0  0
    9.6887  -13.5989   17.0676 O   0  0  0  0  0  0  0  0  0  0  0  0
    7.9876  -12.9189   18.2768 C   0  0  0  0  0  0  0  0  0  0  0  0
    7.9165  -13.8985   19.4214 C   0  0  1  0  0  0  0  0  0  0  0  0
    6.6347  -14.3859   19.4944 O   0  0  0  0  0  0  0  0  0  0  0  0
    8.9738  -14.9764   19.3265 C   0  0  2  0  0  0  0  0  0  0  0  0
    8.9030  -15.5371   17.9915 N   0  0  0  0  0  0  0  0  0  0  0  0
    8.7862  -16.0208   20.3673 C   0  0  0  0  0  0  0  0  0  0  0  0
    8.3879  -17.1839   20.0637 O   0  0  0  0  0  0  0  0  0  0  0  0
   15.5907  -20.1461   21.6845 N   0  0  0  0  0  0  0  0  0  0  0  0
   14.4885  -20.1748   20.7899 C   0  0  0  0  0  0  0  0  0  0  0  0
   14.1228  -21.2765   20.1835 N   0  0  0  0  0  0  0  0  0  0  0  0
   13.7309  -18.9965   20.5216 N   0  0  0  0  0  0  0  0  0  0  0  0
   13.3492  -18.1154   21.5662 C   0  0  0  0  0  0  0  0  0  0  0  0
   11.8769  -18.0024   21.8000 C   0  0  0  0  0  0  0  0  0  0  0  0
   11.3230  -16.6310   21.8436 C   0  0  0  0  0  0  0  0  0  0  0  0
    9.9777  -16.6095   22.5297 C   0  0  2  0  0  0  0  0  0  0  0  0
    9.0386  -15.7806   21.7425 N   0  0  0  0  0  0  0  0  0  0  0  0
   10.0050  -16.0002   23.8703 C   0  0  0  0  0  0  0  0  0  0  0  0
   10.0650  -16.7834   25.0419 O   0  0  0  0  0  0  0  0  0  0  0  0
    9.9778  -14.7642   24.0869 O   0  0  0  0  0  0  0  0  0  0  0  0
  2  1  1  0
  3  2  2  0
  4  2  1  0
  5  4  1  0
  5  6  1  6
  7  5  1  0
  7  8  2  0
 10  9  1  6
 10 12  1  0
 11 10  1  0
 12 13  1  6
 13  7  1  0
 14 12  1  0
 15 14  2  0
 16 17  1  0
 17 18  2  0
 19 17  1  0
 20 19  1  0
 21 20  1  0
 23 22  1  6
 22 21  1  0
 23 24  1  0
 24 14  1  0
 25 23  1  0
 26 25  1  0
 27 25  2  0
M  END
$$$$
