NTR.pdb
     RDKit          3D

 27 26  0  0  1  0  0  0  0  0999 V2000
    7.3934  -15.0955   12.9703 N   0  0  0  0  0  0  0  0  0  0  0  0
    8.5794  -15.3635   13.6865 C   0  0  0  0  0  0  0  0  0  0  0  0
    9.4416  -16.1351   13.2102 O   0  0  0  0  0  0  0  0  0  0  0  0
    8.8070  -14.7232   15.0192 C   0  0  0  0  0  0  0  0  0  0  0  0
    9.1159  -15.8135   16.0239 C   0  0  2  0  0  0  0  0  0  0  0  0
    7.8932  -16.6135   16.1836 N   0  0  0  0  0  0  0  0  0  0  0  0
    9.4314  -15.2610   17.3581 C   0  0  0  0  0  0  0  0  0  0  0  0
   10.5762  -14.7665   17.6470 O   0  0  0  0  0  0  0  0  0  0  0  0
    7.0787  -12.8964   19.3541 C   0  0  0  0  0  0  0  0  0  0  0  0
    7.5845  -13.9880   20.2636 C   0  0  1  0  0  0  0  0  0  0  0  0
    6.5492  -14.8542   20.5167 O   0  0  0  0  0  0  0  0  0  0  0  0
    8.8253  -14.6632   19.7221 C   0  0  2  0  0  0  0  0  0  0  0  0
    8.4816  -15.2345   18.4349 N   0  0  0  0  0  0  0  0  0  0  0  0
    9.3388  -15.6973   20.6581 C   0  0  0  0  0  0  0  0  0  0  0  0
    9.1862  -16.9314   20.4185 O   0  0  0  0  0  0  0  0  0  0  0  0
   16.4273  -19.3749   23.3483 N   0  0  0  0  0  0  0  0  0  0  0  0
   15.8649  -19.4368   22.0461 C   0  0  0  0  0  0  0  0  0  0  0  0
   16.5340  -19.9209   21.0297 N   0  0  0  0  0  0  0  0  0  0  0  0
   14.5385  -18.9750   21.7974 N   0  0  0  0  0  0  0  0  0  0  0  0
   13.9864  -17.8961   22.5352 C   0  0  0  0  0  0  0  0  0  0  0  0
   12.6398  -17.4337   22.0791 C   0  0  0  0  0  0  0  0  0  0  0  0
   12.0247  -16.3362   22.8578 C   0  0  0  0  0  0  0  0  0  0  0  0
   10.5172  -16.4019   22.7929 C   0  0  2  0  0  0  0  0  0  0  0  0
   10.0207  -15.3685   21.8580 N   0  0  0  0  0  0  0  0  0  0  0  0
    9.8550  -16.1157   24.0769 C   0  0  0  0  0  0  0  0  0  0  0  0
    9.2707  -14.8610   24.3489 O   0  0  0  0  0  0  0  0  0  0  0  0
    9.7530  -16.9381   25.0196 O   0  0  0  0  0  0  0  0  0  0  0  0
  2  1  1  0
  3  2  2  0
  4  2  1  0
  5  4  1  0
  5  6  1  1
  7  5  1  0
  7  8  2  0
 10  9  1  6
 10 12  1  0
 11 10  1  0
 12 13  1  6
 13  7  1  0
 14 12  1  0
 15 14  2  0
 16 17  1  0
 17 18  2  0
 19 17  1  0
 20 19  1  0
 21 20  1  0
 23 22  1  1
 22 21  1  0
 23 24  1  0
 24 14  1  0
 25 23  1  0
 26 25  1  0
 27 25  2  0
M  END
$$$$
