NTR.pdb
     RDKit          3D

 27 26  0  0  1  0  0  0  0  0999 V2000
   10.0395  -16.0892   13.1780 N   0  0  0  0  0  0  0  0  0  0  0  0
    8.8614  -15.8108   13.9033 C   0  0  0  0  0  0  0  0  0  0  0  0
    7.7501  -16.1845   13.4664 O   0  0  0  0  0  0  0  0  0  0  0  0
    8.9411  -15.0669   15.1988 C   0  0  0  0  0  0  0  0  0  0  0  0
    9.1769  -16.0697   16.3089 C   0  0  2  0  0  0  0  0  0  0  0  0
    7.9132  -16.7915   16.5153 N   0  0  0  0  0  0  0  0  0  0  0  0
    9.4947  -15.4077   17.5918 C   0  0  0  0  0  0  0  0  0  0  0  0
   10.5820  -14.7595   17.7830 O   0  0  0  0  0  0  0  0  0  0  0  0
    6.9041  -13.4085   19.8413 C   0  0  0  0  0  0  0  0  0  0  0  0
    7.7033  -14.3864   20.6658 C   0  0  1  0  0  0  0  0  0  0  0  0
    6.8837  -15.4337   21.0089 O   0  0  0  0  0  0  0  0  0  0  0  0
    8.9817  -14.8130   19.9785 C   0  0  2  0  0  0  0  0  0  0  0  0
    8.6119  -15.4385   18.7241 N   0  0  0  0  0  0  0  0  0  0  0  0
    9.7816  -15.7312   20.8308 C   0  0  0  0  0  0  0  0  0  0  0  0
    9.7267  -16.9864   20.6723 O   0  0  0  0  0  0  0  0  0  0  0  0
   17.3084  -17.8737   22.7525 N   0  0  0  0  0  0  0  0  0  0  0  0
   17.0910  -16.5366   23.1775 C   0  0  0  0  0  0  0  0  0  0  0  0
   18.0451  -15.6401   23.1444 N   0  0  0  0  0  0  0  0  0  0  0  0
   15.8140  -16.1173   23.6547 N   0  0  0  0  0  0  0  0  0  0  0  0
   14.7037  -17.0007   23.6540 C   0  0  0  0  0  0  0  0  0  0  0  0
   13.4142  -16.4058   24.1213 C   0  0  0  0  0  0  0  0  0  0  0  0
   12.6915  -15.5585   23.1470 C   0  0  0  0  0  0  0  0  0  0  0  0
   11.3734  -16.1833   22.7553 C   0  0  2  0  0  0  0  0  0  0  0  0
   10.6418  -15.2632   21.8573 N   0  0  0  0  0  0  0  0  0  0  0  0
   10.4677  -16.4198   23.8923 C   0  0  0  0  0  0  0  0  0  0  0  0
   10.6245  -17.5287   24.7498 O   0  0  0  0  0  0  0  0  0  0  0  0
    9.5011  -15.6779   24.1936 O   0  0  0  0  0  0  0  0  0  0  0  0
  2  1  1  0
  3  2  2  0
  4  2  1  0
  5  4  1  0
  5  6  1  1
  7  5  1  0
  7  8  2  0
 10  9  1  6
 10 12  1  0
 11 10  1  0
 12 13  1  6
 13  7  1  0
 14 12  1  0
 15 14  2  0
 16 17  1  0
 17 18  2  0
 19 17  1  0
 20 19  1  0
 21 20  1  0
 23 22  1  1
 22 21  1  0
 23 24  1  0
 24 14  1  0
 25 23  1  0
 26 25  1  0
 27 25  2  0
M  END
$$$$
