NTR.pdb
     RDKit          3D

 27 26  0  0  1  0  0  0  0  0999 V2000
   11.9790  -17.8705   12.2351 N   0  0  0  0  0  0  0  0  0  0  0  0
   11.2553  -17.2739   13.2895 C   0  0  0  0  0  0  0  0  0  0  0  0
   10.7053  -16.1621   13.1252 O   0  0  0  0  0  0  0  0  0  0  0  0
   11.1449  -17.9726   14.6077 C   0  0  0  0  0  0  0  0  0  0  0  0
   11.5595  -17.0037   15.6953 C   0  0  2  0  0  0  0  0  0  0  0  0
   13.0287  -16.9575   15.6963 N   0  0  0  0  0  0  0  0  0  0  0  0
   11.1550  -17.4744   17.0368 C   0  0  0  0  0  0  0  0  0  0  0  0
    9.9309  -17.6568   17.3640 O   0  0  0  0  0  0  0  0  0  0  0  0
   12.6479  -20.5590   18.7261 C   0  0  0  0  0  0  0  0  0  0  0  0
   12.6560  -19.4164   19.7106 C   0  0  1  0  0  0  0  0  0  0  0  0
   13.9479  -18.9701   19.8442 O   0  0  0  0  0  0  0  0  0  0  0  0
   11.6707  -18.3290   19.3427 C   0  0  2  0  0  0  0  0  0  0  0  0
   12.1001  -17.7641   18.0786 N   0  0  0  0  0  0  0  0  0  0  0  0
   11.5807  -17.2902   20.4019 C   0  0  0  0  0  0  0  0  0  0  0  0
   12.3461  -16.2813   20.3965 O   0  0  0  0  0  0  0  0  0  0  0  0
    6.9192  -14.1935   18.7000 N   0  0  0  0  0  0  0  0  0  0  0  0
    7.4384  -12.9680   19.1945 C   0  0  0  0  0  0  0  0  0  0  0  0
    7.6434  -11.9405   18.4089 N   0  0  0  0  0  0  0  0  0  0  0  0
    7.7527  -12.8093   20.5767 N   0  0  0  0  0  0  0  0  0  0  0  0
    7.7878  -13.9237   21.4543 C   0  0  0  0  0  0  0  0  0  0  0  0
    9.1388  -14.5283   21.6648 C   0  0  0  0  0  0  0  0  0  0  0  0
    9.1944  -15.7225   22.5367 C   0  0  0  0  0  0  0  0  0  0  0  0
   10.5735  -16.3382   22.5283 C   0  0  2  0  0  0  0  0  0  0  0  0
   10.6458  -17.3655   21.4663 N   0  0  0  0  0  0  0  0  0  0  0  0
   10.9164  -17.0426   23.7754 C   0  0  0  0  0  0  0  0  0  0  0  0
   11.4656  -16.3661   24.8846 O   0  0  0  0  0  0  0  0  0  0  0  0
   10.7563  -18.2737   23.9600 O   0  0  0  0  0  0  0  0  0  0  0  0
  2  1  1  0
  3  2  2  0
  4  2  1  0
  5  4  1  0
  5  6  1  1
  7  5  1  0
  7  8  2  0
 10  9  1  6
 10 12  1  0
 11 10  1  0
 12 13  1  6
 13  7  1  0
 14 12  1  0
 15 14  2  0
 16 17  1  0
 17 18  2  0
 19 17  1  0
 20 19  1  0
 21 20  1  0
 23 22  1  1
 22 21  1  0
 23 24  1  0
 24 14  1  0
 25 23  1  0
 26 25  1  0
 27 25  2  0
M  END
$$$$
