NTR.pdb
     RDKit          3D

 27 26  0  0  1  0  0  0  0  0999 V2000
    9.2611  -14.7402   12.6712 N   0  0  0  0  0  0  0  0  0  0  0  0
    8.5612  -15.6411   13.5018 C   0  0  0  0  0  0  0  0  0  0  0  0
    8.0397  -16.6696   13.0162 O   0  0  0  0  0  0  0  0  0  0  0  0
    8.4425  -15.3662   14.9675 C   0  0  0  0  0  0  0  0  0  0  0  0
    9.3737  -16.3062   15.7043 C   0  0  2  0  0  0  0  0  0  0  0  0
    8.9339  -17.6757   15.4019 N   0  0  0  0  0  0  0  0  0  0  0  0
    9.2703  -16.1479   17.1704 C   0  0  0  0  0  0  0  0  0  0  0  0
    9.5459  -15.0493   17.7670 O   0  0  0  0  0  0  0  0  0  0  0  0
    7.7968  -19.3249   19.6523 C   0  0  0  0  0  0  0  0  0  0  0  0
    7.6078  -17.8629   19.9714 C   0  0  1  0  0  0  0  0  0  0  0  0
    7.3727  -17.7415   21.3190 O   0  0  0  0  0  0  0  0  0  0  0  0
    8.7533  -17.0095   19.4734 C   0  0  2  0  0  0  0  0  0  0  0  0
    8.8538  -17.2111   18.0413 N   0  0  0  0  0  0  0  0  0  0  0  0
   10.0267  -17.3459   20.1622 C   0  0  0  0  0  0  0  0  0  0  0  0
   10.7284  -18.3343   19.7956 O   0  0  0  0  0  0  0  0  0  0  0  0
   16.0396  -12.6607   19.2088 N   0  0  0  0  0  0  0  0  0  0  0  0
   15.6501  -13.7224   18.3503 C   0  0  0  0  0  0  0  0  0  0  0  0
   16.1276  -13.8361   17.1362 N   0  0  0  0  0  0  0  0  0  0  0  0
   14.7215  -14.7138   18.7849 N   0  0  0  0  0  0  0  0  0  0  0  0
   14.2630  -14.7522   20.1272 C   0  0  0  0  0  0  0  0  0  0  0  0
   13.2678  -15.8255   20.4315 C   0  0  0  0  0  0  0  0  0  0  0  0
   12.7935  -15.9026   21.8309 C   0  0  0  0  0  0  0  0  0  0  0  0
   11.7473  -16.9799   21.9920 C   0  0  2  0  0  0  0  0  0  0  0  0
   10.5249  -16.5909   21.2551 N   0  0  0  0  0  0  0  0  0  0  0  0
   11.3142  -17.1830   23.3849 C   0  0  0  0  0  0  0  0  0  0  0  0
   12.1339  -17.8328   24.3312 O   0  0  0  0  0  0  0  0  0  0  0  0
   10.2081  -16.8077   23.8442 O   0  0  0  0  0  0  0  0  0  0  0  0
  2  1  1  0
  3  2  2  0
  4  2  1  0
  5  4  1  0
  5  6  1  1
  7  5  1  0
  7  8  2  0
 10  9  1  1
 10 12  1  0
 11 10  1  0
 12 13  1  6
 13  7  1  0
 14 12  1  0
 15 14  2  0
 16 17  1  0
 17 18  2  0
 19 17  1  0
 20 19  1  0
 21 20  1  0
 23 22  1  1
 22 21  1  0
 23 24  1  0
 24 14  1  0
 25 23  1  0
 26 25  1  0
 27 25  2  0
M  END
$$$$
