NTR.pdb
     RDKit          3D

 27 26  0  0  1  0  0  0  0  0999 V2000
    9.4741  -16.0814   12.7883 N   0  0  0  0  0  0  0  0  0  0  0  0
    8.5153  -15.8381   13.7947 C   0  0  0  0  0  0  0  0  0  0  0  0
    7.3405  -16.2459   13.6566 O   0  0  0  0  0  0  0  0  0  0  0  0
    8.9043  -15.0905   15.0307 C   0  0  0  0  0  0  0  0  0  0  0  0
    9.0158  -16.0816   16.1703 C   0  0  2  0  0  0  0  0  0  0  0  0
    7.6792  -16.6582   16.3743 N   0  0  0  0  0  0  0  0  0  0  0  0
    9.3851  -15.4222   17.4407 C   0  0  0  0  0  0  0  0  0  0  0  0
   10.5205  -14.8592   17.6213 O   0  0  0  0  0  0  0  0  0  0  0  0
    7.6744  -12.6468   19.2329 C   0  0  0  0  0  0  0  0  0  0  0  0
    7.8429  -13.7694   20.2261 C   0  0  1  0  0  0  0  0  0  0  0  0
    6.6168  -14.3532   20.4307 O   0  0  0  0  0  0  0  0  0  0  0  0
    8.9224  -14.7468   19.8163 C   0  0  2  0  0  0  0  0  0  0  0  0
    8.5023  -15.3604   18.5718 N   0  0  0  0  0  0  0  0  0  0  0  0
    9.1681  -15.7652   20.8706 C   0  0  0  0  0  0  0  0  0  0  0  0
    8.5790  -16.8859   20.8488 O   0  0  0  0  0  0  0  0  0  0  0  0
   13.7866  -20.9406   23.3203 N   0  0  0  0  0  0  0  0  0  0  0  0
   13.9656  -20.8521   21.9146 C   0  0  0  0  0  0  0  0  0  0  0  0
   14.7887  -21.6445   21.2744 N   0  0  0  0  0  0  0  0  0  0  0  0
   13.2458  -19.8928   21.1426 N   0  0  0  0  0  0  0  0  0  0  0  0
   13.2047  -18.5264   21.5226 C   0  0  0  0  0  0  0  0  0  0  0  0
   11.8370  -17.9688   21.7536 C   0  0  0  0  0  0  0  0  0  0  0  0
   11.6779  -17.0886   22.9323 C   0  0  0  0  0  0  0  0  0  0  0  0
   10.2714  -16.5451   23.0193 C   0  0  2  0  0  0  0  0  0  0  0  0
   10.0643  -15.5458   21.9483 N   0  0  0  0  0  0  0  0  0  0  0  0
    9.9872  -15.8328   24.2767 C   0  0  0  0  0  0  0  0  0  0  0  0
    9.7651  -16.5214   25.4875 O   0  0  0  0  0  0  0  0  0  0  0  0
    9.9183  -14.5841   24.3829 O   0  0  0  0  0  0  0  0  0  0  0  0
  2  1  1  0
  3  2  2  0
  4  2  1  0
  5  4  1  0
  5  6  1  1
  7  5  1  0
  7  8  2  0
 10  9  1  6
 10 12  1  0
 11 10  1  0
 12 13  1  6
 13  7  1  0
 14 12  1  0
 15 14  2  0
 16 17  1  0
 17 18  2  0
 19 17  1  0
 20 19  1  0
 21 20  1  0
 23 22  1  1
 22 21  1  0
 23 24  1  0
 24 14  1  0
 25 23  1  0
 26 25  1  0
 27 25  2  0
M  END
$$$$
