NTR.pdb
     RDKit          3D

 27 26  0  0  1  0  0  0  0  0999 V2000
    8.4983  -13.8468   12.6796 N   0  0  0  0  0  0  0  0  0  0  0  0
    7.6888  -14.2998   13.7430 C   0  0  0  0  0  0  0  0  0  0  0  0
    6.7597  -15.1094   13.5261 O   0  0  0  0  0  0  0  0  0  0  0  0
    7.9419  -13.8111   15.1340 C   0  0  0  0  0  0  0  0  0  0  0  0
    8.7007  -14.8856   15.8846 C   0  0  2  0  0  0  0  0  0  0  0  0
    7.8182  -16.0580   15.9708 N   0  0  0  0  0  0  0  0  0  0  0  0
    8.9971  -14.4822   17.2754 C   0  0  0  0  0  0  0  0  0  0  0  0
    9.8361  -13.5588   17.5620 O   0  0  0  0  0  0  0  0  0  0  0  0
    6.6991  -13.2906   19.9003 C   0  0  0  0  0  0  0  0  0  0  0  0
    7.4852  -14.4153   20.5265 C   0  0  1  0  0  0  0  0  0  0  0  0
    6.6497  -15.4947   20.6780 O   0  0  0  0  0  0  0  0  0  0  0  0
    8.7536  -14.7288   19.7640 C   0  0  2  0  0  0  0  0  0  0  0  0
    8.3697  -15.0920   18.4141 N   0  0  0  0  0  0  0  0  0  0  0  0
    9.5331  -15.8114   20.4193 C   0  0  0  0  0  0  0  0  0  0  0  0
    9.5418  -16.9879   19.9509 O   0  0  0  0  0  0  0  0  0  0  0  0
   14.2712  -20.6632   19.9399 N   0  0  0  0  0  0  0  0  0  0  0  0
   15.0965  -20.2454   21.0171 C   0  0  0  0  0  0  0  0  0  0  0  0
   15.8307  -21.0949   21.6911 N   0  0  0  0  0  0  0  0  0  0  0  0
   15.1597  -18.8739   21.4032 N   0  0  0  0  0  0  0  0  0  0  0  0
   14.3435  -17.8965   20.7772 C   0  0  0  0  0  0  0  0  0  0  0  0
   12.9217  -17.8619   21.2381 C   0  0  0  0  0  0  0  0  0  0  0  0
   12.4864  -16.6287   21.9302 C   0  0  0  0  0  0  0  0  0  0  0  0
   11.0184  -16.6907   22.2802 C   0  0  2  0  0  0  0  0  0  0  0  0
   10.3029  -15.5945   21.5911 N   0  0  0  0  0  0  0  0  0  0  0  0
   10.7414  -16.4960   23.7134 C   0  0  0  0  0  0  0  0  0  0  0  0
   11.0514  -17.4837   24.6716 O   0  0  0  0  0  0  0  0  0  0  0  0
   10.2188  -15.4636   24.1996 O   0  0  0  0  0  0  0  0  0  0  0  0
  2  1  1  0
  3  2  2  0
  4  2  1  0
  5  4  1  0
  5  6  1  1
  7  5  1  0
  7  8  2  0
 10  9  1  6
 10 12  1  0
 11 10  1  0
 12 13  1  6
 13  7  1  0
 14 12  1  0
 15 14  2  0
 16 17  1  0
 17 18  2  0
 19 17  1  0
 20 19  1  0
 21 20  1  0
 23 22  1  1
 22 21  1  0
 23 24  1  0
 24 14  1  0
 25 23  1  0
 26 25  1  0
 27 25  2  0
M  END
$$$$
