NTR.pdb
     RDKit          3D

 27 26  0  0  1  0  0  0  0  0999 V2000
   12.0548  -16.3985   14.3098 N   0  0  0  0  0  0  0  0  0  0  0  0
   10.8803  -15.7863   13.8230 C   0  0  0  0  0  0  0  0  0  0  0  0
   10.6362  -15.7797   12.5958 O   0  0  0  0  0  0  0  0  0  0  0  0
    9.9236  -15.1435   14.7767 C   0  0  0  0  0  0  0  0  0  0  0  0
   10.5230  -15.2068   16.1660 C   0  0  2  0  0  0  0  0  0  0  0  0
   10.5246  -16.6194   16.5723 N   0  0  0  0  0  0  0  0  0  0  0  0
    9.6951  -14.4876   17.1571 C   0  0  0  0  0  0  0  0  0  0  0  0
    9.5023  -13.2230   17.1076 O   0  0  0  0  0  0  0  0  0  0  0  0
    6.3060  -14.1232   17.7811 C   0  0  0  0  0  0  0  0  0  0  0  0
    6.8470  -14.6857   19.0717 C   0  0  1  0  0  0  0  0  0  0  0  0
    6.5379  -16.0228   19.1237 O   0  0  0  0  0  0  0  0  0  0  0  0
    8.3196  -14.3931   19.2578 C   0  0  2  0  0  0  0  0  0  0  0  0
    9.0422  -15.1477   18.2527 N   0  0  0  0  0  0  0  0  0  0  0  0
    8.7769  -14.7351   20.6300 C   0  0  0  0  0  0  0  0  0  0  0  0
    9.7273  -15.5502   20.8196 O   0  0  0  0  0  0  0  0  0  0  0  0
    6.3354  -12.1888   28.9792 N   0  0  0  0  0  0  0  0  0  0  0  0
    6.1545  -11.7319   27.6471 C   0  0  0  0  0  0  0  0  0  0  0  0
    5.5098  -10.6233   27.3815 N   0  0  0  0  0  0  0  0  0  0  0  0
    6.6770  -12.4671   26.5423 N   0  0  0  0  0  0  0  0  0  0  0  0
    7.9799  -13.0276   26.5838 C   0  0  0  0  0  0  0  0  0  0  0  0
    8.2602  -14.0688   25.5482 C   0  0  0  0  0  0  0  0  0  0  0  0
    7.8282  -13.7545   24.1684 C   0  0  0  0  0  0  0  0  0  0  0  0
    8.6207  -14.5476   23.1564 C   0  0  2  0  0  0  0  0  0  0  0  0
    8.1848  -14.1769   21.7922 N   0  0  0  0  0  0  0  0  0  0  0  0
    8.4139  -16.0028   23.2493 C   0  0  0  0  0  0  0  0  0  0  0  0
    9.2241  -16.8183   24.0668 O   0  0  0  0  0  0  0  0  0  0  0  0
    7.5239  -16.6325   22.6275 O   0  0  0  0  0  0  0  0  0  0  0  0
  2  1  1  0
  3  2  2  0
  4  2  1  0
  5  4  1  0
  5  6  1  1
  7  5  1  0
  7  8  2  0
 10  9  1  6
 10 12  1  0
 11 10  1  0
 12 13  1  6
 13  7  1  0
 14 12  1  0
 15 14  2  0
 16 17  1  0
 17 18  2  0
 19 17  1  0
 20 19  1  0
 21 20  1  0
 23 22  1  1
 22 21  1  0
 23 24  1  0
 24 14  1  0
 25 23  1  0
 26 25  1  0
 27 25  2  0
M  END
$$$$
