NTR.pdb
     RDKit          3D

 27 26  0  0  1  0  0  0  0  0999 V2000
    9.7212  -18.2023   13.0492 N   0  0  0  0  0  0  0  0  0  0  0  0
    9.9178  -16.8235   12.8226 C   0  0  0  0  0  0  0  0  0  0  0  0
   10.3017  -16.4182   11.7027 O   0  0  0  0  0  0  0  0  0  0  0  0
    9.6664  -15.8430   13.9241 C   0  0  0  0  0  0  0  0  0  0  0  0
    9.2728  -16.6145   15.1664 C   0  0  2  0  0  0  0  0  0  0  0  0
    7.8280  -16.8697   15.0773 N   0  0  0  0  0  0  0  0  0  0  0  0
    9.4825  -15.8228   16.3969 C   0  0  0  0  0  0  0  0  0  0  0  0
   10.6471  -15.5670   16.8627 O   0  0  0  0  0  0  0  0  0  0  0  0
    7.6212  -12.9054   19.9673 C   0  0  0  0  0  0  0  0  0  0  0  0
    7.4914  -13.6554   18.6652 C   0  0  1  0  0  0  0  0  0  0  0  0
    7.3160  -12.7413   17.6554 O   0  0  0  0  0  0  0  0  0  0  0  0
    8.6417  -14.6096   18.4303 C   0  0  2  0  0  0  0  0  0  0  0  0
    8.3996  -15.2784   17.1672 N   0  0  0  0  0  0  0  0  0  0  0  0
    8.7822  -15.5830   19.5447 C   0  0  0  0  0  0  0  0  0  0  0  0
    8.0213  -16.5913   19.6334 O   0  0  0  0  0  0  0  0  0  0  0  0
   15.1527  -20.6565   21.4688 N   0  0  0  0  0  0  0  0  0  0  0  0
   14.6689  -19.6340   20.6107 C   0  0  0  0  0  0  0  0  0  0  0  0
   15.3192  -19.2761   19.5317 N   0  0  0  0  0  0  0  0  0  0  0  0
   13.4450  -18.9582   20.8926 N   0  0  0  0  0  0  0  0  0  0  0  0
   12.9318  -18.8893   22.2137 C   0  0  0  0  0  0  0  0  0  0  0  0
   11.6336  -18.1619   22.3572 C   0  0  0  0  0  0  0  0  0  0  0  0
   11.3309  -17.1498   21.3212 C   0  0  0  0  0  0  0  0  0  0  0  0
    9.9983  -16.4879   21.5805 C   0  0  2  0  0  0  0  0  0  0  0  0
    9.7627  -15.4427   20.5604 N   0  0  0  0  0  0  0  0  0  0  0  0
    9.9238  -15.7914   22.8760 C   0  0  0  0  0  0  0  0  0  0  0  0
    9.9090  -16.4946   24.0987 O   0  0  0  0  0  0  0  0  0  0  0  0
    9.8681  -14.5443   23.0071 O   0  0  0  0  0  0  0  0  0  0  0  0
  2  1  1  0
  3  2  2  0
  4  2  1  0
  5  4  1  0
  5  6  1  6
  7  5  1  0
  7  8  2  0
 10  9  1  1
 10 12  1  0
 11 10  1  0
 12 13  1  6
 13  7  1  0
 14 12  1  0
 15 14  2  0
 16 17  1  0
 17 18  2  0
 19 17  1  0
 20 19  1  0
 21 20  1  0
 23 22  1  6
 22 21  1  0
 23 24  1  0
 24 14  1  0
 25 23  1  0
 26 25  1  0
 27 25  2  0
M  END
$$$$
