NTR.pdb
     RDKit          3D

 27 26  0  0  1  0  0  0  0  0999 V2000
    7.0415  -14.5167   11.3021 N   0  0  0  0  0  0  0  0  0  0  0  0
    6.9935  -15.1153   12.5791 C   0  0  0  0  0  0  0  0  0  0  0  0
    6.6128  -16.3006   12.7048 O   0  0  0  0  0  0  0  0  0  0  0  0
    7.3992  -14.3307   13.7865 C   0  0  0  0  0  0  0  0  0  0  0  0
    8.2852  -15.2071   14.6471 C   0  0  2  0  0  0  0  0  0  0  0  0
    7.4221  -16.2293   15.2558 N   0  0  0  0  0  0  0  0  0  0  0  0
    8.8904  -14.4515   15.7641 C   0  0  0  0  0  0  0  0  0  0  0  0
    9.7743  -13.5431   15.5840 O   0  0  0  0  0  0  0  0  0  0  0  0
    6.9877  -13.0782   18.9587 C   0  0  0  0  0  0  0  0  0  0  0  0
    8.2314  -13.8352   19.3525 C   0  0  1  0  0  0  0  0  0  0  0  0
    7.8514  -15.0362   19.8996 O   0  0  0  0  0  0  0  0  0  0  0  0
    9.2127  -13.9699   18.2090 C   0  0  2  0  0  0  0  0  0  0  0  0
    8.5367  -14.6750   17.1379 N   0  0  0  0  0  0  0  0  0  0  0  0
   10.4510  -14.6759   18.6303 C   0  0  0  0  0  0  0  0  0  0  0  0
   10.6509  -15.8878   18.3225 O   0  0  0  0  0  0  0  0  0  0  0  0
   17.0296  -15.1011   17.1202 N   0  0  0  0  0  0  0  0  0  0  0  0
   17.9752  -14.9214   18.1640 C   0  0  0  0  0  0  0  0  0  0  0  0
   19.1986  -15.3793   18.0706 N   0  0  0  0  0  0  0  0  0  0  0  0
   17.6251  -14.2257   19.3588 N   0  0  0  0  0  0  0  0  0  0  0  0
   16.3875  -13.5414   19.4741 C   0  0  0  0  0  0  0  0  0  0  0  0
   15.1809  -14.4176   19.5813 C   0  0  0  0  0  0  0  0  0  0  0  0
   13.8734  -13.7282   19.6482 C   0  0  0  0  0  0  0  0  0  0  0  0
   12.7384  -14.7214   19.7293 C   0  0  2  0  0  0  0  0  0  0  0  0
   11.4679  -14.0434   19.3909 N   0  0  0  0  0  0  0  0  0  0  0  0
   12.5345  -15.2808   21.0763 C   0  0  0  0  0  0  0  0  0  0  0  0
   11.3951  -14.9680   21.8467 O   0  0  0  0  0  0  0  0  0  0  0  0
   13.3329  -16.0640   21.6460 O   0  0  0  0  0  0  0  0  0  0  0  0
  2  1  1  0
  3  2  2  0
  4  2  1  0
  5  4  1  0
  5  6  1  1
  7  5  1  0
  7  8  2  0
 10  9  1  6
 10 12  1  0
 11 10  1  0
 12 13  1  6
 13  7  1  0
 14 12  1  0
 15 14  2  0
 16 17  1  0
 17 18  2  0
 19 17  1  0
 20 19  1  0
 21 20  1  0
 23 22  1  1
 22 21  1  0
 23 24  1  0
 24 14  1  0
 25 23  1  0
 26 25  1  0
 27 25  2  0
M  END
$$$$
