NTR.pdb
     RDKit          3D

 27 26  0  0  1  0  0  0  0  0999 V2000
    6.7430  -14.4353   13.2056 N   0  0  0  0  0  0  0  0  0  0  0  0
    8.0230  -14.5016   13.7960 C   0  0  0  0  0  0  0  0  0  0  0  0
    8.9637  -15.0693   13.1972 O   0  0  0  0  0  0  0  0  0  0  0  0
    8.2565  -13.8913   15.1417 C   0  0  0  0  0  0  0  0  0  0  0  0
    9.0258  -14.8847   15.9871 C   0  0  2  0  0  0  0  0  0  0  0  0
    8.1914  -16.0889   16.1062 N   0  0  0  0  0  0  0  0  0  0  0  0
    9.2417  -14.3880   17.3625 C   0  0  0  0  0  0  0  0  0  0  0  0
   10.0192  -13.4061   17.6274 O   0  0  0  0  0  0  0  0  0  0  0  0
    6.6293  -13.4102   19.8949 C   0  0  0  0  0  0  0  0  0  0  0  0
    7.5773  -14.3612   20.5817 C   0  0  1  0  0  0  0  0  0  0  0  0
    6.9273  -15.5555   20.7746 O   0  0  0  0  0  0  0  0  0  0  0  0
    8.8938  -14.4954   19.8486 C   0  0  2  0  0  0  0  0  0  0  0  0
    8.5985  -14.9653   18.5093 N   0  0  0  0  0  0  0  0  0  0  0  0
    9.8236  -15.4140   20.5562 C   0  0  0  0  0  0  0  0  0  0  0  0
   10.0783  -16.5675   20.1000 O   0  0  0  0  0  0  0  0  0  0  0  0
   17.2738  -13.9072   20.2828 N   0  0  0  0  0  0  0  0  0  0  0  0
   16.4529  -14.4888   19.2808 C   0  0  0  0  0  0  0  0  0  0  0  0
   16.8311  -14.5447   18.0282 N   0  0  0  0  0  0  0  0  0  0  0  0
   15.1792  -15.0419   19.6063 N   0  0  0  0  0  0  0  0  0  0  0  0
   14.6636  -14.9710   20.9263 C   0  0  0  0  0  0  0  0  0  0  0  0
   13.2991  -15.5532   21.1108 C   0  0  0  0  0  0  0  0  0  0  0  0
   12.7554  -15.5273   22.4867 C   0  0  0  0  0  0  0  0  0  0  0  0
   11.3241  -16.0086   22.5151 C   0  0  2  0  0  0  0  0  0  0  0  0
   10.4719  -15.0586   21.7671 N   0  0  0  0  0  0  0  0  0  0  0  0
   10.7451  -16.0691   23.8679 C   0  0  0  0  0  0  0  0  0  0  0  0
   11.1666  -17.0255   24.8151 O   0  0  0  0  0  0  0  0  0  0  0  0
    9.8493  -15.2977   24.2897 O   0  0  0  0  0  0  0  0  0  0  0  0
  2  1  1  0
  3  2  2  0
  4  2  1  0
  5  4  1  0
  5  6  1  1
  7  5  1  0
  7  8  2  0
 10  9  1  6
 10 12  1  0
 11 10  1  0
 12 13  1  6
 13  7  1  0
 14 12  1  0
 15 14  2  0
 16 17  1  0
 17 18  2  0
 19 17  1  0
 20 19  1  0
 21 20  1  0
 23 22  1  1
 22 21  1  0
 23 24  1  0
 24 14  1  0
 25 23  1  0
 26 25  1  0
 27 25  2  0
M  END
$$$$
