NIF.pdb
     RDKit          3D

 28 28  0  0  1  0  0  0  0  0999 V2000
    9.9586  -19.3262   16.6231 N   0  0  0  0  0  0  0  0  0  0  0  0
   10.4804  -19.2278   17.9385 C   0  0  0  0  0  0  0  0  0  0  0  0
   10.9754  -20.2434   18.4651 O   0  0  0  0  0  0  0  0  0  0  0  0
   10.4332  -17.9550   18.6527 C   0  0  0  0  0  0  0  0  0  0  0  0
    9.9247  -18.0093   20.0539 C   0  0  2  0  0  0  0  0  0  0  0  0
    8.5999  -18.5764   20.1623 N   0  0  0  0  0  0  0  0  0  0  0  0
   10.0546  -16.7180   20.7990 C   0  0  0  0  0  0  0  0  0  0  0  0
   11.1554  -16.1067   20.8513 O   0  0  0  0  0  0  0  0  0  0  0  0
    6.9835  -12.8204   19.4551 C   0  0  0  0  0  0  0  0  0  0  0  0
    8.0429  -13.6219   20.0879 C   0  0  0  0  0  0  0  0  0  0  0  0
    7.9595  -14.0198   21.5032 C   0  0  2  0  0  0  0  0  0  0  0  0
    7.5986  -12.7826   22.3754 C   0  0  0  0  0  0  0  0  0  0  0  0
    8.9255  -14.8858   22.1485 C   0  0  2  0  0  0  0  0  0  0  0  0
    8.9334  -16.1726   21.4606 N   0  0  0  0  0  0  0  0  0  0  0  0
    9.1326  -14.9761   23.5774 C   0  0  0  0  0  0  0  0  0  0  0  0
    9.5450  -14.1276   24.3719 O   0  0  0  0  0  0  0  0  0  0  0  0
    8.8236  -16.2567   24.2037 N   0  0  0  0  0  0  0  0  0  0  0  0
    8.8094  -16.3752   25.6516 C   0  0  1  0  0  0  0  0  0  0  0  0
    7.4608  -16.0065   26.1594 C   0  0  0  0  0  0  0  0  0  0  0  0
    7.2797  -14.5666   26.4517 C   0  0  0  0  0  0  0  0  0  0  0  0
    6.0469  -13.9927   26.2471 C   0  0  0  0  0  0  0  0  0  0  0  0
    5.7887  -12.6629   26.4940 C   0  0  0  0  0  0  0  0  0  0  0  0
    6.8278  -11.8908   26.9677 C   0  0  0  0  0  0  0  0  0  0  0  0
    8.0712  -12.4535   27.1778 C   0  0  0  0  0  0  0  0  0  0  0  0
    8.3137  -13.7953   26.9233 C   0  0  0  0  0  0  0  0  0  0  0  0
    9.3256  -17.6792   26.1224 C   0  0  0  0  0  0  0  0  0  0  0  0
    9.5017  -17.9873   27.4612 O   0  0  0  0  0  0  0  0  0  0  0  0
    9.6251  -18.5615   25.2862 O   0  0  0  0  0  0  0  0  0  0  0  0
  1  2  1  0
  2  3  2  0
  4  5  1  0
  4  2  1  0
  5  6  1  6
  7  5  1  0
  7  8  2  0
  9 10  1  0
 10 11  1  0
 11 13  1  0
 11 12  1  1
 13 14  1  1
 14  7  1  0
 15 17  1  0
 15 13  1  0
 16 15  2  0
 18 17  1  0
 18 26  1  0
 18 19  1  6
 20 19  1  0
 20 25  2  0
 21 20  1  0
 22 21  2  0
 22 23  1  0
 23 24  2  0
 24 25  1  0
 26 27  1  0
 28 26  2  0
M  END
$$$$
