NIF.pdb
     RDKit          3D

 28 28  0  0  1  0  0  0  0  0999 V2000
   14.4299  -13.9580   18.3494 N   0  0  0  0  0  0  0  0  0  0  0  0
   14.3512  -14.3505   19.7103 C   0  0  0  0  0  0  0  0  0  0  0  0
   15.3594  -14.8450   20.2513 O   0  0  0  0  0  0  0  0  0  0  0  0
   13.1068  -14.1737   20.4536 C   0  0  0  0  0  0  0  0  0  0  0  0
   12.3780  -15.4235   20.8165 C   0  0  2  0  0  0  0  0  0  0  0  0
   12.0488  -16.2478   19.6761 N   0  0  0  0  0  0  0  0  0  0  0  0
   11.2043  -15.2036   21.7186 C   0  0  0  0  0  0  0  0  0  0  0  0
   11.3620  -14.8011   22.9024 O   0  0  0  0  0  0  0  0  0  0  0  0
    7.2456  -13.3126   18.9212 C   0  0  0  0  0  0  0  0  0  0  0  0
    7.9620  -13.4717   20.1966 C   0  0  0  0  0  0  0  0  0  0  0  0
    7.6950  -14.6135   21.0872 C   0  0  2  0  0  0  0  0  0  0  0  0
    6.3021  -14.4400   21.7591 C   0  0  0  0  0  0  0  0  0  0  0  0
    8.6794  -15.1667   21.9951 C   0  0  2  0  0  0  0  0  0  0  0  0
    9.8981  -15.4537   21.2458 N   0  0  0  0  0  0  0  0  0  0  0  0
    8.3937  -16.1161   23.0485 C   0  0  0  0  0  0  0  0  0  0  0  0
    8.7295  -17.2977   23.1606 O   0  0  0  0  0  0  0  0  0  0  0  0
    7.5784  -15.6361   24.1587 N   0  0  0  0  0  0  0  0  0  0  0  0
    7.2621  -16.5212   25.2666 C   0  0  1  0  0  0  0  0  0  0  0  0
    6.6956  -15.7213   26.3854 C   0  0  0  0  0  0  0  0  0  0  0  0
    7.3225  -14.3943   26.5796 C   0  0  0  0  0  0  0  0  0  0  0  0
    6.6586  -13.2712   26.1446 C   0  0  0  0  0  0  0  0  0  0  0  0
    7.1658  -11.9989   26.2859 C   0  0  0  0  0  0  0  0  0  0  0  0
    8.3959  -11.8687   26.8942 C   0  0  0  0  0  0  0  0  0  0  0  0
    9.0740  -12.9876   27.3359 C   0  0  0  0  0  0  0  0  0  0  0  0
    8.5482  -14.2622   27.1850 C   0  0  0  0  0  0  0  0  0  0  0  0
    6.4519  -17.6873   24.8517 C   0  0  0  0  0  0  0  0  0  0  0  0
    6.3714  -18.8568   25.5894 O   0  0  0  0  0  0  0  0  0  0  0  0
    5.7999  -17.6361   23.7842 O   0  0  0  0  0  0  0  0  0  0  0  0
  1  2  1  0
  2  3  2  0
  4  5  1  0
  4  2  1  0
  5  6  1  6
  7  5  1  0
  7  8  2  0
  9 10  1  0
 10 11  1  0
 11 13  1  0
 11 12  1  1
 13 14  1  6
 14  7  1  0
 15 17  1  0
 15 13  1  0
 16 15  2  0
 18 17  1  0
 18 26  1  0
 18 19  1  1
 20 19  1  0
 20 25  2  0
 21 20  1  0
 22 21  2  0
 22 23  1  0
 23 24  2  0
 24 25  1  0
 26 27  1  0
 28 26  2  0
M  END
$$$$
