NIF.pdb
     RDKit          3D

 28 28  0  0  1  0  0  0  0  0999 V2000
    9.1220  -20.6144   17.5414 N   0  0  0  0  0  0  0  0  0  0  0  0
   10.3859  -20.3479   18.1278 C   0  0  0  0  0  0  0  0  0  0  0  0
   11.3854  -20.9597   17.7029 O   0  0  0  0  0  0  0  0  0  0  0  0
   10.5018  -19.3728   19.2086 C   0  0  0  0  0  0  0  0  0  0  0  0
   10.3690  -17.9404   18.8146 C   0  0  2  0  0  0  0  0  0  0  0  0
   11.3166  -17.5330   17.8025 N   0  0  0  0  0  0  0  0  0  0  0  0
   10.3281  -16.9922   19.9717 C   0  0  0  0  0  0  0  0  0  0  0  0
   11.3890  -16.6025   20.5294 O   0  0  0  0  0  0  0  0  0  0  0  0
    7.0212  -12.7920   19.9567 C   0  0  0  0  0  0  0  0  0  0  0  0
    8.0989  -13.7370   20.2894 C   0  0  0  0  0  0  0  0  0  0  0  0
    7.9717  -14.6774   21.4154 C   0  0  2  0  0  0  0  0  0  0  0  0
    7.5873  -13.8997   22.7073 C   0  0  0  0  0  0  0  0  0  0  0  0
    8.9157  -15.7454   21.6757 C   0  0  2  0  0  0  0  0  0  0  0  0
    9.0864  -16.5269   20.4553 N   0  0  0  0  0  0  0  0  0  0  0  0
    8.9679  -16.5266   22.8921 C   0  0  0  0  0  0  0  0  0  0  0  0
    8.4271  -17.6008   23.1659 O   0  0  0  0  0  0  0  0  0  0  0  0
    9.7677  -15.9838   23.9845 N   0  0  0  0  0  0  0  0  0  0  0  0
   10.0117  -16.7805   25.1747 C   0  0  1  0  0  0  0  0  0  0  0  0
   11.0162  -16.0906   26.0277 C   0  0  0  0  0  0  0  0  0  0  0  0
   10.4621  -15.0456   26.9178 C   0  0  0  0  0  0  0  0  0  0  0  0
    9.6281  -14.0892   26.3876 C   0  0  0  0  0  0  0  0  0  0  0  0
    9.0669  -13.0828   27.1414 C   0  0  0  0  0  0  0  0  0  0  0  0
    9.3681  -13.0522   28.4862 C   0  0  0  0  0  0  0  0  0  0  0  0
   10.2041  -14.0060   29.0324 C   0  0  0  0  0  0  0  0  0  0  0  0
   10.7611  -15.0128   28.2579 C   0  0  0  0  0  0  0  0  0  0  0  0
    8.7631  -17.1739   25.8637 C   0  0  0  0  0  0  0  0  0  0  0  0
    7.5115  -16.7152   25.4872 O   0  0  0  0  0  0  0  0  0  0  0  0
    8.8178  -17.9580   26.8381 O   0  0  0  0  0  0  0  0  0  0  0  0
  1  2  1  0
  2  3  2  0
  4  5  1  0
  4  2  1  0
  5  6  1  6
  7  5  1  0
  7  8  2  0
  9 10  1  0
 10 11  1  0
 11 13  1  0
 11 12  1  1
 13 14  1  6
 14  7  1  0
 15 17  1  0
 15 13  1  0
 16 15  2  0
 18 17  1  0
 18 26  1  0
 18 19  1  1
 20 19  1  0
 20 25  2  0
 21 20  1  0
 22 21  2  0
 22 23  1  0
 23 24  2  0
 24 25  1  0
 26 27  1  0
 28 26  2  0
M  END
$$$$
