NIF.pdb
     RDKit          3D

 28 28  0  0  1  0  0  0  0  0999 V2000
    8.9474  -19.7049   17.0027 N   0  0  0  0  0  0  0  0  0  0  0  0
    9.9360  -19.3393   17.9520 C   0  0  0  0  0  0  0  0  0  0  0  0
   10.8354  -20.1576   18.2269 O   0  0  0  0  0  0  0  0  0  0  0  0
    9.8910  -18.0261   18.5889 C   0  0  0  0  0  0  0  0  0  0  0  0
    9.6342  -18.0198   20.0582 C   0  0  2  0  0  0  0  0  0  0  0  0
    8.4572  -18.7671   20.4386 N   0  0  0  0  0  0  0  0  0  0  0  0
    9.6685  -16.6573   20.6763 C   0  0  0  0  0  0  0  0  0  0  0  0
   10.6831  -15.9183   20.5625 O   0  0  0  0  0  0  0  0  0  0  0  0
    6.8280  -12.9866   19.0203 C   0  0  0  0  0  0  0  0  0  0  0  0
    7.8162  -13.7369   19.8113 C   0  0  0  0  0  0  0  0  0  0  0  0
    7.5887  -14.0370   21.2349 C   0  0  2  0  0  0  0  0  0  0  0  0
    7.1708  -12.7386   21.9842 C   0  0  0  0  0  0  0  0  0  0  0  0
    8.4700  -14.8707   22.0271 C   0  0  2  0  0  0  0  0  0  0  0  0
    8.5540  -16.1874   21.4038 N   0  0  0  0  0  0  0  0  0  0  0  0
    8.5086  -14.8957   23.4730 C   0  0  0  0  0  0  0  0  0  0  0  0
    8.0743  -14.0800   24.2899 O   0  0  0  0  0  0  0  0  0  0  0  0
    9.1622  -16.0444   24.0903 N   0  0  0  0  0  0  0  0  0  0  0  0
    9.2332  -16.1516   25.5375 C   0  0  1  0  0  0  0  0  0  0  0  0
    7.9182  -15.7740   26.1211 C   0  0  0  0  0  0  0  0  0  0  0  0
    7.7674  -14.3346   26.4325 C   0  0  0  0  0  0  0  0  0  0  0  0
    8.8868  -13.5950   26.7343 C   0  0  0  0  0  0  0  0  0  0  0  0
    8.8395  -12.2519   27.0339 C   0  0  0  0  0  0  0  0  0  0  0  0
    7.6035  -11.6415   27.0244 C   0  0  0  0  0  0  0  0  0  0  0  0
    6.4709  -12.3717   26.7232 C   0  0  0  0  0  0  0  0  0  0  0  0
    6.5369  -13.7244   26.4241 C   0  0  0  0  0  0  0  0  0  0  0  0
    9.7722  -17.4538   25.9872 C   0  0  0  0  0  0  0  0  0  0  0  0
   10.0871  -17.7298   27.3075 O   0  0  0  0  0  0  0  0  0  0  0  0
    9.9616  -18.3646   25.1495 O   0  0  0  0  0  0  0  0  0  0  0  0
  1  2  1  0
  2  3  2  0
  4  5  1  0
  4  2  1  0
  5  6  1  6
  7  5  1  0
  7  8  2  0
  9 10  1  0
 10 11  1  0
 11 13  1  0
 11 12  1  1
 13 14  1  1
 14  7  1  0
 15 17  1  0
 15 13  1  0
 16 15  2  0
 18 17  1  0
 18 26  1  0
 18 19  1  1
 20 19  1  0
 20 25  2  0
 21 20  1  0
 22 21  2  0
 22 23  1  0
 23 24  2  0
 24 25  1  0
 26 27  1  0
 28 26  2  0
M  END
$$$$
