NIF.pdb
     RDKit          3D

 28 28  0  0  1  0  0  0  0  0999 V2000
    6.1809  -16.4830   19.3480 N   0  0  0  0  0  0  0  0  0  0  0  0
    6.6221  -17.2975   20.4223 C   0  0  0  0  0  0  0  0  0  0  0  0
    6.4252  -18.5270   20.3631 O   0  0  0  0  0  0  0  0  0  0  0  0
    7.2933  -16.6959   21.5711 C   0  0  0  0  0  0  0  0  0  0  0  0
    7.3267  -15.2050   21.6026 C   0  0  2  0  0  0  0  0  0  0  0  0
    7.8128  -14.6155   20.3760 N   0  0  0  0  0  0  0  0  0  0  0  0
    7.9982  -14.6367   22.8133 C   0  0  0  0  0  0  0  0  0  0  0  0
    9.1810  -14.2053   22.7571 O   0  0  0  0  0  0  0  0  0  0  0  0
    5.8200  -11.3226   26.2828 C   0  0  0  0  0  0  0  0  0  0  0  0
    6.7442  -12.1919   25.5376 C   0  0  0  0  0  0  0  0  0  0  0  0
    7.2434  -13.4513   26.1147 C   0  0  2  0  0  0  0  0  0  0  0  0
    7.9281  -13.1662   27.4828 C   0  0  0  0  0  0  0  0  0  0  0  0
    7.9457  -14.4597   25.3469 C   0  0  2  0  0  0  0  0  0  0  0  0
    7.3051  -14.5845   24.0418 N   0  0  0  0  0  0  0  0  0  0  0  0
    8.4501  -15.7057   25.8813 C   0  0  0  0  0  0  0  0  0  0  0  0
    7.8457  -16.7345   26.1937 O   0  0  0  0  0  0  0  0  0  0  0  0
    9.8893  -15.7869   26.1046 N   0  0  0  0  0  0  0  0  0  0  0  0
   10.4701  -16.9853   26.6855 C   0  0  1  0  0  0  0  0  0  0  0  0
   11.6274  -17.4188   25.8577 C   0  0  0  0  0  0  0  0  0  0  0  0
   11.3362  -17.5695   24.4141 C   0  0  0  0  0  0  0  0  0  0  0  0
   11.7725  -16.6020   23.5395 C   0  0  0  0  0  0  0  0  0  0  0  0
   11.5482  -16.6622   22.1823 C   0  0  0  0  0  0  0  0  0  0  0  0
   10.8532  -17.7507   21.7004 C   0  0  0  0  0  0  0  0  0  0  0  0
   10.4089  -18.7299   22.5668 C   0  0  0  0  0  0  0  0  0  0  0  0
   10.6435  -18.6530   23.9316 C   0  0  0  0  0  0  0  0  0  0  0  0
   10.7479  -16.8414   28.1314 C   0  0  0  0  0  0  0  0  0  0  0  0
   10.5309  -15.6669   28.8328 O   0  0  0  0  0  0  0  0  0  0  0  0
   11.2028  -17.8164   28.7715 O   0  0  0  0  0  0  0  0  0  0  0  0
  1  2  1  0
  2  3  2  0
  4  5  1  0
  4  2  1  0
  5  6  1  6
  7  5  1  0
  7  8  2  0
  9 10  1  0
 10 11  1  0
 11 13  1  0
 11 12  1  1
 13 14  1  6
 14  7  1  0
 15 17  1  0
 15 13  1  0
 16 15  2  0
 18 17  1  0
 18 26  1  0
 18 19  1  6
 20 19  1  0
 20 25  2  0
 21 20  1  0
 22 21  2  0
 22 23  1  0
 23 24  2  0
 24 25  1  0
 26 27  1  0
 28 26  2  0
M  END
$$$$
