NIF.pdb
     RDKit          3D

 28 28  0  0  1  0  0  0  0  0999 V2000
   14.8575  -17.8009   17.9210 N   0  0  0  0  0  0  0  0  0  0  0  0
   13.5806  -18.1148   18.4530 C   0  0  0  0  0  0  0  0  0  0  0  0
   12.9828  -19.1211   18.0240 O   0  0  0  0  0  0  0  0  0  0  0  0
   12.9872  -17.2677   19.4838 C   0  0  0  0  0  0  0  0  0  0  0  0
   11.6234  -16.7392   19.1914 C   0  0  2  0  0  0  0  0  0  0  0  0
   11.5451  -16.0095   17.9464 N   0  0  0  0  0  0  0  0  0  0  0  0
   11.0032  -15.9917   20.3300 C   0  0  0  0  0  0  0  0  0  0  0  0
   11.7140  -15.3474   21.1473 O   0  0  0  0  0  0  0  0  0  0  0  0
    7.3594  -12.9158   18.9604 C   0  0  0  0  0  0  0  0  0  0  0  0
    8.2800  -13.3367   20.0284 C   0  0  0  0  0  0  0  0  0  0  0  0
    7.9220  -14.4130   20.9674 C   0  0  2  0  0  0  0  0  0  0  0  0
    6.8880  -13.8832   22.0027 C   0  0  0  0  0  0  0  0  0  0  0  0
    8.8922  -15.3073   21.5661 C   0  0  2  0  0  0  0  0  0  0  0  0
    9.6023  -16.0080   20.5013 N   0  0  0  0  0  0  0  0  0  0  0  0
    8.6628  -16.1054   22.7507 C   0  0  0  0  0  0  0  0  0  0  0  0
    8.3376  -17.2906   22.8549 O   0  0  0  0  0  0  0  0  0  0  0  0
    8.8244  -15.4322   24.0345 N   0  0  0  0  0  0  0  0  0  0  0  0
    8.5530  -16.1457   25.2707 C   0  0  1  0  0  0  0  0  0  0  0  0
    8.8516  -15.2561   26.4248 C   0  0  0  0  0  0  0  0  0  0  0  0
    8.0655  -14.0022   26.4618 C   0  0  0  0  0  0  0  0  0  0  0  0
    8.6801  -12.8177   26.1291 C   0  0  0  0  0  0  0  0  0  0  0  0
    8.0255  -11.6063   26.1344 C   0  0  0  0  0  0  0  0  0  0  0  0
    6.6943  -11.6045   26.4923 C   0  0  0  0  0  0  0  0  0  0  0  0
    6.0642  -12.7862   26.8289 C   0  0  0  0  0  0  0  0  0  0  0  0
    6.7392  -13.9978   26.8185 C   0  0  0  0  0  0  0  0  0  0  0  0
    7.2119  -16.7700   25.2863 C   0  0  0  0  0  0  0  0  0  0  0  0
    6.2067  -16.4315   24.3956 O   0  0  0  0  0  0  0  0  0  0  0  0
    6.9513  -17.6489   26.1389 O   0  0  0  0  0  0  0  0  0  0  0  0
  1  2  1  0
  2  3  2  0
  4  5  1  0
  4  2  1  0
  5  6  1  6
  7  5  1  0
  7  8  2  0
  9 10  1  0
 10 11  1  0
 11 13  1  0
 11 12  1  1
 13 14  1  6
 14  7  1  0
 15 17  1  0
 15 13  1  0
 16 15  2  0
 18 17  1  0
 18 26  1  0
 18 19  1  1
 20 19  1  0
 20 25  2  0
 21 20  1  0
 22 21  2  0
 22 23  1  0
 23 24  2  0
 24 25  1  0
 26 27  1  0
 28 26  2  0
M  END
$$$$
