NIF.pdb
     RDKit          3D

 28 28  0  0  1  0  0  0  0  0999 V2000
   15.3279  -14.7354   19.9559 N   0  0  0  0  0  0  0  0  0  0  0  0
   14.3708  -14.1818   19.0672 C   0  0  0  0  0  0  0  0  0  0  0  0
   14.7312  -13.8706   17.9152 O   0  0  0  0  0  0  0  0  0  0  0  0
   12.9917  -13.9849   19.5049 C   0  0  0  0  0  0  0  0  0  0  0  0
   12.3747  -15.1177   20.2537 C   0  0  2  0  0  0  0  0  0  0  0  0
   12.0714  -16.2592   19.4209 N   0  0  0  0  0  0  0  0  0  0  0  0
   11.2189  -14.7190   21.1169 C   0  0  0  0  0  0  0  0  0  0  0  0
   11.2219  -13.6237   21.7403 O   0  0  0  0  0  0  0  0  0  0  0  0
    6.9029  -13.6713   19.1194 C   0  0  0  0  0  0  0  0  0  0  0  0
    8.0129  -13.9671   20.0390 C   0  0  0  0  0  0  0  0  0  0  0  0
    7.8454  -14.9003   21.1657 C   0  0  2  0  0  0  0  0  0  0  0  0
    6.5408  -14.5568   21.9416 C   0  0  0  0  0  0  0  0  0  0  0  0
    8.9258  -15.2887   22.0496 C   0  0  2  0  0  0  0  0  0  0  0  0
   10.1075  -15.5796   21.2445 N   0  0  0  0  0  0  0  0  0  0  0  0
    8.7798  -16.1333   23.2150 C   0  0  0  0  0  0  0  0  0  0  0  0
    9.3320  -17.2008   23.4922 O   0  0  0  0  0  0  0  0  0  0  0  0
    7.8358  -15.6860   24.2331 N   0  0  0  0  0  0  0  0  0  0  0  0
    7.7125  -16.4158   25.4833 C   0  0  1  0  0  0  0  0  0  0  0  0
    6.8743  -15.6299   26.4279 C   0  0  0  0  0  0  0  0  0  0  0  0
    7.2303  -14.1965   26.5290 C   0  0  0  0  0  0  0  0  0  0  0  0
    8.4089  -13.8420   27.1426 C   0  0  0  0  0  0  0  0  0  0  0  0
    8.8195  -12.5348   27.2788 C   0  0  0  0  0  0  0  0  0  0  0  0
    7.9963  -11.5535   26.7693 C   0  0  0  0  0  0  0  0  0  0  0  0
    6.8099  -11.8946   26.1507 C   0  0  0  0  0  0  0  0  0  0  0  0
    6.4116  -13.2170   26.0225 C   0  0  0  0  0  0  0  0  0  0  0  0
    7.2914  -17.8200   25.2850 C   0  0  0  0  0  0  0  0  0  0  0  0
    6.7204  -18.2827   24.1109 O   0  0  0  0  0  0  0  0  0  0  0  0
    7.4487  -18.6472   26.2115 O   0  0  0  0  0  0  0  0  0  0  0  0
  1  2  1  0
  2  3  2  0
  4  5  1  0
  4  2  1  0
  5  6  1  6
  7  5  1  0
  7  8  2  0
  9 10  1  0
 10 11  1  0
 11 13  1  0
 11 12  1  1
 13 14  1  6
 14  7  1  0
 15 17  1  0
 15 13  1  0
 16 15  2  0
 18 17  1  0
 18 26  1  0
 18 19  1  1
 20 19  1  0
 20 25  2  0
 21 20  1  0
 22 21  2  0
 22 23  1  0
 23 24  2  0
 24 25  1  0
 26 27  1  0
 28 26  2  0
M  END
$$$$
