NIF.pdb
     RDKit          3D

 28 28  0  0  1  0  0  0  0  0999 V2000
    9.7666  -20.4125   17.3127 N   0  0  0  0  0  0  0  0  0  0  0  0
   10.4451  -20.5218   18.5537 C   0  0  0  0  0  0  0  0  0  0  0  0
   10.7720  -21.6537   18.9610 O   0  0  0  0  0  0  0  0  0  0  0  0
   10.7495  -19.3238   19.3310 C   0  0  0  0  0  0  0  0  0  0  0  0
   10.1812  -18.0457   18.8131 C   0  0  2  0  0  0  0  0  0  0  0  0
   10.7251  -17.6524   17.5332 N   0  0  0  0  0  0  0  0  0  0  0  0
   10.1953  -16.9265   19.8065 C   0  0  0  0  0  0  0  0  0  0  0  0
   11.2733  -16.3597   20.1305 O   0  0  0  0  0  0  0  0  0  0  0  0
    7.1340  -12.6833   19.3074 C   0  0  0  0  0  0  0  0  0  0  0  0
    8.1637  -13.6243   19.7757 C   0  0  0  0  0  0  0  0  0  0  0  0
    7.9558  -14.4512   20.9763 C   0  0  2  0  0  0  0  0  0  0  0  0
    7.4462  -13.5594   22.1454 C   0  0  0  0  0  0  0  0  0  0  0  0
    8.8926  -15.4624   21.4228 C   0  0  2  0  0  0  0  0  0  0  0  0
    8.9880  -16.4969   20.3982 N   0  0  0  0  0  0  0  0  0  0  0  0
    8.9921  -15.9590   22.7779 C   0  0  0  0  0  0  0  0  0  0  0  0
    8.4006  -16.8941   23.3228 O   0  0  0  0  0  0  0  0  0  0  0  0
    9.9192  -15.2632   23.6633 N   0  0  0  0  0  0  0  0  0  0  0  0
    9.9206  -15.5499   25.0876 C   0  0  1  0  0  0  0  0  0  0  0  0
   10.5934  -14.4373   25.8099 C   0  0  0  0  0  0  0  0  0  0  0  0
   10.5374  -14.5318   27.2862 C   0  0  0  0  0  0  0  0  0  0  0  0
   11.1330  -15.6025   27.9107 C   0  0  0  0  0  0  0  0  0  0  0  0
   11.1310  -15.7692   29.2775 C   0  0  0  0  0  0  0  0  0  0  0  0
   10.4977  -14.8068   30.0345 C   0  0  0  0  0  0  0  0  0  0  0  0
    9.8952  -13.7263   29.4211 C   0  0  0  0  0  0  0  0  0  0  0  0
    9.9066  -13.5744   28.0425 C   0  0  0  0  0  0  0  0  0  0  0  0
    8.5803  -15.9134   25.5975 C   0  0  0  0  0  0  0  0  0  0  0  0
    7.4368  -15.1855   25.3130 O   0  0  0  0  0  0  0  0  0  0  0  0
    8.4510  -16.9243   26.3246 O   0  0  0  0  0  0  0  0  0  0  0  0
  1  2  1  0
  2  3  2  0
  4  5  1  0
  4  2  1  0
  5  6  1  6
  7  5  1  0
  7  8  2  0
  9 10  1  0
 10 11  1  0
 11 13  1  0
 11 12  1  1
 13 14  1  6
 14  7  1  0
 15 17  1  0
 15 13  1  0
 16 15  2  0
 18 17  1  0
 18 26  1  0
 18 19  1  1
 20 19  1  0
 20 25  2  0
 21 20  1  0
 22 21  2  0
 22 23  1  0
 23 24  2  0
 24 25  1  0
 26 27  1  0
 28 26  2  0
M  END
$$$$
