NIF.pdb
     RDKit          3D

 28 28  0  0  1  0  0  0  0  0999 V2000
    8.8641  -20.6473   18.3435 N   0  0  0  0  0  0  0  0  0  0  0  0
    9.6187  -20.7724   19.5381 C   0  0  0  0  0  0  0  0  0  0  0  0
   10.0654  -21.8934   19.8509 O   0  0  0  0  0  0  0  0  0  0  0  0
    9.8616  -19.6028   20.3779 C   0  0  0  0  0  0  0  0  0  0  0  0
    9.1856  -18.3421   19.9554 C   0  0  2  0  0  0  0  0  0  0  0  0
    9.2508  -18.1050   18.5314 N   0  0  0  0  0  0  0  0  0  0  0  0
    9.5861  -17.1402   20.7522 C   0  0  0  0  0  0  0  0  0  0  0  0
   10.8007  -16.8601   20.9382 O   0  0  0  0  0  0  0  0  0  0  0  0
    7.0274  -12.6953   19.4304 C   0  0  0  0  0  0  0  0  0  0  0  0
    8.0306  -13.6150   19.9900 C   0  0  0  0  0  0  0  0  0  0  0  0
    7.9903  -14.0231   21.4042 C   0  0  2  0  0  0  0  0  0  0  0  0
    7.8762  -12.7632   22.3106 C   0  0  0  0  0  0  0  0  0  0  0  0
    8.8629  -15.0318   21.9705 C   0  0  2  0  0  0  0  0  0  0  0  0
    8.5947  -16.3059   21.3118 N   0  0  0  0  0  0  0  0  0  0  0  0
    9.1932  -15.1480   23.3741 C   0  0  0  0  0  0  0  0  0  0  0  0
   10.0163  -14.5229   24.0472 O   0  0  0  0  0  0  0  0  0  0  0  0
    8.4648  -16.1560   24.1364 N   0  0  0  0  0  0  0  0  0  0  0  0
    8.6703  -16.2750   25.5698 C   0  0  1  0  0  0  0  0  0  0  0  0
    7.5001  -15.6949   26.2815 C   0  0  0  0  0  0  0  0  0  0  0  0
    7.5433  -14.2250   26.4522 C   0  0  0  0  0  0  0  0  0  0  0  0
    6.3950  -13.4948   26.2538 C   0  0  0  0  0  0  0  0  0  0  0  0
    6.3438  -12.1259   26.3926 C   0  0  0  0  0  0  0  0  0  0  0  0
    7.5081  -11.4788   26.7475 C   0  0  0  0  0  0  0  0  0  0  0  0
    8.6687  -12.1990   26.9498 C   0  0  0  0  0  0  0  0  0  0  0  0
    8.7023  -13.5780   26.8053 C   0  0  0  0  0  0  0  0  0  0  0  0
    9.0418  -17.6466   25.9809 C   0  0  0  0  0  0  0  0  0  0  0  0
    9.4514  -17.9698   27.2640 O   0  0  0  0  0  0  0  0  0  0  0  0
    8.9918  -18.5758   25.1433 O   0  0  0  0  0  0  0  0  0  0  0  0
  1  2  1  0
  2  3  2  0
  4  5  1  0
  4  2  1  0
  5  6  1  6
  7  5  1  0
  7  8  2  0
  9 10  1  0
 10 11  1  0
 11 13  1  0
 11 12  1  1
 13 14  1  1
 14  7  1  0
 15 17  1  0
 15 13  1  0
 16 15  2  0
 18 17  1  0
 18 26  1  0
 18 19  1  1
 20 19  1  0
 20 25  2  0
 21 20  1  0
 22 21  2  0
 22 23  1  0
 23 24  2  0
 24 25  1  0
 26 27  1  0
 28 26  2  0
M  END
$$$$
