TAT.pdb
     RDKit          3D

 20 19  0  0  1  0  0  0  0  0999 V2000
    6.4117  -13.6442   18.6853 C   0  0  0  0  0  0  0  0  0  0  0  0
    6.9588  -14.1560   20.0058 C   0  0  1  0  0  0  0  0  0  0  0  0
    7.7694  -15.2546   19.8615 O   0  0  0  0  0  0  0  0  0  0  0  0
    7.6941  -12.9781   20.6427 C   0  0  2  0  0  0  0  0  0  0  0  0
    8.7617  -12.5242   19.8070 N   0  0  0  0  0  0  0  0  0  0  0  0
    8.1416  -13.2989   22.0227 C   0  0  0  0  0  0  0  0  0  0  0  0
    9.3156  -13.7050   22.2201 O   0  0  0  0  0  0  0  0  0  0  0  0
    6.7020  -13.1279   25.4792 C   0  0  0  0  0  0  0  0  0  0  0  0
    7.7147  -13.5957   24.4269 C   0  0  2  0  0  0  0  0  0  0  0  0
    7.2813  -13.1624   23.1443 N   0  0  0  0  0  0  0  0  0  0  0  0
    7.8688  -15.0685   24.5357 C   0  0  0  0  0  0  0  0  0  0  0  0
    7.0296  -15.8961   24.1232 O   0  0  0  0  0  0  0  0  0  0  0  0
   11.5667  -16.6155   24.2530 C   0  0  0  0  0  0  0  0  0  0  0  0
   10.3305  -17.4352   24.2591 C   0  0  1  0  0  0  0  0  0  0  0  0
   10.6611  -18.7732   24.4246 O   0  0  0  0  0  0  0  0  0  0  0  0
    9.3064  -17.0043   25.2764 C   0  0  2  0  0  0  0  0  0  0  0  0
    9.0422  -15.5852   25.1465 N   0  0  0  0  0  0  0  0  0  0  0  0
    9.6590  -17.3859   26.6543 C   0  0  0  0  0  0  0  0  0  0  0  0
    9.7970  -18.6676   27.1069 O   0  0  0  0  0  0  0  0  0  0  0  0
    9.8514  -16.4504   27.4943 O   0  0  0  0  0  0  0  0  0  0  0  0
  2  1  1  6
  2  3  1  0
  4  2  1  0
  4  5  1  6
  6 10  1  0
  6  4  1  0
  7  6  2  0
  9  8  1  1
  9 11  1  0
  9 10  1  0
 11 12  2  0
 14 13  1  1
 15 14  1  0
 16 18  1  0
 16 14  1  0
 17 11  1  0
 16 17  1  1
 18 19  1  0
 20 18  2  0
M  END
$$$$
