TAT.pdb
     RDKit          3D

 20 19  0  0  1  0  0  0  0  0999 V2000
    6.5194  -17.9895   17.9779 C   0  0  0  0  0  0  0  0  0  0  0  0
    7.5450  -17.9179   16.8608 C   0  0  1  0  0  0  0  0  0  0  0  0
    7.1118  -18.5010   15.6959 O   0  0  0  0  0  0  0  0  0  0  0  0
    7.8662  -16.4356   16.6775 C   0  0  2  0  0  0  0  0  0  0  0  0
    8.7037  -16.2269   15.5377 N   0  0  0  0  0  0  0  0  0  0  0  0
    8.4280  -15.8438   17.9192 C   0  0  0  0  0  0  0  0  0  0  0  0
    9.5476  -16.2291   18.3436 O   0  0  0  0  0  0  0  0  0  0  0  0
    7.4486  -13.1510   20.3401 C   0  0  0  0  0  0  0  0  0  0  0  0
    8.3157  -14.3135   19.8417 C   0  0  2  0  0  0  0  0  0  0  0  0
    7.7387  -14.8446   18.6560 N   0  0  0  0  0  0  0  0  0  0  0  0
    8.4508  -15.3097   20.9344 C   0  0  0  0  0  0  0  0  0  0  0  0
    7.5163  -16.0222   21.3565 O   0  0  0  0  0  0  0  0  0  0  0  0
   10.4652  -18.2767   21.1388 C   0  0  0  0  0  0  0  0  0  0  0  0
   10.9065  -17.4528   22.2905 C   0  0  1  0  0  0  0  0  0  0  0  0
   12.1685  -16.9343   22.0344 O   0  0  0  0  0  0  0  0  0  0  0  0
    9.9439  -16.3598   22.6753 C   0  0  2  0  0  0  0  0  0  0  0  0
    9.7200  -15.4746   21.5499 N   0  0  0  0  0  0  0  0  0  0  0  0
   10.3457  -15.6322   23.8908 C   0  0  0  0  0  0  0  0  0  0  0  0
   10.3211  -16.1405   25.1588 O   0  0  0  0  0  0  0  0  0  0  0  0
   10.7488  -14.4336   23.7543 O   0  0  0  0  0  0  0  0  0  0  0  0
  2  1  1  1
  2  3  1  0
  4  2  1  0
  4  5  1  6
  6 10  1  0
  6  4  1  0
  7  6  2  0
  9  8  1  1
  9 11  1  0
  9 10  1  0
 11 12  2  0
 14 13  1  6
 15 14  1  0
 16 18  1  0
 16 14  1  0
 17 11  1  0
 16 17  1  6
 18 19  1  0
 20 18  2  0
M  END
$$$$
