TAT.pdb
     RDKit          3D

 20 19  0  0  1  0  0  0  0  0999 V2000
    8.1029  -12.5883   15.8974 C   0  0  0  0  0  0  0  0  0  0  0  0
    8.5873  -13.2502   17.1750 C   0  0  1  0  0  0  0  0  0  0  0  0
    7.5611  -13.6717   17.9839 O   0  0  0  0  0  0  0  0  0  0  0  0
    9.4862  -14.4052   16.7370 C   0  0  2  0  0  0  0  0  0  0  0  0
    8.7674  -15.3396   15.9280 N   0  0  0  0  0  0  0  0  0  0  0  0
   10.1528  -15.0461   17.9000 C   0  0  0  0  0  0  0  0  0  0  0  0
    9.6426  -16.0678   18.4273 O   0  0  0  0  0  0  0  0  0  0  0  0
   13.3268  -14.6336   19.8328 C   0  0  0  0  0  0  0  0  0  0  0  0
   11.8695  -15.0791   19.6613 C   0  0  2  0  0  0  0  0  0  0  0  0
   11.3622  -14.5415   18.4471 N   0  0  0  0  0  0  0  0  0  0  0  0
   11.1002  -14.6646   20.8618 C   0  0  0  0  0  0  0  0  0  0  0  0
   10.5757  -13.5408   21.0079 O   0  0  0  0  0  0  0  0  0  0  0  0
    8.4006  -14.1192   21.6277 C   0  0  0  0  0  0  0  0  0  0  0  0
    8.6310  -15.2483   22.5614 C   0  0  1  0  0  0  0  0  0  0  0  0
    8.2012  -16.4310   21.9753 O   0  0  0  0  0  0  0  0  0  0  0  0
   10.0525  -15.3729   23.0443 C   0  0  2  0  0  0  0  0  0  0  0  0
   10.9418  -15.5962   21.9219 N   0  0  0  0  0  0  0  0  0  0  0  0
   10.2208  -16.3820   24.1034 C   0  0  0  0  0  0  0  0  0  0  0  0
    9.7041  -16.2949   25.3651 O   0  0  0  0  0  0  0  0  0  0  0  0
   10.9013  -17.4201   23.8259 O   0  0  0  0  0  0  0  0  0  0  0  0
  2  1  1  6
  2  3  1  0
  4  2  1  0
  4  5  1  1
  6 10  1  0
  6  4  1  0
  7  6  2  0
  9  8  1  1
  9 11  1  0
  9 10  1  0
 11 12  2  0
 14 13  1  6
 15 14  1  0
 16 18  1  0
 16 14  1  0
 17 11  1  0
 16 17  1  6
 18 19  1  0
 20 18  2  0
M  END
$$$$
