TAT.pdb
     RDKit          3D

 20 19  0  0  1  0  0  0  0  0999 V2000
    6.8691  -15.7295   19.5826 C   0  0  0  0  0  0  0  0  0  0  0  0
    7.8061  -14.7369   18.9181 C   0  0  1  0  0  0  0  0  0  0  0  0
    7.4789  -14.4829   17.6092 O   0  0  0  0  0  0  0  0  0  0  0  0
    7.7619  -13.4747   19.7776 C   0  0  2  0  0  0  0  0  0  0  0  0
    8.4035  -12.3799   19.1188 N   0  0  0  0  0  0  0  0  0  0  0  0
    8.3048  -13.7243   21.1379 C   0  0  0  0  0  0  0  0  0  0  0  0
    9.5398  -13.9048   21.2941 O   0  0  0  0  0  0  0  0  0  0  0  0
    7.0854  -13.5253   24.6484 C   0  0  0  0  0  0  0  0  0  0  0  0
    8.0321  -14.0477   23.5611 C   0  0  2  0  0  0  0  0  0  0  0  0
    7.4699  -13.7676   22.2858 N   0  0  0  0  0  0  0  0  0  0  0  0
    8.2779  -15.4929   23.7975 C   0  0  0  0  0  0  0  0  0  0  0  0
    7.4192  -16.3866   23.6458 O   0  0  0  0  0  0  0  0  0  0  0  0
   10.6747  -17.6247   22.1113 C   0  0  0  0  0  0  0  0  0  0  0  0
   11.0174  -17.7230   23.5511 C   0  0  1  0  0  0  0  0  0  0  0  0
   12.1867  -17.0172   23.7996 O   0  0  0  0  0  0  0  0  0  0  0  0
    9.9165  -17.2845   24.4812 C   0  0  2  0  0  0  0  0  0  0  0  0
    9.5693  -15.9010   24.2245 N   0  0  0  0  0  0  0  0  0  0  0  0
   10.2206  -17.5331   25.9004 C   0  0  0  0  0  0  0  0  0  0  0  0
   10.3470  -18.7658   26.4758 O   0  0  0  0  0  0  0  0  0  0  0  0
   10.3792  -16.5217   26.6553 O   0  0  0  0  0  0  0  0  0  0  0  0
  2  1  1  1
  2  3  1  0
  4  2  1  0
  4  5  1  6
  6 10  1  0
  6  4  1  0
  7  6  2  0
  9  8  1  1
  9 11  1  0
  9 10  1  0
 11 12  2  0
 14 13  1  6
 15 14  1  0
 16 18  1  0
 16 14  1  0
 17 11  1  0
 16 17  1  1
 18 19  1  0
 20 18  2  0
M  END
$$$$
