TAT.pdb
     RDKit          3D

 20 19  0  0  1  0  0  0  0  0999 V2000
    6.9031  -21.0669   22.7802 C   0  0  0  0  0  0  0  0  0  0  0  0
    6.0588  -20.5119   21.6471 C   0  0  1  0  0  0  0  0  0  0  0  0
    5.0948  -21.3893   21.2161 O   0  0  0  0  0  0  0  0  0  0  0  0
    5.4581  -19.2077   22.1686 C   0  0  2  0  0  0  0  0  0  0  0  0
    4.4139  -18.7417   21.3102 N   0  0  0  0  0  0  0  0  0  0  0  0
    6.5072  -18.1826   22.4054 C   0  0  0  0  0  0  0  0  0  0  0  0
    7.2923  -17.8659   21.4751 O   0  0  0  0  0  0  0  0  0  0  0  0
    7.4276  -15.8099   25.1495 C   0  0  0  0  0  0  0  0  0  0  0  0
    7.6808  -16.5641   23.8386 C   0  0  2  0  0  0  0  0  0  0  0  0
    6.6597  -17.5371   23.6611 N   0  0  0  0  0  0  0  0  0  0  0  0
    9.0492  -17.1391   23.8764 C   0  0  0  0  0  0  0  0  0  0  0  0
    9.3281  -18.2612   24.3480 O   0  0  0  0  0  0  0  0  0  0  0  0
   13.6553  -16.6334   22.0632 C   0  0  0  0  0  0  0  0  0  0  0  0
   12.2393  -16.2075   22.1797 C   0  0  1  0  0  0  0  0  0  0  0  0
   11.5866  -16.4297   20.9749 O   0  0  0  0  0  0  0  0  0  0  0  0
   11.4924  -16.8456   23.3218 C   0  0  2  0  0  0  0  0  0  0  0  0
   10.1218  -16.3749   23.3452 N   0  0  0  0  0  0  0  0  0  0  0  0
   12.1650  -16.6804   24.6213 C   0  0  0  0  0  0  0  0  0  0  0  0
   13.1448  -17.4966   25.1117 O   0  0  0  0  0  0  0  0  0  0  0  0
   11.8084  -15.7004   25.3494 O   0  0  0  0  0  0  0  0  0  0  0  0
  2  1  1  1
  2  3  1  0
  4  2  1  0
  4  5  1  6
  6 10  1  0
  6  4  1  0
  7  6  2  0
  9  8  1  1
  9 11  1  0
  9 10  1  0
 11 12  2  0
 14 13  1  6
 15 14  1  0
 16 18  1  0
 16 14  1  0
 17 11  1  0
 16 17  1  1
 18 19  1  0
 20 18  2  0
M  END
$$$$
