TAT.pdb
     RDKit          3D

 20 19  0  0  1  0  0  0  0  0999 V2000
    7.1831  -16.6036   14.4721 C   0  0  0  0  0  0  0  0  0  0  0  0
    7.6895  -16.4389   15.8938 C   0  0  1  0  0  0  0  0  0  0  0  0
    8.3174  -17.5616   16.3737 O   0  0  0  0  0  0  0  0  0  0  0  0
    8.6172  -15.2253   15.8732 C   0  0  2  0  0  0  0  0  0  0  0  0
    9.7078  -15.4255   14.9707 N   0  0  0  0  0  0  0  0  0  0  0  0
    9.0642  -14.8598   17.2422 C   0  0  0  0  0  0  0  0  0  0  0  0
   10.1785  -15.2631   17.6639 O   0  0  0  0  0  0  0  0  0  0  0  0
    7.7227  -12.8309   20.1003 C   0  0  0  0  0  0  0  0  0  0  0  0
    8.7095  -13.7953   19.4312 C   0  0  2  0  0  0  0  0  0  0  0  0
    8.2694  -14.0603   18.1058 N   0  0  0  0  0  0  0  0  0  0  0  0
    8.8297  -15.0132   20.2720 C   0  0  0  0  0  0  0  0  0  0  0  0
    7.9237  -15.8602   20.4171 O   0  0  0  0  0  0  0  0  0  0  0  0
   10.7282  -17.8653   19.8633 C   0  0  0  0  0  0  0  0  0  0  0  0
   11.1923  -17.3686   21.1816 C   0  0  1  0  0  0  0  0  0  0  0  0
   12.4680  -16.8362   21.0546 O   0  0  0  0  0  0  0  0  0  0  0  0
   10.2602  -16.3819   21.8350 C   0  0  2  0  0  0  0  0  0  0  0  0
   10.0489  -15.2439   20.9628 N   0  0  0  0  0  0  0  0  0  0  0  0
   10.6901  -15.9820   23.1855 C   0  0  0  0  0  0  0  0  0  0  0  0
   11.0508  -14.7174   23.5563 O   0  0  0  0  0  0  0  0  0  0  0  0
   10.7304  -16.8830   24.0823 O   0  0  0  0  0  0  0  0  0  0  0  0
  2  1  1  6
  2  3  1  0
  4  2  1  0
  4  5  1  6
  6 10  1  0
  6  4  1  0
  7  6  2  0
  9  8  1  1
  9 11  1  0
  9 10  1  0
 11 12  2  0
 14 13  1  6
 15 14  1  0
 16 18  1  0
 16 14  1  0
 17 11  1  0
 16 17  1  6
 18 19  1  0
 20 18  2  0
M  END
$$$$
