TAT.pdb
     RDKit          3D

 20 19  0  0  1  0  0  0  0  0999 V2000
    7.1571  -17.1490   16.2894 C   0  0  0  0  0  0  0  0  0  0  0  0
    8.1030  -16.6161   15.2282 C   0  0  1  0  0  0  0  0  0  0  0  0
    7.7093  -16.9305   13.9511 O   0  0  0  0  0  0  0  0  0  0  0  0
    8.1798  -15.1067   15.4514 C   0  0  2  0  0  0  0  0  0  0  0  0
    8.8304  -14.4563   14.3569 N   0  0  0  0  0  0  0  0  0  0  0  0
    8.7989  -14.7821   16.7625 C   0  0  0  0  0  0  0  0  0  0  0  0
   10.0039  -15.0745   16.9737 O   0  0  0  0  0  0  0  0  0  0  0  0
    7.7554  -13.0211   19.9058 C   0  0  0  0  0  0  0  0  0  0  0  0
    8.7110  -13.8465   19.0357 C   0  0  2  0  0  0  0  0  0  0  0  0
    8.0710  -14.1446   17.8019 N   0  0  0  0  0  0  0  0  0  0  0  0
    9.1264  -15.0523   19.7961 C   0  0  0  0  0  0  0  0  0  0  0  0
    8.4746  -16.1165   19.8385 O   0  0  0  0  0  0  0  0  0  0  0  0
   12.6261  -16.4285   19.4081 C   0  0  0  0  0  0  0  0  0  0  0  0
   12.3549  -16.3151   20.8619 C   0  0  1  0  0  0  0  0  0  0  0  0
   13.1051  -15.2758   21.3948 O   0  0  0  0  0  0  0  0  0  0  0  0
   10.8974  -16.1600   21.2100 C   0  0  2  0  0  0  0  0  0  0  0  0
   10.3426  -15.0078   20.5281 N   0  0  0  0  0  0  0  0  0  0  0  0
   10.6459  -16.1290   22.6606 C   0  0  0  0  0  0  0  0  0  0  0  0
   10.8919  -17.1572   23.5259 O   0  0  0  0  0  0  0  0  0  0  0  0
   10.1606  -15.0609   23.1521 O   0  0  0  0  0  0  0  0  0  0  0  0
  2  1  1  1
  2  3  1  0
  4  2  1  0
  4  5  1  6
  6 10  1  0
  6  4  1  0
  7  6  2  0
  9  8  1  1
  9 11  1  0
  9 10  1  0
 11 12  2  0
 14 13  1  6
 15 14  1  0
 16 18  1  0
 16 14  1  0
 17 11  1  0
 16 17  1  6
 18 19  1  0
 20 18  2  0
M  END
$$$$
