TAT.pdb
     RDKit          3D

 20 19  0  0  1  0  0  0  0  0999 V2000
    7.6817  -14.0013   15.4879 C   0  0  0  0  0  0  0  0  0  0  0  0
    7.9569  -14.8387   16.7240 C   0  0  1  0  0  0  0  0  0  0  0  0
    9.2787  -15.1859   16.8542 O   0  0  0  0  0  0  0  0  0  0  0  0
    7.4587  -14.0155   17.9106 C   0  0  2  0  0  0  0  0  0  0  0  0
    8.0377  -12.7082   17.9104 N   0  0  0  0  0  0  0  0  0  0  0  0
    7.6636  -14.7342   19.1948 C   0  0  0  0  0  0  0  0  0  0  0  0
    8.6282  -14.4209   19.9388 O   0  0  0  0  0  0  0  0  0  0  0  0
    5.7053  -17.1420   21.2727 C   0  0  0  0  0  0  0  0  0  0  0  0
    6.9740  -16.3637   20.9035 C   0  0  2  0  0  0  0  0  0  0  0  0
    6.7988  -15.7771   19.6206 N   0  0  0  0  0  0  0  0  0  0  0  0
    8.1370  -17.2834   20.9825 C   0  0  0  0  0  0  0  0  0  0  0  0
    8.4800  -17.8970   22.0145 O   0  0  0  0  0  0  0  0  0  0  0  0
   10.1214  -18.1294   17.2762 C   0  0  0  0  0  0  0  0  0  0  0  0
   10.1243  -19.0666   18.4258 C   0  0  1  0  0  0  0  0  0  0  0  0
   11.2339  -19.8968   18.3458 O   0  0  0  0  0  0  0  0  0  0  0  0
   10.0507  -18.3953   19.7725 C   0  0  2  0  0  0  0  0  0  0  0  0
    8.9205  -17.4891   19.8160 N   0  0  0  0  0  0  0  0  0  0  0  0
   11.3101  -17.7414   20.1660 C   0  0  0  0  0  0  0  0  0  0  0  0
   12.4956  -18.3827   20.3891 O   0  0  0  0  0  0  0  0  0  0  0  0
   11.2981  -16.4778   20.3112 O   0  0  0  0  0  0  0  0  0  0  0  0
  2  1  1  6
  2  3  1  0
  4  2  1  0
  4  5  1  1
  6 10  1  0
  6  4  1  0
  7  6  2  0
  9  8  1  6
  9 11  1  0
  9 10  1  0
 11 12  2  0
 14 13  1  6
 15 14  1  0
 16 18  1  0
 16 14  1  0
 17 11  1  0
 16 17  1  6
 18 19  1  0
 20 18  2  0
M  END
$$$$
