TAT.pdb
     RDKit          3D

 20 19  0  0  1  0  0  0  0  0999 V2000
    6.4951  -13.8227   18.2592 C   0  0  0  0  0  0  0  0  0  0  0  0
    7.1054  -14.3041   19.5633 C   0  0  1  0  0  0  0  0  0  0  0  0
    8.0482  -15.2860   19.3847 O   0  0  0  0  0  0  0  0  0  0  0  0
    7.6871  -13.0641   20.2398 C   0  0  2  0  0  0  0  0  0  0  0  0
    8.6461  -12.4195   19.3977 N   0  0  0  0  0  0  0  0  0  0  0  0
    8.2278  -13.3830   21.5865 C   0  0  0  0  0  0  0  0  0  0  0  0
    9.4635  -13.5637   21.7366 O   0  0  0  0  0  0  0  0  0  0  0  0
    7.0526  -13.2344   25.0958 C   0  0  0  0  0  0  0  0  0  0  0  0
    7.9550  -13.8040   23.9946 C   0  0  2  0  0  0  0  0  0  0  0  0
    7.3899  -13.4933   22.7277 N   0  0  0  0  0  0  0  0  0  0  0  0
    8.1286  -15.2603   24.2267 C   0  0  0  0  0  0  0  0  0  0  0  0
    7.2493  -16.1182   24.0026 O   0  0  0  0  0  0  0  0  0  0  0  0
   10.2218  -17.5842   22.6347 C   0  0  0  0  0  0  0  0  0  0  0  0
   10.6384  -17.6722   24.0555 C   0  0  1  0  0  0  0  0  0  0  0  0
   11.8744  -17.0610   24.2160 O   0  0  0  0  0  0  0  0  0  0  0  0
    9.6335  -17.1178   25.0313 C   0  0  2  0  0  0  0  0  0  0  0  0
    9.3704  -15.7234   24.7367 N   0  0  0  0  0  0  0  0  0  0  0  0
   10.0093  -17.3332   26.4387 C   0  0  0  0  0  0  0  0  0  0  0  0
    9.9751  -18.5341   27.0893 O   0  0  0  0  0  0  0  0  0  0  0  0
   10.3975  -16.3227   27.1065 O   0  0  0  0  0  0  0  0  0  0  0  0
  2  1  1  6
  2  3  1  0
  4  2  1  0
  4  5  1  6
  6 10  1  0
  6  4  1  0
  7  6  2  0
  9  8  1  1
  9 11  1  0
  9 10  1  0
 11 12  2  0
 14 13  1  6
 15 14  1  0
 16 18  1  0
 16 14  1  0
 17 11  1  0
 16 17  1  1
 18 19  1  0
 20 18  2  0
M  END
$$$$
