TAT.pdb
     RDKit          3D

 20 19  0  0  1  0  0  0  0  0999 V2000
    5.9234  -15.0392   19.7964 C   0  0  0  0  0  0  0  0  0  0  0  0
    6.5554  -15.2801   21.1556 C   0  0  1  0  0  0  0  0  0  0  0  0
    7.2700  -16.4508   21.2157 O   0  0  0  0  0  0  0  0  0  0  0  0
    7.4280  -14.0583   21.4375 C   0  0  2  0  0  0  0  0  0  0  0  0
    8.4380  -13.9045   20.4373 N   0  0  0  0  0  0  0  0  0  0  0  0
    7.9842  -14.0939   22.8148 C   0  0  0  0  0  0  0  0  0  0  0  0
    9.1553  -14.5117   23.0047 O   0  0  0  0  0  0  0  0  0  0  0  0
    6.8383  -13.1358   26.2548 C   0  0  0  0  0  0  0  0  0  0  0  0
    7.7587  -13.8408   25.2511 C   0  0  2  0  0  0  0  0  0  0  0  0
    7.2327  -13.6678   23.9418 N   0  0  0  0  0  0  0  0  0  0  0  0
    7.8993  -15.2637   25.6516 C   0  0  0  0  0  0  0  0  0  0  0  0
    6.9881  -16.1129   25.5629 O   0  0  0  0  0  0  0  0  0  0  0  0
    9.6749  -17.8759   24.2609 C   0  0  0  0  0  0  0  0  0  0  0  0
   10.2497  -17.7892   25.6255 C   0  0  1  0  0  0  0  0  0  0  0  0
   11.5142  -17.2200   25.5617 O   0  0  0  0  0  0  0  0  0  0  0  0
    9.3816  -17.0612   26.6183 C   0  0  2  0  0  0  0  0  0  0  0  0
    9.1458  -15.7028   26.1714 N   0  0  0  0  0  0  0  0  0  0  0  0
    9.9001  -17.1172   27.9954 C   0  0  0  0  0  0  0  0  0  0  0  0
   10.0057  -18.2492   28.7530 O   0  0  0  0  0  0  0  0  0  0  0  0
   10.2816  -16.0263   28.5266 O   0  0  0  0  0  0  0  0  0  0  0  0
  2  1  1  6
  2  3  1  0
  4  2  1  0
  4  5  1  6
  6 10  1  0
  6  4  1  0
  7  6  2  0
  9  8  1  1
  9 11  1  0
  9 10  1  0
 11 12  2  0
 14 13  1  6
 15 14  1  0
 16 18  1  0
 16 14  1  0
 17 11  1  0
 16 17  1  6
 18 19  1  0
 20 18  2  0
M  END
$$$$
