TAT.pdb
     RDKit          3D

 20 19  0  0  1  0  0  0  0  0999 V2000
    6.5986  -17.8549   17.6012 C   0  0  0  0  0  0  0  0  0  0  0  0
    7.5786  -17.6108   16.4677 C   0  0  1  0  0  0  0  0  0  0  0  0
    7.1534  -18.1283   15.2693 O   0  0  0  0  0  0  0  0  0  0  0  0
    7.7793  -16.0977   16.4022 C   0  0  2  0  0  0  0  0  0  0  0  0
    8.4922  -15.7230   15.2208 N   0  0  0  0  0  0  0  0  0  0  0  0
    8.4111  -15.5791   17.6429 C   0  0  0  0  0  0  0  0  0  0  0  0
    9.5836  -15.9256   17.9386 O   0  0  0  0  0  0  0  0  0  0  0  0
    7.4525  -13.2505   20.4254 C   0  0  0  0  0  0  0  0  0  0  0  0
    8.3536  -14.2776   19.7294 C   0  0  2  0  0  0  0  0  0  0  0  0
    7.7313  -14.6939   18.5210 N   0  0  0  0  0  0  0  0  0  0  0  0
    8.6235  -15.3917   20.6732 C   0  0  0  0  0  0  0  0  0  0  0  0
    7.8386  -16.3393   20.8860 O   0  0  0  0  0  0  0  0  0  0  0  0
   11.9955  -18.1288   22.8415 C   0  0  0  0  0  0  0  0  0  0  0  0
   11.5141  -17.0741   21.9165 C   0  0  1  0  0  0  0  0  0  0  0  0
   11.4255  -17.5890   20.6304 O   0  0  0  0  0  0  0  0  0  0  0  0
   10.2149  -16.4333   22.3300 C   0  0  2  0  0  0  0  0  0  0  0  0
    9.8505  -15.3938   21.3881 N   0  0  0  0  0  0  0  0  0  0  0  0
   10.2203  -15.9530   23.7220 C   0  0  0  0  0  0  0  0  0  0  0  0
    9.8645  -16.6938   24.8134 O   0  0  0  0  0  0  0  0  0  0  0  0
   10.5848  -14.7523   23.9299 O   0  0  0  0  0  0  0  0  0  0  0  0
  2  1  1  1
  2  3  1  0
  4  2  1  0
  4  5  1  6
  6 10  1  0
  6  4  1  0
  7  6  2  0
  9  8  1  1
  9 11  1  0
  9 10  1  0
 11 12  2  0
 14 13  1  1
 15 14  1  0
 16 18  1  0
 16 14  1  0
 17 11  1  0
 16 17  1  6
 18 19  1  0
 20 18  2  0
M  END
$$$$
