TAT.pdb
     RDKit          3D

 20 19  0  0  1  0  0  0  0  0999 V2000
   -4.8363  -19.5030   23.2805 C   0  0  0  0  0  0  0  0  0  0  0  0
   -4.2577  -20.7268   22.5932 C   0  0  1  0  0  0  0  0  0  0  0  0
   -3.8673  -20.4821   21.2999 O   0  0  0  0  0  0  0  0  0  0  0  0
   -3.0940  -21.1909   23.4674 C   0  0  2  0  0  0  0  0  0  0  0  0
   -2.3310  -22.2074   22.8128 N   0  0  0  0  0  0  0  0  0  0  0  0
   -3.5588  -21.6015   24.8176 C   0  0  0  0  0  0  0  0  0  0  0  0
   -4.1855  -22.6827   24.9603 O   0  0  0  0  0  0  0  0  0  0  0  0
   -3.1833  -20.3630   28.3310 C   0  0  0  0  0  0  0  0  0  0  0  0
   -3.8239  -21.2211   27.2333 C   0  0  2  0  0  0  0  0  0  0  0  0
   -3.3188  -20.8078   25.9704 N   0  0  0  0  0  0  0  0  0  0  0  0
   -5.3006  -21.1147   27.3463 C   0  0  0  0  0  0  0  0  0  0  0  0
   -5.9880  -20.2380   26.7823 O   0  0  0  0  0  0  0  0  0  0  0  0
   -7.7023  -23.0554   25.9094 C   0  0  0  0  0  0  0  0  0  0  0  0
   -7.9575  -23.2415   27.3586 C   0  0  1  0  0  0  0  0  0  0  0  0
   -7.4486  -24.4671   27.7664 O   0  0  0  0  0  0  0  0  0  0  0  0
   -7.4363  -22.1268   28.2277 C   0  0  2  0  0  0  0  0  0  0  0  0
   -5.9907  -22.0650   28.1446 N   0  0  0  0  0  0  0  0  0  0  0  0
   -7.9162  -22.2001   29.6179 C   0  0  0  0  0  0  0  0  0  0  0  0
   -9.1640  -21.8394   30.0416 O   0  0  0  0  0  0  0  0  0  0  0  0
   -7.1075  -22.6335   30.4987 O   0  0  0  0  0  0  0  0  0  0  0  0
  2  1  1  1
  2  3  1  0
  4  2  1  0
  4  5  1  6
  6 10  1  0
  6  4  1  0
  7  6  2  0
  9  8  1  1
  9 11  1  0
  9 10  1  0
 11 12  2  0
 14 13  1  6
 15 14  1  0
 16 18  1  0
 16 14  1  0
 17 11  1  0
 16 17  1  1
 18 19  1  0
 20 18  2  0
M  END
$$$$
