WMC.pdb
     RDKit          3D

 29 30  0  0  1  0  0  0  0  0999 V2000
   26.0985  -19.3128  -16.5978 N   0  0  0  0  0  0  0  0  0  0  0  0
   26.6409  -19.1588  -15.2851 C   0  0  1  0  0  0  0  0  0  0  0  0
   26.4683  -17.8116  -14.6662 C   0  0  0  0  0  0  0  0  0  0  0  0
   27.1588  -16.7111  -15.3832 C   0  0  0  0  0  0  0  0  0  0  0  0
   26.8155  -15.3664  -15.4191 C   0  0  0  0  0  0  0  0  0  0  0  0
   27.6814  -14.6587  -16.1615 N   0  0  0  0  0  0  0  0  0  0  0  0
   28.5990  -15.5267  -16.6197 C   0  0  0  0  0  0  0  0  0  0  0  0
   29.7012  -15.3367  -17.4249 C   0  0  0  0  0  0  0  0  0  0  0  0
   30.5291  -16.3949  -17.7879 C   0  0  0  0  0  0  0  0  0  0  0  0
   30.2468  -17.6643  -17.3362 C   0  0  0  0  0  0  0  0  0  0  0  0
   29.1436  -17.8335  -16.5342 C   0  0  0  0  0  0  0  0  0  0  0  0
   28.3064  -16.8090  -16.1572 C   0  0  0  0  0  0  0  0  0  0  0  0
   25.9397  -20.1326  -14.3698 C   0  0  0  0  0  0  0  0  0  0  0  0
   25.0426  -20.8988  -14.8192 O   0  0  0  0  0  0  0  0  0  0  0  0
   26.0984  -19.4468   -7.5833 C   0  0  0  0  0  0  0  0  0  0  0  0
   26.1377  -21.1858   -8.0168 S   0  0  0  0  0  0  0  0  0  0  0  0
   25.3466  -21.5118   -9.6329 C   0  0  0  0  0  0  0  0  0  0  0  0
   26.1360  -20.7617  -10.6616 C   0  0  0  0  0  0  0  0  0  0  0  0
   25.5615  -20.8939  -12.0590 C   0  0  2  0  0  0  0  0  0  0  0  0
   26.3382  -20.1361  -13.0098 N   0  0  0  0  0  0  0  0  0  0  0  0
   24.1229  -20.4797  -12.0807 C   0  0  0  0  0  0  0  0  0  0  0  0
   23.8323  -19.2677  -11.9227 O   0  0  0  0  0  0  0  0  0  0  0  0
   23.0631  -21.4062  -12.2738 N   0  0  0  0  0  0  0  0  0  0  0  0
   21.6675  -21.0649  -12.3203 C   0  0  1  0  0  0  0  0  0  0  0  0
   20.9829  -21.6229  -13.5523 C   0  0  0  0  0  0  0  0  0  0  0  0
   21.4480  -23.3796  -13.6762 S   0  0  0  0  0  0  0  0  0  0  0  0
   20.9778  -21.5932  -11.1336 C   0  0  0  0  0  0  0  0  0  0  0  0
   21.5229  -22.3349  -10.2811 O   0  0  0  0  0  0  0  0  0  0  0  0
   19.6438  -21.2555  -10.9379 O   0  0  0  0  0  0  0  0  0  0  0  0
  2  1  1  6
  2 13  1  0
  3  2  1  0
  4  3  1  0
  4 12  1  0
  5  6  1  0
  5  4  2  0
  6  7  1  0
  7 12  2  0
  7  8  1  0
  8  9  2  0
  9 10  1  0
 11 10  2  0
 12 11  1  0
 13 14  2  0
 16 15  1  0
 17 18  1  0
 17 16  1  0
 19 18  1  1
 19 21  1  0
 20 19  1  0
 20 13  1  0
 21 22  2  0
 23 21  1  0
 23 24  1  0
 24 27  1  0
 24 25  1  6
 26 25  1  0
 27 28  2  0
 27 29  1  0
M  END
$$$$
