WMC.pdb
     RDKit          3D

 29 30  0  0  1  0  0  0  0  0999 V2000
   28.5748  -20.9702  -15.3814 N   0  0  0  0  0  0  0  0  0  0  0  0
   27.7816  -20.0940  -14.5789 C   0  0  1  0  0  0  0  0  0  0  0  0
   26.8609  -19.1867  -15.3253 C   0  0  0  0  0  0  0  0  0  0  0  0
   27.5424  -18.1306  -16.1141 C   0  0  0  0  0  0  0  0  0  0  0  0
   28.2299  -18.2681  -17.3123 C   0  0  0  0  0  0  0  0  0  0  0  0
   28.7057  -17.0891  -17.7429 N   0  0  0  0  0  0  0  0  0  0  0  0
   28.3380  -16.1681  -16.8365 C   0  0  0  0  0  0  0  0  0  0  0  0
   28.5641  -14.8097  -16.7841 C   0  0  0  0  0  0  0  0  0  0  0  0
   28.0884  -14.0321  -15.7324 C   0  0  0  0  0  0  0  0  0  0  0  0
   27.3744  -14.6267  -14.7166 C   0  0  0  0  0  0  0  0  0  0  0  0
   27.1591  -15.9823  -14.7868 C   0  0  0  0  0  0  0  0  0  0  0  0
   27.6151  -16.7781  -15.8122 C   0  0  0  0  0  0  0  0  0  0  0  0
   26.9044  -20.9387  -13.6874 C   0  0  0  0  0  0  0  0  0  0  0  0
   26.5059  -22.0729  -14.0728 O   0  0  0  0  0  0  0  0  0  0  0  0
   28.0833  -20.2097   -6.8220 C   0  0  0  0  0  0  0  0  0  0  0  0
   26.5996  -20.0433   -7.8142 S   0  0  0  0  0  0  0  0  0  0  0  0
   26.8135  -20.7304   -9.4953 C   0  0  0  0  0  0  0  0  0  0  0  0
   25.5216  -20.5112  -10.2212 C   0  0  0  0  0  0  0  0  0  0  0  0
   25.5422  -21.0486  -11.6393 C   0  0  2  0  0  0  0  0  0  0  0  0
   26.5632  -20.3969  -12.4230 N   0  0  0  0  0  0  0  0  0  0  0  0
   24.1953  -20.9076  -12.2778 C   0  0  0  0  0  0  0  0  0  0  0  0
   23.7680  -19.7600  -12.5586 O   0  0  0  0  0  0  0  0  0  0  0  0
   23.3725  -22.0253  -12.5824 N   0  0  0  0  0  0  0  0  0  0  0  0
   22.1177  -21.9597  -13.2807 C   0  0  1  0  0  0  0  0  0  0  0  0
   21.8504  -23.2099  -14.0951 C   0  0  0  0  0  0  0  0  0  0  0  0
   22.5005  -24.6204  -13.1436 S   0  0  0  0  0  0  0  0  0  0  0  0
   21.0142  -21.7916  -12.3230 C   0  0  0  0  0  0  0  0  0  0  0  0
   21.1526  -21.8618  -11.0781 O   0  0  0  0  0  0  0  0  0  0  0  0
   19.7402  -21.5401  -12.8184 O   0  0  0  0  0  0  0  0  0  0  0  0
  2  1  1  6
  2 13  1  0
  3  2  1  0
  4  3  1  0
  4 12  1  0
  5  6  1  0
  5  4  2  0
  6  7  1  0
  7 12  2  0
  7  8  1  0
  8  9  2  0
  9 10  1  0
 11 10  2  0
 12 11  1  0
 13 14  2  0
 16 15  1  0
 17 18  1  0
 17 16  1  0
 19 18  1  1
 19 21  1  0
 20 19  1  0
 20 13  1  0
 21 22  2  0
 23 21  1  0
 23 24  1  0
 24 27  1  0
 24 25  1  1
 26 25  1  0
 27 28  2  0
 27 29  1  0
M  END
$$$$
