WMC.pdb
     RDKit          3D

 29 30  0  0  1  0  0  0  0  0999 V2000
   26.0801  -22.4031  -12.6905 N   0  0  0  0  0  0  0  0  0  0  0  0
   25.4072  -21.3425  -12.0099 C   0  0  1  0  0  0  0  0  0  0  0  0
   26.2773  -20.2363  -11.5126 C   0  0  0  0  0  0  0  0  0  0  0  0
   27.4283  -20.6809  -10.6883 C   0  0  0  0  0  0  0  0  0  0  0  0
   28.5258  -21.4318  -11.0870 C   0  0  0  0  0  0  0  0  0  0  0  0
   29.3785  -21.6324  -10.0700 N   0  0  0  0  0  0  0  0  0  0  0  0
   28.8531  -21.0186   -8.9966 C   0  0  0  0  0  0  0  0  0  0  0  0
   29.3099  -20.9139   -7.7006 C   0  0  0  0  0  0  0  0  0  0  0  0
   28.5919  -20.2231   -6.7288 C   0  0  0  0  0  0  0  0  0  0  0  0
   27.3962  -19.6279   -7.0622 C   0  0  0  0  0  0  0  0  0  0  0  0
   26.9575  -19.7432   -8.3596 C   0  0  0  0  0  0  0  0  0  0  0  0
   27.6434  -20.4180   -9.3428 C   0  0  0  0  0  0  0  0  0  0  0  0
   24.4345  -20.7083  -12.9739 C   0  0  0  0  0  0  0  0  0  0  0  0
   23.9657  -19.5587  -12.7446 O   0  0  0  0  0  0  0  0  0  0  0  0
   25.3524  -20.9397  -18.8476 C   0  0  0  0  0  0  0  0  0  0  0  0
   23.7514  -20.1383  -18.9384 S   0  0  0  0  0  0  0  0  0  0  0  0
   22.6854  -20.5639  -17.5147 C   0  0  0  0  0  0  0  0  0  0  0  0
   23.5658  -21.2160  -16.4931 C   0  0  0  0  0  0  0  0  0  0  0  0
   23.1543  -20.8970  -15.0687 C   0  0  2  0  0  0  0  0  0  0  0  0
   24.0874  -21.4607  -14.1237 N   0  0  0  0  0  0  0  0  0  0  0  0
   21.7593  -21.3711  -14.8025 C   0  0  0  0  0  0  0  0  0  0  0  0
   20.8519  -21.0972  -15.6270 O   0  0  0  0  0  0  0  0  0  0  0  0
   21.4146  -22.1239  -13.6478 N   0  0  0  0  0  0  0  0  0  0  0  0
   20.0997  -22.6232  -13.3510 C   0  0  1  0  0  0  0  0  0  0  0  0
   20.0282  -23.2672  -11.9807 C   0  0  0  0  0  0  0  0  0  0  0  0
   20.5764  -22.0201  -10.7716 S   0  0  0  0  0  0  0  0  0  0  0  0
   19.1207  -21.5264  -13.3940 C   0  0  0  0  0  0  0  0  0  0  0  0
   19.4276  -20.3223  -13.5660 O   0  0  0  0  0  0  0  0  0  0  0  0
   17.7745  -21.8339  -13.2353 O   0  0  0  0  0  0  0  0  0  0  0  0
  2  1  1  6
  2 13  1  0
  3  2  1  0
  4  3  1  0
  4 12  1  0
  5  6  1  0
  5  4  2  0
  6  7  1  0
  7 12  2  0
  7  8  1  0
  8  9  2  0
  9 10  1  0
 11 10  2  0
 12 11  1  0
 13 14  2  0
 16 15  1  0
 17 18  1  0
 17 16  1  0
 19 18  1  6
 19 21  1  0
 20 19  1  0
 20 13  1  0
 21 22  2  0
 23 21  1  0
 23 24  1  0
 24 27  1  0
 24 25  1  1
 26 25  1  0
 27 28  2  0
 27 29  1  0
M  END
$$$$
