WMC.pdb
     RDKit          3D

 29 30  0  0  1  0  0  0  0  0999 V2000
   21.7116  -19.4186  -17.1667 N   0  0  0  0  0  0  0  0  0  0  0  0
   22.5001  -20.4054  -16.4992 C   0  0  1  0  0  0  0  0  0  0  0  0
   23.9760  -20.1842  -16.5279 C   0  0  0  0  0  0  0  0  0  0  0  0
   24.5305  -19.9018  -17.8750 C   0  0  0  0  0  0  0  0  0  0  0  0
   25.1934  -18.7601  -18.3044 C   0  0  0  0  0  0  0  0  0  0  0  0
   25.5662  -18.8635  -19.5898 N   0  0  0  0  0  0  0  0  0  0  0  0
   25.1540  -20.0687  -20.0173 C   0  0  0  0  0  0  0  0  0  0  0  0
   25.2710  -20.6812  -21.2463 C   0  0  0  0  0  0  0  0  0  0  0  0
   24.7583  -21.9543  -21.4773 C   0  0  0  0  0  0  0  0  0  0  0  0
   24.1179  -22.6240  -20.4592 C   0  0  0  0  0  0  0  0  0  0  0  0
   24.0114  -21.9967  -19.2410 C   0  0  0  0  0  0  0  0  0  0  0  0
   24.5075  -20.7402  -18.9806 C   0  0  0  0  0  0  0  0  0  0  0  0
   22.1068  -20.4142  -15.0422 C   0  0  0  0  0  0  0  0  0  0  0  0
   22.6400  -19.6062  -14.2318 O   0  0  0  0  0  0  0  0  0  0  0  0
   20.6436  -19.8953   -8.7965 C   0  0  0  0  0  0  0  0  0  0  0  0
   21.0440  -19.9321  -10.5434 S   0  0  0  0  0  0  0  0  0  0  0  0
   19.5556  -19.7837  -11.5955 C   0  0  0  0  0  0  0  0  0  0  0  0
   20.0109  -19.9330  -13.0148 C   0  0  0  0  0  0  0  0  0  0  0  0
   20.6033  -21.2987  -13.3045 C   0  0  2  0  0  0  0  0  0  0  0  0
   21.1274  -21.3593  -14.6473 N   0  0  0  0  0  0  0  0  0  0  0  0
   19.5902  -22.3755  -13.0683 C   0  0  0  0  0  0  0  0  0  0  0  0
   18.6170  -22.4837  -13.8553 O   0  0  0  0  0  0  0  0  0  0  0  0
   19.6828  -23.2880  -11.9831 N   0  0  0  0  0  0  0  0  0  0  0  0
   18.7375  -24.3339  -11.7020 C   0  0  1  0  0  0  0  0  0  0  0  0
   19.1667  -25.1928  -10.5291 C   0  0  0  0  0  0  0  0  0  0  0  0
   19.5397  -24.0670   -9.1467 S   0  0  0  0  0  0  0  0  0  0  0  0
   17.4217  -23.7557  -11.3898 C   0  0  0  0  0  0  0  0  0  0  0  0
   16.3742  -24.4333  -11.2582 O   0  0  0  0  0  0  0  0  0  0  0  0
   17.3248  -22.3784  -11.2297 O   0  0  0  0  0  0  0  0  0  0  0  0
  2  1  1  6
  2 13  1  0
  3  2  1  0
  4  3  1  0
  4 12  1  0
  5  6  1  0
  5  4  2  0
  6  7  1  0
  7 12  2  0
  7  8  1  0
  8  9  2  0
  9 10  1  0
 11 10  2  0
 12 11  1  0
 13 14  2  0
 16 15  1  0
 17 18  1  0
 17 16  1  0
 19 18  1  6
 19 21  1  0
 20 19  1  0
 20 13  1  0
 21 22  2  0
 23 21  1  0
 23 24  1  0
 24 27  1  0
 24 25  1  1
 26 25  1  0
 27 28  2  0
 27 29  1  0
M  END
$$$$
