WMC.pdb
     RDKit          3D

 29 30  0  0  1  0  0  0  0  0999 V2000
   28.2766  -20.7710   -9.7041 N   0  0  0  0  0  0  0  0  0  0  0  0
   26.9616  -21.3181   -9.5920 C   0  0  1  0  0  0  0  0  0  0  0  0
   26.2279  -20.9899   -8.3342 C   0  0  0  0  0  0  0  0  0  0  0  0
   26.9216  -20.0195   -7.4516 C   0  0  0  0  0  0  0  0  0  0  0  0
   27.0140  -18.6424   -7.6011 C   0  0  0  0  0  0  0  0  0  0  0  0
   27.7113  -18.0858   -6.5982 N   0  0  0  0  0  0  0  0  0  0  0  0
   28.0833  -19.0865   -5.7824 C   0  0  0  0  0  0  0  0  0  0  0  0
   28.8141  -19.0770   -4.6141 C   0  0  0  0  0  0  0  0  0  0  0  0
   29.0928  -20.2505   -3.9197 C   0  0  0  0  0  0  0  0  0  0  0  0
   28.6311  -21.4532   -4.4051 C   0  0  0  0  0  0  0  0  0  0  0  0
   27.9040  -21.4421   -5.5714 C   0  0  0  0  0  0  0  0  0  0  0  0
   27.6113  -20.3001   -6.2805 C   0  0  0  0  0  0  0  0  0  0  0  0
   26.1253  -20.7657  -10.7203 C   0  0  0  0  0  0  0  0  0  0  0  0
   26.2009  -19.5449  -11.0331 O   0  0  0  0  0  0  0  0  0  0  0  0
   24.4760  -19.5851  -17.1967 C   0  0  0  0  0  0  0  0  0  0  0  0
   25.2234  -20.2495  -15.7089 S   0  0  0  0  0  0  0  0  0  0  0  0
   24.2835  -21.6680  -15.0391 C   0  0  0  0  0  0  0  0  0  0  0  0
   24.9720  -22.0873  -13.7766 C   0  0  0  0  0  0  0  0  0  0  0  0
   24.5843  -21.2371  -12.5819 C   0  0  2  0  0  0  0  0  0  0  0  0
   25.2715  -21.6761  -11.3917 N   0  0  0  0  0  0  0  0  0  0  0  0
   23.1000  -21.2459  -12.3861 C   0  0  0  0  0  0  0  0  0  0  0  0
   22.5504  -22.2740  -11.9177 O   0  0  0  0  0  0  0  0  0  0  0  0
   22.2792  -20.1322  -12.7098 N   0  0  0  0  0  0  0  0  0  0  0  0
   20.8437  -20.1164  -12.6357 C   0  0  1  0  0  0  0  0  0  0  0  0
   20.2720  -18.7390  -12.9072 C   0  0  0  0  0  0  0  0  0  0  0  0
   20.7435  -17.6757  -11.5055 S   0  0  0  0  0  0  0  0  0  0  0  0
   20.2762  -21.0506  -13.6198 C   0  0  0  0  0  0  0  0  0  0  0  0
   20.7627  -21.2455  -14.7596 O   0  0  0  0  0  0  0  0  0  0  0  0
   19.1338  -21.7630  -13.2743 O   0  0  0  0  0  0  0  0  0  0  0  0
  2  1  1  1
  2 13  1  0
  3  2  1  0
  4  3  1  0
  4 12  1  0
  5  6  1  0
  5  4  2  0
  6  7  1  0
  7 12  2  0
  7  8  1  0
  8  9  2  0
  9 10  1  0
 11 10  2  0
 12 11  1  0
 13 14  2  0
 16 15  1  0
 17 18  1  0
 17 16  1  0
 19 18  1  6
 19 21  1  0
 20 19  1  0
 20 13  1  0
 21 22  2  0
 23 21  1  0
 23 24  1  0
 24 27  1  0
 24 25  1  6
 26 25  1  0
 27 28  2  0
 27 29  1  0
M  END
$$$$
