WMC.pdb
     RDKit          3D

 29 30  0  0  1  0  0  0  0  0999 V2000
   26.7697  -19.6165  -16.3375 N   0  0  0  0  0  0  0  0  0  0  0  0
   25.6432  -19.5774  -15.4598 C   0  0  1  0  0  0  0  0  0  0  0  0
   24.3089  -19.7354  -16.1100 C   0  0  0  0  0  0  0  0  0  0  0  0
   24.0338  -18.7626  -17.1961 C   0  0  0  0  0  0  0  0  0  0  0  0
   24.6057  -18.7080  -18.4599 C   0  0  0  0  0  0  0  0  0  0  0  0
   24.1015  -17.6958  -19.1832 N   0  0  0  0  0  0  0  0  0  0  0  0
   23.1970  -17.0768  -18.4061 C   0  0  0  0  0  0  0  0  0  0  0  0
   22.3937  -15.9834  -18.6480 C   0  0  0  0  0  0  0  0  0  0  0  0
   21.5161  -15.4969  -17.6836 C   0  0  0  0  0  0  0  0  0  0  0  0
   21.4430  -16.1169  -16.4567 C   0  0  0  0  0  0  0  0  0  0  0  0
   22.2517  -17.2057  -16.2346 C   0  0  0  0  0  0  0  0  0  0  0  0
   23.1287  -17.7111  -17.1664 C   0  0  0  0  0  0  0  0  0  0  0  0
   25.7698  -20.7199  -14.4818 C   0  0  0  0  0  0  0  0  0  0  0  0
   26.1387  -21.8608  -14.8768 O   0  0  0  0  0  0  0  0  0  0  0  0
   25.9574  -19.0959   -7.5278 C   0  0  0  0  0  0  0  0  0  0  0  0
   26.2200  -20.4728   -8.6453 S   0  0  0  0  0  0  0  0  0  0  0  0
   26.4699  -19.9224  -10.3712 C   0  0  0  0  0  0  0  0  0  0  0  0
   26.7477  -21.1507  -11.1824 C   0  0  0  0  0  0  0  0  0  0  0  0
   25.6268  -21.4878  -12.1468 C   0  0  2  0  0  0  0  0  0  0  0  0
   25.4583  -20.4429  -13.1273 N   0  0  0  0  0  0  0  0  0  0  0  0
   24.3519  -21.7474  -11.4058 C   0  0  0  0  0  0  0  0  0  0  0  0
   24.2434  -22.7964  -10.7231 O   0  0  0  0  0  0  0  0  0  0  0  0
   23.2502  -20.8508  -11.4418 N   0  0  0  0  0  0  0  0  0  0  0  0
   21.8677  -21.2401  -11.3812 C   0  0  1  0  0  0  0  0  0  0  0  0
   20.9358  -20.0447  -11.3948 C   0  0  0  0  0  0  0  0  0  0  0  0
   21.6084  -18.8255  -10.2206 S   0  0  0  0  0  0  0  0  0  0  0  0
   21.5326  -22.0960  -12.5293 C   0  0  0  0  0  0  0  0  0  0  0  0
   22.3240  -22.3438  -13.4706 O   0  0  0  0  0  0  0  0  0  0  0  0
   20.2667  -22.6674  -12.5820 O   0  0  0  0  0  0  0  0  0  0  0  0
  2  1  1  6
  2 13  1  0
  3  2  1  0
  4  3  1  0
  4 12  1  0
  5  6  1  0
  5  4  2  0
  6  7  1  0
  7 12  2  0
  7  8  1  0
  8  9  2  0
  9 10  1  0
 11 10  2  0
 12 11  1  0
 13 14  2  0
 16 15  1  0
 17 18  1  0
 17 16  1  0
 19 18  1  1
 19 21  1  0
 20 19  1  0
 20 13  1  0
 21 22  2  0
 23 21  1  0
 23 24  1  0
 24 27  1  0
 24 25  1  6
 26 25  1  0
 27 28  2  0
 27 29  1  0
M  END
$$$$
