WMC.pdb
     RDKit          3D

 29 30  0  0  1  0  0  0  0  0999 V2000
   25.7923  -18.8002  -10.8234 N   0  0  0  0  0  0  0  0  0  0  0  0
   26.6208  -19.9383  -11.0671 C   0  0  1  0  0  0  0  0  0  0  0  0
   26.4524  -21.0780  -10.1179 C   0  0  0  0  0  0  0  0  0  0  0  0
   26.5641  -20.7081   -8.6852 C   0  0  0  0  0  0  0  0  0  0  0  0
   25.5384  -20.4366   -7.7900 C   0  0  0  0  0  0  0  0  0  0  0  0
   26.0161  -20.1499   -6.5688 N   0  0  0  0  0  0  0  0  0  0  0  0
   27.3550  -20.2293   -6.6478 C   0  0  0  0  0  0  0  0  0  0  0  0
   28.3309  -20.0289   -5.6955 C   0  0  0  0  0  0  0  0  0  0  0  0
   29.6827  -20.1609   -5.9990 C   0  0  0  0  0  0  0  0  0  0  0  0
   30.0620  -20.4994   -7.2783 C   0  0  0  0  0  0  0  0  0  0  0  0
   29.0744  -20.6954   -8.2137 C   0  0  0  0  0  0  0  0  0  0  0  0
   27.7305  -20.5732   -7.9457 C   0  0  0  0  0  0  0  0  0  0  0  0
   26.2843  -20.4801  -12.4349 C   0  0  0  0  0  0  0  0  0  0  0  0
   25.1323  -20.3114  -12.9231 O   0  0  0  0  0  0  0  0  0  0  0  0
   31.0371  -23.2057  -15.7622 C   0  0  0  0  0  0  0  0  0  0  0  0
   29.8711  -23.0642  -17.1164 S   0  0  0  0  0  0  0  0  0  0  0  0
   28.2851  -22.3239  -16.5865 C   0  0  0  0  0  0  0  0  0  0  0  0
   28.3991  -22.0604  -15.1163 C   0  0  0  0  0  0  0  0  0  0  0  0
   27.1330  -21.4746  -14.5213 C   0  0  2  0  0  0  0  0  0  0  0  0
   27.3127  -21.1718  -13.1222 N   0  0  0  0  0  0  0  0  0  0  0  0
   25.9734  -22.3980  -14.7321 C   0  0  0  0  0  0  0  0  0  0  0  0
   26.0360  -23.5710  -14.2867 O   0  0  0  0  0  0  0  0  0  0  0  0
   24.7951  -22.0014  -15.4200 N   0  0  0  0  0  0  0  0  0  0  0  0
   23.6559  -22.8450  -15.6587 C   0  0  1  0  0  0  0  0  0  0  0  0
   22.4388  -22.3985  -14.8732 C   0  0  0  0  0  0  0  0  0  0  0  0
   22.1275  -20.6575  -15.3084 S   0  0  0  0  0  0  0  0  0  0  0  0
   23.3088  -22.8338  -17.0878 C   0  0  0  0  0  0  0  0  0  0  0  0
   23.7943  -22.0286  -17.9184 O   0  0  0  0  0  0  0  0  0  0  0  0
   22.3897  -23.7667  -17.5534 O   0  0  0  0  0  0  0  0  0  0  0  0
  2  1  1  1
  2 13  1  0
  3  2  1  0
  4  3  1  0
  4 12  1  0
  5  6  1  0
  5  4  2  0
  6  7  1  0
  7 12  2  0
  7  8  1  0
  8  9  2  0
  9 10  1  0
 11 10  2  0
 12 11  1  0
 13 14  2  0
 16 15  1  0
 17 18  1  0
 17 16  1  0
 19 18  1  1
 19 21  1  0
 20 19  1  0
 20 13  1  0
 21 22  2  0
 23 21  1  0
 23 24  1  0
 24 27  1  0
 24 25  1  1
 26 25  1  0
 27 28  2  0
 27 29  1  0
M  END
$$$$
