WMC.pdb
     RDKit          3D

 29 30  0  0  1  0  0  0  0  0999 V2000
   26.6375  -21.6298  -13.2935 N   0  0  0  0  0  0  0  0  0  0  0  0
   26.4048  -20.5612  -12.3744 C   0  0  1  0  0  0  0  0  0  0  0  0
   25.3199  -19.6074  -12.7503 C   0  0  0  0  0  0  0  0  0  0  0  0
   25.6171  -18.7748  -13.9421 C   0  0  0  0  0  0  0  0  0  0  0  0
   24.7287  -18.0371  -14.7126 C   0  0  0  0  0  0  0  0  0  0  0  0
   25.3592  -17.3945  -15.7083 N   0  0  0  0  0  0  0  0  0  0  0  0
   26.6630  -17.7016  -15.6035 C   0  0  0  0  0  0  0  0  0  0  0  0
   27.7464  -17.3198  -16.3651 C   0  0  0  0  0  0  0  0  0  0  0  0
   29.0325  -17.7674  -16.0779 C   0  0  0  0  0  0  0  0  0  0  0  0
   29.2355  -18.6117  -15.0097 C   0  0  0  0  0  0  0  0  0  0  0  0
   28.1428  -18.9809  -14.2622 C   0  0  0  0  0  0  0  0  0  0  0  0
   26.8599  -18.5559  -14.5195 C   0  0  0  0  0  0  0  0  0  0  0  0
   25.9950  -21.1604  -11.0513 C   0  0  0  0  0  0  0  0  0  0  0  0
   25.5556  -22.3425  -10.9942 O   0  0  0  0  0  0  0  0  0  0  0  0
   27.1681  -18.3761   -5.2172 C   0  0  0  0  0  0  0  0  0  0  0  0
   28.4808  -19.3339   -5.9741 S   0  0  0  0  0  0  0  0  0  0  0  0
   27.8744  -20.3599   -7.3611 C   0  0  0  0  0  0  0  0  0  0  0  0
   26.4081  -20.0846   -7.4956 C   0  0  0  0  0  0  0  0  0  0  0  0
   25.7595  -20.8730   -8.6173 C   0  0  2  0  0  0  0  0  0  0  0  0
   26.1297  -20.3380   -9.9050 N   0  0  0  0  0  0  0  0  0  0  0  0
   24.2720  -20.9044   -8.4500 C   0  0  0  0  0  0  0  0  0  0  0  0
   23.5950  -19.9069   -8.8035 O   0  0  0  0  0  0  0  0  0  0  0  0
   23.5871  -22.0233   -7.9041 N   0  0  0  0  0  0  0  0  0  0  0  0
   22.1652  -22.1053   -7.7093 C   0  0  1  0  0  0  0  0  0  0  0  0
   21.7193  -23.5041   -7.3320 C   0  0  0  0  0  0  0  0  0  0  0  0
   22.7051  -24.0108   -5.8867 S   0  0  0  0  0  0  0  0  0  0  0  0
   21.7476  -21.1866   -6.6394 C   0  0  0  0  0  0  0  0  0  0  0  0
   22.5474  -20.5899   -5.8791 O   0  0  0  0  0  0  0  0  0  0  0  0
   20.3888  -20.9611   -6.4533 O   0  0  0  0  0  0  0  0  0  0  0  0
  2  1  1  6
  2 13  1  0
  3  2  1  0
  4  3  1  0
  4 12  1  0
  5  6  1  0
  5  4  2  0
  6  7  1  0
  7 12  2  0
  7  8  1  0
  8  9  2  0
  9 10  1  0
 11 10  2  0
 12 11  1  0
 13 14  2  0
 16 15  1  0
 17 18  1  0
 17 16  1  0
 19 18  1  1
 19 21  1  0
 20 19  1  0
 20 13  1  0
 21 22  2  0
 23 21  1  0
 23 24  1  0
 24 27  1  0
 24 25  1  1
 26 25  1  0
 27 28  2  0
 27 29  1  0
M  END
$$$$
