WMC.pdb
     RDKit          3D

 29 30  0  0  1  0  0  0  0  0999 V2000
   25.4698  -21.2865  -13.8434 N   0  0  0  0  0  0  0  0  0  0  0  0
   25.4286  -21.4224  -12.4218 C   0  0  1  0  0  0  0  0  0  0  0  0
   26.2488  -20.4407  -11.6527 C   0  0  0  0  0  0  0  0  0  0  0  0
   27.7133  -20.5692  -11.8547 C   0  0  0  0  0  0  0  0  0  0  0  0
   28.4422  -20.3182  -13.0092 C   0  0  0  0  0  0  0  0  0  0  0  0
   29.7536  -20.5301  -12.8171 N   0  0  0  0  0  0  0  0  0  0  0  0
   29.9003  -20.9211  -11.5401 C   0  0  0  0  0  0  0  0  0  0  0  0
   31.0254  -21.2680  -10.8237 C   0  0  0  0  0  0  0  0  0  0  0  0
   30.9485  -21.6540   -9.4888 C   0  0  0  0  0  0  0  0  0  0  0  0
   29.7234  -21.6928   -8.8622 C   0  0  0  0  0  0  0  0  0  0  0  0
   28.6133  -21.3432   -9.5931 C   0  0  0  0  0  0  0  0  0  0  0  0
   28.6557  -20.9570  -10.9128 C   0  0  0  0  0  0  0  0  0  0  0  0
   24.0025  -21.2196  -11.9716 C   0  0  0  0  0  0  0  0  0  0  0  0
   23.7216  -21.1725  -10.7417 O   0  0  0  0  0  0  0  0  0  0  0  0
   18.6088  -19.3058  -10.8639 C   0  0  0  0  0  0  0  0  0  0  0  0
   20.3536  -19.0120  -10.5762 S   0  0  0  0  0  0  0  0  0  0  0  0
   21.2385  -18.5566  -12.1104 C   0  0  0  0  0  0  0  0  0  0  0  0
   21.0328  -19.6801  -13.0797 C   0  0  0  0  0  0  0  0  0  0  0  0
   21.6341  -20.9885  -12.6037 C   0  0  2  0  0  0  0  0  0  0  0  0
   23.0217  -21.0879  -12.9860 N   0  0  0  0  0  0  0  0  0  0  0  0
   20.8446  -22.1517  -13.1189 C   0  0  0  0  0  0  0  0  0  0  0  0
   20.8565  -22.4025  -14.3499 O   0  0  0  0  0  0  0  0  0  0  0  0
   20.0759  -22.9912  -12.2685 N   0  0  0  0  0  0  0  0  0  0  0  0
   19.2133  -24.0505  -12.7159 C   0  0  1  0  0  0  0  0  0  0  0  0
   18.9503  -25.0723  -11.6275 C   0  0  0  0  0  0  0  0  0  0  0  0
   18.9388  -24.1770  -10.0414 S   0  0  0  0  0  0  0  0  0  0  0  0
   17.9204  -23.5003  -13.1505 C   0  0  0  0  0  0  0  0  0  0  0  0
   17.5943  -22.2960  -13.0204 O   0  0  0  0  0  0  0  0  0  0  0  0
   17.0004  -24.3588  -13.7409 O   0  0  0  0  0  0  0  0  0  0  0  0
  2  1  1  6
  2 13  1  0
  3  2  1  0
  4  3  1  0
  4 12  1  0
  5  6  1  0
  5  4  2  0
  6  7  1  0
  7 12  2  0
  7  8  1  0
  8  9  2  0
  9 10  1  0
 11 10  2  0
 12 11  1  0
 13 14  2  0
 16 15  1  0
 17 18  1  0
 17 16  1  0
 19 18  1  6
 19 21  1  0
 20 19  1  0
 20 13  1  0
 21 22  2  0
 23 21  1  0
 23 24  1  0
 24 27  1  0
 24 25  1  1
 26 25  1  0
 27 28  2  0
 27 29  1  0
M  END
$$$$
