WMC.pdb
     RDKit          3D

 29 30  0  0  1  0  0  0  0  0999 V2000
   25.2526  -19.1846  -18.7680 N   0  0  0  0  0  0  0  0  0  0  0  0
   25.0914  -18.4646  -17.5446 C   0  0  1  0  0  0  0  0  0  0  0  0
   23.6833  -18.1716  -17.1454 C   0  0  0  0  0  0  0  0  0  0  0  0
   23.1079  -16.9527  -17.7659 C   0  0  0  0  0  0  0  0  0  0  0  0
   23.7369  -15.7393  -18.0099 C   0  0  0  0  0  0  0  0  0  0  0  0
   22.9059  -14.8660  -18.6002 N   0  0  0  0  0  0  0  0  0  0  0  0
   21.7270  -15.4929  -18.7498 C   0  0  0  0  0  0  0  0  0  0  0  0
   20.5349  -15.0610  -19.2899 C   0  0  0  0  0  0  0  0  0  0  0  0
   19.4166  -15.8879  -19.3413 C   0  0  0  0  0  0  0  0  0  0  0  0
   19.4951  -17.1687  -18.8428 C   0  0  0  0  0  0  0  0  0  0  0  0
   20.6924  -17.5810  -18.3085 C   0  0  0  0  0  0  0  0  0  0  0  0
   21.8153  -16.7888  -18.2434 C   0  0  0  0  0  0  0  0  0  0  0  0
   25.6779  -19.2956  -16.4296 C   0  0  0  0  0  0  0  0  0  0  0  0
   25.5407  -20.5506  -16.4282 O   0  0  0  0  0  0  0  0  0  0  0  0
   30.4045  -21.3512  -11.4667 C   0  0  0  0  0  0  0  0  0  0  0  0
   29.6865  -20.4492  -12.8395 S   0  0  0  0  0  0  0  0  0  0  0  0
   28.4038  -19.2664  -12.2922 C   0  0  0  0  0  0  0  0  0  0  0  0
   27.9139  -18.5594  -13.5186 C   0  0  0  0  0  0  0  0  0  0  0  0
   26.8464  -19.3384  -14.2628 C   0  0  2  0  0  0  0  0  0  0  0  0
   26.3751  -18.6010  -15.4098 N   0  0  0  0  0  0  0  0  0  0  0  0
   25.7176  -19.6962  -13.3465 C   0  0  0  0  0  0  0  0  0  0  0  0
   25.0660  -18.7775  -12.7900 O   0  0  0  0  0  0  0  0  0  0  0  0
   25.3485  -21.0416  -13.0770 N   0  0  0  0  0  0  0  0  0  0  0  0
   24.3634  -21.4492  -12.1126 C   0  0  1  0  0  0  0  0  0  0  0  0
   24.0718  -22.9348  -12.1857 C   0  0  0  0  0  0  0  0  0  0  0  0
   25.6743  -23.7996  -12.1456 S   0  0  0  0  0  0  0  0  0  0  0  0
   24.8291  -21.1396  -10.7523 C   0  0  0  0  0  0  0  0  0  0  0  0
   26.0322  -20.9490  -10.4521 O   0  0  0  0  0  0  0  0  0  0  0  0
   23.8872  -21.0513   -9.7340 O   0  0  0  0  0  0  0  0  0  0  0  0
  2  1  1  6
  2 13  1  0
  3  2  1  0
  4  3  1  0
  4 12  1  0
  5  6  1  0
  5  4  2  0
  6  7  1  0
  7 12  2  0
  7  8  1  0
  8  9  2  0
  9 10  1  0
 11 10  2  0
 12 11  1  0
 13 14  2  0
 16 15  1  0
 17 18  1  0
 17 16  1  0
 19 18  1  1
 19 21  1  0
 20 19  1  0
 20 13  1  0
 21 22  2  0
 23 21  1  0
 23 24  1  0
 24 27  1  0
 24 25  1  1
 26 25  1  0
 27 28  2  0
 27 29  1  0
M  END
$$$$
