WMC.pdb
     RDKit          3D

 29 30  0  0  1  0  0  0  0  0999 V2000
   25.8958  -21.8785  -13.2660 N   0  0  0  0  0  0  0  0  0  0  0  0
   26.0227  -20.7128  -12.4499 C   0  0  1  0  0  0  0  0  0  0  0  0
   25.2144  -19.5323  -12.8754 C   0  0  0  0  0  0  0  0  0  0  0  0
   25.6912  -18.8743  -14.1170 C   0  0  0  0  0  0  0  0  0  0  0  0
   24.9373  -18.2173  -15.0799 C   0  0  0  0  0  0  0  0  0  0  0  0
   25.7122  -17.7321  -16.0627 N   0  0  0  0  0  0  0  0  0  0  0  0
   26.9780  -18.0637  -15.7580 C   0  0  0  0  0  0  0  0  0  0  0  0
   28.1615  -17.8203  -16.4208 C   0  0  0  0  0  0  0  0  0  0  0  0
   29.3814  -18.2664  -15.9209 C   0  0  0  0  0  0  0  0  0  0  0  0
   29.4148  -18.9681  -14.7370 C   0  0  0  0  0  0  0  0  0  0  0  0
   28.2243  -19.2007  -14.0908 C   0  0  0  0  0  0  0  0  0  0  0  0
   27.0030  -18.7731  -14.5580 C   0  0  0  0  0  0  0  0  0  0  0  0
   25.5544  -21.0606  -11.0580 C   0  0  0  0  0  0  0  0  0  0  0  0
   24.7813  -22.0409  -10.8705 O   0  0  0  0  0  0  0  0  0  0  0  0
   28.8409  -19.1570   -5.5980 C   0  0  0  0  0  0  0  0  0  0  0  0
   27.6293  -20.4751   -5.5073 S   0  0  0  0  0  0  0  0  0  0  0  0
   26.0228  -19.9861   -6.2313 C   0  0  0  0  0  0  0  0  0  0  0  0
   26.2853  -19.6141   -7.6584 C   0  0  0  0  0  0  0  0  0  0  0  0
   25.6570  -20.5789   -8.6456 C   0  0  2  0  0  0  0  0  0  0  0  0
   26.0228  -20.2423   -9.9999 N   0  0  0  0  0  0  0  0  0  0  0  0
   24.1695  -20.6131   -8.4777 C   0  0  0  0  0  0  0  0  0  0  0  0
   23.4851  -19.6411   -8.8840 O   0  0  0  0  0  0  0  0  0  0  0  0
   23.4930  -21.7069   -7.8737 N   0  0  0  0  0  0  0  0  0  0  0  0
   22.1038  -21.7149   -7.5040 C   0  0  1  0  0  0  0  0  0  0  0  0
   21.6387  -23.0867   -7.0573 C   0  0  0  0  0  0  0  0  0  0  0  0
   22.4144  -24.3049   -8.1670 S   0  0  0  0  0  0  0  0  0  0  0  0
   21.8683  -20.7695   -6.4023 C   0  0  0  0  0  0  0  0  0  0  0  0
   22.7787  -20.1254   -5.8277 O   0  0  0  0  0  0  0  0  0  0  0  0
   20.5633  -20.5726   -5.9663 O   0  0  0  0  0  0  0  0  0  0  0  0
  2  1  1  6
  2 13  1  0
  3  2  1  0
  4  3  1  0
  4 12  1  0
  5  6  1  0
  5  4  2  0
  6  7  1  0
  7 12  2  0
  7  8  1  0
  8  9  2  0
  9 10  1  0
 11 10  2  0
 12 11  1  0
 13 14  2  0
 16 15  1  0
 17 18  1  0
 17 16  1  0
 19 18  1  1
 19 21  1  0
 20 19  1  0
 20 13  1  0
 21 22  2  0
 23 21  1  0
 23 24  1  0
 24 27  1  0
 24 25  1  1
 26 25  1  0
 27 28  2  0
 27 29  1  0
M  END
$$$$
