ISE.pdb
     RDKit          3D

 24 23  0  0  1  0  0  0  0  0999 V2000
    6.5670  -11.5436   27.0384 C   0  0  0  0  0  0  0  0  0  0  0  0
    5.9287  -12.8086   26.4425 C   0  0  0  0  0  0  0  0  0  0  0  0
    6.9326  -13.5875   25.6644 C   0  0  2  0  0  0  0  0  0  0  0  0
    7.6157  -12.7681   24.5919 C   0  0  0  0  0  0  0  0  0  0  0  0
    6.4573  -14.8677   25.0778 C   0  0  2  0  0  0  0  0  0  0  0  0
    5.8401  -15.6615   26.1261 N   0  0  0  0  0  0  0  0  0  0  0  0
    7.5450  -15.6153   24.4033 C   0  0  0  0  0  0  0  0  0  0  0  0
    8.3773  -16.3456   24.9935 O   0  0  0  0  0  0  0  0  0  0  0  0
    8.7517  -14.7984   20.3472 O   0  0  0  0  0  0  0  0  0  0  0  0
    8.6676  -16.1151   20.7823 C   0  0  0  0  0  0  0  0  0  0  0  0
    8.7797  -16.2281   22.2853 C   0  0  2  0  0  0  0  0  0  0  0  0
    7.7158  -15.5429   22.9728 N   0  0  0  0  0  0  0  0  0  0  0  0
   10.1197  -15.7969   22.7280 C   0  0  0  0  0  0  0  0  0  0  0  0
   10.2899  -14.6581   23.2221 O   0  0  0  0  0  0  0  0  0  0  0  0
   11.2168  -16.6818   22.5902 N   0  0  0  0  0  0  0  0  0  0  0  0
   12.4915  -16.4736   23.3026 C   0  0  1  0  0  0  0  0  0  0  0  0
   12.2029  -16.7318   24.7379 C   0  0  0  0  0  0  0  0  0  0  0  0
   11.9699  -18.1194   25.1845 C   0  0  0  0  0  0  0  0  0  0  0  0
   11.6950  -18.4158   26.5783 C   0  0  0  0  0  0  0  0  0  0  0  0
   11.4288  -19.5203   27.0217 O   0  0  0  0  0  0  0  0  0  0  0  0
   13.5674  -17.2331   22.7353 C   0  0  0  0  0  0  0  0  0  0  0  0
   13.3026  -18.1487   21.7010 O   0  0  0  0  0  0  0  0  0  0  0  0
   11.7331  -17.3520   27.5181 O   0  0  0  0  0  0  0  0  0  0  0  0
   14.7871  -17.1532   23.0918 O   0  0  0  0  0  0  0  0  0  0  0  0
  1  2  1  0
  3  2  1  0
  3  5  1  0
  3  4  1  6
  5  6  1  1
  7  5  1  0
  7 12  1  0
  8  7  2  0
 10  9  1  0
 11 10  1  6
 11 12  1  0
 11 13  1  0
 13 14  2  0
 13 15  1  0
 15 16  1  0
 16 17  1  1
 16 21  1  0
 17 18  1  0
 18 19  1  0
 19 23  1  0
 19 20  2  0
 21 22  1  0
 24 21  2  0
M  END
$$$$
