ISE.pdb
     RDKit          3D

 24 23  0  0  1  0  0  0  0  0999 V2000
    6.8288  -11.5677   27.5314 C   0  0  0  0  0  0  0  0  0  0  0  0
    6.0704  -12.6635   26.7651 C   0  0  0  0  0  0  0  0  0  0  0  0
    7.0087  -13.4697   25.9346 C   0  0  2  0  0  0  0  0  0  0  0  0
    7.8592  -12.6242   25.0127 C   0  0  0  0  0  0  0  0  0  0  0  0
    6.4054  -14.5865   25.1615 C   0  0  2  0  0  0  0  0  0  0  0  0
    5.6018  -15.3966   26.0604 N   0  0  0  0  0  0  0  0  0  0  0  0
    7.4267  -15.4039   24.4646 C   0  0  0  0  0  0  0  0  0  0  0  0
    8.2112  -16.1993   25.0358 O   0  0  0  0  0  0  0  0  0  0  0  0
    8.5537  -14.6201   20.4098 O   0  0  0  0  0  0  0  0  0  0  0  0
    8.4629  -15.9432   20.8234 C   0  0  0  0  0  0  0  0  0  0  0  0
    8.5849  -16.0823   22.3235 C   0  0  2  0  0  0  0  0  0  0  0  0
    7.5833  -15.3286   23.0326 N   0  0  0  0  0  0  0  0  0  0  0  0
    9.9585  -15.7566   22.7531 C   0  0  0  0  0  0  0  0  0  0  0  0
   10.3660  -14.5718   22.7354 O   0  0  0  0  0  0  0  0  0  0  0  0
   10.8172  -16.7958   23.1873 N   0  0  0  0  0  0  0  0  0  0  0  0
   12.2222  -16.5515   23.5639 C   0  0  1  0  0  0  0  0  0  0  0  0
   12.3605  -17.0409   24.9609 C   0  0  0  0  0  0  0  0  0  0  0  0
   11.7349  -18.3240   25.3367 C   0  0  0  0  0  0  0  0  0  0  0  0
   11.7980  -18.8104   26.7026 C   0  0  0  0  0  0  0  0  0  0  0  0
   12.4446  -18.2982   27.6009 O   0  0  0  0  0  0  0  0  0  0  0  0
   13.1476  -17.0997   22.6156 C   0  0  0  0  0  0  0  0  0  0  0  0
   14.5182  -16.8059   22.7316 O   0  0  0  0  0  0  0  0  0  0  0  0
   11.0568  -19.9727   27.0435 O   0  0  0  0  0  0  0  0  0  0  0  0
   12.8345  -17.8576   21.6415 O   0  0  0  0  0  0  0  0  0  0  0  0
  1  2  1  0
  3  2  1  0
  3  5  1  0
  3  4  1  6
  5  6  1  1
  7  5  1  0
  7 12  1  0
  8  7  2  0
 10  9  1  0
 11 10  1  6
 11 12  1  0
 11 13  1  0
 13 14  2  0
 13 15  1  0
 15 16  1  0
 16 17  1  1
 16 21  1  0
 17 18  1  0
 18 19  1  0
 19 23  1  0
 19 20  2  0
 21 22  1  0
 24 21  2  0
M  END
$$$$
