ISE.pdb
     RDKit          3D

 24 23  0  0  1  0  0  0  0  0999 V2000
    6.4068  -11.4547   27.0986 C   0  0  0  0  0  0  0  0  0  0  0  0
    5.7539  -12.6861   26.4503 C   0  0  0  0  0  0  0  0  0  0  0  0
    6.7506  -13.4474   25.6459 C   0  0  2  0  0  0  0  0  0  0  0  0
    7.4598  -12.5926   24.6190 C   0  0  0  0  0  0  0  0  0  0  0  0
    6.2571  -14.6897   24.9961 C   0  0  2  0  0  0  0  0  0  0  0  0
    5.5845  -15.5035   25.9939 N   0  0  0  0  0  0  0  0  0  0  0  0
    7.3433  -15.4437   24.3266 C   0  0  0  0  0  0  0  0  0  0  0  0
    8.1913  -16.1495   24.9241 O   0  0  0  0  0  0  0  0  0  0  0  0
    8.4683  -14.5954   20.3052 O   0  0  0  0  0  0  0  0  0  0  0  0
    8.4936  -15.9243   20.7095 C   0  0  0  0  0  0  0  0  0  0  0  0
    8.5811  -16.0624   22.2120 C   0  0  2  0  0  0  0  0  0  0  0  0
    7.4936  -15.4076   22.8924 N   0  0  0  0  0  0  0  0  0  0  0  0
    9.9054  -15.6168   22.6862 C   0  0  0  0  0  0  0  0  0  0  0  0
   10.0198  -14.5629   23.3541 O   0  0  0  0  0  0  0  0  0  0  0  0
   11.0512  -16.3908   22.3803 N   0  0  0  0  0  0  0  0  0  0  0  0
   12.1901  -16.5142   23.3096 C   0  0  1  0  0  0  0  0  0  0  0  0
   11.6627  -17.2164   24.5092 C   0  0  0  0  0  0  0  0  0  0  0  0
   12.5913  -17.5646   25.6026 C   0  0  0  0  0  0  0  0  0  0  0  0
   12.1328  -18.3145   26.7573 C   0  0  0  0  0  0  0  0  0  0  0  0
   10.9821  -18.3493   27.1599 O   0  0  0  0  0  0  0  0  0  0  0  0
   13.3396  -17.1092   22.6926 C   0  0  0  0  0  0  0  0  0  0  0  0
   13.1700  -17.9885   21.6081 O   0  0  0  0  0  0  0  0  0  0  0  0
   13.0806  -19.0751   27.4920 O   0  0  0  0  0  0  0  0  0  0  0  0
   14.5462  -16.9081   23.0460 O   0  0  0  0  0  0  0  0  0  0  0  0
  1  2  1  0
  3  2  1  0
  3  5  1  0
  3  4  1  6
  5  6  1  1
  7  5  1  0
  7 12  1  0
  8  7  2  0
 10  9  1  0
 11 10  1  6
 11 12  1  0
 11 13  1  0
 13 14  2  0
 13 15  1  0
 15 16  1  0
 16 17  1  1
 16 21  1  0
 17 18  1  0
 18 19  1  0
 19 23  1  0
 19 20  2  0
 21 22  1  0
 24 21  2  0
M  END
$$$$
