ISE.pdb
     RDKit          3D

 24 23  0  0  1  0  0  0  0  0999 V2000
    7.9544  -12.5378   21.4018 C   0  0  0  0  0  0  0  0  0  0  0  0
    8.3165  -13.7447   20.5215 C   0  0  0  0  0  0  0  0  0  0  0  0
    8.7878  -13.2956   19.1813 C   0  0  2  0  0  0  0  0  0  0  0  0
    7.8057  -12.3797   18.4849 C   0  0  0  0  0  0  0  0  0  0  0  0
    9.2122  -14.3671   18.2428 C   0  0  2  0  0  0  0  0  0  0  0  0
    8.0703  -15.2187   17.9586 N   0  0  0  0  0  0  0  0  0  0  0  0
   10.3552  -15.1524   18.7659 C   0  0  0  0  0  0  0  0  0  0  0  0
   10.2535  -16.2768   19.3134 O   0  0  0  0  0  0  0  0  0  0  0  0
   14.5046  -13.7358   18.6378 O   0  0  0  0  0  0  0  0  0  0  0  0
   14.0974  -15.0084   18.2570 C   0  0  0  0  0  0  0  0  0  0  0  0
   12.8540  -15.4538   18.9918 C   0  0  2  0  0  0  0  0  0  0  0  0
   11.7036  -14.6487   18.6718 N   0  0  0  0  0  0  0  0  0  0  0  0
   13.1193  -15.5241   20.4417 C   0  0  0  0  0  0  0  0  0  0  0  0
   12.6867  -14.6348   21.2109 O   0  0  0  0  0  0  0  0  0  0  0  0
   13.8693  -16.6077   20.9606 N   0  0  0  0  0  0  0  0  0  0  0  0
   14.2118  -16.7156   22.3912 C   0  0  1  0  0  0  0  0  0  0  0  0
   14.4242  -18.1638   22.6511 C   0  0  0  0  0  0  0  0  0  0  0  0
   14.6910  -18.6134   24.0316 C   0  0  0  0  0  0  0  0  0  0  0  0
   14.9930  -20.0041   24.3157 C   0  0  0  0  0  0  0  0  0  0  0  0
   14.2541  -20.9452   24.0797 O   0  0  0  0  0  0  0  0  0  0  0  0
   15.2921  -15.8492   22.7635 C   0  0  0  0  0  0  0  0  0  0  0  0
   15.4495  -15.4729   24.1095 O   0  0  0  0  0  0  0  0  0  0  0  0
   16.2413  -20.3180   24.9156 O   0  0  0  0  0  0  0  0  0  0  0  0
   16.1566  -15.3708   21.9604 O   0  0  0  0  0  0  0  0  0  0  0  0
  1  2  1  0
  3  2  1  0
  3  5  1  0
  3  4  1  6
  5  6  1  1
  7  5  1  0
  7 12  1  0
  8  7  2  0
 10  9  1  0
 11 10  1  6
 11 12  1  0
 11 13  1  0
 13 14  2  0
 13 15  1  0
 15 16  1  0
 16 17  1  6
 16 21  1  0
 17 18  1  0
 18 19  1  0
 19 23  1  0
 19 20  2  0
 21 22  1  0
 24 21  2  0
M  END
$$$$
