ISE.pdb
     RDKit          3D

 24 23  0  0  1  0  0  0  0  0999 V2000
    8.7421  -15.9786   15.3441 C   0  0  0  0  0  0  0  0  0  0  0  0
    7.9957  -14.9715   16.2338 C   0  0  0  0  0  0  0  0  0  0  0  0
    8.5933  -14.9313   17.5981 C   0  0  2  0  0  0  0  0  0  0  0  0
    8.6737  -16.2942   18.2495 C   0  0  0  0  0  0  0  0  0  0  0  0
    7.9870  -13.9652   18.5510 C   0  0  2  0  0  0  0  0  0  0  0  0
    7.9916  -12.6453   17.9446 N   0  0  0  0  0  0  0  0  0  0  0  0
    8.6778  -13.9600   19.8622 C   0  0  0  0  0  0  0  0  0  0  0  0
    9.8814  -13.6476   20.0301 O   0  0  0  0  0  0  0  0  0  0  0  0
    6.7220  -15.4570   23.3783 O   0  0  0  0  0  0  0  0  0  0  0  0
    7.6599  -14.4394   23.5013 C   0  0  0  0  0  0  0  0  0  0  0  0
    8.6352  -14.4192   22.3469 C   0  0  2  0  0  0  0  0  0  0  0  0
    7.9781  -14.3286   21.0685 N   0  0  0  0  0  0  0  0  0  0  0  0
    9.5542  -15.5700   22.4389 C   0  0  0  0  0  0  0  0  0  0  0  0
    9.3266  -16.6186   21.7918 O   0  0  0  0  0  0  0  0  0  0  0  0
   10.6999  -15.4818   23.2667 N   0  0  0  0  0  0  0  0  0  0  0  0
   11.5584  -16.6470   23.5511 C   0  0  1  0  0  0  0  0  0  0  0  0
   12.9560  -16.1822   23.3492 C   0  0  0  0  0  0  0  0  0  0  0  0
   13.4667  -16.0209   21.9736 C   0  0  0  0  0  0  0  0  0  0  0  0
   14.8464  -15.6412   21.7323 C   0  0  0  0  0  0  0  0  0  0  0  0
   15.6692  -15.3973   22.5988 O   0  0  0  0  0  0  0  0  0  0  0  0
   11.2750  -17.2391   24.8260 C   0  0  0  0  0  0  0  0  0  0  0  0
   11.9094  -18.4399   25.1916 O   0  0  0  0  0  0  0  0  0  0  0  0
   15.2966  -15.5391   20.3893 O   0  0  0  0  0  0  0  0  0  0  0  0
   10.4737  -16.7616   25.6927 O   0  0  0  0  0  0  0  0  0  0  0  0
  1  2  1  0
  3  2  1  0
  3  5  1  0
  3  4  1  1
  5  6  1  6
  7  5  1  0
  7 12  1  0
  8  7  2  0
 10  9  1  0
 11 10  1  1
 11 12  1  0
 11 13  1  0
 13 14  2  0
 13 15  1  0
 15 16  1  0
 16 17  1  1
 16 21  1  0
 17 18  1  0
 18 19  1  0
 19 23  1  0
 19 20  2  0
 21 22  1  0
 24 21  2  0
M  END
$$$$
