ISE.pdb
     RDKit          3D

 24 23  0  0  1  0  0  0  0  0999 V2000
    6.4207  -11.0442   26.6589 C   0  0  0  0  0  0  0  0  0  0  0  0
    5.7639  -12.3393   26.1546 C   0  0  0  0  0  0  0  0  0  0  0  0
    6.7684  -13.2116   25.4838 C   0  0  2  0  0  0  0  0  0  0  0  0
    7.5025  -12.5136   24.3604 C   0  0  0  0  0  0  0  0  0  0  0  0
    6.2764  -14.5301   25.0059 C   0  0  2  0  0  0  0  0  0  0  0  0
    5.5711  -15.1875   26.0924 N   0  0  0  0  0  0  0  0  0  0  0  0
    7.3696  -15.3806   24.4784 C   0  0  0  0  0  0  0  0  0  0  0  0
    8.1440  -16.0649   25.1900 O   0  0  0  0  0  0  0  0  0  0  0  0
    8.7932  -15.1048   20.4482 O   0  0  0  0  0  0  0  0  0  0  0  0
    8.5971  -16.3674   20.9936 C   0  0  0  0  0  0  0  0  0  0  0  0
    8.6180  -16.3462   22.5048 C   0  0  2  0  0  0  0  0  0  0  0  0
    7.6155  -15.4740   23.0601 N   0  0  0  0  0  0  0  0  0  0  0  0
    9.9776  -16.0387   22.9890 C   0  0  0  0  0  0  0  0  0  0  0  0
   10.3734  -14.8520   23.0611 O   0  0  0  0  0  0  0  0  0  0  0  0
   10.8360  -17.0975   23.3733 N   0  0  0  0  0  0  0  0  0  0  0  0
   12.1978  -16.8608   23.8881 C   0  0  1  0  0  0  0  0  0  0  0  0
   12.3972  -17.8478   24.9817 C   0  0  0  0  0  0  0  0  0  0  0  0
   11.3957  -17.9327   26.0629 C   0  0  0  0  0  0  0  0  0  0  0  0
   11.5157  -18.9288   27.1114 C   0  0  0  0  0  0  0  0  0  0  0  0
   10.8340  -18.9700   28.1218 O   0  0  0  0  0  0  0  0  0  0  0  0
   13.1864  -16.8711   22.8494 C   0  0  0  0  0  0  0  0  0  0  0  0
   14.4838  -16.4001   23.1195 O   0  0  0  0  0  0  0  0  0  0  0  0
   12.4972  -19.9455   26.9716 O   0  0  0  0  0  0  0  0  0  0  0  0
   12.9942  -17.2835   21.6602 O   0  0  0  0  0  0  0  0  0  0  0  0
  1  2  1  0
  3  2  1  0
  3  5  1  0
  3  4  1  6
  5  6  1  1
  7  5  1  0
  7 12  1  0
  8  7  2  0
 10  9  1  0
 11 10  1  6
 11 12  1  0
 11 13  1  0
 13 14  2  0
 13 15  1  0
 15 16  1  0
 16 17  1  1
 16 21  1  0
 17 18  1  0
 18 19  1  0
 19 23  1  0
 19 20  2  0
 21 22  1  0
 24 21  2  0
M  END
$$$$
