ISE.pdb
     RDKit          3D

 24 23  0  0  1  0  0  0  0  0999 V2000
    6.6817  -13.0513   25.8431 C   0  0  0  0  0  0  0  0  0  0  0  0
    6.7501  -14.3157   24.9716 C   0  0  0  0  0  0  0  0  0  0  0  0
    7.5593  -14.0662   23.7457 C   0  0  2  0  0  0  0  0  0  0  0  0
    7.0243  -12.9284   22.9047 C   0  0  0  0  0  0  0  0  0  0  0  0
    7.8119  -15.2447   22.8760 C   0  0  2  0  0  0  0  0  0  0  0  0
    6.5370  -15.7698   22.4188 N   0  0  0  0  0  0  0  0  0  0  0  0
    8.6118  -16.2877   23.5608 C   0  0  0  0  0  0  0  0  0  0  0  0
    8.1266  -17.2167   24.2507 O   0  0  0  0  0  0  0  0  0  0  0  0
   12.9046  -16.0028   24.2787 O   0  0  0  0  0  0  0  0  0  0  0  0
   12.3273  -17.1639   23.7801 C   0  0  0  0  0  0  0  0  0  0  0  0
   10.8641  -17.2752   24.1421 C   0  0  2  0  0  0  0  0  0  0  0  0
   10.0514  -16.2947   23.4696 N   0  0  0  0  0  0  0  0  0  0  0  0
   10.7007  -17.2471   25.6084 C   0  0  0  0  0  0  0  0  0  0  0  0
    9.8575  -16.4877   26.1396 O   0  0  0  0  0  0  0  0  0  0  0  0
   11.5065  -18.0873   26.4150 N   0  0  0  0  0  0  0  0  0  0  0  0
   11.0349  -18.6325   27.7019 C   0  0  1  0  0  0  0  0  0  0  0  0
    9.9396  -19.5799   27.3660 C   0  0  0  0  0  0  0  0  0  0  0  0
    8.5404  -19.1695   27.5959 C   0  0  0  0  0  0  0  0  0  0  0  0
    7.4461  -20.0930   27.3601 C   0  0  0  0  0  0  0  0  0  0  0  0
    7.5711  -21.2562   27.0158 O   0  0  0  0  0  0  0  0  0  0  0  0
   12.1028  -19.1681   28.4951 C   0  0  0  0  0  0  0  0  0  0  0  0
   11.9247  -19.3335   29.8803 O   0  0  0  0  0  0  0  0  0  0  0  0
    6.1161  -19.6280   27.5380 O   0  0  0  0  0  0  0  0  0  0  0  0
   13.2404  -19.5231   28.0468 O   0  0  0  0  0  0  0  0  0  0  0  0
  1  2  1  0
  3  2  1  0
  3  5  1  0
  3  4  1  6
  5  6  1  1
  7  5  1  0
  7 12  1  0
  8  7  2  0
 10  9  1  0
 11 10  1  1
 11 12  1  0
 11 13  1  0
 13 14  2  0
 13 15  1  0
 15 16  1  0
 16 17  1  6
 16 21  1  0
 17 18  1  0
 18 19  1  0
 19 23  1  0
 19 20  2  0
 21 22  1  0
 24 21  2  0
M  END
$$$$
