ISE.pdb
     RDKit          3D

 24 23  0  0  1  0  0  0  0  0999 V2000
    6.8524  -11.2114   27.0264 C   0  0  0  0  0  0  0  0  0  0  0  0
    6.0484  -12.4015   26.4787 C   0  0  0  0  0  0  0  0  0  0  0  0
    6.9181  -13.2909   25.6588 C   0  0  2  0  0  0  0  0  0  0  0  0
    7.6480  -12.5539   24.5577 C   0  0  0  0  0  0  0  0  0  0  0  0
    6.2689  -14.5026   25.0936 C   0  0  2  0  0  0  0  0  0  0  0  0
    5.5781  -15.2039   26.1617 N   0  0  0  0  0  0  0  0  0  0  0  0
    7.2360  -15.3881   24.4026 C   0  0  0  0  0  0  0  0  0  0  0  0
    8.0126  -16.1834   24.9846 O   0  0  0  0  0  0  0  0  0  0  0  0
    8.5047  -14.8464   20.3380 O   0  0  0  0  0  0  0  0  0  0  0  0
    8.1257  -16.1168   20.7536 C   0  0  0  0  0  0  0  0  0  0  0  0
    8.2218  -16.2793   22.2532 C   0  0  2  0  0  0  0  0  0  0  0  0
    7.3439  -15.3860   22.9642 N   0  0  0  0  0  0  0  0  0  0  0  0
    9.6278  -16.1669   22.6867 C   0  0  0  0  0  0  0  0  0  0  0  0
   10.1080  -15.0540   23.0043 O   0  0  0  0  0  0  0  0  0  0  0  0
   10.4346  -17.3295   22.7415 N   0  0  0  0  0  0  0  0  0  0  0  0
   11.8326  -17.2973   23.2109 C   0  0  1  0  0  0  0  0  0  0  0  0
   11.9295  -18.3324   24.2735 C   0  0  0  0  0  0  0  0  0  0  0  0
   13.2550  -18.6664   24.8309 C   0  0  0  0  0  0  0  0  0  0  0  0
   13.3972  -19.6916   25.8481 C   0  0  0  0  0  0  0  0  0  0  0  0
   14.1917  -19.6576   26.7727 O   0  0  0  0  0  0  0  0  0  0  0  0
   12.7749  -17.4150   22.1364 C   0  0  0  0  0  0  0  0  0  0  0  0
   14.0467  -16.8273   22.2592 O   0  0  0  0  0  0  0  0  0  0  0  0
   12.5559  -20.8337   25.7820 O   0  0  0  0  0  0  0  0  0  0  0  0
   12.5617  -18.0260   21.0398 O   0  0  0  0  0  0  0  0  0  0  0  0
  1  2  1  0
  3  2  1  0
  3  5  1  0
  3  4  1  6
  5  6  1  1
  7  5  1  0
  7 12  1  0
  8  7  2  0
 10  9  1  0
 11 10  1  6
 11 12  1  0
 11 13  1  0
 13 14  2  0
 13 15  1  0
 15 16  1  0
 16 17  1  1
 16 21  1  0
 17 18  1  0
 18 19  1  0
 19 23  1  0
 19 20  2  0
 21 22  1  0
 24 21  2  0
M  END
$$$$
