ISE.pdb
     RDKit          3D

 24 23  0  0  1  0  0  0  0  0999 V2000
    6.6171  -11.6845   27.2821 C   0  0  0  0  0  0  0  0  0  0  0  0
    5.9370  -12.8600   26.5622 C   0  0  0  0  0  0  0  0  0  0  0  0
    6.9324  -13.6427   25.7770 C   0  0  2  0  0  0  0  0  0  0  0  0
    7.7590  -12.7839   24.8455 C   0  0  0  0  0  0  0  0  0  0  0  0
    6.4032  -14.8125   25.0283 C   0  0  2  0  0  0  0  0  0  0  0  0
    5.5912  -15.6142   25.9272 N   0  0  0  0  0  0  0  0  0  0  0  0
    7.4819  -15.6191   24.4099 C   0  0  0  0  0  0  0  0  0  0  0  0
    8.2332  -16.4026   25.0393 O   0  0  0  0  0  0  0  0  0  0  0  0
    8.8698  -14.8699   20.3776 O   0  0  0  0  0  0  0  0  0  0  0  0
    8.7966  -16.1690   20.8646 C   0  0  0  0  0  0  0  0  0  0  0  0
    8.8546  -16.2171   22.3741 C   0  0  2  0  0  0  0  0  0  0  0  0
    7.7401  -15.5465   22.9926 N   0  0  0  0  0  0  0  0  0  0  0  0
   10.1594  -15.7168   22.8479 C   0  0  0  0  0  0  0  0  0  0  0  0
   10.3094  -14.5069   23.1370 O   0  0  0  0  0  0  0  0  0  0  0  0
   11.2459  -16.6165   22.9742 N   0  0  0  0  0  0  0  0  0  0  0  0
   12.5871  -16.1772   23.4031 C   0  0  1  0  0  0  0  0  0  0  0  0
   12.7022  -16.5590   24.8352 C   0  0  0  0  0  0  0  0  0  0  0  0
   12.4517  -17.9601   25.2266 C   0  0  0  0  0  0  0  0  0  0  0  0
   12.6511  -18.3968   26.5961 C   0  0  0  0  0  0  0  0  0  0  0  0
   12.0284  -17.9870   27.5613 O   0  0  0  0  0  0  0  0  0  0  0  0
   13.6251  -16.6636   22.5416 C   0  0  0  0  0  0  0  0  0  0  0  0
   14.9484  -16.2266   22.7317 O   0  0  0  0  0  0  0  0  0  0  0  0
   13.6441  -19.3779   26.8572 O   0  0  0  0  0  0  0  0  0  0  0  0
   13.4564  -17.4864   21.5847 O   0  0  0  0  0  0  0  0  0  0  0  0
  1  2  1  0
  3  2  1  0
  3  5  1  0
  3  4  1  6
  5  6  1  1
  7  5  1  0
  7 12  1  0
  8  7  2  0
 10  9  1  0
 11 10  1  6
 11 12  1  0
 11 13  1  0
 13 14  2  0
 13 15  1  0
 15 16  1  0
 16 17  1  1
 16 21  1  0
 17 18  1  0
 18 19  1  0
 19 23  1  0
 19 20  2  0
 21 22  1  0
 24 21  2  0
M  END
$$$$
