ISE.pdb
     RDKit          3D

 24 23  0  0  1  0  0  0  0  0999 V2000
    7.5016  -15.8534   16.7112 C   0  0  0  0  0  0  0  0  0  0  0  0
    7.4649  -14.5484   17.5226 C   0  0  0  0  0  0  0  0  0  0  0  0
    7.9882  -14.7705   18.8998 C   0  0  2  0  0  0  0  0  0  0  0  0
    7.3839  -15.9821   19.5744 C   0  0  0  0  0  0  0  0  0  0  0  0
    7.9190  -13.6076   19.8227 C   0  0  2  0  0  0  0  0  0  0  0  0
    8.4935  -12.4499   19.1595 N   0  0  0  0  0  0  0  0  0  0  0  0
    8.5888  -13.8765   21.1172 C   0  0  0  0  0  0  0  0  0  0  0  0
    9.8261  -14.0299   21.2588 O   0  0  0  0  0  0  0  0  0  0  0  0
    6.3050  -14.4944   24.7218 O   0  0  0  0  0  0  0  0  0  0  0  0
    7.5721  -13.9276   24.7793 C   0  0  0  0  0  0  0  0  0  0  0  0
    8.4292  -14.3242   23.5992 C   0  0  2  0  0  0  0  0  0  0  0  0
    7.8261  -13.9815   22.3370 N   0  0  0  0  0  0  0  0  0  0  0  0
    8.7919  -15.7515   23.6926 C   0  0  0  0  0  0  0  0  0  0  0  0
    8.0569  -16.6288   23.1826 O   0  0  0  0  0  0  0  0  0  0  0  0
    9.9809  -16.1252   24.3651 N   0  0  0  0  0  0  0  0  0  0  0  0
   10.3375  -17.5352   24.6109 C   0  0  1  0  0  0  0  0  0  0  0  0
   11.3827  -17.8717   23.6087 C   0  0  0  0  0  0  0  0  0  0  0  0
   12.5187  -16.9483   23.4191 C   0  0  0  0  0  0  0  0  0  0  0  0
   13.5266  -17.2069   22.4076 C   0  0  0  0  0  0  0  0  0  0  0  0
   14.2963  -18.1529   22.4095 O   0  0  0  0  0  0  0  0  0  0  0  0
   10.6825  -17.7831   25.9805 C   0  0  0  0  0  0  0  0  0  0  0  0
   10.9505  -19.0975   26.4032 O   0  0  0  0  0  0  0  0  0  0  0  0
   13.6447  -16.3007   21.3207 O   0  0  0  0  0  0  0  0  0  0  0  0
   10.7742  -16.8916   26.8850 O   0  0  0  0  0  0  0  0  0  0  0  0
  1  2  1  0
  3  2  1  0
  3  5  1  0
  3  4  1  1
  5  6  1  6
  7  5  1  0
  7 12  1  0
  8  7  2  0
 10  9  1  0
 11 10  1  1
 11 12  1  0
 11 13  1  0
 13 14  2  0
 13 15  1  0
 15 16  1  0
 16 17  1  6
 16 21  1  0
 17 18  1  0
 18 19  1  0
 19 23  1  0
 19 20  2  0
 21 22  1  0
 24 21  2  0
M  END
$$$$
