ISE.pdb
     RDKit          3D

 24 23  0  0  1  0  0  0  0  0999 V2000
    7.8070  -11.8064   18.5660 C   0  0  0  0  0  0  0  0  0  0  0  0
    7.6486  -13.3315   18.6747 C   0  0  0  0  0  0  0  0  0  0  0  0
    8.4535  -13.8642   19.8098 C   0  0  2  0  0  0  0  0  0  0  0  0
    9.9175  -13.4933   19.7227 C   0  0  0  0  0  0  0  0  0  0  0  0
    8.3298  -15.3216   20.0739 C   0  0  2  0  0  0  0  0  0  0  0  0
    6.9242  -15.6860   20.0341 N   0  0  0  0  0  0  0  0  0  0  0  0
    8.9539  -15.7150   21.3594 C   0  0  0  0  0  0  0  0  0  0  0  0
    8.3848  -15.6478   22.4756 O   0  0  0  0  0  0  0  0  0  0  0  0
    9.9693  -18.9112   22.3855 O   0  0  0  0  0  0  0  0  0  0  0  0
   10.1221  -17.8307   23.2452 C   0  0  0  0  0  0  0  0  0  0  0  0
   10.9106  -16.7061   22.6144 C   0  0  2  0  0  0  0  0  0  0  0  0
   10.3053  -16.2176   21.4023 N   0  0  0  0  0  0  0  0  0  0  0  0
   12.3166  -17.1139   22.4292 C   0  0  0  0  0  0  0  0  0  0  0  0
   12.6228  -17.9640   21.5611 O   0  0  0  0  0  0  0  0  0  0  0  0
   13.3221  -16.5362   23.2422 N   0  0  0  0  0  0  0  0  0  0  0  0
   14.7530  -16.8485   23.0674 C   0  0  1  0  0  0  0  0  0  0  0  0
   15.3525  -15.6576   22.4099 C   0  0  0  0  0  0  0  0  0  0  0  0
   14.9751  -15.3402   21.0185 C   0  0  0  0  0  0  0  0  0  0  0  0
   15.5974  -14.2354   20.3126 C   0  0  0  0  0  0  0  0  0  0  0  0
   15.0305  -13.2099   19.9748 O   0  0  0  0  0  0  0  0  0  0  0  0
   15.3763  -17.2677   24.2888 C   0  0  0  0  0  0  0  0  0  0  0  0
   16.6906  -17.7677   24.2631 O   0  0  0  0  0  0  0  0  0  0  0  0
   16.9741  -14.3339   19.9782 O   0  0  0  0  0  0  0  0  0  0  0  0
   14.8323  -17.2274   25.4393 O   0  0  0  0  0  0  0  0  0  0  0  0
  1  2  1  0
  3  2  1  0
  3  5  1  0
  3  4  1  6
  5  6  1  1
  7  5  1  0
  7 12  1  0
  8  7  2  0
 10  9  1  0
 11 10  1  6
 11 12  1  0
 11 13  1  0
 13 14  2  0
 13 15  1  0
 15 16  1  0
 16 17  1  1
 16 21  1  0
 17 18  1  0
 18 19  1  0
 19 23  1  0
 19 20  2  0
 21 22  1  0
 24 21  2  0
M  END
$$$$
