DLN.pdb
     RDKit          3D

 25 24  0  0  1  0  0  0  0  0999 V2000
   11.7818  -16.2928   17.7612 N   0  0  0  0  0  0  0  0  0  0  0  0
   12.7724  -15.5710   18.5321 C   0  0  1  0  0  0  0  0  0  0  0  0
   13.4296  -14.5872   17.5727 C   0  0  0  0  0  0  0  0  0  0  0  0
   14.2018  -15.3237   16.5666 C   0  0  0  0  0  0  0  0  0  0  0  0
   14.4825  -14.7829   15.4697 O   0  0  0  0  0  0  0  0  0  0  0  0
   12.1486  -14.8167   19.6531 C   0  0  0  0  0  0  0  0  0  0  0  0
   12.8338  -14.0575   20.4044 O   0  0  0  0  0  0  0  0  0  0  0  0
   14.6361  -16.6132   16.7918 O   0  0  0  0  0  0  0  0  0  0  0  0
    9.1531  -11.9235   19.7105 C   0  0  0  0  0  0  0  0  0  0  0  0
    8.5314  -13.2850   19.5340 C   0  0  2  0  0  0  0  0  0  0  0  0
    7.0468  -13.0708   19.2828 C   0  0  0  0  0  0  0  0  0  0  0  0
    8.6672  -14.1165   20.7615 C   0  0  0  0  0  0  0  0  0  0  0  0
   10.1196  -14.4119   21.0963 C   0  0  2  0  0  0  0  0  0  0  0  0
   10.7691  -14.9154   19.9254 N   0  0  0  0  0  0  0  0  0  0  0  0
   10.2059  -15.3383   22.2521 C   0  0  0  0  0  0  0  0  0  0  0  0
    9.5722  -15.1061   23.3085 O   0  0  0  0  0  0  0  0  0  0  0  0
    9.9952  -19.5962   20.7122 N   0  0  0  0  0  0  0  0  0  0  0  0
    9.9804  -19.2458   22.0985 C   0  0  0  0  0  0  0  0  0  0  0  0
    8.8756  -19.2951   22.6790 O   0  0  0  0  0  0  0  0  0  0  0  0
   11.1967  -18.8464   22.8144 C   0  0  0  0  0  0  0  0  0  0  0  0
   11.1195  -17.4574   23.3197 C   0  0  2  0  0  0  0  0  0  0  0  0
   11.0099  -16.5037   22.1774 N   0  0  0  0  0  0  0  0  0  0  0  0
   12.3103  -17.0144   24.1099 C   0  0  0  0  0  0  0  0  0  0  0  0
   13.1513  -16.2628   23.6387 O   0  0  0  0  0  0  0  0  0  0  0  0
   12.5089  -17.4464   25.4266 O   0  0  0  0  0  0  0  0  0  0  0  0
  2  1  1  6
  2  3  1  0
  4  3  1  0
  5  4  2  0
  6  2  1  0
  7  6  2  0
  8  4  1  0
 10  9  1  1
 10 12  1  0
 11 10  1  0
 13 12  1  6
 13 14  1  0
 14  6  1  0
 15 22  1  0
 15 13  1  0
 16 15  2  0
 18 19  2  0
 18 17  1  0
 20 18  1  0
 21 20  1  6
 21 22  1  0
 23 25  1  0
 23 21  1  0
 24 23  2  0
M  END
$$$$
