DLN.pdb
     RDKit          3D

 25 24  0  0  1  0  0  0  0  0999 V2000
    7.5970  -15.9315   21.6250 N   0  0  0  0  0  0  0  0  0  0  0  0
    8.9709  -16.0549   22.0652 C   0  0  1  0  0  0  0  0  0  0  0  0
    9.7799  -15.0731   21.2275 C   0  0  0  0  0  0  0  0  0  0  0  0
    9.9342  -15.5990   19.8670 C   0  0  0  0  0  0  0  0  0  0  0  0
    9.5682  -16.7691   19.6000 O   0  0  0  0  0  0  0  0  0  0  0  0
    9.1170  -15.7047   23.5042 C   0  0  0  0  0  0  0  0  0  0  0  0
   10.2548  -15.6623   24.0645 O   0  0  0  0  0  0  0  0  0  0  0  0
   10.4780  -14.8354   18.8555 O   0  0  0  0  0  0  0  0  0  0  0  0
    8.3027  -12.2936   26.0504 C   0  0  0  0  0  0  0  0  0  0  0  0
    7.0854  -13.0151   25.5315 C   0  0  2  0  0  0  0  0  0  0  0  0
    5.8739  -12.1733   25.9009 C   0  0  0  0  0  0  0  0  0  0  0  0
    6.9211  -14.3495   26.1709 C   0  0  0  0  0  0  0  0  0  0  0  0
    7.9942  -15.3318   25.7321 C   0  0  2  0  0  0  0  0  0  0  0  0
    7.9953  -15.4051   24.3035 N   0  0  0  0  0  0  0  0  0  0  0  0
    7.7857  -16.6497   26.3811 C   0  0  0  0  0  0  0  0  0  0  0  0
    6.6828  -16.9410   26.9009 O   0  0  0  0  0  0  0  0  0  0  0  0
    6.8576  -19.1565   25.1071 N   0  0  0  0  0  0  0  0  0  0  0  0
    7.9261  -20.1014   25.2088 C   0  0  0  0  0  0  0  0  0  0  0  0
    7.9674  -20.9989   24.3411 O   0  0  0  0  0  0  0  0  0  0  0  0
    8.9305  -20.0303   26.2754 C   0  0  0  0  0  0  0  0  0  0  0  0
    8.7072  -18.8806   27.1804 C   0  0  2  0  0  0  0  0  0  0  0  0
    8.8356  -17.6017   26.4225 N   0  0  0  0  0  0  0  0  0  0  0  0
    9.6774  -18.7830   28.3153 C   0  0  0  0  0  0  0  0  0  0  0  0
    9.6260  -19.5419   29.2722 O   0  0  0  0  0  0  0  0  0  0  0  0
   10.6867  -17.8131   28.3256 O   0  0  0  0  0  0  0  0  0  0  0  0
  2  1  1  6
  2  3  1  0
  4  3  1  0
  5  4  2  0
  6  2  1  0
  7  6  2  0
  8  4  1  0
 10  9  1  1
 10 12  1  0
 11 10  1  0
 13 12  1  6
 13 14  1  0
 14  6  1  0
 15 22  1  0
 15 13  1  0
 16 15  2  0
 18 19  2  0
 18 17  1  0
 20 18  1  0
 21 20  1  6
 21 22  1  0
 23 25  1  0
 23 21  1  0
 24 23  2  0
M  END
$$$$
