DLN.pdb
     RDKit          3D

 25 24  0  0  1  0  0  0  0  0999 V2000
   10.4974  -17.5949   16.2955 N   0  0  0  0  0  0  0  0  0  0  0  0
    9.6022  -17.6464   17.4323 C   0  0  1  0  0  0  0  0  0  0  0  0
    9.6010  -19.0918   17.9127 C   0  0  0  0  0  0  0  0  0  0  0  0
    8.3734  -19.7575   17.4643 C   0  0  0  0  0  0  0  0  0  0  0  0
    7.5984  -19.1762   16.6669 O   0  0  0  0  0  0  0  0  0  0  0  0
   10.0703  -16.7655   18.5366 C   0  0  0  0  0  0  0  0  0  0  0  0
   11.3031  -16.6462   18.8130 O   0  0  0  0  0  0  0  0  0  0  0  0
    8.0387  -21.0230   17.8986 O   0  0  0  0  0  0  0  0  0  0  0  0
    8.9776  -12.3370   19.6898 C   0  0  0  0  0  0  0  0  0  0  0  0
    7.9348  -13.4169   19.8244 C   0  0  2  0  0  0  0  0  0  0  0  0
    6.6437  -12.7416   20.2603 C   0  0  0  0  0  0  0  0  0  0  0  0
    8.3017  -14.4101   20.8710 C   0  0  0  0  0  0  0  0  0  0  0  0
    9.5046  -15.2476   20.4704 C   0  0  2  0  0  0  0  0  0  0  0  0
    9.1614  -16.0266   19.3208 N   0  0  0  0  0  0  0  0  0  0  0  0
    9.9649  -16.0724   21.6147 C   0  0  0  0  0  0  0  0  0  0  0  0
    9.3771  -17.1384   21.9140 O   0  0  0  0  0  0  0  0  0  0  0  0
   13.7274  -17.2215   21.9550 N   0  0  0  0  0  0  0  0  0  0  0  0
   13.9606  -16.3587   23.0713 C   0  0  0  0  0  0  0  0  0  0  0  0
   15.1294  -15.9479   23.2297 O   0  0  0  0  0  0  0  0  0  0  0  0
   12.8876  -15.9683   23.9921 C   0  0  0  0  0  0  0  0  0  0  0  0
   11.5637  -16.4631   23.5527 C   0  0  2  0  0  0  0  0  0  0  0  0
   11.0806  -15.6645   22.3886 N   0  0  0  0  0  0  0  0  0  0  0  0
   10.4880  -16.3692   24.5884 C   0  0  0  0  0  0  0  0  0  0  0  0
    9.7156  -15.4227   24.6292 O   0  0  0  0  0  0  0  0  0  0  0  0
   10.3238  -17.3669   25.5565 O   0  0  0  0  0  0  0  0  0  0  0  0
  2  1  1  6
  2  3  1  0
  4  3  1  0
  5  4  2  0
  6  2  1  0
  7  6  2  0
  8  4  1  0
 10  9  1  1
 10 12  1  0
 11 10  1  0
 13 12  1  1
 13 14  1  0
 14  6  1  0
 15 22  1  0
 15 13  1  0
 16 15  2  0
 18 19  2  0
 18 17  1  0
 20 18  1  0
 21 20  1  1
 21 22  1  0
 23 25  1  0
 23 21  1  0
 24 23  2  0
M  END
$$$$
