DLN.pdb
     RDKit          3D

 25 24  0  0  1  0  0  0  0  0999 V2000
   10.1410  -17.5741   17.3253 N   0  0  0  0  0  0  0  0  0  0  0  0
   10.5042  -17.8985   18.6889 C   0  0  1  0  0  0  0  0  0  0  0  0
   11.8760  -18.5571   18.6228 C   0  0  0  0  0  0  0  0  0  0  0  0
   11.7585  -19.9739   18.9837 C   0  0  0  0  0  0  0  0  0  0  0  0
   12.7851  -20.6380   19.2655 O   0  0  0  0  0  0  0  0  0  0  0  0
   10.5891  -16.6782   19.5365 C   0  0  0  0  0  0  0  0  0  0  0  0
   11.6375  -15.9640   19.5682 O   0  0  0  0  0  0  0  0  0  0  0  0
   10.5352  -20.6094   19.0235 O   0  0  0  0  0  0  0  0  0  0  0  0
    8.3754  -12.8908   19.6147 C   0  0  0  0  0  0  0  0  0  0  0  0
    7.6082  -14.0988   20.0875 C   0  0  2  0  0  0  0  0  0  0  0  0
    6.1684  -13.6591   20.3039 C   0  0  0  0  0  0  0  0  0  0  0  0
    8.1263  -14.6069   21.3874 C   0  0  0  0  0  0  0  0  0  0  0  0
    9.5305  -15.1740   21.2629 C   0  0  2  0  0  0  0  0  0  0  0  0
    9.5061  -16.2660   20.3392 N   0  0  0  0  0  0  0  0  0  0  0  0
   10.0552  -15.5541   22.5978 C   0  0  0  0  0  0  0  0  0  0  0  0
    9.2810  -15.7014   23.5727 O   0  0  0  0  0  0  0  0  0  0  0  0
   10.9831  -19.1857   26.2067 N   0  0  0  0  0  0  0  0  0  0  0  0
   11.8389  -18.5779   25.2357 C   0  0  0  0  0  0  0  0  0  0  0  0
   13.0677  -18.7420   25.3881 O   0  0  0  0  0  0  0  0  0  0  0  0
   11.3112  -17.7973   24.1114 C   0  0  0  0  0  0  0  0  0  0  0  0
   11.9765  -16.4817   23.9808 C   0  0  2  0  0  0  0  0  0  0  0  0
   11.4452  -15.7567   22.7898 N   0  0  0  0  0  0  0  0  0  0  0  0
   13.4592  -16.5490   23.7912 C   0  0  0  0  0  0  0  0  0  0  0  0
   14.2068  -16.9062   24.6899 O   0  0  0  0  0  0  0  0  0  0  0  0
   14.0510  -16.2030   22.5706 O   0  0  0  0  0  0  0  0  0  0  0  0
  2  1  1  6
  2  3  1  0
  4  3  1  0
  5  4  2  0
  6  2  1  0
  7  6  2  0
  8  4  1  0
 10  9  1  1
 10 12  1  0
 11 10  1  0
 13 12  1  1
 13 14  1  0
 14  6  1  0
 15 22  1  0
 15 13  1  0
 16 15  2  0
 18 19  2  0
 18 17  1  0
 20 18  1  0
 21 20  1  6
 21 22  1  0
 23 25  1  0
 23 21  1  0
 24 23  2  0
M  END
$$$$
