DLN.pdb
     RDKit          3D

 25 24  0  0  1  0  0  0  0  0999 V2000
    9.0281  -16.3086   21.1363 N   0  0  0  0  0  0  0  0  0  0  0  0
    9.9597  -16.8575   22.0993 C   0  0  1  0  0  0  0  0  0  0  0  0
   11.3485  -16.6910   21.4962 C   0  0  0  0  0  0  0  0  0  0  0  0
   11.2529  -16.7021   20.0326 C   0  0  0  0  0  0  0  0  0  0  0  0
   10.4759  -17.5033   19.4595 O   0  0  0  0  0  0  0  0  0  0  0  0
    9.8996  -16.1276   23.3948 C   0  0  0  0  0  0  0  0  0  0  0  0
   10.9156  -16.0290   24.1486 O   0  0  0  0  0  0  0  0  0  0  0  0
   12.0028  -15.8457   19.2540 O   0  0  0  0  0  0  0  0  0  0  0  0
    5.6930  -12.6623   26.3541 C   0  0  0  0  0  0  0  0  0  0  0  0
    7.0598  -13.2975   26.3445 C   0  0  2  0  0  0  0  0  0  0  0  0
    8.0723  -12.1863   26.5750 C   0  0  0  0  0  0  0  0  0  0  0  0
    7.3673  -13.9240   25.0294 C   0  0  0  0  0  0  0  0  0  0  0  0
    8.5167  -14.9137   25.1204 C   0  0  2  0  0  0  0  0  0  0  0  0
    8.7094  -15.5152   23.8369 N   0  0  0  0  0  0  0  0  0  0  0  0
    8.2616  -15.9055   26.1942 C   0  0  0  0  0  0  0  0  0  0  0  0
    7.1167  -16.3875   26.3629 O   0  0  0  0  0  0  0  0  0  0  0  0
    9.3073  -20.2886   28.6577 N   0  0  0  0  0  0  0  0  0  0  0  0
    9.1913  -20.0709   27.2492 C   0  0  0  0  0  0  0  0  0  0  0  0
    9.0973  -21.0872   26.5291 O   0  0  0  0  0  0  0  0  0  0  0  0
    9.1820  -18.7247   26.6668 C   0  0  0  0  0  0  0  0  0  0  0  0
    9.3138  -17.6680   27.6946 C   0  0  2  0  0  0  0  0  0  0  0  0
    9.3137  -16.3234   27.0477 N   0  0  0  0  0  0  0  0  0  0  0  0
   10.5733  -17.7348   28.4995 C   0  0  0  0  0  0  0  0  0  0  0  0
   11.6114  -17.2177   28.1134 O   0  0  0  0  0  0  0  0  0  0  0  0
   10.6120  -18.3964   29.7326 O   0  0  0  0  0  0  0  0  0  0  0  0
  2  1  1  6
  2  3  1  0
  4  3  1  0
  5  4  2  0
  6  2  1  0
  7  6  2  0
  8  4  1  0
 10  9  1  6
 10 12  1  0
 11 10  1  0
 13 12  1  6
 13 14  1  0
 14  6  1  0
 15 22  1  0
 15 13  1  0
 16 15  2  0
 18 19  2  0
 18 17  1  0
 20 18  1  0
 21 20  1  6
 21 22  1  0
 23 25  1  0
 23 21  1  0
 24 23  2  0
M  END
$$$$
