DLN.pdb
     RDKit          3D

 25 24  0  0  1  0  0  0  0  0999 V2000
    7.4161  -16.5403   21.9981 N   0  0  0  0  0  0  0  0  0  0  0  0
    8.7930  -16.1126   21.8651 C   0  0  1  0  0  0  0  0  0  0  0  0
    8.8131  -15.0687   20.7561 C   0  0  0  0  0  0  0  0  0  0  0  0
    8.5635  -15.7186   19.4651 C   0  0  0  0  0  0  0  0  0  0  0  0
    8.3161  -16.9478   19.4176 O   0  0  0  0  0  0  0  0  0  0  0  0
    9.2981  -15.4982   23.1229 C   0  0  0  0  0  0  0  0  0  0  0  0
   10.5189  -15.1817   23.2630 O   0  0  0  0  0  0  0  0  0  0  0  0
    8.5927  -15.0095   18.2826 O   0  0  0  0  0  0  0  0  0  0  0  0
    7.8657  -11.9946   25.3789 C   0  0  0  0  0  0  0  0  0  0  0  0
    6.9817  -13.2068   25.5228 C   0  0  2  0  0  0  0  0  0  0  0  0
    5.7635  -12.7803   26.3273 C   0  0  0  0  0  0  0  0  0  0  0  0
    7.6606  -14.2982   26.2741 C   0  0  0  0  0  0  0  0  0  0  0  0
    8.8583  -14.8534   25.5217 C   0  0  2  0  0  0  0  0  0  0  0  0
    8.4388  -15.2426   24.2107 N   0  0  0  0  0  0  0  0  0  0  0  0
    9.4802  -15.9629   26.2858 C   0  0  0  0  0  0  0  0  0  0  0  0
    9.8751  -15.7884   27.4627 O   0  0  0  0  0  0  0  0  0  0  0  0
   11.3559  -20.6496   27.6301 N   0  0  0  0  0  0  0  0  0  0  0  0
   10.6181  -20.7933   26.4136 C   0  0  0  0  0  0  0  0  0  0  0  0
   10.5330  -21.9461   25.9406 O   0  0  0  0  0  0  0  0  0  0  0  0
    9.9877  -19.6501   25.7447 C   0  0  0  0  0  0  0  0  0  0  0  0
   10.2958  -18.3676   26.4163 C   0  0  2  0  0  0  0  0  0  0  0  0
    9.6372  -17.2411   25.6927 N   0  0  0  0  0  0  0  0  0  0  0  0
   11.7514  -18.0252   26.4686 C   0  0  0  0  0  0  0  0  0  0  0  0
   12.3618  -17.6589   25.4749 O   0  0  0  0  0  0  0  0  0  0  0  0
   12.4746  -18.1121   27.6640 O   0  0  0  0  0  0  0  0  0  0  0  0
  2  1  1  1
  2  3  1  0
  4  3  1  0
  5  4  2  0
  6  2  1  0
  7  6  2  0
  8  4  1  0
 10  9  1  1
 10 12  1  0
 11 10  1  0
 13 12  1  1
 13 14  1  0
 14  6  1  0
 15 22  1  0
 15 13  1  0
 16 15  2  0
 18 19  2  0
 18 17  1  0
 20 18  1  0
 21 20  1  6
 21 22  1  0
 23 25  1  0
 23 21  1  0
 24 23  2  0
M  END
$$$$
