PIP.pdb
     RDKit          3D

 23 24  0  0  1  0  0  0  0  0999 V2000
   26.5197  -21.1509  -12.1435 N   0  0  0  0  0  0  0  0  0  0  0  0
   25.8289  -20.5266  -13.2668 C   0  0  0  0  0  0  0  0  0  0  0  0
   24.5080  -20.0287  -12.7072 C   0  0  0  0  0  0  0  0  0  0  0  0
   24.6022  -20.2941  -11.2137 C   0  0  0  0  0  0  0  0  0  0  0  0
   26.1260  -20.3230  -11.0358 C   0  0  1  0  0  0  0  0  0  0  0  0
   26.5158  -20.8695   -9.7300 C   0  0  0  0  0  0  0  0  0  0  0  0
   26.4835  -22.1031   -9.5245 O   0  0  0  0  0  0  0  0  0  0  0  0
   29.6664  -19.3158   -4.7210 C   0  0  0  0  0  0  0  0  0  0  0  0
   28.5909  -20.1695   -5.3135 C   0  0  0  0  0  0  0  0  0  0  0  0
   28.1520  -19.6975   -6.6487 C   0  0  2  0  0  0  0  0  0  0  0  0
   27.6972  -18.2543   -6.5102 C   0  0  0  0  0  0  0  0  0  0  0  0
   27.0838  -20.5454   -7.3099 C   0  0  2  0  0  0  0  0  0  0  0  0
   26.9445  -20.0417   -8.6443 N   0  0  0  0  0  0  0  0  0  0  0  0
   25.8529  -20.6300   -6.5834 C   0  0  0  0  0  0  0  0  0  0  0  0
   25.0674  -19.6052   -6.6803 O   0  0  0  0  0  0  0  0  0  0  0  0
   25.3992  -21.6660   -5.7923 N   0  0  0  0  0  0  0  0  0  0  0  0
   26.1058  -22.8437   -5.3823 C   0  0  0  0  0  0  0  0  0  0  0  0
   25.2885  -23.4087   -4.2101 C   0  0  0  0  0  0  0  0  0  0  0  0
   23.8898  -23.1109   -4.7209 C   0  0  0  0  0  0  0  0  0  0  0  0
   24.0486  -21.7070   -5.2084 C   0  0  1  0  0  0  0  0  0  0  0  0
   23.9920  -20.8029   -4.0540 C   0  0  0  0  0  0  0  0  0  0  0  0
   22.8001  -20.4933   -3.4168 O   0  0  0  0  0  0  0  0  0  0  0  0
   25.0443  -20.2803   -3.6109 O   0  0  0  0  0  0  0  0  0  0  0  0
  2  3  1  0
  2  1  1  0
  3  4  1  0
  5  1  1  0
  5  4  1  0
  5  6  1  1
  6  7  2  0
  8  9  1  0
  9 10  1  0
 10 11  1  1
 10 12  1  0
 12 14  1  0
 13  6  1  0
 12 13  1  6
 14 16  1  0
 14 15  2  0
 16 17  1  0
 17 18  1  0
 19 18  1  0
 20 16  1  0
 20 19  1  0
 20 21  1  1
 22 21  1  0
 23 21  2  0
M  END
$$$$
