PIP.pdb
     RDKit          3D

 23 24  0  0  1  0  0  0  0  0999 V2000
   27.3509  -22.0426  -18.2056 N   0  0  0  0  0  0  0  0  0  0  0  0
   27.9884  -22.6461  -19.3709 C   0  0  0  0  0  0  0  0  0  0  0  0
   29.4794  -22.4360  -19.1744 C   0  0  0  0  0  0  0  0  0  0  0  0
   29.5989  -21.8236  -17.7885 C   0  0  0  0  0  0  0  0  0  0  0  0
   28.2927  -22.3210  -17.1554 C   0  0  1  0  0  0  0  0  0  0  0  0
   27.9910  -21.6229  -15.8995 C   0  0  0  0  0  0  0  0  0  0  0  0
   28.6337  -21.8853  -14.8588 O   0  0  0  0  0  0  0  0  0  0  0  0
   27.2190  -16.5031  -16.2870 C   0  0  0  0  0  0  0  0  0  0  0  0
   27.5786  -17.8536  -15.7546 C   0  0  0  0  0  0  0  0  0  0  0  0
   26.4836  -18.4727  -14.9697 C   0  0  2  0  0  0  0  0  0  0  0  0
   26.2355  -17.6065  -13.7462 C   0  0  0  0  0  0  0  0  0  0  0  0
   26.7133  -19.9186  -14.5776 C   0  0  2  0  0  0  0  0  0  0  0  0
   26.9690  -20.6264  -15.7971 N   0  0  0  0  0  0  0  0  0  0  0  0
   25.6769  -20.4917  -13.7729 C   0  0  0  0  0  0  0  0  0  0  0  0
   24.5998  -20.8397  -14.4017 O   0  0  0  0  0  0  0  0  0  0  0  0
   25.6816  -20.7189  -12.4116 N   0  0  0  0  0  0  0  0  0  0  0  0
   26.6694  -20.3257  -11.4504 C   0  0  0  0  0  0  0  0  0  0  0  0
   25.9732  -20.4629  -10.0873 C   0  0  0  0  0  0  0  0  0  0  0  0
   25.1632  -21.7198  -10.3516 C   0  0  0  0  0  0  0  0  0  0  0  0
   24.6016  -21.4272  -11.7054 C   0  0  1  0  0  0  0  0  0  0  0  0
   23.4528  -20.5277  -11.5498 C   0  0  0  0  0  0  0  0  0  0  0  0
   22.2136  -20.9802  -11.1231 O   0  0  0  0  0  0  0  0  0  0  0  0
   23.5716  -19.3040  -11.8054 O   0  0  0  0  0  0  0  0  0  0  0  0
  2  3  1  0
  2  1  1  0
  3  4  1  0
  5  1  1  0
  5  4  1  0
  5  6  1  1
  6  7  2  0
  8  9  1  0
  9 10  1  0
 10 11  1  1
 10 12  1  0
 12 14  1  0
 13  6  1  0
 12 13  1  6
 14 16  1  0
 14 15  2  0
 16 17  1  0
 17 18  1  0
 19 18  1  0
 20 16  1  0
 20 19  1  0
 20 21  1  1
 22 21  1  0
 23 21  2  0
M  END
$$$$
