PIP.pdb
     RDKit          3D

 23 24  0  0  1  0  0  0  0  0999 V2000
   20.4701  -12.6035  -17.7559 N   0  0  0  0  0  0  0  0  0  0  0  0
   21.1830  -13.8122  -18.1549 C   0  0  0  0  0  0  0  0  0  0  0  0
   22.3013  -13.3430  -19.0687 C   0  0  0  0  0  0  0  0  0  0  0  0
   22.2271  -11.8259  -19.0143 C   0  0  0  0  0  0  0  0  0  0  0  0
   21.5276  -11.6339  -17.6622 C   0  0  1  0  0  0  0  0  0  0  0  0
   21.0457  -10.2585  -17.4841 C   0  0  0  0  0  0  0  0  0  0  0  0
   20.9946   -9.4743  -18.4575 O   0  0  0  0  0  0  0  0  0  0  0  0
   16.8280  -10.0226  -15.9773 C   0  0  0  0  0  0  0  0  0  0  0  0
   17.7470   -8.9830  -16.5354 C   0  0  0  0  0  0  0  0  0  0  0  0
   18.7362   -8.4976  -15.5434 C   0  0  2  0  0  0  0  0  0  0  0  0
   18.2519   -7.1579  -15.0146 C   0  0  0  0  0  0  0  0  0  0  0  0
   20.1607   -8.4009  -16.0521 C   0  0  2  0  0  0  0  0  0  0  0  0
   20.6172   -9.7492  -16.2173 N   0  0  0  0  0  0  0  0  0  0  0  0
   21.0253   -7.5821  -15.2570 C   0  0  0  0  0  0  0  0  0  0  0  0
   21.2367   -7.9914  -14.0470 O   0  0  0  0  0  0  0  0  0  0  0  0
   21.6605   -6.4112  -15.6181 N   0  0  0  0  0  0  0  0  0  0  0  0
   21.5760   -5.7037  -16.8618 C   0  0  0  0  0  0  0  0  0  0  0  0
   22.1306   -4.3028  -16.5596 C   0  0  0  0  0  0  0  0  0  0  0  0
   23.2503   -4.6831  -15.6069 C   0  0  0  0  0  0  0  0  0  0  0  0
   22.5587   -5.6673  -14.7200 C   0  0  1  0  0  0  0  0  0  0  0  0
   21.7582   -4.9281  -13.7372 C   0  0  0  0  0  0  0  0  0  0  0  0
   22.3187   -4.3698  -12.5986 O   0  0  0  0  0  0  0  0  0  0  0  0
   20.5230   -4.7833  -13.9116 O   0  0  0  0  0  0  0  0  0  0  0  0
  2  3  1  0
  2  1  1  0
  3  4  1  0
  5  1  1  0
  5  4  1  0
  5  6  1  6
  6  7  2  0
  8  9  1  0
  9 10  1  0
 10 11  1  6
 10 12  1  0
 12 14  1  0
 13  6  1  0
 12 13  1  1
 14 16  1  0
 14 15  2  0
 16 17  1  0
 17 18  1  0
 19 18  1  0
 20 16  1  0
 20 19  1  0
 20 21  1  1
 22 21  1  0
 23 21  2  0
M  END
$$$$
