PIP.pdb
     RDKit          3D

 23 24  0  0  1  0  0  0  0  0999 V2000
   21.0597  -11.4272  -18.1609 N   0  0  0  0  0  0  0  0  0  0  0  0
   20.8009  -12.4410  -19.1777 C   0  0  0  0  0  0  0  0  0  0  0  0
   19.5320  -13.1477  -18.7350 C   0  0  0  0  0  0  0  0  0  0  0  0
   19.0630  -12.3643  -17.5200 C   0  0  0  0  0  0  0  0  0  0  0  0
   19.7341  -11.0112  -17.7905 C   0  0  1  0  0  0  0  0  0  0  0  0
   19.7038  -10.1380  -16.6106 C   0  0  0  0  0  0  0  0  0  0  0  0
   18.6176   -9.6872  -16.1840 O   0  0  0  0  0  0  0  0  0  0  0  0
   20.5901   -9.4635  -11.4479 C   0  0  0  0  0  0  0  0  0  0  0  0
   21.7110   -9.0374  -12.3416 C   0  0  0  0  0  0  0  0  0  0  0  0
   21.6633   -9.6868  -13.6736 C   0  0  2  0  0  0  0  0  0  0  0  0
   23.0924   -9.8898  -14.1483 C   0  0  0  0  0  0  0  0  0  0  0  0
   20.8409   -8.9549  -14.7153 C   0  0  2  0  0  0  0  0  0  0  0  0
   20.8868   -9.7621  -15.8986 N   0  0  0  0  0  0  0  0  0  0  0  0
   21.2167   -7.5888  -14.9222 C   0  0  0  0  0  0  0  0  0  0  0  0
   22.4562   -7.3846  -15.2358 O   0  0  0  0  0  0  0  0  0  0  0  0
   20.4241   -6.4629  -14.8282 N   0  0  0  0  0  0  0  0  0  0  0  0
   19.0237   -6.3864  -14.5326 C   0  0  0  0  0  0  0  0  0  0  0  0
   18.7784   -4.9182  -14.1513 C   0  0  0  0  0  0  0  0  0  0  0  0
   19.7109   -4.2481  -15.1449 C   0  0  0  0  0  0  0  0  0  0  0  0
   20.9354   -5.0952  -15.0148 C   0  0  1  0  0  0  0  0  0  0  0  0
   21.6633   -4.6813  -13.8098 C   0  0  0  0  0  0  0  0  0  0  0  0
   22.4692   -3.5534  -13.7853 O   0  0  0  0  0  0  0  0  0  0  0  0
   21.5688   -5.3549  -12.7542 O   0  0  0  0  0  0  0  0  0  0  0  0
  2  3  1  0
  2  1  1  0
  3  4  1  0
  5  1  1  0
  5  4  1  0
  5  6  1  1
  6  7  2  0
  8  9  1  0
  9 10  1  0
 10 11  1  6
 10 12  1  0
 12 14  1  0
 13  6  1  0
 12 13  1  6
 14 16  1  0
 14 15  2  0
 16 17  1  0
 17 18  1  0
 19 18  1  0
 20 16  1  0
 20 19  1  0
 20 21  1  1
 22 21  1  0
 23 21  2  0
M  END
$$$$
