PIP.pdb
     RDKit          3D

 23 24  0  0  1  0  0  0  0  0999 V2000
   22.8972  -19.4993  -10.6588 N   0  0  0  0  0  0  0  0  0  0  0  0
   21.7826  -20.3268  -11.1081 C   0  0  0  0  0  0  0  0  0  0  0  0
   22.4095  -21.6106  -11.6223 C   0  0  0  0  0  0  0  0  0  0  0  0
   23.8863  -21.4738  -11.2903 C   0  0  0  0  0  0  0  0  0  0  0  0
   23.8148  -20.4719  -10.1303 C   0  0  1  0  0  0  0  0  0  0  0  0
   25.1335  -19.9148   -9.8043 C   0  0  0  0  0  0  0  0  0  0  0  0
   25.6431  -19.0294  -10.5264 O   0  0  0  0  0  0  0  0  0  0  0  0
   27.5301  -19.5059   -4.8157 C   0  0  0  0  0  0  0  0  0  0  0  0
   27.1109  -19.3254   -6.2399 C   0  0  0  0  0  0  0  0  0  0  0  0
   27.6905  -20.3475   -7.1440 C   0  0  2  0  0  0  0  0  0  0  0  0
   29.1989  -20.3348   -6.9609 C   0  0  0  0  0  0  0  0  0  0  0  0
   27.3168  -20.1977   -8.6053 C   0  0  2  0  0  0  0  0  0  0  0  0
   25.8925  -20.3428   -8.6692 N   0  0  0  0  0  0  0  0  0  0  0  0
   28.0346  -21.0575   -9.4972 C   0  0  0  0  0  0  0  0  0  0  0  0
   27.8748  -22.3285   -9.3085 O   0  0  0  0  0  0  0  0  0  0  0  0
   28.8759  -20.7017  -10.5318 N   0  0  0  0  0  0  0  0  0  0  0  0
   29.3205  -19.3904  -10.9023 C   0  0  0  0  0  0  0  0  0  0  0  0
   30.5301  -19.6263  -11.8202 C   0  0  0  0  0  0  0  0  0  0  0  0
   30.0340  -20.8505  -12.5692 C   0  0  0  0  0  0  0  0  0  0  0  0
   29.4864  -21.6765  -11.4505 C   0  0  1  0  0  0  0  0  0  0  0  0
   30.6036  -22.3459  -10.7744 C   0  0  0  0  0  0  0  0  0  0  0  0
   30.9630  -22.0458   -9.4693 O   0  0  0  0  0  0  0  0  0  0  0  0
   31.2707  -23.2225  -11.3772 O   0  0  0  0  0  0  0  0  0  0  0  0
  2  3  1  0
  2  1  1  0
  3  4  1  0
  5  1  1  0
  5  4  1  0
  5  6  1  6
  6  7  2  0
  8  9  1  0
  9 10  1  0
 10 11  1  6
 10 12  1  0
 12 14  1  0
 13  6  1  0
 12 13  1  1
 14 16  1  0
 14 15  2  0
 16 17  1  0
 17 18  1  0
 19 18  1  0
 20 16  1  0
 20 19  1  0
 20 21  1  1
 22 21  1  0
 23 21  2  0
M  END
$$$$
