PIP.pdb
     RDKit          3D

 23 24  0  0  1  0  0  0  0  0999 V2000
   26.7354  -20.7204  -11.2080 N   0  0  0  0  0  0  0  0  0  0  0  0
   25.6081  -20.5674  -12.1214 C   0  0  0  0  0  0  0  0  0  0  0  0
   24.3667  -20.8065  -11.2803 C   0  0  0  0  0  0  0  0  0  0  0  0
   24.8896  -20.9498   -9.8605 C   0  0  0  0  0  0  0  0  0  0  0  0
   26.2156  -20.1866   -9.9783 C   0  0  1  0  0  0  0  0  0  0  0  0
   27.0896  -20.4233   -8.8226 C   0  0  0  0  0  0  0  0  0  0  0  0
   27.7673  -21.4720   -8.7452 O   0  0  0  0  0  0  0  0  0  0  0  0
   30.8678  -18.7396   -5.2608 C   0  0  0  0  0  0  0  0  0  0  0  0
   29.4309  -18.4960   -4.9252 C   0  0  0  0  0  0  0  0  0  0  0  0
   28.5624  -18.4343   -6.1252 C   0  0  2  0  0  0  0  0  0  0  0  0
   27.4472  -17.4405   -5.8468 C   0  0  0  0  0  0  0  0  0  0  0  0
   28.0041  -19.7672   -6.5825 C   0  0  2  0  0  0  0  0  0  0  0  0
   27.2127  -19.4901   -7.7447 N   0  0  0  0  0  0  0  0  0  0  0  0
   27.3169  -20.5075   -5.5677 C   0  0  0  0  0  0  0  0  0  0  0  0
   26.0394  -20.3106   -5.4913 O   0  0  0  0  0  0  0  0  0  0  0  0
   27.8452  -21.4034   -4.6605 N   0  0  0  0  0  0  0  0  0  0  0  0
   29.2073  -21.8282   -4.5243 C   0  0  0  0  0  0  0  0  0  0  0  0
   29.2830  -22.4777   -3.1336 C   0  0  0  0  0  0  0  0  0  0  0  0
   27.9294  -23.1656   -3.1108 C   0  0  0  0  0  0  0  0  0  0  0  0
   27.0412  -22.0820   -3.6310 C   0  0  1  0  0  0  0  0  0  0  0  0
   26.7609  -21.1434   -2.5384 C   0  0  0  0  0  0  0  0  0  0  0  0
   27.3548  -19.8925   -2.4694 O   0  0  0  0  0  0  0  0  0  0  0  0
   25.9604  -21.4614   -1.6246 O   0  0  0  0  0  0  0  0  0  0  0  0
  2  3  1  0
  2  1  1  0
  3  4  1  0
  5  1  1  0
  5  4  1  0
  5  6  1  1
  6  7  2  0
  8  9  1  0
  9 10  1  0
 10 11  1  1
 10 12  1  0
 12 14  1  0
 13  6  1  0
 12 13  1  6
 14 16  1  0
 14 15  2  0
 16 17  1  0
 17 18  1  0
 19 18  1  0
 20 16  1  0
 20 19  1  0
 20 21  1  1
 22 21  1  0
 23 21  2  0
M  END
$$$$
