PIP.pdb
     RDKit          3D

 23 24  0  0  1  0  0  0  0  0999 V2000
   26.8974  -15.8467  -15.2911 N   0  0  0  0  0  0  0  0  0  0  0  0
   26.1075  -14.8451  -15.9993 C   0  0  0  0  0  0  0  0  0  0  0  0
   24.9048  -15.5900  -16.5510 C   0  0  0  0  0  0  0  0  0  0  0  0
   25.0296  -16.9926  -15.9792 C   0  0  0  0  0  0  0  0  0  0  0  0
   25.8870  -16.7078  -14.7390 C   0  0  1  0  0  0  0  0  0  0  0  0
   26.4268  -17.9398  -14.1504 C   0  0  0  0  0  0  0  0  0  0  0  0
   27.5823  -18.3249  -14.4361 O   0  0  0  0  0  0  0  0  0  0  0  0
   26.9303  -19.8971   -9.7586 C   0  0  0  0  0  0  0  0  0  0  0  0
   25.6966  -19.5120  -10.5113 C   0  0  0  0  0  0  0  0  0  0  0  0
   25.3870  -20.4430  -11.6229 C   0  0  2  0  0  0  0  0  0  0  0  0
   25.7513  -21.8481  -11.1735 C   0  0  0  0  0  0  0  0  0  0  0  0
   26.0457  -20.1049  -12.9454 C   0  0  2  0  0  0  0  0  0  0  0  0
   25.6796  -18.7506  -13.2381 N   0  0  0  0  0  0  0  0  0  0  0  0
   25.7704  -21.0288  -14.0040 C   0  0  0  0  0  0  0  0  0  0  0  0
   24.5259  -21.3468  -14.1677 O   0  0  0  0  0  0  0  0  0  0  0  0
   26.6647  -21.6235  -14.8708 N   0  0  0  0  0  0  0  0  0  0  0  0
   28.0967  -21.6162  -14.8101 C   0  0  0  0  0  0  0  0  0  0  0  0
   28.5392  -22.7494  -15.7490 C   0  0  0  0  0  0  0  0  0  0  0  0
   27.5035  -22.5769  -16.8460 C   0  0  0  0  0  0  0  0  0  0  0  0
   26.2529  -22.4103  -16.0447 C   0  0  1  0  0  0  0  0  0  0  0  0
   25.8000  -23.7352  -15.6056 C   0  0  0  0  0  0  0  0  0  0  0  0
   25.1765  -24.6250  -16.4669 O   0  0  0  0  0  0  0  0  0  0  0  0
   25.9718  -24.0972  -14.4155 O   0  0  0  0  0  0  0  0  0  0  0  0
  2  3  1  0
  2  1  1  0
  3  4  1  0
  5  1  1  0
  5  4  1  0
  5  6  1  6
  6  7  2  0
  8  9  1  0
  9 10  1  0
 10 11  1  1
 10 12  1  0
 12 14  1  0
 13  6  1  0
 12 13  1  6
 14 16  1  0
 14 15  2  0
 16 17  1  0
 17 18  1  0
 19 18  1  0
 20 16  1  0
 20 19  1  0
 20 21  1  1
 22 21  1  0
 23 21  2  0
M  END
$$$$
