PIP.pdb
     RDKit          3D

 23 24  0  0  1  0  0  0  0  0999 V2000
   16.5961  -14.4692  -16.5059 N   0  0  0  0  0  0  0  0  0  0  0  0
   17.2850  -15.6862  -16.9220 C   0  0  0  0  0  0  0  0  0  0  0  0
   18.6081  -15.2256  -17.5076 C   0  0  0  0  0  0  0  0  0  0  0  0
   18.6394  -13.7283  -17.2486 C   0  0  0  0  0  0  0  0  0  0  0  0
   17.6782  -13.6362  -16.0560 C   0  0  1  0  0  0  0  0  0  0  0  0
   17.2750  -12.2513  -15.7819 C   0  0  0  0  0  0  0  0  0  0  0  0
   16.4130  -11.6899  -16.4938 O   0  0  0  0  0  0  0  0  0  0  0  0
   17.7590   -9.4235  -10.8691 C   0  0  0  0  0  0  0  0  0  0  0  0
   17.7891  -10.4272  -11.9773 C   0  0  0  0  0  0  0  0  0  0  0  0
   16.8461  -10.1016  -13.0741 C   0  0  2  0  0  0  0  0  0  0  0  0
   15.6631  -11.0499  -12.9730 C   0  0  0  0  0  0  0  0  0  0  0  0
   17.4471  -10.1250  -14.4653 C   0  0  2  0  0  0  0  0  0  0  0  0
   17.8318  -11.4835  -14.7103 N   0  0  0  0  0  0  0  0  0  0  0  0
   18.4930   -9.1712  -14.6809 C   0  0  0  0  0  0  0  0  0  0  0  0
   19.6391   -9.4594  -14.1519 O   0  0  0  0  0  0  0  0  0  0  0  0
   18.4325   -7.9831  -15.3807 N   0  0  0  0  0  0  0  0  0  0  0  0
   17.3002   -7.3956  -16.0342 C   0  0  0  0  0  0  0  0  0  0  0  0
   17.6956   -5.9296  -16.2711 C   0  0  0  0  0  0  0  0  0  0  0  0
   19.1615   -6.1242  -16.6164 C   0  0  0  0  0  0  0  0  0  0  0  0
   19.5871   -7.0870  -15.5555 C   0  0  1  0  0  0  0  0  0  0  0  0
   19.8144   -6.3413  -14.3123 C   0  0  0  0  0  0  0  0  0  0  0  0
   20.9483   -5.5690  -14.1117 O   0  0  0  0  0  0  0  0  0  0  0  0
   18.9684   -6.3887  -13.3856 O   0  0  0  0  0  0  0  0  0  0  0  0
  2  3  1  0
  2  1  1  0
  3  4  1  0
  5  1  1  0
  5  4  1  0
  5  6  1  6
  6  7  2  0
  8  9  1  0
  9 10  1  0
 10 11  1  6
 10 12  1  0
 12 14  1  0
 13  6  1  0
 12 13  1  1
 14 16  1  0
 14 15  2  0
 16 17  1  0
 17 18  1  0
 19 18  1  0
 20 16  1  0
 20 19  1  0
 20 21  1  1
 22 21  1  0
 23 21  2  0
M  END
$$$$
