KSY.pdb
     RDKit          3D

 28 28  0  0  1  0  0  0  0  0999 V2000
    8.4814  -16.5006   17.8215 N   0  0  0  0  0  0  0  0  0  0  0  0
    8.7388  -15.2104   18.3838 C   0  0  1  0  0  0  0  0  0  0  0  0
    8.3930  -14.0845   17.4699 C   0  0  0  0  0  0  0  0  0  0  0  0
    8.4223  -14.4212   16.0209 C   0  0  0  0  0  0  0  0  0  0  0  0
    8.1226  -13.3039   15.0844 C   0  0  0  0  0  0  0  0  0  0  0  0
    8.3465  -13.6786   13.6320 C   0  0  0  0  0  0  0  0  0  0  0  0
    8.0463  -12.5651   12.7575 N   0  0  0  0  0  0  0  0  0  0  0  0
    8.1489  -15.0503   19.7418 C   0  0  0  0  0  0  0  0  0  0  0  0
    8.3110  -13.9915   20.4110 O   0  0  0  0  0  0  0  0  0  0  0  0
    6.2142  -18.1966   21.8601 O   0  0  0  0  0  0  0  0  0  0  0  0
    5.6599  -16.9315   21.8638 C   0  0  0  0  0  0  0  0  0  0  0  0
    6.7607  -15.9146   21.6810 C   0  0  2  0  0  0  0  0  0  0  0  0
    7.3756  -16.0670   20.3626 N   0  0  0  0  0  0  0  0  0  0  0  0
    7.7462  -16.0233   22.7558 C   0  0  0  0  0  0  0  0  0  0  0  0
    8.6755  -16.9070   22.7078 O   0  0  0  0  0  0  0  0  0  0  0  0
   11.4258  -15.2521   30.8121 O   0  0  0  0  0  0  0  0  0  0  0  0
   10.7114  -15.0522   29.6380 C   0  0  0  0  0  0  0  0  0  0  0  0
   11.2298  -15.4496   28.4188 C   0  0  0  0  0  0  0  0  0  0  0  0
   10.5156  -15.2480   27.2592 C   0  0  0  0  0  0  0  0  0  0  0  0
    9.2728  -14.6533   27.2404 C   0  0  0  0  0  0  0  0  0  0  0  0
    8.4653  -14.4037   26.0321 C   0  0  0  0  0  0  0  0  0  0  0  0
    8.6127  -15.5339   25.0695 C   0  0  2  0  0  0  0  0  0  0  0  0
    7.7728  -15.2018   23.9013 N   0  0  0  0  0  0  0  0  0  0  0  0
    8.1501  -16.7893   25.6897 C   0  0  0  0  0  0  0  0  0  0  0  0
    8.9927  -17.7421   26.2193 O   0  0  0  0  0  0  0  0  0  0  0  0
    8.7695  -14.2613   28.4761 C   0  0  0  0  0  0  0  0  0  0  0  0
    9.4718  -14.4567   29.6406 C   0  0  0  0  0  0  0  0  0  0  0  0
    6.9148  -17.0154   25.7417 O   0  0  0  0  0  0  0  0  0  0  0  0
  2  1  1  6
  3  2  1  0
  3  4  1  0
  4  5  1  0
  5  6  1  0
  7  6  1  0
  8  9  2  0
  8  2  1  0
 10 11  1  0
 12 11  1  1
 12 14  1  0
 12 13  1  0
 13  8  1  0
 14 23  1  0
 15 14  2  0
 16 17  1  0
 17 18  2  0
 17 27  1  0
 18 19  1  0
 19 20  2  0
 20 21  1  0
 22 21  1  1
 22 24  1  0
 23 22  1  0
 24 28  2  0
 24 25  1  0
 26 20  1  0
 27 26  2  0
M  END
$$$$
