KSY.pdb
     RDKit          3D

 28 28  0  0  1  0  0  0  0  0999 V2000
    6.4625  -17.1408   21.0078 N   0  0  0  0  0  0  0  0  0  0  0  0
    7.6950  -16.6842   21.5730 C   0  0  1  0  0  0  0  0  0  0  0  0
    7.9605  -15.2377   21.3286 C   0  0  0  0  0  0  0  0  0  0  0  0
    8.1278  -14.8637   19.8983 C   0  0  0  0  0  0  0  0  0  0  0  0
    8.3370  -13.4162   19.6217 C   0  0  0  0  0  0  0  0  0  0  0  0
    8.4536  -13.1120   18.1405 C   0  0  0  0  0  0  0  0  0  0  0  0
    8.5616  -11.6870   17.9112 N   0  0  0  0  0  0  0  0  0  0  0  0
    7.8414  -17.0613   23.0062 C   0  0  0  0  0  0  0  0  0  0  0  0
    6.8365  -17.1912   23.7603 O   0  0  0  0  0  0  0  0  0  0  0  0
   10.0534  -19.4519   26.3797 O   0  0  0  0  0  0  0  0  0  0  0  0
   10.0257  -19.0182   25.0686 C   0  0  0  0  0  0  0  0  0  0  0  0
    9.2662  -17.7151   25.0004 C   0  0  2  0  0  0  0  0  0  0  0  0
    9.1061  -17.2958   23.6082 N   0  0  0  0  0  0  0  0  0  0  0  0
    9.9300  -16.6893   25.8037 C   0  0  0  0  0  0  0  0  0  0  0  0
   10.9499  -16.0571   25.3490 O   0  0  0  0  0  0  0  0  0  0  0  0
    5.7270  -12.2375   24.5593 O   0  0  0  0  0  0  0  0  0  0  0  0
    6.5951  -12.7582   25.5103 C   0  0  0  0  0  0  0  0  0  0  0  0
    7.9645  -12.6973   25.3259 C   0  0  0  0  0  0  0  0  0  0  0  0
    8.8187  -13.2157   26.2730 C   0  0  0  0  0  0  0  0  0  0  0  0
    8.3750  -13.8122   27.4333 C   0  0  0  0  0  0  0  0  0  0  0  0
    9.2391  -14.3913   28.4784 C   0  0  0  0  0  0  0  0  0  0  0  0
   10.2673  -15.2810   27.8644 C   0  0  2  0  0  0  0  0  0  0  0  0
    9.5308  -16.3084   27.1012 N   0  0  0  0  0  0  0  0  0  0  0  0
   11.0813  -15.9146   28.9183 C   0  0  0  0  0  0  0  0  0  0  0  0
   11.1313  -17.2736   29.1393 O   0  0  0  0  0  0  0  0  0  0  0  0
    6.9953  -13.8632   27.5996 C   0  0  0  0  0  0  0  0  0  0  0  0
    6.1320  -13.3496   26.6623 C   0  0  0  0  0  0  0  0  0  0  0  0
   11.7735  -15.1801   29.6674 O   0  0  0  0  0  0  0  0  0  0  0  0
  2  1  1  1
  3  2  1  0
  3  4  1  0
  4  5  1  0
  5  6  1  0
  7  6  1  0
  8  9  2  0
  8  2  1  0
 10 11  1  0
 12 11  1  6
 12 14  1  0
 12 13  1  0
 13  8  1  0
 14 23  1  0
 15 14  2  0
 16 17  1  0
 17 18  2  0
 17 27  1  0
 18 19  1  0
 19 20  2  0
 20 21  1  0
 22 21  1  1
 22 24  1  0
 23 22  1  0
 24 28  2  0
 24 25  1  0
 26 20  1  0
 27 26  2  0
M  END
$$$$
