KSY.pdb
     RDKit          3D

 28 28  0  0  1  0  0  0  0  0999 V2000
    8.2176  -16.0865   19.2499 N   0  0  0  0  0  0  0  0  0  0  0  0
    8.2608  -14.9055   20.0563 C   0  0  1  0  0  0  0  0  0  0  0  0
    7.5045  -13.7606   19.4736 C   0  0  0  0  0  0  0  0  0  0  0  0
    8.0395  -13.2470   18.1837 C   0  0  0  0  0  0  0  0  0  0  0  0
    8.0519  -14.2124   17.0510 C   0  0  0  0  0  0  0  0  0  0  0  0
    8.6382  -13.6226   15.7827 C   0  0  0  0  0  0  0  0  0  0  0  0
    8.6145  -14.5869   14.7037 N   0  0  0  0  0  0  0  0  0  0  0  0
    7.8997  -15.1695   21.4768 C   0  0  0  0  0  0  0  0  0  0  0  0
    7.8072  -14.2328   22.3191 O   0  0  0  0  0  0  0  0  0  0  0  0
    7.7445  -19.0628   23.0217 O   0  0  0  0  0  0  0  0  0  0  0  0
    6.8265  -18.1639   23.5287 C   0  0  0  0  0  0  0  0  0  0  0  0
    7.3759  -16.7658   23.3772 C   0  0  2  0  0  0  0  0  0  0  0  0
    7.6396  -16.4764   21.9679 N   0  0  0  0  0  0  0  0  0  0  0  0
    8.5712  -16.5901   24.2008 C   0  0  0  0  0  0  0  0  0  0  0  0
    9.7338  -16.8800   23.7413 O   0  0  0  0  0  0  0  0  0  0  0  0
    5.2979  -11.5366   26.8065 O   0  0  0  0  0  0  0  0  0  0  0  0
    6.4689  -12.2780   26.7169 C   0  0  0  0  0  0  0  0  0  0  0  0
    6.7985  -12.9403   25.5483 C   0  0  0  0  0  0  0  0  0  0  0  0
    7.9610  -13.6733   25.4671 C   0  0  0  0  0  0  0  0  0  0  0  0
    8.8458  -13.7903   26.5169 C   0  0  0  0  0  0  0  0  0  0  0  0
   10.0997  -14.5659   26.4926 C   0  0  0  0  0  0  0  0  0  0  0  0
    9.8058  -16.0183   26.3205 C   0  0  2  0  0  0  0  0  0  0  0  0
    8.5652  -16.1035   25.5241 N   0  0  0  0  0  0  0  0  0  0  0  0
    9.6113  -16.6539   27.6368 C   0  0  0  0  0  0  0  0  0  0  0  0
   10.5960  -16.7559   28.5951 O   0  0  0  0  0  0  0  0  0  0  0  0
    8.4962  -13.1170   27.6824 C   0  0  0  0  0  0  0  0  0  0  0  0
    7.3393  -12.3821   27.7765 C   0  0  0  0  0  0  0  0  0  0  0  0
    8.4839  -17.1373   27.9111 O   0  0  0  0  0  0  0  0  0  0  0  0
  2  1  1  6
  3  2  1  0
  3  4  1  0
  4  5  1  0
  5  6  1  0
  7  6  1  0
  8  9  2  0
  8  2  1  0
 10 11  1  0
 12 11  1  6
 12 14  1  0
 12 13  1  0
 13  8  1  0
 14 23  1  0
 15 14  2  0
 16 17  1  0
 17 18  2  0
 17 27  1  0
 18 19  1  0
 19 20  2  0
 20 21  1  0
 22 21  1  1
 22 24  1  0
 23 22  1  0
 24 28  2  0
 24 25  1  0
 26 20  1  0
 27 26  2  0
M  END
$$$$
