KSY.pdb
     RDKit          3D

 28 28  0  0  1  0  0  0  0  0999 V2000
    8.5210  -15.9606   17.7749 N   0  0  0  0  0  0  0  0  0  0  0  0
    8.5571  -14.6610   18.3721 C   0  0  1  0  0  0  0  0  0  0  0  0
    7.9339  -13.6020   17.5279 C   0  0  0  0  0  0  0  0  0  0  0  0
    8.5021  -13.4761   16.1586 C   0  0  0  0  0  0  0  0  0  0  0  0
    7.5647  -13.7478   15.0349 C   0  0  0  0  0  0  0  0  0  0  0  0
    8.1777  -13.4643   13.6769 C   0  0  0  0  0  0  0  0  0  0  0  0
    7.1999  -13.6290   12.6226 N   0  0  0  0  0  0  0  0  0  0  0  0
    8.0424  -14.6591   19.7695 C   0  0  0  0  0  0  0  0  0  0  0  0
    8.1144  -13.6297   20.4979 O   0  0  0  0  0  0  0  0  0  0  0  0
    6.5826  -18.1274   21.6906 O   0  0  0  0  0  0  0  0  0  0  0  0
    5.8790  -16.9484   21.8403 C   0  0  0  0  0  0  0  0  0  0  0  0
    6.8329  -15.7874   21.6926 C   0  0  2  0  0  0  0  0  0  0  0  0
    7.4450  -15.8020   20.3642 N   0  0  0  0  0  0  0  0  0  0  0  0
    7.8383  -15.8086   22.7541 C   0  0  0  0  0  0  0  0  0  0  0  0
    8.9343  -16.4600   22.6078 O   0  0  0  0  0  0  0  0  0  0  0  0
   11.6153  -14.9927   30.7474 O   0  0  0  0  0  0  0  0  0  0  0  0
   10.8366  -14.8296   29.6091 C   0  0  0  0  0  0  0  0  0  0  0  0
   11.4245  -14.6537   28.3696 C   0  0  0  0  0  0  0  0  0  0  0  0
   10.6459  -14.4926   27.2457 C   0  0  0  0  0  0  0  0  0  0  0  0
    9.2685  -14.4961   27.2839 C   0  0  0  0  0  0  0  0  0  0  0  0
    8.3830  -14.3206   26.1179 C   0  0  0  0  0  0  0  0  0  0  0  0
    8.6716  -15.3611   25.0885 C   0  0  2  0  0  0  0  0  0  0  0  0
    7.7094  -15.1422   23.9900 N   0  0  0  0  0  0  0  0  0  0  0  0
    8.4900  -16.7062   25.6650 C   0  0  0  0  0  0  0  0  0  0  0  0
    7.2643  -17.3133   25.8306 O   0  0  0  0  0  0  0  0  0  0  0  0
    8.6971  -14.6744   28.5391 C   0  0  0  0  0  0  0  0  0  0  0  0
    9.4626  -14.8363   29.6683 C   0  0  0  0  0  0  0  0  0  0  0  0
    9.5075  -17.3458   26.0330 O   0  0  0  0  0  0  0  0  0  0  0  0
  2  1  1  6
  3  2  1  0
  3  4  1  0
  4  5  1  0
  5  6  1  0
  7  6  1  0
  8  9  2  0
  8  2  1  0
 10 11  1  0
 12 11  1  1
 12 14  1  0
 12 13  1  0
 13  8  1  0
 14 23  1  0
 15 14  2  0
 16 17  1  0
 17 18  2  0
 17 27  1  0
 18 19  1  0
 19 20  2  0
 20 21  1  0
 22 21  1  1
 22 24  1  0
 23 22  1  0
 24 28  2  0
 24 25  1  0
 26 20  1  0
 27 26  2  0
M  END
$$$$
