KSY.pdb
     RDKit          3D

 28 28  0  0  1  0  0  0  0  0999 V2000
    6.0180  -17.3942   21.0087 N   0  0  0  0  0  0  0  0  0  0  0  0
    6.9076  -16.5118   21.6993 C   0  0  1  0  0  0  0  0  0  0  0  0
    6.7362  -15.0800   21.3211 C   0  0  0  0  0  0  0  0  0  0  0  0
    7.1348  -14.7476   19.9267 C   0  0  0  0  0  0  0  0  0  0  0  0
    8.4051  -13.9870   19.7740 C   0  0  0  0  0  0  0  0  0  0  0  0
    8.6488  -13.5305   18.3485 C   0  0  0  0  0  0  0  0  0  0  0  0
    9.7261  -12.5657   18.2904 N   0  0  0  0  0  0  0  0  0  0  0  0
    6.8923  -16.7227   23.1734 C   0  0  0  0  0  0  0  0  0  0  0  0
    5.9015  -16.3814   23.8785 O   0  0  0  0  0  0  0  0  0  0  0  0
    9.1427  -19.5081   25.1049 O   0  0  0  0  0  0  0  0  0  0  0  0
    8.0528  -18.9135   25.7100 C   0  0  0  0  0  0  0  0  0  0  0  0
    8.0165  -17.4537   25.3266 C   0  0  2  0  0  0  0  0  0  0  0  0
    7.9787  -17.3143   23.8710 N   0  0  0  0  0  0  0  0  0  0  0  0
    9.1503  -16.7392   25.9114 C   0  0  0  0  0  0  0  0  0  0  0  0
   10.2704  -16.6637   25.2897 O   0  0  0  0  0  0  0  0  0  0  0  0
    5.3756  -11.8372   25.6125 O   0  0  0  0  0  0  0  0  0  0  0  0
    6.4568  -12.4024   26.2763 C   0  0  0  0  0  0  0  0  0  0  0  0
    7.5381  -12.8990   25.5713 C   0  0  0  0  0  0  0  0  0  0  0  0
    8.6062  -13.4578   26.2364 C   0  0  0  0  0  0  0  0  0  0  0  0
    8.6636  -13.5552   27.6096 C   0  0  0  0  0  0  0  0  0  0  0  0
    9.7742  -14.1492   28.3764 C   0  0  0  0  0  0  0  0  0  0  0  0
   10.3007  -15.3552   27.6736 C   0  0  2  0  0  0  0  0  0  0  0  0
    9.1255  -16.0886   27.1621 N   0  0  0  0  0  0  0  0  0  0  0  0
   11.0576  -16.1993   28.6165 C   0  0  0  0  0  0  0  0  0  0  0  0
   10.7005  -17.4863   28.9546 O   0  0  0  0  0  0  0  0  0  0  0  0
    7.5670  -13.0501   28.2997 C   0  0  0  0  0  0  0  0  0  0  0  0
    6.4950  -12.4899   27.6482 C   0  0  0  0  0  0  0  0  0  0  0  0
   12.0915  -15.7255   29.1520 O   0  0  0  0  0  0  0  0  0  0  0  0
  2  1  1  6
  3  2  1  0
  3  4  1  0
  4  5  1  0
  5  6  1  0
  7  6  1  0
  8  9  2  0
  8  2  1  0
 10 11  1  0
 12 11  1  6
 12 14  1  0
 12 13  1  0
 13  8  1  0
 14 23  1  0
 15 14  2  0
 16 17  1  0
 17 18  2  0
 17 27  1  0
 18 19  1  0
 19 20  2  0
 20 21  1  0
 22 21  1  1
 22 24  1  0
 23 22  1  0
 24 28  2  0
 24 25  1  0
 26 20  1  0
 27 26  2  0
M  END
$$$$
