KSY.pdb
     RDKit          3D

 28 28  0  0  1  0  0  0  0  0999 V2000
    8.4648  -19.8444   18.5328 N   0  0  0  0  0  0  0  0  0  0  0  0
    9.2360  -18.7138   18.1155 C   0  0  1  0  0  0  0  0  0  0  0  0
    9.0719  -18.3836   16.6710 C   0  0  0  0  0  0  0  0  0  0  0  0
    9.6388  -19.3869   15.7299 C   0  0  0  0  0  0  0  0  0  0  0  0
   11.0428  -19.1537   15.2943 C   0  0  0  0  0  0  0  0  0  0  0  0
   11.5246  -20.1820   14.2890 C   0  0  0  0  0  0  0  0  0  0  0  0
   12.8544  -19.8612   13.8166 N   0  0  0  0  0  0  0  0  0  0  0  0
    9.0435  -17.5319   19.0007 C   0  0  0  0  0  0  0  0  0  0  0  0
    9.6887  -16.4610   18.8213 O   0  0  0  0  0  0  0  0  0  0  0  0
    6.2214  -17.5075   22.1027 O   0  0  0  0  0  0  0  0  0  0  0  0
    6.6609  -16.3014   21.5929 C   0  0  0  0  0  0  0  0  0  0  0  0
    8.0746  -16.4689   21.0902 C   0  0  2  0  0  0  0  0  0  0  0  0
    8.1323  -17.5348   20.0901 N   0  0  0  0  0  0  0  0  0  0  0  0
    8.9908  -16.7173   22.2023 C   0  0  0  0  0  0  0  0  0  0  0  0
    9.1559  -17.9029   22.6649 O   0  0  0  0  0  0  0  0  0  0  0  0
    5.9438  -11.0639   27.7642 O   0  0  0  0  0  0  0  0  0  0  0  0
    6.4109  -11.9094   26.7662 C   0  0  0  0  0  0  0  0  0  0  0  0
    6.0464  -13.2434   26.7420 C   0  0  0  0  0  0  0  0  0  0  0  0
    6.5135  -14.0753   25.7495 C   0  0  0  0  0  0  0  0  0  0  0  0
    7.3515  -13.6431   24.7447 C   0  0  0  0  0  0  0  0  0  0  0  0
    7.8898  -14.4867   23.6617 C   0  0  0  0  0  0  0  0  0  0  0  0
    9.2392  -15.0041   24.0318 C   0  0  2  0  0  0  0  0  0  0  0  0
    9.7524  -15.7216   22.8476 N   0  0  0  0  0  0  0  0  0  0  0  0
    9.1302  -15.9251   25.1783 C   0  0  0  0  0  0  0  0  0  0  0  0
    8.2272  -16.9635   25.2481 O   0  0  0  0  0  0  0  0  0  0  0  0
    7.7059  -12.2990   24.7869 C   0  0  0  0  0  0  0  0  0  0  0  0
    7.2467  -11.4582   25.7716 C   0  0  0  0  0  0  0  0  0  0  0  0
    9.9009  -15.7611   26.1576 O   0  0  0  0  0  0  0  0  0  0  0  0
  2  1  1  1
  3  2  1  0
  3  4  1  0
  4  5  1  0
  5  6  1  0
  7  6  1  0
  8  9  2  0
  8  2  1  0
 10 11  1  0
 12 11  1  1
 12 14  1  0
 12 13  1  0
 13  8  1  0
 14 23  1  0
 15 14  2  0
 16 17  1  0
 17 18  2  0
 17 27  1  0
 18 19  1  0
 19 20  2  0
 20 21  1  0
 22 21  1  6
 22 24  1  0
 23 22  1  0
 24 28  2  0
 24 25  1  0
 26 20  1  0
 27 26  2  0
M  END
$$$$
