KSY.pdb
     RDKit          3D

 28 28  0  0  1  0  0  0  0  0999 V2000
    5.4339  -18.5696   19.6662 N   0  0  0  0  0  0  0  0  0  0  0  0
    5.3257  -17.8348   20.8891 C   0  0  1  0  0  0  0  0  0  0  0  0
    4.7480  -18.6295   22.0103 C   0  0  0  0  0  0  0  0  0  0  0  0
    3.4741  -19.3290   21.6920 C   0  0  0  0  0  0  0  0  0  0  0  0
    2.2856  -18.9161   22.4873 C   0  0  0  0  0  0  0  0  0  0  0  0
    1.0495  -19.7331   22.1639 C   0  0  0  0  0  0  0  0  0  0  0  0
   -0.1033  -19.2356   22.8838 N   0  0  0  0  0  0  0  0  0  0  0  0
    6.5970  -17.1546   21.2620 C   0  0  0  0  0  0  0  0  0  0  0  0
    7.4986  -17.7525   21.9138 O   0  0  0  0  0  0  0  0  0  0  0  0
    9.4264  -13.2236   20.7838 O   0  0  0  0  0  0  0  0  0  0  0  0
    8.1675  -13.7632   20.6059 C   0  0  0  0  0  0  0  0  0  0  0  0
    8.1277  -15.1321   21.2416 C   0  0  2  0  0  0  0  0  0  0  0  0
    6.8721  -15.8061   20.9118 N   0  0  0  0  0  0  0  0  0  0  0  0
    8.3289  -15.0350   22.6866 C   0  0  0  0  0  0  0  0  0  0  0  0
    7.8251  -14.0629   23.3560 O   0  0  0  0  0  0  0  0  0  0  0  0
    5.4476  -11.1969   26.8625 O   0  0  0  0  0  0  0  0  0  0  0  0
    6.1786  -12.3476   26.5969 C   0  0  0  0  0  0  0  0  0  0  0  0
    7.4557  -12.5064   27.1036 C   0  0  0  0  0  0  0  0  0  0  0  0
    8.1742  -13.6498   26.8360 C   0  0  0  0  0  0  0  0  0  0  0  0
    7.6796  -14.6805   26.0668 C   0  0  0  0  0  0  0  0  0  0  0  0
    8.4030  -15.9231   25.7396 C   0  0  0  0  0  0  0  0  0  0  0  0
    9.5368  -15.6327   24.8144 C   0  0  2  0  0  0  0  0  0  0  0  0
    9.0633  -15.9614   23.4549 N   0  0  0  0  0  0  0  0  0  0  0  0
   10.7011  -16.4673   25.1646 C   0  0  0  0  0  0  0  0  0  0  0  0
   11.4009  -16.3551   26.3461 O   0  0  0  0  0  0  0  0  0  0  0  0
    6.3943  -14.5014   25.5671 C   0  0  0  0  0  0  0  0  0  0  0  0
    5.6666  -13.3654   25.8268 C   0  0  0  0  0  0  0  0  0  0  0  0
   11.0887  -17.3351   24.3420 O   0  0  0  0  0  0  0  0  0  0  0  0
  2  1  1  6
  3  2  1  0
  3  4  1  0
  4  5  1  0
  5  6  1  0
  7  6  1  0
  8  9  2  0
  8  2  1  0
 10 11  1  0
 12 11  1  1
 12 14  1  0
 12 13  1  0
 13  8  1  0
 14 23  1  0
 15 14  2  0
 16 17  1  0
 17 18  2  0
 17 27  1  0
 18 19  1  0
 19 20  2  0
 20 21  1  0
 22 21  1  1
 22 24  1  0
 23 22  1  0
 24 28  2  0
 24 25  1  0
 26 20  1  0
 27 26  2  0
M  END
$$$$
