KSY.pdb
     RDKit          3D

 28 28  0  0  1  0  0  0  0  0999 V2000
    6.4179  -16.0160   20.7895 N   0  0  0  0  0  0  0  0  0  0  0  0
    7.5694  -15.4188   21.3931 C   0  0  1  0  0  0  0  0  0  0  0  0
    7.4381  -13.9477   21.5958 C   0  0  0  0  0  0  0  0  0  0  0  0
    7.1861  -13.1638   20.3566 C   0  0  0  0  0  0  0  0  0  0  0  0
    8.1369  -13.3922   19.2345 C   0  0  0  0  0  0  0  0  0  0  0  0
    7.8432  -12.5203   18.0289 C   0  0  0  0  0  0  0  0  0  0  0  0
    8.7074  -12.8622   16.9193 N   0  0  0  0  0  0  0  0  0  0  0  0
    8.0038  -16.1323   22.6260 C   0  0  0  0  0  0  0  0  0  0  0  0
    7.1674  -16.5605   23.4699 O   0  0  0  0  0  0  0  0  0  0  0  0
   11.8944  -17.3465   22.9776 O   0  0  0  0  0  0  0  0  0  0  0  0
   10.9427  -18.0938   23.6435 C   0  0  0  0  0  0  0  0  0  0  0  0
    9.8114  -17.1853   24.0607 C   0  0  2  0  0  0  0  0  0  0  0  0
    9.3707  -16.3733   22.9266 N   0  0  0  0  0  0  0  0  0  0  0  0
   10.2082  -16.3580   25.1993 C   0  0  0  0  0  0  0  0  0  0  0  0
   10.9446  -15.3205   25.0322 O   0  0  0  0  0  0  0  0  0  0  0  0
    6.3120  -11.5196   25.3804 O   0  0  0  0  0  0  0  0  0  0  0  0
    7.0193  -12.4559   26.1235 C   0  0  0  0  0  0  0  0  0  0  0  0
    6.5677  -13.7586   26.2329 C   0  0  0  0  0  0  0  0  0  0  0  0
    7.2743  -14.6811   26.9712 C   0  0  0  0  0  0  0  0  0  0  0  0
    8.4445  -14.3729   27.6303 C   0  0  0  0  0  0  0  0  0  0  0  0
    9.2394  -15.3137   28.4411 C   0  0  0  0  0  0  0  0  0  0  0  0
   10.3992  -15.8230   27.6531 C   0  0  2  0  0  0  0  0  0  0  0  0
    9.8352  -16.6069   26.5360 N   0  0  0  0  0  0  0  0  0  0  0  0
   11.2481  -16.6808   28.5005 C   0  0  0  0  0  0  0  0  0  0  0  0
   11.9642  -16.2236   29.5851 O   0  0  0  0  0  0  0  0  0  0  0  0
    8.8813  -13.0584   27.5076 C   0  0  0  0  0  0  0  0  0  0  0  0
    8.1858  -12.1282   26.7739 C   0  0  0  0  0  0  0  0  0  0  0  0
   11.3329  -17.9042   28.2245 O   0  0  0  0  0  0  0  0  0  0  0  0
  2  1  1  1
  3  2  1  0
  3  4  1  0
  4  5  1  0
  5  6  1  0
  7  6  1  0
  8  9  2  0
  8  2  1  0
 10 11  1  0
 12 11  1  6
 12 14  1  0
 12 13  1  0
 13  8  1  0
 14 23  1  0
 15 14  2  0
 16 17  1  0
 17 18  2  0
 17 27  1  0
 18 19  1  0
 19 20  2  0
 20 21  1  0
 22 21  1  1
 22 24  1  0
 23 22  1  0
 24 28  2  0
 24 25  1  0
 26 20  1  0
 27 26  2  0
M  END
$$$$
