KSY.pdb
     RDKit          3D

 28 28  0  0  1  0  0  0  0  0999 V2000
    8.6398  -18.8930   18.3296 N   0  0  0  0  0  0  0  0  0  0  0  0
    9.6712  -17.9983   18.7570 C   0  0  1  0  0  0  0  0  0  0  0  0
   10.4456  -17.4033   17.6306 C   0  0  0  0  0  0  0  0  0  0  0  0
   10.6218  -18.2935   16.4515 C   0  0  0  0  0  0  0  0  0  0  0  0
    9.8743  -17.9071   15.2237 C   0  0  0  0  0  0  0  0  0  0  0  0
   10.1411  -18.8376   14.0562 C   0  0  0  0  0  0  0  0  0  0  0  0
    9.3022  -18.5034   12.9252 N   0  0  0  0  0  0  0  0  0  0  0  0
    9.1777  -16.9744   19.7192 C   0  0  0  0  0  0  0  0  0  0  0  0
    9.9269  -16.0483   20.1393 O   0  0  0  0  0  0  0  0  0  0  0  0
    5.3607  -17.2007   21.4661 O   0  0  0  0  0  0  0  0  0  0  0  0
    5.8343  -15.9472   21.1311 C   0  0  0  0  0  0  0  0  0  0  0  0
    7.3437  -15.9718   21.1564 C   0  0  2  0  0  0  0  0  0  0  0  0
    7.8485  -16.9751   20.2194 N   0  0  0  0  0  0  0  0  0  0  0  0
    7.8324  -16.2029   22.5150 C   0  0  0  0  0  0  0  0  0  0  0  0
    8.1228  -17.3868   22.9160 O   0  0  0  0  0  0  0  0  0  0  0  0
   10.8629  -15.1870   30.6803 O   0  0  0  0  0  0  0  0  0  0  0  0
   10.2964  -14.9353   29.4374 C   0  0  0  0  0  0  0  0  0  0  0  0
    9.5072  -13.8179   29.2336 C   0  0  0  0  0  0  0  0  0  0  0  0
    8.9491  -13.5751   27.9987 C   0  0  0  0  0  0  0  0  0  0  0  0
    9.1362  -14.4079   26.9170 C   0  0  0  0  0  0  0  0  0  0  0  0
    8.5592  -14.2052   25.5752 C   0  0  0  0  0  0  0  0  0  0  0  0
    8.4642  -15.5064   24.8516 C   0  0  2  0  0  0  0  0  0  0  0  0
    8.0266  -15.1906   23.4771 N   0  0  0  0  0  0  0  0  0  0  0  0
    7.4778  -16.3811   25.5124 C   0  0  0  0  0  0  0  0  0  0  0  0
    7.8124  -17.4649   26.2945 O   0  0  0  0  0  0  0  0  0  0  0  0
    9.9327  -15.5253   27.1427 C   0  0  0  0  0  0  0  0  0  0  0  0
   10.4957  -15.7791   28.3699 C   0  0  0  0  0  0  0  0  0  0  0  0
    6.2552  -16.1338   25.3579 O   0  0  0  0  0  0  0  0  0  0  0  0
  2  1  1  6
  3  2  1  0
  3  4  1  0
  4  5  1  0
  5  6  1  0
  7  6  1  0
  8  9  2  0
  8  2  1  0
 10 11  1  0
 12 11  1  1
 12 14  1  0
 12 13  1  0
 13  8  1  0
 14 23  1  0
 15 14  2  0
 16 17  1  0
 17 18  2  0
 17 27  1  0
 18 19  1  0
 19 20  2  0
 20 21  1  0
 22 21  1  1
 22 24  1  0
 23 22  1  0
 24 28  2  0
 24 25  1  0
 26 20  1  0
 27 26  2  0
M  END
$$$$
