KSY.pdb
     RDKit          3D

 28 28  0  0  1  0  0  0  0  0999 V2000
   10.0025  -16.8873   17.4020 N   0  0  0  0  0  0  0  0  0  0  0  0
    9.5873  -15.5499   17.6953 C   0  0  1  0  0  0  0  0  0  0  0  0
    8.8937  -14.8806   16.5579 C   0  0  0  0  0  0  0  0  0  0  0  0
    8.5099  -15.7829   15.4389 C   0  0  0  0  0  0  0  0  0  0  0  0
    8.0007  -15.1177   14.2086 C   0  0  0  0  0  0  0  0  0  0  0  0
    7.7665  -16.0904   13.0688 C   0  0  0  0  0  0  0  0  0  0  0  0
    7.3505  -15.3938   11.8704 N   0  0  0  0  0  0  0  0  0  0  0  0
    8.8238  -15.4546   18.9703 C   0  0  0  0  0  0  0  0  0  0  0  0
    8.3591  -14.3541   19.3805 O   0  0  0  0  0  0  0  0  0  0  0  0
    7.9513  -18.8464   21.2901 O   0  0  0  0  0  0  0  0  0  0  0  0
    7.0566  -17.7944   21.2712 C   0  0  0  0  0  0  0  0  0  0  0  0
    7.8169  -16.5096   21.0458 C   0  0  2  0  0  0  0  0  0  0  0  0
    8.5732  -16.5827   19.7959 N   0  0  0  0  0  0  0  0  0  0  0  0
    8.6818  -16.2158   22.1876 C   0  0  0  0  0  0  0  0  0  0  0  0
    9.9366  -16.4814   22.1465 O   0  0  0  0  0  0  0  0  0  0  0  0
   11.4386  -14.5142   30.4011 O   0  0  0  0  0  0  0  0  0  0  0  0
   10.6652  -14.6526   29.2559 C   0  0  0  0  0  0  0  0  0  0  0  0
   10.0313  -15.8485   28.9713 C   0  0  0  0  0  0  0  0  0  0  0  0
    9.2663  -15.9781   27.8340 C   0  0  0  0  0  0  0  0  0  0  0  0
    9.0888  -14.9520   26.9316 C   0  0  0  0  0  0  0  0  0  0  0  0
    8.2897  -15.0331   25.6950 C   0  0  0  0  0  0  0  0  0  0  0  0
    9.1347  -15.5162   24.5644 C   0  0  2  0  0  0  0  0  0  0  0  0
    8.2417  -15.6345   23.3944 N   0  0  0  0  0  0  0  0  0  0  0  0
    9.7183  -16.8295   24.8952 C   0  0  0  0  0  0  0  0  0  0  0  0
    9.0030  -18.0069   24.9134 O   0  0  0  0  0  0  0  0  0  0  0  0
    9.7341  -13.7584   27.2361 C   0  0  0  0  0  0  0  0  0  0  0  0
   10.5002  -13.6159   28.3675 C   0  0  0  0  0  0  0  0  0  0  0  0
   10.9407  -16.8900   25.1815 O   0  0  0  0  0  0  0  0  0  0  0  0
  2  1  1  6
  3  2  1  0
  3  4  1  0
  4  5  1  0
  5  6  1  0
  7  6  1  0
  8  9  2  0
  8  2  1  0
 10 11  1  0
 12 11  1  1
 12 14  1  0
 12 13  1  0
 13  8  1  0
 14 23  1  0
 15 14  2  0
 16 17  1  0
 17 18  2  0
 17 27  1  0
 18 19  1  0
 19 20  2  0
 20 21  1  0
 22 21  1  1
 22 24  1  0
 23 22  1  0
 24 28  2  0
 24 25  1  0
 26 20  1  0
 27 26  2  0
M  END
$$$$
