KSY.pdb
     RDKit          3D

 28 28  0  0  1  0  0  0  0  0999 V2000
   10.2152  -19.2472   19.7593 N   0  0  0  0  0  0  0  0  0  0  0  0
    9.2248  -18.7780   20.6790 C   0  0  1  0  0  0  0  0  0  0  0  0
    8.9337  -19.7398   21.7802 C   0  0  0  0  0  0  0  0  0  0  0  0
    9.6674  -21.0314   21.6950 C   0  0  0  0  0  0  0  0  0  0  0  0
    9.2462  -22.0866   22.6566 C   0  0  0  0  0  0  0  0  0  0  0  0
   10.1122  -23.3294   22.5815 C   0  0  0  0  0  0  0  0  0  0  0  0
    9.6695  -24.3274   23.5316 N   0  0  0  0  0  0  0  0  0  0  0  0
    9.5117  -17.4041   21.1768 C   0  0  0  0  0  0  0  0  0  0  0  0
   10.6889  -17.0306   21.4415 O   0  0  0  0  0  0  0  0  0  0  0  0
    6.4157  -14.8616   21.9826 O   0  0  0  0  0  0  0  0  0  0  0  0
    7.5619  -14.1943   21.5971 C   0  0  0  0  0  0  0  0  0  0  0  0
    8.7556  -15.0809   21.8590 C   0  0  2  0  0  0  0  0  0  0  0  0
    8.4910  -16.4383   21.3827 N   0  0  0  0  0  0  0  0  0  0  0  0
    9.1097  -15.0623   23.2775 C   0  0  0  0  0  0  0  0  0  0  0  0
    9.5533  -13.9923   23.8298 O   0  0  0  0  0  0  0  0  0  0  0  0
    5.9115  -10.8680   26.5198 O   0  0  0  0  0  0  0  0  0  0  0  0
    6.4424  -12.1505   26.4710 C   0  0  0  0  0  0  0  0  0  0  0  0
    5.7359  -13.1862   25.8869 C   0  0  0  0  0  0  0  0  0  0  0  0
    6.2687  -14.4549   25.8423 C   0  0  0  0  0  0  0  0  0  0  0  0
    7.5063  -14.7645   26.3631 C   0  0  0  0  0  0  0  0  0  0  0  0
    8.1250  -16.1030   26.3524 C   0  0  0  0  0  0  0  0  0  0  0  0
    9.3912  -16.0808   25.5639 C   0  0  2  0  0  0  0  0  0  0  0  0
    9.0015  -16.1706   24.1424 N   0  0  0  0  0  0  0  0  0  0  0  0
   10.2373  -17.2305   25.9342 C   0  0  0  0  0  0  0  0  0  0  0  0
   10.5581  -18.2583   25.0747 O   0  0  0  0  0  0  0  0  0  0  0  0
    8.2003  -13.7096   26.9455 C   0  0  0  0  0  0  0  0  0  0  0  0
    7.6801  -12.4391   26.9964 C   0  0  0  0  0  0  0  0  0  0  0  0
   10.6970  -17.2878   27.1027 O   0  0  0  0  0  0  0  0  0  0  0  0
  2  1  1  1
  3  2  1  0
  3  4  1  0
  4  5  1  0
  5  6  1  0
  7  6  1  0
  8  9  2  0
  8  2  1  0
 10 11  1  0
 12 11  1  1
 12 14  1  0
 12 13  1  0
 13  8  1  0
 14 23  1  0
 15 14  2  0
 16 17  1  0
 17 18  2  0
 17 27  1  0
 18 19  1  0
 19 20  2  0
 20 21  1  0
 22 21  1  1
 22 24  1  0
 23 22  1  0
 24 28  2  0
 24 25  1  0
 26 20  1  0
 27 26  2  0
M  END
$$$$
