NTV.pdb
     RDKit          3D

 23 22  0  0  1  0  0  0  0  0999 V2000
   14.2503  -15.6191   20.2086 N   0  0  0  0  0  0  0  0  0  0  0  0
   13.6465  -14.5593   19.4824 C   0  0  0  0  0  0  0  0  0  0  0  0
   14.1810  -14.1034   18.4426 O   0  0  0  0  0  0  0  0  0  0  0  0
   12.3521  -13.9706   19.9572 C   0  0  0  0  0  0  0  0  0  0  0  0
   11.2399  -14.9801   19.7814 C   0  0  2  0  0  0  0  0  0  0  0  0
   10.8745  -15.0489   18.3729 N   0  0  0  0  0  0  0  0  0  0  0  0
   10.0916  -14.5136   20.5932 C   0  0  0  0  0  0  0  0  0  0  0  0
    9.6701  -13.3408   20.3611 O   0  0  0  0  0  0  0  0  0  0  0  0
    6.6448  -15.5345   20.7248 C   0  0  0  0  0  0  0  0  0  0  0  0
    7.1628  -15.6484   22.1233 C   0  0  1  0  0  0  0  0  0  0  0  0
    7.4387  -16.9504   22.5055 O   0  0  0  0  0  0  0  0  0  0  0  0
    8.3764  -14.7571   22.3369 C   0  0  2  0  0  0  0  0  0  0  0  0
    9.4631  -15.3064   21.5921 N   0  0  0  0  0  0  0  0  0  0  0  0
    8.6739  -14.5793   23.7752 C   0  0  0  0  0  0  0  0  0  0  0  0
    9.7055  -15.0925   24.2384 O   0  0  0  0  0  0  0  0  0  0  0  0
    5.7110  -13.0378   26.6627 C   0  0  0  0  0  0  0  0  0  0  0  0
    7.1765  -12.7537   26.7973 C   0  0  2  0  0  0  0  0  0  0  0  0
    7.5153  -11.3049   26.4719 C   0  0  0  0  0  0  0  0  0  0  0  0
    8.0461  -13.7236   26.0716 C   0  0  2  0  0  0  0  0  0  0  0  0
    7.8664  -13.8607   24.6820 N   0  0  0  0  0  0  0  0  0  0  0  0
    7.8432  -15.0636   26.7064 C   0  0  0  0  0  0  0  0  0  0  0  0
    8.2933  -15.3488   27.9862 O   0  0  0  0  0  0  0  0  0  0  0  0
    7.2493  -15.9991   26.0998 O   0  0  0  0  0  0  0  0  0  0  0  0
  2  1  1  0
  3  2  2  0
  4  2  1  0
  4  5  1  0
  5  6  1  6
  7  5  1  0
  7  8  2  0
 10  9  1  6
 10 12  1  0
 11 10  1  0
 12 14  1  0
 12 13  1  6
 13  7  1  0
 14 20  1  0
 15 14  2  0
 17 16  1  6
 17 18  1  0
 19 17  1  0
 19 20  1  6
 21 22  1  0
 21 19  1  0
 23 21  2  0
M  END
$$$$
