NTV.pdb
     RDKit          3D

 23 22  0  0  1  0  0  0  0  0999 V2000
   13.6828  -15.7236   17.1523 N   0  0  0  0  0  0  0  0  0  0  0  0
   13.6422  -15.0768   18.4153 C   0  0  0  0  0  0  0  0  0  0  0  0
   14.6851  -14.9262   19.0966 O   0  0  0  0  0  0  0  0  0  0  0  0
   12.3392  -14.5635   18.9503 C   0  0  0  0  0  0  0  0  0  0  0  0
   12.0141  -15.2611   20.2521 C   0  0  2  0  0  0  0  0  0  0  0  0
   11.5869  -16.6250   19.9703 N   0  0  0  0  0  0  0  0  0  0  0  0
   10.9207  -14.4979   20.8978 C   0  0  0  0  0  0  0  0  0  0  0  0
   11.1411  -13.2704   21.1252 O   0  0  0  0  0  0  0  0  0  0  0  0
    7.1700  -14.1332   20.0333 C   0  0  0  0  0  0  0  0  0  0  0  0
    7.3377  -14.6117   21.4405 C   0  0  1  0  0  0  0  0  0  0  0  0
    7.0605  -15.9586   21.6022 O   0  0  0  0  0  0  0  0  0  0  0  0
    8.7222  -14.2800   21.9753 C   0  0  2  0  0  0  0  0  0  0  0  0
    9.6715  -15.0714   21.2614 N   0  0  0  0  0  0  0  0  0  0  0  0
    8.7932  -14.4506   23.4431 C   0  0  0  0  0  0  0  0  0  0  0  0
    9.5592  -15.3108   23.9069 O   0  0  0  0  0  0  0  0  0  0  0  0
    5.7823  -12.8346   26.2588 C   0  0  0  0  0  0  0  0  0  0  0  0
    7.2470  -12.8621   26.5758 C   0  0  2  0  0  0  0  0  0  0  0  0
    7.8711  -11.4733   26.5392 C   0  0  0  0  0  0  0  0  0  0  0  0
    8.0165  -13.8586   25.7769 C   0  0  2  0  0  0  0  0  0  0  0  0
    8.0476  -13.7017   24.3781 N   0  0  0  0  0  0  0  0  0  0  0  0
    7.4499  -15.2089   26.0861 C   0  0  0  0  0  0  0  0  0  0  0  0
    7.6186  -15.8137   27.3220 O   0  0  0  0  0  0  0  0  0  0  0  0
    6.7891  -15.8603   25.2289 O   0  0  0  0  0  0  0  0  0  0  0  0
  2  1  1  0
  3  2  2  0
  4  2  1  0
  4  5  1  0
  5  6  1  6
  7  5  1  0
  7  8  2  0
 10  9  1  6
 10 12  1  0
 11 10  1  0
 12 14  1  0
 12 13  1  6
 13  7  1  0
 14 20  1  0
 15 14  2  0
 17 16  1  6
 17 18  1  0
 19 17  1  0
 19 20  1  6
 21 22  1  0
 21 19  1  0
 23 21  2  0
M  END
$$$$
