NTV.pdb
     RDKit          3D

 23 22  0  0  1  0  0  0  0  0999 V2000
    8.8785  -16.8550   17.4660 N   0  0  0  0  0  0  0  0  0  0  0  0
    7.6240  -17.3408   17.9192 C   0  0  0  0  0  0  0  0  0  0  0  0
    6.8808  -18.0117   17.1628 O   0  0  0  0  0  0  0  0  0  0  0  0
    7.1730  -17.0528   19.3196 C   0  0  0  0  0  0  0  0  0  0  0  0
    8.1175  -16.0633   19.9643 C   0  0  2  0  0  0  0  0  0  0  0  0
    9.4868  -16.4030   19.6018 N   0  0  0  0  0  0  0  0  0  0  0  0
    7.9279  -16.1668   21.4301 C   0  0  0  0  0  0  0  0  0  0  0  0
    6.7841  -15.8552   21.8791 O   0  0  0  0  0  0  0  0  0  0  0  0
    9.4185  -17.6638   25.8558 C   0  0  0  0  0  0  0  0  0  0  0  0
    9.5903  -17.6369   24.3702 C   0  0  1  0  0  0  0  0  0  0  0  0
    9.4149  -18.8731   23.7718 O   0  0  0  0  0  0  0  0  0  0  0  0
    8.6859  -16.5961   23.7286 C   0  0  2  0  0  0  0  0  0  0  0  0
    8.9482  -16.5894   22.3256 N   0  0  0  0  0  0  0  0  0  0  0  0
    8.8439  -15.2709   24.3671 C   0  0  0  0  0  0  0  0  0  0  0  0
    9.8391  -14.5859   24.0804 O   0  0  0  0  0  0  0  0  0  0  0  0
    7.0568  -11.1990   26.4342 C   0  0  0  0  0  0  0  0  0  0  0  0
    6.8169  -12.5740   25.8878 C   0  0  2  0  0  0  0  0  0  0  0  0
    5.5910  -13.2340   26.5051 C   0  0  0  0  0  0  0  0  0  0  0  0
    8.0209  -13.4531   25.9222 C   0  0  2  0  0  0  0  0  0  0  0  0
    7.9391  -14.7101   25.2933 N   0  0  0  0  0  0  0  0  0  0  0  0
    8.3725  -13.6690   27.3608 C   0  0  0  0  0  0  0  0  0  0  0  0
    8.8142  -12.6373   28.1746 O   0  0  0  0  0  0  0  0  0  0  0  0
    8.2815  -14.8080   27.8996 O   0  0  0  0  0  0  0  0  0  0  0  0
  2  1  1  0
  3  2  2  0
  4  2  1  0
  4  5  1  0
  5  6  1  1
  7  5  1  0
  7  8  2  0
 10  9  1  1
 10 12  1  0
 11 10  1  0
 12 14  1  0
 12 13  1  6
 13  7  1  0
 14 20  1  0
 15 14  2  0
 17 16  1  1
 17 18  1  0
 19 17  1  0
 19 20  1  1
 21 22  1  0
 21 19  1  0
 23 21  2  0
M  END
$$$$
