NTV.pdb
     RDKit          3D

 23 22  0  0  1  0  0  0  0  0999 V2000
   10.8983  -16.7712   16.5736 N   0  0  0  0  0  0  0  0  0  0  0  0
   10.7723  -17.4059   17.8371 C   0  0  0  0  0  0  0  0  0  0  0  0
   11.5581  -18.3223   18.1797 O   0  0  0  0  0  0  0  0  0  0  0  0
    9.6881  -16.9817   18.7816 C   0  0  0  0  0  0  0  0  0  0  0  0
   10.2403  -16.9044   20.1873 C   0  0  2  0  0  0  0  0  0  0  0  0
   10.5216  -18.2513   20.6656 N   0  0  0  0  0  0  0  0  0  0  0  0
    9.2060  -16.2600   21.0301 C   0  0  0  0  0  0  0  0  0  0  0  0
    8.7145  -15.1747   20.5970 O   0  0  0  0  0  0  0  0  0  0  0  0
    5.9154  -17.5116   22.3569 C   0  0  0  0  0  0  0  0  0  0  0  0
    6.7320  -17.0191   23.5092 C   0  0  1  0  0  0  0  0  0  0  0  0
    7.2750  -18.0363   24.2757 O   0  0  0  0  0  0  0  0  0  0  0  0
    7.8157  -16.0574   23.0470 C   0  0  2  0  0  0  0  0  0  0  0  0
    8.7569  -16.7956   22.2682 N   0  0  0  0  0  0  0  0  0  0  0  0
    8.4251  -15.3369   24.1863 C   0  0  0  0  0  0  0  0  0  0  0  0
    9.6272  -15.5237   24.4355 O   0  0  0  0  0  0  0  0  0  0  0  0
    6.1222  -13.0576   27.2292 C   0  0  0  0  0  0  0  0  0  0  0  0
    7.4321  -12.5936   26.6677 C   0  0  2  0  0  0  0  0  0  0  0  0
    7.2651  -11.4275   25.7025 C   0  0  0  0  0  0  0  0  0  0  0  0
    8.2667  -13.6922   26.1021 C   0  0  2  0  0  0  0  0  0  0  0  0
    7.7397  -14.4372   25.0299 N   0  0  0  0  0  0  0  0  0  0  0  0
    8.5782  -14.6352   27.2217 C   0  0  0  0  0  0  0  0  0  0  0  0
    8.1748  -15.9613   27.2023 O   0  0  0  0  0  0  0  0  0  0  0  0
    9.2264  -14.2614   28.2395 O   0  0  0  0  0  0  0  0  0  0  0  0
  2  1  1  0
  3  2  2  0
  4  2  1  0
  4  5  1  0
  5  6  1  1
  7  5  1  0
  7  8  2  0
 10  9  1  6
 10 12  1  0
 11 10  1  0
 12 14  1  0
 12 13  1  1
 13  7  1  0
 14 20  1  0
 15 14  2  0
 17 16  1  6
 17 18  1  0
 19 17  1  0
 19 20  1  6
 21 22  1  0
 21 19  1  0
 23 21  2  0
M  END
$$$$
