NTV.pdb
     RDKit          3D

 23 22  0  0  1  0  0  0  0  0999 V2000
   11.9347  -18.4585   17.1883 N   0  0  0  0  0  0  0  0  0  0  0  0
   12.2390  -17.5079   18.1978 C   0  0  0  0  0  0  0  0  0  0  0  0
   13.4265  -17.2830   18.5351 O   0  0  0  0  0  0  0  0  0  0  0  0
   11.1320  -16.7577   18.8756 C   0  0  0  0  0  0  0  0  0  0  0  0
   11.2028  -16.9868   20.3688 C   0  0  2  0  0  0  0  0  0  0  0  0
   10.9763  -18.3986   20.6474 N   0  0  0  0  0  0  0  0  0  0  0  0
   10.1431  -16.1588   20.9904 C   0  0  0  0  0  0  0  0  0  0  0  0
    9.8920  -15.0465   20.4364 O   0  0  0  0  0  0  0  0  0  0  0  0
    6.6134  -16.5181   21.2509 C   0  0  0  0  0  0  0  0  0  0  0  0
    7.0962  -16.3558   22.6572 C   0  0  1  0  0  0  0  0  0  0  0  0
    7.1333  -17.5430   23.3686 O   0  0  0  0  0  0  0  0  0  0  0  0
    8.4485  -15.6611   22.7000 C   0  0  2  0  0  0  0  0  0  0  0  0
    9.4187  -16.5514   22.1491 N   0  0  0  0  0  0  0  0  0  0  0  0
    8.7782  -15.1969   24.0654 C   0  0  0  0  0  0  0  0  0  0  0  0
    9.7497  -15.7042   24.6492 O   0  0  0  0  0  0  0  0  0  0  0  0
    5.9489  -12.8841   26.5251 C   0  0  0  0  0  0  0  0  0  0  0  0
    7.4292  -12.6696   26.6201 C   0  0  2  0  0  0  0  0  0  0  0  0
    7.8592  -11.3395   26.0156 C   0  0  0  0  0  0  0  0  0  0  0  0
    8.2367  -13.8173   26.1157 C   0  0  2  0  0  0  0  0  0  0  0  0
    8.0657  -14.2058   24.7733 N   0  0  0  0  0  0  0  0  0  0  0  0
    7.9302  -14.9938   26.9884 C   0  0  0  0  0  0  0  0  0  0  0  0
    8.4190  -15.0998   28.2813 O   0  0  0  0  0  0  0  0  0  0  0  0
    7.2083  -15.9476   26.5823 O   0  0  0  0  0  0  0  0  0  0  0  0
  2  1  1  0
  3  2  2  0
  4  2  1  0
  4  5  1  0
  5  6  1  6
  7  5  1  0
  7  8  2  0
 10  9  1  6
 10 12  1  0
 11 10  1  0
 12 14  1  0
 12 13  1  1
 13  7  1  0
 14 20  1  0
 15 14  2  0
 17 16  1  6
 17 18  1  0
 19 17  1  0
 19 20  1  6
 21 22  1  0
 21 19  1  0
 23 21  2  0
M  END
$$$$
