NTV.pdb
     RDKit          3D

 23 22  0  0  1  0  0  0  0  0999 V2000
   14.4537  -13.9876   18.8263 N   0  0  0  0  0  0  0  0  0  0  0  0
   13.2824  -14.7725   18.6610 C   0  0  0  0  0  0  0  0  0  0  0  0
   13.2854  -15.7880   17.9240 O   0  0  0  0  0  0  0  0  0  0  0  0
   12.0200  -14.3900   19.3734 C   0  0  0  0  0  0  0  0  0  0  0  0
   11.8504  -15.2513   20.6049 C   0  0  2  0  0  0  0  0  0  0  0  0
   11.6500  -16.6352   20.1969 N   0  0  0  0  0  0  0  0  0  0  0  0
   10.6621  -14.7475   21.3323 C   0  0  0  0  0  0  0  0  0  0  0  0
   10.6551  -13.5141   21.6252 O   0  0  0  0  0  0  0  0  0  0  0  0
    6.8253  -15.8177   20.7522 C   0  0  0  0  0  0  0  0  0  0  0  0
    7.2443  -15.8548   22.1876 C   0  0  1  0  0  0  0  0  0  0  0  0
    7.4435  -17.1366   22.6716 O   0  0  0  0  0  0  0  0  0  0  0  0
    8.4746  -14.9931   22.4261 C   0  0  2  0  0  0  0  0  0  0  0  0
    9.5625  -15.5688   21.7035 N   0  0  0  0  0  0  0  0  0  0  0  0
    8.7469  -14.8222   23.8701 C   0  0  0  0  0  0  0  0  0  0  0  0
    9.7025  -15.4351   24.3731 O   0  0  0  0  0  0  0  0  0  0  0  0
    5.9620  -12.7597   26.6781 C   0  0  0  0  0  0  0  0  0  0  0  0
    7.4553  -12.7277   26.8030 C   0  0  2  0  0  0  0  0  0  0  0  0
    8.0389  -11.3797   26.4009 C   0  0  0  0  0  0  0  0  0  0  0  0
    8.1391  -13.8719   26.1346 C   0  0  2  0  0  0  0  0  0  0  0  0
    7.9956  -14.0040   24.7402 N   0  0  0  0  0  0  0  0  0  0  0  0
    7.6395  -15.1265   26.7796 C   0  0  0  0  0  0  0  0  0  0  0  0
    8.0091  -15.4923   28.0646 O   0  0  0  0  0  0  0  0  0  0  0  0
    6.8543  -15.9118   26.1774 O   0  0  0  0  0  0  0  0  0  0  0  0
  2  1  1  0
  3  2  2  0
  4  2  1  0
  4  5  1  0
  5  6  1  6
  7  5  1  0
  7  8  2  0
 10  9  1  6
 10 12  1  0
 11 10  1  0
 12 14  1  0
 12 13  1  6
 13  7  1  0
 14 20  1  0
 15 14  2  0
 17 16  1  6
 17 18  1  0
 19 17  1  0
 19 20  1  6
 21 22  1  0
 21 19  1  0
 23 21  2  0
M  END
$$$$
