NTV.pdb
     RDKit          3D

 23 22  0  0  1  0  0  0  0  0999 V2000
   12.9161  -20.3896   21.1438 N   0  0  0  0  0  0  0  0  0  0  0  0
   12.8526  -19.0283   21.5417 C   0  0  0  0  0  0  0  0  0  0  0  0
   13.8917  -18.3289   21.6156 O   0  0  0  0  0  0  0  0  0  0  0  0
   11.5296  -18.4098   21.8800 C   0  0  0  0  0  0  0  0  0  0  0  0
   11.0031  -17.6496   20.6834 C   0  0  2  0  0  0  0  0  0  0  0  0
   12.1224  -17.2440   19.8440 N   0  0  0  0  0  0  0  0  0  0  0  0
   10.2847  -16.4612   21.1999 C   0  0  0  0  0  0  0  0  0  0  0  0
   10.9247  -15.3670   21.2040 O   0  0  0  0  0  0  0  0  0  0  0  0
    6.8293  -14.9157   20.2230 C   0  0  0  0  0  0  0  0  0  0  0  0
    6.9036  -15.2666   21.6751 C   0  0  1  0  0  0  0  0  0  0  0  0
    6.2529  -16.4470   21.9918 O   0  0  0  0  0  0  0  0  0  0  0  0
    8.3439  -15.2996   22.1622 C   0  0  2  0  0  0  0  0  0  0  0  0
    8.9458  -16.4993   21.6768 N   0  0  0  0  0  0  0  0  0  0  0  0
    8.4244  -15.1491   23.6317 C   0  0  0  0  0  0  0  0  0  0  0  0
    8.9363  -16.0637   24.2975 O   0  0  0  0  0  0  0  0  0  0  0  0
    7.6014  -12.3727   27.7454 C   0  0  0  0  0  0  0  0  0  0  0  0
    7.3101  -12.6225   26.2965 C   0  0  2  0  0  0  0  0  0  0  0  0
    5.8173  -12.5966   25.9957 C   0  0  0  0  0  0  0  0  0  0  0  0
    7.9856  -13.8332   25.7474 C   0  0  2  0  0  0  0  0  0  0  0  0
    7.9583  -14.0299   24.3535 N   0  0  0  0  0  0  0  0  0  0  0  0
    7.3623  -15.0256   26.4028 C   0  0  0  0  0  0  0  0  0  0  0  0
    7.7933  -15.5006   27.6317 O   0  0  0  0  0  0  0  0  0  0  0  0
    6.4102  -15.6550   25.8613 O   0  0  0  0  0  0  0  0  0  0  0  0
  2  1  1  0
  3  2  2  0
  4  2  1  0
  4  5  1  0
  5  6  1  6
  7  5  1  0
  7  8  2  0
 10  9  1  6
 10 12  1  0
 11 10  1  0
 12 14  1  0
 12 13  1  1
 13  7  1  0
 14 20  1  0
 15 14  2  0
 17 16  1  1
 17 18  1  0
 19 17  1  0
 19 20  1  6
 21 22  1  0
 21 19  1  0
 23 21  2  0
M  END
$$$$
