NTV.pdb
     RDKit          3D

 23 22  0  0  1  0  0  0  0  0999 V2000
   11.7204  -20.3538   22.1334 N   0  0  0  0  0  0  0  0  0  0  0  0
   12.5218  -19.2857   21.6515 C   0  0  0  0  0  0  0  0  0  0  0  0
   13.5539  -19.5088   20.9736 O   0  0  0  0  0  0  0  0  0  0  0  0
   12.1370  -17.8683   21.9522 C   0  0  0  0  0  0  0  0  0  0  0  0
   11.1855  -17.3639   20.8904 C   0  0  2  0  0  0  0  0  0  0  0  0
   11.9503  -16.9378   19.7262 N   0  0  0  0  0  0  0  0  0  0  0  0
   10.4455  -16.2198   21.4722 C   0  0  0  0  0  0  0  0  0  0  0  0
   11.0509  -15.1064   21.5012 O   0  0  0  0  0  0  0  0  0  0  0  0
    6.9203  -14.9005   20.5892 C   0  0  0  0  0  0  0  0  0  0  0  0
    7.0357  -15.1662   22.0566 C   0  0  1  0  0  0  0  0  0  0  0  0
    6.4098  -16.3346   22.4570 O   0  0  0  0  0  0  0  0  0  0  0  0
    8.4881  -15.1529   22.5076 C   0  0  2  0  0  0  0  0  0  0  0  0
    9.1227  -16.3192   21.9839 N   0  0  0  0  0  0  0  0  0  0  0  0
    8.5997  -15.0272   23.9774 C   0  0  0  0  0  0  0  0  0  0  0  0
    9.1774  -15.9258   24.6104 O   0  0  0  0  0  0  0  0  0  0  0  0
    6.0141  -12.3694   26.3479 C   0  0  0  0  0  0  0  0  0  0  0  0
    7.4506  -12.5912   26.7138 C   0  0  2  0  0  0  0  0  0  0  0  0
    8.3102  -11.3631   26.4455 C   0  0  0  0  0  0  0  0  0  0  0  0
    8.0326  -13.8368   26.1365 C   0  0  2  0  0  0  0  0  0  0  0  0
    8.0939  -13.9492   24.7344 N   0  0  0  0  0  0  0  0  0  0  0  0
    7.2349  -14.9870   26.6661 C   0  0  0  0  0  0  0  0  0  0  0  0
    7.5412  -15.6050   27.8686 O   0  0  0  0  0  0  0  0  0  0  0  0
    6.2414  -15.4478   26.0363 O   0  0  0  0  0  0  0  0  0  0  0  0
  2  1  1  0
  3  2  2  0
  4  2  1  0
  4  5  1  0
  5  6  1  6
  7  5  1  0
  7  8  2  0
 10  9  1  6
 10 12  1  0
 11 10  1  0
 12 14  1  0
 12 13  1  1
 13  7  1  0
 14 20  1  0
 15 14  2  0
 17 16  1  6
 17 18  1  0
 19 17  1  0
 19 20  1  6
 21 22  1  0
 21 19  1  0
 23 21  2  0
M  END
$$$$
