NTV.pdb
     RDKit          3D

 23 22  0  0  1  0  0  0  0  0999 V2000
   14.4332  -18.4597   20.3397 N   0  0  0  0  0  0  0  0  0  0  0  0
   13.1083  -18.6038   20.8288 C   0  0  0  0  0  0  0  0  0  0  0  0
   12.5958  -19.7394   20.9779 O   0  0  0  0  0  0  0  0  0  0  0  0
   12.3031  -17.3873   21.1745 C   0  0  0  0  0  0  0  0  0  0  0  0
   11.0332  -17.3683   20.3535 C   0  0  2  0  0  0  0  0  0  0  0  0
   11.3688  -17.1151   18.9588 N   0  0  0  0  0  0  0  0  0  0  0  0
   10.1814  -16.2802   20.8881 C   0  0  0  0  0  0  0  0  0  0  0  0
   10.4721  -15.1005   20.5262 O   0  0  0  0  0  0  0  0  0  0  0  0
    6.6128  -15.5748   20.3436 C   0  0  0  0  0  0  0  0  0  0  0  0
    6.8407  -15.6918   21.8173 C   0  0  1  0  0  0  0  0  0  0  0  0
    6.4491  -16.9122   22.3412 O   0  0  0  0  0  0  0  0  0  0  0  0
    8.2873  -15.3914   22.1779 C   0  0  2  0  0  0  0  0  0  0  0  0
    9.0840  -16.5011   21.7646 N   0  0  0  0  0  0  0  0  0  0  0  0
    8.4322  -15.0596   23.6123 C   0  0  0  0  0  0  0  0  0  0  0  0
    9.1202  -15.8040   24.3297 O   0  0  0  0  0  0  0  0  0  0  0  0
    7.4263  -11.9769   27.4594 C   0  0  0  0  0  0  0  0  0  0  0  0
    7.0815  -12.4519   26.0802 C   0  0  2  0  0  0  0  0  0  0  0  0
    5.5936  -12.7366   25.9237 C   0  0  0  0  0  0  0  0  0  0  0  0
    7.9349  -13.5767   25.6008 C   0  0  2  0  0  0  0  0  0  0  0  0
    7.8417  -13.9453   24.2451 N   0  0  0  0  0  0  0  0  0  0  0  0
    7.6045  -14.7730   26.4371 C   0  0  0  0  0  0  0  0  0  0  0  0
    8.1948  -14.9952   27.6716 O   0  0  0  0  0  0  0  0  0  0  0  0
    6.7681  -15.6379   26.0522 O   0  0  0  0  0  0  0  0  0  0  0  0
  2  1  1  0
  3  2  2  0
  4  2  1  0
  4  5  1  0
  5  6  1  6
  7  5  1  0
  7  8  2  0
 10  9  1  6
 10 12  1  0
 11 10  1  0
 12 14  1  0
 12 13  1  1
 13  7  1  0
 14 20  1  0
 15 14  2  0
 17 16  1  1
 17 18  1  0
 19 17  1  0
 19 20  1  6
 21 22  1  0
 21 19  1  0
 23 21  2  0
M  END
$$$$
