NTV.pdb
     RDKit          3D

 23 22  0  0  1  0  0  0  0  0999 V2000
   14.6722  -14.5215   17.8150 N   0  0  0  0  0  0  0  0  0  0  0  0
   14.3253  -15.2589   18.9775 C   0  0  0  0  0  0  0  0  0  0  0  0
   14.8318  -16.3847   19.2021 O   0  0  0  0  0  0  0  0  0  0  0  0
   13.3409  -14.6919   19.9557 C   0  0  0  0  0  0  0  0  0  0  0  0
   12.0901  -15.5418   19.9684 C   0  0  2  0  0  0  0  0  0  0  0  0
   11.4133  -15.4161   18.6846 N   0  0  0  0  0  0  0  0  0  0  0  0
   11.2272  -15.0361   21.0615 C   0  0  0  0  0  0  0  0  0  0  0  0
   11.2842  -13.7928   21.3023 O   0  0  0  0  0  0  0  0  0  0  0  0
    7.4668  -15.3462   21.5943 C   0  0  0  0  0  0  0  0  0  0  0  0
    8.1870  -15.8531   22.8033 C   0  0  1  0  0  0  0  0  0  0  0  0
    8.2075  -17.2345   22.8948 O   0  0  0  0  0  0  0  0  0  0  0  0
    9.5967  -15.2882   22.8835 C   0  0  2  0  0  0  0  0  0  0  0  0
   10.3637  -15.8661   21.8276 N   0  0  0  0  0  0  0  0  0  0  0  0
   10.1879  -15.4905   24.2245 C   0  0  0  0  0  0  0  0  0  0  0  0
   11.0970  -16.3262   24.3552 O   0  0  0  0  0  0  0  0  0  0  0  0
   10.7837  -13.9397   28.9557 C   0  0  0  0  0  0  0  0  0  0  0  0
   10.0539  -13.8052   27.6535 C   0  0  2  0  0  0  0  0  0  0  0  0
    8.5566  -13.6074   27.8494 C   0  0  0  0  0  0  0  0  0  0  0  0
   10.3672  -14.8853   26.6743 C   0  0  2  0  0  0  0  0  0  0  0  0
    9.7963  -14.7987   25.3902 N   0  0  0  0  0  0  0  0  0  0  0  0
    9.9428  -16.1811   27.2912 C   0  0  0  0  0  0  0  0  0  0  0  0
   10.6556  -16.7757   28.3208 O   0  0  0  0  0  0  0  0  0  0  0  0
    8.9102  -16.7934   26.8980 O   0  0  0  0  0  0  0  0  0  0  0  0
  2  1  1  0
  3  2  2  0
  4  2  1  0
  4  5  1  0
  5  6  1  6
  7  5  1  0
  7  8  2  0
 10  9  1  6
 10 12  1  0
 11 10  1  0
 12 14  1  0
 12 13  1  6
 13  7  1  0
 14 20  1  0
 15 14  2  0
 17 16  1  1
 17 18  1  0
 19 17  1  0
 19 20  1  6
 21 22  1  0
 21 19  1  0
 23 21  2  0
M  END
$$$$
