NTV.pdb
     RDKit          3D

 23 22  0  0  1  0  0  0  0  0999 V2000
    9.5805  -15.1959   18.0417 N   0  0  0  0  0  0  0  0  0  0  0  0
    8.6604  -14.2463   17.5249 C   0  0  0  0  0  0  0  0  0  0  0  0
    8.0458  -14.4615   16.4523 O   0  0  0  0  0  0  0  0  0  0  0  0
    8.4137  -12.9659   18.2646 C   0  0  0  0  0  0  0  0  0  0  0  0
    9.2463  -12.9396   19.5267 C   0  0  2  0  0  0  0  0  0  0  0  0
   10.5463  -13.5382   19.2548 N   0  0  0  0  0  0  0  0  0  0  0  0
    8.5172  -13.7250   20.5498 C   0  0  0  0  0  0  0  0  0  0  0  0
    7.3799  -13.2872   20.8990 O   0  0  0  0  0  0  0  0  0  0  0  0
    7.9188  -17.5951   20.9803 C   0  0  0  0  0  0  0  0  0  0  0  0
    8.5544  -16.9991   22.1960 C   0  0  1  0  0  0  0  0  0  0  0  0
    9.8975  -17.3096   22.3252 O   0  0  0  0  0  0  0  0  0  0  0  0
    8.3434  -15.4938   22.2477 C   0  0  2  0  0  0  0  0  0  0  0  0
    9.0282  -14.9146   21.1374 N   0  0  0  0  0  0  0  0  0  0  0  0
    8.7518  -14.9322   23.5540 C   0  0  0  0  0  0  0  0  0  0  0  0
    9.8949  -14.4611   23.6692 O   0  0  0  0  0  0  0  0  0  0  0  0
    7.8261  -12.5836   27.7202 C   0  0  0  0  0  0  0  0  0  0  0  0
    7.3573  -13.2055   26.4396 C   0  0  2  0  0  0  0  0  0  0  0  0
    5.8888  -13.6052   26.4964 C   0  0  0  0  0  0  0  0  0  0  0  0
    8.2340  -14.3080   25.9504 C   0  0  2  0  0  0  0  0  0  0  0  0
    7.9334  -14.8867   24.7025 N   0  0  0  0  0  0  0  0  0  0  0  0
    8.2110  -15.3873   26.9870 C   0  0  0  0  0  0  0  0  0  0  0  0
    8.7843  -15.2201   28.2380 O   0  0  0  0  0  0  0  0  0  0  0  0
    7.6647  -16.5046   26.7657 O   0  0  0  0  0  0  0  0  0  0  0  0
  2  1  1  0
  3  2  2  0
  4  2  1  0
  4  5  1  0
  5  6  1  6
  7  5  1  0
  7  8  2  0
 10  9  1  6
 10 12  1  0
 11 10  1  0
 12 14  1  0
 12 13  1  6
 13  7  1  0
 14 20  1  0
 15 14  2  0
 17 16  1  1
 17 18  1  0
 19 17  1  0
 19 20  1  6
 21 22  1  0
 21 19  1  0
 23 21  2  0
M  END
$$$$
