NTV.pdb
     RDKit          3D

 23 22  0  0  1  0  0  0  0  0999 V2000
   14.1477  -16.3374   18.7811 N   0  0  0  0  0  0  0  0  0  0  0  0
   12.9549  -17.0984   18.6656 C   0  0  0  0  0  0  0  0  0  0  0  0
   12.9549  -18.2144   18.0920 O   0  0  0  0  0  0  0  0  0  0  0  0
   11.6728  -16.5687   19.2341 C   0  0  0  0  0  0  0  0  0  0  0  0
   11.6098  -16.8717   20.7144 C   0  0  2  0  0  0  0  0  0  0  0  0
   11.3567  -18.2941   20.9012 N   0  0  0  0  0  0  0  0  0  0  0  0
   10.5004  -16.0687   21.2797 C   0  0  0  0  0  0  0  0  0  0  0  0
   10.4316  -14.8569   20.9139 O   0  0  0  0  0  0  0  0  0  0  0  0
    6.7236  -16.6295   21.2627 C   0  0  0  0  0  0  0  0  0  0  0  0
    7.2058  -16.4620   22.6686 C   0  0  1  0  0  0  0  0  0  0  0  0
    7.2866  -17.6530   23.3701 O   0  0  0  0  0  0  0  0  0  0  0  0
    8.5335  -15.7215   22.7124 C   0  0  2  0  0  0  0  0  0  0  0  0
    9.5391  -16.5887   22.1891 N   0  0  0  0  0  0  0  0  0  0  0  0
    8.8321  -15.2208   24.0720 C   0  0  0  0  0  0  0  0  0  0  0  0
    9.8192  -15.6767   24.6718 O   0  0  0  0  0  0  0  0  0  0  0  0
    5.9742  -12.8901   26.4984 C   0  0  0  0  0  0  0  0  0  0  0  0
    7.4458  -12.6060   26.5134 C   0  0  2  0  0  0  0  0  0  0  0  0
    7.7895  -11.3065   25.7975 C   0  0  0  0  0  0  0  0  0  0  0  0
    8.2841  -13.7518   26.0575 C   0  0  2  0  0  0  0  0  0  0  0  0
    8.0728  -14.2487   24.7572 N   0  0  0  0  0  0  0  0  0  0  0  0
    8.0730  -14.8709   27.0286 C   0  0  0  0  0  0  0  0  0  0  0  0
    8.5097  -14.7992   28.3423 O   0  0  0  0  0  0  0  0  0  0  0  0
    7.4839  -15.9363   26.6912 O   0  0  0  0  0  0  0  0  0  0  0  0
  2  1  1  0
  3  2  2  0
  4  2  1  0
  4  5  1  0
  5  6  1  6
  7  5  1  0
  7  8  2  0
 10  9  1  6
 10 12  1  0
 11 10  1  0
 12 14  1  0
 12 13  1  1
 13  7  1  0
 14 20  1  0
 15 14  2  0
 17 16  1  6
 17 18  1  0
 19 17  1  0
 19 20  1  6
 21 22  1  0
 21 19  1  0
 23 21  2  0
M  END
$$$$
