NTV.pdb
     RDKit          3D

 23 22  0  0  1  0  0  0  0  0999 V2000
   13.0676  -19.7536   21.7011 N   0  0  0  0  0  0  0  0  0  0  0  0
   13.6900  -18.4847   21.8354 C   0  0  0  0  0  0  0  0  0  0  0  0
   14.9310  -18.3576   21.7001 O   0  0  0  0  0  0  0  0  0  0  0  0
   12.8604  -17.2745   22.1431 C   0  0  0  0  0  0  0  0  0  0  0  0
   11.5724  -17.3269   21.3524 C   0  0  2  0  0  0  0  0  0  0  0  0
   11.8736  -17.1668   19.9362 N   0  0  0  0  0  0  0  0  0  0  0  0
   10.7187  -16.2142   21.8303 C   0  0  0  0  0  0  0  0  0  0  0  0
   11.2743  -15.0808   21.9471 O   0  0  0  0  0  0  0  0  0  0  0  0
    7.2562  -15.0821   20.4508 C   0  0  0  0  0  0  0  0  0  0  0  0
    7.2071  -15.3245   21.9259 C   0  0  1  0  0  0  0  0  0  0  0  0
    6.6077  -16.5247   22.2684 O   0  0  0  0  0  0  0  0  0  0  0  0
    8.5901  -15.2173   22.5494 C   0  0  2  0  0  0  0  0  0  0  0  0
    9.3422  -16.3638   22.1531 N   0  0  0  0  0  0  0  0  0  0  0  0
    8.5128  -15.0375   24.0158 C   0  0  0  0  0  0  0  0  0  0  0  0
    9.0455  -15.8860   24.7494 O   0  0  0  0  0  0  0  0  0  0  0  0
    7.4552  -11.2970   25.9046 C   0  0  0  0  0  0  0  0  0  0  0  0
    6.9275  -12.5702   26.4938 C   0  0  2  0  0  0  0  0  0  0  0  0
    6.7937  -12.4924   28.0089 C   0  0  0  0  0  0  0  0  0  0  0  0
    7.6586  -13.7894   26.0438 C   0  0  2  0  0  0  0  0  0  0  0  0
    7.8711  -13.9600   24.6625 N   0  0  0  0  0  0  0  0  0  0  0  0
    6.9008  -14.9753   26.5530 C   0  0  0  0  0  0  0  0  0  0  0  0
    7.2670  -15.6418   27.7120 O   0  0  0  0  0  0  0  0  0  0  0  0
    5.8881  -15.4232   25.9451 O   0  0  0  0  0  0  0  0  0  0  0  0
  2  1  1  0
  3  2  2  0
  4  2  1  0
  4  5  1  0
  5  6  1  6
  7  5  1  0
  7  8  2  0
 10  9  1  6
 10 12  1  0
 11 10  1  0
 12 14  1  0
 12 13  1  1
 13  7  1  0
 14 20  1  0
 15 14  2  0
 17 16  1  1
 17 18  1  0
 19 17  1  0
 19 20  1  6
 21 22  1  0
 21 19  1  0
 23 21  2  0
M  END
$$$$
