PPT.pdb
     RDKit          3D

 22 23  0  0  1  0  0  0  0  0999 V2000
    8.1238  -14.1536   20.9335 N   0  0  0  0  0  0  0  0  0  0  0  0
    7.3638  -15.0741   20.1035 C   0  0  0  0  0  0  0  0  0  0  0  0
    6.9222  -16.0758   21.1477 C   0  0  0  0  0  0  0  0  0  0  0  0
    6.3993  -15.1652   22.2336 C   0  0  0  0  0  0  0  0  0  0  0  0
    7.3439  -13.9893   22.1475 C   0  0  1  0  0  0  0  0  0  0  0  0
    8.2683  -14.0773   23.3069 C   0  0  0  0  0  0  0  0  0  0  0  0
    9.5210  -14.2655   23.1350 O   0  0  0  0  0  0  0  0  0  0  0  0
    7.8032  -13.9560   24.6255 N   0  0  0  0  0  0  0  0  0  0  0  0
    6.4498  -13.8636   25.0672 C   0  0  0  0  0  0  0  0  0  0  0  0
    6.4699  -13.1292   26.3933 C   0  0  0  0  0  0  0  0  0  0  0  0
    7.9184  -12.7659   26.5642 C   0  0  0  0  0  0  0  0  0  0  0  0
    8.6354  -13.8842   25.8255 C   0  0  1  0  0  0  0  0  0  0  0  0
    8.5136  -15.1611   26.5554 C   0  0  0  0  0  0  0  0  0  0  0  0
    7.4107  -15.7512   26.6963 O   0  0  0  0  0  0  0  0  0  0  0  0
   11.4563  -18.9148   26.2207 C   0  0  0  0  0  0  0  0  0  0  0  0
   11.0617  -17.4695   26.1974 C   0  0  1  0  0  0  0  0  0  0  0  0
   10.8563  -17.0133   24.8945 O   0  0  0  0  0  0  0  0  0  0  0  0
    9.8608  -17.1745   27.0706 C   0  0  2  0  0  0  0  0  0  0  0  0
    9.6932  -15.7540   27.1261 N   0  0  0  0  0  0  0  0  0  0  0  0
   10.0032  -17.7241   28.4191 C   0  0  0  0  0  0  0  0  0  0  0  0
    9.5995  -19.0253   28.6719 O   0  0  0  0  0  0  0  0  0  0  0  0
   10.4837  -17.0589   29.3777 O   0  0  0  0  0  0  0  0  0  0  0  0
  1  5  1  0
  2  1  1  0
  3  2  1  0
  3  4  1  0
  4  5  1  0
  5  6  1  1
  6  7  2  0
  8  6  1  0
  8 12  1  0
  9 10  1  0
  9  8  1  0
 11 10  1  0
 11 12  1  0
 12 13  1  1
 13 19  1  0
 13 14  2  0
 16 15  1  6
 16 17  1  0
 18 20  1  0
 18 16  1  0
 18 19  1  1
 20 21  1  0
 22 20  2  0
M  END
$$$$
