PPT.pdb
     RDKit          3D

 22 23  0  0  1  0  0  0  0  0999 V2000
    8.3508  -14.0995   20.9650 N   0  0  0  0  0  0  0  0  0  0  0  0
    7.4827  -14.8427   20.0661 C   0  0  0  0  0  0  0  0  0  0  0  0
    6.7873  -15.7523   21.0549 C   0  0  0  0  0  0  0  0  0  0  0  0
    6.3809  -14.7714   22.1293 C   0  0  0  0  0  0  0  0  0  0  0  0
    7.5394  -13.8017   22.1321 C   0  0  1  0  0  0  0  0  0  0  0  0
    8.3508  -14.0838   23.3440 C   0  0  0  0  0  0  0  0  0  0  0  0
    9.5865  -14.3970   23.2485 O   0  0  0  0  0  0  0  0  0  0  0  0
    7.7941  -14.0155   24.6305 N   0  0  0  0  0  0  0  0  0  0  0  0
    6.4173  -13.8789   24.9782 C   0  0  0  0  0  0  0  0  0  0  0  0
    6.3724  -13.2250   26.3451 C   0  0  0  0  0  0  0  0  0  0  0  0
    7.8195  -12.9478   26.6424 C   0  0  0  0  0  0  0  0  0  0  0  0
    8.5362  -14.0569   25.8897 C   0  0  1  0  0  0  0  0  0  0  0  0
    8.2994  -15.3661   26.5284 C   0  0  0  0  0  0  0  0  0  0  0  0
    7.1563  -15.8904   26.5812 O   0  0  0  0  0  0  0  0  0  0  0  0
    9.6529  -17.9014   24.8711 C   0  0  0  0  0  0  0  0  0  0  0  0
   10.1450  -18.1705   26.2605 C   0  0  1  0  0  0  0  0  0  0  0  0
   11.4964  -17.8502   26.3987 O   0  0  0  0  0  0  0  0  0  0  0  0
    9.3135  -17.4819   27.3217 C   0  0  2  0  0  0  0  0  0  0  0  0
    9.4104  -16.0693   27.1113 N   0  0  0  0  0  0  0  0  0  0  0  0
    9.7430  -17.8261   28.6773 C   0  0  0  0  0  0  0  0  0  0  0  0
    9.5565  -19.1169   29.1452 O   0  0  0  0  0  0  0  0  0  0  0  0
   10.2837  -16.9901   29.4526 O   0  0  0  0  0  0  0  0  0  0  0  0
  1  5  1  0
  2  1  1  0
  3  2  1  0
  3  4  1  0
  4  5  1  0
  5  6  1  1
  6  7  2  0
  8  6  1  0
  8 12  1  0
  9 10  1  0
  9  8  1  0
 11 10  1  0
 11 12  1  0
 12 13  1  1
 13 19  1  0
 13 14  2  0
 16 15  1  6
 16 17  1  0
 18 20  1  0
 18 16  1  0
 18 19  1  6
 20 21  1  0
 22 20  2  0
M  END
$$$$
