PPT.pdb
     RDKit          3D

 22 23  0  0  1  0  0  0  0  0999 V2000
    8.2641  -14.1878   21.1345 N   0  0  0  0  0  0  0  0  0  0  0  0
    7.4489  -15.0717   20.3172 C   0  0  0  0  0  0  0  0  0  0  0  0
    6.9124  -16.0032   21.3816 C   0  0  0  0  0  0  0  0  0  0  0  0
    6.4435  -15.0216   22.4297 C   0  0  0  0  0  0  0  0  0  0  0  0
    7.4785  -13.9258   22.3275 C   0  0  1  0  0  0  0  0  0  0  0  0
    8.3730  -14.0494   23.5070 C   0  0  0  0  0  0  0  0  0  0  0  0
    9.6190  -14.2965   23.3631 O   0  0  0  0  0  0  0  0  0  0  0  0
    7.8861  -13.8985   24.8146 N   0  0  0  0  0  0  0  0  0  0  0  0
    6.5245  -13.8363   25.2358 C   0  0  0  0  0  0  0  0  0  0  0  0
    6.5021  -13.0566   26.5357 C   0  0  0  0  0  0  0  0  0  0  0  0
    7.9353  -12.6394   26.7121 C   0  0  0  0  0  0  0  0  0  0  0  0
    8.6989  -13.7578   26.0218 C   0  0  1  0  0  0  0  0  0  0  0  0
    8.6093  -15.0124   26.7940 C   0  0  0  0  0  0  0  0  0  0  0  0
    7.5218  -15.6257   26.9542 O   0  0  0  0  0  0  0  0  0  0  0  0
   10.3345  -17.6443   25.4405 C   0  0  0  0  0  0  0  0  0  0  0  0
   10.7704  -17.6720   26.8739 C   0  0  1  0  0  0  0  0  0  0  0  0
   12.0780  -17.2074   27.0229 O   0  0  0  0  0  0  0  0  0  0  0  0
    9.8229  -16.9277   27.7903 C   0  0  2  0  0  0  0  0  0  0  0  0
    9.8030  -15.5550   27.3847 N   0  0  0  0  0  0  0  0  0  0  0  0
   10.2066  -17.0379   29.1979 C   0  0  0  0  0  0  0  0  0  0  0  0
   10.1002  -18.2609   29.8406 O   0  0  0  0  0  0  0  0  0  0  0  0
   10.6366  -16.0567   29.8647 O   0  0  0  0  0  0  0  0  0  0  0  0
  1  5  1  0
  2  1  1  0
  3  2  1  0
  3  4  1  0
  4  5  1  0
  5  6  1  1
  6  7  2  0
  8  6  1  0
  8 12  1  0
  9 10  1  0
  9  8  1  0
 11 10  1  0
 11 12  1  0
 12 13  1  1
 13 19  1  0
 13 14  2  0
 16 15  1  6
 16 17  1  0
 18 20  1  0
 18 16  1  0
 18 19  1  6
 20 21  1  0
 22 20  2  0
M  END
$$$$
