PPT.pdb
     RDKit          3D

 22 23  0  0  1  0  0  0  0  0999 V2000
    8.3887  -14.0729   20.9149 N   0  0  0  0  0  0  0  0  0  0  0  0
    7.5139  -14.8414   20.0443 C   0  0  0  0  0  0  0  0  0  0  0  0
    6.8604  -15.7546   21.0581 C   0  0  0  0  0  0  0  0  0  0  0  0
    6.4609  -14.7713   22.1329 C   0  0  0  0  0  0  0  0  0  0  0  0
    7.6001  -13.7795   22.0986 C   0  0  1  0  0  0  0  0  0  0  0  0
    8.4459  -14.0342   23.2929 C   0  0  0  0  0  0  0  0  0  0  0  0
    9.6885  -14.3082   23.1711 O   0  0  0  0  0  0  0  0  0  0  0  0
    7.9150  -13.9819   24.5911 N   0  0  0  0  0  0  0  0  0  0  0  0
    6.5439  -13.8664   24.9679 C   0  0  0  0  0  0  0  0  0  0  0  0
    6.5184  -13.2221   26.3399 C   0  0  0  0  0  0  0  0  0  0  0  0
    7.9674  -12.9270   26.6092 C   0  0  0  0  0  0  0  0  0  0  0  0
    8.6834  -14.0213   25.8344 C   0  0  1  0  0  0  0  0  0  0  0  0
    8.4777  -15.3378   26.4690 C   0  0  0  0  0  0  0  0  0  0  0  0
    7.3414  -15.8727   26.5520 O   0  0  0  0  0  0  0  0  0  0  0  0
   10.0229  -17.7727   24.7176 C   0  0  0  0  0  0  0  0  0  0  0  0
   10.4593  -18.0759   26.1186 C   0  0  1  0  0  0  0  0  0  0  0  0
   11.7897  -17.7127   26.3329 O   0  0  0  0  0  0  0  0  0  0  0  0
    9.5538  -17.4579   27.1625 C   0  0  2  0  0  0  0  0  0  0  0  0
    9.6121  -16.0356   27.0118 N   0  0  0  0  0  0  0  0  0  0  0  0
    9.9283  -17.8423   28.5236 C   0  0  0  0  0  0  0  0  0  0  0  0
    9.7510  -19.1532   28.9359 O   0  0  0  0  0  0  0  0  0  0  0  0
   10.4125  -17.0236   29.3528 O   0  0  0  0  0  0  0  0  0  0  0  0
  1  5  1  0
  2  1  1  0
  3  2  1  0
  3  4  1  0
  4  5  1  0
  5  6  1  1
  6  7  2  0
  8  6  1  0
  8 12  1  0
  9 10  1  0
  9  8  1  0
 11 10  1  0
 11 12  1  0
 12 13  1  1
 13 19  1  0
 13 14  2  0
 16 15  1  6
 16 17  1  0
 18 20  1  0
 18 16  1  0
 18 19  1  1
 20 21  1  0
 22 20  2  0
M  END
$$$$
