PPT.pdb
     RDKit          3D

 22 23  0  0  1  0  0  0  0  0999 V2000
    8.3924  -14.1467   20.8903 N   0  0  0  0  0  0  0  0  0  0  0  0
    7.5024  -14.8899   20.0131 C   0  0  0  0  0  0  0  0  0  0  0  0
    6.8093  -15.7778   21.0230 C   0  0  0  0  0  0  0  0  0  0  0  0
    6.4305  -14.7782   22.0903 C   0  0  0  0  0  0  0  0  0  0  0  0
    7.6014  -13.8237   22.0646 C   0  0  1  0  0  0  0  0  0  0  0  0
    8.4260  -14.1011   23.2686 C   0  0  0  0  0  0  0  0  0  0  0  0
    9.6674  -14.3872   23.1626 O   0  0  0  0  0  0  0  0  0  0  0  0
    7.8759  -14.0577   24.5591 N   0  0  0  0  0  0  0  0  0  0  0  0
    6.5001  -13.9366   24.9164 C   0  0  0  0  0  0  0  0  0  0  0  0
    6.4581  -13.3054   26.2941 C   0  0  0  0  0  0  0  0  0  0  0  0
    7.9048  -13.0228   26.5880 C   0  0  0  0  0  0  0  0  0  0  0  0
    8.6252  -14.1143   25.8134 C   0  0  1  0  0  0  0  0  0  0  0  0
    8.4011  -15.4355   26.4319 C   0  0  0  0  0  0  0  0  0  0  0  0
    7.2551  -15.9478   26.5242 O   0  0  0  0  0  0  0  0  0  0  0  0
    9.7660  -18.0992   24.7434 C   0  0  0  0  0  0  0  0  0  0  0  0
   10.2651  -18.2837   26.1441 C   0  0  1  0  0  0  0  0  0  0  0  0
   11.6045  -17.9109   26.2662 O   0  0  0  0  0  0  0  0  0  0  0  0
    9.4091  -17.5736   27.1710 C   0  0  2  0  0  0  0  0  0  0  0  0
    9.5284  -16.1648   26.9476 N   0  0  0  0  0  0  0  0  0  0  0  0
    9.7926  -17.9066   28.5432 C   0  0  0  0  0  0  0  0  0  0  0  0
    9.5446  -19.1793   29.0314 O   0  0  0  0  0  0  0  0  0  0  0  0
   10.3471  -17.0764   29.3150 O   0  0  0  0  0  0  0  0  0  0  0  0
  1  5  1  0
  2  1  1  0
  3  2  1  0
  3  4  1  0
  4  5  1  0
  5  6  1  1
  6  7  2  0
  8  6  1  0
  8 12  1  0
  9 10  1  0
  9  8  1  0
 11 10  1  0
 11 12  1  0
 12 13  1  1
 13 19  1  0
 13 14  2  0
 16 15  1  6
 16 17  1  0
 18 20  1  0
 18 16  1  0
 18 19  1  1
 20 21  1  0
 22 20  2  0
M  END
$$$$
