PPT.pdb
     RDKit          3D

 22 23  0  0  1  0  0  0  0  0999 V2000
    6.9142  -18.8490   20.8257 N   0  0  0  0  0  0  0  0  0  0  0  0
    5.9642  -19.7301   21.4853 C   0  0  0  0  0  0  0  0  0  0  0  0
    5.8678  -19.0578   22.8371 C   0  0  0  0  0  0  0  0  0  0  0  0
    5.6661  -17.6144   22.4399 C   0  0  0  0  0  0  0  0  0  0  0  0
    6.5197  -17.5020   21.1984 C   0  0  1  0  0  0  0  0  0  0  0  0
    7.7441  -16.7470   21.5691 C   0  0  0  0  0  0  0  0  0  0  0  0
    8.8775  -17.3328   21.6496 O   0  0  0  0  0  0  0  0  0  0  0  0
    7.7018  -15.3708   21.8411 N   0  0  0  0  0  0  0  0  0  0  0  0
    6.5468  -14.5535   22.0230 C   0  0  0  0  0  0  0  0  0  0  0  0
    6.9467  -13.1392   21.6513 C   0  0  0  0  0  0  0  0  0  0  0  0
    8.3640  -13.2954   21.1759 C   0  0  0  0  0  0  0  0  0  0  0  0
    8.8589  -14.4875   21.9786 C   0  0  1  0  0  0  0  0  0  0  0  0
    9.0119  -14.1367   23.4039 C   0  0  0  0  0  0  0  0  0  0  0  0
    9.9458  -13.4011   23.8176 O   0  0  0  0  0  0  0  0  0  0  0  0
    6.9784  -12.2351   25.8039 C   0  0  0  0  0  0  0  0  0  0  0  0
    7.0379  -13.6599   26.2639 C   0  0  1  0  0  0  0  0  0  0  0  0
    5.8685  -14.3523   25.9461 O   0  0  0  0  0  0  0  0  0  0  0  0
    8.2585  -14.3927   25.7493 C   0  0  2  0  0  0  0  0  0  0  0  0
    8.0635  -14.6511   24.3549 N   0  0  0  0  0  0  0  0  0  0  0  0
    8.5040  -15.6421   26.4700 C   0  0  0  0  0  0  0  0  0  0  0  0
    8.8042  -15.6025   27.8221 O   0  0  0  0  0  0  0  0  0  0  0  0
    8.4544  -16.7717   25.9097 O   0  0  0  0  0  0  0  0  0  0  0  0
  1  5  1  0
  2  1  1  0
  3  2  1  0
  3  4  1  0
  4  5  1  0
  5  6  1  1
  6  7  2  0
  8  6  1  0
  8 12  1  0
  9 10  1  0
  9  8  1  0
 11 10  1  0
 11 12  1  0
 12 13  1  1
 13 19  1  0
 13 14  2  0
 16 15  1  6
 16 17  1  0
 18 20  1  0
 18 16  1  0
 18 19  1  6
 20 21  1  0
 22 20  2  0
M  END
$$$$
