PPT.pdb
     RDKit          3D

 22 23  0  0  1  0  0  0  0  0999 V2000
    8.5200  -16.0570   19.8066 N   0  0  0  0  0  0  0  0  0  0  0  0
    7.4666  -16.7397   19.0731 C   0  0  0  0  0  0  0  0  0  0  0  0
    6.5937  -17.1983   20.2204 C   0  0  0  0  0  0  0  0  0  0  0  0
    6.4794  -15.9310   21.0345 C   0  0  0  0  0  0  0  0  0  0  0  0
    7.8446  -15.3098   20.8529 C   0  0  1  0  0  0  0  0  0  0  0  0
    8.5939  -15.5076   22.1202 C   0  0  0  0  0  0  0  0  0  0  0  0
    9.7532  -16.0461   22.1203 O   0  0  0  0  0  0  0  0  0  0  0  0
    8.0601  -15.1112   23.3562 N   0  0  0  0  0  0  0  0  0  0  0  0
    6.7505  -14.6104   23.6197 C   0  0  0  0  0  0  0  0  0  0  0  0
    6.8502  -13.7557   24.8678 C   0  0  0  0  0  0  0  0  0  0  0  0
    8.3201  -13.7730   25.1810 C   0  0  0  0  0  0  0  0  0  0  0  0
    8.7643  -15.1212   24.6376 C   0  0  1  0  0  0  0  0  0  0  0  0
    8.2258  -16.2238   25.4577 C   0  0  0  0  0  0  0  0  0  0  0  0
    7.0405  -16.6307   25.3404 O   0  0  0  0  0  0  0  0  0  0  0  0
    8.4418  -18.7088   24.2919 C   0  0  0  0  0  0  0  0  0  0  0  0
    9.2922  -19.0349   25.4816 C   0  0  1  0  0  0  0  0  0  0  0  0
   10.6508  -18.8844   25.1996 O   0  0  0  0  0  0  0  0  0  0  0  0
    8.9041  -18.2471   26.7147 C   0  0  2  0  0  0  0  0  0  0  0  0
    9.0819  -16.8567   26.4247 N   0  0  0  0  0  0  0  0  0  0  0  0
    9.6889  -18.6274   27.8895 C   0  0  0  0  0  0  0  0  0  0  0  0
    9.3788  -19.7945   28.5689 O   0  0  0  0  0  0  0  0  0  0  0  0
   10.6498  -17.9319   28.3200 O   0  0  0  0  0  0  0  0  0  0  0  0
  1  5  1  0
  2  1  1  0
  3  2  1  0
  3  4  1  0
  4  5  1  0
  5  6  1  1
  6  7  2  0
  8  6  1  0
  8 12  1  0
  9 10  1  0
  9  8  1  0
 11 10  1  0
 11 12  1  0
 12 13  1  1
 13 19  1  0
 13 14  2  0
 16 15  1  6
 16 17  1  0
 18 20  1  0
 18 16  1  0
 18 19  1  6
 20 21  1  0
 22 20  2  0
M  END
$$$$
