PPT.pdb
     RDKit          3D

 22 23  0  0  1  0  0  0  0  0999 V2000
    5.3127  -12.9413   26.3378 N   0  0  0  0  0  0  0  0  0  0  0  0
    5.7030  -11.9768   27.3533 C   0  0  0  0  0  0  0  0  0  0  0  0
    7.2073  -12.0170   27.1982 C   0  0  0  0  0  0  0  0  0  0  0  0
    7.3572  -11.8919   25.7003 C   0  0  0  0  0  0  0  0  0  0  0  0
    6.1642  -12.6680   25.1935 C   0  0  1  0  0  0  0  0  0  0  0  0
    6.6677  -13.9643   24.6713 C   0  0  0  0  0  0  0  0  0  0  0  0
    6.3338  -15.0684   25.2223 O   0  0  0  0  0  0  0  0  0  0  0  0
    7.5221  -14.0239   23.5594 N   0  0  0  0  0  0  0  0  0  0  0  0
    8.1708  -12.9381   22.8996 C   0  0  0  0  0  0  0  0  0  0  0  0
    8.4204  -13.3786   21.4707 C   0  0  0  0  0  0  0  0  0  0  0  0
    7.7733  -14.7339   21.4098 C   0  0  0  0  0  0  0  0  0  0  0  0
    7.9080  -15.2358   22.8381 C   0  0  1  0  0  0  0  0  0  0  0  0
    9.3157  -15.5419   23.1590 C   0  0  0  0  0  0  0  0  0  0  0  0
   10.1595  -14.6406   23.4045 O   0  0  0  0  0  0  0  0  0  0  0  0
   11.7385  -19.2995   25.2521 C   0  0  0  0  0  0  0  0  0  0  0  0
   10.5741  -18.7185   24.5095 C   0  0  1  0  0  0  0  0  0  0  0  0
    9.3938  -18.8129   25.2483 O   0  0  0  0  0  0  0  0  0  0  0  0
   10.8177  -17.2947   24.0567 C   0  0  2  0  0  0  0  0  0  0  0  0
    9.7409  -16.9154   23.1930 N   0  0  0  0  0  0  0  0  0  0  0  0
   12.1006  -17.1392   23.3706 C   0  0  0  0  0  0  0  0  0  0  0  0
   13.2144  -16.7358   24.0893 O   0  0  0  0  0  0  0  0  0  0  0  0
   12.2429  -17.3587   22.1361 O   0  0  0  0  0  0  0  0  0  0  0  0
  1  5  1  0
  2  1  1  0
  3  2  1  0
  3  4  1  0
  4  5  1  0
  5  6  1  1
  6  7  2  0
  8  6  1  0
  8 12  1  0
  9 10  1  0
  9  8  1  0
 11 10  1  0
 11 12  1  0
 12 13  1  1
 13 19  1  0
 13 14  2  0
 16 15  1  1
 16 17  1  0
 18 20  1  0
 18 16  1  0
 18 19  1  6
 20 21  1  0
 22 20  2  0
M  END
$$$$
