PPT.pdb
     RDKit          3D

 22 23  0  0  1  0  0  0  0  0999 V2000
    8.6158  -14.4077   20.9441 N   0  0  0  0  0  0  0  0  0  0  0  0
    7.7355  -15.0556   19.9855 C   0  0  0  0  0  0  0  0  0  0  0  0
    6.8458  -15.8398   20.9247 C   0  0  0  0  0  0  0  0  0  0  0  0
    6.4840  -14.7856   21.9443 C   0  0  0  0  0  0  0  0  0  0  0  0
    7.7562  -13.9754   22.0319 C   0  0  1  0  0  0  0  0  0  0  0  0
    8.4191  -14.3279   23.3136 C   0  0  0  0  0  0  0  0  0  0  0  0
    9.6174  -14.7725   23.3326 O   0  0  0  0  0  0  0  0  0  0  0  0
    7.7583  -14.1849   24.5436 N   0  0  0  0  0  0  0  0  0  0  0  0
    6.3878  -13.8556   24.7635 C   0  0  0  0  0  0  0  0  0  0  0  0
    6.3062  -13.2056   26.1306 C   0  0  0  0  0  0  0  0  0  0  0  0
    7.7432  -13.1370   26.5659 C   0  0  0  0  0  0  0  0  0  0  0  0
    8.3647  -14.3344   25.8656 C   0  0  1  0  0  0  0  0  0  0  0  0
    7.8867  -15.5986   26.4584 C   0  0  0  0  0  0  0  0  0  0  0  0
    6.7770  -16.1069   26.1508 O   0  0  0  0  0  0  0  0  0  0  0  0
    8.6638  -17.6595   24.8981 C   0  0  0  0  0  0  0  0  0  0  0  0
    9.4256  -18.1275   26.1006 C   0  0  1  0  0  0  0  0  0  0  0  0
   10.7620  -17.7287   26.0502 O   0  0  0  0  0  0  0  0  0  0  0  0
    8.7826  -17.7050   27.4042 C   0  0  2  0  0  0  0  0  0  0  0  0
    8.7145  -16.2752   27.4203 N   0  0  0  0  0  0  0  0  0  0  0  0
    9.5160  -18.1937   28.5721 C   0  0  0  0  0  0  0  0  0  0  0  0
    9.3861  -19.5193   28.9541 O   0  0  0  0  0  0  0  0  0  0  0  0
   10.2732  -17.4536   29.2586 O   0  0  0  0  0  0  0  0  0  0  0  0
  1  5  1  0
  2  1  1  0
  3  2  1  0
  3  4  1  0
  4  5  1  0
  5  6  1  1
  6  7  2  0
  8  6  1  0
  8 12  1  0
  9 10  1  0
  9  8  1  0
 11 10  1  0
 11 12  1  0
 12 13  1  1
 13 19  1  0
 13 14  2  0
 16 15  1  6
 16 17  1  0
 18 20  1  0
 18 16  1  0
 18 19  1  1
 20 21  1  0
 22 20  2  0
M  END
$$$$
