PPT.pdb
     RDKit          3D

 22 23  0  0  1  0  0  0  0  0999 V2000
    8.5832  -14.4153   20.6985 N   0  0  0  0  0  0  0  0  0  0  0  0
    7.6788  -15.0164   19.7317 C   0  0  0  0  0  0  0  0  0  0  0  0
    6.7798  -15.8047   20.6585 C   0  0  0  0  0  0  0  0  0  0  0  0
    6.4526  -14.7703   21.7095 C   0  0  0  0  0  0  0  0  0  0  0  0
    7.7442  -13.9926   21.8061 C   0  0  1  0  0  0  0  0  0  0  0  0
    8.4106  -14.3949   23.0712 C   0  0  0  0  0  0  0  0  0  0  0  0
    9.6170  -14.8175   23.0723 O   0  0  0  0  0  0  0  0  0  0  0  0
    7.7444  -14.3244   24.3045 N   0  0  0  0  0  0  0  0  0  0  0  0
    6.3535  -14.1038   24.5324 C   0  0  0  0  0  0  0  0  0  0  0  0
    6.2270  -13.4865   25.9112 C   0  0  0  0  0  0  0  0  0  0  0  0
    7.6559  -13.3171   26.3455 C   0  0  0  0  0  0  0  0  0  0  0  0
    8.3642  -14.4512   25.6227 C   0  0  1  0  0  0  0  0  0  0  0  0
    7.9850  -15.7585   26.1932 C   0  0  0  0  0  0  0  0  0  0  0  0
    6.7905  -16.1539   26.2295 O   0  0  0  0  0  0  0  0  0  0  0  0
    8.7675  -18.6110   24.5969 C   0  0  0  0  0  0  0  0  0  0  0  0
    9.3450  -18.8433   25.9599 C   0  0  1  0  0  0  0  0  0  0  0  0
   10.7328  -18.6947   25.9627 O   0  0  0  0  0  0  0  0  0  0  0  0
    8.7051  -17.9777   27.0242 C   0  0  2  0  0  0  0  0  0  0  0  0
    9.0126  -16.6117   26.7266 N   0  0  0  0  0  0  0  0  0  0  0  0
    9.1613  -18.3212   28.3713 C   0  0  0  0  0  0  0  0  0  0  0  0
    8.7457  -19.5094   28.9504 O   0  0  0  0  0  0  0  0  0  0  0  0
    9.9274  -17.5749   29.0410 O   0  0  0  0  0  0  0  0  0  0  0  0
  1  5  1  0
  2  1  1  0
  3  2  1  0
  3  4  1  0
  4  5  1  0
  5  6  1  1
  6  7  2  0
  8  6  1  0
  8 12  1  0
  9 10  1  0
  9  8  1  0
 11 10  1  0
 11 12  1  0
 12 13  1  1
 13 19  1  0
 13 14  2  0
 16 15  1  6
 16 17  1  0
 18 20  1  0
 18 16  1  0
 18 19  1  6
 20 21  1  0
 22 20  2  0
M  END
$$$$
