PPT.pdb
     RDKit          3D

 22 23  0  0  1  0  0  0  0  0999 V2000
    8.2826  -14.0929   21.0374 N   0  0  0  0  0  0  0  0  0  0  0  0
    7.4021  -14.8495   20.1622 C   0  0  0  0  0  0  0  0  0  0  0  0
    6.7493  -15.7710   21.1688 C   0  0  0  0  0  0  0  0  0  0  0  0
    6.3569  -14.7975   22.2552 C   0  0  0  0  0  0  0  0  0  0  0  0
    7.4993  -13.8092   22.2270 C   0  0  1  0  0  0  0  0  0  0  0  0
    8.3485  -14.0789   23.4155 C   0  0  0  0  0  0  0  0  0  0  0  0
    9.5830  -14.3837   23.2849 O   0  0  0  0  0  0  0  0  0  0  0  0
    7.8298  -14.0076   24.7177 N   0  0  0  0  0  0  0  0  0  0  0  0
    6.4605  -13.9133   25.1065 C   0  0  0  0  0  0  0  0  0  0  0  0
    6.4348  -13.2376   26.4633 C   0  0  0  0  0  0  0  0  0  0  0  0
    7.8796  -12.9047   26.7100 C   0  0  0  0  0  0  0  0  0  0  0  0
    8.6116  -14.0010   25.9533 C   0  0  1  0  0  0  0  0  0  0  0  0
    8.4415  -15.3063   26.6206 C   0  0  0  0  0  0  0  0  0  0  0  0
    7.3155  -15.8550   26.7450 O   0  0  0  0  0  0  0  0  0  0  0  0
   10.0692  -17.9122   25.0016 C   0  0  0  0  0  0  0  0  0  0  0  0
   10.4850  -18.0703   26.4325 C   0  0  1  0  0  0  0  0  0  0  0  0
   11.8000  -17.6492   26.6355 O   0  0  0  0  0  0  0  0  0  0  0  0
    9.5413  -17.3850   27.3975 C   0  0  2  0  0  0  0  0  0  0  0  0
    9.5996  -15.9768   27.1476 N   0  0  0  0  0  0  0  0  0  0  0  0
    9.8692  -17.6690   28.7948 C   0  0  0  0  0  0  0  0  0  0  0  0
    9.6140  -18.9283   29.3134 O   0  0  0  0  0  0  0  0  0  0  0  0
   10.3814  -16.8079   29.5619 O   0  0  0  0  0  0  0  0  0  0  0  0
  1  5  1  0
  2  1  1  0
  3  2  1  0
  3  4  1  0
  4  5  1  0
  5  6  1  1
  6  7  2  0
  8  6  1  0
  8 12  1  0
  9 10  1  0
  9  8  1  0
 11 10  1  0
 11 12  1  0
 12 13  1  1
 13 19  1  0
 13 14  2  0
 16 15  1  6
 16 17  1  0
 18 20  1  0
 18 16  1  0
 18 19  1  1
 20 21  1  0
 22 20  2  0
M  END
$$$$
