PPT.pdb
     RDKit          3D

 22 23  0  0  1  0  0  0  0  0999 V2000
    8.7256  -14.4512   20.7076 N   0  0  0  0  0  0  0  0  0  0  0  0
    7.8852  -15.1448   19.7451 C   0  0  0  0  0  0  0  0  0  0  0  0
    6.9979  -15.9340   20.6824 C   0  0  0  0  0  0  0  0  0  0  0  0
    6.5840  -14.8689   21.6704 C   0  0  0  0  0  0  0  0  0  0  0  0
    7.8304  -14.0205   21.7670 C   0  0  1  0  0  0  0  0  0  0  0  0
    8.4748  -14.3258   23.0700 C   0  0  0  0  0  0  0  0  0  0  0  0
    9.6746  -14.7638   23.1226 O   0  0  0  0  0  0  0  0  0  0  0  0
    7.7945  -14.1440   24.2841 N   0  0  0  0  0  0  0  0  0  0  0  0
    6.4418  -13.7314   24.4718 C   0  0  0  0  0  0  0  0  0  0  0  0
    6.3673  -13.0794   25.8383 C   0  0  0  0  0  0  0  0  0  0  0  0
    7.7948  -13.0997   26.3083 C   0  0  0  0  0  0  0  0  0  0  0  0
    8.3583  -14.3322   25.6199 C   0  0  1  0  0  0  0  0  0  0  0  0
    7.7893  -15.5654   26.1976 C   0  0  0  0  0  0  0  0  0  0  0  0
    6.6493  -15.9924   25.8778 O   0  0  0  0  0  0  0  0  0  0  0  0
   10.8006  -16.8583   25.5720 C   0  0  0  0  0  0  0  0  0  0  0  0
    9.6199  -17.7798   25.6136 C   0  0  1  0  0  0  0  0  0  0  0  0
    9.9871  -19.0989   25.3435 O   0  0  0  0  0  0  0  0  0  0  0  0
    8.8480  -17.6872   26.9125 C   0  0  2  0  0  0  0  0  0  0  0  0
    8.5612  -16.3065   27.1586 N   0  0  0  0  0  0  0  0  0  0  0  0
    9.5813  -18.2643   28.0395 C   0  0  0  0  0  0  0  0  0  0  0  0
   10.2197  -17.4262   28.9395 O   0  0  0  0  0  0  0  0  0  0  0  0
    9.6611  -19.5086   28.2336 O   0  0  0  0  0  0  0  0  0  0  0  0
  1  5  1  0
  2  1  1  0
  3  2  1  0
  3  4  1  0
  4  5  1  0
  5  6  1  1
  6  7  2  0
  8  6  1  0
  8 12  1  0
  9 10  1  0
  9  8  1  0
 11 10  1  0
 11 12  1  0
 12 13  1  1
 13 19  1  0
 13 14  2  0
 16 15  1  1
 16 17  1  0
 18 20  1  0
 18 16  1  0
 18 19  1  1
 20 21  1  0
 22 20  2  0
M  END
$$$$
