PPT.pdb
     RDKit          3D

 22 23  0  0  1  0  0  0  0  0999 V2000
    8.2597  -14.0522   20.9567 N   0  0  0  0  0  0  0  0  0  0  0  0
    7.3685  -14.7816   20.0693 C   0  0  0  0  0  0  0  0  0  0  0  0
    6.7084  -15.7157   21.0595 C   0  0  0  0  0  0  0  0  0  0  0  0
    6.3299  -14.7598   22.1662 C   0  0  0  0  0  0  0  0  0  0  0  0
    7.4830  -13.7836   22.1541 C   0  0  1  0  0  0  0  0  0  0  0  0
    8.3326  -14.0862   23.3344 C   0  0  0  0  0  0  0  0  0  0  0  0
    9.5463  -14.4609   23.1910 O   0  0  0  0  0  0  0  0  0  0  0  0
    7.8371  -13.9707   24.6425 N   0  0  0  0  0  0  0  0  0  0  0  0
    6.4813  -13.7909   25.0482 C   0  0  0  0  0  0  0  0  0  0  0  0
    6.5146  -13.1009   26.3976 C   0  0  0  0  0  0  0  0  0  0  0  0
    7.9799  -12.8522   26.6216 C   0  0  0  0  0  0  0  0  0  0  0  0
    8.6349  -13.9979   25.8675 C   0  0  1  0  0  0  0  0  0  0  0  0
    8.3968  -15.2839   26.5514 C   0  0  0  0  0  0  0  0  0  0  0  0
    7.2457  -15.7800   26.6663 O   0  0  0  0  0  0  0  0  0  0  0  0
    9.8192  -17.8769   24.8950 C   0  0  0  0  0  0  0  0  0  0  0  0
   10.2791  -18.1061   26.3025 C   0  0  1  0  0  0  0  0  0  0  0  0
   11.6211  -17.7605   26.4679 O   0  0  0  0  0  0  0  0  0  0  0  0
    9.4094  -17.4073   27.3257 C   0  0  2  0  0  0  0  0  0  0  0  0
    9.5158  -15.9967   27.1065 N   0  0  0  0  0  0  0  0  0  0  0  0
    9.7876  -17.7398   28.6994 C   0  0  0  0  0  0  0  0  0  0  0  0
    9.5693  -19.0224   29.1761 O   0  0  0  0  0  0  0  0  0  0  0  0
   10.3114  -16.9006   29.4829 O   0  0  0  0  0  0  0  0  0  0  0  0
  1  5  1  0
  2  1  1  0
  3  2  1  0
  3  4  1  0
  4  5  1  0
  5  6  1  1
  6  7  2  0
  8  6  1  0
  8 12  1  0
  9 10  1  0
  9  8  1  0
 11 10  1  0
 11 12  1  0
 12 13  1  1
 13 19  1  0
 13 14  2  0
 16 15  1  6
 16 17  1  0
 18 20  1  0
 18 16  1  0
 18 19  1  1
 20 21  1  0
 22 20  2  0
M  END
$$$$
