LVP.pdb
     RDKit          3D

 23 23  0  0  1  0  0  0  0  0999 V2000
    9.3492  -18.6862   28.8435 C   0  0  0  0  0  0  0  0  0  0  0  0
    9.1121  -19.5991   27.6326 C   0  0  2  0  0  0  0  0  0  0  0  0
   10.4800  -20.1171   27.2515 C   0  0  0  0  0  0  0  0  0  0  0  0
    8.4062  -18.8866   26.5281 C   0  0  0  0  0  0  0  0  0  0  0  0
    7.1228  -18.2691   26.9657 C   0  0  2  0  0  0  0  0  0  0  0  0
    6.1188  -19.2747   27.1190 N   0  0  0  0  0  0  0  0  0  0  0  0
    6.6985  -17.1284   26.1386 C   0  0  0  0  0  0  0  0  0  0  0  0
    5.9684  -17.2935   25.1298 O   0  0  0  0  0  0  0  0  0  0  0  0
    6.2269  -12.9722   26.9715 C   0  0  0  0  0  0  0  0  0  0  0  0
    7.3286  -13.3675   25.9942 C   0  0  2  0  0  0  0  0  0  0  0  0
    7.3933  -12.2973   24.9324 C   0  0  0  0  0  0  0  0  0  0  0  0
    7.0537  -14.7458   25.4122 C   0  0  2  0  0  0  0  0  0  0  0  0
    7.0794  -15.7587   26.4135 N   0  0  0  0  0  0  0  0  0  0  0  0
    8.0040  -14.9804   24.3251 C   0  0  0  0  0  0  0  0  0  0  0  0
    9.1747  -15.3610   24.7081 O   0  0  0  0  0  0  0  0  0  0  0  0
    7.8152  -14.8490   22.9507 N   0  0  0  0  0  0  0  0  0  0  0  0
    6.6723  -14.3239   22.2534 C   0  0  0  0  0  0  0  0  0  0  0  0
    7.1301  -13.9813   20.8411 C   0  0  0  0  0  0  0  0  0  0  0  0
    8.2056  -14.9842   20.5978 C   0  0  0  0  0  0  0  0  0  0  0  0
    8.7987  -15.2410   21.9470 C   0  0  1  0  0  0  0  0  0  0  0  0
   10.0187  -14.4158   22.0933 C   0  0  0  0  0  0  0  0  0  0  0  0
   11.1973  -14.6834   21.4199 O   0  0  0  0  0  0  0  0  0  0  0  0
    9.9645  -13.4204   22.8770 O   0  0  0  0  0  0  0  0  0  0  0  0
  2  1  1  1
  2  3  1  0
  4  2  1  0
  4  5  1  0
  5  6  1  6
  7  5  1  0
  7  8  2  0
 10 12  1  0
 10 11  1  6
 10  9  1  0
 12 13  1  1
 13  7  1  0
 14 12  1  0
 15 14  2  0
 16 14  1  0
 17 16  1  0
 18 17  1  0
 19 18  1  0
 19 20  1  0
 20 21  1  1
 20 16  1  0
 21 22  1  0
 23 21  2  0
M  END
$$$$
