LVP.pdb
     RDKit          3D

 23 23  0  0  1  0  0  0  0  0999 V2000
    8.0378  -12.2960   27.3822 C   0  0  0  0  0  0  0  0  0  0  0  0
    7.1659  -13.2165   26.5171 C   0  0  2  0  0  0  0  0  0  0  0  0
    5.8485  -12.4908   26.3674 C   0  0  0  0  0  0  0  0  0  0  0  0
    7.0408  -14.5810   27.1073 C   0  0  0  0  0  0  0  0  0  0  0  0
    6.4377  -15.5654   26.1654 C   0  0  2  0  0  0  0  0  0  0  0  0
    5.9175  -16.6839   26.8873 N   0  0  0  0  0  0  0  0  0  0  0  0
    7.3202  -15.9385   25.0486 C   0  0  0  0  0  0  0  0  0  0  0  0
    7.9828  -17.0054   25.0729 O   0  0  0  0  0  0  0  0  0  0  0  0
    6.7710  -14.4056   21.1472 C   0  0  0  0  0  0  0  0  0  0  0  0
    8.2178  -14.5685   21.6001 C   0  0  2  0  0  0  0  0  0  0  0  0
    9.0136  -15.0332   20.4051 C   0  0  0  0  0  0  0  0  0  0  0  0
    8.3035  -15.5404   22.7671 C   0  0  2  0  0  0  0  0  0  0  0  0
    7.4923  -15.1263   23.8623 N   0  0  0  0  0  0  0  0  0  0  0  0
    9.7133  -15.7074   23.1199 C   0  0  0  0  0  0  0  0  0  0  0  0
   10.3269  -14.6121   23.4129 O   0  0  0  0  0  0  0  0  0  0  0  0
   10.4704  -16.8758   23.1805 N   0  0  0  0  0  0  0  0  0  0  0  0
   10.0334  -18.2328   22.9912 C   0  0  0  0  0  0  0  0  0  0  0  0
   11.2774  -19.0671   22.7120 C   0  0  0  0  0  0  0  0  0  0  0  0
   12.3303  -18.3446   23.4807 C   0  0  0  0  0  0  0  0  0  0  0  0
   11.9023  -16.9113   23.4577 C   0  0  1  0  0  0  0  0  0  0  0  0
   12.6379  -16.2142   22.3789 C   0  0  0  0  0  0  0  0  0  0  0  0
   13.9446  -15.7802   22.5135 O   0  0  0  0  0  0  0  0  0  0  0  0
   12.0269  -16.0127   21.2861 O   0  0  0  0  0  0  0  0  0  0  0  0
  2  1  1  1
  2  3  1  0
  4  2  1  0
  4  5  1  0
  5  6  1  1
  7  5  1  0
  7  8  2  0
 10 12  1  0
 10 11  1  6
 10  9  1  0
 12 13  1  1
 13  7  1  0
 14 12  1  0
 15 14  2  0
 16 14  1  0
 17 16  1  0
 18 17  1  0
 19 18  1  0
 19 20  1  0
 20 21  1  6
 20 16  1  0
 21 22  1  0
 23 21  2  0
M  END
$$$$
