LVP.pdb
     RDKit          3D

 23 23  0  0  1  0  0  0  0  0999 V2000
    8.9991  -20.5281   20.6650 C   0  0  0  0  0  0  0  0  0  0  0  0
    9.9466  -20.3974   21.8655 C   0  0  2  0  0  0  0  0  0  0  0  0
    9.5642  -21.5237   22.7981 C   0  0  0  0  0  0  0  0  0  0  0  0
    9.8717  -19.0442   22.4892 C   0  0  0  0  0  0  0  0  0  0  0  0
   10.1496  -17.9455   21.5219 C   0  0  2  0  0  0  0  0  0  0  0  0
   11.4715  -18.0758   20.9943 N   0  0  0  0  0  0  0  0  0  0  0  0
    9.8486  -16.6029   22.0434 C   0  0  0  0  0  0  0  0  0  0  0  0
   10.6815  -15.9769   22.7451 O   0  0  0  0  0  0  0  0  0  0  0  0
    7.8870  -13.6492   20.0881 C   0  0  0  0  0  0  0  0  0  0  0  0
    7.3296  -13.8515   21.4928 C   0  0  2  0  0  0  0  0  0  0  0  0
    7.0307  -12.4851   22.0593 C   0  0  0  0  0  0  0  0  0  0  0  0
    8.3160  -14.6310   22.3491 C   0  0  2  0  0  0  0  0  0  0  0  0
    8.5996  -15.9131   21.7967 N   0  0  0  0  0  0  0  0  0  0  0  0
    7.7897  -14.6904   23.7127 C   0  0  0  0  0  0  0  0  0  0  0  0
    6.9441  -15.6410   23.9211 O   0  0  0  0  0  0  0  0  0  0  0  0
    8.0763  -13.8681   24.8007 N   0  0  0  0  0  0  0  0  0  0  0  0
    8.9240  -12.7071   24.8425 C   0  0  0  0  0  0  0  0  0  0  0  0
    8.5517  -11.9280   26.0979 C   0  0  0  0  0  0  0  0  0  0  0  0
    8.1109  -13.0058   27.0283 C   0  0  0  0  0  0  0  0  0  0  0  0
    7.5324  -14.0618   26.1404 C   0  0  1  0  0  0  0  0  0  0  0  0
    6.0612  -13.9024   26.1107 C   0  0  0  0  0  0  0  0  0  0  0  0
    5.2201  -14.4723   27.0497 O   0  0  0  0  0  0  0  0  0  0  0  0
    5.5641  -13.2078   25.1734 O   0  0  0  0  0  0  0  0  0  0  0  0
  2  1  1  6
  2  3  1  0
  4  2  1  0
  4  5  1  0
  5  6  1  1
  7  5  1  0
  7  8  2  0
 10 12  1  0
 10 11  1  1
 10  9  1  0
 12 13  1  6
 13  7  1  0
 14 12  1  0
 15 14  2  0
 16 14  1  0
 17 16  1  0
 18 17  1  0
 19 18  1  0
 19 20  1  0
 20 21  1  6
 20 16  1  0
 21 22  1  0
 23 21  2  0
M  END
$$$$
