LVP.pdb
     RDKit          3D

 23 23  0  0  1  0  0  0  0  0999 V2000
   10.9708  -21.2812   25.7497 C   0  0  0  0  0  0  0  0  0  0  0  0
    9.4994  -21.6173   26.0291 C   0  0  2  0  0  0  0  0  0  0  0  0
    8.9914  -22.2629   24.7604 C   0  0  0  0  0  0  0  0  0  0  0  0
    8.7233  -20.4139   26.4478 C   0  0  0  0  0  0  0  0  0  0  0  0
    9.2738  -19.7681   27.6725 C   0  0  2  0  0  0  0  0  0  0  0  0
    9.0799  -20.6161   28.8066 N   0  0  0  0  0  0  0  0  0  0  0  0
    8.8086  -18.3874   27.8779 C   0  0  0  0  0  0  0  0  0  0  0  0
    7.6157  -18.1429   28.1864 O   0  0  0  0  0  0  0  0  0  0  0  0
   10.4440  -14.9556   29.5488 C   0  0  0  0  0  0  0  0  0  0  0  0
   10.1693  -14.8606   28.0520 C   0  0  2  0  0  0  0  0  0  0  0  0
    9.7020  -13.4539   27.7689 C   0  0  0  0  0  0  0  0  0  0  0  0
    9.1479  -15.9064   27.6314 C   0  0  2  0  0  0  0  0  0  0  0  0
    9.6663  -17.2285   27.7433 N   0  0  0  0  0  0  0  0  0  0  0  0
    8.6854  -15.5769   26.2832 C   0  0  0  0  0  0  0  0  0  0  0  0
    9.3619  -16.1273   25.3339 O   0  0  0  0  0  0  0  0  0  0  0  0
    7.6264  -14.7590   25.8942 N   0  0  0  0  0  0  0  0  0  0  0  0
    6.7293  -14.0043   26.7274 C   0  0  0  0  0  0  0  0  0  0  0  0
    6.0722  -12.9550   25.8392 C   0  0  0  0  0  0  0  0  0  0  0  0
    6.0383  -13.6310   24.5113 C   0  0  0  0  0  0  0  0  0  0  0  0
    7.2393  -14.5229   24.5076 C   0  0  1  0  0  0  0  0  0  0  0  0
    8.3378  -13.8360   23.7918 C   0  0  0  0  0  0  0  0  0  0  0  0
    8.3397  -13.6373   22.4227 O   0  0  0  0  0  0  0  0  0  0  0  0
    9.3160  -13.4161   24.4808 O   0  0  0  0  0  0  0  0  0  0  0  0
  2  1  1  6
  2  3  1  0
  4  2  1  0
  4  5  1  0
  5  6  1  1
  7  5  1  0
  7  8  2  0
 10 12  1  0
 10 11  1  1
 10  9  1  0
 12 13  1  6
 13  7  1  0
 14 12  1  0
 15 14  2  0
 16 14  1  0
 17 16  1  0
 18 17  1  0
 19 18  1  0
 19 20  1  0
 20 21  1  6
 20 16  1  0
 21 22  1  0
 23 21  2  0
M  END
$$$$
