LVP.pdb
     RDKit          3D

 23 23  0  0  1  0  0  0  0  0999 V2000
    9.8622  -13.3674   19.3276 C   0  0  0  0  0  0  0  0  0  0  0  0
    8.4341  -13.5413   18.7925 C   0  0  2  0  0  0  0  0  0  0  0  0
    8.0833  -12.2152   18.1577 C   0  0  0  0  0  0  0  0  0  0  0  0
    7.4868  -13.9686   19.8629 C   0  0  0  0  0  0  0  0  0  0  0  0
    7.9082  -15.2275   20.5392 C   0  0  2  0  0  0  0  0  0  0  0  0
    7.6605  -16.3502   19.6900 N   0  0  0  0  0  0  0  0  0  0  0  0
    7.3686  -15.3821   21.8993 C   0  0  0  0  0  0  0  0  0  0  0  0
    6.1424  -15.2393   22.1318 O   0  0  0  0  0  0  0  0  0  0  0  0
    6.8088  -18.1466   23.8206 C   0  0  0  0  0  0  0  0  0  0  0  0
    7.6150  -17.3025   24.8017 C   0  0  2  0  0  0  0  0  0  0  0  0
    6.9905  -17.4773   26.1643 C   0  0  0  0  0  0  0  0  0  0  0  0
    7.6389  -15.8480   24.3572 C   0  0  2  0  0  0  0  0  0  0  0  0
    8.1868  -15.7022   23.0504 N   0  0  0  0  0  0  0  0  0  0  0  0
    8.3483  -15.0713   25.3737 C   0  0  0  0  0  0  0  0  0  0  0  0
    9.5757  -15.4206   25.5568 O   0  0  0  0  0  0  0  0  0  0  0  0
    7.8809  -14.0194   26.1591 N   0  0  0  0  0  0  0  0  0  0  0  0
    6.5620  -13.4468   26.1901 C   0  0  0  0  0  0  0  0  0  0  0  0
    6.4454  -12.6655   27.4930 C   0  0  0  0  0  0  0  0  0  0  0  0
    7.8477  -12.2184   27.7282 C   0  0  0  0  0  0  0  0  0  0  0  0
    8.6960  -13.2944   27.1278 C   0  0  1  0  0  0  0  0  0  0  0  0
    9.1285  -14.2133   28.2046 C   0  0  0  0  0  0  0  0  0  0  0  0
   10.1344  -13.9045   29.1028 O   0  0  0  0  0  0  0  0  0  0  0  0
    8.5393  -15.3326   28.2940 O   0  0  0  0  0  0  0  0  0  0  0  0
  2  1  1  1
  2  3  1  0
  4  2  1  0
  4  5  1  0
  5  6  1  6
  7  5  1  0
  7  8  2  0
 10 12  1  0
 10 11  1  1
 10  9  1  0
 12 13  1  6
 13  7  1  0
 14 12  1  0
 15 14  2  0
 16 14  1  0
 17 16  1  0
 18 17  1  0
 19 18  1  0
 19 20  1  0
 20 21  1  1
 20 16  1  0
 21 22  1  0
 23 21  2  0
M  END
$$$$
