LVP.pdb
     RDKit          3D

 23 23  0  0  1  0  0  0  0  0999 V2000
    9.7184  -19.1948   27.6846 C   0  0  0  0  0  0  0  0  0  0  0  0
    9.0681  -20.0086   26.5573 C   0  0  2  0  0  0  0  0  0  0  0  0
   10.2122  -20.7132   25.8650 C   0  0  0  0  0  0  0  0  0  0  0  0
    8.2500  -19.1505   25.6517 C   0  0  0  0  0  0  0  0  0  0  0  0
    7.1741  -18.4120   26.3709 C   0  0  2  0  0  0  0  0  0  0  0  0
    6.0707  -19.2814   26.6343 N   0  0  0  0  0  0  0  0  0  0  0  0
    6.7907  -17.1445   25.7294 C   0  0  0  0  0  0  0  0  0  0  0  0
    5.9012  -17.1080   24.8431 O   0  0  0  0  0  0  0  0  0  0  0  0
    6.5196  -13.1711   27.0294 C   0  0  0  0  0  0  0  0  0  0  0  0
    7.5762  -13.4381   25.9630 C   0  0  2  0  0  0  0  0  0  0  0  0
    7.6058  -12.2379   25.0488 C   0  0  0  0  0  0  0  0  0  0  0  0
    7.2656  -14.7272   25.2177 C   0  0  2  0  0  0  0  0  0  0  0  0
    7.3932  -15.8697   26.0589 N   0  0  0  0  0  0  0  0  0  0  0  0
    8.1165  -14.7840   24.0291 C   0  0  0  0  0  0  0  0  0  0  0  0
    9.3136  -15.2105   24.2456 O   0  0  0  0  0  0  0  0  0  0  0  0
    7.8098  -14.4432   22.7132 N   0  0  0  0  0  0  0  0  0  0  0  0
    6.6248  -13.8017   22.2107 C   0  0  0  0  0  0  0  0  0  0  0  0
    6.9646  -13.2561   20.8293 C   0  0  0  0  0  0  0  0  0  0  0  0
    7.9849  -14.2265   20.3405 C   0  0  0  0  0  0  0  0  0  0  0  0
    8.6883  -14.6934   21.5756 C   0  0  1  0  0  0  0  0  0  0  0  0
    9.9397  -13.9182   21.7301 C   0  0  0  0  0  0  0  0  0  0  0  0
   11.0573  -14.1220   20.9406 O   0  0  0  0  0  0  0  0  0  0  0  0
    9.9725  -13.0293   22.6339 O   0  0  0  0  0  0  0  0  0  0  0  0
  2  1  1  1
  2  3  1  0
  4  2  1  0
  4  5  1  0
  5  6  1  6
  7  5  1  0
  7  8  2  0
 10 12  1  0
 10 11  1  6
 10  9  1  0
 12 13  1  1
 13  7  1  0
 14 12  1  0
 15 14  2  0
 16 14  1  0
 17 16  1  0
 18 17  1  0
 19 18  1  0
 19 20  1  0
 20 21  1  1
 20 16  1  0
 21 22  1  0
 23 21  2  0
M  END
$$$$
