LVP.pdb
     RDKit          3D

 23 23  0  0  1  0  0  0  0  0999 V2000
    9.6934  -20.2431   21.8315 C   0  0  0  0  0  0  0  0  0  0  0  0
    9.3905  -18.8514   21.2594 C   0  0  2  0  0  0  0  0  0  0  0  0
    9.9674  -18.8617   19.8624 C   0  0  0  0  0  0  0  0  0  0  0  0
    9.9280  -17.7635   22.1275 C   0  0  0  0  0  0  0  0  0  0  0  0
    9.3486  -16.4287   21.8072 C   0  0  2  0  0  0  0  0  0  0  0  0
    9.9679  -15.8903   20.6370 N   0  0  0  0  0  0  0  0  0  0  0  0
    9.3274  -15.4996   22.9480 C   0  0  0  0  0  0  0  0  0  0  0  0
   10.3005  -14.7420   23.1869 O   0  0  0  0  0  0  0  0  0  0  0  0
    6.4035  -13.0379   24.5755 C   0  0  0  0  0  0  0  0  0  0  0  0
    6.9113  -14.1341   25.5056 C   0  0  2  0  0  0  0  0  0  0  0  0
    6.9272  -13.5662   26.9036 C   0  0  0  0  0  0  0  0  0  0  0  0
    8.2836  -14.6161   25.0601 C   0  0  2  0  0  0  0  0  0  0  0  0
    8.2120  -15.3873   23.8645 N   0  0  0  0  0  0  0  0  0  0  0  0
    8.9008  -15.3323   26.1764 C   0  0  0  0  0  0  0  0  0  0  0  0
    8.6183  -16.5890   26.2300 O   0  0  0  0  0  0  0  0  0  0  0  0
    9.7412  -14.8440   27.1750 N   0  0  0  0  0  0  0  0  0  0  0  0
    9.9448  -13.4796   27.5815 C   0  0  0  0  0  0  0  0  0  0  0  0
   10.5837  -13.5168   28.9642 C   0  0  0  0  0  0  0  0  0  0  0  0
   11.3670  -14.7843   28.9243 C   0  0  0  0  0  0  0  0  0  0  0  0
   10.5914  -15.6823   28.0133 C   0  0  1  0  0  0  0  0  0  0  0  0
    9.7516  -16.5814   28.8362 C   0  0  0  0  0  0  0  0  0  0  0  0
    8.3751  -16.4676   28.9151 O   0  0  0  0  0  0  0  0  0  0  0  0
   10.3372  -17.4937   29.4941 O   0  0  0  0  0  0  0  0  0  0  0  0
  2  1  1  1
  2  3  1  0
  4  2  1  0
  4  5  1  0
  5  6  1  6
  7  5  1  0
  7  8  2  0
 10 12  1  0
 10 11  1  1
 10  9  1  0
 12 13  1  6
 13  7  1  0
 14 12  1  0
 15 14  2  0
 16 14  1  0
 17 16  1  0
 18 17  1  0
 19 18  1  0
 19 20  1  0
 20 21  1  1
 20 16  1  0
 21 22  1  0
 23 21  2  0
M  END
$$$$
