LVP.pdb
     RDKit          3D

 23 23  0  0  1  0  0  0  0  0999 V2000
    7.1934  -17.8934   20.5120 C   0  0  0  0  0  0  0  0  0  0  0  0
    8.7165  -17.7269   20.4196 C   0  0  2  0  0  0  0  0  0  0  0  0
    9.2720  -19.1325   20.4431 C   0  0  0  0  0  0  0  0  0  0  0  0
    9.2473  -16.8489   21.5027 C   0  0  0  0  0  0  0  0  0  0  0  0
    8.5423  -15.5387   21.5826 C   0  0  2  0  0  0  0  0  0  0  0  0
    8.7881  -14.7737   20.4005 N   0  0  0  0  0  0  0  0  0  0  0  0
    8.7962  -14.8010   22.8301 C   0  0  0  0  0  0  0  0  0  0  0  0
    9.7747  -14.0203   22.9355 O   0  0  0  0  0  0  0  0  0  0  0  0
    5.9982  -14.8602   26.0877 C   0  0  0  0  0  0  0  0  0  0  0  0
    7.0010  -13.7254   25.9109 C   0  0  2  0  0  0  0  0  0  0  0  0
    6.3130  -12.6354   25.1262 C   0  0  0  0  0  0  0  0  0  0  0  0
    8.2593  -14.2303   25.2211 C   0  0  2  0  0  0  0  0  0  0  0  0
    7.9605  -14.9133   24.0073 N   0  0  0  0  0  0  0  0  0  0  0  0
    9.0078  -15.0465   26.1769 C   0  0  0  0  0  0  0  0  0  0  0  0
    8.9457  -16.3163   25.9632 O   0  0  0  0  0  0  0  0  0  0  0  0
    9.7680  -14.6401   27.2718 N   0  0  0  0  0  0  0  0  0  0  0  0
    9.8368  -13.3366   27.8756 C   0  0  0  0  0  0  0  0  0  0  0  0
   10.4298  -13.5204   29.2670 C   0  0  0  0  0  0  0  0  0  0  0  0
   11.3227  -14.6999   29.0846 C   0  0  0  0  0  0  0  0  0  0  0  0
   10.6602  -15.5177   28.0215 C   0  0  1  0  0  0  0  0  0  0  0  0
    9.8758  -16.5924   28.6700 C   0  0  0  0  0  0  0  0  0  0  0  0
   10.4579  -17.6539   29.3399 O   0  0  0  0  0  0  0  0  0  0  0  0
    8.6117  -16.5222   28.5987 O   0  0  0  0  0  0  0  0  0  0  0  0
  2  1  1  1
  2  3  1  0
  4  2  1  0
  4  5  1  0
  5  6  1  6
  7  5  1  0
  7  8  2  0
 10 12  1  0
 10 11  1  6
 10  9  1  0
 12 13  1  6
 13  7  1  0
 14 12  1  0
 15 14  2  0
 16 14  1  0
 17 16  1  0
 18 17  1  0
 19 18  1  0
 19 20  1  0
 20 21  1  1
 20 16  1  0
 21 22  1  0
 23 21  2  0
M  END
$$$$
