LVP.pdb
     RDKit          3D

 23 23  0  0  1  0  0  0  0  0999 V2000
    9.5525  -19.4276   20.9346 C   0  0  0  0  0  0  0  0  0  0  0  0
   10.9779  -18.9774   21.2833 C   0  0  2  0  0  0  0  0  0  0  0  0
   11.7050  -20.2388   21.6892 C   0  0  0  0  0  0  0  0  0  0  0  0
   10.9855  -17.9125   22.3281 C   0  0  0  0  0  0  0  0  0  0  0  0
   10.2055  -16.7068   21.9305 C   0  0  2  0  0  0  0  0  0  0  0  0
   10.7971  -16.0931   20.7833 N   0  0  0  0  0  0  0  0  0  0  0  0
    9.9490  -15.7720   23.0375 C   0  0  0  0  0  0  0  0  0  0  0  0
   10.7731  -14.8703   23.3304 O   0  0  0  0  0  0  0  0  0  0  0  0
    6.5818  -13.7512   24.0756 C   0  0  0  0  0  0  0  0  0  0  0  0
    7.1087  -14.6254   25.2083 C   0  0  2  0  0  0  0  0  0  0  0  0
    6.8817  -13.8756   26.4981 C   0  0  0  0  0  0  0  0  0  0  0  0
    8.5752  -14.9607   24.9831 C   0  0  2  0  0  0  0  0  0  0  0  0
    8.7567  -15.8154   23.8580 N   0  0  0  0  0  0  0  0  0  0  0  0
    9.1130  -15.5151   26.2255 C   0  0  0  0  0  0  0  0  0  0  0  0
    8.9781  -16.7914   26.3467 O   0  0  0  0  0  0  0  0  0  0  0  0
    9.7425  -14.8567   27.2801 N   0  0  0  0  0  0  0  0  0  0  0  0
    9.6834  -13.4613   27.6231 C   0  0  0  0  0  0  0  0  0  0  0  0
   10.1502  -13.3371   29.0681 C   0  0  0  0  0  0  0  0  0  0  0  0
   11.1184  -14.4634   29.1930 C   0  0  0  0  0  0  0  0  0  0  0  0
   10.6051  -15.5118   28.2574 C   0  0  1  0  0  0  0  0  0  0  0  0
    9.8214  -16.4980   29.0346 C   0  0  0  0  0  0  0  0  0  0  0  0
    8.4476  -16.6235   28.9293 O   0  0  0  0  0  0  0  0  0  0  0  0
   10.4542  -17.2560   29.8302 O   0  0  0  0  0  0  0  0  0  0  0  0
  2  1  1  1
  2  3  1  0
  4  2  1  0
  4  5  1  0
  5  6  1  6
  7  5  1  0
  7  8  2  0
 10 12  1  0
 10 11  1  1
 10  9  1  0
 12 13  1  6
 13  7  1  0
 14 12  1  0
 15 14  2  0
 16 14  1  0
 17 16  1  0
 18 17  1  0
 19 18  1  0
 19 20  1  0
 20 21  1  1
 20 16  1  0
 21 22  1  0
 23 21  2  0
M  END
$$$$
