LSE.pdb
     RDKit          3D

 24 23  0  0  1  0  0  0  0  0999 V2000
   20.6856  -12.9334  -20.6355 C   0  0  0  0  0  0  0  0  0  0  0  0
   19.2682  -12.7804  -20.0845 C   0  0  2  0  0  0  0  0  0  0  0  0
   18.4462  -12.1575  -21.1830 C   0  0  0  0  0  0  0  0  0  0  0  0
   19.3543  -11.8725  -18.8888 C   0  0  0  0  0  0  0  0  0  0  0  0
   20.2169  -12.3935  -17.7803 C   0  0  2  0  0  0  0  0  0  0  0  0
   19.6426  -13.5900  -17.2373 N   0  0  0  0  0  0  0  0  0  0  0  0
   20.3280  -11.3388  -16.7374 C   0  0  0  0  0  0  0  0  0  0  0  0
   19.2723  -10.9503  -16.1453 O   0  0  0  0  0  0  0  0  0  0  0  0
   22.6822   -9.1114  -13.2865 O   0  0  0  0  0  0  0  0  0  0  0  0
   22.7723  -10.0069  -14.3515 C   0  0  0  0  0  0  0  0  0  0  0  0
   21.5743   -9.8004  -15.2615 C   0  0  2  0  0  0  0  0  0  0  0  0
   21.5462  -10.7250  -16.3494 N   0  0  0  0  0  0  0  0  0  0  0  0
   21.4790   -8.3856  -15.7030 C   0  0  0  0  0  0  0  0  0  0  0  0
   22.1827   -8.0450  -16.6822 O   0  0  0  0  0  0  0  0  0  0  0  0
   20.6383   -7.4576  -15.0576 N   0  0  0  0  0  0  0  0  0  0  0  0
   20.5057   -6.0550  -15.4900 C   0  0  1  0  0  0  0  0  0  0  0  0
   19.1304   -5.5950  -15.0890 C   0  0  0  0  0  0  0  0  0  0  0  0
   18.7705   -4.2079  -15.5209 C   0  0  0  0  0  0  0  0  0  0  0  0
   17.4120   -3.8082  -15.1537 C   0  0  0  0  0  0  0  0  0  0  0  0
   16.6619   -4.5771  -14.5394 O   0  0  0  0  0  0  0  0  0  0  0  0
   21.5523   -5.2620  -14.8060 C   0  0  0  0  0  0  0  0  0  0  0  0
   21.9800   -4.0756  -15.3703 O   0  0  0  0  0  0  0  0  0  0  0  0
   16.9047   -2.5434  -15.4803 O   0  0  0  0  0  0  0  0  0  0  0  0
   22.0574   -5.6342  -13.7374 O   0  0  0  0  0  0  0  0  0  0  0  0
  2  1  1  6
  3  2  1  0
  4  2  1  0
  5  6  1  1
  5  4  1  0
  7  5  1  0
  8  7  2  0
  9 10  1  0
 11 10  1  6
 11 13  1  0
 11 12  1  0
 12  7  1  0
 13 14  2  0
 15 16  1  0
 15 13  1  0
 16 17  1  1
 18 19  1  0
 18 17  1  0
 19 20  2  0
 21 22  1  0
 21 16  1  0
 23 19  1  0
 24 21  2  0
M  END
$$$$
