LSE.pdb
     RDKit          3D

 24 23  0  0  1  0  0  0  0  0999 V2000
   17.1225  -13.6210  -14.2376 C   0  0  0  0  0  0  0  0  0  0  0  0
   17.8720  -13.6034  -15.5695 C   0  0  2  0  0  0  0  0  0  0  0  0
   19.1124  -14.4364  -15.3744 C   0  0  0  0  0  0  0  0  0  0  0  0
   18.2204  -12.1701  -15.8618 C   0  0  0  0  0  0  0  0  0  0  0  0
   17.0350  -11.2730  -16.0463 C   0  0  2  0  0  0  0  0  0  0  0  0
   16.3439  -11.6208  -17.2537 N   0  0  0  0  0  0  0  0  0  0  0  0
   17.5150   -9.8661  -16.0974 C   0  0  0  0  0  0  0  0  0  0  0  0
   18.1924   -9.4870  -17.1040 O   0  0  0  0  0  0  0  0  0  0  0  0
   17.2215   -5.2643  -15.0698 O   0  0  0  0  0  0  0  0  0  0  0  0
   16.7798   -6.5315  -14.6916 C   0  0  0  0  0  0  0  0  0  0  0  0
   17.7517   -7.5654  -15.2320 C   0  0  2  0  0  0  0  0  0  0  0  0
   17.2679   -8.9012  -15.0879 N   0  0  0  0  0  0  0  0  0  0  0  0
   19.1063   -7.3759  -14.6533 C   0  0  0  0  0  0  0  0  0  0  0  0
   19.3189   -7.8748  -13.5237 O   0  0  0  0  0  0  0  0  0  0  0  0
   20.1164   -6.6684  -15.3344 N   0  0  0  0  0  0  0  0  0  0  0  0
   21.5101   -6.5990  -14.8603 C   0  0  1  0  0  0  0  0  0  0  0  0
   22.3930   -6.5848  -16.0785 C   0  0  0  0  0  0  0  0  0  0  0  0
   23.8621   -6.5135  -15.8009 C   0  0  0  0  0  0  0  0  0  0  0  0
   24.6948   -6.5849  -17.0016 C   0  0  0  0  0  0  0  0  0  0  0  0
   25.9166   -6.3976  -16.9459 O   0  0  0  0  0  0  0  0  0  0  0  0
   21.6672   -5.3539  -14.0749 C   0  0  0  0  0  0  0  0  0  0  0  0
   22.6015   -5.3081  -13.0580 O   0  0  0  0  0  0  0  0  0  0  0  0
   24.1467   -6.8673  -18.2600 O   0  0  0  0  0  0  0  0  0  0  0  0
   20.9814   -4.3477  -14.3049 O   0  0  0  0  0  0  0  0  0  0  0  0
  2  1  1  1
  3  2  1  0
  4  2  1  0
  5  6  1  6
  5  4  1  0
  7  5  1  0
  8  7  2  0
  9 10  1  0
 11 10  1  1
 11 13  1  0
 11 12  1  0
 12  7  1  0
 13 14  2  0
 15 16  1  0
 15 13  1  0
 16 17  1  6
 18 19  1  0
 18 17  1  0
 19 20  2  0
 21 22  1  0
 21 16  1  0
 23 19  1  0
 24 21  2  0
M  END
$$$$
