LSE.pdb
     RDKit          3D

 24 23  0  0  1  0  0  0  0  0999 V2000
   11.6550  -22.8500    0.0730 C   0  0  0  0  0  0  0  0  0  0  0  0
   12.8450  -23.7387   -0.2880 C   0  0  2  0  0  0  0  0  0  0  0  0
   12.4076  -25.1601   -0.0454 C   0  0  0  0  0  0  0  0  0  0  0  0
   13.9764  -23.3550    0.6253 C   0  0  0  0  0  0  0  0  0  0  0  0
   14.4889  -21.9624    0.4199 C   0  0  2  0  0  0  0  0  0  0  0  0
   15.0920  -21.8513   -0.8764 N   0  0  0  0  0  0  0  0  0  0  0  0
   15.4767  -21.6636    1.4910 C   0  0  0  0  0  0  0  0  0  0  0  0
   16.5559  -22.3341    1.5323 O   0  0  0  0  0  0  0  0  0  0  0  0
   15.2850  -18.4673    4.3128 O   0  0  0  0  0  0  0  0  0  0  0  0
   16.4704  -18.9069    3.7247 C   0  0  0  0  0  0  0  0  0  0  0  0
   16.3409  -20.3892    3.4216 C   0  0  2  0  0  0  0  0  0  0  0  0
   15.2990  -20.6686    2.4859 N   0  0  0  0  0  0  0  0  0  0  0  0
   16.2209  -21.1797    4.6732 C   0  0  0  0  0  0  0  0  0  0  0  0
   15.0785  -21.5942    4.9787 O   0  0  0  0  0  0  0  0  0  0  0  0
   17.3347  -21.4581    5.4896 N   0  0  0  0  0  0  0  0  0  0  0  0
   17.2310  -22.1628    6.7797 C   0  0  1  0  0  0  0  0  0  0  0  0
   18.3044  -23.2170    6.7972 C   0  0  0  0  0  0  0  0  0  0  0  0
   17.9179  -24.5310    6.1936 C   0  0  0  0  0  0  0  0  0  0  0  0
   18.9444  -25.5654    6.3224 C   0  0  0  0  0  0  0  0  0  0  0  0
   20.0596  -25.3063    6.7917 O   0  0  0  0  0  0  0  0  0  0  0  0
   17.4388  -21.1740    7.8619 C   0  0  0  0  0  0  0  0  0  0  0  0
   18.0113  -19.9527    7.5624 O   0  0  0  0  0  0  0  0  0  0  0  0
   18.7094  -26.8875    5.9218 O   0  0  0  0  0  0  0  0  0  0  0  0
   17.1124  -21.4122    9.0334 O   0  0  0  0  0  0  0  0  0  0  0  0
  2  1  1  1
  3  2  1  0
  4  2  1  0
  5  6  1  6
  5  4  1  0
  7  5  1  0
  8  7  2  0
  9 10  1  0
 11 10  1  1
 11 13  1  0
 11 12  1  0
 12  7  1  0
 13 14  2  0
 15 16  1  0
 15 13  1  0
 16 17  1  6
 18 19  1  0
 18 17  1  0
 19 20  2  0
 21 22  1  0
 21 16  1  0
 23 19  1  0
 24 21  2  0
M  END
$$$$
