LSE.pdb
     RDKit          3D

 24 23  0  0  1  0  0  0  0  0999 V2000
   29.7753  -22.2357  -11.8452 C   0  0  0  0  0  0  0  0  0  0  0  0
   29.6586  -20.7309  -12.0863 C   0  0  2  0  0  0  0  0  0  0  0  0
   30.3173  -20.0562  -10.9110 C   0  0  0  0  0  0  0  0  0  0  0  0
   28.1917  -20.4056  -12.1475 C   0  0  0  0  0  0  0  0  0  0  0  0
   27.4856  -20.9661  -13.3439 C   0  0  2  0  0  0  0  0  0  0  0  0
   28.3327  -20.8737  -14.4973 N   0  0  0  0  0  0  0  0  0  0  0  0
   26.2276  -20.1991  -13.5480 C   0  0  0  0  0  0  0  0  0  0  0  0
   25.3976  -20.1188  -12.5885 O   0  0  0  0  0  0  0  0  0  0  0  0
   25.2452  -18.5061  -17.1420 O   0  0  0  0  0  0  0  0  0  0  0  0
   24.5305  -17.9728  -16.0701 C   0  0  0  0  0  0  0  0  0  0  0  0
   24.5889  -18.9534  -14.9122 C   0  0  2  0  0  0  0  0  0  0  0  0
   25.8813  -19.5401  -14.7551 N   0  0  0  0  0  0  0  0  0  0  0  0
   23.5046  -19.9630  -15.0147 C   0  0  0  0  0  0  0  0  0  0  0  0
   23.8329  -21.1187  -15.3708 O   0  0  0  0  0  0  0  0  0  0  0  0
   22.1620  -19.6479  -14.7270 N   0  0  0  0  0  0  0  0  0  0  0  0
   21.0682  -20.6319  -14.8119 C   0  0  1  0  0  0  0  0  0  0  0  0
   19.8353  -19.9742  -14.2541 C   0  0  0  0  0  0  0  0  0  0  0  0
   18.6024  -20.8230  -14.2574 C   0  0  0  0  0  0  0  0  0  0  0  0
   17.3911  -20.1077  -13.8560 C   0  0  0  0  0  0  0  0  0  0  0  0
   16.2884  -20.6690  -13.8486 O   0  0  0  0  0  0  0  0  0  0  0  0
   20.8816  -20.9905  -16.2362 C   0  0  0  0  0  0  0  0  0  0  0  0
   21.0286  -20.0160  -17.2046 O   0  0  0  0  0  0  0  0  0  0  0  0
   17.4279  -18.7627  -13.4644 O   0  0  0  0  0  0  0  0  0  0  0  0
   20.5962  -22.1447  -16.5853 O   0  0  0  0  0  0  0  0  0  0  0  0
  2  1  1  1
  3  2  1  0
  4  2  1  0
  5  6  1  6
  5  4  1  0
  7  5  1  0
  8  7  2  0
  9 10  1  0
 11 10  1  6
 11 13  1  0
 11 12  1  0
 12  7  1  0
 13 14  2  0
 15 16  1  0
 15 13  1  0
 16 17  1  6
 18 19  1  0
 18 17  1  0
 19 20  2  0
 21 22  1  0
 21 16  1  0
 23 19  1  0
 24 21  2  0
M  END
$$$$
