LSE.pdb
     RDKit          3D

 24 23  0  0  1  0  0  0  0  0999 V2000
   15.0597  -14.1548  -16.5534 C   0  0  0  0  0  0  0  0  0  0  0  0
   15.8982  -14.3507  -15.2906 C   0  0  2  0  0  0  0  0  0  0  0  0
   14.9567  -14.2021  -14.1236 C   0  0  0  0  0  0  0  0  0  0  0  0
   16.9461  -13.2721  -15.2841 C   0  0  0  0  0  0  0  0  0  0  0  0
   17.9426  -13.3744  -16.3979 C   0  0  2  0  0  0  0  0  0  0  0  0
   18.8539  -14.4509  -16.1392 N   0  0  0  0  0  0  0  0  0  0  0  0
   18.6676  -12.0795  -16.4988 C   0  0  0  0  0  0  0  0  0  0  0  0
   19.6113  -11.8414  -15.6810 O   0  0  0  0  0  0  0  0  0  0  0  0
   17.7557   -8.8669  -19.1184 O   0  0  0  0  0  0  0  0  0  0  0  0
   19.0863   -9.2105  -18.8826 C   0  0  0  0  0  0  0  0  0  0  0  0
   19.1782   -9.8945  -17.5300 C   0  0  2  0  0  0  0  0  0  0  0  0
   18.3775  -11.0747  -17.4567 N   0  0  0  0  0  0  0  0  0  0  0  0
   18.8984   -8.9372  -16.4296 C   0  0  0  0  0  0  0  0  0  0  0  0
   17.7707   -9.0050  -15.8875 O   0  0  0  0  0  0  0  0  0  0  0  0
   19.8506   -7.9899  -16.0046 N   0  0  0  0  0  0  0  0  0  0  0  0
   19.5678   -6.9677  -14.9814 C   0  0  1  0  0  0  0  0  0  0  0  0
   20.8830   -6.3417  -14.6042 C   0  0  0  0  0  0  0  0  0  0  0  0
   20.7917   -5.1896  -13.6530 C   0  0  0  0  0  0  0  0  0  0  0  0
   22.0910   -4.6571  -13.2430 C   0  0  0  0  0  0  0  0  0  0  0  0
   22.3710   -3.4617  -13.3970 O   0  0  0  0  0  0  0  0  0  0  0  0
   18.6520   -5.9659  -15.5728 C   0  0  0  0  0  0  0  0  0  0  0  0
   18.7345   -5.6872  -16.9235 O   0  0  0  0  0  0  0  0  0  0  0  0
   23.0694   -5.4742  -12.6609 O   0  0  0  0  0  0  0  0  0  0  0  0
   17.8104   -5.3680  -14.8873 O   0  0  0  0  0  0  0  0  0  0  0  0
  2  1  1  6
  3  2  1  0
  4  2  1  0
  5  6  1  1
  5  4  1  0
  7  5  1  0
  8  7  2  0
  9 10  1  0
 11 10  1  6
 11 13  1  0
 11 12  1  0
 12  7  1  0
 13 14  2  0
 15 16  1  0
 15 13  1  0
 16 17  1  6
 18 19  1  0
 18 17  1  0
 19 20  2  0
 21 22  1  0
 21 16  1  0
 23 19  1  0
 24 21  2  0
M  END
$$$$
