LSE.pdb
     RDKit          3D

 24 23  0  0  1  0  0  0  0  0999 V2000
   25.0682  -16.5283  -15.8223 C   0  0  0  0  0  0  0  0  0  0  0  0
   26.0358  -15.3574  -15.9918 C   0  0  2  0  0  0  0  0  0  0  0  0
   26.8232  -15.2632  -14.7106 C   0  0  0  0  0  0  0  0  0  0  0  0
   25.2035  -14.1242  -16.2101 C   0  0  0  0  0  0  0  0  0  0  0  0
   24.3216  -14.1820  -17.4197 C   0  0  2  0  0  0  0  0  0  0  0  0
   25.1216  -14.3457  -18.5985 N   0  0  0  0  0  0  0  0  0  0  0  0
   23.5329  -12.9226  -17.4856 C   0  0  0  0  0  0  0  0  0  0  0  0
   24.1364  -11.8361  -17.7524 O   0  0  0  0  0  0  0  0  0  0  0  0
   19.3456  -12.5562  -16.8982 O   0  0  0  0  0  0  0  0  0  0  0  0
   20.0057  -11.7707  -17.8423 C   0  0  0  0  0  0  0  0  0  0  0  0
   21.4499  -11.5986  -17.4058 C   0  0  2  0  0  0  0  0  0  0  0  0
   22.1336  -12.8448  -17.2685 N   0  0  0  0  0  0  0  0  0  0  0  0
   21.5406  -10.7527  -16.1885 C   0  0  0  0  0  0  0  0  0  0  0  0
   21.6306  -11.3447  -15.0878 O   0  0  0  0  0  0  0  0  0  0  0  0
   21.5270   -9.3456  -16.2550 N   0  0  0  0  0  0  0  0  0  0  0  0
   21.5552   -8.4829  -15.0605 C   0  0  1  0  0  0  0  0  0  0  0  0
   22.0172   -7.1222  -15.5065 C   0  0  0  0  0  0  0  0  0  0  0  0
   22.0639   -6.0807  -14.4326 C   0  0  0  0  0  0  0  0  0  0  0  0
   22.5043   -4.7670  -14.9019 C   0  0  0  0  0  0  0  0  0  0  0  0
   22.2595   -3.7406  -14.2556 O   0  0  0  0  0  0  0  0  0  0  0  0
   20.1846   -8.4233  -14.5038 C   0  0  0  0  0  0  0  0  0  0  0  0
   20.0126   -8.2140  -13.1489 O   0  0  0  0  0  0  0  0  0  0  0  0
   23.2190   -4.6157  -16.0977 O   0  0  0  0  0  0  0  0  0  0  0  0
   19.1835   -8.5566  -15.2219 O   0  0  0  0  0  0  0  0  0  0  0  0
  2  1  1  1
  3  2  1  0
  4  2  1  0
  5  6  1  6
  5  4  1  0
  7  5  1  0
  8  7  2  0
  9 10  1  0
 11 10  1  1
 11 13  1  0
 11 12  1  0
 12  7  1  0
 13 14  2  0
 15 16  1  0
 15 13  1  0
 16 17  1  6
 18 19  1  0
 18 17  1  0
 19 20  2  0
 21 22  1  0
 21 16  1  0
 23 19  1  0
 24 21  2  0
M  END
$$$$
