LSE.pdb
     RDKit          3D

 24 23  0  0  1  0  0  0  0  0999 V2000
   25.5661  -13.4440  -15.4759 C   0  0  0  0  0  0  0  0  0  0  0  0
   24.1591  -13.7414  -15.9938 C   0  0  2  0  0  0  0  0  0  0  0  0
   24.3272  -14.3844  -17.3461 C   0  0  0  0  0  0  0  0  0  0  0  0
   23.4411  -12.4247  -16.1036 C   0  0  0  0  0  0  0  0  0  0  0  0
   21.9609  -12.5445  -16.3005 C   0  0  2  0  0  0  0  0  0  0  0  0
   21.6864  -13.1895  -17.5516 N   0  0  0  0  0  0  0  0  0  0  0  0
   21.3715  -11.1792  -16.2680 C   0  0  0  0  0  0  0  0  0  0  0  0
   21.4422  -10.4574  -17.3120 O   0  0  0  0  0  0  0  0  0  0  0  0
   18.9861   -9.6870  -13.1819 O   0  0  0  0  0  0  0  0  0  0  0  0
   18.8069   -9.2346  -14.4886 C   0  0  0  0  0  0  0  0  0  0  0  0
   20.1368   -9.3167  -15.2170 C   0  0  2  0  0  0  0  0  0  0  0  0
   20.7260  -10.6151  -15.1382 N   0  0  0  0  0  0  0  0  0  0  0  0
   21.0549   -8.2376  -14.7717 C   0  0  0  0  0  0  0  0  0  0  0  0
   21.9766   -8.5607  -13.9867 O   0  0  0  0  0  0  0  0  0  0  0  0
   20.9066   -6.9055  -15.2054 N   0  0  0  0  0  0  0  0  0  0  0  0
   21.7749   -5.8075  -14.7447 C   0  0  1  0  0  0  0  0  0  0  0  0
   21.3080   -4.5538  -15.4331 C   0  0  0  0  0  0  0  0  0  0  0  0
   22.0460   -3.3070  -15.0573 C   0  0  0  0  0  0  0  0  0  0  0  0
   21.5599   -2.1052  -15.7351 C   0  0  0  0  0  0  0  0  0  0  0  0
   20.6688   -2.1688  -16.5914 O   0  0  0  0  0  0  0  0  0  0  0  0
   21.6311   -5.6929  -13.2757 C   0  0  0  0  0  0  0  0  0  0  0  0
   20.5342   -6.2607  -12.6563 O   0  0  0  0  0  0  0  0  0  0  0  0
   22.0799   -0.8368  -15.4448 O   0  0  0  0  0  0  0  0  0  0  0  0
   22.4703   -5.0995  -12.5833 O   0  0  0  0  0  0  0  0  0  0  0  0
  2  1  1  6
  3  2  1  0
  4  2  1  0
  5  6  1  6
  5  4  1  0
  7  5  1  0
  8  7  2  0
  9 10  1  0
 11 10  1  1
 11 13  1  0
 11 12  1  0
 12  7  1  0
 13 14  2  0
 15 16  1  0
 15 13  1  0
 16 17  1  6
 18 19  1  0
 18 17  1  0
 19 20  2  0
 21 22  1  0
 21 16  1  0
 23 19  1  0
 24 21  2  0
M  END
$$$$
