LSE.pdb
     RDKit          3D

 24 23  0  0  1  0  0  0  0  0999 V2000
   24.9659  -11.0038  -14.3268 C   0  0  0  0  0  0  0  0  0  0  0  0
   25.5026  -10.4193  -15.6332 C   0  0  2  0  0  0  0  0  0  0  0  0
   26.7585   -9.6647  -15.2811 C   0  0  0  0  0  0  0  0  0  0  0  0
   24.4457   -9.4945  -16.1707 C   0  0  0  0  0  0  0  0  0  0  0  0
   23.1522  -10.1689  -16.5116 C   0  0  2  0  0  0  0  0  0  0  0  0
   23.3424  -11.0540  -17.6238 N   0  0  0  0  0  0  0  0  0  0  0  0
   22.1477   -9.1206  -16.8349 C   0  0  0  0  0  0  0  0  0  0  0  0
   22.3486   -8.3706  -17.8415 O   0  0  0  0  0  0  0  0  0  0  0  0
   18.4663   -8.6967  -14.9197 O   0  0  0  0  0  0  0  0  0  0  0  0
   18.5913   -8.2927  -16.2484 C   0  0  0  0  0  0  0  0  0  0  0  0
   20.0336   -7.8894  -16.4992 C   0  0  2  0  0  0  0  0  0  0  0  0
   20.9630   -8.8933  -16.0894 N   0  0  0  0  0  0  0  0  0  0  0  0
   20.3240   -6.5578  -15.9092 C   0  0  0  0  0  0  0  0  0  0  0  0
   20.9593   -6.5386  -14.8293 O   0  0  0  0  0  0  0  0  0  0  0  0
   19.9089   -5.3615  -16.5266 N   0  0  0  0  0  0  0  0  0  0  0  0
   20.2071   -4.0267  -15.9776 C   0  0  1  0  0  0  0  0  0  0  0  0
   21.0548   -3.3088  -16.9924 C   0  0  0  0  0  0  0  0  0  0  0  0
   21.3324   -1.8698  -16.6882 C   0  0  0  0  0  0  0  0  0  0  0  0
   22.0676   -1.1736  -17.7441 C   0  0  0  0  0  0  0  0  0  0  0  0
   22.4407   -1.7675  -18.7635 O   0  0  0  0  0  0  0  0  0  0  0  0
   18.9236   -3.3210  -15.7618 C   0  0  0  0  0  0  0  0  0  0  0  0
   17.7951   -3.7465  -16.4360 O   0  0  0  0  0  0  0  0  0  0  0  0
   22.3789    0.1892  -17.6466 O   0  0  0  0  0  0  0  0  0  0  0  0
   18.8329   -2.3555  -14.9903 O   0  0  0  0  0  0  0  0  0  0  0  0
  2  1  1  1
  3  2  1  0
  4  2  1  0
  5  6  1  6
  5  4  1  0
  7  5  1  0
  8  7  2  0
  9 10  1  0
 11 10  1  1
 11 13  1  0
 11 12  1  0
 12  7  1  0
 13 14  2  0
 15 16  1  0
 15 13  1  0
 16 17  1  6
 18 19  1  0
 18 17  1  0
 19 20  2  0
 21 22  1  0
 21 16  1  0
 23 19  1  0
 24 21  2  0
M  END
$$$$
