LSE.pdb
     RDKit          3D

 24 23  0  0  1  0  0  0  0  0999 V2000
   28.1783  -17.5944  -16.9056 C   0  0  0  0  0  0  0  0  0  0  0  0
   28.0477  -18.9993  -17.4932 C   0  0  2  0  0  0  0  0  0  0  0  0
   27.6509  -18.8251  -18.9363 C   0  0  0  0  0  0  0  0  0  0  0  0
   26.9719  -19.7055  -16.7152 C   0  0  0  0  0  0  0  0  0  0  0  0
   27.2366  -19.7998  -15.2437 C   0  0  2  0  0  0  0  0  0  0  0  0
   28.4438  -20.5383  -15.0121 N   0  0  0  0  0  0  0  0  0  0  0  0
   26.0745  -20.4692  -14.6003 C   0  0  0  0  0  0  0  0  0  0  0  0
   24.9490  -20.4422  -15.1907 O   0  0  0  0  0  0  0  0  0  0  0  0
   25.7992  -21.6518  -10.6460 O   0  0  0  0  0  0  0  0  0  0  0  0
   25.2685  -22.5673  -11.5539 C   0  0  0  0  0  0  0  0  0  0  0  0
   24.9903  -21.8477  -12.8618 C   0  0  2  0  0  0  0  0  0  0  0  0
   26.1320  -21.1462  -13.3555 N   0  0  0  0  0  0  0  0  0  0  0  0
   23.7865  -20.9853  -12.7490 C   0  0  0  0  0  0  0  0  0  0  0  0
   23.9504  -19.8356  -12.2783 O   0  0  0  0  0  0  0  0  0  0  0  0
   22.5108  -21.4286  -13.1498 N   0  0  0  0  0  0  0  0  0  0  0  0
   21.2966  -20.6022  -13.0289 C   0  0  1  0  0  0  0  0  0  0  0  0
   21.0430  -19.9860  -14.3779 C   0  0  0  0  0  0  0  0  0  0  0  0
   19.8237  -19.1223  -14.4657 C   0  0  0  0  0  0  0  0  0  0  0  0
   19.6109  -18.5327  -15.7875 C   0  0  0  0  0  0  0  0  0  0  0  0
   20.3859  -18.7632  -16.7242 O   0  0  0  0  0  0  0  0  0  0  0  0
   20.1775  -21.4848  -12.6284 C   0  0  0  0  0  0  0  0  0  0  0  0
   19.1220  -20.9563  -11.9102 O   0  0  0  0  0  0  0  0  0  0  0  0
   18.5253  -17.6859  -16.0480 O   0  0  0  0  0  0  0  0  0  0  0  0
   20.1610  -22.6890  -12.9203 O   0  0  0  0  0  0  0  0  0  0  0  0
  2  1  1  1
  3  2  1  0
  4  2  1  0
  5  6  1  6
  5  4  1  0
  7  5  1  0
  8  7  2  0
  9 10  1  0
 11 10  1  1
 11 13  1  0
 11 12  1  0
 12  7  1  0
 13 14  2  0
 15 16  1  0
 15 13  1  0
 16 17  1  6
 18 19  1  0
 18 17  1  0
 19 20  2  0
 21 22  1  0
 21 16  1  0
 23 19  1  0
 24 21  2  0
M  END
$$$$
