LSE.pdb
     RDKit          3D

 24 23  0  0  1  0  0  0  0  0999 V2000
   15.8218  -12.6882  -19.5166 C   0  0  0  0  0  0  0  0  0  0  0  0
   15.0831  -12.6008  -18.1815 C   0  0  2  0  0  0  0  0  0  0  0  0
   13.8604  -11.7538  -18.4228 C   0  0  0  0  0  0  0  0  0  0  0  0
   16.0156  -11.9423  -17.2027 C   0  0  0  0  0  0  0  0  0  0  0  0
   17.3098  -12.6690  -17.0000 C   0  0  2  0  0  0  0  0  0  0  0  0
   17.0857  -13.8578  -16.2299 N   0  0  0  0  0  0  0  0  0  0  0  0
   18.2557  -11.7569  -16.3030 C   0  0  0  0  0  0  0  0  0  0  0  0
   17.9969  -11.4028  -15.1098 O   0  0  0  0  0  0  0  0  0  0  0  0
   22.1542  -11.3819  -17.2316 O   0  0  0  0  0  0  0  0  0  0  0  0
   21.7063  -10.9680  -15.9778 C   0  0  0  0  0  0  0  0  0  0  0  0
   20.3080  -10.3950  -16.1269 C   0  0  2  0  0  0  0  0  0  0  0  0
   19.4446  -11.2452  -16.8825 N   0  0  0  0  0  0  0  0  0  0  0  0
   20.3552   -9.0063  -16.6515 C   0  0  0  0  0  0  0  0  0  0  0  0
   20.0934   -8.8462  -17.8663 O   0  0  0  0  0  0  0  0  0  0  0  0
   20.6789   -7.9088  -15.8296 N   0  0  0  0  0  0  0  0  0  0  0  0
   20.8077   -6.5320  -16.3391 C   0  0  1  0  0  0  0  0  0  0  0  0
   20.9692   -5.6304  -15.1454 C   0  0  0  0  0  0  0  0  0  0  0  0
   22.1623   -5.9151  -14.2876 C   0  0  0  0  0  0  0  0  0  0  0  0
   22.1782   -5.1679  -13.0301 C   0  0  0  0  0  0  0  0  0  0  0  0
   21.6637   -4.0457  -12.9452 O   0  0  0  0  0  0  0  0  0  0  0  0
   22.0007   -6.4751  -17.2139 C   0  0  0  0  0  0  0  0  0  0  0  0
   22.1073   -5.4633  -18.1488 O   0  0  0  0  0  0  0  0  0  0  0  0
   22.7737   -5.6887  -11.8735 O   0  0  0  0  0  0  0  0  0  0  0  0
   22.9100   -7.3130  -17.1309 O   0  0  0  0  0  0  0  0  0  0  0  0
  2  1  1  6
  3  2  1  0
  4  2  1  0
  5  6  1  1
  5  4  1  0
  7  5  1  0
  8  7  2  0
  9 10  1  0
 11 10  1  6
 11 13  1  0
 11 12  1  0
 12  7  1  0
 13 14  2  0
 15 16  1  0
 15 13  1  0
 16 17  1  1
 18 19  1  0
 18 17  1  0
 19 20  2  0
 21 22  1  0
 21 16  1  0
 23 19  1  0
 24 21  2  0
M  END
$$$$
