LSE.pdb
     RDKit          3D

 24 23  0  0  1  0  0  0  0  0999 V2000
   26.6811  -13.9408  -15.3950 C   0  0  0  0  0  0  0  0  0  0  0  0
   27.0625  -12.9183  -16.4650 C   0  0  2  0  0  0  0  0  0  0  0  0
   28.4219  -12.3892  -16.0871 C   0  0  0  0  0  0  0  0  0  0  0  0
   26.0257  -11.8298  -16.4259 C   0  0  0  0  0  0  0  0  0  0  0  0
   24.6605  -12.2632  -16.8647 C   0  0  2  0  0  0  0  0  0  0  0  0
   24.7245  -12.8074  -18.1900 N   0  0  0  0  0  0  0  0  0  0  0  0
   23.7569  -11.0825  -16.8202 C   0  0  0  0  0  0  0  0  0  0  0  0
   24.0061  -10.0925  -17.5776 O   0  0  0  0  0  0  0  0  0  0  0  0
   20.3416  -10.7385  -14.3935 O   0  0  0  0  0  0  0  0  0  0  0  0
   20.3114  -10.2067  -15.6821 C   0  0  0  0  0  0  0  0  0  0  0  0
   21.7312   -9.8674  -16.1002 C   0  0  2  0  0  0  0  0  0  0  0  0
   22.6189  -10.9795  -15.9801 N   0  0  0  0  0  0  0  0  0  0  0  0
   22.2204   -8.6582  -15.3902 C   0  0  0  0  0  0  0  0  0  0  0  0
   22.9760   -8.8404  -14.4073 O   0  0  0  0  0  0  0  0  0  0  0  0
   21.8582   -7.3580  -15.7941 N   0  0  0  0  0  0  0  0  0  0  0  0
   22.3686   -6.1403  -15.1395 C   0  0  1  0  0  0  0  0  0  0  0  0
   21.8912   -4.9669  -15.9512 C   0  0  0  0  0  0  0  0  0  0  0  0
   22.3208   -3.6249  -15.4464 C   0  0  0  0  0  0  0  0  0  0  0  0
   21.8159   -2.5050  -16.2408 C   0  0  0  0  0  0  0  0  0  0  0  0
   21.1431   -2.6957  -17.2616 O   0  0  0  0  0  0  0  0  0  0  0  0
   21.8219   -6.0937  -13.7645 C   0  0  0  0  0  0  0  0  0  0  0  0
   22.5103   -5.4038  -12.7850 O   0  0  0  0  0  0  0  0  0  0  0  0
   22.0713   -1.1750  -15.8811 O   0  0  0  0  0  0  0  0  0  0  0  0
   20.7599   -6.6584  -13.4662 O   0  0  0  0  0  0  0  0  0  0  0  0
  2  1  1  1
  3  2  1  0
  4  2  1  0
  5  6  1  6
  5  4  1  0
  7  5  1  0
  8  7  2  0
  9 10  1  0
 11 10  1  1
 11 13  1  0
 11 12  1  0
 12  7  1  0
 13 14  2  0
 15 16  1  0
 15 13  1  0
 16 17  1  6
 18 19  1  0
 18 17  1  0
 19 20  2  0
 21 22  1  0
 21 16  1  0
 23 19  1  0
 24 21  2  0
M  END
$$$$
