LSE.pdb
     RDKit          3D

 24 23  0  0  1  0  0  0  0  0999 V2000
   16.4442  -11.0731  -17.8360 C   0  0  0  0  0  0  0  0  0  0  0  0
   15.7230  -10.6633  -16.5523 C   0  0  2  0  0  0  0  0  0  0  0  0
   14.4498   -9.9779  -16.9761 C   0  0  0  0  0  0  0  0  0  0  0  0
   16.6315   -9.7164  -15.8179 C   0  0  0  0  0  0  0  0  0  0  0  0
   17.9334  -10.3201  -15.3882 C   0  0  2  0  0  0  0  0  0  0  0  0
   17.7055  -11.2798  -14.3473 N   0  0  0  0  0  0  0  0  0  0  0  0
   18.8237   -9.2266  -14.9147 C   0  0  0  0  0  0  0  0  0  0  0  0
   18.4433   -8.5078  -13.9376 O   0  0  0  0  0  0  0  0  0  0  0  0
   22.7063   -8.5347  -16.2700 O   0  0  0  0  0  0  0  0  0  0  0  0
   22.3324   -8.0584  -15.0140 C   0  0  0  0  0  0  0  0  0  0  0  0
   20.8362   -7.7993  -15.0192 C   0  0  2  0  0  0  0  0  0  0  0  0
   20.0867   -8.9227  -15.4836 N   0  0  0  0  0  0  0  0  0  0  0  0
   20.5154   -6.5479  -15.7518 C   0  0  0  0  0  0  0  0  0  0  0  0
   20.0447   -6.6678  -16.9069 O   0  0  0  0  0  0  0  0  0  0  0  0
   20.7264   -5.2760  -15.1842 N   0  0  0  0  0  0  0  0  0  0  0  0
   20.5021   -4.0189  -15.9199 C   0  0  1  0  0  0  0  0  0  0  0  0
   20.5340   -2.9027  -14.9114 C   0  0  0  0  0  0  0  0  0  0  0  0
   20.3957   -1.5251  -15.4800 C   0  0  0  0  0  0  0  0  0  0  0  0
   20.5306   -0.4594  -14.4869 C   0  0  0  0  0  0  0  0  0  0  0  0
   20.7806   -0.7155  -13.3024 O   0  0  0  0  0  0  0  0  0  0  0  0
   21.5881   -3.8681  -16.9148 C   0  0  0  0  0  0  0  0  0  0  0  0
   21.3343   -3.2025  -18.0986 O   0  0  0  0  0  0  0  0  0  0  0  0
   20.3832    0.8904  -14.8332 O   0  0  0  0  0  0  0  0  0  0  0  0
   22.7228   -4.3242  -16.7145 O   0  0  0  0  0  0  0  0  0  0  0  0
  2  1  1  6
  3  2  1  0
  4  2  1  0
  5  6  1  1
  5  4  1  0
  7  5  1  0
  8  7  2  0
  9 10  1  0
 11 10  1  6
 11 13  1  0
 11 12  1  0
 12  7  1  0
 13 14  2  0
 15 16  1  0
 15 13  1  0
 16 17  1  1
 18 19  1  0
 18 17  1  0
 19 20  2  0
 21 22  1  0
 21 16  1  0
 23 19  1  0
 24 21  2  0
M  END
$$$$
