LSE.pdb
     RDKit          3D

 24 23  0  0  1  0  0  0  0  0999 V2000
   16.8208   -9.8739  -19.6166 C   0  0  0  0  0  0  0  0  0  0  0  0
   17.6224  -10.9691  -18.9137 C   0  0  2  0  0  0  0  0  0  0  0  0
   16.6906  -12.1412  -18.7454 C   0  0  0  0  0  0  0  0  0  0  0  0
   18.0489  -10.4183  -17.5810 C   0  0  0  0  0  0  0  0  0  0  0  0
   19.0233  -11.2822  -16.8404 C   0  0  2  0  0  0  0  0  0  0  0  0
   18.3199  -12.3048  -16.1221 N   0  0  0  0  0  0  0  0  0  0  0  0
   19.8009  -10.4208  -15.9100 C   0  0  0  0  0  0  0  0  0  0  0  0
   19.2380  -10.0011  -14.8502 O   0  0  0  0  0  0  0  0  0  0  0  0
   23.2101  -10.9467  -14.2713 O   0  0  0  0  0  0  0  0  0  0  0  0
   23.2532   -9.7080  -14.9102 C   0  0  0  0  0  0  0  0  0  0  0  0
   21.8300   -9.2362  -15.1500 C   0  0  2  0  0  0  0  0  0  0  0  0
   21.1465  -10.0271  -16.1230 N   0  0  0  0  0  0  0  0  0  0  0  0
   21.7958   -7.7838  -15.4585 C   0  0  0  0  0  0  0  0  0  0  0  0
   22.1660   -7.4350  -16.6037 O   0  0  0  0  0  0  0  0  0  0  0  0
   21.3680   -6.8302  -14.5139 N   0  0  0  0  0  0  0  0  0  0  0  0
   21.3371   -5.3827  -14.7888 C   0  0  1  0  0  0  0  0  0  0  0  0
   19.9442   -4.9027  -14.4833 C   0  0  0  0  0  0  0  0  0  0  0  0
   18.9178   -5.2176  -15.5263 C   0  0  0  0  0  0  0  0  0  0  0  0
   17.6594   -5.7279  -14.9823 C   0  0  0  0  0  0  0  0  0  0  0  0
   17.6481   -6.5771  -14.0824 O   0  0  0  0  0  0  0  0  0  0  0  0
   22.3308   -4.7262  -13.9093 C   0  0  0  0  0  0  0  0  0  0  0  0
   22.6231   -3.3890  -14.0979 O   0  0  0  0  0  0  0  0  0  0  0  0
   16.4190   -5.2786  -15.4547 O   0  0  0  0  0  0  0  0  0  0  0  0
   22.9100   -5.3450  -13.0053 O   0  0  0  0  0  0  0  0  0  0  0  0
  2  1  1  6
  3  2  1  0
  4  2  1  0
  5  6  1  1
  5  4  1  0
  7  5  1  0
  8  7  2  0
  9 10  1  0
 11 10  1  6
 11 13  1  0
 11 12  1  0
 12  7  1  0
 13 14  2  0
 15 16  1  0
 15 13  1  0
 16 17  1  1
 18 19  1  0
 18 17  1  0
 19 20  2  0
 21 22  1  0
 21 16  1  0
 23 19  1  0
 24 21  2  0
M  END
$$$$
