EGR.pdb
     RDKit          3D

 25 24  0  0  1  0  0  0  0  0999 V2000
   11.7123  -15.5149   16.5532 N   0  0  0  0  0  0  0  0  0  0  0  0
   12.7821  -16.4874   16.2564 C   0  0  1  0  0  0  0  0  0  0  0  0
   12.8786  -16.7264   14.7932 C   0  0  0  0  0  0  0  0  0  0  0  0
   11.5599  -16.5232   14.1109 C   0  0  0  0  0  0  0  0  0  0  0  0
   11.7300  -16.6624   12.6445 C   0  0  0  0  0  0  0  0  0  0  0  0
   11.1980  -15.9023   11.8060 O   0  0  0  0  0  0  0  0  0  0  0  0
   14.0442  -15.9055   16.7800 C   0  0  0  0  0  0  0  0  0  0  0  0
   15.1685  -16.4495   16.7375 O   0  0  0  0  0  0  0  0  0  0  0  0
   12.5264  -17.6963   12.1631 O   0  0  0  0  0  0  0  0  0  0  0  0
   14.0500  -14.6014   17.4063 N   0  0  0  0  0  0  0  0  0  0  0  0
   15.2433  -14.0435   17.9813 C   0  0  0  0  0  0  0  0  0  0  0  0
   15.1083  -14.0762   19.4625 C   0  0  0  0  0  0  0  0  0  0  0  0
   14.8761  -13.0051   20.1232 O   0  0  0  0  0  0  0  0  0  0  0  0
   11.0838  -13.4669   19.3101 N   0  0  0  0  0  0  0  0  0  0  0  0
   10.6310  -14.7595   19.6738 C   0  0  0  0  0  0  0  0  0  0  0  0
   10.3088  -15.5897   18.7344 N   0  0  0  0  0  0  0  0  0  0  0  0
   10.5496  -15.0894   21.0400 N   0  0  0  0  0  0  0  0  0  0  0  0
   11.7332  -15.1189   21.8868 C   0  0  0  0  0  0  0  0  0  0  0  0
   12.6387  -16.1794   21.3383 C   0  0  0  0  0  0  0  0  0  0  0  0
   13.9535  -16.3284   22.0192 C   0  0  0  0  0  0  0  0  0  0  0  0
   14.9947  -15.3357   21.6446 C   0  0  2  0  0  0  0  0  0  0  0  0
   15.2258  -15.2687   20.2146 N   0  0  0  0  0  0  0  0  0  0  0  0
   16.2567  -15.4658   22.3963 C   0  0  0  0  0  0  0  0  0  0  0  0
   16.2738  -15.4280   23.6401 O   0  0  0  0  0  0  0  0  0  0  0  0
   17.4390  -15.6296   21.7094 O   0  0  0  0  0  0  0  0  0  0  0  0
  2  1  1  6
  3  2  1  0
  4  3  1  0
  5  4  1  0
  6  5  2  0
  7 10  1  0
  7  2  1  0
  8  7  2  0
  9  5  1  0
 11 12  1  0
 11 10  1  0
 12 22  1  0
 13 12  2  0
 15 14  1  0
 16 15  2  0
 17 15  1  0
 18 19  1  0
 18 17  1  0
 20 19  1  0
 21 20  1  6
 22 21  1  0
 23 25  1  0
 23 21  1  0
 24 23  2  0
M  END
$$$$
