EGR.pdb
     RDKit          3D

 25 24  0  0  1  0  0  0  0  0999 V2000
   10.0174  -12.9552   18.5095 N   0  0  0  0  0  0  0  0  0  0  0  0
    8.5572  -13.0047   18.7187 C   0  0  1  0  0  0  0  0  0  0  0  0
    7.8660  -13.4285   17.4736 C   0  0  0  0  0  0  0  0  0  0  0  0
    8.3977  -14.7327   16.9616 C   0  0  0  0  0  0  0  0  0  0  0  0
    7.5811  -15.1870   15.8103 C   0  0  0  0  0  0  0  0  0  0  0  0
    6.7026  -14.4877   15.2599 O   0  0  0  0  0  0  0  0  0  0  0  0
    8.3164  -13.9792   19.8132 C   0  0  0  0  0  0  0  0  0  0  0  0
    9.0401  -14.9610   20.0851 O   0  0  0  0  0  0  0  0  0  0  0  0
    7.7975  -16.4650   15.3054 O   0  0  0  0  0  0  0  0  0  0  0  0
    7.1656  -13.8446   20.6795 N   0  0  0  0  0  0  0  0  0  0  0  0
    6.8552  -14.8254   21.6833 C   0  0  0  0  0  0  0  0  0  0  0  0
    8.0096  -14.9209   22.6168 C   0  0  0  0  0  0  0  0  0  0  0  0
    8.1508  -14.0815   23.5724 O   0  0  0  0  0  0  0  0  0  0  0  0
    9.8331  -16.3956   30.1833 N   0  0  0  0  0  0  0  0  0  0  0  0
    9.8344  -15.2480   29.3519 C   0  0  0  0  0  0  0  0  0  0  0  0
    9.4754  -14.1137   29.8618 N   0  0  0  0  0  0  0  0  0  0  0  0
   10.2254  -15.3865   28.0066 N   0  0  0  0  0  0  0  0  0  0  0  0
   10.1062  -16.6574   27.3072 C   0  0  0  0  0  0  0  0  0  0  0  0
   10.6099  -16.4397   25.9127 C   0  0  0  0  0  0  0  0  0  0  0  0
    9.5685  -16.2480   24.8672 C   0  0  0  0  0  0  0  0  0  0  0  0
   10.0663  -16.1026   23.4740 C   0  0  2  0  0  0  0  0  0  0  0  0
    9.0005  -15.9248   22.5069 N   0  0  0  0  0  0  0  0  0  0  0  0
   11.0147  -17.1512   23.0550 C   0  0  0  0  0  0  0  0  0  0  0  0
   10.6855  -18.0296   22.2373 O   0  0  0  0  0  0  0  0  0  0  0  0
   12.2878  -17.1602   23.5800 O   0  0  0  0  0  0  0  0  0  0  0  0
  2  1  1  6
  3  2  1  0
  4  3  1  0
  5  4  1  0
  6  5  2  0
  7 10  1  0
  7  2  1  0
  8  7  2  0
  9  5  1  0
 11 12  1  0
 11 10  1  0
 12 22  1  0
 13 12  2  0
 15 14  1  0
 16 15  2  0
 17 15  1  0
 18 19  1  0
 18 17  1  0
 20 19  1  0
 21 20  1  1
 22 21  1  0
 23 25  1  0
 23 21  1  0
 24 23  2  0
M  END
$$$$
