EGR.pdb
     RDKit          3D

 25 24  0  0  1  0  0  0  0  0999 V2000
   10.9811  -16.6244   17.4261 N   0  0  0  0  0  0  0  0  0  0  0  0
    9.6084  -16.9013   17.8926 C   0  0  1  0  0  0  0  0  0  0  0  0
    8.9317  -17.8608   16.9822 C   0  0  0  0  0  0  0  0  0  0  0  0
    8.7012  -17.2681   15.6252 C   0  0  0  0  0  0  0  0  0  0  0  0
    9.7872  -17.6871   14.7066 C   0  0  0  0  0  0  0  0  0  0  0  0
   10.4639  -16.8916   14.0189 O   0  0  0  0  0  0  0  0  0  0  0  0
    9.7292  -17.4676   19.2601 C   0  0  0  0  0  0  0  0  0  0  0  0
    8.7763  -17.7413   20.0208 O   0  0  0  0  0  0  0  0  0  0  0  0
   10.0779  -19.0429   14.5962 O   0  0  0  0  0  0  0  0  0  0  0  0
   11.0293  -17.7527   19.8273 N   0  0  0  0  0  0  0  0  0  0  0  0
   11.1739  -18.3307   21.1353 C   0  0  0  0  0  0  0  0  0  0  0  0
   11.0600  -17.2422   22.1429 C   0  0  0  0  0  0  0  0  0  0  0  0
   12.0105  -16.4017   22.3100 O   0  0  0  0  0  0  0  0  0  0  0  0
    7.8464  -14.6743   19.1278 N   0  0  0  0  0  0  0  0  0  0  0  0
    7.9501  -13.4038   19.7467 C   0  0  0  0  0  0  0  0  0  0  0  0
    8.5668  -12.4564   19.1161 N   0  0  0  0  0  0  0  0  0  0  0  0
    7.3792  -13.2222   21.0207 N   0  0  0  0  0  0  0  0  0  0  0  0
    7.2506  -14.3262   21.9606 C   0  0  0  0  0  0  0  0  0  0  0  0
    8.4064  -14.2315   22.9096 C   0  0  0  0  0  0  0  0  0  0  0  0
    8.5077  -15.3172   23.9222 C   0  0  0  0  0  0  0  0  0  0  0  0
    9.8057  -16.0401   23.9712 C   0  0  2  0  0  0  0  0  0  0  0  0
    9.9176  -17.0737   22.9603 N   0  0  0  0  0  0  0  0  0  0  0  0
   10.1714  -16.5424   25.3087 C   0  0  0  0  0  0  0  0  0  0  0  0
   10.2790  -15.7721   26.2801 O   0  0  0  0  0  0  0  0  0  0  0  0
   10.4006  -17.8888   25.4858 O   0  0  0  0  0  0  0  0  0  0  0  0
  2  1  1  6
  3  2  1  0
  4  3  1  0
  5  4  1  0
  6  5  2  0
  7 10  1  0
  7  2  1  0
  8  7  2  0
  9  5  1  0
 11 12  1  0
 11 10  1  0
 12 22  1  0
 13 12  2  0
 15 14  1  0
 16 15  2  0
 17 15  1  0
 18 19  1  0
 18 17  1  0
 20 19  1  0
 21 20  1  1
 22 21  1  0
 23 25  1  0
 23 21  1  0
 24 23  2  0
M  END
$$$$
