EGR.pdb
     RDKit          3D

 25 24  0  0  1  0  0  0  0  0999 V2000
   11.4345  -14.2316   18.7617 N   0  0  0  0  0  0  0  0  0  0  0  0
   11.0540  -15.4138   17.9641 C   0  0  1  0  0  0  0  0  0  0  0  0
   12.1038  -15.7255   16.9600 C   0  0  0  0  0  0  0  0  0  0  0  0
   13.4751  -15.6895   17.5633 C   0  0  0  0  0  0  0  0  0  0  0  0
   14.4858  -16.0013   16.5240 C   0  0  0  0  0  0  0  0  0  0  0  0
   14.2031  -16.2760   15.3372 O   0  0  0  0  0  0  0  0  0  0  0  0
   10.8890  -16.5379   18.9206 C   0  0  0  0  0  0  0  0  0  0  0  0
   10.7410  -17.7398   18.6118 O   0  0  0  0  0  0  0  0  0  0  0  0
   15.8304  -15.9902   16.8803 O   0  0  0  0  0  0  0  0  0  0  0  0
   10.8891  -16.2974   20.3472 N   0  0  0  0  0  0  0  0  0  0  0  0
   10.6451  -17.3524   21.2924 C   0  0  0  0  0  0  0  0  0  0  0  0
   10.7676  -16.7893   22.6639 C   0  0  0  0  0  0  0  0  0  0  0  0
   11.7486  -16.0286   22.9748 O   0  0  0  0  0  0  0  0  0  0  0  0
    7.5301  -14.2837   19.0155 N   0  0  0  0  0  0  0  0  0  0  0  0
    7.9301  -13.1444   19.7573 C   0  0  0  0  0  0  0  0  0  0  0  0
    8.1920  -12.0499   19.1177 N   0  0  0  0  0  0  0  0  0  0  0  0
    8.0266  -13.2475   21.1579 N   0  0  0  0  0  0  0  0  0  0  0  0
    8.0132  -14.5397   21.8279 C   0  0  0  0  0  0  0  0  0  0  0  0
    8.0992  -14.2717   23.2997 C   0  0  0  0  0  0  0  0  0  0  0  0
    8.0297  -15.4666   24.1839 C   0  0  0  0  0  0  0  0  0  0  0  0
    9.3352  -16.0425   24.6008 C   0  0  2  0  0  0  0  0  0  0  0  0
    9.8262  -17.0550   23.6861 N   0  0  0  0  0  0  0  0  0  0  0  0
    9.3762  -16.5049   26.0005 C   0  0  0  0  0  0  0  0  0  0  0  0
    9.3873  -17.7176   26.2794 O   0  0  0  0  0  0  0  0  0  0  0  0
    9.4002  -15.5776   27.0185 O   0  0  0  0  0  0  0  0  0  0  0  0
  2  1  1  1
  3  2  1  0
  4  3  1  0
  5  4  1  0
  6  5  2  0
  7 10  1  0
  7  2  1  0
  8  7  2  0
  9  5  1  0
 11 12  1  0
 11 10  1  0
 12 22  1  0
 13 12  2  0
 15 14  1  0
 16 15  2  0
 17 15  1  0
 18 19  1  0
 18 17  1  0
 20 19  1  0
 21 20  1  6
 22 21  1  0
 23 25  1  0
 23 21  1  0
 24 23  2  0
M  END
$$$$
