EGR.pdb
     RDKit          3D

 25 24  0  0  1  0  0  0  0  0999 V2000
    9.1989  -17.1175   21.8276 N   0  0  0  0  0  0  0  0  0  0  0  0
    8.0273  -17.9746   22.0938 C   0  0  1  0  0  0  0  0  0  0  0  0
    7.8200  -18.9355   20.9797 C   0  0  0  0  0  0  0  0  0  0  0  0
    9.1211  -19.3881   20.3896 C   0  0  0  0  0  0  0  0  0  0  0  0
    8.9353  -19.7001   18.9519 C   0  0  0  0  0  0  0  0  0  0  0  0
    9.3769  -20.7317   18.4000 O   0  0  0  0  0  0  0  0  0  0  0  0
    8.3041  -18.6922   23.3642 C   0  0  0  0  0  0  0  0  0  0  0  0
    7.6548  -19.6637   23.8072 O   0  0  0  0  0  0  0  0  0  0  0  0
    8.2296  -18.7984   18.1621 O   0  0  0  0  0  0  0  0  0  0  0  0
    9.4029  -18.2882   24.2142 N   0  0  0  0  0  0  0  0  0  0  0  0
   10.0150  -16.9932   24.0953 C   0  0  0  0  0  0  0  0  0  0  0  0
    9.3773  -16.0818   25.0831 C   0  0  0  0  0  0  0  0  0  0  0  0
   10.0892  -15.3748   25.8774 O   0  0  0  0  0  0  0  0  0  0  0  0
    8.4686  -12.0860   19.3421 N   0  0  0  0  0  0  0  0  0  0  0  0
    8.5367  -13.4859   19.5513 C   0  0  0  0  0  0  0  0  0  0  0  0
    8.5594  -14.2658   18.5184 N   0  0  0  0  0  0  0  0  0  0  0  0
    8.5771  -13.9725   20.8717 N   0  0  0  0  0  0  0  0  0  0  0  0
    7.7120  -13.4295   21.9088 C   0  0  0  0  0  0  0  0  0  0  0  0
    8.0640  -14.1309   23.1854 C   0  0  0  0  0  0  0  0  0  0  0  0
    7.2625  -13.7496   24.3797 C   0  0  0  0  0  0  0  0  0  0  0  0
    7.3204  -14.6918   25.5282 C   0  0  2  0  0  0  0  0  0  0  0  0
    7.9741  -15.9442   25.2015 N   0  0  0  0  0  0  0  0  0  0  0  0
    6.0263  -14.9103   26.2008 C   0  0  0  0  0  0  0  0  0  0  0  0
    5.5285  -16.0475   26.2884 O   0  0  0  0  0  0  0  0  0  0  0  0
    5.3546  -13.8357   26.7399 O   0  0  0  0  0  0  0  0  0  0  0  0
  2  1  1  6
  3  2  1  0
  4  3  1  0
  5  4  1  0
  6  5  2  0
  7 10  1  0
  7  2  1  0
  8  7  2  0
  9  5  1  0
 11 12  1  0
 11 10  1  0
 12 22  1  0
 13 12  2  0
 15 14  1  0
 16 15  2  0
 17 15  1  0
 18 19  1  0
 18 17  1  0
 20 19  1  0
 21 20  1  6
 22 21  1  0
 23 25  1  0
 23 21  1  0
 24 23  2  0
M  END
$$$$
