EGR.pdb
     RDKit          3D

 25 24  0  0  1  0  0  0  0  0999 V2000
    8.5613  -12.8306   17.6992 N   0  0  0  0  0  0  0  0  0  0  0  0
    7.8780  -14.1100   17.9724 C   0  0  1  0  0  0  0  0  0  0  0  0
    8.6844  -15.2505   17.4660 C   0  0  0  0  0  0  0  0  0  0  0  0
   10.0622  -14.8191   17.0640 C   0  0  0  0  0  0  0  0  0  0  0  0
   10.6236  -15.7861   16.0900 C   0  0  0  0  0  0  0  0  0  0  0  0
   10.2225  -16.9642   15.9675 O   0  0  0  0  0  0  0  0  0  0  0  0
    7.7090  -14.1967   19.4453 C   0  0  0  0  0  0  0  0  0  0  0  0
    8.3537  -13.5407   20.2913 O   0  0  0  0  0  0  0  0  0  0  0  0
   11.6577  -15.3677   15.2591 O   0  0  0  0  0  0  0  0  0  0  0  0
    6.7340  -15.0958   20.0233 N   0  0  0  0  0  0  0  0  0  0  0  0
    6.4300  -15.0807   21.4280 C   0  0  0  0  0  0  0  0  0  0  0  0
    7.6243  -15.5663   22.1704 C   0  0  0  0  0  0  0  0  0  0  0  0
    8.6264  -16.0615   21.5474 O   0  0  0  0  0  0  0  0  0  0  0  0
    9.0058  -13.8953   29.2147 N   0  0  0  0  0  0  0  0  0  0  0  0
   10.1642  -14.6201   29.5900 C   0  0  0  0  0  0  0  0  0  0  0  0
   10.6801  -14.4018   30.7570 N   0  0  0  0  0  0  0  0  0  0  0  0
   10.7074  -15.5475   28.6807 N   0  0  0  0  0  0  0  0  0  0  0  0
   10.7181  -15.2905   27.2480 C   0  0  0  0  0  0  0  0  0  0  0  0
    9.8660  -16.3435   26.6071 C   0  0  0  0  0  0  0  0  0  0  0  0
    8.7255  -15.8490   25.7892 C   0  0  0  0  0  0  0  0  0  0  0  0
    8.9005  -15.9296   24.3152 C   0  0  2  0  0  0  0  0  0  0  0  0
    7.7224  -15.5108   23.5807 N   0  0  0  0  0  0  0  0  0  0  0  0
    9.4118  -17.2264   23.8340 C   0  0  0  0  0  0  0  0  0  0  0  0
    8.6484  -18.1905   23.6436 O   0  0  0  0  0  0  0  0  0  0  0  0
   10.7596  -17.3744   23.5930 O   0  0  0  0  0  0  0  0  0  0  0  0
  2  1  1  1
  3  2  1  0
  4  3  1  0
  5  4  1  0
  6  5  2  0
  7 10  1  0
  7  2  1  0
  8  7  2  0
  9  5  1  0
 11 12  1  0
 11 10  1  0
 12 22  1  0
 13 12  2  0
 15 14  1  0
 16 15  2  0
 17 15  1  0
 18 19  1  0
 18 17  1  0
 20 19  1  0
 21 20  1  1
 22 21  1  0
 23 25  1  0
 23 21  1  0
 24 23  2  0
M  END
$$$$
