EGR.pdb
     RDKit          3D

 25 24  0  0  1  0  0  0  0  0999 V2000
    8.1530  -12.6282   19.1961 N   0  0  0  0  0  0  0  0  0  0  0  0
    7.4885  -13.9443   19.2647 C   0  0  1  0  0  0  0  0  0  0  0  0
    7.4884  -14.5987   17.9308 C   0  0  0  0  0  0  0  0  0  0  0  0
    8.8722  -14.9824   17.5022 C   0  0  0  0  0  0  0  0  0  0  0  0
    8.8039  -15.7934   16.2627 C   0  0  0  0  0  0  0  0  0  0  0  0
    9.4247  -15.5160   15.2132 O   0  0  0  0  0  0  0  0  0  0  0  0
    8.2492  -14.7549   20.2495 C   0  0  0  0  0  0  0  0  0  0  0  0
    7.9858  -15.9302   20.5824 O   0  0  0  0  0  0  0  0  0  0  0  0
    8.0047  -16.9320   16.2569 O   0  0  0  0  0  0  0  0  0  0  0  0
    9.4056  -14.2032   20.9214 N   0  0  0  0  0  0  0  0  0  0  0  0
   10.2012  -14.9876   21.8255 C   0  0  0  0  0  0  0  0  0  0  0  0
    9.5059  -15.0352   23.1398 C   0  0  0  0  0  0  0  0  0  0  0  0
    8.8627  -14.0193   23.5780 O   0  0  0  0  0  0  0  0  0  0  0  0
    4.1802  -20.1782   21.5753 N   0  0  0  0  0  0  0  0  0  0  0  0
    5.2208  -20.2325   22.5357 C   0  0  0  0  0  0  0  0  0  0  0  0
    5.7042  -21.3886   22.8600 N   0  0  0  0  0  0  0  0  0  0  0  0
    5.6872  -19.0291   23.0980 N   0  0  0  0  0  0  0  0  0  0  0  0
    6.7400  -19.0175   24.1032 C   0  0  0  0  0  0  0  0  0  0  0  0
    7.0229  -17.5816   24.4254 C   0  0  0  0  0  0  0  0  0  0  0  0
    8.0086  -17.3410   25.5140 C   0  0  0  0  0  0  0  0  0  0  0  0
    8.9462  -16.2071   25.3018 C   0  0  2  0  0  0  0  0  0  0  0  0
    9.5134  -16.1826   23.9675 N   0  0  0  0  0  0  0  0  0  0  0  0
    9.9856  -16.0757   26.3397 C   0  0  0  0  0  0  0  0  0  0  0  0
   11.1952  -16.1224   26.0511 O   0  0  0  0  0  0  0  0  0  0  0  0
    9.6110  -15.9004   27.6533 O   0  0  0  0  0  0  0  0  0  0  0  0
  2  1  1  6
  3  2  1  0
  4  3  1  0
  5  4  1  0
  6  5  2  0
  7 10  1  0
  7  2  1  0
  8  7  2  0
  9  5  1  0
 11 12  1  0
 11 10  1  0
 12 22  1  0
 13 12  2  0
 15 14  1  0
 16 15  2  0
 17 15  1  0
 18 19  1  0
 18 17  1  0
 20 19  1  0
 21 20  1  1
 22 21  1  0
 23 25  1  0
 23 21  1  0
 24 23  2  0
M  END
$$$$
