EGR.pdb
     RDKit          3D

 25 24  0  0  1  0  0  0  0  0999 V2000
    9.6558  -17.9819   16.5615 N   0  0  0  0  0  0  0  0  0  0  0  0
    9.3608  -18.5158   17.9055 C   0  0  1  0  0  0  0  0  0  0  0  0
   10.5742  -19.1347   18.4989 C   0  0  0  0  0  0  0  0  0  0  0  0
   11.8297  -18.5181   17.9608 C   0  0  0  0  0  0  0  0  0  0  0  0
   12.9855  -19.3974   18.2601 C   0  0  0  0  0  0  0  0  0  0  0  0
   13.3789  -19.6615   19.4174 O   0  0  0  0  0  0  0  0  0  0  0  0
    8.8983  -17.3687   18.7276 C   0  0  0  0  0  0  0  0  0  0  0  0
    9.2669  -16.1822   18.5932 O   0  0  0  0  0  0  0  0  0  0  0  0
   13.6797  -19.9670   17.1978 O   0  0  0  0  0  0  0  0  0  0  0  0
    7.9401  -17.5651   19.7935 N   0  0  0  0  0  0  0  0  0  0  0  0
    7.4626  -16.4702   20.5930 C   0  0  0  0  0  0  0  0  0  0  0  0
    8.5266  -16.1019   21.5653 C   0  0  0  0  0  0  0  0  0  0  0  0
    9.4005  -15.2133   21.2751 O   0  0  0  0  0  0  0  0  0  0  0  0
    7.9622  -11.4307   27.0425 N   0  0  0  0  0  0  0  0  0  0  0  0
    6.5521  -11.3992   26.9053 C   0  0  0  0  0  0  0  0  0  0  0  0
    5.9175  -10.3339   27.2766 N   0  0  0  0  0  0  0  0  0  0  0  0
    5.8981  -12.5258   26.3715 N   0  0  0  0  0  0  0  0  0  0  0  0
    6.2679  -13.0766   25.0759 C   0  0  0  0  0  0  0  0  0  0  0  0
    6.8850  -14.4184   25.3296 C   0  0  0  0  0  0  0  0  0  0  0  0
    7.1226  -15.2631   24.1278 C   0  0  0  0  0  0  0  0  0  0  0  0
    8.4268  -15.9751   24.0823 C   0  0  2  0  0  0  0  0  0  0  0  0
    8.6343  -16.6994   22.8433 N   0  0  0  0  0  0  0  0  0  0  0  0
    8.7000  -16.8188   25.2605 C   0  0  0  0  0  0  0  0  0  0  0  0
    8.0557  -17.8626   25.4701 O   0  0  0  0  0  0  0  0  0  0  0  0
    9.6849  -16.4436   26.1469 O   0  0  0  0  0  0  0  0  0  0  0  0
  2  1  1  6
  3  2  1  0
  4  3  1  0
  5  4  1  0
  6  5  2  0
  7 10  1  0
  7  2  1  0
  8  7  2  0
  9  5  1  0
 11 12  1  0
 11 10  1  0
 12 22  1  0
 13 12  2  0
 15 14  1  0
 16 15  2  0
 17 15  1  0
 18 19  1  0
 18 17  1  0
 20 19  1  0
 21 20  1  1
 22 21  1  0
 23 25  1  0
 23 21  1  0
 24 23  2  0
M  END
$$$$
