EGR.pdb
     RDKit          3D

 25 24  0  0  1  0  0  0  0  0999 V2000
   10.9890  -15.2456   18.6347 N   0  0  0  0  0  0  0  0  0  0  0  0
   12.0126  -16.3060   18.7138 C   0  0  1  0  0  0  0  0  0  0  0  0
   13.2715  -15.8657   18.0590 C   0  0  0  0  0  0  0  0  0  0  0  0
   13.6138  -14.4502   18.4126 C   0  0  0  0  0  0  0  0  0  0  0  0
   14.9589  -14.1156   17.8858 C   0  0  0  0  0  0  0  0  0  0  0  0
   15.4877  -14.6906   16.9094 O   0  0  0  0  0  0  0  0  0  0  0  0
   12.2355  -16.5761   20.1570 C   0  0  0  0  0  0  0  0  0  0  0  0
   13.2001  -17.2085   20.6381 O   0  0  0  0  0  0  0  0  0  0  0  0
   15.6832  -13.1038   18.5076 O   0  0  0  0  0  0  0  0  0  0  0  0
   11.2980  -16.0976   21.1496 N   0  0  0  0  0  0  0  0  0  0  0  0
   11.5486  -16.2397   22.5577 C   0  0  0  0  0  0  0  0  0  0  0  0
   10.3789  -15.6950   23.2983 C   0  0  0  0  0  0  0  0  0  0  0  0
    9.4865  -15.0030   22.6963 O   0  0  0  0  0  0  0  0  0  0  0  0
    6.7914  -22.1595   25.1220 N   0  0  0  0  0  0  0  0  0  0  0  0
    5.8474  -21.2561   24.5735 C   0  0  0  0  0  0  0  0  0  0  0  0
    5.0496  -21.6812   23.6471 N   0  0  0  0  0  0  0  0  0  0  0  0
    5.8143  -19.9344   25.0570 N   0  0  0  0  0  0  0  0  0  0  0  0
    6.6283  -18.8858   24.4598 C   0  0  0  0  0  0  0  0  0  0  0  0
    7.9907  -18.9835   25.0761 C   0  0  0  0  0  0  0  0  0  0  0  0
    9.0177  -18.0522   24.5356 C   0  0  0  0  0  0  0  0  0  0  0  0
    9.1316  -16.7402   25.2252 C   0  0  2  0  0  0  0  0  0  0  0  0
   10.1864  -15.9050   24.6842 N   0  0  0  0  0  0  0  0  0  0  0  0
    9.2066  -16.8308   26.6952 C   0  0  0  0  0  0  0  0  0  0  0  0
    8.2432  -16.5038   27.4118 O   0  0  0  0  0  0  0  0  0  0  0  0
   10.3651  -17.2834   27.2865 O   0  0  0  0  0  0  0  0  0  0  0  0
  2  1  1  1
  3  2  1  0
  4  3  1  0
  5  4  1  0
  6  5  2  0
  7 10  1  0
  7  2  1  0
  8  7  2  0
  9  5  1  0
 11 12  1  0
 11 10  1  0
 12 22  1  0
 13 12  2  0
 15 14  1  0
 16 15  2  0
 17 15  1  0
 18 19  1  0
 18 17  1  0
 20 19  1  0
 21 20  1  6
 22 21  1  0
 23 25  1  0
 23 21  1  0
 24 23  2  0
M  END
$$$$
