EGR.pdb
     RDKit          3D

 25 24  0  0  1  0  0  0  0  0999 V2000
    7.9288  -17.3495   18.5101 N   0  0  0  0  0  0  0  0  0  0  0  0
    9.3618  -16.9989   18.4667 C   0  0  1  0  0  0  0  0  0  0  0  0
    9.7293  -16.4707   17.1276 C   0  0  0  0  0  0  0  0  0  0  0  0
    9.0152  -17.1995   16.0299 C   0  0  0  0  0  0  0  0  0  0  0  0
    9.9971  -17.6763   15.0264 C   0  0  0  0  0  0  0  0  0  0  0  0
   11.2278  -17.4679   15.1019 O   0  0  0  0  0  0  0  0  0  0  0  0
    9.5811  -15.9720   19.5169 C   0  0  0  0  0  0  0  0  0  0  0  0
   10.5865  -15.2363   19.6161 O   0  0  0  0  0  0  0  0  0  0  0  0
    9.5318  -18.3991   13.9327 O   0  0  0  0  0  0  0  0  0  0  0  0
    8.5900  -15.7479   20.5467 N   0  0  0  0  0  0  0  0  0  0  0  0
    8.8086  -14.8138   21.6170 C   0  0  0  0  0  0  0  0  0  0  0  0
    7.5948  -14.7952   22.4769 C   0  0  0  0  0  0  0  0  0  0  0  0
    6.4431  -14.5425   21.9796 O   0  0  0  0  0  0  0  0  0  0  0  0
    8.4269  -22.1946   24.6656 N   0  0  0  0  0  0  0  0  0  0  0  0
    7.0099  -22.2005   24.6786 C   0  0  0  0  0  0  0  0  0  0  0  0
    6.3990  -23.2605   25.1014 N   0  0  0  0  0  0  0  0  0  0  0  0
    6.3235  -21.0553   24.2322 N   0  0  0  0  0  0  0  0  0  0  0  0
    7.0134  -19.9777   23.5383 C   0  0  0  0  0  0  0  0  0  0  0  0
    6.7380  -18.7176   24.3012 C   0  0  0  0  0  0  0  0  0  0  0  0
    7.3885  -17.4854   23.7789 C   0  0  0  0  0  0  0  0  0  0  0  0
    7.0453  -16.2218   24.4829 C   0  0  2  0  0  0  0  0  0  0  0  0
    7.6395  -15.0508   23.8678 N   0  0  0  0  0  0  0  0  0  0  0  0
    7.2816  -16.2536   25.9382 C   0  0  0  0  0  0  0  0  0  0  0  0
    6.4568  -16.7687   26.7147 O   0  0  0  0  0  0  0  0  0  0  0  0
    8.4353  -15.7008   26.4481 O   0  0  0  0  0  0  0  0  0  0  0  0
  2  1  1  6
  3  2  1  0
  4  3  1  0
  5  4  1  0
  6  5  2  0
  7 10  1  0
  7  2  1  0
  8  7  2  0
  9  5  1  0
 11 12  1  0
 11 10  1  0
 12 22  1  0
 13 12  2  0
 15 14  1  0
 16 15  2  0
 17 15  1  0
 18 19  1  0
 18 17  1  0
 20 19  1  0
 21 20  1  6
 22 21  1  0
 23 25  1  0
 23 21  1  0
 24 23  2  0
M  END
$$$$
