EGR.pdb
     RDKit          3D

 25 24  0  0  1  0  0  0  0  0999 V2000
   10.1147  -14.5400   20.1845 N   0  0  0  0  0  0  0  0  0  0  0  0
    8.8263  -14.0215   20.6841 C   0  0  1  0  0  0  0  0  0  0  0  0
    7.7852  -14.1057   19.6275 C   0  0  0  0  0  0  0  0  0  0  0  0
    8.3894  -14.1432   18.2566 C   0  0  0  0  0  0  0  0  0  0  0  0
    7.3139  -14.1155   17.2363 C   0  0  0  0  0  0  0  0  0  0  0  0
    6.0947  -14.0639   17.5101 O   0  0  0  0  0  0  0  0  0  0  0  0
    8.4569  -14.8555   21.8560 C   0  0  0  0  0  0  0  0  0  0  0  0
    7.4944  -14.6444   22.6246 O   0  0  0  0  0  0  0  0  0  0  0  0
    7.6717  -14.1485   15.8925 O   0  0  0  0  0  0  0  0  0  0  0  0
    9.2315  -16.0283   22.1991 N   0  0  0  0  0  0  0  0  0  0  0  0
    8.8523  -16.8958   23.2805 C   0  0  0  0  0  0  0  0  0  0  0  0
    9.6580  -16.5318   24.4769 C   0  0  0  0  0  0  0  0  0  0  0  0
   10.8640  -16.1217   24.3548 O   0  0  0  0  0  0  0  0  0  0  0  0
    6.3290  -13.1990   24.9374 N   0  0  0  0  0  0  0  0  0  0  0  0
    6.3948  -12.1927   25.9330 C   0  0  0  0  0  0  0  0  0  0  0  0
    5.4415  -11.3192   25.9944 N   0  0  0  0  0  0  0  0  0  0  0  0
    7.4923  -12.1827   26.8147 N   0  0  0  0  0  0  0  0  0  0  0  0
    7.7749  -13.3111   27.6897 C   0  0  0  0  0  0  0  0  0  0  0  0
    8.9549  -14.0306   27.1104 C   0  0  0  0  0  0  0  0  0  0  0  0
    9.3796  -15.2648   27.8252 C   0  0  0  0  0  0  0  0  0  0  0  0
    9.9473  -16.3443   26.9754 C   0  0  2  0  0  0  0  0  0  0  0  0
    9.1500  -16.6150   25.7948 N   0  0  0  0  0  0  0  0  0  0  0  0
   10.2791  -17.5817   27.7058 C   0  0  0  0  0  0  0  0  0  0  0  0
   11.0158  -17.5613   28.7085 O   0  0  0  0  0  0  0  0  0  0  0  0
    9.7661  -18.7828   27.2690 O   0  0  0  0  0  0  0  0  0  0  0  0
  2  1  1  6
  3  2  1  0
  4  3  1  0
  5  4  1  0
  6  5  2  0
  7 10  1  0
  7  2  1  0
  8  7  2  0
  9  5  1  0
 11 12  1  0
 11 10  1  0
 12 22  1  0
 13 12  2  0
 15 14  1  0
 16 15  2  0
 17 15  1  0
 18 19  1  0
 18 17  1  0
 20 19  1  0
 21 20  1  1
 22 21  1  0
 23 25  1  0
 23 21  1  0
 24 23  2  0
M  END
$$$$
