EGR.pdb
     RDKit          3D

 25 24  0  0  1  0  0  0  0  0999 V2000
   11.1228  -19.8471   19.0513 N   0  0  0  0  0  0  0  0  0  0  0  0
   11.0918  -18.5689   18.3140 C   0  0  1  0  0  0  0  0  0  0  0  0
   10.7909  -18.8023   16.8779 C   0  0  0  0  0  0  0  0  0  0  0  0
   10.9188  -17.5442   16.0738 C   0  0  0  0  0  0  0  0  0  0  0  0
   10.8066  -17.8613   14.6297 C   0  0  0  0  0  0  0  0  0  0  0  0
   10.5388  -18.9989   14.1848 O   0  0  0  0  0  0  0  0  0  0  0  0
   10.0353  -17.7381   18.9458 C   0  0  0  0  0  0  0  0  0  0  0  0
    9.0055  -17.3156   18.3777 O   0  0  0  0  0  0  0  0  0  0  0  0
   11.0096  -16.8400   13.7073 O   0  0  0  0  0  0  0  0  0  0  0  0
   10.1391  -17.3448   20.3342 N   0  0  0  0  0  0  0  0  0  0  0  0
    9.1642  -16.4892   20.9532 C   0  0  0  0  0  0  0  0  0  0  0  0
    9.6028  -16.2124   22.3475 C   0  0  0  0  0  0  0  0  0  0  0  0
   10.8072  -15.8595   22.5978 O   0  0  0  0  0  0  0  0  0  0  0  0
    5.1588  -11.2292   27.6258 N   0  0  0  0  0  0  0  0  0  0  0  0
    5.9463  -11.0958   26.4553 C   0  0  0  0  0  0  0  0  0  0  0  0
    6.3356   -9.9128   26.1025 N   0  0  0  0  0  0  0  0  0  0  0  0
    6.2738  -12.2530   25.7235 N   0  0  0  0  0  0  0  0  0  0  0  0
    7.1241  -13.2924   26.2852 C   0  0  0  0  0  0  0  0  0  0  0  0
    7.2298  -14.3764   25.2559 C   0  0  0  0  0  0  0  0  0  0  0  0
    7.9717  -15.5978   25.6711 C   0  0  0  0  0  0  0  0  0  0  0  0
    9.1234  -15.9809   24.8128 C   0  0  2  0  0  0  0  0  0  0  0  0
    8.7329  -16.3201   23.4581 N   0  0  0  0  0  0  0  0  0  0  0  0
   10.0043  -17.0073   25.4005 C   0  0  0  0  0  0  0  0  0  0  0  0
   10.7947  -16.7293   26.3206 O   0  0  0  0  0  0  0  0  0  0  0  0
    9.9532  -18.2972   24.9207 O   0  0  0  0  0  0  0  0  0  0  0  0
  2  1  1  1
  3  2  1  0
  4  3  1  0
  5  4  1  0
  6  5  2  0
  7 10  1  0
  7  2  1  0
  8  7  2  0
  9  5  1  0
 11 12  1  0
 11 10  1  0
 12 22  1  0
 13 12  2  0
 15 14  1  0
 16 15  2  0
 17 15  1  0
 18 19  1  0
 18 17  1  0
 20 19  1  0
 21 20  1  1
 22 21  1  0
 23 25  1  0
 23 21  1  0
 24 23  2  0
M  END
$$$$
