AHS.pdb
     RDKit          3D

 22 22  0  0  1  0  0  0  0  0999 V2000
    2.9328  -18.5842   21.9000 C   0  0  0  0  0  0  0  0  0  0  0  0
    3.7649  -18.1787   20.6958 C   0  0  2  0  0  0  0  0  0  0  0  0
    3.8820  -19.2985   19.8167 N   0  0  0  0  0  0  0  0  0  0  0  0
    5.1102  -17.7598   21.1668 C   0  0  0  0  0  0  0  0  0  0  0  0
    5.9586  -18.6533   21.4398 O   0  0  0  0  0  0  0  0  0  0  0  0
    5.4279  -16.3558   21.3052 N   0  0  0  0  0  0  0  0  0  0  0  0
    6.6744  -15.9493   21.8641 C   0  0  1  0  0  0  0  0  0  0  0  0
    7.1701  -14.6055   21.5106 C   0  0  0  0  0  0  0  0  0  0  0  0
    7.5564  -14.4872   20.0866 C   0  0  0  0  0  0  0  0  0  0  0  0
    7.6141  -15.4443   19.0991 C   0  0  0  0  0  0  0  0  0  0  0  0
    8.0457  -14.8759   17.9449 N   0  0  0  0  0  0  0  0  0  0  0  0
    8.2629  -13.5768   18.1833 C   0  0  0  0  0  0  0  0  0  0  0  0
    7.9722  -13.3349   19.4648 N   0  0  0  0  0  0  0  0  0  0  0  0
    6.7054  -16.2020   23.3455 C   0  0  0  0  0  0  0  0  0  0  0  0
    5.6791  -15.9068   23.9968 O   0  0  0  0  0  0  0  0  0  0  0  0
    7.1540  -19.4921   25.1896 O   0  0  0  0  0  0  0  0  0  0  0  0
    6.7440  -18.2538   25.6415 C   0  0  0  0  0  0  0  0  0  0  0  0
    7.7712  -17.1761   25.4114 C   0  0  2  0  0  0  0  0  0  0  0  0
    7.8099  -16.7446   24.0292 N   0  0  0  0  0  0  0  0  0  0  0  0
    9.1033  -17.6587   25.8561 C   0  0  0  0  0  0  0  0  0  0  0  0
    9.2896  -18.1818   26.9809 O   0  0  0  0  0  0  0  0  0  0  0  0
   10.1980  -17.5375   25.0141 O   0  0  0  0  0  0  0  0  0  0  0  0
  2  1  1  1
  2  4  1  0
  3  2  1  0
  4  5  2  0
  4  6  1  0
  6  7  1  0
  7  8  1  1
  7 14  1  0
  9 10  2  0
  9  8  1  0
 11 10  1  0
 12 13  2  0
 12 11  1  0
 13  9  1  0
 14 19  1  0
 15 14  2  0
 17 16  1  0
 18 20  1  0
 18 17  1  6
 19 18  1  0
 20 22  1  0
 21 20  2  0
M  END
$$$$
