AHS.pdb
     RDKit          3D

 22 22  0  0  1  0  0  0  0  0999 V2000
    8.3782  -12.1014   19.6756 C   0  0  0  0  0  0  0  0  0  0  0  0
    8.7927  -12.9172   18.4634 C   0  0  2  0  0  0  0  0  0  0  0  0
    7.6217  -13.4485   17.8414 N   0  0  0  0  0  0  0  0  0  0  0  0
    9.6752  -14.0240   18.9142 C   0  0  0  0  0  0  0  0  0  0  0  0
    9.1583  -15.1525   19.1419 O   0  0  0  0  0  0  0  0  0  0  0  0
   11.0937  -13.8001   19.0846 N   0  0  0  0  0  0  0  0  0  0  0  0
   11.9714  -14.8932   19.3411 C   0  0  1  0  0  0  0  0  0  0  0  0
   13.2087  -14.9716   18.5413 C   0  0  0  0  0  0  0  0  0  0  0  0
   12.9912  -15.5433   17.1933 C   0  0  0  0  0  0  0  0  0  0  0  0
   13.1130  -14.9625   15.9515 C   0  0  0  0  0  0  0  0  0  0  0  0
   12.7901  -15.8699   14.9956 N   0  0  0  0  0  0  0  0  0  0  0  0
   12.4657  -17.0145   15.6091 C   0  0  0  0  0  0  0  0  0  0  0  0
   12.5834  -16.8279   16.9269 N   0  0  0  0  0  0  0  0  0  0  0  0
   12.2296  -15.0392   20.8147 C   0  0  0  0  0  0  0  0  0  0  0  0
   12.9004  -14.1404   21.3687 O   0  0  0  0  0  0  0  0  0  0  0  0
    9.6534  -16.6584   23.4257 O   0  0  0  0  0  0  0  0  0  0  0  0
   10.9393  -17.0861   23.6887 C   0  0  0  0  0  0  0  0  0  0  0  0
   11.9881  -16.2368   23.0192 C   0  0  2  0  0  0  0  0  0  0  0  0
   11.7644  -16.1159   21.5931 N   0  0  0  0  0  0  0  0  0  0  0  0
   13.3338  -16.7980   23.3013 C   0  0  0  0  0  0  0  0  0  0  0  0
   14.0972  -17.2069   22.3937 O   0  0  0  0  0  0  0  0  0  0  0  0
   13.7860  -16.8838   24.6090 O   0  0  0  0  0  0  0  0  0  0  0  0
  2  1  1  1
  2  4  1  0
  3  2  1  0
  4  5  2  0
  4  6  1  0
  6  7  1  0
  7  8  1  6
  7 14  1  0
  9 10  2  0
  9  8  1  0
 11 10  1  0
 12 13  2  0
 12 11  1  0
 13  9  1  0
 14 19  1  0
 15 14  2  0
 17 16  1  0
 18 20  1  0
 18 17  1  6
 19 18  1  0
 20 22  1  0
 21 20  2  0
M  END
$$$$
