AHS.pdb
     RDKit          3D

 22 22  0  0  1  0  0  0  0  0999 V2000
    8.3109  -13.8803   18.7423 C   0  0  0  0  0  0  0  0  0  0  0  0
    8.7548  -15.1332   18.0074 C   0  0  2  0  0  0  0  0  0  0  0  0
    7.5976  -15.8432   17.5635 N   0  0  0  0  0  0  0  0  0  0  0  0
    9.5423  -15.9786   18.9415 C   0  0  0  0  0  0  0  0  0  0  0  0
    8.9233  -16.6660   19.7999 O   0  0  0  0  0  0  0  0  0  0  0  0
   10.9858  -16.0042   18.8585 N   0  0  0  0  0  0  0  0  0  0  0  0
   11.7438  -16.8457   19.7236 C   0  0  1  0  0  0  0  0  0  0  0  0
   13.0554  -17.3137   19.2365 C   0  0  0  0  0  0  0  0  0  0  0  0
   12.9468  -18.2865   18.1261 C   0  0  0  0  0  0  0  0  0  0  0  0
   11.9429  -19.1768   17.8197 C   0  0  0  0  0  0  0  0  0  0  0  0
   12.2898  -19.8851   16.7155 N   0  0  0  0  0  0  0  0  0  0  0  0
   13.4949  -19.4602   16.3171 C   0  0  0  0  0  0  0  0  0  0  0  0
   13.8965  -18.5018   17.1571 N   0  0  0  0  0  0  0  0  0  0  0  0
   11.8193  -16.2631   21.1072 C   0  0  0  0  0  0  0  0  0  0  0  0
   12.2919  -15.1101   21.2164 O   0  0  0  0  0  0  0  0  0  0  0  0
    9.0177  -16.0813   23.5512 O   0  0  0  0  0  0  0  0  0  0  0  0
   10.0919  -16.5114   24.3039 C   0  0  0  0  0  0  0  0  0  0  0  0
   11.4098  -16.3465   23.5928 C   0  0  2  0  0  0  0  0  0  0  0  0
   11.3933  -16.9344   22.2690 N   0  0  0  0  0  0  0  0  0  0  0  0
   12.4957  -16.9299   24.4209 C   0  0  0  0  0  0  0  0  0  0  0  0
   13.1779  -17.9124   24.0427 O   0  0  0  0  0  0  0  0  0  0  0  0
   12.7854  -16.3857   25.6626 O   0  0  0  0  0  0  0  0  0  0  0  0
  2  1  1  1
  2  4  1  0
  3  2  1  0
  4  5  2  0
  4  6  1  0
  6  7  1  0
  7  8  1  6
  7 14  1  0
  9 10  2  0
  9  8  1  0
 11 10  1  0
 12 13  2  0
 12 11  1  0
 13  9  1  0
 14 19  1  0
 15 14  2  0
 17 16  1  0
 18 20  1  0
 18 17  1  1
 19 18  1  0
 20 22  1  0
 21 20  2  0
M  END
$$$$
