AHS.pdb
     RDKit          3D

 22 22  0  0  1  0  0  0  0  0999 V2000
   10.9781  -19.9924   17.7859 C   0  0  0  0  0  0  0  0  0  0  0  0
   10.3112  -18.6284   17.7467 C   0  0  2  0  0  0  0  0  0  0  0  0
   10.8909  -17.8605   16.6910 N   0  0  0  0  0  0  0  0  0  0  0  0
   10.5361  -17.9516   19.0500 C   0  0  0  0  0  0  0  0  0  0  0  0
   11.7229  -17.7276   19.4159 O   0  0  0  0  0  0  0  0  0  0  0  0
    9.4113  -17.5631   19.8717 N   0  0  0  0  0  0  0  0  0  0  0  0
    9.6194  -16.8681   21.0984 C   0  0  1  0  0  0  0  0  0  0  0  0
    8.6250  -15.8457   21.4757 C   0  0  0  0  0  0  0  0  0  0  0  0
    8.6755  -14.6433   20.6138 C   0  0  0  0  0  0  0  0  0  0  0  0
    9.5609  -14.3011   19.6171 C   0  0  0  0  0  0  0  0  0  0  0  0
    9.2250  -13.0868   19.1130 N   0  0  0  0  0  0  0  0  0  0  0  0
    8.1436  -12.6535   19.7723 C   0  0  0  0  0  0  0  0  0  0  0  0
    7.8073  -13.5804   20.6741 N   0  0  0  0  0  0  0  0  0  0  0  0
    9.9077  -17.8297   22.2171 C   0  0  0  0  0  0  0  0  0  0  0  0
    9.2269  -18.8783   22.2585 O   0  0  0  0  0  0  0  0  0  0  0  0
   13.5535  -18.4671   23.7967 O   0  0  0  0  0  0  0  0  0  0  0  0
   12.4777  -19.3089   23.9953 C   0  0  0  0  0  0  0  0  0  0  0  0
   11.1928  -18.5668   24.2562 C   0  0  2  0  0  0  0  0  0  0  0  0
   10.8874  -17.6175   23.2056 N   0  0  0  0  0  0  0  0  0  0  0  0
   11.2699  -17.8924   25.5771 C   0  0  0  0  0  0  0  0  0  0  0  0
   11.1542  -16.6501   25.7072 O   0  0  0  0  0  0  0  0  0  0  0  0
   11.4769  -18.6426   26.7244 O   0  0  0  0  0  0  0  0  0  0  0  0
  2  1  1  1
  2  4  1  0
  3  2  1  0
  4  5  2  0
  4  6  1  0
  6  7  1  0
  7  8  1  1
  7 14  1  0
  9 10  2  0
  9  8  1  0
 11 10  1  0
 12 13  2  0
 12 11  1  0
 13  9  1  0
 14 19  1  0
 15 14  2  0
 17 16  1  0
 18 20  1  0
 18 17  1  6
 19 18  1  0
 20 22  1  0
 21 20  2  0
M  END
$$$$
