AHS.pdb
     RDKit          3D

 22 22  0  0  1  0  0  0  0  0999 V2000
    7.8524  -12.7359   20.0786 C   0  0  0  0  0  0  0  0  0  0  0  0
    8.4785  -13.2333   18.7873 C   0  0  2  0  0  0  0  0  0  0  0  0
    7.4582  -13.8115   17.9717 N   0  0  0  0  0  0  0  0  0  0  0  0
    9.5039  -14.2558   19.1192 C   0  0  0  0  0  0  0  0  0  0  0  0
    9.1605  -15.4701   19.1375 O   0  0  0  0  0  0  0  0  0  0  0  0
   10.8621  -13.8554   19.4129 N   0  0  0  0  0  0  0  0  0  0  0  0
   11.8406  -14.8285   19.7692 C   0  0  1  0  0  0  0  0  0  0  0  0
   13.2539  -14.4965   19.5070 C   0  0  0  0  0  0  0  0  0  0  0  0
   13.7051  -14.9099   18.1592 C   0  0  0  0  0  0  0  0  0  0  0  0
   13.0483  -15.6229   17.1821 C   0  0  0  0  0  0  0  0  0  0  0  0
   13.8679  -15.7826   16.1125 N   0  0  0  0  0  0  0  0  0  0  0  0
   15.0318  -15.1845   16.3942 C   0  0  0  0  0  0  0  0  0  0  0  0
   14.9431  -14.6586   17.6193 N   0  0  0  0  0  0  0  0  0  0  0  0
   11.6173  -15.3251   21.1702 C   0  0  0  0  0  0  0  0  0  0  0  0
   11.5329  -14.4649   22.0744 O   0  0  0  0  0  0  0  0  0  0  0  0
   10.2949  -18.9348   24.1647 O   0  0  0  0  0  0  0  0  0  0  0  0
   10.4965  -18.4523   22.8872 C   0  0  0  0  0  0  0  0  0  0  0  0
   11.2687  -17.1589   22.8639 C   0  0  2  0  0  0  0  0  0  0  0  0
   11.4997  -16.6850   21.5146 N   0  0  0  0  0  0  0  0  0  0  0  0
   12.5502  -17.3341   23.5933 C   0  0  0  0  0  0  0  0  0  0  0  0
   13.6658  -17.2483   23.0260 O   0  0  0  0  0  0  0  0  0  0  0  0
   12.5395  -17.6034   24.9532 O   0  0  0  0  0  0  0  0  0  0  0  0
  2  1  1  1
  2  4  1  0
  3  2  1  0
  4  5  2  0
  4  6  1  0
  6  7  1  0
  7  8  1  1
  7 14  1  0
  9 10  2  0
  9  8  1  0
 11 10  1  0
 12 13  2  0
 12 11  1  0
 13  9  1  0
 14 19  1  0
 15 14  2  0
 17 16  1  0
 18 20  1  0
 18 17  1  6
 19 18  1  0
 20 22  1  0
 21 20  2  0
M  END
$$$$
