AHS.pdb
     RDKit          3D

 22 22  0  0  1  0  0  0  0  0999 V2000
    8.4361  -12.0545   19.2081 C   0  0  0  0  0  0  0  0  0  0  0  0
    8.5772  -13.4865   18.7219 C   0  0  2  0  0  0  0  0  0  0  0  0
    7.7351  -13.6730   17.5832 N   0  0  0  0  0  0  0  0  0  0  0  0
    8.1632  -14.4030   19.8154 C   0  0  0  0  0  0  0  0  0  0  0  0
    6.9304  -14.5710   20.0269 O   0  0  0  0  0  0  0  0  0  0  0  0
    9.1608  -15.0815   20.6127 N   0  0  0  0  0  0  0  0  0  0  0  0
    8.7701  -15.9269   21.6915 C   0  0  1  0  0  0  0  0  0  0  0  0
    8.1861  -17.2376   21.3488 C   0  0  0  0  0  0  0  0  0  0  0  0
    9.0252  -18.0178   20.4116 C   0  0  0  0  0  0  0  0  0  0  0  0
   10.2127  -17.6894   19.7980 C   0  0  0  0  0  0  0  0  0  0  0  0
   10.6072  -18.7148   19.0015 N   0  0  0  0  0  0  0  0  0  0  0  0
    9.6915  -19.6862   19.0990 C   0  0  0  0  0  0  0  0  0  0  0  0
    8.7393  -19.2769   19.9423 N   0  0  0  0  0  0  0  0  0  0  0  0
    9.8684  -16.0362   22.7119 C   0  0  0  0  0  0  0  0  0  0  0  0
   11.0423  -15.8897   22.3053 O   0  0  0  0  0  0  0  0  0  0  0  0
    8.8837  -16.3445   26.6095 O   0  0  0  0  0  0  0  0  0  0  0  0
   10.2453  -16.1768   26.4557 C   0  0  0  0  0  0  0  0  0  0  0  0
   10.7145  -16.4482   25.0501 C   0  0  2  0  0  0  0  0  0  0  0  0
    9.6510  -16.2906   24.0793 N   0  0  0  0  0  0  0  0  0  0  0  0
   11.3029  -17.8098   24.9787 C   0  0  0  0  0  0  0  0  0  0  0  0
   10.8558  -18.6979   24.2139 O   0  0  0  0  0  0  0  0  0  0  0  0
   12.3879  -18.1359   25.7778 O   0  0  0  0  0  0  0  0  0  0  0  0
  2  1  1  1
  2  4  1  0
  3  2  1  0
  4  5  2  0
  4  6  1  0
  6  7  1  0
  7  8  1  6
  7 14  1  0
  9 10  2  0
  9  8  1  0
 11 10  1  0
 12 13  2  0
 12 11  1  0
 13  9  1  0
 14 19  1  0
 15 14  2  0
 17 16  1  0
 18 20  1  0
 18 17  1  1
 19 18  1  0
 20 22  1  0
 21 20  2  0
M  END
$$$$
