AHS.pdb
     RDKit          3D

 22 22  0  0  1  0  0  0  0  0999 V2000
   11.4087  -20.1374   17.7411 C   0  0  0  0  0  0  0  0  0  0  0  0
   10.5633  -18.9078   17.4578 C   0  0  2  0  0  0  0  0  0  0  0  0
   10.9436  -18.3671   16.1915 N   0  0  0  0  0  0  0  0  0  0  0  0
   10.8039  -17.9080   18.5301 C   0  0  0  0  0  0  0  0  0  0  0  0
   11.8697  -17.2330   18.4966 O   0  0  0  0  0  0  0  0  0  0  0  0
    9.8305  -17.7221   19.5832 N   0  0  0  0  0  0  0  0  0  0  0  0
   10.0392  -16.7393   20.5939 C   0  0  1  0  0  0  0  0  0  0  0  0
    8.8470  -16.0598   21.1357 C   0  0  0  0  0  0  0  0  0  0  0  0
    8.2979  -15.0356   20.2188 C   0  0  0  0  0  0  0  0  0  0  0  0
    8.7683  -14.5844   19.0066 C   0  0  0  0  0  0  0  0  0  0  0  0
    7.9426  -13.6164   18.5346 N   0  0  0  0  0  0  0  0  0  0  0  0
    6.9584  -13.4460   19.4255 C   0  0  0  0  0  0  0  0  0  0  0  0
    7.1634  -14.2927   20.4386 N   0  0  0  0  0  0  0  0  0  0  0  0
   10.9417  -17.2651   21.6748 C   0  0  0  0  0  0  0  0  0  0  0  0
   10.5848  -18.3131   22.2571 O   0  0  0  0  0  0  0  0  0  0  0  0
   14.5266  -15.3036   22.9099 O   0  0  0  0  0  0  0  0  0  0  0  0
   14.4582  -16.6821   22.8843 C   0  0  0  0  0  0  0  0  0  0  0  0
   13.0541  -17.2027   23.0484 C   0  0  2  0  0  0  0  0  0  0  0  0
   12.1484  -16.6517   22.0613 N   0  0  0  0  0  0  0  0  0  0  0  0
   12.5780  -16.9174   24.4258 C   0  0  0  0  0  0  0  0  0  0  0  0
   11.5526  -16.2324   24.6559 O   0  0  0  0  0  0  0  0  0  0  0  0
   13.2762  -17.4157   25.5149 O   0  0  0  0  0  0  0  0  0  0  0  0
  2  1  1  1
  2  4  1  0
  3  2  1  0
  4  5  2  0
  4  6  1  0
  6  7  1  0
  7  8  1  1
  7 14  1  0
  9 10  2  0
  9  8  1  0
 11 10  1  0
 12 13  2  0
 12 11  1  0
 13  9  1  0
 14 19  1  0
 15 14  2  0
 17 16  1  0
 18 20  1  0
 18 17  1  1
 19 18  1  0
 20 22  1  0
 21 20  2  0
M  END
$$$$
