AHS.pdb
     RDKit          3D

 22 22  0  0  1  0  0  0  0  0999 V2000
   10.7779  -18.2115   15.8074 C   0  0  0  0  0  0  0  0  0  0  0  0
   10.3431  -16.7582   15.7315 C   0  0  2  0  0  0  0  0  0  0  0  0
   10.6328  -16.2565   14.4259 N   0  0  0  0  0  0  0  0  0  0  0  0
   11.0948  -15.9831   16.7520 C   0  0  0  0  0  0  0  0  0  0  0  0
   12.2010  -15.4708   16.4256 O   0  0  0  0  0  0  0  0  0  0  0  0
   10.5598  -15.8265   18.0864 N   0  0  0  0  0  0  0  0  0  0  0  0
   11.2158  -14.9874   19.0333 C   0  0  1  0  0  0  0  0  0  0  0  0
   10.4005  -14.4417   20.1352 C   0  0  0  0  0  0  0  0  0  0  0  0
    9.1479  -13.8060   19.6684 C   0  0  0  0  0  0  0  0  0  0  0  0
    8.8734  -12.4880   19.3820 C   0  0  0  0  0  0  0  0  0  0  0  0
    7.5750  -12.3694   19.0056 N   0  0  0  0  0  0  0  0  0  0  0  0
    7.0221  -13.5876   19.0487 C   0  0  0  0  0  0  0  0  0  0  0  0
    7.9579  -14.4552   19.4451 N   0  0  0  0  0  0  0  0  0  0  0  0
   12.4889  -15.6213   19.5198 C   0  0  0  0  0  0  0  0  0  0  0  0
   12.4487  -16.8392   19.8026 O   0  0  0  0  0  0  0  0  0  0  0  0
   16.2614  -13.8311   18.8910 O   0  0  0  0  0  0  0  0  0  0  0  0
   16.0282  -15.1911   18.9307 C   0  0  0  0  0  0  0  0  0  0  0  0
   14.9744  -15.5762   19.9361 C   0  0  2  0  0  0  0  0  0  0  0  0
   13.7054  -14.9294   19.6721 N   0  0  0  0  0  0  0  0  0  0  0  0
   15.4575  -15.2621   21.3048 C   0  0  0  0  0  0  0  0  0  0  0  0
   16.5357  -15.7145   21.7591 O   0  0  0  0  0  0  0  0  0  0  0  0
   14.7062  -14.4402   22.1306 O   0  0  0  0  0  0  0  0  0  0  0  0
  2  1  1  6
  2  4  1  0
  3  2  1  0
  4  5  2  0
  4  6  1  0
  6  7  1  0
  7  8  1  1
  7 14  1  0
  9 10  2  0
  9  8  1  0
 11 10  1  0
 12 13  2  0
 12 11  1  0
 13  9  1  0
 14 19  1  0
 15 14  2  0
 17 16  1  0
 18 20  1  0
 18 17  1  6
 19 18  1  0
 20 22  1  0
 21 20  2  0
M  END
$$$$
