AHS.pdb
     RDKit          3D

 22 22  0  0  1  0  0  0  0  0999 V2000
   10.7126  -19.4621   18.7415 C   0  0  0  0  0  0  0  0  0  0  0  0
    9.8173  -18.2627   18.4829 C   0  0  2  0  0  0  0  0  0  0  0  0
   10.0904  -17.7554   17.1758 N   0  0  0  0  0  0  0  0  0  0  0  0
   10.1092  -17.2227   19.5028 C   0  0  0  0  0  0  0  0  0  0  0  0
   11.2806  -16.7583   19.5719 O   0  0  0  0  0  0  0  0  0  0  0  0
    9.0653  -16.7613   20.3909 N   0  0  0  0  0  0  0  0  0  0  0  0
    9.3083  -15.6850   21.2928 C   0  0  1  0  0  0  0  0  0  0  0  0
    8.3261  -14.5844   21.3157 C   0  0  0  0  0  0  0  0  0  0  0  0
    8.0968  -13.9856   19.9815 C   0  0  0  0  0  0  0  0  0  0  0  0
    8.5846  -12.8205   19.4348 C   0  0  0  0  0  0  0  0  0  0  0  0
    8.0842  -12.6658   18.1829 N   0  0  0  0  0  0  0  0  0  0  0  0
    7.2883  -13.7110   17.9269 C   0  0  0  0  0  0  0  0  0  0  0  0
    7.2898  -14.5074   18.9998 N   0  0  0  0  0  0  0  0  0  0  0  0
    9.6264  -16.2000   22.6687 C   0  0  0  0  0  0  0  0  0  0  0  0
    8.6618  -16.4096   23.4371 O   0  0  0  0  0  0  0  0  0  0  0  0
   12.3046  -18.9125   23.3700 O   0  0  0  0  0  0  0  0  0  0  0  0
   11.4107  -18.5293   24.3496 C   0  0  0  0  0  0  0  0  0  0  0  0
   11.2287  -17.0358   24.4256 C   0  0  2  0  0  0  0  0  0  0  0  0
   10.9309  -16.4553   23.1323 N   0  0  0  0  0  0  0  0  0  0  0  0
   12.4420  -16.4187   25.0194 C   0  0  0  0  0  0  0  0  0  0  0  0
   13.1141  -15.5439   24.4223 O   0  0  0  0  0  0  0  0  0  0  0  0
   12.8679  -16.8076   26.2801 O   0  0  0  0  0  0  0  0  0  0  0  0
  2  1  1  1
  2  4  1  0
  3  2  1  0
  4  5  2  0
  4  6  1  0
  6  7  1  0
  7  8  1  1
  7 14  1  0
  9 10  2  0
  9  8  1  0
 11 10  1  0
 12 13  2  0
 12 11  1  0
 13  9  1  0
 14 19  1  0
 15 14  2  0
 17 16  1  0
 18 20  1  0
 18 17  1  6
 19 18  1  0
 20 22  1  0
 21 20  2  0
M  END
$$$$
