AHS.pdb
     RDKit          3D

 22 22  0  0  1  0  0  0  0  0999 V2000
   11.9342  -18.5530   16.2936 C   0  0  0  0  0  0  0  0  0  0  0  0
   11.3820  -17.1957   15.8941 C   0  0  2  0  0  0  0  0  0  0  0  0
   11.9935  -16.7905   14.6684 N   0  0  0  0  0  0  0  0  0  0  0  0
   11.6992  -16.2187   16.9674 C   0  0  0  0  0  0  0  0  0  0  0  0
   12.6974  -15.4613   16.8173 O   0  0  0  0  0  0  0  0  0  0  0  0
   10.8744  -16.1472   18.1530 N   0  0  0  0  0  0  0  0  0  0  0  0
   11.2385  -15.2945   19.2354 C   0  0  1  0  0  0  0  0  0  0  0  0
   10.1554  -14.8146   20.1147 C   0  0  0  0  0  0  0  0  0  0  0  0
    9.1329  -14.0230   19.3943 C   0  0  0  0  0  0  0  0  0  0  0  0
    9.0827  -13.6244   18.0778 C   0  0  0  0  0  0  0  0  0  0  0  0
    7.9588  -12.8926   17.8709 N   0  0  0  0  0  0  0  0  0  0  0  0
    7.2967  -12.8200   19.0319 C   0  0  0  0  0  0  0  0  0  0  0  0
    7.9934  -13.4949   19.9509 N   0  0  0  0  0  0  0  0  0  0  0  0
   12.3924  -15.8709   20.0072 C   0  0  0  0  0  0  0  0  0  0  0  0
   12.3281  -17.0827   20.3105 O   0  0  0  0  0  0  0  0  0  0  0  0
   15.8434  -13.6083   21.1506 O   0  0  0  0  0  0  0  0  0  0  0  0
   15.9350  -14.9424   20.8080 C   0  0  0  0  0  0  0  0  0  0  0  0
   14.6661  -15.7067   21.0824 C   0  0  2  0  0  0  0  0  0  0  0  0
   13.5242  -15.1322   20.4010 N   0  0  0  0  0  0  0  0  0  0  0  0
   14.4343  -15.7718   22.5478 C   0  0  0  0  0  0  0  0  0  0  0  0
   13.3863  -15.3385   23.0841 O   0  0  0  0  0  0  0  0  0  0  0  0
   15.3976  -16.3278   23.3753 O   0  0  0  0  0  0  0  0  0  0  0  0
  2  1  1  1
  2  4  1  0
  3  2  1  0
  4  5  2  0
  4  6  1  0
  6  7  1  0
  7  8  1  1
  7 14  1  0
  9 10  2  0
  9  8  1  0
 11 10  1  0
 12 13  2  0
 12 11  1  0
 13  9  1  0
 14 19  1  0
 15 14  2  0
 17 16  1  0
 18 20  1  0
 18 17  1  1
 19 18  1  0
 20 22  1  0
 21 20  2  0
M  END
$$$$
