AHS.pdb
     RDKit          3D

 22 22  0  0  1  0  0  0  0  0999 V2000
   10.3100  -19.8863   15.3537 C   0  0  0  0  0  0  0  0  0  0  0  0
   10.0072  -18.4032   15.2290 C   0  0  2  0  0  0  0  0  0  0  0  0
   10.5520  -17.9220   13.9994 N   0  0  0  0  0  0  0  0  0  0  0  0
   10.6322  -17.6925   16.3742 C   0  0  0  0  0  0  0  0  0  0  0  0
   11.7672  -17.1657   16.2099 O   0  0  0  0  0  0  0  0  0  0  0  0
    9.9446  -17.6131   17.6440 N   0  0  0  0  0  0  0  0  0  0  0  0
   10.5468  -16.9466   18.7505 C   0  0  1  0  0  0  0  0  0  0  0  0
    9.6484  -16.2701   19.7054 C   0  0  0  0  0  0  0  0  0  0  0  0
    8.9465  -15.1079   19.1157 C   0  0  0  0  0  0  0  0  0  0  0  0
    9.2143  -14.3967   17.9681 C   0  0  0  0  0  0  0  0  0  0  0  0
    8.3098  -13.3935   17.8380 N   0  0  0  0  0  0  0  0  0  0  0  0
    7.4746  -13.4558   18.8821 C   0  0  0  0  0  0  0  0  0  0  0  0
    7.8489  -14.4806   19.6535 N   0  0  0  0  0  0  0  0  0  0  0  0
   11.5458  -17.8378   19.4340 C   0  0  0  0  0  0  0  0  0  0  0  0
   11.1172  -18.9060   19.9237 O   0  0  0  0  0  0  0  0  0  0  0  0
   15.3098  -18.3463   18.1996 O   0  0  0  0  0  0  0  0  0  0  0  0
   14.6797  -19.1833   19.0984 C   0  0  0  0  0  0  0  0  0  0  0  0
   13.8899  -18.4360   20.1412 C   0  0  2  0  0  0  0  0  0  0  0  0
   12.9167  -17.5399   19.5510 N   0  0  0  0  0  0  0  0  0  0  0  0
   14.8206  -17.6986   21.0330 C   0  0  0  0  0  0  0  0  0  0  0  0
   14.7534  -16.4569   21.1983 O   0  0  0  0  0  0  0  0  0  0  0  0
   15.8094  -18.3862   21.7195 O   0  0  0  0  0  0  0  0  0  0  0  0
  2  1  1  1
  2  4  1  0
  3  2  1  0
  4  5  2  0
  4  6  1  0
  6  7  1  0
  7  8  1  1
  7 14  1  0
  9 10  2  0
  9  8  1  0
 11 10  1  0
 12 13  2  0
 12 11  1  0
 13  9  1  0
 14 19  1  0
 15 14  2  0
 17 16  1  0
 18 20  1  0
 18 17  1  6
 19 18  1  0
 20 22  1  0
 21 20  2  0
M  END
$$$$
