AHS.pdb
     RDKit          3D

 22 22  0  0  1  0  0  0  0  0999 V2000
    8.2258  -12.4956   20.2989 C   0  0  0  0  0  0  0  0  0  0  0  0
    8.5978  -13.4831   19.2065 C   0  0  2  0  0  0  0  0  0  0  0  0
    7.4576  -13.7037   18.3749 N   0  0  0  0  0  0  0  0  0  0  0  0
    9.0178  -14.7588   19.8417 C   0  0  0  0  0  0  0  0  0  0  0  0
    8.1267  -15.5868   20.1779 O   0  0  0  0  0  0  0  0  0  0  0  0
   10.4201  -15.0335   20.0643 N   0  0  0  0  0  0  0  0  0  0  0  0
   10.8325  -16.2814   20.6155 C   0  0  1  0  0  0  0  0  0  0  0  0
   11.9087  -17.0091   19.9163 C   0  0  0  0  0  0  0  0  0  0  0  0
   11.4773  -17.5720   18.6170 C   0  0  0  0  0  0  0  0  0  0  0  0
   10.3573  -18.3037   18.2936 C   0  0  0  0  0  0  0  0  0  0  0  0
   10.3931  -18.6240   16.9754 N   0  0  0  0  0  0  0  0  0  0  0  0
   11.5151  -18.1092   16.4582 C   0  0  0  0  0  0  0  0  0  0  0  0
   12.1714  -17.4767   17.4353 N   0  0  0  0  0  0  0  0  0  0  0  0
   11.0878  -16.1573   22.0916 C   0  0  0  0  0  0  0  0  0  0  0  0
   11.7984  -15.1998   22.4697 O   0  0  0  0  0  0  0  0  0  0  0  0
    8.9164  -18.2915   24.9550 O   0  0  0  0  0  0  0  0  0  0  0  0
    9.6120  -17.1527   25.3081 C   0  0  0  0  0  0  0  0  0  0  0  0
   10.8494  -16.9396   24.4757 C   0  0  2  0  0  0  0  0  0  0  0  0
   10.5782  -17.0464   23.0567 N   0  0  0  0  0  0  0  0  0  0  0  0
   11.8982  -17.9053   24.8914 C   0  0  0  0  0  0  0  0  0  0  0  0
   12.3782  -18.7582   24.1066 O   0  0  0  0  0  0  0  0  0  0  0  0
   12.3813  -17.8832   26.1907 O   0  0  0  0  0  0  0  0  0  0  0  0
  2  1  1  1
  2  4  1  0
  3  2  1  0
  4  5  2  0
  4  6  1  0
  6  7  1  0
  7  8  1  6
  7 14  1  0
  9 10  2  0
  9  8  1  0
 11 10  1  0
 12 13  2  0
 12 11  1  0
 13  9  1  0
 14 19  1  0
 15 14  2  0
 17 16  1  0
 18 20  1  0
 18 17  1  1
 19 18  1  0
 20 22  1  0
 21 20  2  0
M  END
$$$$
