AHS.pdb
     RDKit          3D

 22 22  0  0  1  0  0  0  0  0999 V2000
   10.9292  -18.1989   16.5937 C   0  0  0  0  0  0  0  0  0  0  0  0
   10.7722  -18.9458   17.9069 C   0  0  2  0  0  0  0  0  0  0  0  0
    9.5372  -19.6633   17.8858 N   0  0  0  0  0  0  0  0  0  0  0  0
   10.7676  -17.9590   19.0175 C   0  0  0  0  0  0  0  0  0  0  0  0
   11.8274  -17.3175   19.2582 O   0  0  0  0  0  0  0  0  0  0  0  0
    9.5686  -17.7477   19.7980 N   0  0  0  0  0  0  0  0  0  0  0  0
    9.5980  -16.9174   20.9560 C   0  0  1  0  0  0  0  0  0  0  0  0
    8.3999  -16.1040   21.2378 C   0  0  0  0  0  0  0  0  0  0  0  0
    8.1161  -15.1065   20.1815 C   0  0  0  0  0  0  0  0  0  0  0  0
    8.8704  -14.7224   19.0962 C   0  0  0  0  0  0  0  0  0  0  0  0
    8.2128  -13.7539   18.4101 N   0  0  0  0  0  0  0  0  0  0  0  0
    7.0562  -13.5172   19.0409 C   0  0  0  0  0  0  0  0  0  0  0  0
    6.9898  -14.3237   20.1042 N   0  0  0  0  0  0  0  0  0  0  0  0
   10.0636  -17.6903   22.1581 C   0  0  0  0  0  0  0  0  0  0  0  0
    9.7982  -18.9124   22.1893 O   0  0  0  0  0  0  0  0  0  0  0  0
   13.3207  -19.4742   24.4588 O   0  0  0  0  0  0  0  0  0  0  0  0
   12.6422  -18.6733   23.5623 C   0  0  0  0  0  0  0  0  0  0  0  0
   11.5235  -17.8935   24.2027 C   0  0  2  0  0  0  0  0  0  0  0  0
   10.7713  -17.1223   23.2344 N   0  0  0  0  0  0  0  0  0  0  0  0
   12.0763  -17.0179   25.2671 C   0  0  0  0  0  0  0  0  0  0  0  0
   12.0065  -15.7665   25.2141 O   0  0  0  0  0  0  0  0  0  0  0  0
   12.6978  -17.5810   26.3710 O   0  0  0  0  0  0  0  0  0  0  0  0
  2  1  1  6
  2  4  1  0
  3  2  1  0
  4  5  2  0
  4  6  1  0
  6  7  1  0
  7  8  1  1
  7 14  1  0
  9 10  2  0
  9  8  1  0
 11 10  1  0
 12 13  2  0
 12 11  1  0
 13  9  1  0
 14 19  1  0
 15 14  2  0
 17 16  1  0
 18 20  1  0
 18 17  1  6
 19 18  1  0
 20 22  1  0
 21 20  2  0
M  END
$$$$
