AMR.pdb
     RDKit          3D

 25 24  0  0  1  0  0  0  0  0999 V2000
    7.9544  -12.1264   20.0441 C   0  0  0  0  0  0  0  0  0  0  0  0
    7.8895  -13.6367   20.3053 C   0  0  2  0  0  0  0  0  0  0  0  0
    6.5385  -14.0978   20.3653 N   0  0  0  0  0  0  0  0  0  0  0  0
    8.5291  -13.8579   21.6344 C   0  0  0  0  0  0  0  0  0  0  0  0
    9.7551  -13.7409   21.7354 O   0  0  0  0  0  0  0  0  0  0  0  0
    6.4285  -11.7308   27.7150 C   0  0  0  0  0  0  0  0  0  0  0  0
    5.6385  -11.9744   26.1449 S   0  0  0  0  0  0  0  0  0  0  0  0
    6.6300  -12.7170   24.8520 C   0  0  0  0  0  0  0  0  0  0  0  0
    7.4802  -13.8647   25.2348 C   0  0  0  0  0  0  0  0  0  0  0  0
    8.2504  -14.4323   24.0991 C   0  0  2  0  0  0  0  0  0  0  0  0
    7.7773  -14.1974   22.7831 N   0  0  0  0  0  0  0  0  0  0  0  0
    8.7604  -15.8078   24.3151 C   0  0  0  0  0  0  0  0  0  0  0  0
    8.0014  -16.8169   24.3463 O   0  0  0  0  0  0  0  0  0  0  0  0
   14.5633  -14.6796   20.5697 N   0  0  0  0  0  0  0  0  0  0  0  0
   13.3026  -14.9627   20.0085 C   0  0  0  0  0  0  0  0  0  0  0  0
   12.9555  -14.4208   18.8671 N   0  0  0  0  0  0  0  0  0  0  0  0
   12.4188  -15.8438   20.7015 N   0  0  0  0  0  0  0  0  0  0  0  0
   12.8982  -16.5729   21.8409 C   0  0  0  0  0  0  0  0  0  0  0  0
   11.7103  -17.3313   22.4558 C   0  0  0  0  0  0  0  0  0  0  0  0
   12.0050  -17.4650   23.9074 C   0  0  0  0  0  0  0  0  0  0  0  0
   10.7626  -17.3043   24.7383 C   0  0  2  0  0  0  0  0  0  0  0  0
   10.1541  -15.9876   24.4922 N   0  0  0  0  0  0  0  0  0  0  0  0
   11.0011  -17.4772   26.1863 C   0  0  0  0  0  0  0  0  0  0  0  0
   10.8715  -16.4677   26.9457 O   0  0  0  0  0  0  0  0  0  0  0  0
   11.3574  -18.6518   26.8134 O   0  0  0  0  0  0  0  0  0  0  0  0
  2  1  1  1
  2  3  1  0
  4  2  1  0
  4  5  2  0
  6  7  1  0
  7  8  1  0
  8  9  1  0
 10  9  1  1
 10 11  1  0
 11  4  1  0
 12 13  2  0
 12 10  1  0
 15 14  1  0
 16 15  2  0
 17 15  1  0
 18 17  1  0
 19 18  1  0
 20 19  1  0
 21 22  1  0
 21 20  1  6
 22 12  1  0
 23 21  1  0
 24 23  2  0
 25 23  1  0
M  END
$$$$
