AMR.pdb
     RDKit          3D

 25 24  0  0  1  0  0  0  0  0999 V2000
    7.5444  -12.7372   19.8464 C   0  0  0  0  0  0  0  0  0  0  0  0
    7.6336  -14.2087   20.2707 C   0  0  2  0  0  0  0  0  0  0  0  0
    6.3428  -14.8203   20.3057 N   0  0  0  0  0  0  0  0  0  0  0  0
    8.2009  -14.2113   21.6501 C   0  0  0  0  0  0  0  0  0  0  0  0
    9.3918  -13.9223   21.8079 O   0  0  0  0  0  0  0  0  0  0  0  0
    6.6114  -11.3162   27.5571 C   0  0  0  0  0  0  0  0  0  0  0  0
    5.7165  -11.7018   26.0741 S   0  0  0  0  0  0  0  0  0  0  0  0
    6.5961  -12.6326   24.8228 C   0  0  0  0  0  0  0  0  0  0  0  0
    7.0334  -13.9977   25.1863 C   0  0  0  0  0  0  0  0  0  0  0  0
    7.8433  -14.6577   24.1311 C   0  0  2  0  0  0  0  0  0  0  0  0
    7.4192  -14.5341   22.7836 N   0  0  0  0  0  0  0  0  0  0  0  0
    8.3420  -16.0100   24.4799 C   0  0  0  0  0  0  0  0  0  0  0  0
    7.5829  -17.0171   24.5498 O   0  0  0  0  0  0  0  0  0  0  0  0
   16.0266  -19.5322   22.4803 N   0  0  0  0  0  0  0  0  0  0  0  0
   15.3913  -20.5545   23.2122 C   0  0  0  0  0  0  0  0  0  0  0  0
   15.9539  -21.7332   23.3177 N   0  0  0  0  0  0  0  0  0  0  0  0
   14.1338  -20.2834   23.8312 N   0  0  0  0  0  0  0  0  0  0  0  0
   13.5293  -18.9923   23.6665 C   0  0  0  0  0  0  0  0  0  0  0  0
   12.2449  -18.9560   24.5112 C   0  0  0  0  0  0  0  0  0  0  0  0
   11.6128  -17.6342   24.2558 C   0  0  0  0  0  0  0  0  0  0  0  0
   10.3353  -17.4759   25.0320 C   0  0  2  0  0  0  0  0  0  0  0  0
    9.7245  -16.1690   24.7433 N   0  0  0  0  0  0  0  0  0  0  0  0
   10.5148  -17.6277   26.4908 C   0  0  0  0  0  0  0  0  0  0  0  0
   10.5619  -16.5800   27.2069 O   0  0  0  0  0  0  0  0  0  0  0  0
   10.6382  -18.8199   27.1715 O   0  0  0  0  0  0  0  0  0  0  0  0
  2  1  1  1
  2  3  1  0
  4  2  1  0
  4  5  2  0
  6  7  1  0
  7  8  1  0
  8  9  1  0
 10  9  1  1
 10 11  1  0
 11  4  1  0
 12 13  2  0
 12 10  1  0
 15 14  1  0
 16 15  2  0
 17 15  1  0
 18 17  1  0
 19 18  1  0
 20 19  1  0
 21 22  1  0
 21 20  1  6
 22 12  1  0
 23 21  1  0
 24 23  2  0
 25 23  1  0
M  END
$$$$
