AMR.pdb
     RDKit          3D

 25 24  0  0  1  0  0  0  0  0999 V2000
    7.6110  -15.5439   19.3624 C   0  0  0  0  0  0  0  0  0  0  0  0
    8.0873  -16.4502   20.5048 C   0  0  2  0  0  0  0  0  0  0  0  0
    7.0192  -17.2499   21.0158 N   0  0  0  0  0  0  0  0  0  0  0  0
    8.5634  -15.5413   21.5873 C   0  0  0  0  0  0  0  0  0  0  0  0
    9.5722  -14.8550   21.3919 O   0  0  0  0  0  0  0  0  0  0  0  0
    6.4042  -11.2786   27.9915 C   0  0  0  0  0  0  0  0  0  0  0  0
    5.9632  -12.3432   26.6421 S   0  0  0  0  0  0  0  0  0  0  0  0
    7.3104  -13.0042   25.6654 C   0  0  0  0  0  0  0  0  0  0  0  0
    6.9498  -13.8969   24.5429 C   0  0  0  0  0  0  0  0  0  0  0  0
    8.1267  -14.5040   23.8711 C   0  0  2  0  0  0  0  0  0  0  0  0
    7.8971  -15.4396   22.8306 N   0  0  0  0  0  0  0  0  0  0  0  0
    9.2399  -14.8773   24.7768 C   0  0  0  0  0  0  0  0  0  0  0  0
    9.2316  -14.6074   26.0107 O   0  0  0  0  0  0  0  0  0  0  0  0
    9.5512  -20.5899   29.6838 N   0  0  0  0  0  0  0  0  0  0  0  0
   10.8538  -20.5734   29.1477 C   0  0  0  0  0  0  0  0  0  0  0  0
   11.8925  -20.6149   29.9454 N   0  0  0  0  0  0  0  0  0  0  0  0
   11.0183  -20.5114   27.7311 N   0  0  0  0  0  0  0  0  0  0  0  0
   10.2445  -19.5720   26.9706 C   0  0  0  0  0  0  0  0  0  0  0  0
   11.1943  -18.4775   26.4564 C   0  0  0  0  0  0  0  0  0  0  0  0
   10.3761  -17.5845   25.5933 C   0  0  0  0  0  0  0  0  0  0  0  0
   11.2007  -16.4655   25.0210 C   0  0  2  0  0  0  0  0  0  0  0  0
   10.3513  -15.5629   24.2284 N   0  0  0  0  0  0  0  0  0  0  0  0
   12.3310  -16.9361   24.1936 C   0  0  0  0  0  0  0  0  0  0  0  0
   12.1829  -16.9755   22.9330 O   0  0  0  0  0  0  0  0  0  0  0  0
   13.5611  -17.3458   24.6614 O   0  0  0  0  0  0  0  0  0  0  0  0
  2  1  1  6
  2  3  1  0
  4  2  1  0
  4  5  2  0
  6  7  1  0
  7  8  1  0
  8  9  1  0
 10  9  1  1
 10 11  1  0
 11  4  1  0
 12 13  2  0
 12 10  1  0
 15 14  1  0
 16 15  2  0
 17 15  1  0
 18 17  1  0
 19 18  1  0
 20 19  1  0
 21 22  1  0
 21 20  1  6
 22 12  1  0
 23 21  1  0
 24 23  2  0
 25 23  1  0
M  END
$$$$
