AMR.pdb
     RDKit          3D

 25 24  0  0  1  0  0  0  0  0999 V2000
    7.5859  -12.7803   19.6901 C   0  0  0  0  0  0  0  0  0  0  0  0
    8.0391  -14.1575   20.1916 C   0  0  2  0  0  0  0  0  0  0  0  0
    6.9730  -15.1074   20.1410 N   0  0  0  0  0  0  0  0  0  0  0  0
    8.4449  -13.9702   21.6145 C   0  0  0  0  0  0  0  0  0  0  0  0
    9.4874  -13.3556   21.8637 O   0  0  0  0  0  0  0  0  0  0  0  0
    6.8356  -10.1255   27.2109 C   0  0  0  0  0  0  0  0  0  0  0  0
    6.7265  -11.8723   26.9187 S   0  0  0  0  0  0  0  0  0  0  0  0
    7.0627  -12.4316   25.2513 C   0  0  0  0  0  0  0  0  0  0  0  0
    6.9248  -13.8805   24.9895 C   0  0  0  0  0  0  0  0  0  0  0  0
    7.9650  -14.4158   24.0750 C   0  0  2  0  0  0  0  0  0  0  0  0
    7.6744  -14.4738   22.6883 N   0  0  0  0  0  0  0  0  0  0  0  0
    8.6940  -15.6027   24.5838 C   0  0  0  0  0  0  0  0  0  0  0  0
    8.9129  -15.7899   25.8136 O   0  0  0  0  0  0  0  0  0  0  0  0
    5.0884  -22.1302   22.9392 N   0  0  0  0  0  0  0  0  0  0  0  0
    5.6783  -22.3716   24.1955 C   0  0  0  0  0  0  0  0  0  0  0  0
    5.1850  -23.2925   24.9863 N   0  0  0  0  0  0  0  0  0  0  0  0
    6.8139  -21.6000   24.5864 N   0  0  0  0  0  0  0  0  0  0  0  0
    7.2751  -20.5407   23.7350 C   0  0  0  0  0  0  0  0  0  0  0  0
    8.5639  -19.9653   24.3454 C   0  0  0  0  0  0  0  0  0  0  0  0
    9.0889  -18.9798   23.3631 C   0  0  0  0  0  0  0  0  0  0  0  0
    9.7760  -17.8320   24.0486 C   0  0  2  0  0  0  0  0  0  0  0  0
    9.1590  -16.5581   23.6473 N   0  0  0  0  0  0  0  0  0  0  0  0
   11.2299  -17.7817   23.7894 C   0  0  0  0  0  0  0  0  0  0  0  0
   11.6699  -16.9108   22.9767 O   0  0  0  0  0  0  0  0  0  0  0  0
   12.1818  -18.6030   24.3545 O   0  0  0  0  0  0  0  0  0  0  0  0
  2  1  1  1
  2  3  1  0
  4  2  1  0
  4  5  2  0
  6  7  1  0
  7  8  1  0
  8  9  1  0
 10  9  1  1
 10 11  1  0
 11  4  1  0
 12 13  2  0
 12 10  1  0
 15 14  1  0
 16 15  2  0
 17 15  1  0
 18 17  1  0
 19 18  1  0
 20 19  1  0
 21 22  1  0
 21 20  1  6
 22 12  1  0
 23 21  1  0
 24 23  2  0
 25 23  1  0
M  END
$$$$
