AMR.pdb
     RDKit          3D

 25 24  0  0  1  0  0  0  0  0999 V2000
    8.0527  -12.9841   19.0115 C   0  0  0  0  0  0  0  0  0  0  0  0
    7.6927  -14.3117   19.6907 C   0  0  2  0  0  0  0  0  0  0  0  0
    6.2789  -14.5155   19.7205 N   0  0  0  0  0  0  0  0  0  0  0  0
    8.1904  -14.2110   21.0931 C   0  0  0  0  0  0  0  0  0  0  0  0
    9.4071  -14.2651   21.3017 O   0  0  0  0  0  0  0  0  0  0  0  0
    7.2782  -11.4943   28.4840 C   0  0  0  0  0  0  0  0  0  0  0  0
    6.6048  -11.6797   26.8528 S   0  0  0  0  0  0  0  0  0  0  0  0
    7.4055  -12.8710   25.7825 C   0  0  0  0  0  0  0  0  0  0  0  0
    6.8853  -12.9892   24.4033 C   0  0  0  0  0  0  0  0  0  0  0  0
    7.6465  -13.9515   23.5668 C   0  0  2  0  0  0  0  0  0  0  0  0
    7.3141  -14.0555   22.1922 N   0  0  0  0  0  0  0  0  0  0  0  0
    7.9294  -15.2552   24.2144 C   0  0  0  0  0  0  0  0  0  0  0  0
    7.0171  -16.0711   24.5266 O   0  0  0  0  0  0  0  0  0  0  0  0
   13.6460  -18.6491   20.4191 N   0  0  0  0  0  0  0  0  0  0  0  0
   14.0264  -19.0180   21.7243 C   0  0  0  0  0  0  0  0  0  0  0  0
   15.1725  -19.6193   21.9288 N   0  0  0  0  0  0  0  0  0  0  0  0
   13.1466  -18.7262   22.8100 N   0  0  0  0  0  0  0  0  0  0  0  0
   11.8602  -19.3599   22.8666 C   0  0  0  0  0  0  0  0  0  0  0  0
   11.1305  -18.8465   24.1189 C   0  0  0  0  0  0  0  0  0  0  0  0
   10.6815  -17.4639   23.8049 C   0  0  0  0  0  0  0  0  0  0  0  0
    9.7058  -16.9561   24.8295 C   0  0  2  0  0  0  0  0  0  0  0  0
    9.2778  -15.5901   24.4897 N   0  0  0  0  0  0  0  0  0  0  0  0
   10.2395  -16.9797   26.2073 C   0  0  0  0  0  0  0  0  0  0  0  0
   10.6538  -15.8918   26.7145 O   0  0  0  0  0  0  0  0  0  0  0  0
   10.3350  -18.0893   27.0194 O   0  0  0  0  0  0  0  0  0  0  0  0
  2  1  1  6
  2  3  1  0
  4  2  1  0
  4  5  2  0
  6  7  1  0
  7  8  1  0
  8  9  1  0
 10  9  1  1
 10 11  1  0
 11  4  1  0
 12 13  2  0
 12 10  1  0
 15 14  1  0
 16 15  2  0
 17 15  1  0
 18 17  1  0
 19 18  1  0
 20 19  1  0
 21 22  1  0
 21 20  1  6
 22 12  1  0
 23 21  1  0
 24 23  2  0
 25 23  1  0
M  END
$$$$
