AMR.pdb
     RDKit          3D

 25 24  0  0  1  0  0  0  0  0999 V2000
    7.6621  -13.6080   18.9503 C   0  0  0  0  0  0  0  0  0  0  0  0
    7.9966  -14.8845   19.7326 C   0  0  2  0  0  0  0  0  0  0  0  0
    6.8441  -15.7130   19.8959 N   0  0  0  0  0  0  0  0  0  0  0  0
    8.4594  -14.4393   21.0788 C   0  0  0  0  0  0  0  0  0  0  0  0
    9.5290  -13.8276   21.1719 O   0  0  0  0  0  0  0  0  0  0  0  0
    7.2591  -11.2571   28.0286 C   0  0  0  0  0  0  0  0  0  0  0  0
    6.5672  -12.3510   26.8148 S   0  0  0  0  0  0  0  0  0  0  0  0
    7.4888  -12.5499   25.2926 C   0  0  0  0  0  0  0  0  0  0  0  0
    6.9417  -13.4959   24.2963 C   0  0  0  0  0  0  0  0  0  0  0  0
    7.9887  -14.2628   23.5747 C   0  0  2  0  0  0  0  0  0  0  0  0
    7.7131  -14.6949   22.2526 N   0  0  0  0  0  0  0  0  0  0  0  0
    8.7047  -15.2686   24.3961 C   0  0  0  0  0  0  0  0  0  0  0  0
    8.1053  -16.1946   25.0114 O   0  0  0  0  0  0  0  0  0  0  0  0
   12.1233  -21.0960   25.8115 N   0  0  0  0  0  0  0  0  0  0  0  0
   10.9225  -21.6726   25.3532 C   0  0  0  0  0  0  0  0  0  0  0  0
   10.6867  -22.9456   25.5548 N   0  0  0  0  0  0  0  0  0  0  0  0
    9.9760  -20.8499   24.6712 N   0  0  0  0  0  0  0  0  0  0  0  0
   10.4285  -19.9537   23.6457 C   0  0  0  0  0  0  0  0  0  0  0  0
   11.1708  -18.7898   24.3231 C   0  0  0  0  0  0  0  0  0  0  0  0
   10.3180  -17.5854   24.1389 C   0  0  0  0  0  0  0  0  0  0  0  0
   10.9754  -16.3548   24.6984 C   0  0  2  0  0  0  0  0  0  0  0  0
   10.1153  -15.1798   24.4885 N   0  0  0  0  0  0  0  0  0  0  0  0
   12.3143  -16.0969   24.1289 C   0  0  0  0  0  0  0  0  0  0  0  0
   13.3338  -16.3400   24.8458 O   0  0  0  0  0  0  0  0  0  0  0  0
   12.5768  -15.6085   22.8670 O   0  0  0  0  0  0  0  0  0  0  0  0
  2  1  1  6
  2  3  1  0
  4  2  1  0
  4  5  2  0
  6  7  1  0
  7  8  1  0
  8  9  1  0
 10  9  1  1
 10 11  1  0
 11  4  1  0
 12 13  2  0
 12 10  1  0
 15 14  1  0
 16 15  2  0
 17 15  1  0
 18 17  1  0
 19 18  1  0
 20 19  1  0
 21 22  1  0
 21 20  1  6
 22 12  1  0
 23 21  1  0
 24 23  2  0
 25 23  1  0
M  END
$$$$
