AMR.pdb
     RDKit          3D

 25 24  0  0  1  0  0  0  0  0999 V2000
    8.2457  -19.6162   18.1854 C   0  0  0  0  0  0  0  0  0  0  0  0
    8.5114  -18.2495   17.5413 C   0  0  2  0  0  0  0  0  0  0  0  0
    9.3487  -18.3698   16.3899 N   0  0  0  0  0  0  0  0  0  0  0  0
    9.2251  -17.4363   18.5680 C   0  0  0  0  0  0  0  0  0  0  0  0
   10.4493  -17.5581   18.6829 O   0  0  0  0  0  0  0  0  0  0  0  0
    6.8506  -11.7285   21.7922 C   0  0  0  0  0  0  0  0  0  0  0  0
    6.8886  -12.2556   20.0983 S   0  0  0  0  0  0  0  0  0  0  0  0
    7.9059  -13.6800   19.7216 C   0  0  0  0  0  0  0  0  0  0  0  0
    8.3431  -14.5125   20.8630 C   0  0  0  0  0  0  0  0  0  0  0  0
    9.0866  -15.7308   20.4533 C   0  0  2  0  0  0  0  0  0  0  0  0
    8.5453  -16.5301   19.4147 N   0  0  0  0  0  0  0  0  0  0  0  0
    9.6672  -16.5140   21.5706 C   0  0  0  0  0  0  0  0  0  0  0  0
    9.0039  -17.3758   22.2130 O   0  0  0  0  0  0  0  0  0  0  0  0
   12.1891  -23.6149   22.1590 N   0  0  0  0  0  0  0  0  0  0  0  0
   12.9938  -23.1633   23.2234 C   0  0  0  0  0  0  0  0  0  0  0  0
   13.5995  -24.0269   24.0008 N   0  0  0  0  0  0  0  0  0  0  0  0
   13.1353  -21.7589   23.4364 N   0  0  0  0  0  0  0  0  0  0  0  0
   12.3726  -20.8429   22.6371 C   0  0  0  0  0  0  0  0  0  0  0  0
   12.7987  -19.4139   23.0121 C   0  0  0  0  0  0  0  0  0  0  0  0
   12.0050  -18.4998   22.1481 C   0  0  0  0  0  0  0  0  0  0  0  0
   11.7748  -17.1729   22.8161 C   0  0  2  0  0  0  0  0  0  0  0  0
   11.0187  -16.2801   21.9241 N   0  0  0  0  0  0  0  0  0  0  0  0
   13.0240  -16.5075   23.2406 C   0  0  0  0  0  0  0  0  0  0  0  0
   13.7704  -17.1003   24.0797 O   0  0  0  0  0  0  0  0  0  0  0  0
   13.4743  -15.2789   22.8074 O   0  0  0  0  0  0  0  0  0  0  0  0
  2  1  1  1
  2  3  1  0
  4  2  1  0
  4  5  2  0
  6  7  1  0
  7  8  1  0
  8  9  1  0
 10  9  1  1
 10 11  1  0
 11  4  1  0
 12 13  2  0
 12 10  1  0
 15 14  1  0
 16 15  2  0
 17 15  1  0
 18 17  1  0
 19 18  1  0
 20 19  1  0
 21 22  1  0
 21 20  1  6
 22 12  1  0
 23 21  1  0
 24 23  2  0
 25 23  1  0
M  END
$$$$
