AMR.pdb
     RDKit          3D

 25 24  0  0  1  0  0  0  0  0999 V2000
    5.4474  -19.5559   20.8663 C   0  0  0  0  0  0  0  0  0  0  0  0
    5.8875  -19.1885   22.2892 C   0  0  2  0  0  0  0  0  0  0  0  0
    4.9123  -18.3739   22.9426 N   0  0  0  0  0  0  0  0  0  0  0  0
    7.1475  -18.4032   22.1463 C   0  0  0  0  0  0  0  0  0  0  0  0
    8.1360  -18.9447   21.6401 O   0  0  0  0  0  0  0  0  0  0  0  0
    7.6242  -11.7084   21.1348 C   0  0  0  0  0  0  0  0  0  0  0  0
    7.2640  -13.0722   20.0583 S   0  0  0  0  0  0  0  0  0  0  0  0
    7.5120  -14.7138   20.7289 C   0  0  0  0  0  0  0  0  0  0  0  0
    8.1763  -14.8063   22.0468 C   0  0  0  0  0  0  0  0  0  0  0  0
    8.3766  -16.2032   22.5090 C   0  0  2  0  0  0  0  0  0  0  0  0
    7.2470  -17.0581   22.5717 N   0  0  0  0  0  0  0  0  0  0  0  0
    9.3067  -16.3554   23.6539 C   0  0  0  0  0  0  0  0  0  0  0  0
    9.0512  -15.8967   24.8027 O   0  0  0  0  0  0  0  0  0  0  0  0
   13.5524  -19.9186   29.2664 N   0  0  0  0  0  0  0  0  0  0  0  0
   12.1574  -19.9435   29.4610 C   0  0  0  0  0  0  0  0  0  0  0  0
   11.6610  -20.3544   30.6019 N   0  0  0  0  0  0  0  0  0  0  0  0
   11.3031  -19.5159   28.4003 N   0  0  0  0  0  0  0  0  0  0  0  0
   11.5878  -19.9264   27.0549 C   0  0  0  0  0  0  0  0  0  0  0  0
   12.2238  -18.7363   26.3177 C   0  0  0  0  0  0  0  0  0  0  0  0
   11.5157  -18.6238   25.0147 C   0  0  0  0  0  0  0  0  0  0  0  0
   11.5389  -17.2133   24.4957 C   0  0  2  0  0  0  0  0  0  0  0  0
   10.5265  -17.0434   23.4418 N   0  0  0  0  0  0  0  0  0  0  0  0
   12.8619  -16.8006   23.9830 C   0  0  0  0  0  0  0  0  0  0  0  0
   13.8484  -16.8032   24.7826 O   0  0  0  0  0  0  0  0  0  0  0  0
   13.1425  -16.4044   22.6930 O   0  0  0  0  0  0  0  0  0  0  0  0
  2  1  1  6
  2  3  1  0
  4  2  1  0
  4  5  2  0
  6  7  1  0
  7  8  1  0
  8  9  1  0
 10  9  1  1
 10 11  1  0
 11  4  1  0
 12 13  2  0
 12 10  1  0
 15 14  1  0
 16 15  2  0
 17 15  1  0
 18 17  1  0
 19 18  1  0
 20 19  1  0
 21 22  1  0
 21 20  1  6
 22 12  1  0
 23 21  1  0
 24 23  2  0
 25 23  1  0
M  END
$$$$
