AMR.pdb
     RDKit          3D

 25 24  0  0  1  0  0  0  0  0999 V2000
    7.7604  -12.5836   19.9324 C   0  0  0  0  0  0  0  0  0  0  0  0
    7.9173  -14.0680   20.2866 C   0  0  2  0  0  0  0  0  0  0  0  0
    6.6619  -14.7489   20.2471 N   0  0  0  0  0  0  0  0  0  0  0  0
    8.4401  -14.1105   21.6828 C   0  0  0  0  0  0  0  0  0  0  0  0
    9.5903  -13.7169   21.9035 O   0  0  0  0  0  0  0  0  0  0  0  0
    6.4877  -10.1050   26.5283 C   0  0  0  0  0  0  0  0  0  0  0  0
    6.3979  -11.8771   26.5081 S   0  0  0  0  0  0  0  0  0  0  0  0
    7.2209  -12.7089   25.1529 C   0  0  0  0  0  0  0  0  0  0  0  0
    7.2399  -14.1872   25.1860 C   0  0  0  0  0  0  0  0  0  0  0  0
    8.0631  -14.7904   24.1073 C   0  0  2  0  0  0  0  0  0  0  0  0
    7.6611  -14.5872   22.7628 N   0  0  0  0  0  0  0  0  0  0  0  0
    8.5494  -16.1633   24.3857 C   0  0  0  0  0  0  0  0  0  0  0  0
    7.7812  -17.1658   24.4030 O   0  0  0  0  0  0  0  0  0  0  0  0
   15.0172  -20.9996   22.0203 N   0  0  0  0  0  0  0  0  0  0  0  0
   15.3095  -20.9602   23.3977 C   0  0  0  0  0  0  0  0  0  0  0  0
   16.0447  -21.8996   23.9399 N   0  0  0  0  0  0  0  0  0  0  0  0
   14.7938  -19.8862   24.1841 N   0  0  0  0  0  0  0  0  0  0  0  0
   13.9052  -18.9334   23.5823 C   0  0  0  0  0  0  0  0  0  0  0  0
   12.5456  -19.0340   24.2935 C   0  0  0  0  0  0  0  0  0  0  0  0
   11.9082  -17.6960   24.1698 C   0  0  0  0  0  0  0  0  0  0  0  0
   10.5409  -17.6780   24.7942 C   0  0  2  0  0  0  0  0  0  0  0  0
    9.9303  -16.3483   24.6408 N   0  0  0  0  0  0  0  0  0  0  0  0
   10.5449  -18.0597   26.2217 C   0  0  0  0  0  0  0  0  0  0  0  0
   10.4616  -17.1406   27.0941 O   0  0  0  0  0  0  0  0  0  0  0  0
   10.6306  -19.3435   26.7161 O   0  0  0  0  0  0  0  0  0  0  0  0
  2  1  1  1
  2  3  1  0
  4  2  1  0
  4  5  2  0
  6  7  1  0
  7  8  1  0
  8  9  1  0
 10  9  1  1
 10 11  1  0
 11  4  1  0
 12 13  2  0
 12 10  1  0
 15 14  1  0
 16 15  2  0
 17 15  1  0
 18 17  1  0
 19 18  1  0
 20 19  1  0
 21 22  1  0
 21 20  1  1
 22 12  1  0
 23 21  1  0
 24 23  2  0
 25 23  1  0
M  END
$$$$
