AMR.pdb
     RDKit          3D

 25 24  0  0  1  0  0  0  0  0999 V2000
    6.8967  -17.0400   20.1761 C   0  0  0  0  0  0  0  0  0  0  0  0
    7.7791  -15.7919   20.0461 C   0  0  2  0  0  0  0  0  0  0  0  0
    8.8708  -16.0161   19.1520 N   0  0  0  0  0  0  0  0  0  0  0  0
    8.3246  -15.5232   21.4080 C   0  0  0  0  0  0  0  0  0  0  0  0
    9.3984  -16.0395   21.7352 O   0  0  0  0  0  0  0  0  0  0  0  0
    6.6817  -11.8503   28.1843 C   0  0  0  0  0  0  0  0  0  0  0  0
    7.2585  -11.5199   26.5391 S   0  0  0  0  0  0  0  0  0  0  0  0
    7.9771  -12.8960   25.6470 C   0  0  0  0  0  0  0  0  0  0  0  0
    7.3991  -13.2120   24.3230 C   0  0  0  0  0  0  0  0  0  0  0  0
    8.0374  -14.3800   23.6648 C   0  0  2  0  0  0  0  0  0  0  0  0
    7.6520  -14.6960   22.3373 N   0  0  0  0  0  0  0  0  0  0  0  0
    8.2158  -15.5675   24.5349 C   0  0  0  0  0  0  0  0  0  0  0  0
    7.2717  -16.3634   24.8004 O   0  0  0  0  0  0  0  0  0  0  0  0
   11.0247  -20.6637   21.7598 N   0  0  0  0  0  0  0  0  0  0  0  0
   12.3305  -20.1691   21.9465 C   0  0  0  0  0  0  0  0  0  0  0  0
   13.1940  -20.2071   20.9617 N   0  0  0  0  0  0  0  0  0  0  0  0
   12.6911  -19.6305   23.2183 N   0  0  0  0  0  0  0  0  0  0  0  0
   11.7462  -19.6742   24.2976 C   0  0  0  0  0  0  0  0  0  0  0  0
   10.8435  -18.4338   24.1915 C   0  0  0  0  0  0  0  0  0  0  0  0
   11.0691  -17.6443   25.4315 C   0  0  0  0  0  0  0  0  0  0  0  0
    9.8009  -16.9926   25.9074 C   0  0  2  0  0  0  0  0  0  0  0  0
    9.4981  -15.8107   25.0852 N   0  0  0  0  0  0  0  0  0  0  0  0
    9.8410  -16.6072   27.3334 C   0  0  0  0  0  0  0  0  0  0  0  0
    9.9555  -17.5236   28.2049 O   0  0  0  0  0  0  0  0  0  0  0  0
    9.7663  -15.3224   27.8270 O   0  0  0  0  0  0  0  0  0  0  0  0
  2  1  1  1
  2  3  1  0
  4  2  1  0
  4  5  2  0
  6  7  1  0
  7  8  1  0
  8  9  1  0
 10  9  1  1
 10 11  1  0
 11  4  1  0
 12 13  2  0
 12 10  1  0
 15 14  1  0
 16 15  2  0
 17 15  1  0
 18 17  1  0
 19 18  1  0
 20 19  1  0
 21 22  1  0
 21 20  1  6
 22 12  1  0
 23 21  1  0
 24 23  2  0
 25 23  1  0
M  END
$$$$
