AMR.pdb
     RDKit          3D

 25 24  0  0  1  0  0  0  0  0999 V2000
    4.0652  -18.3174   23.3146 C   0  0  0  0  0  0  0  0  0  0  0  0
    5.4853  -18.7627   23.6865 C   0  0  2  0  0  0  0  0  0  0  0  0
    5.5688  -19.1443   25.0609 N   0  0  0  0  0  0  0  0  0  0  0  0
    6.3650  -17.5787   23.4653 C   0  0  0  0  0  0  0  0  0  0  0  0
    6.6399  -17.2453   22.3077 O   0  0  0  0  0  0  0  0  0  0  0  0
    7.1234  -12.6854   28.2850 C   0  0  0  0  0  0  0  0  0  0  0  0
    6.2796  -12.6811   26.7241 S   0  0  0  0  0  0  0  0  0  0  0  0
    6.4156  -14.1654   25.7319 C   0  0  0  0  0  0  0  0  0  0  0  0
    7.7737  -14.7143   25.5292 C   0  0  0  0  0  0  0  0  0  0  0  0
    7.8345  -15.7647   24.4813 C   0  0  2  0  0  0  0  0  0  0  0  0
    6.8947  -16.8250   24.5384 N   0  0  0  0  0  0  0  0  0  0  0  0
    9.2030  -16.1973   24.1086 C   0  0  0  0  0  0  0  0  0  0  0  0
    9.7785  -17.1787   24.6571 O   0  0  0  0  0  0  0  0  0  0  0  0
    8.8305  -12.1911   19.0822 N   0  0  0  0  0  0  0  0  0  0  0  0
    8.7719  -13.2394   18.1431 C   0  0  0  0  0  0  0  0  0  0  0  0
    7.8197  -13.2623   17.2433 N   0  0  0  0  0  0  0  0  0  0  0  0
    9.7617  -14.2670   18.1905 N   0  0  0  0  0  0  0  0  0  0  0  0
   10.7915  -14.2102   19.1884 C   0  0  0  0  0  0  0  0  0  0  0  0
   10.3842  -15.1355   20.3470 C   0  0  0  0  0  0  0  0  0  0  0  0
   11.5113  -15.1132   21.3170 C   0  0  0  0  0  0  0  0  0  0  0  0
   11.1857  -15.8976   22.5573 C   0  0  2  0  0  0  0  0  0  0  0  0
    9.8836  -15.4761   23.0972 N   0  0  0  0  0  0  0  0  0  0  0  0
   12.2180  -15.7845   23.6085 C   0  0  0  0  0  0  0  0  0  0  0  0
   11.9481  -15.1127   24.6519 O   0  0  0  0  0  0  0  0  0  0  0  0
   13.4751  -16.3487   23.5726 O   0  0  0  0  0  0  0  0  0  0  0  0
  2  1  1  1
  2  3  1  0
  4  2  1  0
  4  5  2  0
  6  7  1  0
  7  8  1  0
  8  9  1  0
 10  9  1  1
 10 11  1  0
 11  4  1  0
 12 13  2  0
 12 10  1  0
 15 14  1  0
 16 15  2  0
 17 15  1  0
 18 17  1  0
 19 18  1  0
 20 19  1  0
 21 22  1  0
 21 20  1  6
 22 12  1  0
 23 21  1  0
 24 23  2  0
 25 23  1  0
M  END
$$$$
