AMR.pdb
     RDKit          3D

 25 24  0  0  1  0  0  0  0  0999 V2000
    8.8104  -20.5677   26.5134 C   0  0  0  0  0  0  0  0  0  0  0  0
    7.4047  -20.1131   26.9264 C   0  0  2  0  0  0  0  0  0  0  0  0
    6.4109  -21.0542   26.5161 N   0  0  0  0  0  0  0  0  0  0  0  0
    7.1600  -18.8220   26.2210 C   0  0  0  0  0  0  0  0  0  0  0  0
    6.4145  -18.8102   25.2356 O   0  0  0  0  0  0  0  0  0  0  0  0
    5.6600  -11.5460   27.0159 C   0  0  0  0  0  0  0  0  0  0  0  0
    7.2233  -12.3791   27.1188 S   0  0  0  0  0  0  0  0  0  0  0  0
    7.4020  -13.8765   26.1535 C   0  0  0  0  0  0  0  0  0  0  0  0
    7.6029  -15.1363   26.9014 C   0  0  0  0  0  0  0  0  0  0  0  0
    7.6720  -16.3354   26.0283 C   0  0  2  0  0  0  0  0  0  0  0  0
    7.7541  -17.6102   26.6438 N   0  0  0  0  0  0  0  0  0  0  0  0
    8.5396  -16.1902   24.8345 C   0  0  0  0  0  0  0  0  0  0  0  0
    9.7843  -16.4021   24.8693 O   0  0  0  0  0  0  0  0  0  0  0  0
    8.1902  -12.5072   16.7471 N   0  0  0  0  0  0  0  0  0  0  0  0
    7.8934  -13.8637   16.9845 C   0  0  0  0  0  0  0  0  0  0  0  0
    7.8197  -14.7047   15.9824 N   0  0  0  0  0  0  0  0  0  0  0  0
    7.6768  -14.3000   18.3263 N   0  0  0  0  0  0  0  0  0  0  0  0
    7.9217  -13.3939   19.4120 C   0  0  0  0  0  0  0  0  0  0  0  0
    8.8812  -14.0799   20.3984 C   0  0  0  0  0  0  0  0  0  0  0  0
    8.0698  -14.4362   21.5928 C   0  0  0  0  0  0  0  0  0  0  0  0
    8.7199  -15.5298   22.3935 C   0  0  2  0  0  0  0  0  0  0  0  0
    7.9407  -15.7985   23.6122 N   0  0  0  0  0  0  0  0  0  0  0  0
   10.1215  -15.2344   22.7565 C   0  0  0  0  0  0  0  0  0  0  0  0
   11.0466  -15.6753   22.0065 O   0  0  0  0  0  0  0  0  0  0  0  0
   10.5384  -14.5100   23.8525 O   0  0  0  0  0  0  0  0  0  0  0  0
  2  1  1  6
  2  3  1  0
  4  2  1  0
  4  5  2  0
  6  7  1  0
  7  8  1  0
  8  9  1  0
 10  9  1  1
 10 11  1  0
 11  4  1  0
 12 13  2  0
 12 10  1  0
 15 14  1  0
 16 15  2  0
 17 15  1  0
 18 17  1  0
 19 18  1  0
 20 19  1  0
 21 22  1  0
 21 20  1  1
 22 12  1  0
 23 21  1  0
 24 23  2  0
 25 23  1  0
M  END
$$$$
