AMR.pdb
     RDKit          3D

 25 24  0  0  1  0  0  0  0  0999 V2000
    7.9449  -12.4057   20.4786 C   0  0  0  0  0  0  0  0  0  0  0  0
    8.2068  -13.9036   20.6815 C   0  0  2  0  0  0  0  0  0  0  0  0
    7.0603  -14.6843   20.3388 N   0  0  0  0  0  0  0  0  0  0  0  0
    8.4906  -14.0841   22.1346 C   0  0  0  0  0  0  0  0  0  0  0  0
    9.5642  -13.6757   22.5899 O   0  0  0  0  0  0  0  0  0  0  0  0
    5.8719  -10.4990   26.8236 C   0  0  0  0  0  0  0  0  0  0  0  0
    6.0821  -12.2607   26.8520 S   0  0  0  0  0  0  0  0  0  0  0  0
    6.3670  -13.0624   25.2766 C   0  0  0  0  0  0  0  0  0  0  0  0
    6.6117  -14.5206   25.3009 C   0  0  0  0  0  0  0  0  0  0  0  0
    7.7105  -14.9490   24.3986 C   0  0  2  0  0  0  0  0  0  0  0  0
    7.5700  -14.7080   23.0083 N   0  0  0  0  0  0  0  0  0  0  0  0
    8.3048  -16.2690   24.7202 C   0  0  0  0  0  0  0  0  0  0  0  0
    7.6391  -17.3416   24.6808 O   0  0  0  0  0  0  0  0  0  0  0  0
   14.7928  -18.7176   20.8525 N   0  0  0  0  0  0  0  0  0  0  0  0
   13.4809  -18.7595   20.3412 C   0  0  0  0  0  0  0  0  0  0  0  0
   13.2724  -19.1107   19.0962 N   0  0  0  0  0  0  0  0  0  0  0  0
   12.3928  -18.4151   21.1987 N   0  0  0  0  0  0  0  0  0  0  0  0
   12.6425  -18.1582   22.5884 C   0  0  0  0  0  0  0  0  0  0  0  0
   11.2864  -17.9910   23.2936 C   0  0  0  0  0  0  0  0  0  0  0  0
   11.5865  -17.7911   24.7364 C   0  0  0  0  0  0  0  0  0  0  0  0
   10.3328  -17.5557   25.5318 C   0  0  2  0  0  0  0  0  0  0  0  0
    9.6726  -16.3193   25.0846 N   0  0  0  0  0  0  0  0  0  0  0  0
   10.5682  -17.4925   26.9892 C   0  0  0  0  0  0  0  0  0  0  0  0
   10.4374  -16.3735   27.5753 O   0  0  0  0  0  0  0  0  0  0  0  0
   10.9228  -18.5504   27.7985 O   0  0  0  0  0  0  0  0  0  0  0  0
  2  1  1  1
  2  3  1  0
  4  2  1  0
  4  5  2  0
  6  7  1  0
  7  8  1  0
  8  9  1  0
 10  9  1  1
 10 11  1  0
 11  4  1  0
 12 13  2  0
 12 10  1  0
 15 14  1  0
 16 15  2  0
 17 15  1  0
 18 17  1  0
 19 18  1  0
 20 19  1  0
 21 22  1  0
 21 20  1  6
 22 12  1  0
 23 21  1  0
 24 23  2  0
 25 23  1  0
M  END
$$$$
