AMR.pdb
     RDKit          3D

 25 24  0  0  1  0  0  0  0  0999 V2000
    7.9304  -12.4840   18.9632 C   0  0  0  0  0  0  0  0  0  0  0  0
    8.3138  -13.8881   19.4482 C   0  0  2  0  0  0  0  0  0  0  0  0
    7.2221  -14.8007   19.3182 N   0  0  0  0  0  0  0  0  0  0  0  0
    8.6526  -13.7516   20.8943 C   0  0  0  0  0  0  0  0  0  0  0  0
    9.6742  -13.1345   21.2140 O   0  0  0  0  0  0  0  0  0  0  0  0
    7.0923  -11.6848   28.0841 C   0  0  0  0  0  0  0  0  0  0  0  0
    6.6162  -11.8882   26.3869 S   0  0  0  0  0  0  0  0  0  0  0  0
    7.3170  -13.2874   25.5169 C   0  0  0  0  0  0  0  0  0  0  0  0
    6.9967  -13.4115   24.0786 C   0  0  0  0  0  0  0  0  0  0  0  0
    8.0028  -14.1934   23.3161 C   0  0  2  0  0  0  0  0  0  0  0  0
    7.8418  -14.3061   21.9118 N   0  0  0  0  0  0  0  0  0  0  0  0
    8.4460  -15.4483   23.9703 C   0  0  0  0  0  0  0  0  0  0  0  0
    7.6385  -16.3550   24.3184 O   0  0  0  0  0  0  0  0  0  0  0  0
   14.7517  -14.2202   21.1047 N   0  0  0  0  0  0  0  0  0  0  0  0
   13.7588  -14.8266   20.3104 C   0  0  0  0  0  0  0  0  0  0  0  0
   13.6539  -14.5177   19.0414 N   0  0  0  0  0  0  0  0  0  0  0  0
   12.8773  -15.7759   20.9100 N   0  0  0  0  0  0  0  0  0  0  0  0
   12.8672  -15.9274   22.3371 C   0  0  0  0  0  0  0  0  0  0  0  0
   11.8345  -17.0092   22.6945 C   0  0  0  0  0  0  0  0  0  0  0  0
   11.7940  -17.0752   24.1797 C   0  0  0  0  0  0  0  0  0  0  0  0
   10.3954  -16.8951   24.7006 C   0  0  2  0  0  0  0  0  0  0  0  0
    9.8302  -15.6284   24.2101 N   0  0  0  0  0  0  0  0  0  0  0  0
   10.3108  -16.9374   26.1752 C   0  0  0  0  0  0  0  0  0  0  0  0
   10.1236  -15.8490   26.8021 O   0  0  0  0  0  0  0  0  0  0  0  0
   10.4154  -18.0657   26.9600 O   0  0  0  0  0  0  0  0  0  0  0  0
  2  1  1  1
  2  3  1  0
  4  2  1  0
  4  5  2  0
  6  7  1  0
  7  8  1  0
  8  9  1  0
 10  9  1  1
 10 11  1  0
 11  4  1  0
 12 13  2  0
 12 10  1  0
 15 14  1  0
 16 15  2  0
 17 15  1  0
 18 17  1  0
 19 18  1  0
 20 19  1  0
 21 22  1  0
 21 20  1  1
 22 12  1  0
 23 21  1  0
 24 23  2  0
 25 23  1  0
M  END
$$$$
