ATT.pdb
     RDKit          3D

 20 19  0  0  1  0  0  0  0  0999 V2000
   13.2560  -16.4470   18.6364 C   0  0  0  0  0  0  0  0  0  0  0  0
   12.8819  -15.0002   18.4471 C   0  0  2  0  0  0  0  0  0  0  0  0
   14.0650  -14.1902   18.4204 N   0  0  0  0  0  0  0  0  0  0  0  0
   11.9488  -14.5975   19.5339 C   0  0  0  0  0  0  0  0  0  0  0  0
   12.3922  -13.9744   20.5299 O   0  0  0  0  0  0  0  0  0  0  0  0
    8.4852  -12.8538   18.8502 C   0  0  0  0  0  0  0  0  0  0  0  0
    8.3145  -13.9810   19.8348 C   0  0  1  0  0  0  0  0  0  0  0  0
    7.8209  -15.1161   19.1945 O   0  0  0  0  0  0  0  0  0  0  0  0
    9.6472  -14.3317   20.4618 C   0  0  2  0  0  0  0  0  0  0  0  0
   10.5703  -14.8874   19.4965 N   0  0  0  0  0  0  0  0  0  0  0  0
    9.4845  -15.2609   21.5910 C   0  0  0  0  0  0  0  0  0  0  0  0
   10.0112  -16.3951   21.5509 O   0  0  0  0  0  0  0  0  0  0  0  0
    8.8567  -14.0147   25.5847 C   0  0  0  0  0  0  0  0  0  0  0  0
    7.9249  -15.0538   25.0495 C   0  0  1  0  0  0  0  0  0  0  0  0
    6.7352  -14.4504   24.6284 O   0  0  0  0  0  0  0  0  0  0  0  0
    8.5182  -15.7844   23.8526 C   0  0  2  0  0  0  0  0  0  0  0  0
    8.7217  -14.8756   22.7462 N   0  0  0  0  0  0  0  0  0  0  0  0
    7.6211  -16.9036   23.4327 C   0  0  0  0  0  0  0  0  0  0  0  0
    7.0459  -16.8900   22.1703 O   0  0  0  0  0  0  0  0  0  0  0  0
    7.3694  -17.8669   24.1968 O   0  0  0  0  0  0  0  0  0  0  0  0
  2  3  1  0
  2  4  1  0
  2  1  1  1
  4  5  2  0
  7  6  1  6
  7  9  1  0
  8  7  1  0
  9 11  1  0
 10  4  1  0
  9 10  1  6
 11 17  1  0
 11 12  2  0
 14 13  1  6
 14 16  1  0
 15 14  1  0
 16 18  1  0
 16 17  1  6
 18 20  2  0
 18 19  1  0
M  END
$$$$
