ATT.pdb
     RDKit          3D

 20 19  0  0  1  0  0  0  0  0999 V2000
    8.1330  -12.3417   19.3540 C   0  0  0  0  0  0  0  0  0  0  0  0
    8.5008  -13.8023   19.3284 C   0  0  2  0  0  0  0  0  0  0  0  0
    8.0437  -14.3987   18.1070 N   0  0  0  0  0  0  0  0  0  0  0  0
    7.9238  -14.4655   20.5288 C   0  0  0  0  0  0  0  0  0  0  0  0
    6.7240  -14.8362   20.5134 O   0  0  0  0  0  0  0  0  0  0  0  0
    7.9530  -17.5252   21.8258 C   0  0  0  0  0  0  0  0  0  0  0  0
    8.4354  -16.7522   23.0254 C   0  0  1  0  0  0  0  0  0  0  0  0
    9.8200  -16.8543   23.1455 O   0  0  0  0  0  0  0  0  0  0  0  0
    8.0783  -15.2883   22.8801 C   0  0  2  0  0  0  0  0  0  0  0  0
    8.6724  -14.7004   21.6993 N   0  0  0  0  0  0  0  0  0  0  0  0
    8.4660  -14.5174   24.0719 C   0  0  0  0  0  0  0  0  0  0  0  0
    9.6023  -13.9984   24.1410 O   0  0  0  0  0  0  0  0  0  0  0  0
    6.5096  -11.6228   26.0928 C   0  0  0  0  0  0  0  0  0  0  0  0
    6.7654  -12.8426   26.9181 C   0  0  1  0  0  0  0  0  0  0  0  0
    5.6327  -13.6634   26.9126 O   0  0  0  0  0  0  0  0  0  0  0  0
    7.9284  -13.6611   26.3742 C   0  0  2  0  0  0  0  0  0  0  0  0
    7.5462  -14.3541   25.1637 N   0  0  0  0  0  0  0  0  0  0  0  0
    8.3922  -14.6455   27.3986 C   0  0  0  0  0  0  0  0  0  0  0  0
    8.8791  -14.1953   28.6172 O   0  0  0  0  0  0  0  0  0  0  0  0
    8.3541  -15.8820   27.1872 O   0  0  0  0  0  0  0  0  0  0  0  0
  2  3  1  0
  2  4  1  0
  2  1  1  6
  4  5  2  0
  7  6  1  6
  7  9  1  0
  8  7  1  0
  9 11  1  0
 10  4  1  0
  9 10  1  6
 11 17  1  0
 11 12  2  0
 14 13  1  6
 14 16  1  0
 15 14  1  0
 16 18  1  0
 16 17  1  6
 18 20  2  0
 18 19  1  0
M  END
$$$$
