ATT.pdb
     RDKit          3D

 20 19  0  0  1  0  0  0  0  0999 V2000
    9.2854  -17.7239   14.9587 C   0  0  0  0  0  0  0  0  0  0  0  0
    8.9957  -16.2747   14.6669 C   0  0  2  0  0  0  0  0  0  0  0  0
    9.6215  -15.8909   13.4350 N   0  0  0  0  0  0  0  0  0  0  0  0
    9.4602  -15.4499   15.8148 C   0  0  0  0  0  0  0  0  0  0  0  0
   10.6458  -15.0365   15.8391 O   0  0  0  0  0  0  0  0  0  0  0  0
    8.5152  -12.8461   19.9083 C   0  0  0  0  0  0  0  0  0  0  0  0
    7.9672  -13.6698   18.7724 C   0  0  1  0  0  0  0  0  0  0  0  0
    7.2652  -12.8620   17.8799 O   0  0  0  0  0  0  0  0  0  0  0  0
    9.0984  -14.3372   18.0194 C   0  0  2  0  0  0  0  0  0  0  0  0
    8.6190  -15.1060   16.8917 N   0  0  0  0  0  0  0  0  0  0  0  0
    9.9032  -15.1948   18.9036 C   0  0  0  0  0  0  0  0  0  0  0  0
    9.4683  -16.3127   19.2592 O   0  0  0  0  0  0  0  0  0  0  0  0
   13.8960  -15.5644   18.5908 C   0  0  0  0  0  0  0  0  0  0  0  0
   13.4858  -15.3062   20.0048 C   0  0  1  0  0  0  0  0  0  0  0  0
   13.7127  -13.9637   20.3255 O   0  0  0  0  0  0  0  0  0  0  0  0
   12.0058  -15.5875   20.2258 C   0  0  2  0  0  0  0  0  0  0  0  0
   11.1919  -14.7576   19.3653 N   0  0  0  0  0  0  0  0  0  0  0  0
   11.6413  -15.3485   21.6554 C   0  0  0  0  0  0  0  0  0  0  0  0
   12.1901  -16.1454   22.6496 O   0  0  0  0  0  0  0  0  0  0  0  0
   10.8442  -14.4378   21.9875 O   0  0  0  0  0  0  0  0  0  0  0  0
  2  3  1  0
  2  4  1  0
  2  1  1  1
  4  5  2  0
  7  6  1  1
  7  9  1  0
  8  7  1  0
  9 11  1  0
 10  4  1  0
  9 10  1  6
 11 17  1  0
 11 12  2  0
 14 13  1  6
 14 16  1  0
 15 14  1  0
 16 18  1  0
 16 17  1  6
 18 20  2  0
 18 19  1  0
M  END
$$$$
