ATT.pdb
     RDKit          3D

 20 19  0  0  1  0  0  0  0  0999 V2000
    7.7494  -18.1804   16.9115 C   0  0  0  0  0  0  0  0  0  0  0  0
    7.8800  -16.6891   16.7439 C   0  0  2  0  0  0  0  0  0  0  0  0
    8.5277  -16.3934   15.4990 N   0  0  0  0  0  0  0  0  0  0  0  0
    8.6218  -16.1363   17.9092 C   0  0  0  0  0  0  0  0  0  0  0  0
    9.8735  -16.2310   17.9466 O   0  0  0  0  0  0  0  0  0  0  0  0
    7.8488  -12.6549   19.5423 C   0  0  0  0  0  0  0  0  0  0  0  0
    8.0283  -13.6795   20.6318 C   0  0  1  0  0  0  0  0  0  0  0  0
    6.7918  -14.0637   21.1471 O   0  0  0  0  0  0  0  0  0  0  0  0
    8.7162  -14.9107   20.0813 C   0  0  2  0  0  0  0  0  0  0  0  0
    7.9752  -15.5022   18.9888 N   0  0  0  0  0  0  0  0  0  0  0  0
    8.9464  -15.9152   21.1315 C   0  0  0  0  0  0  0  0  0  0  0  0
    8.0196  -16.6783   21.4837 O   0  0  0  0  0  0  0  0  0  0  0  0
   11.4018  -18.6916   21.0912 C   0  0  0  0  0  0  0  0  0  0  0  0
   11.6907  -17.9060   22.3296 C   0  0  1  0  0  0  0  0  0  0  0  0
   12.7710  -17.0467   22.1033 O   0  0  0  0  0  0  0  0  0  0  0  0
   10.5028  -17.0502   22.7478 C   0  0  2  0  0  0  0  0  0  0  0  0
   10.2336  -16.0286   21.7602 N   0  0  0  0  0  0  0  0  0  0  0  0
   10.7633  -16.4169   24.0762 C   0  0  0  0  0  0  0  0  0  0  0  0
   10.8827  -17.2111   25.2075 O   0  0  0  0  0  0  0  0  0  0  0  0
   10.8786  -15.1734   24.2008 O   0  0  0  0  0  0  0  0  0  0  0  0
  2  3  1  0
  2  4  1  0
  2  1  1  1
  4  5  2  0
  7  6  1  6
  7  9  1  0
  8  7  1  0
  9 11  1  0
 10  4  1  0
  9 10  1  6
 11 17  1  0
 11 12  2  0
 14 13  1  6
 14 16  1  0
 15 14  1  0
 16 18  1  0
 16 17  1  6
 18 20  2  0
 18 19  1  0
M  END
$$$$
