ATT.pdb
     RDKit          3D

 20 19  0  0  1  0  0  0  0  0999 V2000
    7.3840  -12.3981   18.4475 C   0  0  0  0  0  0  0  0  0  0  0  0
    8.0200  -13.5336   17.6890 C   0  0  2  0  0  0  0  0  0  0  0  0
    7.2843  -13.7876   16.4845 N   0  0  0  0  0  0  0  0  0  0  0  0
    8.0820  -14.7287   18.5730 C   0  0  0  0  0  0  0  0  0  0  0  0
    7.0755  -15.4722   18.6787 O   0  0  0  0  0  0  0  0  0  0  0  0
   11.3797  -17.1231   19.2237 C   0  0  0  0  0  0  0  0  0  0  0  0
    9.9278  -17.4168   19.4976 C   0  0  1  0  0  0  0  0  0  0  0  0
    9.8049  -18.5200   20.3402 O   0  0  0  0  0  0  0  0  0  0  0  0
    9.2740  -16.2295   20.1718 C   0  0  2  0  0  0  0  0  0  0  0  0
    9.2349  -15.0698   19.3080 N   0  0  0  0  0  0  0  0  0  0  0  0
    9.9458  -15.8893   21.4359 C   0  0  0  0  0  0  0  0  0  0  0  0
   10.8232  -14.9977   21.4598 O   0  0  0  0  0  0  0  0  0  0  0  0
    9.8727  -16.1521   26.3880 C   0  0  0  0  0  0  0  0  0  0  0  0
    9.2782  -16.5403   25.0725 C   0  0  1  0  0  0  0  0  0  0  0  0
    8.0921  -15.8296   24.8613 O   0  0  0  0  0  0  0  0  0  0  0  0
   10.2142  -16.2269   23.9132 C   0  0  2  0  0  0  0  0  0  0  0  0
    9.6014  -16.5756   22.6505 N   0  0  0  0  0  0  0  0  0  0  0  0
   11.5030  -16.9663   24.0741 C   0  0  0  0  0  0  0  0  0  0  0  0
   12.6258  -16.3011   24.5449 O   0  0  0  0  0  0  0  0  0  0  0  0
   11.6015  -18.1854   23.7927 O   0  0  0  0  0  0  0  0  0  0  0  0
  2  3  1  0
  2  4  1  0
  2  1  1  1
  4  5  2  0
  7  6  1  1
  7  9  1  0
  8  7  1  0
  9 11  1  0
 10  4  1  0
  9 10  1  6
 11 17  1  0
 11 12  2  0
 14 13  1  1
 14 16  1  0
 15 14  1  0
 16 18  1  0
 16 17  1  6
 18 20  2  0
 18 19  1  0
M  END
$$$$
