ATT.pdb
     RDKit          3D

 20 19  0  0  1  0  0  0  0  0999 V2000
   13.0489  -16.7125   19.3484 C   0  0  0  0  0  0  0  0  0  0  0  0
   12.6406  -15.3362   18.8923 C   0  0  2  0  0  0  0  0  0  0  0  0
   13.8041  -14.5178   18.7104 N   0  0  0  0  0  0  0  0  0  0  0  0
   11.6968  -14.7590   19.8872 C   0  0  0  0  0  0  0  0  0  0  0  0
   12.1495  -14.1443   20.8843 O   0  0  0  0  0  0  0  0  0  0  0  0
    8.2869  -12.8047   19.0766 C   0  0  0  0  0  0  0  0  0  0  0  0
    8.0734  -13.8912   20.0979 C   0  0  1  0  0  0  0  0  0  0  0  0
    7.5214  -15.0215   19.4980 O   0  0  0  0  0  0  0  0  0  0  0  0
    9.3942  -14.2841   20.7249 C   0  0  2  0  0  0  0  0  0  0  0  0
   10.2980  -14.8720   19.7604 N   0  0  0  0  0  0  0  0  0  0  0  0
    9.2019  -15.2048   21.8564 C   0  0  0  0  0  0  0  0  0  0  0  0
    9.5956  -16.3896   21.7749 O   0  0  0  0  0  0  0  0  0  0  0  0
    8.9575  -13.9953   25.8880 C   0  0  0  0  0  0  0  0  0  0  0  0
    7.8672  -14.8939   25.3998 C   0  0  1  0  0  0  0  0  0  0  0  0
    6.7389  -14.1342   25.0734 O   0  0  0  0  0  0  0  0  0  0  0  0
    8.2815  -15.6609   24.1515 C   0  0  2  0  0  0  0  0  0  0  0  0
    8.5622  -14.7532   23.0612 N   0  0  0  0  0  0  0  0  0  0  0  0
    7.2058  -16.6184   23.7516 C   0  0  0  0  0  0  0  0  0  0  0  0
    6.5915  -16.4882   22.5145 O   0  0  0  0  0  0  0  0  0  0  0  0
    6.8371  -17.5477   24.5102 O   0  0  0  0  0  0  0  0  0  0  0  0
  2  3  1  0
  2  4  1  0
  2  1  1  1
  4  5  2  0
  7  6  1  6
  7  9  1  0
  8  7  1  0
  9 11  1  0
 10  4  1  0
  9 10  1  6
 11 17  1  0
 11 12  2  0
 14 13  1  6
 14 16  1  0
 15 14  1  0
 16 18  1  0
 16 17  1  6
 18 20  2  0
 18 19  1  0
M  END
$$$$
