ATT.pdb
     RDKit          3D

 20 19  0  0  1  0  0  0  0  0999 V2000
    8.0664  -17.0624   15.9436 C   0  0  0  0  0  0  0  0  0  0  0  0
    8.1790  -15.5644   16.0554 C   0  0  2  0  0  0  0  0  0  0  0  0
    8.8195  -15.0351   14.8867 N   0  0  0  0  0  0  0  0  0  0  0  0
    8.9175  -15.2285   17.3026 C   0  0  0  0  0  0  0  0  0  0  0  0
   10.1475  -14.9819   17.2452 O   0  0  0  0  0  0  0  0  0  0  0  0
    7.8073  -12.5023   19.6834 C   0  0  0  0  0  0  0  0  0  0  0  0
    8.1320  -13.7079   20.5262 C   0  0  1  0  0  0  0  0  0  0  0  0
    6.9629  -14.3603   20.9132 O   0  0  0  0  0  0  0  0  0  0  0  0
    8.9803  -14.6824   19.7372 C   0  0  2  0  0  0  0  0  0  0  0  0
    8.2913  -15.1734   18.5638 N   0  0  0  0  0  0  0  0  0  0  0  0
    9.4186  -15.8135   20.5699 C   0  0  0  0  0  0  0  0  0  0  0  0
    8.6288  -16.7508   20.8209 O   0  0  0  0  0  0  0  0  0  0  0  0
   11.9817  -18.2746   19.9308 C   0  0  0  0  0  0  0  0  0  0  0  0
   12.3767  -17.6730   21.2410 C   0  0  1  0  0  0  0  0  0  0  0  0
   13.3909  -16.7304   21.0420 O   0  0  0  0  0  0  0  0  0  0  0  0
   11.2109  -16.9589   21.9111 C   0  0  2  0  0  0  0  0  0  0  0  0
   10.7534  -15.8518   21.1008 N   0  0  0  0  0  0  0  0  0  0  0  0
   11.6138  -16.4666   23.2635 C   0  0  0  0  0  0  0  0  0  0  0  0
   11.9274  -17.3758   24.2633 O   0  0  0  0  0  0  0  0  0  0  0  0
   11.6778  -15.2408   23.5250 O   0  0  0  0  0  0  0  0  0  0  0  0
  2  3  1  0
  2  4  1  0
  2  1  1  6
  4  5  2  0
  7  6  1  6
  7  9  1  0
  8  7  1  0
  9 11  1  0
 10  4  1  0
  9 10  1  6
 11 17  1  0
 11 12  2  0
 14 13  1  6
 14 16  1  0
 15 14  1  0
 16 18  1  0
 16 17  1  6
 18 20  2  0
 18 19  1  0
M  END
$$$$
