ATT.pdb
     RDKit          3D

 20 19  0  0  1  0  0  0  0  0999 V2000
   10.2230  -16.9671   16.6320 C   0  0  0  0  0  0  0  0  0  0  0  0
    9.4609  -17.5105   17.8123 C   0  0  2  0  0  0  0  0  0  0  0  0
    8.0747  -17.6533   17.4735 N   0  0  0  0  0  0  0  0  0  0  0  0
    9.6654  -16.6061   18.9758 C   0  0  0  0  0  0  0  0  0  0  0  0
   10.8331  -16.3192   19.3380 O   0  0  0  0  0  0  0  0  0  0  0  0
    7.8311  -13.2081   19.6349 C   0  0  0  0  0  0  0  0  0  0  0  0
    7.7645  -14.0592   20.8760 C   0  0  1  0  0  0  0  0  0  0  0  0
    6.5118  -14.6595   20.9879 O   0  0  0  0  0  0  0  0  0  0  0  0
    8.8106  -15.1519   20.8154 C   0  0  2  0  0  0  0  0  0  0  0  0
    8.5936  -16.0482   19.7009 N   0  0  0  0  0  0  0  0  0  0  0  0
    8.8640  -15.9180   22.0705 C   0  0  0  0  0  0  0  0  0  0  0  0
    7.8612  -16.5581   22.4579 O   0  0  0  0  0  0  0  0  0  0  0  0
   10.9377  -18.7675   22.7432 C   0  0  0  0  0  0  0  0  0  0  0  0
   11.2631  -17.8215   23.8538 C   0  0  1  0  0  0  0  0  0  0  0  0
   12.4573  -17.1510   23.5694 O   0  0  0  0  0  0  0  0  0  0  0  0
   10.1781  -16.7693   24.0381 C   0  0  2  0  0  0  0  0  0  0  0  0
   10.0645  -15.9380   22.8601 N   0  0  0  0  0  0  0  0  0  0  0  0
   10.4771  -15.9211   25.2317 C   0  0  0  0  0  0  0  0  0  0  0  0
   10.3906  -16.4664   26.5045 O   0  0  0  0  0  0  0  0  0  0  0  0
   10.8080  -14.7160   25.1161 O   0  0  0  0  0  0  0  0  0  0  0  0
  2  3  1  0
  2  4  1  0
  2  1  1  6
  4  5  2  0
  7  6  1  6
  7  9  1  0
  8  7  1  0
  9 11  1  0
 10  4  1  0
  9 10  1  6
 11 17  1  0
 11 12  2  0
 14 13  1  6
 14 16  1  0
 15 14  1  0
 16 18  1  0
 16 17  1  6
 18 20  2  0
 18 19  1  0
M  END
$$$$
