ATT.pdb
     RDKit          3D

 20 19  0  0  1  0  0  0  0  0999 V2000
    8.4033  -12.3374   19.2060 C   0  0  0  0  0  0  0  0  0  0  0  0
    8.5008  -13.8406   19.1982 C   0  0  2  0  0  0  0  0  0  0  0  0
    7.8448  -14.3657   18.0361 N   0  0  0  0  0  0  0  0  0  0  0  0
    7.9163  -14.3680   20.4607 C   0  0  0  0  0  0  0  0  0  0  0  0
    6.6742  -14.5322   20.5455 O   0  0  0  0  0  0  0  0  0  0  0  0
    7.9947  -17.5275   21.6434 C   0  0  0  0  0  0  0  0  0  0  0  0
    8.5012  -16.7865   22.8532 C   0  0  1  0  0  0  0  0  0  0  0  0
    9.8885  -16.8860   22.9394 O   0  0  0  0  0  0  0  0  0  0  0  0
    8.1356  -15.3205   22.7572 C   0  0  2  0  0  0  0  0  0  0  0  0
    8.7037  -14.6964   21.5823 N   0  0  0  0  0  0  0  0  0  0  0  0
    8.5443  -14.5824   23.9628 C   0  0  0  0  0  0  0  0  0  0  0  0
    9.6527  -14.0032   23.9981 O   0  0  0  0  0  0  0  0  0  0  0  0
    6.5153  -11.8062   25.9704 C   0  0  0  0  0  0  0  0  0  0  0  0
    6.8373  -12.9932   26.8199 C   0  0  1  0  0  0  0  0  0  0  0  0
    5.7475  -13.8699   26.8402 O   0  0  0  0  0  0  0  0  0  0  0  0
    8.0369  -13.7638   26.2855 C   0  0  2  0  0  0  0  0  0  0  0  0
    7.6769  -14.5203   25.1067 N   0  0  0  0  0  0  0  0  0  0  0  0
    8.5712  -14.6830   27.3358 C   0  0  0  0  0  0  0  0  0  0  0  0
    9.0832  -14.1601   28.5145 O   0  0  0  0  0  0  0  0  0  0  0  0
    8.5708  -15.9285   27.1819 O   0  0  0  0  0  0  0  0  0  0  0  0
  2  3  1  0
  2  4  1  0
  2  1  1  1
  4  5  2  0
  7  6  1  6
  7  9  1  0
  8  7  1  0
  9 11  1  0
 10  4  1  0
  9 10  1  6
 11 17  1  0
 11 12  2  0
 14 13  1  6
 14 16  1  0
 15 14  1  0
 16 18  1  0
 16 17  1  6
 18 20  2  0
 18 19  1  0
M  END
$$$$
