ATT.pdb
     RDKit          3D

 20 19  0  0  1  0  0  0  0  0999 V2000
   10.9921  -18.1080   18.2348 C   0  0  0  0  0  0  0  0  0  0  0  0
   10.8477  -16.6838   17.7658 C   0  0  2  0  0  0  0  0  0  0  0  0
   12.0753  -16.2391   17.1727 N   0  0  0  0  0  0  0  0  0  0  0  0
   10.4402  -15.8359   18.9185 C   0  0  0  0  0  0  0  0  0  0  0  0
   11.3222  -15.2969   19.6316 O   0  0  0  0  0  0  0  0  0  0  0  0
    7.8522  -12.8625   19.1897 C   0  0  0  0  0  0  0  0  0  0  0  0
    7.4998  -13.9674   20.1510 C   0  0  1  0  0  0  0  0  0  0  0  0
    6.4943  -14.7728   19.6195 O   0  0  0  0  0  0  0  0  0  0  0  0
    8.7122  -14.8346   20.4155 C   0  0  2  0  0  0  0  0  0  0  0  0
    9.0904  -15.6063   19.2517 N   0  0  0  0  0  0  0  0  0  0  0  0
    8.4947  -15.7315   21.5614 C   0  0  0  0  0  0  0  0  0  0  0  0
    8.2940  -16.9520   21.3735 O   0  0  0  0  0  0  0  0  0  0  0  0
   10.3763  -15.4858   25.2452 C   0  0  0  0  0  0  0  0  0  0  0  0
    8.8826  -15.4814   25.3030 C   0  0  1  0  0  0  0  0  0  0  0  0
    8.4179  -14.1678   25.4261 O   0  0  0  0  0  0  0  0  0  0  0  0
    8.2650  -16.0710   24.0423 C   0  0  2  0  0  0  0  0  0  0  0  0
    8.5106  -15.2155   22.9025 N   0  0  0  0  0  0  0  0  0  0  0  0
    6.7943  -16.2619   24.2271 C   0  0  0  0  0  0  0  0  0  0  0  0
    6.3285  -17.1172   25.2151 O   0  0  0  0  0  0  0  0  0  0  0  0
    5.9579  -15.6648   23.5067 O   0  0  0  0  0  0  0  0  0  0  0  0
  2  3  1  0
  2  4  1  0
  2  1  1  1
  4  5  2  0
  7  6  1  6
  7  9  1  0
  8  7  1  0
  9 11  1  0
 10  4  1  0
  9 10  1  6
 11 17  1  0
 11 12  2  0
 14 13  1  6
 14 16  1  0
 15 14  1  0
 16 18  1  0
 16 17  1  6
 18 20  2  0
 18 19  1  0
M  END
$$$$
