ATT.pdb
     RDKit          3D

 20 19  0  0  1  0  0  0  0  0999 V2000
   11.2553  -18.7662   21.0291 C   0  0  0  0  0  0  0  0  0  0  0  0
   10.7797  -17.6619   20.1215 C   0  0  2  0  0  0  0  0  0  0  0  0
   11.8302  -17.2846   19.2211 N   0  0  0  0  0  0  0  0  0  0  0  0
   10.3155  -16.5199   20.9545 C   0  0  0  0  0  0  0  0  0  0  0  0
   11.1424  -15.6531   21.3311 O   0  0  0  0  0  0  0  0  0  0  0  0
    7.1053  -14.2379   20.3878 C   0  0  0  0  0  0  0  0  0  0  0  0
    7.1309  -14.7997   21.7853 C   0  0  1  0  0  0  0  0  0  0  0  0
    6.2888  -15.9060   21.8806 O   0  0  0  0  0  0  0  0  0  0  0  0
    8.5343  -15.2392   22.1447 C   0  0  2  0  0  0  0  0  0  0  0  0
    8.9709  -16.3637   21.3462 N   0  0  0  0  0  0  0  0  0  0  0  0
    8.6475  -15.5671   23.5746 C   0  0  0  0  0  0  0  0  0  0  0  0
    8.8774  -16.7438   23.9321 O   0  0  0  0  0  0  0  0  0  0  0  0
    7.0904  -12.9678   26.6629 C   0  0  0  0  0  0  0  0  0  0  0  0
    8.4480  -13.5750   26.8140 C   0  0  1  0  0  0  0  0  0  0  0  0
    8.6650  -13.9212   28.1518 O   0  0  0  0  0  0  0  0  0  0  0  0
    8.5982  -14.8410   25.9816 C   0  0  2  0  0  0  0  0  0  0  0  0
    8.4956  -14.5421   24.5703 N   0  0  0  0  0  0  0  0  0  0  0  0
    7.5558  -15.8404   26.3666 C   0  0  0  0  0  0  0  0  0  0  0  0
    7.7599  -16.6610   27.4665 O   0  0  0  0  0  0  0  0  0  0  0  0
    6.4887  -15.9611   25.7173 O   0  0  0  0  0  0  0  0  0  0  0  0
  2  3  1  0
  2  4  1  0
  2  1  1  1
  4  5  2  0
  7  6  1  6
  7  9  1  0
  8  7  1  0
  9 11  1  0
 10  4  1  0
  9 10  1  6
 11 17  1  0
 11 12  2  0
 14 13  1  1
 14 16  1  0
 15 14  1  0
 16 18  1  0
 16 17  1  6
 18 20  2  0
 18 19  1  0
M  END
$$$$
