ATT.pdb
     RDKit          3D

 20 19  0  0  1  0  0  0  0  0999 V2000
    8.3514  -16.8765   15.4622 C   0  0  0  0  0  0  0  0  0  0  0  0
    8.4230  -17.3735   16.8825 C   0  0  2  0  0  0  0  0  0  0  0  0
    7.1074  -17.6978   17.3523 N   0  0  0  0  0  0  0  0  0  0  0  0
    9.0810  -16.3371   17.7231 C   0  0  0  0  0  0  0  0  0  0  0  0
   10.3154  -16.1382   17.6056 O   0  0  0  0  0  0  0  0  0  0  0  0
    7.0120  -13.2653   19.8289 C   0  0  0  0  0  0  0  0  0  0  0  0
    8.4794  -13.2497   19.4888 C   0  0  1  0  0  0  0  0  0  0  0  0
    9.1790  -12.4470   20.3879 O   0  0  0  0  0  0  0  0  0  0  0  0
    9.0467  -14.6513   19.5632 C   0  0  2  0  0  0  0  0  0  0  0  0
    8.3727  -15.5570   18.6587 N   0  0  0  0  0  0  0  0  0  0  0  0
    8.9944  -15.1825   20.9343 C   0  0  0  0  0  0  0  0  0  0  0  0
    7.9212  -15.1558   21.5770 O   0  0  0  0  0  0  0  0  0  0  0  0
    8.7555  -18.2757   22.3095 C   0  0  0  0  0  0  0  0  0  0  0  0
   10.0634  -17.7973   22.8526 C   0  0  1  0  0  0  0  0  0  0  0  0
   11.1078  -18.2553   22.0425 O   0  0  0  0  0  0  0  0  0  0  0  0
   10.1410  -16.2771   22.8864 C   0  0  2  0  0  0  0  0  0  0  0  0
   10.1715  -15.7351   21.5459 N   0  0  0  0  0  0  0  0  0  0  0  0
   11.3542  -15.8373   23.6402 C   0  0  0  0  0  0  0  0  0  0  0  0
   11.4434  -16.0765   25.0038 O   0  0  0  0  0  0  0  0  0  0  0  0
   12.3063  -15.2512   23.0699 O   0  0  0  0  0  0  0  0  0  0  0  0
  2  3  1  0
  2  4  1  0
  2  1  1  6
  4  5  2  0
  7  6  1  1
  7  9  1  0
  8  7  1  0
  9 11  1  0
 10  4  1  0
  9 10  1  6
 11 17  1  0
 11 12  2  0
 14 13  1  6
 14 16  1  0
 15 14  1  0
 16 18  1  0
 16 17  1  6
 18 20  2  0
 18 19  1  0
M  END
$$$$
