ATT.pdb
     RDKit          3D

 20 19  0  0  1  0  0  0  0  0999 V2000
    8.0587  -12.3912   18.5967 C   0  0  0  0  0  0  0  0  0  0  0  0
    8.4654  -13.6845   17.9401 C   0  0  2  0  0  0  0  0  0  0  0  0
    7.6186  -13.9463   16.8128 N   0  0  0  0  0  0  0  0  0  0  0  0
    8.4110  -14.7757   18.9501 C   0  0  0  0  0  0  0  0  0  0  0  0
    7.3205  -15.3570   19.1739 O   0  0  0  0  0  0  0  0  0  0  0  0
    9.7444  -17.9738   18.7767 C   0  0  0  0  0  0  0  0  0  0  0  0
   10.2956  -17.4923   20.0934 C   0  0  1  0  0  0  0  0  0  0  0  0
   11.6212  -17.0879   19.9475 O   0  0  0  0  0  0  0  0  0  0  0  0
    9.4916  -16.3113   20.5943 C   0  0  2  0  0  0  0  0  0  0  0  0
    9.5431  -15.1932   19.6778 N   0  0  0  0  0  0  0  0  0  0  0  0
    9.9357  -15.8839   21.9304 C   0  0  0  0  0  0  0  0  0  0  0  0
   10.8891  -15.0823   22.0479 O   0  0  0  0  0  0  0  0  0  0  0  0
    7.8256  -14.4531   24.9461 C   0  0  0  0  0  0  0  0  0  0  0  0
    8.5274  -15.7142   25.3354 C   0  0  1  0  0  0  0  0  0  0  0  0
    7.6480  -16.7968   25.2296 O   0  0  0  0  0  0  0  0  0  0  0  0
    9.7197  -16.0009   24.4329 C   0  0  2  0  0  0  0  0  0  0  0  0
    9.2807  -16.3816   23.1086 N   0  0  0  0  0  0  0  0  0  0  0  0
   10.5641  -17.0854   25.0198 C   0  0  0  0  0  0  0  0  0  0  0  0
   11.1863  -16.8890   26.2442 O   0  0  0  0  0  0  0  0  0  0  0  0
   10.7293  -18.1816   24.4314 O   0  0  0  0  0  0  0  0  0  0  0  0
  2  3  1  0
  2  4  1  0
  2  1  1  1
  4  5  2  0
  7  6  1  6
  7  9  1  0
  8  7  1  0
  9 11  1  0
 10  4  1  0
  9 10  1  6
 11 17  1  0
 11 12  2  0
 14 13  1  6
 14 16  1  0
 15 14  1  0
 16 18  1  0
 16 17  1  6
 18 20  2  0
 18 19  1  0
M  END
$$$$
