ATT.pdb
     RDKit          3D

 20 19  0  0  1  0  0  0  0  0999 V2000
    8.2388  -12.2955   19.3839 C   0  0  0  0  0  0  0  0  0  0  0  0
    8.4615  -13.7798   19.2563 C   0  0  2  0  0  0  0  0  0  0  0  0
    7.8774  -14.2573   18.0367 N   0  0  0  0  0  0  0  0  0  0  0  0
    7.8952  -14.4568   20.4541 C   0  0  0  0  0  0  0  0  0  0  0  0
    6.6947  -14.8253   20.4460 O   0  0  0  0  0  0  0  0  0  0  0  0
    7.8504  -17.4948   21.5342 C   0  0  0  0  0  0  0  0  0  0  0  0
    8.3845  -16.8474   22.7851 C   0  0  1  0  0  0  0  0  0  0  0  0
    9.7655  -17.0151   22.8684 O   0  0  0  0  0  0  0  0  0  0  0  0
    8.0868  -15.3631   22.7717 C   0  0  2  0  0  0  0  0  0  0  0  0
    8.6549  -14.7072   21.6142 N   0  0  0  0  0  0  0  0  0  0  0  0
    8.5593  -14.7068   24.0008 C   0  0  0  0  0  0  0  0  0  0  0  0
    9.7418  -14.3062   24.0833 O   0  0  0  0  0  0  0  0  0  0  0  0
    6.7599  -11.7559   26.0940 C   0  0  0  0  0  0  0  0  0  0  0  0
    6.9819  -12.9971   26.8968 C   0  0  1  0  0  0  0  0  0  0  0  0
    5.8183  -13.7734   26.8988 O   0  0  0  0  0  0  0  0  0  0  0  0
    8.1030  -13.8514   26.3210 C   0  0  2  0  0  0  0  0  0  0  0  0
    7.6701  -14.5204   25.1141 N   0  0  0  0  0  0  0  0  0  0  0  0
    8.5542  -14.8600   27.3273 C   0  0  0  0  0  0  0  0  0  0  0  0
    9.0840  -14.4373   28.5379 O   0  0  0  0  0  0  0  0  0  0  0  0
    8.4674  -16.0926   27.1077 O   0  0  0  0  0  0  0  0  0  0  0  0
  2  3  1  0
  2  4  1  0
  2  1  1  1
  4  5  2  0
  7  6  1  6
  7  9  1  0
  8  7  1  0
  9 11  1  0
 10  4  1  0
  9 10  1  6
 11 17  1  0
 11 12  2  0
 14 13  1  6
 14 16  1  0
 15 14  1  0
 16 18  1  0
 16 17  1  6
 18 20  2  0
 18 19  1  0
M  END
$$$$
