LGH.pdb
     RDKit          3D

 23 23  0  0  1  0  0  0  0  0999 V2000
   26.3070  -19.4542  -19.0022 C   0  0  0  0  0  0  0  0  0  0  0  0
   24.8894  -20.0517  -18.7947 C   0  0  2  0  0  0  0  0  0  0  0  0
   23.9362  -19.3151  -19.7135 C   0  0  0  0  0  0  0  0  0  0  0  0
   24.5008  -19.8750  -17.3809 C   0  0  0  0  0  0  0  0  0  0  0  0
   25.4479  -20.4121  -16.3600 C   0  0  2  0  0  0  0  0  0  0  0  0
   25.7230  -21.8055  -16.4881 N   0  0  0  0  0  0  0  0  0  0  0  0
   24.8922  -20.1103  -14.9919 C   0  0  0  0  0  0  0  0  0  0  0  0
   24.6906  -18.8762  -14.7475 O   0  0  0  0  0  0  0  0  0  0  0  0
   24.6119  -21.1006  -14.0493 N   0  0  0  0  0  0  0  0  0  0  0  0
   23.9854  -20.7408  -12.7645 C   0  0  0  0  0  0  0  0  0  0  0  0
   24.9274  -21.1116  -11.6631 C   0  0  0  0  0  0  0  0  0  0  0  0
   25.4820  -22.2384  -11.5939 O   0  0  0  0  0  0  0  0  0  0  0  0
   25.1921  -20.1384  -10.6669 N   0  0  0  0  0  0  0  0  0  0  0  0
   25.9981  -20.5547   -9.4975 C   0  0  1  0  0  0  0  0  0  0  0  0
   26.6287  -19.2924   -8.9991 C   0  0  0  0  0  0  0  0  0  0  0  0
   27.4508  -19.3932   -7.7965 C   0  0  0  0  0  0  0  0  0  0  0  0
   28.4553  -20.2025   -7.3738 C   0  0  0  0  0  0  0  0  0  0  0  0
   28.8890  -19.7769   -6.1602 N   0  0  0  0  0  0  0  0  0  0  0  0
   28.1532  -18.7041   -5.8344 C   0  0  0  0  0  0  0  0  0  0  0  0
   27.2880  -18.4561   -6.7966 N   0  0  0  0  0  0  0  0  0  0  0  0
   25.0311  -21.0241   -8.4562 C   0  0  0  0  0  0  0  0  0  0  0  0
   23.6550  -20.9177   -8.6407 O   0  0  0  0  0  0  0  0  0  0  0  0
   25.4136  -21.5219   -7.3975 O   0  0  0  0  0  0  0  0  0  0  0  0
  2  1  1  1
  2  3  1  0
  4  2  1  0
  5  7  1  0
  5  4  1  0
  5  6  1  6
  7  8  2  0
  9 10  1  0
  9  7  1  0
 10 11  1  0
 11 13  1  0
 11 12  2  0
 13 14  1  0
 14 15  1  1
 14 21  1  0
 16 17  2  0
 16 15  1  0
 18 17  1  0
 19 20  2  0
 19 18  1  0
 20 16  1  0
 21 22  1  0
 23 21  2  0
M  END
$$$$
