LGH.pdb
     RDKit          3D

 23 23  0  0  1  0  0  0  0  0999 V2000
   20.2522  -11.0739    5.6903 C   0  0  0  0  0  0  0  0  0  0  0  0
   19.6974  -11.2863    7.1244 C   0  0  2  0  0  0  0  0  0  0  0  0
   20.7107  -10.7266    8.1018 C   0  0  0  0  0  0  0  0  0  0  0  0
   19.4937  -12.7321    7.3466 C   0  0  0  0  0  0  0  0  0  0  0  0
   18.6901  -13.4551    6.3174 C   0  0  2  0  0  0  0  0  0  0  0  0
   17.2916  -13.1795    6.3624 N   0  0  0  0  0  0  0  0  0  0  0  0
   18.9391  -14.9334    6.4733 C   0  0  0  0  0  0  0  0  0  0  0  0
   20.1555  -15.2946    6.3576 O   0  0  0  0  0  0  0  0  0  0  0  0
   17.9212  -15.8536    6.7279 N   0  0  0  0  0  0  0  0  0  0  0  0
   18.2442  -17.2800    6.9110 C   0  0  0  0  0  0  0  0  0  0  0  0
   17.0198  -18.0818    6.6015 C   0  0  0  0  0  0  0  0  0  0  0  0
   15.8568  -17.6147    6.7081 O   0  0  0  0  0  0  0  0  0  0  0  0
   17.2000  -19.4207    6.1720 N   0  0  0  0  0  0  0  0  0  0  0  0
   15.9877  -20.2420    5.9576 C   0  0  1  0  0  0  0  0  0  0  0  0
   16.4504  -21.3967    5.1258 C   0  0  0  0  0  0  0  0  0  0  0  0
   15.4329  -22.3500    4.6922 C   0  0  0  0  0  0  0  0  0  0  0  0
   14.0788  -22.4196    4.7579 C   0  0  0  0  0  0  0  0  0  0  0  0
   13.6592  -23.5410    4.1188 N   0  0  0  0  0  0  0  0  0  0  0  0
   14.7540  -24.1630    3.6575 C   0  0  0  0  0  0  0  0  0  0  0  0
   15.8249  -23.4699    3.9876 N   0  0  0  0  0  0  0  0  0  0  0  0
   15.5893  -20.7755    7.2980 C   0  0  0  0  0  0  0  0  0  0  0  0
   14.2747  -21.1426    7.5733 O   0  0  0  0  0  0  0  0  0  0  0  0
   16.4069  -20.9105    8.2081 O   0  0  0  0  0  0  0  0  0  0  0  0
  2  1  1  6
  2  3  1  0
  4  2  1  0
  5  7  1  0
  5  4  1  0
  5  6  1  1
  7  8  2  0
  9 10  1  0
  9  7  1  0
 10 11  1  0
 11 13  1  0
 11 12  2  0
 13 14  1  0
 14 15  1  6
 14 21  1  0
 16 17  2  0
 16 15  1  0
 18 17  1  0
 19 20  2  0
 19 18  1  0
 20 16  1  0
 21 22  1  0
 23 21  2  0
M  END
$$$$
