LGH.pdb
     RDKit          3D

 23 23  0  0  1  0  0  0  0  0999 V2000
   23.7716  -31.5416  -10.8268 C   0  0  0  0  0  0  0  0  0  0  0  0
   22.7391  -32.2193   -9.8864 C   0  0  2  0  0  0  0  0  0  0  0  0
   21.4357  -31.4554  -10.0007 C   0  0  0  0  0  0  0  0  0  0  0  0
   23.2554  -32.1768   -8.5034 C   0  0  0  0  0  0  0  0  0  0  0  0
   24.5869  -32.8102   -8.2722 C   0  0  2  0  0  0  0  0  0  0  0  0
   24.6254  -34.2115   -8.5342 N   0  0  0  0  0  0  0  0  0  0  0  0
   25.0053  -32.5301   -6.8516 C   0  0  0  0  0  0  0  0  0  0  0  0
   25.0693  -31.2971   -6.5372 O   0  0  0  0  0  0  0  0  0  0  0  0
   25.3034  -33.5381   -5.9335 N   0  0  0  0  0  0  0  0  0  0  0  0
   25.6508  -33.1918   -4.5437 C   0  0  0  0  0  0  0  0  0  0  0  0
   26.6643  -34.1771   -4.0539 C   0  0  0  0  0  0  0  0  0  0  0  0
   26.9627  -35.2191   -4.6923 O   0  0  0  0  0  0  0  0  0  0  0  0
   27.3028  -33.9064   -2.8175 N   0  0  0  0  0  0  0  0  0  0  0  0
   28.2520  -34.9167   -2.2994 C   0  0  1  0  0  0  0  0  0  0  0  0
   28.9684  -34.2293   -1.1797 C   0  0  0  0  0  0  0  0  0  0  0  0
   29.9562  -35.0144   -0.4450 C   0  0  0  0  0  0  0  0  0  0  0  0
   30.9741  -35.8486   -0.7780 C   0  0  0  0  0  0  0  0  0  0  0  0
   31.6045  -36.2552    0.3530 N   0  0  0  0  0  0  0  0  0  0  0  0
   30.9767  -35.6712    1.3841 C   0  0  0  0  0  0  0  0  0  0  0  0
   29.9893  -34.9253    0.9318 N   0  0  0  0  0  0  0  0  0  0  0  0
   27.4266  -36.0156   -1.7068 C   0  0  0  0  0  0  0  0  0  0  0  0
   27.9286  -37.3065   -1.5646 O   0  0  0  0  0  0  0  0  0  0  0  0
   26.2735  -35.8216   -1.3227 O   0  0  0  0  0  0  0  0  0  0  0  0
  2  1  1  6
  2  3  1  0
  4  2  1  0
  5  7  1  0
  5  4  1  0
  5  6  1  1
  7  8  2  0
  9 10  1  0
  9  7  1  0
 10 11  1  0
 11 13  1  0
 11 12  2  0
 13 14  1  0
 14 15  1  1
 14 21  1  0
 16 17  2  0
 16 15  1  0
 18 17  1  0
 19 20  2  0
 19 18  1  0
 20 16  1  0
 21 22  1  0
 23 21  2  0
M  END
$$$$
