LGH.pdb
     RDKit          3D

 23 23  0  0  1  0  0  0  0  0999 V2000
   26.9910  -18.8239   -5.9959 C   0  0  0  0  0  0  0  0  0  0  0  0
   27.5216  -20.2094   -6.4524 C   0  0  2  0  0  0  0  0  0  0  0  0
   28.9436  -20.3507   -5.9491 C   0  0  0  0  0  0  0  0  0  0  0  0
   27.4756  -20.2742   -7.9271 C   0  0  0  0  0  0  0  0  0  0  0  0
   26.1244  -20.1801   -8.5539 C   0  0  2  0  0  0  0  0  0  0  0  0
   25.2962  -21.3213   -8.3409 N   0  0  0  0  0  0  0  0  0  0  0  0
   26.3022  -19.9284  -10.0292 C   0  0  0  0  0  0  0  0  0  0  0  0
   26.7870  -18.7897  -10.3315 O   0  0  0  0  0  0  0  0  0  0  0  0
   25.9659  -20.8661  -11.0068 N   0  0  0  0  0  0  0  0  0  0  0  0
   26.2206  -20.5737  -12.4288 C   0  0  0  0  0  0  0  0  0  0  0  0
   24.9269  -20.6912  -13.1709 C   0  0  0  0  0  0  0  0  0  0  0  0
   24.8032  -20.3582  -14.3775 O   0  0  0  0  0  0  0  0  0  0  0  0
   23.8072  -21.2010  -12.4667 N   0  0  0  0  0  0  0  0  0  0  0  0
   22.5484  -21.3883  -13.2221 C   0  0  1  0  0  0  0  0  0  0  0  0
   22.2669  -22.8556  -13.1380 C   0  0  0  0  0  0  0  0  0  0  0  0
   23.0216  -23.7268  -14.0344 C   0  0  0  0  0  0  0  0  0  0  0  0
   23.3270  -23.7263  -15.3571 C   0  0  0  0  0  0  0  0  0  0  0  0
   24.1299  -24.7863  -15.6290 N   0  0  0  0  0  0  0  0  0  0  0  0
   24.3213  -25.4403  -14.4740 C   0  0  0  0  0  0  0  0  0  0  0  0
   23.6693  -24.8258  -13.5079 N   0  0  0  0  0  0  0  0  0  0  0  0
   21.4792  -20.6737  -12.4565 C   0  0  0  0  0  0  0  0  0  0  0  0
   20.1582  -20.6555  -12.8964 O   0  0  0  0  0  0  0  0  0  0  0  0
   21.7253  -20.0750  -11.4096 O   0  0  0  0  0  0  0  0  0  0  0  0
  2  1  1  6
  2  3  1  0
  4  2  1  0
  5  7  1  0
  5  4  1  0
  5  6  1  6
  7  8  2  0
  9 10  1  0
  9  7  1  0
 10 11  1  0
 11 13  1  0
 11 12  2  0
 13 14  1  0
 14 15  1  1
 14 21  1  0
 16 17  2  0
 16 15  1  0
 18 17  1  0
 19 20  2  0
 19 18  1  0
 20 16  1  0
 21 22  1  0
 23 21  2  0
M  END
$$$$
