LGH.pdb
     RDKit          3D

 23 23  0  0  1  0  0  0  0  0999 V2000
   24.1220  -34.8068  -12.3005 C   0  0  0  0  0  0  0  0  0  0  0  0
   25.3036  -34.9192  -11.3001 C   0  0  2  0  0  0  0  0  0  0  0  0
   25.6234  -36.3894  -11.1227 C   0  0  0  0  0  0  0  0  0  0  0  0
   24.9003  -34.3090  -10.0170 C   0  0  0  0  0  0  0  0  0  0  0  0
   25.2913  -32.8839   -9.8078 C   0  0  2  0  0  0  0  0  0  0  0  0
   26.3898  -32.4516  -10.6079 N   0  0  0  0  0  0  0  0  0  0  0  0
   25.5970  -32.6856   -8.3453 C   0  0  0  0  0  0  0  0  0  0  0  0
   24.6954  -33.0917   -7.5419 O   0  0  0  0  0  0  0  0  0  0  0  0
   26.7791  -32.1017   -7.8876 N   0  0  0  0  0  0  0  0  0  0  0  0
   27.0580  -32.0349   -6.4419 C   0  0  0  0  0  0  0  0  0  0  0  0
   27.8663  -33.2357   -6.0640 C   0  0  0  0  0  0  0  0  0  0  0  0
   27.9654  -34.2482   -6.8037 O   0  0  0  0  0  0  0  0  0  0  0  0
   28.5401  -33.2107   -4.8170 N   0  0  0  0  0  0  0  0  0  0  0  0
   29.4035  -34.3645   -4.4800 C   0  0  1  0  0  0  0  0  0  0  0  0
   30.7507  -33.7694   -4.2153 C   0  0  0  0  0  0  0  0  0  0  0  0
   31.5367  -33.3667   -5.3781 C   0  0  0  0  0  0  0  0  0  0  0  0
   31.2802  -33.1478   -6.6931 C   0  0  0  0  0  0  0  0  0  0  0  0
   32.4157  -32.7233   -7.3034 N   0  0  0  0  0  0  0  0  0  0  0  0
   33.3728  -32.6789   -6.3650 C   0  0  0  0  0  0  0  0  0  0  0  0
   32.8710  -33.0586   -5.2074 N   0  0  0  0  0  0  0  0  0  0  0  0
   28.8890  -34.9219   -3.1898 C   0  0  0  0  0  0  0  0  0  0  0  0
   29.3211  -36.1540   -2.7061 O   0  0  0  0  0  0  0  0  0  0  0  0
   28.0650  -34.3140   -2.5069 O   0  0  0  0  0  0  0  0  0  0  0  0
  2  1  1  6
  2  3  1  0
  4  2  1  0
  5  7  1  0
  5  4  1  0
  5  6  1  6
  7  8  2  0
  9 10  1  0
  9  7  1  0
 10 11  1  0
 11 13  1  0
 11 12  2  0
 13 14  1  0
 14 15  1  1
 14 21  1  0
 16 17  2  0
 16 15  1  0
 18 17  1  0
 19 20  2  0
 19 18  1  0
 20 16  1  0
 21 22  1  0
 23 21  2  0
M  END
$$$$
