LGH.pdb
     RDKit          3D

 23 23  0  0  1  0  0  0  0  0999 V2000
   28.0487  -18.8032   -5.3934 C   0  0  0  0  0  0  0  0  0  0  0  0
   28.0724  -20.3400   -5.6110 C   0  0  2  0  0  0  0  0  0  0  0  0
   29.4574  -20.8383   -5.2521 C   0  0  0  0  0  0  0  0  0  0  0  0
   27.7600  -20.6251   -7.0260 C   0  0  0  0  0  0  0  0  0  0  0  0
   26.4400  -20.1394   -7.5253 C   0  0  2  0  0  0  0  0  0  0  0  0
   25.3168  -20.6444   -6.8061 N   0  0  0  0  0  0  0  0  0  0  0  0
   26.3277  -20.4890   -8.9871 C   0  0  0  0  0  0  0  0  0  0  0  0
   27.2290  -19.9890   -9.7360 O   0  0  0  0  0  0  0  0  0  0  0  0
   25.3156  -21.3021   -9.4993 N   0  0  0  0  0  0  0  0  0  0  0  0
   25.1252  -21.4144  -10.9565 C   0  0  0  0  0  0  0  0  0  0  0  0
   23.9011  -20.6401  -11.3307 C   0  0  0  0  0  0  0  0  0  0  0  0
   23.5090  -19.6349  -10.6843 O   0  0  0  0  0  0  0  0  0  0  0  0
   23.1676  -21.0740  -12.4636 N   0  0  0  0  0  0  0  0  0  0  0  0
   21.9876  -20.2758  -12.8643 C   0  0  1  0  0  0  0  0  0  0  0  0
   21.8842  -20.4635  -14.3454 C   0  0  0  0  0  0  0  0  0  0  0  0
   22.9265  -19.8514  -15.1646 C   0  0  0  0  0  0  0  0  0  0  0  0
   23.5620  -18.6521  -15.1879 C   0  0  0  0  0  0  0  0  0  0  0  0
   24.5075  -18.6683  -16.1615 N   0  0  0  0  0  0  0  0  0  0  0  0
   24.4566  -19.8779  -16.7383 C   0  0  0  0  0  0  0  0  0  0  0  0
   23.5201  -20.6016  -16.1592 N   0  0  0  0  0  0  0  0  0  0  0  0
   20.7959  -20.9286  -12.2370 C   0  0  0  0  0  0  0  0  0  0  0  0
   20.8959  -22.1583  -11.5914 O   0  0  0  0  0  0  0  0  0  0  0  0
   19.6824  -20.4051  -12.2672 O   0  0  0  0  0  0  0  0  0  0  0  0
  2  1  1  6
  2  3  1  0
  4  2  1  0
  5  7  1  0
  5  4  1  0
  5  6  1  1
  7  8  2  0
  9 10  1  0
  9  7  1  0
 10 11  1  0
 11 13  1  0
 11 12  2  0
 13 14  1  0
 14 15  1  6
 14 21  1  0
 16 17  2  0
 16 15  1  0
 18 17  1  0
 19 20  2  0
 19 18  1  0
 20 16  1  0
 21 22  1  0
 23 21  2  0
M  END
$$$$
