LGH.pdb
     RDKit          3D

 23 23  0  0  1  0  0  0  0  0999 V2000
    9.9480  -14.5422   -9.7304 C   0  0  0  0  0  0  0  0  0  0  0  0
    9.0909  -15.8236   -9.9113 C   0  0  2  0  0  0  0  0  0  0  0  0
    7.8538  -15.4470  -10.7006 C   0  0  0  0  0  0  0  0  0  0  0  0
    8.7271  -16.3449   -8.5783 C   0  0  0  0  0  0  0  0  0  0  0  0
    9.8558  -16.7892   -7.7086 C   0  0  2  0  0  0  0  0  0  0  0  0
   10.5106  -17.9751   -8.1543 N   0  0  0  0  0  0  0  0  0  0  0  0
    9.3311  -16.9740   -6.3078 C   0  0  0  0  0  0  0  0  0  0  0  0
    8.7766  -15.9477   -5.7955 O   0  0  0  0  0  0  0  0  0  0  0  0
    9.4361  -18.1774   -5.6088 N   0  0  0  0  0  0  0  0  0  0  0  0
    8.8848  -18.2905   -4.2465 C   0  0  0  0  0  0  0  0  0  0  0  0
   10.0260  -18.4168   -3.2876 C   0  0  0  0  0  0  0  0  0  0  0  0
   11.2288  -18.3655   -3.6522 O   0  0  0  0  0  0  0  0  0  0  0  0
    9.7173  -18.6014   -1.9164 N   0  0  0  0  0  0  0  0  0  0  0  0
   10.8432  -18.6243   -0.9561 C   0  0  1  0  0  0  0  0  0  0  0  0
   10.2640  -18.1104    0.3244 C   0  0  0  0  0  0  0  0  0  0  0  0
   10.0496  -16.6694    0.4228 C   0  0  0  0  0  0  0  0  0  0  0  0
   10.1186  -15.6183   -0.4334 C   0  0  0  0  0  0  0  0  0  0  0  0
    9.7469  -14.4877    0.2190 N   0  0  0  0  0  0  0  0  0  0  0  0
    9.4472  -14.8410    1.4775 C   0  0  0  0  0  0  0  0  0  0  0  0
    9.6203  -16.1391    1.6224 N   0  0  0  0  0  0  0  0  0  0  0  0
   11.2014  -20.0628   -0.7505 C   0  0  0  0  0  0  0  0  0  0  0  0
   12.3983  -20.4348   -0.1441 O   0  0  0  0  0  0  0  0  0  0  0  0
   10.4531  -20.9720   -1.1088 O   0  0  0  0  0  0  0  0  0  0  0  0
  2  1  1  1
  2  3  1  0
  4  2  1  0
  5  7  1  0
  5  4  1  0
  5  6  1  6
  7  8  2  0
  9 10  1  0
  9  7  1  0
 10 11  1  0
 11 13  1  0
 11 12  2  0
 13 14  1  0
 14 15  1  1
 14 21  1  0
 16 17  2  0
 16 15  1  0
 18 17  1  0
 19 20  2  0
 19 18  1  0
 20 16  1  0
 21 22  1  0
 23 21  2  0
M  END
$$$$
