LGH.pdb
     RDKit          3D

 23 23  0  0  1  0  0  0  0  0999 V2000
   25.7833  -23.4279  -19.8729 C   0  0  0  0  0  0  0  0  0  0  0  0
   26.7219  -22.3412  -19.2835 C   0  0  2  0  0  0  0  0  0  0  0  0
   27.7891  -22.0399  -20.3159 C   0  0  0  0  0  0  0  0  0  0  0  0
   27.3245  -22.8574  -18.0379 C   0  0  0  0  0  0  0  0  0  0  0  0
   26.3758  -23.2495  -16.9544 C   0  0  2  0  0  0  0  0  0  0  0  0
   25.0698  -23.5940  -17.4121 N   0  0  0  0  0  0  0  0  0  0  0  0
   26.3022  -22.1219  -15.9571 C   0  0  0  0  0  0  0  0  0  0  0  0
   27.3998  -21.8383  -15.3757 O   0  0  0  0  0  0  0  0  0  0  0  0
   25.1239  -21.4271  -15.6801 N   0  0  0  0  0  0  0  0  0  0  0  0
   25.1491  -20.2604  -14.7798 C   0  0  0  0  0  0  0  0  0  0  0  0
   25.0320  -20.7518  -13.3716 C   0  0  0  0  0  0  0  0  0  0  0  0
   24.3988  -21.7950  -13.0665 O   0  0  0  0  0  0  0  0  0  0  0  0
   25.6680  -19.9960  -12.3549 N   0  0  0  0  0  0  0  0  0  0  0  0
   25.5319  -20.4706  -10.9597 C   0  0  1  0  0  0  0  0  0  0  0  0
   26.3629  -19.5245  -10.1513 C   0  0  0  0  0  0  0  0  0  0  0  0
   26.3578  -19.7105   -8.7030 C   0  0  0  0  0  0  0  0  0  0  0  0
   25.8345  -20.6226   -7.8445 C   0  0  0  0  0  0  0  0  0  0  0  0
   26.2118  -20.3100   -6.5788 N   0  0  0  0  0  0  0  0  0  0  0  0
   26.9690  -19.2060   -6.6560 C   0  0  0  0  0  0  0  0  0  0  0  0
   27.0703  -18.8299   -7.9147 N   0  0  0  0  0  0  0  0  0  0  0  0
   24.1003  -20.2643  -10.5750 C   0  0  0  0  0  0  0  0  0  0  0  0
   23.5198  -20.9725   -9.5261 O   0  0  0  0  0  0  0  0  0  0  0  0
   23.3812  -19.4617  -11.1697 O   0  0  0  0  0  0  0  0  0  0  0  0
  2  1  1  6
  2  3  1  0
  4  2  1  0
  5  7  1  0
  5  4  1  0
  5  6  1  6
  7  8  2  0
  9 10  1  0
  9  7  1  0
 10 11  1  0
 11 13  1  0
 11 12  2  0
 13 14  1  0
 14 15  1  1
 14 21  1  0
 16 17  2  0
 16 15  1  0
 18 17  1  0
 19 20  2  0
 19 18  1  0
 20 16  1  0
 21 22  1  0
 23 21  2  0
M  END
$$$$
