LGH.pdb
     RDKit          3D

 23 23  0  0  1  0  0  0  0  0999 V2000
   23.0947  -16.7583  -16.2401 C   0  0  0  0  0  0  0  0  0  0  0  0
   24.4081  -17.0813  -17.0018 C   0  0  2  0  0  0  0  0  0  0  0  0
   24.0405  -17.8419  -18.2594 C   0  0  0  0  0  0  0  0  0  0  0  0
   25.2768  -17.8958  -16.1281 C   0  0  0  0  0  0  0  0  0  0  0  0
   24.9517  -19.3497  -16.0382 C   0  0  2  0  0  0  0  0  0  0  0  0
   23.7078  -19.6362  -15.4022 N   0  0  0  0  0  0  0  0  0  0  0  0
   26.0804  -20.0448  -15.3211 C   0  0  0  0  0  0  0  0  0  0  0  0
   27.2343  -19.8798  -15.8355 O   0  0  0  0  0  0  0  0  0  0  0  0
   25.8919  -20.8166  -14.1737 N   0  0  0  0  0  0  0  0  0  0  0  0
   27.0553  -21.3583  -13.4489 C   0  0  0  0  0  0  0  0  0  0  0  0
   26.7003  -21.4574  -11.9990 C   0  0  0  0  0  0  0  0  0  0  0  0
   27.3413  -22.1766  -11.1902 O   0  0  0  0  0  0  0  0  0  0  0  0
   25.5929  -20.7017  -11.5385 N   0  0  0  0  0  0  0  0  0  0  0  0
   24.9483  -21.1276  -10.2762 C   0  0  1  0  0  0  0  0  0  0  0  0
   25.2847  -20.0509   -9.2930 C   0  0  0  0  0  0  0  0  0  0  0  0
   26.5983  -20.1201   -8.6591 C   0  0  0  0  0  0  0  0  0  0  0  0
   27.6739  -20.9438   -8.7446 C   0  0  0  0  0  0  0  0  0  0  0  0
   28.6605  -20.4725   -7.9406 N   0  0  0  0  0  0  0  0  0  0  0  0
   28.1946  -19.3572   -7.3597 C   0  0  0  0  0  0  0  0  0  0  0  0
   26.9651  -19.1269   -7.7739 N   0  0  0  0  0  0  0  0  0  0  0  0
   23.4713  -21.0840  -10.5136 C   0  0  0  0  0  0  0  0  0  0  0  0
   22.5655  -21.4930   -9.5384 O   0  0  0  0  0  0  0  0  0  0  0  0
   23.0001  -20.6856  -11.5786 O   0  0  0  0  0  0  0  0  0  0  0  0
  2  1  1  1
  2  3  1  0
  4  2  1  0
  5  7  1  0
  5  4  1  0
  5  6  1  1
  7  8  2  0
  9 10  1  0
  9  7  1  0
 10 11  1  0
 11 13  1  0
 11 12  2  0
 13 14  1  0
 14 15  1  1
 14 21  1  0
 16 17  2  0
 16 15  1  0
 18 17  1  0
 19 20  2  0
 19 18  1  0
 20 16  1  0
 21 22  1  0
 23 21  2  0
M  END
$$$$
