LGH.pdb
     RDKit          3D

 23 23  0  0  1  0  0  0  0  0999 V2000
   34.3861   -6.2466  -16.9939 C   0  0  0  0  0  0  0  0  0  0  0  0
   34.4771   -7.3370  -15.8929 C   0  0  2  0  0  0  0  0  0  0  0  0
   35.7578   -7.1073  -15.1168 C   0  0  0  0  0  0  0  0  0  0  0  0
   34.4829   -8.6654  -16.5382 C   0  0  0  0  0  0  0  0  0  0  0  0
   33.2826   -9.0121  -17.3547 C   0  0  2  0  0  0  0  0  0  0  0  0
   32.0528   -8.9874  -16.6329 N   0  0  0  0  0  0  0  0  0  0  0  0
   33.5031  -10.3703  -17.9697 C   0  0  0  0  0  0  0  0  0  0  0  0
   33.9533  -11.2595  -17.1759 O   0  0  0  0  0  0  0  0  0  0  0  0
   33.2369  -10.6505  -19.3107 N   0  0  0  0  0  0  0  0  0  0  0  0
   33.4916  -11.9991  -19.8479 C   0  0  0  0  0  0  0  0  0  0  0  0
   32.2957  -12.8514  -19.5625 C   0  0  0  0  0  0  0  0  0  0  0  0
   32.3530  -14.1069  -19.5102 O   0  0  0  0  0  0  0  0  0  0  0  0
   31.0570  -12.1973  -19.3452 N   0  0  0  0  0  0  0  0  0  0  0  0
   29.8822  -13.0396  -19.0279 C   0  0  1  0  0  0  0  0  0  0  0  0
   29.2353  -12.3680  -17.8576 C   0  0  0  0  0  0  0  0  0  0  0  0
   28.0029  -12.9644  -17.3501 C   0  0  0  0  0  0  0  0  0  0  0  0
   27.3030  -14.1012  -17.5963 C   0  0  0  0  0  0  0  0  0  0  0  0
   26.2350  -14.1561  -16.7606 N   0  0  0  0  0  0  0  0  0  0  0  0
   26.2762  -13.0540  -15.9977 C   0  0  0  0  0  0  0  0  0  0  0  0
   27.3234  -12.3275  -16.3317 N   0  0  0  0  0  0  0  0  0  0  0  0
   28.9483  -12.9279  -20.1921 C   0  0  0  0  0  0  0  0  0  0  0  0
   28.2306  -14.0269  -20.6567 O   0  0  0  0  0  0  0  0  0  0  0  0
   28.7784  -11.8620  -20.7835 O   0  0  0  0  0  0  0  0  0  0  0  0
  2  1  1  6
  2  3  1  0
  4  2  1  0
  5  7  1  0
  5  4  1  0
  5  6  1  1
  7  8  2  0
  9 10  1  0
  9  7  1  0
 10 11  1  0
 11 13  1  0
 11 12  2  0
 13 14  1  0
 14 15  1  1
 14 21  1  0
 16 17  2  0
 16 15  1  0
 18 17  1  0
 19 20  2  0
 19 18  1  0
 20 16  1  0
 21 22  1  0
 23 21  2  0
M  END
$$$$
