LGH.pdb
     RDKit          3D

 23 23  0  0  1  0  0  0  0  0999 V2000
   20.1792  -16.0393  -16.4302 C   0  0  0  0  0  0  0  0  0  0  0  0
   18.8237  -15.2951  -16.5658 C   0  0  2  0  0  0  0  0  0  0  0  0
   17.7925  -16.2934  -17.0509 C   0  0  0  0  0  0  0  0  0  0  0  0
   18.9824  -14.1897  -17.5323 C   0  0  0  0  0  0  0  0  0  0  0  0
   19.9180  -13.0948  -17.1408 C   0  0  2  0  0  0  0  0  0  0  0  0
   19.6850  -12.5586  -15.8400 N   0  0  0  0  0  0  0  0  0  0  0  0
   19.8358  -12.0061  -18.1798 C   0  0  0  0  0  0  0  0  0  0  0  0
   19.7878  -12.4100  -19.3872 O   0  0  0  0  0  0  0  0  0  0  0  0
   19.8116  -10.6482  -17.8586 N   0  0  0  0  0  0  0  0  0  0  0  0
   19.6625   -9.6401  -18.9234 C   0  0  0  0  0  0  0  0  0  0  0  0
   18.9237   -8.4678  -18.3596 C   0  0  0  0  0  0  0  0  0  0  0  0
   18.6994   -7.4230  -19.0231 O   0  0  0  0  0  0  0  0  0  0  0  0
   18.4663   -8.5589  -17.0209 N   0  0  0  0  0  0  0  0  0  0  0  0
   17.7248   -7.4033  -16.4687 C   0  0  1  0  0  0  0  0  0  0  0  0
   16.4586   -7.9863  -15.9245 C   0  0  0  0  0  0  0  0  0  0  0  0
   15.4102   -8.3083  -16.8886 C   0  0  0  0  0  0  0  0  0  0  0  0
   15.1967   -8.0636  -18.2066 C   0  0  0  0  0  0  0  0  0  0  0  0
   14.0478   -8.6745  -18.5924 N   0  0  0  0  0  0  0  0  0  0  0  0
   13.5526   -9.2973  -17.5129 C   0  0  0  0  0  0  0  0  0  0  0  0
   14.3495   -9.0928  -16.4837 N   0  0  0  0  0  0  0  0  0  0  0  0
   18.5264   -6.8931  -15.3124 C   0  0  0  0  0  0  0  0  0  0  0  0
   19.7472   -7.4654  -14.9648 O   0  0  0  0  0  0  0  0  0  0  0  0
   18.1386   -5.9491  -14.6244 O   0  0  0  0  0  0  0  0  0  0  0  0
  2  1  1  6
  2  3  1  0
  4  2  1  0
  5  7  1  0
  5  4  1  0
  5  6  1  1
  7  8  2  0
  9 10  1  0
  9  7  1  0
 10 11  1  0
 11 13  1  0
 11 12  2  0
 13 14  1  0
 14 15  1  1
 14 21  1  0
 16 17  2  0
 16 15  1  0
 18 17  1  0
 19 20  2  0
 19 18  1  0
 20 16  1  0
 21 22  1  0
 23 21  2  0
M  END
$$$$
