LGH.pdb
     RDKit          3D

 23 23  0  0  1  0  0  0  0  0999 V2000
   23.9986  -34.9593  -12.6203 C   0  0  0  0  0  0  0  0  0  0  0  0
   23.3696  -33.5601  -12.3838 C   0  0  2  0  0  0  0  0  0  0  0  0
   23.6636  -32.7072  -13.6009 C   0  0  0  0  0  0  0  0  0  0  0  0
   23.9669  -32.9690  -11.1693 C   0  0  0  0  0  0  0  0  0  0  0  0
   23.7575  -33.7172   -9.8950 C   0  0  2  0  0  0  0  0  0  0  0  0
   22.4198  -33.6776   -9.4023 N   0  0  0  0  0  0  0  0  0  0  0  0
   24.7131  -33.1744   -8.8635 C   0  0  0  0  0  0  0  0  0  0  0  0
   25.9477  -33.2700   -9.1633 O   0  0  0  0  0  0  0  0  0  0  0  0
   24.2916  -32.6037   -7.6617 N   0  0  0  0  0  0  0  0  0  0  0  0
   25.2841  -32.1715   -6.6615 C   0  0  0  0  0  0  0  0  0  0  0  0
   25.7453  -33.3778   -5.9065 C   0  0  0  0  0  0  0  0  0  0  0  0
   25.3224  -34.5365   -6.1532 O   0  0  0  0  0  0  0  0  0  0  0  0
   26.6982  -33.1850   -4.8748 N   0  0  0  0  0  0  0  0  0  0  0  0
   27.1299  -34.3749   -4.1079 C   0  0  1  0  0  0  0  0  0  0  0  0
   28.2078  -33.8735   -3.1991 C   0  0  0  0  0  0  0  0  0  0  0  0
   28.7457  -34.8192   -2.2252 C   0  0  0  0  0  0  0  0  0  0  0  0
   28.6319  -36.1538   -2.0048 C   0  0  0  0  0  0  0  0  0  0  0  0
   29.4265  -36.5019   -0.9609 N   0  0  0  0  0  0  0  0  0  0  0  0
   30.0317  -35.3825   -0.5379 C   0  0  0  0  0  0  0  0  0  0  0  0
   29.6408  -34.3650   -1.2781 N   0  0  0  0  0  0  0  0  0  0  0  0
   25.9675  -34.7810   -3.2572 C   0  0  0  0  0  0  0  0  0  0  0  0
   25.8160  -36.0909   -2.8100 O   0  0  0  0  0  0  0  0  0  0  0  0
   25.1013  -33.9742   -2.9200 O   0  0  0  0  0  0  0  0  0  0  0  0
  2  1  1  6
  2  3  1  0
  4  2  1  0
  5  7  1  0
  5  4  1  0
  5  6  1  1
  7  8  2  0
  9 10  1  0
  9  7  1  0
 10 11  1  0
 11 13  1  0
 11 12  2  0
 13 14  1  0
 14 15  1  1
 14 21  1  0
 16 17  2  0
 16 15  1  0
 18 17  1  0
 19 20  2  0
 19 18  1  0
 20 16  1  0
 21 22  1  0
 23 21  2  0
M  END
$$$$
