LGH.pdb
     RDKit          3D

 23 23  0  0  1  0  0  0  0  0999 V2000
   16.8574  -14.2955  -14.6238 C   0  0  0  0  0  0  0  0  0  0  0  0
   17.5527  -13.6258  -15.8394 C   0  0  2  0  0  0  0  0  0  0  0  0
   18.8227  -14.3985  -16.1314 C   0  0  0  0  0  0  0  0  0  0  0  0
   17.8568  -12.2212  -15.4992 C   0  0  0  0  0  0  0  0  0  0  0  0
   18.0014  -11.2768  -16.6459 C   0  0  2  0  0  0  0  0  0  0  0  0
   19.1901  -11.4595  -17.4123 N   0  0  0  0  0  0  0  0  0  0  0  0
   17.9317   -9.8688  -16.1127 C   0  0  0  0  0  0  0  0  0  0  0  0
   16.9289   -9.6191  -15.3676 O   0  0  0  0  0  0  0  0  0  0  0  0
   18.8899   -8.8968  -16.4040 N   0  0  0  0  0  0  0  0  0  0  0  0
   18.7920   -7.5579  -15.7956 C   0  0  0  0  0  0  0  0  0  0  0  0
   20.1763   -7.0763  -15.4960 C   0  0  0  0  0  0  0  0  0  0  0  0
   21.2056   -7.7206  -15.8237 O   0  0  0  0  0  0  0  0  0  0  0  0
   20.3110   -5.8408  -14.8140 N   0  0  0  0  0  0  0  0  0  0  0  0
   21.6722   -5.2759  -14.6795 C   0  0  1  0  0  0  0  0  0  0  0  0
   21.5334   -3.8428  -15.0876 C   0  0  0  0  0  0  0  0  0  0  0  0
   21.3991   -3.5713  -16.5160 C   0  0  0  0  0  0  0  0  0  0  0  0
   22.2487   -3.4905  -17.5716 C   0  0  0  0  0  0  0  0  0  0  0  0
   21.5335   -3.2616  -18.7021 N   0  0  0  0  0  0  0  0  0  0  0  0
   20.2424   -3.2023  -18.3447 C   0  0  0  0  0  0  0  0  0  0  0  0
   20.1378   -3.3848  -17.0440 N   0  0  0  0  0  0  0  0  0  0  0  0
   22.0057   -5.3050  -13.2208 C   0  0  0  0  0  0  0  0  0  0  0  0
   23.3115   -5.1314  -12.7696 O   0  0  0  0  0  0  0  0  0  0  0  0
   21.1401   -5.4832  -12.3641 O   0  0  0  0  0  0  0  0  0  0  0  0
  2  1  1  1
  2  3  1  0
  4  2  1  0
  5  7  1  0
  5  4  1  0
  5  6  1  1
  7  8  2  0
  9 10  1  0
  9  7  1  0
 10 11  1  0
 11 13  1  0
 11 12  2  0
 13 14  1  0
 14 15  1  1
 14 21  1  0
 16 17  2  0
 16 15  1  0
 18 17  1  0
 19 20  2  0
 19 18  1  0
 20 16  1  0
 21 22  1  0
 23 21  2  0
M  END
$$$$
