LGH.pdb
     RDKit          3D

 23 23  0  0  1  0  0  0  0  0999 V2000
    8.7852  -19.2365   -4.3499 C   0  0  0  0  0  0  0  0  0  0  0  0
    8.6461  -18.3546   -3.0800 C   0  0  2  0  0  0  0  0  0  0  0  0
    8.2739  -16.9551   -3.5252 C   0  0  0  0  0  0  0  0  0  0  0  0
    9.9347  -18.3529   -2.3585 C   0  0  0  0  0  0  0  0  0  0  0  0
   10.4334  -19.6783   -1.8871 C   0  0  2  0  0  0  0  0  0  0  0  0
    9.6081  -20.3025   -0.9058 N   0  0  0  0  0  0  0  0  0  0  0  0
   11.8331  -19.4979   -1.3581 C   0  0  0  0  0  0  0  0  0  0  0  0
   12.6289  -18.8702   -2.1300 O   0  0  0  0  0  0  0  0  0  0  0  0
   12.2434  -19.9769   -0.1131 N   0  0  0  0  0  0  0  0  0  0  0  0
   13.6010  -19.6834    0.3801 C   0  0  0  0  0  0  0  0  0  0  0  0
   13.7999  -20.4146    1.6699 C   0  0  0  0  0  0  0  0  0  0  0  0
   12.9719  -21.2528    2.1105 O   0  0  0  0  0  0  0  0  0  0  0  0
   14.9764  -20.1368    2.4104 N   0  0  0  0  0  0  0  0  0  0  0  0
   15.1724  -20.8620    3.6854 C   0  0  1  0  0  0  0  0  0  0  0  0
   16.2251  -21.8827    3.3867 C   0  0  0  0  0  0  0  0  0  0  0  0
   15.7994  -23.0836    2.6736 C   0  0  0  0  0  0  0  0  0  0  0  0
   15.0717  -23.3414    1.5570 C   0  0  0  0  0  0  0  0  0  0  0  0
   15.0514  -24.6807    1.3383 N   0  0  0  0  0  0  0  0  0  0  0  0
   15.7675  -25.2497    2.3191 C   0  0  0  0  0  0  0  0  0  0  0  0
   16.2244  -24.3154    3.1281 N   0  0  0  0  0  0  0  0  0  0  0  0
   15.7518  -19.8781    4.6530 C   0  0  0  0  0  0  0  0  0  0  0  0
   15.7888  -20.1383    6.0204 O   0  0  0  0  0  0  0  0  0  0  0  0
   16.2175  -18.8021    4.2786 O   0  0  0  0  0  0  0  0  0  0  0  0
  2  1  1  6
  2  3  1  0
  4  2  1  0
  5  7  1  0
  5  4  1  0
  5  6  1  1
  7  8  2  0
  9 10  1  0
  9  7  1  0
 10 11  1  0
 11 13  1  0
 11 12  2  0
 13 14  1  0
 14 15  1  6
 14 21  1  0
 16 17  2  0
 16 15  1  0
 18 17  1  0
 19 20  2  0
 19 18  1  0
 20 16  1  0
 21 22  1  0
 23 21  2  0
M  END
$$$$
