LGH.pdb
     RDKit          3D

 23 23  0  0  1  0  0  0  0  0999 V2000
   25.9421  -19.0534  -21.9031 C   0  0  0  0  0  0  0  0  0  0  0  0
   24.4383  -19.3971  -21.7295 C   0  0  2  0  0  0  0  0  0  0  0  0
   23.6682  -18.6722  -22.8143 C   0  0  0  0  0  0  0  0  0  0  0  0
   24.0013  -18.9571  -20.3891 C   0  0  0  0  0  0  0  0  0  0  0  0
   24.7482  -19.5242  -19.2280 C   0  0  2  0  0  0  0  0  0  0  0  0
   24.8367  -20.9475  -19.2237 N   0  0  0  0  0  0  0  0  0  0  0  0
   24.0967  -19.0348  -17.9600 C   0  0  0  0  0  0  0  0  0  0  0  0
   23.8777  -17.7807  -17.9108 O   0  0  0  0  0  0  0  0  0  0  0  0
   23.7506  -19.8823  -16.9065 N   0  0  0  0  0  0  0  0  0  0  0  0
   23.0708  -19.3409  -15.7162 C   0  0  0  0  0  0  0  0  0  0  0  0
   22.4770  -20.4834  -14.9546 C   0  0  0  0  0  0  0  0  0  0  0  0
   22.3670  -21.6389  -15.4393 O   0  0  0  0  0  0  0  0  0  0  0  0
   22.0260  -20.2320  -13.6344 N   0  0  0  0  0  0  0  0  0  0  0  0
   21.5796  -21.3906  -12.8291 C   0  0  1  0  0  0  0  0  0  0  0  0
   22.1712  -21.1645  -11.4733 C   0  0  0  0  0  0  0  0  0  0  0  0
   23.6121  -21.3594  -11.3389 C   0  0  0  0  0  0  0  0  0  0  0  0
   24.5697  -22.0239  -12.0349 C   0  0  0  0  0  0  0  0  0  0  0  0
   25.7773  -21.7962  -11.4588 N   0  0  0  0  0  0  0  0  0  0  0  0
   25.5655  -20.9902  -10.4082 C   0  0  0  0  0  0  0  0  0  0  0  0
   24.2800  -20.7159  -10.3171 N   0  0  0  0  0  0  0  0  0  0  0  0
   20.0926  -21.2771  -12.7031 C   0  0  0  0  0  0  0  0  0  0  0  0
   19.3115  -22.3595  -12.3070 O   0  0  0  0  0  0  0  0  0  0  0  0
   19.5028  -20.2241  -12.9444 O   0  0  0  0  0  0  0  0  0  0  0  0
  2  1  1  6
  2  3  1  0
  4  2  1  0
  5  7  1  0
  5  4  1  0
  5  6  1  6
  7  8  2  0
  9 10  1  0
  9  7  1  0
 10 11  1  0
 11 13  1  0
 11 12  2  0
 13 14  1  0
 14 15  1  1
 14 21  1  0
 16 17  2  0
 16 15  1  0
 18 17  1  0
 19 20  2  0
 19 18  1  0
 20 16  1  0
 21 22  1  0
 23 21  2  0
M  END
$$$$
