CIA.pdb
     RDKit          3D

 20 19  0  0  1  0  0  0  0  0999 V2000
    5.3757  -16.9232   21.3629 N   0  0  0  0  0  0  0  0  0  0  0  0
    5.5277  -17.1316   22.7702 C   0  0  1  0  0  0  0  0  0  0  0  0
    5.6259  -18.6126   23.0531 C   0  0  0  0  0  0  0  0  0  0  0  0
    3.9290  -19.2670   23.0648 S   0  0  0  0  0  0  0  0  0  0  0  0
    6.6861  -16.3850   23.3335 C   0  0  0  0  0  0  0  0  0  0  0  0
    7.7158  -16.2896   22.6197 O   0  0  0  0  0  0  0  0  0  0  0  0
    5.9810  -12.1529   26.6610 C   0  0  0  0  0  0  0  0  0  0  0  0
    6.6029  -13.0167   25.5561 C   0  0  0  0  0  0  0  0  0  0  0  0
    7.3896  -14.1078   26.1845 C   0  0  2  0  0  0  0  0  0  0  0  0
    8.5441  -13.4927   26.9480 C   0  0  0  0  0  0  0  0  0  0  0  0
    7.8464  -15.1874   25.2438 C   0  0  2  0  0  0  0  0  0  0  0  0
    6.6616  -15.7923   24.6220 N   0  0  0  0  0  0  0  0  0  0  0  0
    8.7346  -16.1910   25.8210 C   0  0  0  0  0  0  0  0  0  0  0  0
    8.3657  -16.9217   26.7724 O   0  0  0  0  0  0  0  0  0  0  0  0
   12.1254  -17.7208   24.9601 C   0  0  0  0  0  0  0  0  0  0  0  0
   10.8882  -17.4963   25.8402 C   0  0  2  0  0  0  0  0  0  0  0  0
   10.0808  -16.4222   25.3571 N   0  0  0  0  0  0  0  0  0  0  0  0
   11.3813  -17.2991   27.2168 C   0  0  0  0  0  0  0  0  0  0  0  0
   11.2521  -16.1621   27.7261 O   0  0  0  0  0  0  0  0  0  0  0  0
   11.9756  -18.2795   27.9841 O   0  0  0  0  0  0  0  0  0  0  0  0
  2  1  1  6
  2  3  1  0
  4  3  1  0
  5  2  1  0
  5  6  2  0
  7  8  1  0
  8  9  1  0
  9 11  1  0
  9 10  1  6
 11 12  1  1
 11 13  1  0
 12  5  1  0
 13 14  2  0
 16 15  1  6
 17 13  1  0
 17 16  1  0
 18 20  1  0
 18 16  1  0
 19 18  2  0
M  END
$$$$
