CIA.pdb
     RDKit          3D

 20 19  0  0  1  0  0  0  0  0999 V2000
    8.4321  -14.9863   20.2664 N   0  0  0  0  0  0  0  0  0  0  0  0
    7.6263  -15.3825   21.3803 C   0  0  1  0  0  0  0  0  0  0  0  0
    7.2632  -16.8431   21.2460 C   0  0  0  0  0  0  0  0  0  0  0  0
    6.0316  -16.9662   19.9134 S   0  0  0  0  0  0  0  0  0  0  0  0
    8.2810  -15.0952   22.6862 C   0  0  0  0  0  0  0  0  0  0  0  0
    9.5322  -15.1967   22.7412 O   0  0  0  0  0  0  0  0  0  0  0  0
    5.8793  -11.6507   26.1465 C   0  0  0  0  0  0  0  0  0  0  0  0
    6.9415  -12.3665   25.3022 C   0  0  0  0  0  0  0  0  0  0  0  0
    7.3234  -13.6306   25.9809 C   0  0  2  0  0  0  0  0  0  0  0  0
    7.9677  -13.2903   27.3086 C   0  0  0  0  0  0  0  0  0  0  0  0
    8.1739  -14.5614   25.1627 C   0  0  2  0  0  0  0  0  0  0  0  0
    7.5506  -14.7192   23.8426 N   0  0  0  0  0  0  0  0  0  0  0  0
    8.4758  -15.8472   25.7831 C   0  0  0  0  0  0  0  0  0  0  0  0
    7.5841  -16.7114   25.9650 O   0  0  0  0  0  0  0  0  0  0  0  0
   10.9198  -18.3722   25.8475 C   0  0  0  0  0  0  0  0  0  0  0  0
   10.0800  -17.5042   26.7946 C   0  0  2  0  0  0  0  0  0  0  0  0
    9.7948  -16.2244   26.2292 N   0  0  0  0  0  0  0  0  0  0  0  0
   10.8166  -17.4411   28.0716 C   0  0  0  0  0  0  0  0  0  0  0  0
   11.0548  -18.5196   28.6622 O   0  0  0  0  0  0  0  0  0  0  0  0
   11.2622  -16.2767   28.6622 O   0  0  0  0  0  0  0  0  0  0  0  0
  2  1  1  6
  2  3  1  0
  4  3  1  0
  5  2  1  0
  5  6  2  0
  7  8  1  0
  8  9  1  0
  9 11  1  0
  9 10  1  1
 11 12  1  6
 11 13  1  0
 12  5  1  0
 13 14  2  0
 16 15  1  6
 17 13  1  0
 17 16  1  0
 18 20  1  0
 18 16  1  0
 19 18  2  0
M  END
$$$$
