CIA.pdb
     RDKit          3D

 20 19  0  0  1  0  0  0  0  0999 V2000
   -1.3652  -25.3147   35.0315 N   0  0  0  0  0  0  0  0  0  0  0  0
   -2.7061  -24.8427   35.1941 C   0  0  1  0  0  0  0  0  0  0  0  0
   -2.6857  -23.4823   35.8514 C   0  0  0  0  0  0  0  0  0  0  0  0
   -2.0511  -23.7151   37.5398 S   0  0  0  0  0  0  0  0  0  0  0  0
   -3.4615  -24.8237   33.9113 C   0  0  0  0  0  0  0  0  0  0  0  0
   -2.8034  -24.6538   32.8544 O   0  0  0  0  0  0  0  0  0  0  0  0
   -6.7085  -28.7465   32.8221 C   0  0  0  0  0  0  0  0  0  0  0  0
   -5.7134  -27.5941   32.6340 C   0  0  0  0  0  0  0  0  0  0  0  0
   -6.4611  -26.3116   32.6154 C   0  0  2  0  0  0  0  0  0  0  0  0
   -7.4535  -26.3476   31.4719 C   0  0  0  0  0  0  0  0  0  0  0  0
   -5.6060  -25.0759   32.5821 C   0  0  2  0  0  0  0  0  0  0  0  0
   -4.8690  -24.9878   33.8491 N   0  0  0  0  0  0  0  0  0  0  0  0
   -6.3058  -23.8345   32.2681 C   0  0  0  0  0  0  0  0  0  0  0  0
   -7.2636  -23.4277   32.9698 O   0  0  0  0  0  0  0  0  0  0  0  0
   -6.1173  -21.0944   29.5981 C   0  0  0  0  0  0  0  0  0  0  0  0
   -6.7478  -21.8587   30.7703 C   0  0  2  0  0  0  0  0  0  0  0  0
   -5.9632  -22.9898   31.1500 N   0  0  0  0  0  0  0  0  0  0  0  0
   -8.1237  -22.1984   30.3596 C   0  0  0  0  0  0  0  0  0  0  0  0
   -8.9789  -21.2833   30.3698 O   0  0  0  0  0  0  0  0  0  0  0  0
   -8.5359  -23.4543   29.9645 O   0  0  0  0  0  0  0  0  0  0  0  0
  2  1  1  6
  2  3  1  0
  4  3  1  0
  5  2  1  0
  5  6  2  0
  7  8  1  0
  8  9  1  0
  9 11  1  0
  9 10  1  6
 11 12  1  1
 11 13  1  0
 12  5  1  0
 13 14  2  0
 16 15  1  6
 17 13  1  0
 17 16  1  0
 18 20  1  0
 18 16  1  0
 19 18  2  0
M  END
$$$$
