CIA.pdb
     RDKit          3D

 20 19  0  0  1  0  0  0  0  0999 V2000
    6.9314  -16.1189   20.7151 N   0  0  0  0  0  0  0  0  0  0  0  0
    6.5761  -16.2564   22.0942 C   0  0  1  0  0  0  0  0  0  0  0  0
    6.4192  -17.7210   22.4310 C   0  0  0  0  0  0  0  0  0  0  0  0
    4.7260  -18.1965   21.9675 S   0  0  0  0  0  0  0  0  0  0  0  0
    7.5463  -15.5833   23.0010 C   0  0  0  0  0  0  0  0  0  0  0  0
    8.7135  -15.4059   22.5709 O   0  0  0  0  0  0  0  0  0  0  0  0
    5.6441  -11.9384   26.6547 C   0  0  0  0  0  0  0  0  0  0  0  0
    6.5529  -12.5367   25.5732 C   0  0  0  0  0  0  0  0  0  0  0  0
    7.3572  -13.6312   26.1727 C   0  0  2  0  0  0  0  0  0  0  0  0
    8.2368  -13.0456   27.2577 C   0  0  0  0  0  0  0  0  0  0  0  0
    8.1437  -14.4549   25.1917 C   0  0  2  0  0  0  0  0  0  0  0  0
    7.1994  -15.1469   24.3053 N   0  0  0  0  0  0  0  0  0  0  0  0
    9.1172  -15.3710   25.7770 C   0  0  0  0  0  0  0  0  0  0  0  0
   10.1116  -14.9485   26.4157 O   0  0  0  0  0  0  0  0  0  0  0  0
   11.3553  -17.5099   25.3923 C   0  0  0  0  0  0  0  0  0  0  0  0
   10.0369  -17.6842   26.1585 C   0  0  2  0  0  0  0  0  0  0  0  0
    9.0206  -16.8065   25.6728 N   0  0  0  0  0  0  0  0  0  0  0  0
   10.3530  -17.4973   27.5876 C   0  0  0  0  0  0  0  0  0  0  0  0
   11.2234  -18.2412   28.0953 O   0  0  0  0  0  0  0  0  0  0  0  0
    9.7569  -16.5601   28.4058 O   0  0  0  0  0  0  0  0  0  0  0  0
  2  1  1  6
  2  3  1  0
  4  3  1  0
  5  2  1  0
  5  6  2  0
  7  8  1  0
  8  9  1  0
  9 11  1  0
  9 10  1  1
 11 12  1  1
 11 13  1  0
 12  5  1  0
 13 14  2  0
 16 15  1  6
 17 13  1  0
 17 16  1  0
 18 20  1  0
 18 16  1  0
 19 18  2  0
M  END
$$$$
