CIA.pdb
     RDKit          3D

 20 19  0  0  1  0  0  0  0  0999 V2000
    6.9853  -14.8989   20.2603 N   0  0  0  0  0  0  0  0  0  0  0  0
    6.6307  -15.4567   21.5292 C   0  0  1  0  0  0  0  0  0  0  0  0
    6.5733  -16.9627   21.4199 C   0  0  0  0  0  0  0  0  0  0  0  0
    4.8409  -17.4079   21.0909 S   0  0  0  0  0  0  0  0  0  0  0  0
    7.5456  -15.0178   22.6187 C   0  0  0  0  0  0  0  0  0  0  0  0
    8.7661  -14.9085   22.3409 O   0  0  0  0  0  0  0  0  0  0  0  0
    5.8332  -11.5743   26.4086 C   0  0  0  0  0  0  0  0  0  0  0  0
    6.7530  -12.2627   25.3918 C   0  0  0  0  0  0  0  0  0  0  0  0
    7.2948  -13.5050   25.9978 C   0  0  2  0  0  0  0  0  0  0  0  0
    8.1702  -13.1265   27.1743 C   0  0  0  0  0  0  0  0  0  0  0  0
    8.0010  -14.4249   25.0416 C   0  0  2  0  0  0  0  0  0  0  0  0
    7.0901  -14.7264   23.9300 N   0  0  0  0  0  0  0  0  0  0  0  0
    8.5640  -15.6349   25.6320 C   0  0  0  0  0  0  0  0  0  0  0  0
    7.8634  -16.4114   26.3258 O   0  0  0  0  0  0  0  0  0  0  0  0
   11.7949  -17.6315   25.3021 C   0  0  0  0  0  0  0  0  0  0  0  0
   10.4426  -17.2836   25.9393 C   0  0  2  0  0  0  0  0  0  0  0  0
    9.9417  -16.0310   25.4713 N   0  0  0  0  0  0  0  0  0  0  0  0
   10.6396  -17.3384   27.4006 C   0  0  0  0  0  0  0  0  0  0  0  0
   10.9645  -18.4378   27.9052 O   0  0  0  0  0  0  0  0  0  0  0  0
   10.4912  -16.2631   28.2520 O   0  0  0  0  0  0  0  0  0  0  0  0
  2  1  1  6
  2  3  1  0
  4  3  1  0
  5  2  1  0
  5  6  2  0
  7  8  1  0
  8  9  1  0
  9 11  1  0
  9 10  1  1
 11 12  1  6
 11 13  1  0
 12  5  1  0
 13 14  2  0
 16 15  1  6
 17 13  1  0
 17 16  1  0
 18 20  1  0
 18 16  1  0
 19 18  2  0
M  END
$$$$
