CIA.pdb
     RDKit          3D

 20 19  0  0  1  0  0  0  0  0999 V2000
    7.8698  -13.7396   20.0432 N   0  0  0  0  0  0  0  0  0  0  0  0
    7.2059  -14.4632   21.0837 C   0  0  1  0  0  0  0  0  0  0  0  0
    6.9670  -15.8862   20.6352 C   0  0  0  0  0  0  0  0  0  0  0  0
    6.0910  -16.7314   21.9865 S   0  0  0  0  0  0  0  0  0  0  0  0
    7.9454  -14.4092   22.3748 C   0  0  0  0  0  0  0  0  0  0  0  0
    9.1980  -14.4959   22.3285 O   0  0  0  0  0  0  0  0  0  0  0  0
    5.8452  -11.4135   26.3178 C   0  0  0  0  0  0  0  0  0  0  0  0
    6.8620  -12.0426   25.3565 C   0  0  0  0  0  0  0  0  0  0  0  0
    7.2411  -13.3837   25.8681 C   0  0  2  0  0  0  0  0  0  0  0  0
    7.9690  -13.2102   27.1849 C   0  0  0  0  0  0  0  0  0  0  0  0
    8.0149  -14.2383   24.9037 C   0  0  2  0  0  0  0  0  0  0  0  0
    7.2922  -14.2660   23.6258 N   0  0  0  0  0  0  0  0  0  0  0  0
    8.3448  -15.5792   25.3755 C   0  0  0  0  0  0  0  0  0  0  0  0
    7.4549  -16.3715   25.7698 O   0  0  0  0  0  0  0  0  0  0  0  0
   11.1994  -18.0117   25.1532 C   0  0  0  0  0  0  0  0  0  0  0  0
    9.9944  -17.4113   25.8900 C   0  0  2  0  0  0  0  0  0  0  0  0
    9.6910  -16.0949   25.4272 N   0  0  0  0  0  0  0  0  0  0  0  0
   10.3054  -17.4797   27.3308 C   0  0  0  0  0  0  0  0  0  0  0  0
   10.4759  -18.6121   27.8382 O   0  0  0  0  0  0  0  0  0  0  0  0
   10.4219  -16.3834   28.1600 O   0  0  0  0  0  0  0  0  0  0  0  0
  2  1  1  6
  2  3  1  0
  4  3  1  0
  5  2  1  0
  5  6  2  0
  7  8  1  0
  8  9  1  0
  9 11  1  0
  9 10  1  1
 11 12  1  6
 11 13  1  0
 12  5  1  0
 13 14  2  0
 16 15  1  6
 17 13  1  0
 17 16  1  0
 18 20  1  0
 18 16  1  0
 19 18  2  0
M  END
$$$$
