CIA.pdb
     RDKit          3D

 20 19  0  0  1  0  0  0  0  0999 V2000
    7.4446  -14.8918   20.1558 N   0  0  0  0  0  0  0  0  0  0  0  0
    6.8976  -15.3499   21.3960 C   0  0  1  0  0  0  0  0  0  0  0  0
    6.6403  -16.8367   21.3152 C   0  0  0  0  0  0  0  0  0  0  0  0
    5.0228  -17.0551   20.5128 S   0  0  0  0  0  0  0  0  0  0  0  0
    7.7585  -15.0022   22.5599 C   0  0  0  0  0  0  0  0  0  0  0  0
    8.9992  -14.9519   22.3678 O   0  0  0  0  0  0  0  0  0  0  0  0
    6.0333  -11.6317   26.4139 C   0  0  0  0  0  0  0  0  0  0  0  0
    6.9800  -12.3316   25.4301 C   0  0  0  0  0  0  0  0  0  0  0  0
    7.3746  -13.6463   25.9956 C   0  0  2  0  0  0  0  0  0  0  0  0
    8.1848  -13.4077   27.2528 C   0  0  0  0  0  0  0  0  0  0  0  0
    8.0771  -14.5671   25.0376 C   0  0  2  0  0  0  0  0  0  0  0  0
    7.2311  -14.7324   23.8488 N   0  0  0  0  0  0  0  0  0  0  0  0
    8.4993  -15.8493   25.5919 C   0  0  0  0  0  0  0  0  0  0  0  0
    7.6685  -16.6652   26.0602 O   0  0  0  0  0  0  0  0  0  0  0  0
   11.5193  -18.0816   25.3887 C   0  0  0  0  0  0  0  0  0  0  0  0
   10.2623  -17.5723   26.1070 C   0  0  2  0  0  0  0  0  0  0  0  0
    9.8759  -16.2769   25.6469 N   0  0  0  0  0  0  0  0  0  0  0  0
   10.5515  -17.6297   27.5527 C   0  0  0  0  0  0  0  0  0  0  0  0
   10.6651  -16.5453   28.1691 O   0  0  0  0  0  0  0  0  0  0  0  0
   10.7060  -18.7949   28.2751 O   0  0  0  0  0  0  0  0  0  0  0  0
  2  1  1  6
  2  3  1  0
  4  3  1  0
  5  2  1  0
  5  6  2  0
  7  8  1  0
  8  9  1  0
  9 11  1  0
  9 10  1  1
 11 12  1  6
 11 13  1  0
 12  5  1  0
 13 14  2  0
 16 15  1  6
 17 13  1  0
 17 16  1  0
 18 20  1  0
 18 16  1  0
 19 18  2  0
M  END
$$$$
