CIA.pdb
     RDKit          3D

 20 19  0  0  1  0  0  0  0  0999 V2000
    7.2869  -15.7102   20.7005 N   0  0  0  0  0  0  0  0  0  0  0  0
    6.8072  -16.0785   21.9972 C   0  0  1  0  0  0  0  0  0  0  0  0
    6.5517  -17.5672   22.0364 C   0  0  0  0  0  0  0  0  0  0  0  0
    5.8431  -17.9440   23.6685 S   0  0  0  0  0  0  0  0  0  0  0  0
    7.7263  -15.6483   23.0866 C   0  0  0  0  0  0  0  0  0  0  0  0
    8.9609  -15.7415   22.8730 O   0  0  0  0  0  0  0  0  0  0  0  0
    6.1178  -11.7608   26.4931 C   0  0  0  0  0  0  0  0  0  0  0  0
    7.0467  -12.5698   25.5786 C   0  0  0  0  0  0  0  0  0  0  0  0
    7.4952  -13.7855   26.3032 C   0  0  2  0  0  0  0  0  0  0  0  0
    8.3730  -13.3606   27.4621 C   0  0  0  0  0  0  0  0  0  0  0  0
    8.1560  -14.8298   25.4477 C   0  0  2  0  0  0  0  0  0  0  0  0
    7.2595  -15.1482   24.3292 N   0  0  0  0  0  0  0  0  0  0  0  0
    8.6025  -16.0286   26.1500 C   0  0  0  0  0  0  0  0  0  0  0  0
    7.7938  -16.7674   26.7627 O   0  0  0  0  0  0  0  0  0  0  0  0
   11.6596  -18.2444   26.2301 C   0  0  0  0  0  0  0  0  0  0  0  0
   10.3932  -17.6502   26.8615 C   0  0  2  0  0  0  0  0  0  0  0  0
    9.9797  -16.4553   26.1979 N   0  0  0  0  0  0  0  0  0  0  0  0
   10.6853  -17.4650   28.2959 C   0  0  0  0  0  0  0  0  0  0  0  0
   10.6694  -16.2974   28.7491 O   0  0  0  0  0  0  0  0  0  0  0  0
   10.9753  -18.4880   29.1748 O   0  0  0  0  0  0  0  0  0  0  0  0
  2  1  1  6
  2  3  1  0
  4  3  1  0
  5  2  1  0
  5  6  2  0
  7  8  1  0
  8  9  1  0
  9 11  1  0
  9 10  1  1
 11 12  1  6
 11 13  1  0
 12  5  1  0
 13 14  2  0
 16 15  1  6
 17 13  1  0
 17 16  1  0
 18 20  1  0
 18 16  1  0
 19 18  2  0
M  END
$$$$
