CIA.pdb
     RDKit          3D

 20 19  0  0  1  0  0  0  0  0999 V2000
    6.9593  -17.4674   22.0191 N   0  0  0  0  0  0  0  0  0  0  0  0
    6.7899  -17.4077   23.4386 C   0  0  1  0  0  0  0  0  0  0  0  0
    7.0669  -18.7671   24.0372 C   0  0  0  0  0  0  0  0  0  0  0  0
    6.7226  -18.6454   25.8189 S   0  0  0  0  0  0  0  0  0  0  0  0
    7.6263  -16.3481   24.0668 C   0  0  0  0  0  0  0  0  0  0  0  0
    8.7341  -16.0922   23.5321 O   0  0  0  0  0  0  0  0  0  0  0  0
    5.4133  -11.8361   25.5168 C   0  0  0  0  0  0  0  0  0  0  0  0
    6.4780  -12.8171   25.0091 C   0  0  0  0  0  0  0  0  0  0  0  0
    7.1691  -13.4224   26.1754 C   0  0  2  0  0  0  0  0  0  0  0  0
    7.9250  -12.3331   26.9076 C   0  0  0  0  0  0  0  0  0  0  0  0
    8.0457  -14.6007   25.8556 C   0  0  2  0  0  0  0  0  0  0  0  0
    7.2183  -15.6362   25.2238 N   0  0  0  0  0  0  0  0  0  0  0  0
    8.8244  -15.1272   26.9718 C   0  0  0  0  0  0  0  0  0  0  0  0
    8.2744  -15.7214   27.9307 O   0  0  0  0  0  0  0  0  0  0  0  0
   10.6542  -14.4681   29.4253 C   0  0  0  0  0  0  0  0  0  0  0  0
   10.9876  -15.3796   28.2363 C   0  0  2  0  0  0  0  0  0  0  0  0
   10.2593  -15.0116   27.0645 N   0  0  0  0  0  0  0  0  0  0  0  0
   10.7374  -16.7632   28.6838 C   0  0  0  0  0  0  0  0  0  0  0  0
   11.3411  -17.1649   29.7050 O   0  0  0  0  0  0  0  0  0  0  0  0
    9.8843  -17.6474   28.0562 O   0  0  0  0  0  0  0  0  0  0  0  0
  2  1  1  6
  2  3  1  0
  4  3  1  0
  5  2  1  0
  5  6  2  0
  7  8  1  0
  8  9  1  0
  9 11  1  0
  9 10  1  6
 11 12  1  1
 11 13  1  0
 12  5  1  0
 13 14  2  0
 16 15  1  1
 17 13  1  0
 17 16  1  0
 18 20  1  0
 18 16  1  0
 19 18  2  0
M  END
$$$$
