CIA.pdb
     RDKit          3D

 20 19  0  0  1  0  0  0  0  0999 V2000
    7.7760  -14.7009   20.1010 N   0  0  0  0  0  0  0  0  0  0  0  0
    7.1751  -15.2168   21.2926 C   0  0  1  0  0  0  0  0  0  0  0  0
    6.9549  -16.7042   21.1434 C   0  0  0  0  0  0  0  0  0  0  0  0
    5.5501  -16.9243   20.0094 S   0  0  0  0  0  0  0  0  0  0  0  0
    7.9661  -14.8965   22.5127 C   0  0  0  0  0  0  0  0  0  0  0  0
    9.2132  -14.8083   22.3873 O   0  0  0  0  0  0  0  0  0  0  0  0
    5.7871  -11.7136   26.2750 C   0  0  0  0  0  0  0  0  0  0  0  0
    6.7770  -12.3610   25.2979 C   0  0  0  0  0  0  0  0  0  0  0  0
    7.3378  -13.5855   25.9226 C   0  0  2  0  0  0  0  0  0  0  0  0
    8.1165  -13.1841   27.1581 C   0  0  0  0  0  0  0  0  0  0  0  0
    8.1474  -14.4564   25.0032 C   0  0  2  0  0  0  0  0  0  0  0  0
    7.3669  -14.6930   23.7821 N   0  0  0  0  0  0  0  0  0  0  0  0
    8.6417  -15.6993   25.5867 C   0  0  0  0  0  0  0  0  0  0  0  0
    7.8679  -16.5104   26.1510 O   0  0  0  0  0  0  0  0  0  0  0  0
   11.8651  -17.7199   25.5108 C   0  0  0  0  0  0  0  0  0  0  0  0
   10.4836  -17.3482   26.0667 C   0  0  2  0  0  0  0  0  0  0  0  0
   10.0299  -16.0909   25.5644 N   0  0  0  0  0  0  0  0  0  0  0  0
   10.5947  -17.3977   27.5372 C   0  0  0  0  0  0  0  0  0  0  0  0
   10.8859  -18.4959   28.0643 O   0  0  0  0  0  0  0  0  0  0  0  0
   10.4002  -16.3184   28.3743 O   0  0  0  0  0  0  0  0  0  0  0  0
  2  1  1  6
  2  3  1  0
  4  3  1  0
  5  2  1  0
  5  6  2  0
  7  8  1  0
  8  9  1  0
  9 11  1  0
  9 10  1  1
 11 12  1  6
 11 13  1  0
 12  5  1  0
 13 14  2  0
 16 15  1  6
 17 13  1  0
 17 16  1  0
 18 20  1  0
 18 16  1  0
 19 18  2  0
M  END
$$$$
