DNF.pdb
     RDKit          3D

 28 28  0  0  1  0  0  0  0  0999 V2000
   20.2277   -6.7585  -18.6387 N   0  0  0  0  0  0  0  0  0  0  0  0
   20.0264   -7.5344  -17.4359 C   0  0  1  0  0  0  0  0  0  0  0  0
   21.3210   -8.1611  -16.9607 C   0  0  0  0  0  0  0  0  0  0  0  0
   21.5914   -9.3680  -17.7666 C   0  0  0  0  0  0  0  0  0  0  0  0
   20.7974   -9.7450  -18.6592 O   0  0  0  0  0  0  0  0  0  0  0  0
   19.4233   -6.6703  -16.4038 C   0  0  0  0  0  0  0  0  0  0  0  0
   20.0239   -5.6165  -15.9998 O   0  0  0  0  0  0  0  0  0  0  0  0
   22.7454  -10.1044  -17.5369 O   0  0  0  0  0  0  0  0  0  0  0  0
   15.2009   -3.9252  -13.9186 N   0  0  0  0  0  0  0  0  0  0  0  0
   15.5339   -5.2689  -13.6568 C   0  0  0  0  0  0  0  0  0  0  0  0
   15.3419   -5.7647  -12.5290 O   0  0  0  0  0  0  0  0  0  0  0  0
   16.1155   -6.0991  -14.7263 C   0  0  0  0  0  0  0  0  0  0  0  0
   17.6071   -6.1329  -14.7335 C   0  0  2  0  0  0  0  0  0  0  0  0
   18.1643   -6.9399  -15.7998 N   0  0  0  0  0  0  0  0  0  0  0  0
   18.0574   -6.6306  -13.4176 C   0  0  0  0  0  0  0  0  0  0  0  0
   17.9590   -7.8415  -13.1412 O   0  0  0  0  0  0  0  0  0  0  0  0
   18.5997   -5.7387  -12.4700 N   0  0  0  0  0  0  0  0  0  0  0  0
   19.0210   -6.2236  -11.1529 C   0  0  1  0  0  0  0  0  0  0  0  0
   20.4930   -5.9123  -11.0525 C   0  0  0  0  0  0  0  0  0  0  0  0
   21.2312   -6.7755  -11.9876 C   0  0  0  0  0  0  0  0  0  0  0  0
   21.4905   -8.0808  -11.6773 C   0  0  0  0  0  0  0  0  0  0  0  0
   22.1884   -8.8835  -12.5754 C   0  0  0  0  0  0  0  0  0  0  0  0
   22.6202   -8.3529  -13.7877 C   0  0  0  0  0  0  0  0  0  0  0  0
   22.3632   -7.0455  -14.1039 C   0  0  0  0  0  0  0  0  0  0  0  0
   21.6739   -6.2692  -13.2064 C   0  0  0  0  0  0  0  0  0  0  0  0
   18.1844   -5.6065  -10.1337 C   0  0  0  0  0  0  0  0  0  0  0  0
   17.2830   -4.6113  -10.4487 O   0  0  0  0  0  0  0  0  0  0  0  0
   18.2549   -5.9561   -8.9375 O   0  0  0  0  0  0  0  0  0  0  0  0
  2  1  1  6
  2  3  1  0
  3  4  1  0
  4  8  1  0
  5  4  2  0
  6  2  1  0
  7  6  2  0
  9 10  1  0
 10 11  2  0
 10 12  1  0
 13 12  1  1
 13 15  1  0
 13 14  1  0
 14  6  1  0
 15 16  2  0
 17 18  1  0
 17 15  1  0
 18 19  1  1
 19 20  1  0
 20 25  2  0
 21 20  1  0
 21 22  2  0
 22 23  1  0
 23 24  2  0
 25 24  1  0
 26 27  1  0
 26 18  1  0
 28 26  2  0
M  END
$$$$
