DNF.pdb
     RDKit          3D

 28 28  0  0  1  0  0  0  0  0999 V2000
   21.4818  -20.1330  -13.4476 N   0  0  0  0  0  0  0  0  0  0  0  0
   21.7250  -20.1276  -12.0227 C   0  0  1  0  0  0  0  0  0  0  0  0
   20.6484  -20.8884  -11.2766 C   0  0  0  0  0  0  0  0  0  0  0  0
   19.3314  -20.3245  -11.6322 C   0  0  0  0  0  0  0  0  0  0  0  0
   18.3039  -21.0406  -11.6608 O   0  0  0  0  0  0  0  0  0  0  0  0
   23.0677  -20.6805  -11.7640 C   0  0  0  0  0  0  0  0  0  0  0  0
   23.2107  -21.7880  -11.1413 O   0  0  0  0  0  0  0  0  0  0  0  0
   19.2212  -18.9759  -11.9421 O   0  0  0  0  0  0  0  0  0  0  0  0
   25.5290  -20.3308  -15.6324 N   0  0  0  0  0  0  0  0  0  0  0  0
   26.0484  -21.0637  -14.5470 C   0  0  0  0  0  0  0  0  0  0  0  0
   26.1896  -22.3002  -14.6227 O   0  0  0  0  0  0  0  0  0  0  0  0
   26.4296  -20.3631  -13.3080 C   0  0  0  0  0  0  0  0  0  0  0  0
   25.5658  -20.6808  -12.1336 C   0  0  2  0  0  0  0  0  0  0  0  0
   24.2679  -20.0390  -12.1772 N   0  0  0  0  0  0  0  0  0  0  0  0
   26.2972  -20.2884  -10.9116 C   0  0  0  0  0  0  0  0  0  0  0  0
   26.2163  -19.1211  -10.4834 O   0  0  0  0  0  0  0  0  0  0  0  0
   27.0886  -21.2319  -10.2253 N   0  0  0  0  0  0  0  0  0  0  0  0
   27.9572  -20.8085   -9.1236 C   0  0  1  0  0  0  0  0  0  0  0  0
   27.3646  -21.4159   -7.8771 C   0  0  0  0  0  0  0  0  0  0  0  0
   27.8353  -20.6613   -6.7051 C   0  0  0  0  0  0  0  0  0  0  0  0
   29.1448  -20.2865   -6.5952 C   0  0  0  0  0  0  0  0  0  0  0  0
   29.5719  -19.5708   -5.4801 C   0  0  0  0  0  0  0  0  0  0  0  0
   28.6623  -19.2394   -4.4797 C   0  0  0  0  0  0  0  0  0  0  0  0
   27.3490  -19.6126   -4.5846 C   0  0  0  0  0  0  0  0  0  0  0  0
   26.9460  -20.3175   -5.6909 C   0  0  0  0  0  0  0  0  0  0  0  0
   29.3248  -21.2098   -9.4208 C   0  0  0  0  0  0  0  0  0  0  0  0
   30.3975  -20.4089   -9.0895 O   0  0  0  0  0  0  0  0  0  0  0  0
   29.5742  -22.2936   -9.9877 O   0  0  0  0  0  0  0  0  0  0  0  0
  2  1  1  6
  2  3  1  0
  3  4  1  0
  4  8  1  0
  5  4  2  0
  6  2  1  0
  7  6  2  0
  9 10  1  0
 10 11  2  0
 10 12  1  0
 13 12  1  6
 13 15  1  0
 13 14  1  0
 14  6  1  0
 15 16  2  0
 17 18  1  0
 17 15  1  0
 18 19  1  1
 19 20  1  0
 20 25  2  0
 21 20  1  0
 21 22  2  0
 22 23  1  0
 23 24  2  0
 25 24  1  0
 26 27  1  0
 26 18  1  0
 28 26  2  0
M  END
$$$$
