DNF.pdb
     RDKit          3D

 28 28  0  0  1  0  0  0  0  0999 V2000
   25.8842  -19.5241  -15.7215 N   0  0  0  0  0  0  0  0  0  0  0  0
   26.9370  -19.3851  -14.7409 C   0  0  1  0  0  0  0  0  0  0  0  0
   27.7920  -18.1660  -15.0186 C   0  0  0  0  0  0  0  0  0  0  0  0
   28.5413  -18.3835  -16.2717 C   0  0  0  0  0  0  0  0  0  0  0  0
   29.4331  -17.5857  -16.6427 O   0  0  0  0  0  0  0  0  0  0  0  0
   26.3350  -19.3386  -13.3951 C   0  0  0  0  0  0  0  0  0  0  0  0
   26.1708  -18.2246  -12.7896 O   0  0  0  0  0  0  0  0  0  0  0  0
   28.2582  -19.4908  -17.0594 O   0  0  0  0  0  0  0  0  0  0  0  0
   21.9241  -19.9744  -11.9164 N   0  0  0  0  0  0  0  0  0  0  0  0
   22.8764  -20.9166  -12.3531 C   0  0  0  0  0  0  0  0  0  0  0  0
   22.8150  -21.3992  -13.5011 O   0  0  0  0  0  0  0  0  0  0  0  0
   23.9574  -21.3376  -11.4446 C   0  0  0  0  0  0  0  0  0  0  0  0
   25.1516  -20.4433  -11.4569 C   0  0  2  0  0  0  0  0  0  0  0  0
   25.9053  -20.4983  -12.6928 N   0  0  0  0  0  0  0  0  0  0  0  0
   26.0079  -20.8119  -10.3110 C   0  0  0  0  0  0  0  0  0  0  0  0
   26.7235  -21.8302  -10.3686 O   0  0  0  0  0  0  0  0  0  0  0  0
   26.0192  -20.0139   -9.1488 N   0  0  0  0  0  0  0  0  0  0  0  0
   26.7966  -20.4242   -7.9764 C   0  0  1  0  0  0  0  0  0  0  0  0
   27.5046  -19.1817   -7.4980 C   0  0  0  0  0  0  0  0  0  0  0  0
   28.2149  -19.4860   -6.2460 C   0  0  0  0  0  0  0  0  0  0  0  0
   29.1827  -20.4500   -6.2083 C   0  0  0  0  0  0  0  0  0  0  0  0
   29.8460  -20.7230   -5.0152 C   0  0  0  0  0  0  0  0  0  0  0  0
   29.5206  -20.0119   -3.8635 C   0  0  0  0  0  0  0  0  0  0  0  0
   28.5517  -19.0449   -3.8955 C   0  0  0  0  0  0  0  0  0  0  0  0
   27.9083  -18.7894   -5.0805 C   0  0  0  0  0  0  0  0  0  0  0  0
   25.9001  -21.0401   -7.0085 C   0  0  0  0  0  0  0  0  0  0  0  0
   26.3660  -21.9226   -6.0566 O   0  0  0  0  0  0  0  0  0  0  0  0
   24.6768  -20.7916   -7.0076 O   0  0  0  0  0  0  0  0  0  0  0  0
  2  1  1  6
  2  3  1  0
  3  4  1  0
  4  8  1  0
  5  4  2  0
  6  2  1  0
  7  6  2  0
  9 10  1  0
 10 11  2  0
 10 12  1  0
 13 12  1  6
 13 15  1  0
 13 14  1  0
 14  6  1  0
 15 16  2  0
 17 18  1  0
 17 15  1  0
 18 19  1  1
 19 20  1  0
 20 25  2  0
 21 20  1  0
 21 22  2  0
 22 23  1  0
 23 24  2  0
 25 24  1  0
 26 27  1  0
 26 18  1  0
 28 26  2  0
M  END
$$$$
