DNF.pdb
     RDKit          3D

 28 28  0  0  1  0  0  0  0  0999 V2000
   14.3261  -10.2481  -11.5353 N   0  0  0  0  0  0  0  0  0  0  0  0
   15.6591  -10.0214  -11.0242 C   0  0  1  0  0  0  0  0  0  0  0  0
   16.6960  -10.7689  -11.8371 C   0  0  0  0  0  0  0  0  0  0  0  0
   16.4547  -12.2189  -11.7016 C   0  0  0  0  0  0  0  0  0  0  0  0
   16.0370  -12.7108  -10.6279 O   0  0  0  0  0  0  0  0  0  0  0  0
   15.9223   -8.5703  -10.9996 C   0  0  0  0  0  0  0  0  0  0  0  0
   15.7595   -7.8576  -12.0485 O   0  0  0  0  0  0  0  0  0  0  0  0
   16.6927  -13.0598  -12.7800 O   0  0  0  0  0  0  0  0  0  0  0  0
   13.9531   -5.8320   -7.4257 N   0  0  0  0  0  0  0  0  0  0  0  0
   14.6531   -5.6378   -8.6329 C   0  0  0  0  0  0  0  0  0  0  0  0
   14.0423   -5.3825   -9.6895 O   0  0  0  0  0  0  0  0  0  0  0  0
   16.1232   -5.7369   -8.6491 C   0  0  0  0  0  0  0  0  0  0  0  0
   16.6757   -6.4631   -9.8295 C   0  0  2  0  0  0  0  0  0  0  0  0
   16.3643   -7.8777   -9.8387 N   0  0  0  0  0  0  0  0  0  0  0  0
   18.1380   -6.2542   -9.8486 C   0  0  0  0  0  0  0  0  0  0  0  0
   18.7937   -6.3331   -8.7920 O   0  0  0  0  0  0  0  0  0  0  0  0
   18.7972   -5.9654  -11.0608 N   0  0  0  0  0  0  0  0  0  0  0  0
   20.2508   -5.7830  -11.0882 C   0  0  1  0  0  0  0  0  0  0  0  0
   20.8401   -7.1683  -11.0012 C   0  0  0  0  0  0  0  0  0  0  0  0
   20.6151   -7.8666  -12.2765 C   0  0  0  0  0  0  0  0  0  0  0  0
   21.3553   -7.5571  -13.3826 C   0  0  0  0  0  0  0  0  0  0  0  0
   21.1301   -8.2298  -14.5805 C   0  0  0  0  0  0  0  0  0  0  0  0
   20.1504   -9.2165  -14.6471 C   0  0  0  0  0  0  0  0  0  0  0  0
   19.4055   -9.5306  -13.5418 C   0  0  0  0  0  0  0  0  0  0  0  0
   19.6415   -8.8570  -12.3696 C   0  0  0  0  0  0  0  0  0  0  0  0
   20.6089   -5.0292  -12.2812 C   0  0  0  0  0  0  0  0  0  0  0  0
   21.8769   -4.5150  -12.4536 O   0  0  0  0  0  0  0  0  0  0  0  0
   19.7790   -4.8206  -13.1901 O   0  0  0  0  0  0  0  0  0  0  0  0
  2  1  1  6
  2  3  1  0
  3  4  1  0
  4  8  1  0
  5  4  2  0
  6  2  1  0
  7  6  2  0
  9 10  1  0
 10 11  2  0
 10 12  1  0
 13 12  1  1
 13 15  1  0
 13 14  1  0
 14  6  1  0
 15 16  2  0
 17 18  1  0
 17 15  1  0
 18 19  1  6
 19 20  1  0
 20 25  2  0
 21 20  1  0
 21 22  2  0
 22 23  1  0
 23 24  2  0
 25 24  1  0
 26 27  1  0
 26 18  1  0
 28 26  2  0
M  END
$$$$
