DNF.pdb
     RDKit          3D

 28 28  0  0  1  0  0  0  0  0999 V2000
   13.8780  -11.8402  -17.7523 N   0  0  0  0  0  0  0  0  0  0  0  0
   13.9486  -10.8048  -16.7461 C   0  0  1  0  0  0  0  0  0  0  0  0
   13.9097  -11.3895  -15.3493 C   0  0  0  0  0  0  0  0  0  0  0  0
   12.5648  -11.9452  -15.1013 C   0  0  0  0  0  0  0  0  0  0  0  0
   12.4017  -13.1583  -14.8347 O   0  0  0  0  0  0  0  0  0  0  0  0
   15.1643  -10.0004  -16.9710 C   0  0  0  0  0  0  0  0  0  0  0  0
   16.2769  -10.5616  -17.2568 O   0  0  0  0  0  0  0  0  0  0  0  0
   11.4548  -11.1140  -15.1629 O   0  0  0  0  0  0  0  0  0  0  0  0
   15.5612   -7.2598  -19.7368 N   0  0  0  0  0  0  0  0  0  0  0  0
   15.6156   -6.1667  -18.8495 C   0  0  0  0  0  0  0  0  0  0  0  0
   15.2637   -5.0287  -19.2184 O   0  0  0  0  0  0  0  0  0  0  0  0
   16.0933   -6.3682  -17.4703 C   0  0  0  0  0  0  0  0  0  0  0  0
   16.3777   -7.7908  -17.1217 C   0  0  2  0  0  0  0  0  0  0  0  0
   15.1860   -8.5807  -16.8885 N   0  0  0  0  0  0  0  0  0  0  0  0
   17.2483   -7.8016  -15.9283 C   0  0  0  0  0  0  0  0  0  0  0  0
   16.7511   -7.6837  -14.7919 O   0  0  0  0  0  0  0  0  0  0  0  0
   18.6435   -7.9451  -16.0699 N   0  0  0  0  0  0  0  0  0  0  0  0
   19.5006   -8.0547  -14.8864 C   0  0  1  0  0  0  0  0  0  0  0  0
   20.1771   -9.3982  -14.9924 C   0  0  0  0  0  0  0  0  0  0  0  0
   21.1852   -9.5134  -13.9271 C   0  0  0  0  0  0  0  0  0  0  0  0
   20.8109   -9.5683  -12.6140 C   0  0  0  0  0  0  0  0  0  0  0  0
   21.7785   -9.6796  -11.6193 C   0  0  0  0  0  0  0  0  0  0  0  0
   23.1255   -9.7346  -11.9663 C   0  0  0  0  0  0  0  0  0  0  0  0
   23.5062   -9.6799  -13.2806 C   0  0  0  0  0  0  0  0  0  0  0  0
   22.5386   -9.5702  -14.2476 C   0  0  0  0  0  0  0  0  0  0  0  0
   20.3977   -6.9087  -14.8464 C   0  0  0  0  0  0  0  0  0  0  0  0
   20.9701   -6.4842  -13.6657 O   0  0  0  0  0  0  0  0  0  0  0  0
   20.6791   -6.2688  -15.8805 O   0  0  0  0  0  0  0  0  0  0  0  0
  2  1  1  6
  2  3  1  0
  3  4  1  0
  4  8  1  0
  5  4  2  0
  6  2  1  0
  7  6  2  0
  9 10  1  0
 10 11  2  0
 10 12  1  0
 13 12  1  1
 13 15  1  0
 13 14  1  0
 14  6  1  0
 15 16  2  0
 17 18  1  0
 17 15  1  0
 18 19  1  6
 19 20  1  0
 20 25  2  0
 21 20  1  0
 21 22  2  0
 22 23  1  0
 23 24  2  0
 25 24  1  0
 26 27  1  0
 26 18  1  0
 28 26  2  0
M  END
$$$$
