DNF.pdb
     RDKit          3D

 28 28  0  0  1  0  0  0  0  0999 V2000
   21.5846  -12.0129  -18.3225 N   0  0  0  0  0  0  0  0  0  0  0  0
   20.5490  -11.1107  -17.8719 C   0  0  1  0  0  0  0  0  0  0  0  0
   20.1127  -11.4341  -16.4578 C   0  0  0  0  0  0  0  0  0  0  0  0
   19.3239  -12.6818  -16.4748 C   0  0  0  0  0  0  0  0  0  0  0  0
   18.6599  -13.0173  -17.4827 O   0  0  0  0  0  0  0  0  0  0  0  0
   21.0361   -9.7237  -17.9926 C   0  0  0  0  0  0  0  0  0  0  0  0
   22.2529   -9.4322  -17.7301 O   0  0  0  0  0  0  0  0  0  0  0  0
   19.3128  -13.5042  -15.3567 O   0  0  0  0  0  0  0  0  0  0  0  0
   21.7546   -4.7991  -19.2482 N   0  0  0  0  0  0  0  0  0  0  0  0
   20.5723   -5.1952  -19.9043 C   0  0  0  0  0  0  0  0  0  0  0  0
   20.0318   -4.4518  -20.7470 O   0  0  0  0  0  0  0  0  0  0  0  0
   19.9664   -6.5017  -19.5928 C   0  0  0  0  0  0  0  0  0  0  0  0
   20.6985   -7.2852  -18.5554 C   0  0  2  0  0  0  0  0  0  0  0  0
   20.2097   -8.6398  -18.3988 N   0  0  0  0  0  0  0  0  0  0  0  0
   20.6035   -6.5492  -17.2781 C   0  0  0  0  0  0  0  0  0  0  0  0
   19.5384   -6.5558  -16.6315 O   0  0  0  0  0  0  0  0  0  0  0  0
   21.7162   -5.8372  -16.7857 N   0  0  0  0  0  0  0  0  0  0  0  0
   21.6741   -5.2255  -15.4548 C   0  0  1  0  0  0  0  0  0  0  0  0
   23.0041   -5.5385  -14.8169 C   0  0  0  0  0  0  0  0  0  0  0  0
   23.0666   -6.9779  -14.5188 C   0  0  0  0  0  0  0  0  0  0  0  0
   23.9654   -7.7852  -15.1574 C   0  0  0  0  0  0  0  0  0  0  0  0
   24.0119   -9.1447  -14.8610 C   0  0  0  0  0  0  0  0  0  0  0  0
   23.1415   -9.6773  -13.9141 C   0  0  0  0  0  0  0  0  0  0  0  0
   22.2388   -8.8730  -13.2713 C   0  0  0  0  0  0  0  0  0  0  0  0
   22.2073   -7.5352  -13.5762 C   0  0  0  0  0  0  0  0  0  0  0  0
   21.3712   -3.8085  -15.5967 C   0  0  0  0  0  0  0  0  0  0  0  0
   21.1585   -3.2389  -16.8345 O   0  0  0  0  0  0  0  0  0  0  0  0
   21.2947   -3.0587  -14.6017 O   0  0  0  0  0  0  0  0  0  0  0  0
  2  1  1  1
  2  3  1  0
  3  4  1  0
  4  8  1  0
  5  4  2  0
  6  2  1  0
  7  6  2  0
  9 10  1  0
 10 11  2  0
 10 12  1  0
 13 12  1  6
 13 15  1  0
 13 14  1  0
 14  6  1  0
 15 16  2  0
 17 18  1  0
 17 15  1  0
 18 19  1  6
 19 20  1  0
 20 25  2  0
 21 20  1  0
 21 22  2  0
 22 23  1  0
 23 24  2  0
 25 24  1  0
 26 27  1  0
 26 18  1  0
 28 26  2  0
M  END
$$$$
