DNF.pdb
     RDKit          3D

 28 28  0  0  1  0  0  0  0  0999 V2000
   17.9616  -12.1752  -16.4284 N   0  0  0  0  0  0  0  0  0  0  0  0
   17.7255  -10.7619  -16.6186 C   0  0  1  0  0  0  0  0  0  0  0  0
   16.4916  -10.3031  -15.8693 C   0  0  0  0  0  0  0  0  0  0  0  0
   15.2964  -10.8678  -16.5262 C   0  0  0  0  0  0  0  0  0  0  0  0
   14.4691  -11.5586  -15.8877 O   0  0  0  0  0  0  0  0  0  0  0  0
   18.9285  -10.0154  -16.2048 C   0  0  0  0  0  0  0  0  0  0  0  0
   19.3691  -10.0959  -15.0073 O   0  0  0  0  0  0  0  0  0  0  0  0
   15.0780  -10.6333  -17.8767 O   0  0  0  0  0  0  0  0  0  0  0  0
   23.6351   -8.4322  -16.5812 N   0  0  0  0  0  0  0  0  0  0  0  0
   23.0307   -7.7746  -17.6708 C   0  0  0  0  0  0  0  0  0  0  0  0
   23.7237   -7.1812  -18.5207 O   0  0  0  0  0  0  0  0  0  0  0  0
   21.5638   -7.7869  -17.8093 C   0  0  0  0  0  0  0  0  0  0  0  0
   20.8466   -8.4422  -16.6769 C   0  0  2  0  0  0  0  0  0  0  0  0
   19.6653   -9.1750  -17.0843 N   0  0  0  0  0  0  0  0  0  0  0  0
   20.4946   -7.3961  -15.6950 C   0  0  0  0  0  0  0  0  0  0  0  0
   19.5032   -6.6667  -15.8886 O   0  0  0  0  0  0  0  0  0  0  0  0
   21.2778   -7.2189  -14.5363 N   0  0  0  0  0  0  0  0  0  0  0  0
   20.8861   -6.2380  -13.5206 C   0  0  1  0  0  0  0  0  0  0  0  0
   20.5547   -7.0364  -12.2851 C   0  0  0  0  0  0  0  0  0  0  0  0
   20.1829   -6.1126  -11.2021 C   0  0  0  0  0  0  0  0  0  0  0  0
   19.0937   -5.2964  -11.3231 C   0  0  0  0  0  0  0  0  0  0  0  0
   18.7555   -4.4301  -10.2871 C   0  0  0  0  0  0  0  0  0  0  0  0
   19.5291   -4.3985   -9.1302 C   0  0  0  0  0  0  0  0  0  0  0  0
   20.6217   -5.2142   -9.0036 C   0  0  0  0  0  0  0  0  0  0  0  0
   20.9400   -6.0617  -10.0351 C   0  0  0  0  0  0  0  0  0  0  0  0
   21.9601   -5.2675  -13.3638 C   0  0  0  0  0  0  0  0  0  0  0  0
   21.7026   -3.9618  -13.0020 O   0  0  0  0  0  0  0  0  0  0  0  0
   23.1528   -5.5836  -13.5529 O   0  0  0  0  0  0  0  0  0  0  0  0
  2  1  1  1
  2  3  1  0
  3  4  1  0
  4  8  1  0
  5  4  2  0
  6  2  1  0
  7  6  2  0
  9 10  1  0
 10 11  2  0
 10 12  1  0
 13 12  1  6
 13 15  1  0
 13 14  1  0
 14  6  1  0
 15 16  2  0
 17 18  1  0
 17 15  1  0
 18 19  1  1
 19 20  1  0
 20 25  2  0
 21 20  1  0
 21 22  2  0
 22 23  1  0
 23 24  2  0
 25 24  1  0
 26 27  1  0
 26 18  1  0
 28 26  2  0
M  END
$$$$
