DNF.pdb
     RDKit          3D

 28 28  0  0  1  0  0  0  0  0999 V2000
   19.8419  -22.6615  -15.2859 N   0  0  0  0  0  0  0  0  0  0  0  0
   19.7480  -21.2241  -15.1649 C   0  0  1  0  0  0  0  0  0  0  0  0
   19.1191  -20.8215  -13.8470 C   0  0  0  0  0  0  0  0  0  0  0  0
   17.8160  -20.1818  -14.1152 C   0  0  0  0  0  0  0  0  0  0  0  0
   16.8745  -20.8199  -14.6402 O   0  0  0  0  0  0  0  0  0  0  0  0
   21.0922  -20.6404  -15.3329 C   0  0  0  0  0  0  0  0  0  0  0  0
   22.0845  -21.0764  -14.6548 O   0  0  0  0  0  0  0  0  0  0  0  0
   17.6227  -18.8482  -13.7822 O   0  0  0  0  0  0  0  0  0  0  0  0
   24.7926  -17.9239  -19.2375 N   0  0  0  0  0  0  0  0  0  0  0  0
   24.5222  -18.8282  -18.1915 C   0  0  0  0  0  0  0  0  0  0  0  0
   25.4457  -19.2833  -17.4882 O   0  0  0  0  0  0  0  0  0  0  0  0
   23.1334  -19.2417  -17.9240 C   0  0  0  0  0  0  0  0  0  0  0  0
   22.7138  -19.0958  -16.4997 C   0  0  2  0  0  0  0  0  0  0  0  0
   21.3738  -19.5792  -16.2369 N   0  0  0  0  0  0  0  0  0  0  0  0
   22.8308  -17.6691  -16.1348 C   0  0  0  0  0  0  0  0  0  0  0  0
   21.8177  -16.9440  -16.1180 O   0  0  0  0  0  0  0  0  0  0  0  0
   24.0876  -17.1226  -15.8042 N   0  0  0  0  0  0  0  0  0  0  0  0
   24.2116  -15.7024  -15.4654 C   0  0  1  0  0  0  0  0  0  0  0  0
   25.3974  -15.6034  -14.5392 C   0  0  0  0  0  0  0  0  0  0  0  0
   26.6117  -15.9979  -15.2701 C   0  0  0  0  0  0  0  0  0  0  0  0
   27.2874  -15.0947  -16.0414 C   0  0  0  0  0  0  0  0  0  0  0  0
   28.4360  -15.4852  -16.7243 C   0  0  0  0  0  0  0  0  0  0  0  0
   28.8926  -16.7961  -16.6188 C   0  0  0  0  0  0  0  0  0  0  0  0
   28.2194  -17.7054  -15.8473 C   0  0  0  0  0  0  0  0  0  0  0  0
   27.0890  -17.3025  -15.1813 C   0  0  0  0  0  0  0  0  0  0  0  0
   24.3184  -14.9318  -16.6960 C   0  0  0  0  0  0  0  0  0  0  0  0
   24.0710  -13.5753  -16.7191 O   0  0  0  0  0  0  0  0  0  0  0  0
   24.6367  -15.4732  -17.7748 O   0  0  0  0  0  0  0  0  0  0  0  0
  2  1  1  1
  2  3  1  0
  3  4  1  0
  4  8  1  0
  5  4  2  0
  6  2  1  0
  7  6  2  0
  9 10  1  0
 10 11  2  0
 10 12  1  0
 13 12  1  6
 13 15  1  0
 13 14  1  0
 14  6  1  0
 15 16  2  0
 17 18  1  0
 17 15  1  0
 18 19  1  1
 19 20  1  0
 20 25  2  0
 21 20  1  0
 21 22  2  0
 22 23  1  0
 23 24  2  0
 25 24  1  0
 26 27  1  0
 26 18  1  0
 28 26  2  0
M  END
$$$$
