DNF.pdb
     RDKit          3D

 28 28  0  0  1  0  0  0  0  0999 V2000
   24.0472  -14.8082  -20.6518 N   0  0  0  0  0  0  0  0  0  0  0  0
   23.5537  -14.3431  -19.3752 C   0  0  1  0  0  0  0  0  0  0  0  0
   24.5308  -14.6532  -18.2600 C   0  0  0  0  0  0  0  0  0  0  0  0
   24.3072  -16.0380  -17.8003 C   0  0  0  0  0  0  0  0  0  0  0  0
   23.1725  -16.4281  -17.4401 O   0  0  0  0  0  0  0  0  0  0  0  0
   23.2682  -12.8991  -19.4694 C   0  0  0  0  0  0  0  0  0  0  0  0
   23.7042  -12.2084  -20.4529 O   0  0  0  0  0  0  0  0  0  0  0  0
   25.3693  -16.9309  -17.7637 O   0  0  0  0  0  0  0  0  0  0  0  0
   20.6959   -8.3804  -20.3557 N   0  0  0  0  0  0  0  0  0  0  0  0
   20.4551   -9.0828  -19.1584 C   0  0  0  0  0  0  0  0  0  0  0  0
   19.9535   -8.5076  -18.1723 O   0  0  0  0  0  0  0  0  0  0  0  0
   20.7989  -10.5127  -19.0684 C   0  0  0  0  0  0  0  0  0  0  0  0
   22.1942  -10.7802  -18.6125 C   0  0  2  0  0  0  0  0  0  0  0  0
   22.5076  -12.1899  -18.4991 N   0  0  0  0  0  0  0  0  0  0  0  0
   22.3873  -10.1005  -17.3153 C   0  0  0  0  0  0  0  0  0  0  0  0
   21.9140  -10.5957  -16.2745 O   0  0  0  0  0  0  0  0  0  0  0  0
   23.1070   -8.8901  -17.2493 N   0  0  0  0  0  0  0  0  0  0  0  0
   23.3208   -8.2248  -15.9613 C   0  0  1  0  0  0  0  0  0  0  0  0
   24.7572   -7.7663  -15.9694 C   0  0  0  0  0  0  0  0  0  0  0  0
   25.6368   -8.9442  -16.0274 C   0  0  0  0  0  0  0  0  0  0  0  0
   25.5640   -9.9183  -15.0717 C   0  0  0  0  0  0  0  0  0  0  0  0
   26.4026  -11.0271  -15.1438 C   0  0  0  0  0  0  0  0  0  0  0  0
   27.3135  -11.1397  -16.1904 C   0  0  0  0  0  0  0  0  0  0  0  0
   27.3909  -10.1666  -17.1508 C   0  0  0  0  0  0  0  0  0  0  0  0
   26.5563   -9.0806  -17.0635 C   0  0  0  0  0  0  0  0  0  0  0  0
   22.3319   -7.1675  -15.8071 C   0  0  0  0  0  0  0  0  0  0  0  0
   21.9396   -6.7255  -14.5610 O   0  0  0  0  0  0  0  0  0  0  0  0
   21.8029   -6.6244  -16.7988 O   0  0  0  0  0  0  0  0  0  0  0  0
  2  1  1  6
  2  3  1  0
  3  4  1  0
  4  8  1  0
  5  4  2  0
  6  2  1  0
  7  6  2  0
  9 10  1  0
 10 11  2  0
 10 12  1  0
 13 12  1  1
 13 15  1  0
 13 14  1  0
 14  6  1  0
 15 16  2  0
 17 18  1  0
 17 15  1  0
 18 19  1  6
 19 20  1  0
 20 25  2  0
 21 20  1  0
 21 22  2  0
 22 23  1  0
 23 24  2  0
 25 24  1  0
 26 27  1  0
 26 18  1  0
 28 26  2  0
M  END
$$$$
