DNF.pdb
     RDKit          3D

 28 28  0  0  1  0  0  0  0  0999 V2000
   24.0491  -25.2003  -14.7575 N   0  0  0  0  0  0  0  0  0  0  0  0
   25.4243  -24.9209  -15.1043 C   0  0  1  0  0  0  0  0  0  0  0  0
   25.6551  -25.0542  -16.5954 C   0  0  0  0  0  0  0  0  0  0  0  0
   24.3919  -24.7644  -17.3021 C   0  0  0  0  0  0  0  0  0  0  0  0
   23.5197  -24.0211  -16.7960 O   0  0  0  0  0  0  0  0  0  0  0  0
   25.7788  -23.5765  -14.6118 C   0  0  0  0  0  0  0  0  0  0  0  0
   26.9291  -23.0734  -14.8529 O   0  0  0  0  0  0  0  0  0  0  0  0
   24.1587  -25.3223  -18.5515 O   0  0  0  0  0  0  0  0  0  0  0  0
   25.8605  -18.4427  -13.6659 N   0  0  0  0  0  0  0  0  0  0  0  0
   24.6930  -19.0518  -13.1650 C   0  0  0  0  0  0  0  0  0  0  0  0
   23.9893  -18.4752  -12.3123 O   0  0  0  0  0  0  0  0  0  0  0  0
   24.2975  -20.3847  -13.6528 C   0  0  0  0  0  0  0  0  0  0  0  0
   25.2616  -21.4721  -13.3151 C   0  0  2  0  0  0  0  0  0  0  0  0
   24.8906  -22.7647  -13.8536 N   0  0  0  0  0  0  0  0  0  0  0  0
   25.3768  -21.5374  -11.8438 C   0  0  0  0  0  0  0  0  0  0  0  0
   24.5450  -22.1861  -11.1808 O   0  0  0  0  0  0  0  0  0  0  0  0
   26.4271  -20.8668  -11.1845 N   0  0  0  0  0  0  0  0  0  0  0  0
   26.5247  -20.9001   -9.7228 C   0  0  1  0  0  0  0  0  0  0  0  0
   27.8400  -20.2451   -9.3842 C   0  0  0  0  0  0  0  0  0  0  0  0
   27.9801  -20.1774   -7.9212 C   0  0  0  0  0  0  0  0  0  0  0  0
   28.5998  -21.1812   -7.2315 C   0  0  0  0  0  0  0  0  0  0  0  0
   28.7253  -21.0993   -5.8474 C   0  0  0  0  0  0  0  0  0  0  0  0
   28.2183  -19.9937   -5.1703 C   0  0  0  0  0  0  0  0  0  0  0  0
   27.5963  -18.9850   -5.8564 C   0  0  0  0  0  0  0  0  0  0  0  0
   27.4818  -19.0828   -7.2205 C   0  0  0  0  0  0  0  0  0  0  0  0
   25.3469  -20.2579   -9.1570 C   0  0  0  0  0  0  0  0  0  0  0  0
   24.7367  -20.7470   -8.0210 O   0  0  0  0  0  0  0  0  0  0  0  0
   24.8470  -19.2417   -9.6820 O   0  0  0  0  0  0  0  0  0  0  0  0
  2  1  1  6
  2  3  1  0
  3  4  1  0
  4  8  1  0
  5  4  2  0
  6  2  1  0
  7  6  2  0
  9 10  1  0
 10 11  2  0
 10 12  1  0
 13 12  1  1
 13 15  1  0
 13 14  1  0
 14  6  1  0
 15 16  2  0
 17 18  1  0
 17 15  1  0
 18 19  1  6
 19 20  1  0
 20 25  2  0
 21 20  1  0
 21 22  2  0
 22 23  1  0
 23 24  2  0
 25 24  1  0
 26 27  1  0
 26 18  1  0
 28 26  2  0
M  END
$$$$
