DNF.pdb
     RDKit          3D

 28 28  0  0  1  0  0  0  0  0999 V2000
   19.7045  -12.2306  -18.1064 N   0  0  0  0  0  0  0  0  0  0  0  0
   19.1941  -11.4126  -17.0294 C   0  0  1  0  0  0  0  0  0  0  0  0
   19.6806  -11.9073  -15.6829 C   0  0  0  0  0  0  0  0  0  0  0  0
   19.0446  -13.2076  -15.3935 C   0  0  0  0  0  0  0  0  0  0  0  0
   17.7985  -13.3372  -15.3985 O   0  0  0  0  0  0  0  0  0  0  0  0
   19.5785  -10.0091  -17.2704 C   0  0  0  0  0  0  0  0  0  0  0  0
   20.6611   -9.7237  -17.8877 O   0  0  0  0  0  0  0  0  0  0  0  0
   19.8354  -14.3125  -15.1095 O   0  0  0  0  0  0  0  0  0  0  0  0
   17.5191   -4.3303  -17.9762 N   0  0  0  0  0  0  0  0  0  0  0  0
   18.4504   -5.3720  -18.1564 C   0  0  0  0  0  0  0  0  0  0  0  0
   19.5892   -5.1375  -18.6068 O   0  0  0  0  0  0  0  0  0  0  0  0
   18.0766   -6.7543  -17.8094 C   0  0  0  0  0  0  0  0  0  0  0  0
   19.1511   -7.5249  -17.1182 C   0  0  2  0  0  0  0  0  0  0  0  0
   18.7938   -8.9019  -16.8449 N   0  0  0  0  0  0  0  0  0  0  0  0
   19.4841   -6.8174  -15.8649 C   0  0  0  0  0  0  0  0  0  0  0  0
   18.7812   -6.9822  -14.8494 O   0  0  0  0  0  0  0  0  0  0  0  0
   20.5972   -5.9539  -15.8125 N   0  0  0  0  0  0  0  0  0  0  0  0
   20.9267   -5.2449  -14.5732 C   0  0  1  0  0  0  0  0  0  0  0  0
   22.3360   -5.6551  -14.2277 C   0  0  0  0  0  0  0  0  0  0  0  0
   22.3521   -7.0897  -13.9017 C   0  0  0  0  0  0  0  0  0  0  0  0
   23.0228   -7.9787  -14.6936 C   0  0  0  0  0  0  0  0  0  0  0  0
   23.0291   -9.3323  -14.3685 C   0  0  0  0  0  0  0  0  0  0  0  0
   22.3512   -9.7759  -13.2364 C   0  0  0  0  0  0  0  0  0  0  0  0
   21.6773   -8.8895  -12.4393 C   0  0  0  0  0  0  0  0  0  0  0  0
   21.6821   -7.5589  -12.7754 C   0  0  0  0  0  0  0  0  0  0  0  0
   20.7280   -3.8175  -14.7798 C   0  0  0  0  0  0  0  0  0  0  0  0
   20.3143   -3.3175  -15.9967 O   0  0  0  0  0  0  0  0  0  0  0  0
   20.9268   -2.9952  -13.8619 O   0  0  0  0  0  0  0  0  0  0  0  0
  2  1  1  6
  2  3  1  0
  3  4  1  0
  4  8  1  0
  5  4  2  0
  6  2  1  0
  7  6  2  0
  9 10  1  0
 10 11  2  0
 10 12  1  0
 13 12  1  1
 13 15  1  0
 13 14  1  0
 14  6  1  0
 15 16  2  0
 17 18  1  0
 17 15  1  0
 18 19  1  6
 19 20  1  0
 20 25  2  0
 21 20  1  0
 21 22  2  0
 22 23  1  0
 23 24  2  0
 25 24  1  0
 26 27  1  0
 26 18  1  0
 28 26  2  0
M  END
$$$$
