EHT.pdb
     RDKit          3D

 27 27  0  0  1  0  0  0  0  0999 V2000
   23.6315  -14.0557  -18.9148 N   0  0  0  0  0  0  0  0  0  0  0  0
   23.4992  -12.6482  -19.2757 C   0  0  1  0  0  0  0  0  0  0  0  0
   22.2445  -12.5473  -20.0988 C   0  0  0  0  0  0  0  0  0  0  0  0
   22.3447  -13.1180  -21.4745 C   0  0  0  0  0  0  0  0  0  0  0  0
   21.1810  -12.8699  -22.3401 C   0  0  0  0  0  0  0  0  0  0  0  0
   20.0264  -12.7834  -21.8516 O   0  0  0  0  0  0  0  0  0  0  0  0
   23.4209  -11.7977  -18.0622 C   0  0  0  0  0  0  0  0  0  0  0  0
   22.9776  -12.2124  -16.9658 O   0  0  0  0  0  0  0  0  0  0  0  0
   21.2959  -12.7230  -23.7062 O   0  0  0  0  0  0  0  0  0  0  0  0
   23.8536  -10.4301  -18.0692 N   0  0  0  0  0  0  0  0  0  0  0  0
   23.9133   -9.5997  -16.9047 C   0  0  1  0  0  0  0  0  0  0  0  0
   25.2985   -9.1148  -16.5667 C   0  0  0  0  0  0  0  0  0  0  0  0
   26.2402  -10.2379  -16.3205 C   0  0  0  0  0  0  0  0  0  0  0  0
   26.3562  -10.9352  -15.1335 C   0  0  0  0  0  0  0  0  0  0  0  0
   27.2999  -11.8867  -15.2477 N   0  0  0  0  0  0  0  0  0  0  0  0
   27.7871  -11.8041  -16.4942 C   0  0  0  0  0  0  0  0  0  0  0  0
   27.1420  -10.8020  -17.1430 N   0  0  0  0  0  0  0  0  0  0  0  0
   22.9908   -8.4187  -17.0759 C   0  0  0  0  0  0  0  0  0  0  0  0
   23.1412   -7.6267  -18.0423 O   0  0  0  0  0  0  0  0  0  0  0  0
   19.2492   -8.4870  -17.3839 C   0  0  0  0  0  0  0  0  0  0  0  0
   19.5789   -7.5816  -16.2058 C   0  0  1  0  0  0  0  0  0  0  0  0
   19.5110   -8.3865  -15.0621 O   0  0  0  0  0  0  0  0  0  0  0  0
   21.0114   -7.1218  -16.3394 C   0  0  2  0  0  0  0  0  0  0  0  0
   21.9452   -8.2058  -16.1328 N   0  0  0  0  0  0  0  0  0  0  0  0
   21.2872   -6.0900  -15.2840 C   0  0  0  0  0  0  0  0  0  0  0  0
   22.1016   -6.3066  -14.3523 O   0  0  0  0  0  0  0  0  0  0  0  0
   20.6196   -4.8793  -15.3566 O   0  0  0  0  0  0  0  0  0  0  0  0
  2  7  1  0
  2  1  1  1
  3  2  1  0
  4  3  1  0
  5  6  2  0
  5  4  1  0
  7  8  2  0
  9  5  1  0
 10 11  1  0
 10  7  1  0
 11 12  1  6
 12 13  1  0
 13 14  2  0
 14 15  1  0
 16 15  1  0
 17 13  1  0
 17 16  2  0
 18 19  2  0
 18 11  1  0
 21 20  1  6
 21 23  1  0
 22 21  1  0
 23 25  1  0
 23 24  1  1
 24 18  1  0
 25 27  1  0
 26 25  2  0
M  END
$$$$
