EHT.pdb
     RDKit          3D

 27 27  0  0  1  0  0  0  0  0999 V2000
   27.7492  -18.7184  -16.5325 N   0  0  0  0  0  0  0  0  0  0  0  0
   26.7382  -19.6257  -15.9999 C   0  0  1  0  0  0  0  0  0  0  0  0
   27.3987  -20.3643  -14.8685 C   0  0  0  0  0  0  0  0  0  0  0  0
   28.4858  -21.3023  -15.2767 C   0  0  0  0  0  0  0  0  0  0  0  0
   28.0668  -22.3929  -16.1711 C   0  0  0  0  0  0  0  0  0  0  0  0
   26.8732  -22.4849  -16.5533 O   0  0  0  0  0  0  0  0  0  0  0  0
   25.5473  -18.8730  -15.5335 C   0  0  0  0  0  0  0  0  0  0  0  0
   25.6219  -17.8861  -14.7647 O   0  0  0  0  0  0  0  0  0  0  0  0
   28.9462  -23.3523  -16.6266 O   0  0  0  0  0  0  0  0  0  0  0  0
   24.2195  -19.2334  -15.9392 N   0  0  0  0  0  0  0  0  0  0  0  0
   23.0479  -18.4753  -15.6205 C   0  0  1  0  0  0  0  0  0  0  0  0
   22.7749  -17.3385  -16.5700 C   0  0  0  0  0  0  0  0  0  0  0  0
   21.5737  -16.5568  -16.1765 C   0  0  0  0  0  0  0  0  0  0  0  0
   20.7540  -16.8419  -15.1016 C   0  0  0  0  0  0  0  0  0  0  0  0
   19.7598  -15.9391  -15.0274 N   0  0  0  0  0  0  0  0  0  0  0  0
   19.9362  -15.0814  -16.0429 C   0  0  0  0  0  0  0  0  0  0  0  0
   21.0381  -15.4590  -16.7388 N   0  0  0  0  0  0  0  0  0  0  0  0
   21.8500  -19.3905  -15.5684 C   0  0  0  0  0  0  0  0  0  0  0  0
   21.5381  -20.0903  -16.5668 O   0  0  0  0  0  0  0  0  0  0  0  0
   21.3530  -21.9673  -12.8927 C   0  0  0  0  0  0  0  0  0  0  0  0
   20.0557  -21.1741  -12.9588 C   0  0  1  0  0  0  0  0  0  0  0  0
   20.1346  -20.2092  -11.9472 O   0  0  0  0  0  0  0  0  0  0  0  0
   20.0116  -20.4339  -14.2745 C   0  0  2  0  0  0  0  0  0  0  0  0
   21.0722  -19.4570  -14.3774 N   0  0  0  0  0  0  0  0  0  0  0  0
   18.7109  -19.6894  -14.3658 C   0  0  0  0  0  0  0  0  0  0  0  0
   18.6712  -18.4339  -14.3453 O   0  0  0  0  0  0  0  0  0  0  0  0
   17.5401  -20.4204  -14.4745 O   0  0  0  0  0  0  0  0  0  0  0  0
  2  7  1  0
  2  1  1  1
  3  2  1  0
  4  3  1  0
  5  6  2  0
  5  4  1  0
  7  8  2  0
  9  5  1  0
 10 11  1  0
 10  7  1  0
 11 12  1  6
 12 13  1  0
 13 14  2  0
 14 15  1  0
 16 15  1  0
 17 13  1  0
 17 16  2  0
 18 19  2  0
 18 11  1  0
 21 20  1  6
 21 23  1  0
 22 21  1  0
 23 25  1  0
 23 24  1  1
 24 18  1  0
 25 27  1  0
 26 25  2  0
M  END
$$$$
