EHT.pdb
     RDKit          3D

 27 27  0  0  1  0  0  0  0  0999 V2000
   19.4049  -11.9623  -16.2501 N   0  0  0  0  0  0  0  0  0  0  0  0
   18.4563  -10.9075  -16.5917 C   0  0  1  0  0  0  0  0  0  0  0  0
   17.0912  -11.4672  -16.3002 C   0  0  0  0  0  0  0  0  0  0  0  0
   16.6517  -12.5652  -17.2112 C   0  0  0  0  0  0  0  0  0  0  0  0
   15.1953  -12.7512  -17.3081 C   0  0  0  0  0  0  0  0  0  0  0  0
   14.6412  -13.7506  -16.7852 O   0  0  0  0  0  0  0  0  0  0  0  0
   18.7208   -9.6827  -15.7966 C   0  0  0  0  0  0  0  0  0  0  0  0
   18.4807   -9.6009  -14.5693 O   0  0  0  0  0  0  0  0  0  0  0  0
   14.3795  -11.8553  -17.9661 O   0  0  0  0  0  0  0  0  0  0  0  0
   19.2747   -8.5010  -16.3917 N   0  0  0  0  0  0  0  0  0  0  0  0
   19.6693   -7.3390  -15.6547 C   0  0  1  0  0  0  0  0  0  0  0  0
   21.1588   -7.1222  -15.6011 C   0  0  0  0  0  0  0  0  0  0  0  0
   21.8622   -8.2365  -14.9139 C   0  0  0  0  0  0  0  0  0  0  0  0
   21.8682   -8.4545  -13.5497 C   0  0  0  0  0  0  0  0  0  0  0  0
   22.5982   -9.5464  -13.2601 N   0  0  0  0  0  0  0  0  0  0  0  0
   23.0580  -10.0272  -14.4243 C   0  0  0  0  0  0  0  0  0  0  0  0
   22.6096   -9.2298  -15.4266 N   0  0  0  0  0  0  0  0  0  0  0  0
   19.0002   -6.1183  -16.2356 C   0  0  0  0  0  0  0  0  0  0  0  0
   19.0856   -5.8692  -17.4663 O   0  0  0  0  0  0  0  0  0  0  0  0
   15.2885   -4.9501  -15.6915 C   0  0  0  0  0  0  0  0  0  0  0  0
   16.2577   -3.8558  -15.2681 C   0  0  1  0  0  0  0  0  0  0  0  0
   16.4577   -4.0204  -13.8920 O   0  0  0  0  0  0  0  0  0  0  0  0
   17.5866   -4.1040  -15.9416 C   0  0  2  0  0  0  0  0  0  0  0  0
   18.2692   -5.2472  -15.3786 N   0  0  0  0  0  0  0  0  0  0  0  0
   18.4683   -2.9082  -15.7244 C   0  0  0  0  0  0  0  0  0  0  0  0
   19.5167   -2.9830  -15.0364 O   0  0  0  0  0  0  0  0  0  0  0  0
   18.1009   -1.7054  -16.3034 O   0  0  0  0  0  0  0  0  0  0  0  0
  2  7  1  0
  2  1  1  1
  3  2  1  0
  4  3  1  0
  5  6  2  0
  5  4  1  0
  7  8  2  0
  9  5  1  0
 10 11  1  0
 10  7  1  0
 11 12  1  6
 12 13  1  0
 13 14  2  0
 14 15  1  0
 16 15  1  0
 17 13  1  0
 17 16  2  0
 18 19  2  0
 18 11  1  0
 21 20  1  6
 21 23  1  0
 22 21  1  0
 23 25  1  0
 23 24  1  1
 24 18  1  0
 25 27  1  0
 26 25  2  0
M  END
$$$$
