EHT.pdb
     RDKit          3D

 27 27  0  0  1  0  0  0  0  0999 V2000
   19.6233  -13.4928  -16.0670 N   0  0  0  0  0  0  0  0  0  0  0  0
   19.2912  -12.2450  -16.7464 C   0  0  1  0  0  0  0  0  0  0  0  0
   17.7933  -12.2321  -16.8810 C   0  0  0  0  0  0  0  0  0  0  0  0
   17.2376  -13.2290  -17.8432 C   0  0  0  0  0  0  0  0  0  0  0  0
   17.6091  -13.0131  -19.2505 C   0  0  0  0  0  0  0  0  0  0  0  0
   18.0227  -11.8918  -19.6389 O   0  0  0  0  0  0  0  0  0  0  0  0
   19.7754  -11.0767  -15.9699 C   0  0  0  0  0  0  0  0  0  0  0  0
   19.7756  -11.0427  -14.7171 O   0  0  0  0  0  0  0  0  0  0  0  0
   17.5231  -14.0116  -20.1975 O   0  0  0  0  0  0  0  0  0  0  0  0
   20.2797   -9.8984  -16.6139 N   0  0  0  0  0  0  0  0  0  0  0  0
   20.7552   -8.7421  -15.9167 C   0  0  1  0  0  0  0  0  0  0  0  0
   22.2509   -8.5709  -15.9598 C   0  0  0  0  0  0  0  0  0  0  0  0
   22.9617   -9.6850  -15.2797 C   0  0  0  0  0  0  0  0  0  0  0  0
   23.1511   -9.7949  -13.9157 C   0  0  0  0  0  0  0  0  0  0  0  0
   23.8314  -10.9202  -13.6335 N   0  0  0  0  0  0  0  0  0  0  0  0
   24.0781  -11.5294  -14.8022 C   0  0  0  0  0  0  0  0  0  0  0  0
   23.5490  -10.7771  -15.7999 N   0  0  0  0  0  0  0  0  0  0  0  0
   20.0878   -7.5070  -16.4682 C   0  0  0  0  0  0  0  0  0  0  0  0
   20.2988   -7.1439  -17.6546 O   0  0  0  0  0  0  0  0  0  0  0  0
   16.4163   -6.6407  -16.6813 C   0  0  0  0  0  0  0  0  0  0  0  0
   17.0921   -5.5530  -15.8589 C   0  0  1  0  0  0  0  0  0  0  0  0
   16.9437   -5.9268  -14.5177 O   0  0  0  0  0  0  0  0  0  0  0  0
   18.5716   -5.5705  -16.1624 C   0  0  2  0  0  0  0  0  0  0  0  0
   19.2146   -6.7525  -15.6339 N   0  0  0  0  0  0  0  0  0  0  0  0
   19.2131   -4.3833  -15.5042 C   0  0  0  0  0  0  0  0  0  0  0  0
   20.0106   -4.5179  -14.5429 O   0  0  0  0  0  0  0  0  0  0  0  0
   18.9064   -3.1203  -15.9815 O   0  0  0  0  0  0  0  0  0  0  0  0
  2  7  1  0
  2  1  1  1
  3  2  1  0
  4  3  1  0
  5  6  2  0
  5  4  1  0
  7  8  2  0
  9  5  1  0
 10 11  1  0
 10  7  1  0
 11 12  1  6
 12 13  1  0
 13 14  2  0
 14 15  1  0
 16 15  1  0
 17 13  1  0
 17 16  2  0
 18 19  2  0
 18 11  1  0
 21 20  1  6
 21 23  1  0
 22 21  1  0
 23 25  1  0
 23 24  1  1
 24 18  1  0
 25 27  1  0
 26 25  2  0
M  END
$$$$
