EHT.pdb
     RDKit          3D

 27 27  0  0  1  0  0  0  0  0999 V2000
   17.9497  -10.8091  -17.1326 N   0  0  0  0  0  0  0  0  0  0  0  0
   19.2810  -10.2384  -16.9569 C   0  0  1  0  0  0  0  0  0  0  0  0
   19.7709   -9.8963  -18.3371 C   0  0  0  0  0  0  0  0  0  0  0  0
   20.3828  -11.0316  -19.0888 C   0  0  0  0  0  0  0  0  0  0  0  0
   20.9715  -10.6747  -20.3892 C   0  0  0  0  0  0  0  0  0  0  0  0
   20.9296   -9.4905  -20.8077 O   0  0  0  0  0  0  0  0  0  0  0  0
   19.2291   -9.0370  -16.0872 C   0  0  0  0  0  0  0  0  0  0  0  0
   18.3669   -8.1369  -16.2178 O   0  0  0  0  0  0  0  0  0  0  0  0
   21.5871  -11.6045  -21.2003 O   0  0  0  0  0  0  0  0  0  0  0  0
   20.1753   -8.8290  -15.0294 N   0  0  0  0  0  0  0  0  0  0  0  0
   20.1280   -7.7304  -14.1129 C   0  0  1  0  0  0  0  0  0  0  0  0
   20.1947   -8.1361  -12.6640 C   0  0  0  0  0  0  0  0  0  0  0  0
   18.9459   -8.8025  -12.2113 C   0  0  0  0  0  0  0  0  0  0  0  0
   17.8421   -9.0505  -13.0043 C   0  0  0  0  0  0  0  0  0  0  0  0
   16.8869   -9.6670  -12.2857 N   0  0  0  0  0  0  0  0  0  0  0  0
   17.3690   -9.8151  -11.0433 C   0  0  0  0  0  0  0  0  0  0  0  0
   18.6192   -9.2892  -11.0011 N   0  0  0  0  0  0  0  0  0  0  0  0
   21.2450   -6.7646  -14.4206 C   0  0  0  0  0  0  0  0  0  0  0  0
   22.4297   -7.1744  -14.5327 O   0  0  0  0  0  0  0  0  0  0  0  0
   21.4936   -4.2733  -17.2977 C   0  0  0  0  0  0  0  0  0  0  0  0
   21.6194   -3.4967  -15.9949 C   0  0  1  0  0  0  0  0  0  0  0  0
   20.3341   -3.0324  -15.6899 O   0  0  0  0  0  0  0  0  0  0  0  0
   22.0147   -4.4578  -14.8989 C   0  0  2  0  0  0  0  0  0  0  0  0
   20.9482   -5.3814  -14.5836 N   0  0  0  0  0  0  0  0  0  0  0  0
   22.3073   -3.6739  -13.6522 C   0  0  0  0  0  0  0  0  0  0  0  0
   21.5991   -3.7930  -12.6215 O   0  0  0  0  0  0  0  0  0  0  0  0
   23.3858   -2.8057  -13.6583 O   0  0  0  0  0  0  0  0  0  0  0  0
  2  7  1  0
  2  1  1  6
  3  2  1  0
  4  3  1  0
  5  6  2  0
  5  4  1  0
  7  8  2  0
  9  5  1  0
 10 11  1  0
 10  7  1  0
 11 12  1  1
 12 13  1  0
 13 14  2  0
 14 15  1  0
 16 15  1  0
 17 13  1  0
 17 16  2  0
 18 19  2  0
 18 11  1  0
 21 20  1  6
 21 23  1  0
 22 21  1  0
 23 25  1  0
 23 24  1  1
 24 18  1  0
 25 27  1  0
 26 25  2  0
M  END
$$$$
