EHT.pdb
     RDKit          3D

 27 27  0  0  1  0  0  0  0  0999 V2000
   18.9206  -12.6987  -16.8076 N   0  0  0  0  0  0  0  0  0  0  0  0
   18.5429  -11.3015  -16.6230 C   0  0  1  0  0  0  0  0  0  0  0  0
   17.5533  -11.2856  -15.4906 C   0  0  0  0  0  0  0  0  0  0  0  0
   16.2610  -11.9779  -15.7723 C   0  0  0  0  0  0  0  0  0  0  0  0
   15.2987  -11.9815  -14.6593 C   0  0  0  0  0  0  0  0  0  0  0  0
   15.5505  -12.6039  -13.5970 O   0  0  0  0  0  0  0  0  0  0  0  0
   19.7327  -10.4700  -16.3144 C   0  0  0  0  0  0  0  0  0  0  0  0
   20.7188  -10.9015  -15.6727 O   0  0  0  0  0  0  0  0  0  0  0  0
   14.0934  -11.3149  -14.7242 O   0  0  0  0  0  0  0  0  0  0  0  0
   19.8286   -9.1026  -16.7370 N   0  0  0  0  0  0  0  0  0  0  0  0
   20.9614   -8.2627  -16.4911 C   0  0  1  0  0  0  0  0  0  0  0  0
   21.6386   -7.7636  -17.7403 C   0  0  0  0  0  0  0  0  0  0  0  0
   22.1451   -8.8766  -18.5852 C   0  0  0  0  0  0  0  0  0  0  0  0
   23.4462   -9.3409  -18.5956 C   0  0  0  0  0  0  0  0  0  0  0  0
   23.5673  -10.3545  -19.4714 N   0  0  0  0  0  0  0  0  0  0  0  0
   22.3580  -10.5418  -20.0196 C   0  0  0  0  0  0  0  0  0  0  0  0
   21.4967   -9.6430  -19.4797 N   0  0  0  0  0  0  0  0  0  0  0  0
   20.5480   -7.0907  -15.6362 C   0  0  0  0  0  0  0  0  0  0  0  0
   19.5842   -6.3584  -15.9809 O   0  0  0  0  0  0  0  0  0  0  0  0
   19.7996   -7.2676  -11.9616 C   0  0  0  0  0  0  0  0  0  0  0  0
   20.7970   -6.1302  -12.1287 C   0  0  1  0  0  0  0  0  0  0  0  0
   22.0547   -6.6640  -11.8222 O   0  0  0  0  0  0  0  0  0  0  0  0
   20.8289   -5.7292  -13.5845 C   0  0  2  0  0  0  0  0  0  0  0  0
   21.2586   -6.8181  -14.4326 N   0  0  0  0  0  0  0  0  0  0  0  0
   21.8198   -4.6142  -13.7561 C   0  0  0  0  0  0  0  0  0  0  0  0
   22.8772   -4.7725  -14.4156 O   0  0  0  0  0  0  0  0  0  0  0  0
   21.5441   -3.3920  -13.1669 O   0  0  0  0  0  0  0  0  0  0  0  0
  2  7  1  0
  2  1  1  1
  3  2  1  0
  4  3  1  0
  5  6  2  0
  5  4  1  0
  7  8  2  0
  9  5  1  0
 10 11  1  0
 10  7  1  0
 11 12  1  6
 12 13  1  0
 13 14  2  0
 14 15  1  0
 16 15  1  0
 17 13  1  0
 17 16  2  0
 18 19  2  0
 18 11  1  0
 21 20  1  6
 21 23  1  0
 22 21  1  0
 23 25  1  0
 23 24  1  6
 24 18  1  0
 25 27  1  0
 26 25  2  0
M  END
$$$$
