EHT.pdb
     RDKit          3D

 27 27  0  0  1  0  0  0  0  0999 V2000
   21.3930  -15.0080  -17.3602 N   0  0  0  0  0  0  0  0  0  0  0  0
   20.4337  -13.9138  -17.4677 C   0  0  1  0  0  0  0  0  0  0  0  0
   19.4259  -14.1370  -16.3739 C   0  0  0  0  0  0  0  0  0  0  0  0
   18.5585  -15.3390  -16.5507 C   0  0  0  0  0  0  0  0  0  0  0  0
   17.1681  -15.1783  -16.0973 C   0  0  0  0  0  0  0  0  0  0  0  0
   16.8960  -15.1279  -14.8714 O   0  0  0  0  0  0  0  0  0  0  0  0
   21.1115  -12.6019  -17.3204 C   0  0  0  0  0  0  0  0  0  0  0  0
   21.9537  -12.3660  -16.4228 O   0  0  0  0  0  0  0  0  0  0  0  0
   16.1120  -15.0773  -16.9781 O   0  0  0  0  0  0  0  0  0  0  0  0
   20.8408  -11.5081  -18.2080 N   0  0  0  0  0  0  0  0  0  0  0  0
   21.4881  -10.2335  -18.1341 C   0  0  1  0  0  0  0  0  0  0  0  0
   21.7795   -9.6140  -19.4756 C   0  0  0  0  0  0  0  0  0  0  0  0
   22.4563   -8.2970  -19.3487 C   0  0  0  0  0  0  0  0  0  0  0  0
   23.8130   -8.1124  -19.1639 C   0  0  0  0  0  0  0  0  0  0  0  0
   24.0941   -6.7993  -19.0899 N   0  0  0  0  0  0  0  0  0  0  0  0
   22.9321   -6.1442  -19.2255 C   0  0  0  0  0  0  0  0  0  0  0  0
   21.9395   -7.0561  -19.3823 N   0  0  0  0  0  0  0  0  0  0  0  0
   20.6519   -9.2868  -17.3097 C   0  0  0  0  0  0  0  0  0  0  0  0
   19.4185   -9.1685  -17.5299 O   0  0  0  0  0  0  0  0  0  0  0  0
   19.8701   -9.4183  -13.8477 C   0  0  0  0  0  0  0  0  0  0  0  0
   20.5110   -8.0462  -13.9996 C   0  0  1  0  0  0  0  0  0  0  0  0
   21.8606   -8.2047  -13.6621 O   0  0  0  0  0  0  0  0  0  0  0  0
   20.4622   -7.6518  -15.4568 C   0  0  2  0  0  0  0  0  0  0  0  0
   21.2704   -8.5255  -16.2773 N   0  0  0  0  0  0  0  0  0  0  0  0
   21.0201   -6.2653  -15.6002 C   0  0  0  0  0  0  0  0  0  0  0  0
   22.0860   -6.0492  -16.2290 O   0  0  0  0  0  0  0  0  0  0  0  0
   20.3301   -5.2146  -15.0196 O   0  0  0  0  0  0  0  0  0  0  0  0
  2  7  1  0
  2  1  1  1
  3  2  1  0
  4  3  1  0
  5  6  2  0
  5  4  1  0
  7  8  2  0
  9  5  1  0
 10 11  1  0
 10  7  1  0
 11 12  1  6
 12 13  1  0
 13 14  2  0
 14 15  1  0
 16 15  1  0
 17 13  1  0
 17 16  2  0
 18 19  2  0
 18 11  1  0
 21 20  1  6
 21 23  1  0
 22 21  1  0
 23 25  1  0
 23 24  1  6
 24 18  1  0
 25 27  1  0
 26 25  2  0
M  END
$$$$
