EHT.pdb
     RDKit          3D

 27 27  0  0  1  0  0  0  0  0999 V2000
   20.1738   -7.5179  -18.0772 N   0  0  0  0  0  0  0  0  0  0  0  0
   18.9227   -7.0935  -17.4577 C   0  0  1  0  0  0  0  0  0  0  0  0
   18.2513   -8.3501  -16.9761 C   0  0  0  0  0  0  0  0  0  0  0  0
   18.9691   -9.6161  -17.3083 C   0  0  0  0  0  0  0  0  0  0  0  0
   18.2641  -10.8514  -16.9313 C   0  0  0  0  0  0  0  0  0  0  0  0
   17.0325  -10.8351  -16.6819 O   0  0  0  0  0  0  0  0  0  0  0  0
   19.1806   -6.1539  -16.3385 C   0  0  0  0  0  0  0  0  0  0  0  0
   18.2754   -5.7250  -15.5853 O   0  0  0  0  0  0  0  0  0  0  0  0
   18.9072  -12.0671  -16.8336 O   0  0  0  0  0  0  0  0  0  0  0  0
   20.4995   -5.6719  -16.0456 N   0  0  0  0  0  0  0  0  0  0  0  0
   20.8079   -4.7736  -14.9746 C   0  0  1  0  0  0  0  0  0  0  0  0
   21.9097   -5.2548  -14.0675 C   0  0  0  0  0  0  0  0  0  0  0  0
   21.5116   -6.4594  -13.2934 C   0  0  0  0  0  0  0  0  0  0  0  0
   20.2817   -7.0843  -13.3681 C   0  0  0  0  0  0  0  0  0  0  0  0
   20.2512   -8.1432  -12.5394 N   0  0  0  0  0  0  0  0  0  0  0  0
   21.4478   -8.2007  -11.9370 C   0  0  0  0  0  0  0  0  0  0  0  0
   22.2108   -7.1770  -12.3967 N   0  0  0  0  0  0  0  0  0  0  0  0
   21.1678   -3.4203  -15.5351 C   0  0  0  0  0  0  0  0  0  0  0  0
   22.0797   -3.3082  -16.3952 O   0  0  0  0  0  0  0  0  0  0  0  0
   18.4707   -0.8705  -16.7448 C   0  0  0  0  0  0  0  0  0  0  0  0
   19.4461   -0.1647  -15.8139 C   0  0  1  0  0  0  0  0  0  0  0  0
   18.8538   -0.1748  -14.5452 O   0  0  0  0  0  0  0  0  0  0  0  0
   20.7060   -0.9924  -15.7210 C   0  0  2  0  0  0  0  0  0  0  0  0
   20.4659   -2.2669  -15.0824 N   0  0  0  0  0  0  0  0  0  0  0  0
   21.7068   -0.2548  -14.8791 C   0  0  0  0  0  0  0  0  0  0  0  0
   22.0580   -0.6834  -13.7517 O   0  0  0  0  0  0  0  0  0  0  0  0
   22.2433    0.9219  -15.3736 O   0  0  0  0  0  0  0  0  0  0  0  0
  2  7  1  0
  2  1  1  1
  3  2  1  0
  4  3  1  0
  5  6  2  0
  5  4  1  0
  7  8  2  0
  9  5  1  0
 10 11  1  0
 10  7  1  0
 11 12  1  6
 12 13  1  0
 13 14  2  0
 14 15  1  0
 16 15  1  0
 17 13  1  0
 17 16  2  0
 18 19  2  0
 18 11  1  0
 21 20  1  6
 21 23  1  0
 22 21  1  0
 23 25  1  0
 23 24  1  1
 24 18  1  0
 25 27  1  0
 26 25  2  0
M  END
$$$$
