EHT.pdb
     RDKit          3D

 27 27  0  0  1  0  0  0  0  0999 V2000
   20.3929  -20.7009  -11.8791 N   0  0  0  0  0  0  0  0  0  0  0  0
   20.5105  -21.3756  -13.1675 C   0  0  1  0  0  0  0  0  0  0  0  0
   19.4660  -20.7578  -14.0559 C   0  0  0  0  0  0  0  0  0  0  0  0
   18.0547  -21.0083  -13.6389 C   0  0  0  0  0  0  0  0  0  0  0  0
   17.0342  -20.6310  -14.6295 C   0  0  0  0  0  0  0  0  0  0  0  0
   16.3221  -21.5074  -15.1809 O   0  0  0  0  0  0  0  0  0  0  0  0
   21.8723  -21.2025  -13.7311 C   0  0  0  0  0  0  0  0  0  0  0  0
   22.5540  -20.1646  -13.5616 O   0  0  0  0  0  0  0  0  0  0  0  0
   16.8120  -19.3207  -14.9970 O   0  0  0  0  0  0  0  0  0  0  0  0
   22.5009  -22.2260  -14.5153 N   0  0  0  0  0  0  0  0  0  0  0  0
   23.8392  -22.1466  -15.0168 C   0  0  1  0  0  0  0  0  0  0  0  0
   24.5761  -23.4600  -15.0111 C   0  0  0  0  0  0  0  0  0  0  0  0
   25.9450  -23.3363  -15.5765 C   0  0  0  0  0  0  0  0  0  0  0  0
   26.8606  -22.3576  -15.2410 C   0  0  0  0  0  0  0  0  0  0  0  0
   27.9997  -22.5345  -15.9339 N   0  0  0  0  0  0  0  0  0  0  0  0
   27.8210  -23.6149  -16.7075 C   0  0  0  0  0  0  0  0  0  0  0  0
   26.5726  -24.0996  -16.4885 N   0  0  0  0  0  0  0  0  0  0  0  0
   23.8244  -21.5800  -16.4147 C   0  0  0  0  0  0  0  0  0  0  0  0
   22.8949  -21.8720  -17.2114 O   0  0  0  0  0  0  0  0  0  0  0  0
   23.9202  -17.9468  -17.6528 C   0  0  0  0  0  0  0  0  0  0  0  0
   25.1481  -18.6815  -18.1710 C   0  0  1  0  0  0  0  0  0  0  0  0
   26.1632  -18.4583  -17.2328 O   0  0  0  0  0  0  0  0  0  0  0  0
   24.8587  -20.1639  -18.1661 C   0  0  2  0  0  0  0  0  0  0  0  0
   24.8733  -20.7098  -16.8276 N   0  0  0  0  0  0  0  0  0  0  0  0
   25.9321  -20.8676  -18.9451 C   0  0  0  0  0  0  0  0  0  0  0  0
   26.7394  -21.6523  -18.3876 O   0  0  0  0  0  0  0  0  0  0  0  0
   26.0179  -20.6337  -20.3071 O   0  0  0  0  0  0  0  0  0  0  0  0
  2  7  1  0
  2  1  1  1
  3  2  1  0
  4  3  1  0
  5  6  2  0
  5  4  1  0
  7  8  2  0
  9  5  1  0
 10 11  1  0
 10  7  1  0
 11 12  1  6
 12 13  1  0
 13 14  2  0
 14 15  1  0
 16 15  1  0
 17 13  1  0
 17 16  2  0
 18 19  2  0
 18 11  1  0
 21 20  1  1
 21 23  1  0
 22 21  1  0
 23 25  1  0
 23 24  1  1
 24 18  1  0
 25 27  1  0
 26 25  2  0
M  END
$$$$
