PGF.pdb
     RDKit          3D

 23 24  0  0  1  0  0  0  0  0999 V2000
    7.2481  -15.0184   20.1978 N   0  0  0  0  0  0  0  0  0  0  0  0
    6.8993  -13.7358   20.7396 C   0  0  0  0  0  0  0  0  0  0  0  0
    7.7991  -12.7088   20.1342 C   0  0  0  0  0  0  0  0  0  0  0  0
    8.3988  -13.4693   18.9489 C   0  0  0  0  0  0  0  0  0  0  0  0
    8.5504  -14.8605   19.5778 C   0  0  1  0  0  0  0  0  0  0  0  0
    9.5646  -14.7987   20.6502 C   0  0  0  0  0  0  0  0  0  0  0  0
   10.7388  -14.4043   20.4307 O   0  0  0  0  0  0  0  0  0  0  0  0
    9.2617  -15.1858   21.9977 N   0  0  0  0  0  0  0  0  0  0  0  0
   10.3204  -15.6008   22.8894 C   0  0  0  0  0  0  0  0  0  0  0  0
    9.7872  -16.0521   24.2010 C   0  0  0  0  0  0  0  0  0  0  0  0
   10.5931  -16.4022   25.0988 O   0  0  0  0  0  0  0  0  0  0  0  0
    8.4083  -16.1033   24.4788 N   0  0  0  0  0  0  0  0  0  0  0  0
    7.9097  -16.4803   25.8019 C   0  0  1  0  0  0  0  0  0  0  0  0
    6.6424  -15.6949   26.0145 C   0  0  0  0  0  0  0  0  0  0  0  0
    6.8412  -14.2660   26.2500 C   0  0  0  0  0  0  0  0  0  0  0  0
    5.7299  -13.4591   26.3861 C   0  0  0  0  0  0  0  0  0  0  0  0
    5.8770  -12.0918   26.6126 C   0  0  0  0  0  0  0  0  0  0  0  0
    7.1389  -11.5337   26.7027 C   0  0  0  0  0  0  0  0  0  0  0  0
    8.2343  -12.3713   26.5615 C   0  0  0  0  0  0  0  0  0  0  0  0
    8.1035  -13.7234   26.3375 C   0  0  0  0  0  0  0  0  0  0  0  0
    7.7345  -17.9231   25.9351 C   0  0  0  0  0  0  0  0  0  0  0  0
    7.6646  -18.6445   24.9142 O   0  0  0  0  0  0  0  0  0  0  0  0
    7.6413  -18.5336   27.1695 O   0  0  0  0  0  0  0  0  0  0  0  0
  1  2  1  0
  2  3  1  0
  4  3  1  0
  5  4  1  0
  5  1  1  0
  5  6  1  1
  6  7  2  0
  8  6  1  0
  9  8  1  0
  9 10  1  0
 10 12  1  0
 11 10  2  0
 12 13  1  0
 13 14  1  6
 14 15  1  0
 15 20  1  0
 16 15  2  0
 16 17  1  0
 17 18  2  0
 18 19  1  0
 20 19  2  0
 21 13  1  0
 21 23  1  0
 22 21  2  0
M  END
$$$$
