PGF.pdb
     RDKit          3D

 23 24  0  0  1  0  0  0  0  0999 V2000
    7.2978  -14.9753   20.2152 N   0  0  0  0  0  0  0  0  0  0  0  0
    6.8441  -13.7774   20.8628 C   0  0  0  0  0  0  0  0  0  0  0  0
    7.6605  -12.6323   20.3597 C   0  0  0  0  0  0  0  0  0  0  0  0
    8.3249  -13.2351   19.1194 C   0  0  0  0  0  0  0  0  0  0  0  0
    8.5858  -14.6596   19.6263 C   0  0  1  0  0  0  0  0  0  0  0  0
    9.5870  -14.6112   20.7115 C   0  0  0  0  0  0  0  0  0  0  0  0
   10.7434  -14.1515   20.5271 O   0  0  0  0  0  0  0  0  0  0  0  0
    9.2911  -15.0865   22.0321 N   0  0  0  0  0  0  0  0  0  0  0  0
   10.3436  -15.6259   22.8625 C   0  0  0  0  0  0  0  0  0  0  0  0
    9.8449  -15.9855   24.2153 C   0  0  0  0  0  0  0  0  0  0  0  0
   10.6620  -16.3936   25.0777 O   0  0  0  0  0  0  0  0  0  0  0  0
    8.4865  -15.8864   24.5708 N   0  0  0  0  0  0  0  0  0  0  0  0
    7.9828  -16.4476   25.8248 C   0  0  1  0  0  0  0  0  0  0  0  0
    6.7109  -15.7047   26.1383 C   0  0  0  0  0  0  0  0  0  0  0  0
    6.8426  -14.2491   26.1598 C   0  0  0  0  0  0  0  0  0  0  0  0
    6.3886  -13.5296   25.0733 C   0  0  0  0  0  0  0  0  0  0  0  0
    6.4952  -12.1399   25.0557 C   0  0  0  0  0  0  0  0  0  0  0  0
    7.0572  -11.4720   26.1280 C   0  0  0  0  0  0  0  0  0  0  0  0
    7.5035  -12.2238   27.2037 C   0  0  0  0  0  0  0  0  0  0  0  0
    7.4044  -13.5967   27.2342 C   0  0  0  0  0  0  0  0  0  0  0  0
    7.8135  -17.8954   25.7528 C   0  0  0  0  0  0  0  0  0  0  0  0
    7.4552  -18.5374   26.7662 O   0  0  0  0  0  0  0  0  0  0  0  0
    8.0383  -18.5968   24.5854 O   0  0  0  0  0  0  0  0  0  0  0  0
  1  2  1  0
  2  3  1  0
  4  3  1  0
  5  4  1  0
  5  1  1  0
  5  6  1  1
  6  7  2  0
  8  6  1  0
  9  8  1  0
  9 10  1  0
 10 12  1  0
 11 10  2  0
 12 13  1  0
 13 14  1  6
 14 15  1  0
 15 20  1  0
 16 15  2  0
 16 17  1  0
 17 18  2  0
 18 19  1  0
 20 19  2  0
 21 13  1  0
 21 23  1  0
 22 21  2  0
M  END
$$$$
