PGF.pdb
     RDKit          3D

 23 24  0  0  1  0  0  0  0  0999 V2000
    7.0435  -14.7276   21.0182 N   0  0  0  0  0  0  0  0  0  0  0  0
    7.0769  -13.3977   21.5573 C   0  0  0  0  0  0  0  0  0  0  0  0
    7.8945  -12.5412   20.6468 C   0  0  0  0  0  0  0  0  0  0  0  0
    7.9801  -13.4064   19.3869 C   0  0  0  0  0  0  0  0  0  0  0  0
    8.1024  -14.7948   20.0284 C   0  0  1  0  0  0  0  0  0  0  0  0
    9.3926  -14.8860   20.7423 C   0  0  0  0  0  0  0  0  0  0  0  0
   10.4871  -14.6576   20.1658 O   0  0  0  0  0  0  0  0  0  0  0  0
    9.4628  -15.2399   22.1305 N   0  0  0  0  0  0  0  0  0  0  0  0
   10.6002  -15.9741   22.6360 C   0  0  0  0  0  0  0  0  0  0  0  0
   10.4963  -16.2062   24.1001 C   0  0  0  0  0  0  0  0  0  0  0  0
   11.3756  -16.8979   24.6715 O   0  0  0  0  0  0  0  0  0  0  0  0
    9.4468  -15.6793   24.8760 N   0  0  0  0  0  0  0  0  0  0  0  0
    9.1637  -16.1836   26.2202 C   0  0  1  0  0  0  0  0  0  0  0  0
    8.8476  -14.9776   27.0650 C   0  0  0  0  0  0  0  0  0  0  0  0
    7.9349  -14.0190   26.4447 C   0  0  0  0  0  0  0  0  0  0  0  0
    8.4693  -12.9299   25.7870 C   0  0  0  0  0  0  0  0  0  0  0  0
    7.6327  -11.9937   25.1817 C   0  0  0  0  0  0  0  0  0  0  0  0
    6.2600  -12.1501   25.2360 C   0  0  0  0  0  0  0  0  0  0  0  0
    5.7551  -13.2547   25.9042 C   0  0  0  0  0  0  0  0  0  0  0  0
    6.5697  -14.1869   26.5064 C   0  0  0  0  0  0  0  0  0  0  0  0
    8.1089  -17.1922   26.2203 C   0  0  0  0  0  0  0  0  0  0  0  0
    7.4536  -17.4164   25.1773 O   0  0  0  0  0  0  0  0  0  0  0  0
    7.8011  -17.9226   27.3504 O   0  0  0  0  0  0  0  0  0  0  0  0
  1  2  1  0
  2  3  1  0
  4  3  1  0
  5  4  1  0
  5  1  1  0
  5  6  1  1
  6  7  2  0
  8  6  1  0
  9  8  1  0
  9 10  1  0
 10 12  1  0
 11 10  2  0
 12 13  1  0
 13 14  1  1
 14 15  1  0
 15 20  1  0
 16 15  2  0
 16 17  1  0
 17 18  2  0
 18 19  1  0
 20 19  2  0
 21 13  1  0
 21 23  1  0
 22 21  2  0
M  END
$$$$
