PGF.pdb
     RDKit          3D

 23 24  0  0  1  0  0  0  0  0999 V2000
    8.5768  -14.8627   18.5138 N   0  0  0  0  0  0  0  0  0  0  0  0
    7.2046  -14.5419   18.2409 C   0  0  0  0  0  0  0  0  0  0  0  0
    6.8627  -13.2818   18.9664 C   0  0  0  0  0  0  0  0  0  0  0  0
    8.2463  -12.7425   19.3379 C   0  0  0  0  0  0  0  0  0  0  0  0
    8.9653  -14.0596   19.6580 C   0  0  1  0  0  0  0  0  0  0  0  0
    8.3616  -14.6593   20.8657 C   0  0  0  0  0  0  0  0  0  0  0  0
    8.3832  -14.0734   21.9788 O   0  0  0  0  0  0  0  0  0  0  0  0
    7.7194  -15.9413   20.8304 N   0  0  0  0  0  0  0  0  0  0  0  0
    7.1592  -16.5063   22.0367 C   0  0  0  0  0  0  0  0  0  0  0  0
    8.1506  -16.5286   23.1435 C   0  0  0  0  0  0  0  0  0  0  0  0
    9.2077  -17.1922   23.0016 O   0  0  0  0  0  0  0  0  0  0  0  0
    7.9513  -15.8324   24.3504 N   0  0  0  0  0  0  0  0  0  0  0  0
    8.9334  -15.8863   25.4338 C   0  0  1  0  0  0  0  0  0  0  0  0
    9.2888  -14.4579   25.7521 C   0  0  0  0  0  0  0  0  0  0  0  0
    8.1442  -13.5859   26.0094 C   0  0  0  0  0  0  0  0  0  0  0  0
    7.9789  -13.0719   27.2794 C   0  0  0  0  0  0  0  0  0  0  0  0
    6.9009  -12.2358   27.5650 C   0  0  0  0  0  0  0  0  0  0  0  0
    5.9886  -11.9153   26.5765 C   0  0  0  0  0  0  0  0  0  0  0  0
    6.1831  -12.4479   25.3116 C   0  0  0  0  0  0  0  0  0  0  0  0
    7.2433  -13.2749   25.0158 C   0  0  0  0  0  0  0  0  0  0  0  0
    8.4446  -16.6391   26.5847 C   0  0  0  0  0  0  0  0  0  0  0  0
    9.2007  -16.8609   27.5576 O   0  0  0  0  0  0  0  0  0  0  0  0
    7.1539  -17.1252   26.6410 O   0  0  0  0  0  0  0  0  0  0  0  0
  1  2  1  0
  2  3  1  0
  4  3  1  0
  5  4  1  0
  5  1  1  0
  5  6  1  1
  6  7  2  0
  8  6  1  0
  9  8  1  0
  9 10  1  0
 10 12  1  0
 11 10  2  0
 12 13  1  0
 13 14  1  1
 14 15  1  0
 15 20  1  0
 16 15  2  0
 16 17  1  0
 17 18  2  0
 18 19  1  0
 20 19  2  0
 21 13  1  0
 21 23  1  0
 22 21  2  0
M  END
$$$$
