PGF.pdb
     RDKit          3D

 23 24  0  0  1  0  0  0  0  0999 V2000
    7.6798  -14.9419   19.7251 N   0  0  0  0  0  0  0  0  0  0  0  0
    6.7312  -14.6410   20.7595 C   0  0  0  0  0  0  0  0  0  0  0  0
    7.1123  -13.3383   21.3829 C   0  0  0  0  0  0  0  0  0  0  0  0
    8.1042  -12.7746   20.3624 C   0  0  0  0  0  0  0  0  0  0  0  0
    8.8168  -14.0677   19.9453 C   0  0  1  0  0  0  0  0  0  0  0  0
    9.5818  -14.5912   21.0956 C   0  0  0  0  0  0  0  0  0  0  0  0
   10.5203  -13.9381   21.6205 O   0  0  0  0  0  0  0  0  0  0  0  0
    9.2933  -15.8720   21.6731 N   0  0  0  0  0  0  0  0  0  0  0  0
   10.3627  -16.6884   22.2004 C   0  0  0  0  0  0  0  0  0  0  0  0
   10.3915  -16.6618   23.6859 C   0  0  0  0  0  0  0  0  0  0  0  0
   11.3084  -17.2732   24.2888 O   0  0  0  0  0  0  0  0  0  0  0  0
    9.4276  -15.9755   24.4481 N   0  0  0  0  0  0  0  0  0  0  0  0
    9.3615  -16.1185   25.9029 C   0  0  1  0  0  0  0  0  0  0  0  0
    9.2856  -14.7217   26.4608 C   0  0  0  0  0  0  0  0  0  0  0  0
    8.1413  -13.9395   25.9967 C   0  0  0  0  0  0  0  0  0  0  0  0
    6.9161  -14.1421   26.5986 C   0  0  0  0  0  0  0  0  0  0  0  0
    5.8008  -13.4154   26.1855 C   0  0  0  0  0  0  0  0  0  0  0  0
    5.9144  -12.4854   25.1686 C   0  0  0  0  0  0  0  0  0  0  0  0
    7.1588  -12.3058   24.5848 C   0  0  0  0  0  0  0  0  0  0  0  0
    8.2685  -13.0166   24.9830 C   0  0  0  0  0  0  0  0  0  0  0  0
    8.2597  -16.9784   26.3233 C   0  0  0  0  0  0  0  0  0  0  0  0
    7.3965  -17.3446   25.4937 O   0  0  0  0  0  0  0  0  0  0  0  0
    8.1319  -17.4114   27.6277 O   0  0  0  0  0  0  0  0  0  0  0  0
  1  2  1  0
  2  3  1  0
  4  3  1  0
  5  4  1  0
  5  1  1  0
  5  6  1  1
  6  7  2  0
  8  6  1  0
  9  8  1  0
  9 10  1  0
 10 12  1  0
 11 10  2  0
 12 13  1  0
 13 14  1  1
 14 15  1  0
 15 20  1  0
 16 15  2  0
 16 17  1  0
 17 18  2  0
 18 19  1  0
 20 19  2  0
 21 13  1  0
 21 23  1  0
 22 21  2  0
M  END
$$$$
