PGF.pdb
     RDKit          3D

 23 24  0  0  1  0  0  0  0  0999 V2000
    7.9912  -16.6021   20.0504 N   0  0  0  0  0  0  0  0  0  0  0  0
    7.0433  -17.0288   21.0403 C   0  0  0  0  0  0  0  0  0  0  0  0
    6.4314  -15.8152   21.6598 C   0  0  0  0  0  0  0  0  0  0  0  0
    6.8336  -14.7163   20.6730 C   0  0  0  0  0  0  0  0  0  0  0  0
    8.2436  -15.1960   20.3046 C   0  0  1  0  0  0  0  0  0  0  0  0
    9.1153  -15.0940   21.4930 C   0  0  0  0  0  0  0  0  0  0  0  0
    9.2722  -14.0085   22.1092 O   0  0  0  0  0  0  0  0  0  0  0  0
    9.8278  -16.2285   22.0051 N   0  0  0  0  0  0  0  0  0  0  0  0
   10.9443  -16.0401   22.9030 C   0  0  0  0  0  0  0  0  0  0  0  0
   10.5240  -16.1248   24.3259 C   0  0  0  0  0  0  0  0  0  0  0  0
   11.3999  -16.0689   25.2246 O   0  0  0  0  0  0  0  0  0  0  0  0
    9.1768  -16.2658   24.7086 N   0  0  0  0  0  0  0  0  0  0  0  0
    8.7899  -16.3674   26.1161 C   0  0  1  0  0  0  0  0  0  0  0  0
    7.3924  -15.8140   26.2102 C   0  0  0  0  0  0  0  0  0  0  0  0
    7.3194  -14.3644   26.3828 C   0  0  0  0  0  0  0  0  0  0  0  0
    6.0865  -13.7888   26.6134 C   0  0  0  0  0  0  0  0  0  0  0  0
    5.9748  -12.4101   26.7843 C   0  0  0  0  0  0  0  0  0  0  0  0
    7.0999  -11.6085   26.7238 C   0  0  0  0  0  0  0  0  0  0  0  0
    8.3231  -12.2175   26.4907 C   0  0  0  0  0  0  0  0  0  0  0  0
    8.4477  -13.5780   26.3202 C   0  0  0  0  0  0  0  0  0  0  0  0
    8.9168  -17.7289   26.6264 C   0  0  0  0  0  0  0  0  0  0  0  0
    8.8862  -18.7009   25.8379 O   0  0  0  0  0  0  0  0  0  0  0  0
    9.0727  -17.9894   27.9730 O   0  0  0  0  0  0  0  0  0  0  0  0
  1  2  1  0
  2  3  1  0
  4  3  1  0
  5  4  1  0
  5  1  1  0
  5  6  1  1
  6  7  2  0
  8  6  1  0
  9  8  1  0
  9 10  1  0
 10 12  1  0
 11 10  2  0
 12 13  1  0
 13 14  1  6
 14 15  1  0
 15 20  1  0
 16 15  2  0
 16 17  1  0
 17 18  2  0
 18 19  1  0
 20 19  2  0
 21 13  1  0
 21 23  1  0
 22 21  2  0
M  END
$$$$
