PGF.pdb
     RDKit          3D

 23 24  0  0  1  0  0  0  0  0999 V2000
    8.9002  -14.7888   18.6883 N   0  0  0  0  0  0  0  0  0  0  0  0
    7.5898  -14.5750   18.1429 C   0  0  0  0  0  0  0  0  0  0  0  0
    7.0483  -13.3015   18.7050 C   0  0  0  0  0  0  0  0  0  0  0  0
    8.3045  -12.6522   19.2911 C   0  0  0  0  0  0  0  0  0  0  0  0
    9.0195  -13.8989   19.8281 C   0  0  1  0  0  0  0  0  0  0  0  0
    8.2301  -14.4685   20.9394 C   0  0  0  0  0  0  0  0  0  0  0  0
    7.8821  -13.7747   21.9295 O   0  0  0  0  0  0  0  0  0  0  0  0
    7.8198  -15.8428   20.9459 N   0  0  0  0  0  0  0  0  0  0  0  0
    7.0425  -16.3633   22.0473 C   0  0  0  0  0  0  0  0  0  0  0  0
    7.7917  -16.2932   23.3287 C   0  0  0  0  0  0  0  0  0  0  0  0
    9.0450  -16.3746   23.3073 O   0  0  0  0  0  0  0  0  0  0  0  0
    7.1497  -16.1385   24.5718 N   0  0  0  0  0  0  0  0  0  0  0  0
    7.9001  -16.1707   25.8276 C   0  0  1  0  0  0  0  0  0  0  0  0
    7.0696  -15.4191   26.8343 C   0  0  0  0  0  0  0  0  0  0  0  0
    6.9649  -13.9819   26.5893 C   0  0  0  0  0  0  0  0  0  0  0  0
    5.7087  -13.4175   26.5010 C   0  0  0  0  0  0  0  0  0  0  0  0
    5.5664  -12.0505   26.2694 C   0  0  0  0  0  0  0  0  0  0  0  0
    6.6843  -11.2495   26.1262 C   0  0  0  0  0  0  0  0  0  0  0  0
    7.9315  -11.8470   26.2202 C   0  0  0  0  0  0  0  0  0  0  0  0
    8.0865  -13.1958   26.4487 C   0  0  0  0  0  0  0  0  0  0  0  0
    8.2297  -17.5317   26.2387 C   0  0  0  0  0  0  0  0  0  0  0  0
    9.2288  -17.7449   26.9625 O   0  0  0  0  0  0  0  0  0  0  0  0
    7.4654  -18.6138   25.8513 O   0  0  0  0  0  0  0  0  0  0  0  0
  1  2  1  0
  2  3  1  0
  4  3  1  0
  5  4  1  0
  5  1  1  0
  5  6  1  1
  6  7  2  0
  8  6  1  0
  9  8  1  0
  9 10  1  0
 10 12  1  0
 11 10  2  0
 12 13  1  0
 13 14  1  1
 14 15  1  0
 15 20  1  0
 16 15  2  0
 16 17  1  0
 17 18  2  0
 18 19  1  0
 20 19  2  0
 21 13  1  0
 21 23  1  0
 22 21  2  0
M  END
$$$$
