PGF.pdb
     RDKit          3D

 23 24  0  0  1  0  0  0  0  0999 V2000
    8.4549  -14.6124   17.9269 N   0  0  0  0  0  0  0  0  0  0  0  0
    7.3536  -13.6927   17.9695 C   0  0  0  0  0  0  0  0  0  0  0  0
    7.5926  -12.7235   19.0805 C   0  0  0  0  0  0  0  0  0  0  0  0
    9.0756  -12.9485   19.3863 C   0  0  0  0  0  0  0  0  0  0  0  0
    9.1582  -14.4676   19.1877 C   0  0  1  0  0  0  0  0  0  0  0  0
    8.3616  -15.1366   20.2368 C   0  0  0  0  0  0  0  0  0  0  0  0
    7.2545  -15.6783   19.9847 O   0  0  0  0  0  0  0  0  0  0  0  0
    8.8106  -15.2027   21.5974 N   0  0  0  0  0  0  0  0  0  0  0  0
    8.1913  -16.1241   22.5225 C   0  0  0  0  0  0  0  0  0  0  0  0
    8.7718  -16.0060   23.8853 C   0  0  0  0  0  0  0  0  0  0  0  0
    9.9792  -15.6819   24.0076 O   0  0  0  0  0  0  0  0  0  0  0  0
    8.0188  -16.2441   25.0505 N   0  0  0  0  0  0  0  0  0  0  0  0
    8.6251  -16.1675   26.3800 C   0  0  1  0  0  0  0  0  0  0  0  0
    7.6196  -15.4762   27.2627 C   0  0  0  0  0  0  0  0  0  0  0  0
    7.2418  -14.1340   26.8241 C   0  0  0  0  0  0  0  0  0  0  0  0
    8.1311  -13.0987   27.0282 C   0  0  0  0  0  0  0  0  0  0  0  0
    7.8088  -11.8045   26.6234 C   0  0  0  0  0  0  0  0  0  0  0  0
    6.5944  -11.5488   26.0137 C   0  0  0  0  0  0  0  0  0  0  0  0
    5.7236  -12.6104   25.8234 C   0  0  0  0  0  0  0  0  0  0  0  0
    6.0291  -13.8934   26.2183 C   0  0  0  0  0  0  0  0  0  0  0  0
    9.0371  -17.4772   26.8749 C   0  0  0  0  0  0  0  0  0  0  0  0
    9.6650  -17.5722   27.9539 O   0  0  0  0  0  0  0  0  0  0  0  0
    8.7543  -18.6380   26.1835 O   0  0  0  0  0  0  0  0  0  0  0  0
  1  2  1  0
  2  3  1  0
  4  3  1  0
  5  4  1  0
  5  1  1  0
  5  6  1  1
  6  7  2  0
  8  6  1  0
  9  8  1  0
  9 10  1  0
 10 12  1  0
 11 10  2  0
 12 13  1  0
 13 14  1  1
 14 15  1  0
 15 20  1  0
 16 15  2  0
 16 17  1  0
 17 18  2  0
 18 19  1  0
 20 19  2  0
 21 13  1  0
 21 23  1  0
 22 21  2  0
M  END
$$$$
