PGF.pdb
     RDKit          3D

 23 24  0  0  1  0  0  0  0  0999 V2000
    7.4613  -14.5332   19.2376 N   0  0  0  0  0  0  0  0  0  0  0  0
    6.5941  -13.8813   20.1774 C   0  0  0  0  0  0  0  0  0  0  0  0
    7.3515  -12.7669   20.8219 C   0  0  0  0  0  0  0  0  0  0  0  0
    8.5591  -12.6228   19.8923 C   0  0  0  0  0  0  0  0  0  0  0  0
    8.8089  -14.0983   19.5541 C   0  0  1  0  0  0  0  0  0  0  0  0
    9.2450  -14.8074   20.7745 C   0  0  0  0  0  0  0  0  0  0  0  0
   10.3523  -14.5671   21.3213 O   0  0  0  0  0  0  0  0  0  0  0  0
    8.4273  -15.8068   21.3988 N   0  0  0  0  0  0  0  0  0  0  0  0
    9.0254  -16.7981   22.2636 C   0  0  0  0  0  0  0  0  0  0  0  0
    9.3747  -16.2287   23.5911 C   0  0  0  0  0  0  0  0  0  0  0  0
   10.5397  -15.8000   23.7830 O   0  0  0  0  0  0  0  0  0  0  0  0
    8.4474  -16.1502   24.6471 N   0  0  0  0  0  0  0  0  0  0  0  0
    8.8829  -15.9903   26.0349 C   0  0  1  0  0  0  0  0  0  0  0  0
    7.6829  -15.4963   26.7991 C   0  0  0  0  0  0  0  0  0  0  0  0
    7.3055  -14.1127   26.5164 C   0  0  0  0  0  0  0  0  0  0  0  0
    6.0129  -13.8515   26.1098 C   0  0  0  0  0  0  0  0  0  0  0  0
    5.6133  -12.5455   25.8316 C   0  0  0  0  0  0  0  0  0  0  0  0
    6.5105  -11.5014   25.9612 C   0  0  0  0  0  0  0  0  0  0  0  0
    7.8011  -11.7972   26.3715 C   0  0  0  0  0  0  0  0  0  0  0  0
    8.2090  -13.0824   26.6496 C   0  0  0  0  0  0  0  0  0  0  0  0
    9.4590  -17.2168   26.5772 C   0  0  0  0  0  0  0  0  0  0  0  0
    9.2158  -18.3186   26.0347 O   0  0  0  0  0  0  0  0  0  0  0  0
   10.2782  -17.2063   27.6880 O   0  0  0  0  0  0  0  0  0  0  0  0
  1  2  1  0
  2  3  1  0
  4  3  1  0
  5  4  1  0
  5  1  1  0
  5  6  1  1
  6  7  2  0
  8  6  1  0
  9  8  1  0
  9 10  1  0
 10 12  1  0
 11 10  2  0
 12 13  1  0
 13 14  1  1
 14 15  1  0
 15 20  1  0
 16 15  2  0
 16 17  1  0
 17 18  2  0
 18 19  1  0
 20 19  2  0
 21 13  1  0
 21 23  1  0
 22 21  2  0
M  END
$$$$
