PGF.pdb
     RDKit          3D

 23 24  0  0  1  0  0  0  0  0999 V2000
    8.3472  -14.6797   19.0949 N   0  0  0  0  0  0  0  0  0  0  0  0
    6.9793  -14.2895   19.2871 C   0  0  0  0  0  0  0  0  0  0  0  0
    6.9554  -13.0597   20.1344 C   0  0  0  0  0  0  0  0  0  0  0  0
    8.4133  -12.5978   20.0670 C   0  0  0  0  0  0  0  0  0  0  0  0
    9.1220  -13.9584   20.0872 C   0  0  1  0  0  0  0  0  0  0  0  0
    8.8991  -14.6006   21.3988 C   0  0  0  0  0  0  0  0  0  0  0  0
    9.4285  -14.1600   22.4516 O   0  0  0  0  0  0  0  0  0  0  0  0
    8.0668  -15.7603   21.5388 N   0  0  0  0  0  0  0  0  0  0  0  0
    8.5710  -16.9399   22.2042 C   0  0  0  0  0  0  0  0  0  0  0  0
    8.8595  -16.6793   23.6385 C   0  0  0  0  0  0  0  0  0  0  0  0
   10.0510  -16.7076   24.0355 O   0  0  0  0  0  0  0  0  0  0  0  0
    7.8460  -16.4005   24.5745 N   0  0  0  0  0  0  0  0  0  0  0  0
    8.1220  -16.3668   26.0112 C   0  0  1  0  0  0  0  0  0  0  0  0
    6.9576  -15.6547   26.6476 C   0  0  0  0  0  0  0  0  0  0  0  0
    6.9377  -14.2081   26.4388 C   0  0  0  0  0  0  0  0  0  0  0  0
    8.0920  -13.4910   26.6789 C   0  0  0  0  0  0  0  0  0  0  0  0
    8.1143  -12.1101   26.4907 C   0  0  0  0  0  0  0  0  0  0  0  0
    6.9785  -11.4485   26.0616 C   0  0  0  0  0  0  0  0  0  0  0  0
    5.8356  -12.1976   25.8293 C   0  0  0  0  0  0  0  0  0  0  0  0
    5.7997  -13.5618   26.0112 C   0  0  0  0  0  0  0  0  0  0  0  0
    8.3648  -17.6981   26.5578 C   0  0  0  0  0  0  0  0  0  0  0  0
    7.8654  -18.7047   26.0059 O   0  0  0  0  0  0  0  0  0  0  0  0
    9.1403  -17.8919   27.6832 O   0  0  0  0  0  0  0  0  0  0  0  0
  1  2  1  0
  2  3  1  0
  4  3  1  0
  5  4  1  0
  5  1  1  0
  5  6  1  1
  6  7  2  0
  8  6  1  0
  9  8  1  0
  9 10  1  0
 10 12  1  0
 11 10  2  0
 12 13  1  0
 13 14  1  1
 14 15  1  0
 15 20  1  0
 16 15  2  0
 16 17  1  0
 17 18  2  0
 18 19  1  0
 20 19  2  0
 21 13  1  0
 21 23  1  0
 22 21  2  0
M  END
$$$$
