PGF.pdb
     RDKit          3D

 23 24  0  0  1  0  0  0  0  0999 V2000
    8.9665  -14.8086   18.5125 N   0  0  0  0  0  0  0  0  0  0  0  0
    7.6217  -14.6206   18.0472 C   0  0  0  0  0  0  0  0  0  0  0  0
    7.1136  -13.3244   18.5881 C   0  0  0  0  0  0  0  0  0  0  0  0
    8.4034  -12.6484   19.0599 C   0  0  0  0  0  0  0  0  0  0  0  0
    9.1580  -13.8694   19.6017 C   0  0  1  0  0  0  0  0  0  0  0  0
    8.4471  -14.3907   20.7872 C   0  0  0  0  0  0  0  0  0  0  0  0
    8.0853  -13.6377   21.7279 O   0  0  0  0  0  0  0  0  0  0  0  0
    8.1329  -15.7832   20.9261 N   0  0  0  0  0  0  0  0  0  0  0  0
    7.4259  -16.2551   22.0948 C   0  0  0  0  0  0  0  0  0  0  0  0
    8.2173  -16.0477   23.3354 C   0  0  0  0  0  0  0  0  0  0  0  0
    9.4323  -15.7437   23.2396 O   0  0  0  0  0  0  0  0  0  0  0  0
    7.6568  -16.1791   24.6198 N   0  0  0  0  0  0  0  0  0  0  0  0
    8.4711  -16.0313   25.8266 C   0  0  1  0  0  0  0  0  0  0  0  0
    7.5565  -15.4773   26.8871 C   0  0  0  0  0  0  0  0  0  0  0  0
    7.1991  -14.0708   26.7120 C   0  0  0  0  0  0  0  0  0  0  0  0
    5.8673  -13.7425   26.5609 C   0  0  0  0  0  0  0  0  0  0  0  0
    5.4854  -12.4126   26.3926 C   0  0  0  0  0  0  0  0  0  0  0  0
    6.4395  -11.4120   26.3758 C   0  0  0  0  0  0  0  0  0  0  0  0
    7.7684  -11.7749   26.5302 C   0  0  0  0  0  0  0  0  0  0  0  0
    8.1595  -13.0843   26.6973 C   0  0  0  0  0  0  0  0  0  0  0  0
    9.1230  -17.2799   26.2087 C   0  0  0  0  0  0  0  0  0  0  0  0
    8.6954  -18.3719   25.7703 O   0  0  0  0  0  0  0  0  0  0  0  0
   10.2154  -17.3016   27.0522 O   0  0  0  0  0  0  0  0  0  0  0  0
  1  2  1  0
  2  3  1  0
  4  3  1  0
  5  4  1  0
  5  1  1  0
  5  6  1  1
  6  7  2  0
  8  6  1  0
  9  8  1  0
  9 10  1  0
 10 12  1  0
 11 10  2  0
 12 13  1  0
 13 14  1  1
 14 15  1  0
 15 20  1  0
 16 15  2  0
 16 17  1  0
 17 18  2  0
 18 19  1  0
 20 19  2  0
 21 13  1  0
 21 23  1  0
 22 21  2  0
M  END
$$$$
