PGF.pdb
     RDKit          3D

 23 24  0  0  1  0  0  0  0  0999 V2000
    9.1615  -14.8800   18.9262 N   0  0  0  0  0  0  0  0  0  0  0  0
    7.9369  -14.7464   18.1896 C   0  0  0  0  0  0  0  0  0  0  0  0
    7.2733  -13.4749   18.6066 C   0  0  0  0  0  0  0  0  0  0  0  0
    8.4067  -12.7476   19.3342 C   0  0  0  0  0  0  0  0  0  0  0  0
    9.0819  -13.9383   20.0272 C   0  0  1  0  0  0  0  0  0  0  0  0
    8.1616  -14.4940   21.0405 C   0  0  0  0  0  0  0  0  0  0  0  0
    7.4931  -13.7531   21.8066 O   0  0  0  0  0  0  0  0  0  0  0  0
    7.9831  -15.9079   21.2024 N   0  0  0  0  0  0  0  0  0  0  0  0
    7.2290  -16.4210   22.3232 C   0  0  0  0  0  0  0  0  0  0  0  0
    7.9756  -16.2745   23.5997 C   0  0  0  0  0  0  0  0  0  0  0  0
    9.1948  -15.9744   23.5617 O   0  0  0  0  0  0  0  0  0  0  0  0
    7.3680  -16.4596   24.8558 N   0  0  0  0  0  0  0  0  0  0  0  0
    8.1373  -16.3658   26.0970 C   0  0  1  0  0  0  0  0  0  0  0  0
    7.2564  -15.6489   27.0859 C   0  0  0  0  0  0  0  0  0  0  0  0
    7.1098  -14.2144   26.8462 C   0  0  0  0  0  0  0  0  0  0  0  0
    8.2417  -13.4251   26.8551 C   0  0  0  0  0  0  0  0  0  0  0  0
    8.1443  -12.0531   26.6298 C   0  0  0  0  0  0  0  0  0  0  0  0
    6.9113  -11.4728   26.3955 C   0  0  0  0  0  0  0  0  0  0  0  0
    5.7939  -12.2931   26.3932 C   0  0  0  0  0  0  0  0  0  0  0  0
    5.8758  -13.6495   26.6142 C   0  0  0  0  0  0  0  0  0  0  0  0
    8.5980  -17.6708   26.5606 C   0  0  0  0  0  0  0  0  0  0  0  0
    8.0545  -18.7160   26.1367 O   0  0  0  0  0  0  0  0  0  0  0  0
    9.6312  -17.7974   27.4670 O   0  0  0  0  0  0  0  0  0  0  0  0
  1  2  1  0
  2  3  1  0
  4  3  1  0
  5  4  1  0
  5  1  1  0
  5  6  1  1
  6  7  2  0
  8  6  1  0
  9  8  1  0
  9 10  1  0
 10 12  1  0
 11 10  2  0
 12 13  1  0
 13 14  1  1
 14 15  1  0
 15 20  1  0
 16 15  2  0
 16 17  1  0
 17 18  2  0
 18 19  1  0
 20 19  2  0
 21 13  1  0
 21 23  1  0
 22 21  2  0
M  END
$$$$
