PGF.pdb
     RDKit          3D

 23 24  0  0  1  0  0  0  0  0999 V2000
    8.0375  -14.6501   19.0274 N   0  0  0  0  0  0  0  0  0  0  0  0
    6.7756  -14.1439   19.4875 C   0  0  0  0  0  0  0  0  0  0  0  0
    7.0156  -12.8451   20.1851 C   0  0  0  0  0  0  0  0  0  0  0  0
    8.4381  -12.5006   19.7366 C   0  0  0  0  0  0  0  0  0  0  0  0
    9.0607  -13.9028   19.7345 C   0  0  1  0  0  0  0  0  0  0  0  0
    9.1211  -14.4075   21.1216 C   0  0  0  0  0  0  0  0  0  0  0  0
    9.8866  -13.8978   21.9801 O   0  0  0  0  0  0  0  0  0  0  0  0
    8.3092  -15.5053   21.5606 N   0  0  0  0  0  0  0  0  0  0  0  0
    8.9117  -16.6248   22.2477 C   0  0  0  0  0  0  0  0  0  0  0  0
    9.3082  -16.2682   23.6347 C   0  0  0  0  0  0  0  0  0  0  0  0
   10.5052  -15.9669   23.8681 O   0  0  0  0  0  0  0  0  0  0  0  0
    8.3915  -16.2543   24.7026 N   0  0  0  0  0  0  0  0  0  0  0  0
    8.8357  -16.0965   26.0879 C   0  0  1  0  0  0  0  0  0  0  0  0
    7.6603  -15.5390   26.8467 C   0  0  0  0  0  0  0  0  0  0  0  0
    7.3141  -14.1594   26.5099 C   0  0  0  0  0  0  0  0  0  0  0  0
    8.2012  -13.1564   26.8438 C   0  0  0  0  0  0  0  0  0  0  0  0
    7.9085  -11.8282   26.5390 C   0  0  0  0  0  0  0  0  0  0  0  0
    6.7258  -11.5061   25.8992 C   0  0  0  0  0  0  0  0  0  0  0  0
    5.8563  -12.5366   25.5775 C   0  0  0  0  0  0  0  0  0  0  0  0
    6.1329  -13.8526   25.8726 C   0  0  0  0  0  0  0  0  0  0  0  0
    9.3567  -17.3406   26.6455 C   0  0  0  0  0  0  0  0  0  0  0  0
    9.0758  -18.4361   26.1083 O   0  0  0  0  0  0  0  0  0  0  0  0
   10.1636  -17.3541   27.7653 O   0  0  0  0  0  0  0  0  0  0  0  0
  1  2  1  0
  2  3  1  0
  4  3  1  0
  5  4  1  0
  5  1  1  0
  5  6  1  1
  6  7  2  0
  8  6  1  0
  9  8  1  0
  9 10  1  0
 10 12  1  0
 11 10  2  0
 12 13  1  0
 13 14  1  1
 14 15  1  0
 15 20  1  0
 16 15  2  0
 16 17  1  0
 17 18  2  0
 18 19  1  0
 20 19  2  0
 21 13  1  0
 21 23  1  0
 22 21  2  0
M  END
$$$$
