QQC.pdb
     RDKit          3D

 25 24  0  0  1  0  0  0  0  0999 V2000
   14.4005  -15.6568   19.2675 N   0  0  0  0  0  0  0  0  0  0  0  0
   13.3349  -14.7262   19.2460 C   0  0  0  0  0  0  0  0  0  0  0  0
   13.4488  -13.5868   19.7124 O   0  0  0  0  0  0  0  0  0  0  0  0
   12.0359  -15.1692   18.6286 C   0  0  0  0  0  0  0  0  0  0  0  0
   10.9792  -15.0991   19.6846 C   0  0  0  0  0  0  0  0  0  0  0  0
   10.4722  -16.4169   20.1584 C   0  0  2  0  0  0  0  0  0  0  0  0
    9.5706  -16.8845   19.0740 N   0  0  0  0  0  0  0  0  0  0  0  0
    9.6711  -16.4046   21.3840 C   0  0  0  0  0  0  0  0  0  0  0  0
    8.4042  -16.2166   21.3124 O   0  0  0  0  0  0  0  0  0  0  0  0
   11.1161  -19.3080   26.5637 N   0  0  0  0  0  0  0  0  0  0  0  0
    9.9880  -18.5922   27.0322 C   0  0  0  0  0  0  0  0  0  0  0  0
    9.6232  -18.7535   28.2143 O   0  0  0  0  0  0  0  0  0  0  0  0
    9.2583  -17.6800   26.1467 C   0  0  0  0  0  0  0  0  0  0  0  0
    9.9156  -17.5699   24.8295 C   0  0  0  0  0  0  0  0  0  0  0  0
    9.2376  -16.5843   23.8585 C   0  0  2  0  0  0  0  0  0  0  0  0
   10.1330  -16.5865   22.7110 N   0  0  0  0  0  0  0  0  0  0  0  0
    9.0420  -15.2823   24.4874 C   0  0  0  0  0  0  0  0  0  0  0  0
   10.0226  -14.5191   24.7013 O   0  0  0  0  0  0  0  0  0  0  0  0
    7.7764  -14.7866   24.8937 N   0  0  0  0  0  0  0  0  0  0  0  0
    7.6431  -13.4766   25.5375 C   0  0  1  0  0  0  0  0  0  0  0  0
    6.1667  -13.1146   25.5271 C   0  0  0  0  0  0  0  0  0  0  0  0
    5.9960  -11.5257   26.3702 S   0  0  0  0  0  0  0  0  0  0  0  0
    8.1823  -13.4958   26.9064 C   0  0  0  0  0  0  0  0  0  0  0  0
    8.4853  -12.4301   27.4910 O   0  0  0  0  0  0  0  0  0  0  0  0
    8.3677  -14.6870   27.5808 O   0  0  0  0  0  0  0  0  0  0  0  0
  1  2  1  0
  2  4  1  0
  3  2  2  0
  4  5  1  0
  6  5  1  0
  6  8  1  0
  6  7  1  6
  8  9  2  0
 10 11  1  0
 11 12  2  0
 11 13  1  0
 13 14  1  0
 15 14  1  1
 15 17  1  0
 16 15  1  0
 16  8  1  0
 17 19  1  0
 17 18  2  0
 19 20  1  0
 20 23  1  0
 20 21  1  1
 22 21  1  0
 23 24  2  0
 23 25  1  0
M  END
$$$$
