QQC.pdb
     RDKit          3D

 25 24  0  0  1  0  0  0  0  0999 V2000
   10.4808  -14.0151   17.4626 N   0  0  0  0  0  0  0  0  0  0  0  0
    9.7560  -13.0413   18.1897 C   0  0  0  0  0  0  0  0  0  0  0  0
   10.3194  -12.1506   18.8361 O   0  0  0  0  0  0  0  0  0  0  0  0
    8.2536  -13.1210   18.1538 C   0  0  0  0  0  0  0  0  0  0  0  0
    7.7861  -13.5673   19.5025 C   0  0  0  0  0  0  0  0  0  0  0  0
    8.2366  -14.9277   19.9081 C   0  0  2  0  0  0  0  0  0  0  0  0
    7.4198  -15.8553   19.0836 N   0  0  0  0  0  0  0  0  0  0  0  0
    8.0026  -15.3023   21.3042 C   0  0  0  0  0  0  0  0  0  0  0  0
    6.8015  -15.4584   21.7268 O   0  0  0  0  0  0  0  0  0  0  0  0
   10.5107  -19.5842   24.6569 N   0  0  0  0  0  0  0  0  0  0  0  0
   10.3675  -19.2138   23.2979 C   0  0  0  0  0  0  0  0  0  0  0  0
   10.9542  -19.8875   22.4270 O   0  0  0  0  0  0  0  0  0  0  0  0
    9.5480  -18.0593   22.9180 C   0  0  0  0  0  0  0  0  0  0  0  0
    9.4834  -17.0648   24.0071 C   0  0  0  0  0  0  0  0  0  0  0  0
    8.6299  -15.8227   23.6872 C   0  0  2  0  0  0  0  0  0  0  0  0
    8.9792  -15.5322   22.3045 N   0  0  0  0  0  0  0  0  0  0  0  0
    8.9007  -14.7449   24.6329 C   0  0  0  0  0  0  0  0  0  0  0  0
   10.0243  -14.1728   24.6493 O   0  0  0  0  0  0  0  0  0  0  0  0
    7.9542  -14.2692   25.5764 N   0  0  0  0  0  0  0  0  0  0  0  0
    8.3016  -13.2217   26.5410 C   0  0  1  0  0  0  0  0  0  0  0  0
    7.1451  -12.2357   26.5753 C   0  0  0  0  0  0  0  0  0  0  0  0
    5.7315  -13.0892   27.3087 S   0  0  0  0  0  0  0  0  0  0  0  0
    8.5654  -13.7874   27.8735 C   0  0  0  0  0  0  0  0  0  0  0  0
    8.3248  -14.9923   28.1173 O   0  0  0  0  0  0  0  0  0  0  0  0
    9.0840  -13.0060   28.8876 O   0  0  0  0  0  0  0  0  0  0  0  0
  1  2  1  0
  2  4  1  0
  3  2  2  0
  4  5  1  0
  6  5  1  0
  6  8  1  0
  6  7  1  6
  8  9  2  0
 10 11  1  0
 11 12  2  0
 11 13  1  0
 13 14  1  0
 15 14  1  1
 15 17  1  0
 16 15  1  0
 16  8  1  0
 17 19  1  0
 17 18  2  0
 19 20  1  0
 20 23  1  0
 20 21  1  1
 22 21  1  0
 23 24  2  0
 23 25  1  0
M  END
$$$$
