QQC.pdb
     RDKit          3D

 25 24  0  0  1  0  0  0  0  0999 V2000
    7.3998  -22.8643   21.2712 N   0  0  0  0  0  0  0  0  0  0  0  0
    8.5911  -22.2516   21.7267 C   0  0  0  0  0  0  0  0  0  0  0  0
    9.7091  -22.6725   21.4081 O   0  0  0  0  0  0  0  0  0  0  0  0
    8.4574  -21.0521   22.6258 C   0  0  0  0  0  0  0  0  0  0  0  0
    9.3888  -19.9960   22.1221 C   0  0  0  0  0  0  0  0  0  0  0  0
    8.7322  -18.8583   21.4201 C   0  0  2  0  0  0  0  0  0  0  0  0
    8.9941  -19.1047   19.9785 N   0  0  0  0  0  0  0  0  0  0  0  0
    9.2564  -17.5226   21.7119 C   0  0  0  0  0  0  0  0  0  0  0  0
   10.5006  -17.3753   21.9875 O   0  0  0  0  0  0  0  0  0  0  0  0
    7.0373  -12.4188   19.4066 N   0  0  0  0  0  0  0  0  0  0  0  0
    7.7360  -13.5067   18.8298 C   0  0  0  0  0  0  0  0  0  0  0  0
    7.6397  -13.6981   17.6007 O   0  0  0  0  0  0  0  0  0  0  0  0
    8.5560  -14.3950   19.6586 C   0  0  0  0  0  0  0  0  0  0  0  0
    8.4456  -14.0482   21.0893 C   0  0  0  0  0  0  0  0  0  0  0  0
    9.1603  -15.0274   22.0402 C   0  0  2  0  0  0  0  0  0  0  0  0
    8.5345  -16.3037   21.7274 N   0  0  0  0  0  0  0  0  0  0  0  0
    9.0282  -14.5979   23.4285 C   0  0  0  0  0  0  0  0  0  0  0  0
    9.6611  -13.5930   23.8523 O   0  0  0  0  0  0  0  0  0  0  0  0
    8.2045  -15.2526   24.3801 N   0  0  0  0  0  0  0  0  0  0  0  0
    8.1711  -14.8232   25.7811 C   0  0  1  0  0  0  0  0  0  0  0  0
    6.7151  -14.5837   26.1470 C   0  0  0  0  0  0  0  0  0  0  0  0
    6.2874  -12.9185   25.5916 S   0  0  0  0  0  0  0  0  0  0  0  0
    8.7891  -15.8259   26.6630 C   0  0  0  0  0  0  0  0  0  0  0  0
    9.2456  -16.8952   26.1967 O   0  0  0  0  0  0  0  0  0  0  0  0
    8.8815  -15.6143   28.0249 O   0  0  0  0  0  0  0  0  0  0  0  0
  1  2  1  0
  2  4  1  0
  3  2  2  0
  4  5  1  0
  6  5  1  0
  6  8  1  0
  6  7  1  6
  8  9  2  0
 10 11  1  0
 11 12  2  0
 11 13  1  0
 13 14  1  0
 15 14  1  6
 15 17  1  0
 16 15  1  0
 16  8  1  0
 17 19  1  0
 17 18  2  0
 19 20  1  0
 20 23  1  0
 20 21  1  1
 22 21  1  0
 23 24  2  0
 23 25  1  0
M  END
$$$$
