QQC.pdb
     RDKit          3D

 25 24  0  0  1  0  0  0  0  0999 V2000
    6.7080  -19.5490   27.0513 N   0  0  0  0  0  0  0  0  0  0  0  0
    6.1224  -20.5829   26.2831 C   0  0  0  0  0  0  0  0  0  0  0  0
    5.4415  -21.4778   26.7973 O   0  0  0  0  0  0  0  0  0  0  0  0
    6.3551  -20.5631   24.7963 C   0  0  0  0  0  0  0  0  0  0  0  0
    7.1936  -19.3658   24.4798 C   0  0  0  0  0  0  0  0  0  0  0  0
    6.9066  -18.7239   23.1669 C   0  0  2  0  0  0  0  0  0  0  0  0
    7.0254  -19.8250   22.1764 N   0  0  0  0  0  0  0  0  0  0  0  0
    7.8372  -17.6790   22.7352 C   0  0  0  0  0  0  0  0  0  0  0  0
    9.0193  -17.9997   22.3539 O   0  0  0  0  0  0  0  0  0  0  0  0
    7.1519  -12.3419   19.8917 N   0  0  0  0  0  0  0  0  0  0  0  0
    7.3216  -13.6545   19.3890 C   0  0  0  0  0  0  0  0  0  0  0  0
    6.9943  -13.8925   18.2089 O   0  0  0  0  0  0  0  0  0  0  0  0
    7.8690  -14.7172   20.2374 C   0  0  0  0  0  0  0  0  0  0  0  0
    8.0767  -14.2463   21.6211 C   0  0  0  0  0  0  0  0  0  0  0  0
    8.6633  -15.3052   22.5742 C   0  0  2  0  0  0  0  0  0  0  0  0
    7.5917  -16.2849   22.6751 N   0  0  0  0  0  0  0  0  0  0  0  0
    9.0703  -14.7018   23.8388 C   0  0  0  0  0  0  0  0  0  0  0  0
    9.3039  -13.4649   23.9139 O   0  0  0  0  0  0  0  0  0  0  0  0
    9.2293  -15.4323   25.0445 N   0  0  0  0  0  0  0  0  0  0  0  0
    9.5119  -14.7548   26.3132 C   0  0  1  0  0  0  0  0  0  0  0  0
    8.2831  -13.9352   26.6727 C   0  0  0  0  0  0  0  0  0  0  0  0
    8.5921  -13.1806   28.2850 S   0  0  0  0  0  0  0  0  0  0  0  0
    9.8431  -15.7201   27.3731 C   0  0  0  0  0  0  0  0  0  0  0  0
   10.2342  -15.3289   28.4970 O   0  0  0  0  0  0  0  0  0  0  0  0
    9.7315  -17.0799   27.1565 O   0  0  0  0  0  0  0  0  0  0  0  0
  1  2  1  0
  2  4  1  0
  3  2  2  0
  4  5  1  0
  6  5  1  0
  6  8  1  0
  6  7  1  6
  8  9  2  0
 10 11  1  0
 11 12  2  0
 11 13  1  0
 13 14  1  0
 15 14  1  6
 15 17  1  0
 16 15  1  0
 16  8  1  0
 17 19  1  0
 17 18  2  0
 19 20  1  0
 20 23  1  0
 20 21  1  1
 22 21  1  0
 23 24  2  0
 23 25  1  0
M  END
$$$$
