QQC.pdb
     RDKit          3D

 25 24  0  0  1  0  0  0  0  0999 V2000
    7.0207  -12.0993   19.4433 N   0  0  0  0  0  0  0  0  0  0  0  0
    7.1852  -13.4036   19.9665 C   0  0  0  0  0  0  0  0  0  0  0  0
    6.6127  -13.7743   20.9977 O   0  0  0  0  0  0  0  0  0  0  0  0
    8.0924  -14.3440   19.2198 C   0  0  0  0  0  0  0  0  0  0  0  0
    8.6019  -13.6260   18.0109 C   0  0  0  0  0  0  0  0  0  0  0  0
    9.5918  -14.3848   17.1969 C   0  0  2  0  0  0  0  0  0  0  0  0
    8.8037  -15.4763   16.5686 N   0  0  0  0  0  0  0  0  0  0  0  0
   10.6801  -15.0325   17.9319 C   0  0  0  0  0  0  0  0  0  0  0  0
   10.5336  -16.2350   18.3537 O   0  0  0  0  0  0  0  0  0  0  0  0
   16.6508  -13.4608   17.9294 N   0  0  0  0  0  0  0  0  0  0  0  0
   16.6599  -14.4552   18.9373 C   0  0  0  0  0  0  0  0  0  0  0  0
   17.7364  -14.7200   19.5096 O   0  0  0  0  0  0  0  0  0  0  0  0
   15.4298  -15.1641   19.3019 C   0  0  0  0  0  0  0  0  0  0  0  0
   14.2387  -14.4966   18.7408 C   0  0  0  0  0  0  0  0  0  0  0  0
   12.8996  -15.1600   19.1154 C   0  0  2  0  0  0  0  0  0  0  0  0
   11.9443  -14.4796   18.2535 N   0  0  0  0  0  0  0  0  0  0  0  0
   12.6380  -15.0378   20.5457 C   0  0  0  0  0  0  0  0  0  0  0  0
   12.9355  -13.9802   21.1645 O   0  0  0  0  0  0  0  0  0  0  0  0
   12.0470  -16.0630   21.3283 N   0  0  0  0  0  0  0  0  0  0  0  0
   11.8857  -15.9167   22.7777 C   0  0  1  0  0  0  0  0  0  0  0  0
   10.4994  -16.4292   23.1333 C   0  0  0  0  0  0  0  0  0  0  0  0
    9.3007  -15.3229   22.3562 S   0  0  0  0  0  0  0  0  0  0  0  0
   12.9328  -16.6472   23.5091 C   0  0  0  0  0  0  0  0  0  0  0  0
   13.7325  -17.3979   22.9039 O   0  0  0  0  0  0  0  0  0  0  0  0
   13.0608  -16.5241   24.8790 O   0  0  0  0  0  0  0  0  0  0  0  0
  1  2  1  0
  2  4  1  0
  3  2  2  0
  4  5  1  0
  6  5  1  0
  6  8  1  0
  6  7  1  1
  8  9  2  0
 10 11  1  0
 11 12  2  0
 11 13  1  0
 13 14  1  0
 15 14  1  1
 15 17  1  0
 16 15  1  0
 16  8  1  0
 17 19  1  0
 17 18  2  0
 19 20  1  0
 20 23  1  0
 20 21  1  1
 22 21  1  0
 23 24  2  0
 23 25  1  0
M  END
$$$$
