QQC.pdb
     RDKit          3D

 25 24  0  0  1  0  0  0  0  0999 V2000
   10.0796  -18.4983   15.9138 N   0  0  0  0  0  0  0  0  0  0  0  0
    9.8068  -19.0294   17.1966 C   0  0  0  0  0  0  0  0  0  0  0  0
    8.6586  -19.3077   17.5613 O   0  0  0  0  0  0  0  0  0  0  0  0
   10.9734  -19.2503   18.1214 C   0  0  0  0  0  0  0  0  0  0  0  0
   12.2148  -18.8289   17.4017 C   0  0  0  0  0  0  0  0  0  0  0  0
   13.4832  -19.0457   18.1515 C   0  0  2  0  0  0  0  0  0  0  0  0
   13.5872  -20.5208   18.2953 N   0  0  0  0  0  0  0  0  0  0  0  0
   13.5413  -18.4943   19.5068 C   0  0  0  0  0  0  0  0  0  0  0  0
   13.7374  -17.2375   19.6728 O   0  0  0  0  0  0  0  0  0  0  0  0
   12.3699  -21.6389   24.7457 N   0  0  0  0  0  0  0  0  0  0  0  0
   12.5735  -20.3418   25.2754 C   0  0  0  0  0  0  0  0  0  0  0  0
   12.3930  -20.1565   26.4959 O   0  0  0  0  0  0  0  0  0  0  0  0
   12.9861  -19.2343   24.4083 C   0  0  0  0  0  0  0  0  0  0  0  0
   13.1414  -19.6772   23.0086 C   0  0  0  0  0  0  0  0  0  0  0  0
   13.5309  -18.5575   22.0245 C   0  0  2  0  0  0  0  0  0  0  0  0
   13.3979  -19.2014   20.7261 N   0  0  0  0  0  0  0  0  0  0  0  0
   14.8614  -18.0383   22.3237 C   0  0  0  0  0  0  0  0  0  0  0  0
   15.7949  -18.1422   21.4825 O   0  0  0  0  0  0  0  0  0  0  0  0
   15.2000  -17.3958   23.5424 N   0  0  0  0  0  0  0  0  0  0  0  0
   16.3451  -16.4851   23.6300 C   0  0  1  0  0  0  0  0  0  0  0  0
   16.1285  -15.3847   22.6038 C   0  0  0  0  0  0  0  0  0  0  0  0
   17.5222  -14.2427   22.7368 S   0  0  0  0  0  0  0  0  0  0  0  0
   16.4880  -15.9342   24.9869 C   0  0  0  0  0  0  0  0  0  0  0  0
   15.4801  -15.6134   25.6579 O   0  0  0  0  0  0  0  0  0  0  0  0
   17.7349  -15.7571   25.5546 O   0  0  0  0  0  0  0  0  0  0  0  0
  1  2  1  0
  2  4  1  0
  3  2  2  0
  4  5  1  0
  6  5  1  0
  6  8  1  0
  6  7  1  1
  8  9  2  0
 10 11  1  0
 11 12  2  0
 11 13  1  0
 13 14  1  0
 15 14  1  1
 15 17  1  0
 16 15  1  0
 16  8  1  0
 17 19  1  0
 17 18  2  0
 19 20  1  0
 20 23  1  0
 20 21  1  6
 22 21  1  0
 23 24  2  0
 23 25  1  0
M  END
$$$$
