QQC.pdb
     RDKit          3D

 25 24  0  0  1  0  0  0  0  0999 V2000
    8.8113  -12.2904   18.1540 N   0  0  0  0  0  0  0  0  0  0  0  0
    7.8803  -13.1300   17.4978 C   0  0  0  0  0  0  0  0  0  0  0  0
    7.5051  -12.9149   16.3395 O   0  0  0  0  0  0  0  0  0  0  0  0
    7.3500  -14.3129   18.2622 C   0  0  0  0  0  0  0  0  0  0  0  0
    8.4549  -14.8335   19.1252 C   0  0  0  0  0  0  0  0  0  0  0  0
    9.5454  -15.5393   18.3966 C   0  0  2  0  0  0  0  0  0  0  0  0
    8.9173  -16.7912   17.9011 N   0  0  0  0  0  0  0  0  0  0  0  0
   10.7041  -15.9468   19.1937 C   0  0  0  0  0  0  0  0  0  0  0  0
   10.6747  -17.0576   19.8347 O   0  0  0  0  0  0  0  0  0  0  0  0
   16.9574  -14.2871   18.9084 N   0  0  0  0  0  0  0  0  0  0  0  0
   15.8374  -14.3832   18.0476 C   0  0  0  0  0  0  0  0  0  0  0  0
   15.8524  -13.7539   16.9704 O   0  0  0  0  0  0  0  0  0  0  0  0
   14.6791  -15.2037   18.4133 C   0  0  0  0  0  0  0  0  0  0  0  0
   14.2026  -14.8842   19.7735 C   0  0  0  0  0  0  0  0  0  0  0  0
   12.9857  -15.7096   20.2336 C   0  0  2  0  0  0  0  0  0  0  0  0
   11.9220  -15.2416   19.3573 N   0  0  0  0  0  0  0  0  0  0  0  0
   12.7380  -15.5249   21.6597 C   0  0  0  0  0  0  0  0  0  0  0  0
   12.4978  -14.3783   22.1261 O   0  0  0  0  0  0  0  0  0  0  0  0
   12.7457  -16.5840   22.6036 N   0  0  0  0  0  0  0  0  0  0  0  0
   12.0333  -16.4714   23.8795 C   0  0  1  0  0  0  0  0  0  0  0  0
   10.5748  -16.1851   23.5605 C   0  0  0  0  0  0  0  0  0  0  0  0
    9.6935  -16.0638   25.1331 S   0  0  0  0  0  0  0  0  0  0  0  0
   12.1776  -17.6957   24.6828 C   0  0  0  0  0  0  0  0  0  0  0  0
   12.0008  -18.8242   24.1686 O   0  0  0  0  0  0  0  0  0  0  0  0
   12.5111  -17.6322   26.0219 O   0  0  0  0  0  0  0  0  0  0  0  0
  1  2  1  0
  2  4  1  0
  3  2  2  0
  4  5  1  0
  6  5  1  0
  6  8  1  0
  6  7  1  1
  8  9  2  0
 10 11  1  0
 11 12  2  0
 11 13  1  0
 13 14  1  0
 15 14  1  6
 15 17  1  0
 16 15  1  0
 16  8  1  0
 17 19  1  0
 17 18  2  0
 19 20  1  0
 20 23  1  0
 20 21  1  6
 22 21  1  0
 23 24  2  0
 23 25  1  0
M  END
$$$$
