QQC.pdb
     RDKit          3D

 25 24  0  0  1  0  0  0  0  0999 V2000
   13.0291  -14.3343   20.2834 N   0  0  0  0  0  0  0  0  0  0  0  0
   12.5323  -13.7338   19.1024 C   0  0  0  0  0  0  0  0  0  0  0  0
   13.2737  -13.4175   18.1648 O   0  0  0  0  0  0  0  0  0  0  0  0
   11.0503  -13.4864   19.0173 C   0  0  0  0  0  0  0  0  0  0  0  0
   10.3606  -14.5648   19.7906 C   0  0  0  0  0  0  0  0  0  0  0  0
    8.8728  -14.4969   19.7786 C   0  0  2  0  0  0  0  0  0  0  0  0
    8.5632  -13.1272   19.2932 N   0  0  0  0  0  0  0  0  0  0  0  0
    8.2037  -14.6365   21.0735 C   0  0  0  0  0  0  0  0  0  0  0  0
    7.7816  -13.5913   21.6858 O   0  0  0  0  0  0  0  0  0  0  0  0
    7.3133  -20.0068   24.0803 N   0  0  0  0  0  0  0  0  0  0  0  0
    6.8273  -19.1040   25.0567 C   0  0  0  0  0  0  0  0  0  0  0  0
    6.4428  -19.5563   26.1540 O   0  0  0  0  0  0  0  0  0  0  0  0
    6.7730  -17.6645   24.7856 C   0  0  0  0  0  0  0  0  0  0  0  0
    7.2312  -17.3582   23.4161 C   0  0  0  0  0  0  0  0  0  0  0  0
    7.3299  -15.8540   23.0977 C   0  0  2  0  0  0  0  0  0  0  0  0
    7.9420  -15.8379   21.7773 N   0  0  0  0  0  0  0  0  0  0  0  0
    8.0767  -15.1485   24.1339 C   0  0  0  0  0  0  0  0  0  0  0  0
    9.3360  -15.0968   24.0949 O   0  0  0  0  0  0  0  0  0  0  0  0
    7.4673  -14.4855   25.2301 N   0  0  0  0  0  0  0  0  0  0  0  0
    8.2641  -13.7295   26.2007 C   0  0  1  0  0  0  0  0  0  0  0  0
    7.3866  -12.6071   26.7311 C   0  0  0  0  0  0  0  0  0  0  0  0
    5.8662  -13.3601   27.3524 S   0  0  0  0  0  0  0  0  0  0  0  0
    8.7451  -14.5956   27.2885 C   0  0  0  0  0  0  0  0  0  0  0  0
    8.3782  -15.7909   27.3660 O   0  0  0  0  0  0  0  0  0  0  0  0
    9.6118  -14.1140   28.2503 O   0  0  0  0  0  0  0  0  0  0  0  0
  1  2  1  0
  2  4  1  0
  3  2  2  0
  4  5  1  0
  6  5  1  0
  6  8  1  0
  6  7  1  1
  8  9  2  0
 10 11  1  0
 11 12  2  0
 11 13  1  0
 13 14  1  0
 15 14  1  1
 15 17  1  0
 16 15  1  0
 16  8  1  0
 17 19  1  0
 17 18  2  0
 19 20  1  0
 20 23  1  0
 20 21  1  1
 22 21  1  0
 23 24  2  0
 23 25  1  0
M  END
$$$$
