QQC.pdb
     RDKit          3D

 25 24  0  0  1  0  0  0  0  0999 V2000
    8.3914  -12.7337   18.3358 N   0  0  0  0  0  0  0  0  0  0  0  0
    8.3252  -13.8696   17.4946 C   0  0  0  0  0  0  0  0  0  0  0  0
    8.5983  -13.8113   16.2901 O   0  0  0  0  0  0  0  0  0  0  0  0
    7.9060  -15.1738   18.1176 C   0  0  0  0  0  0  0  0  0  0  0  0
    7.7023  -14.9384   19.5804 C   0  0  0  0  0  0  0  0  0  0  0  0
    7.8614  -16.1431   20.4414 C   0  0  2  0  0  0  0  0  0  0  0  0
    7.1023  -17.2099   19.7390 N   0  0  0  0  0  0  0  0  0  0  0  0
    7.2998  -16.0582   21.7911 C   0  0  0  0  0  0  0  0  0  0  0  0
    6.1062  -15.6180   21.9554 O   0  0  0  0  0  0  0  0  0  0  0  0
    7.8203  -19.9001   26.2326 N   0  0  0  0  0  0  0  0  0  0  0  0
    6.8036  -19.7838   25.2542 C   0  0  0  0  0  0  0  0  0  0  0  0
    6.0833  -20.7743   25.0161 O   0  0  0  0  0  0  0  0  0  0  0  0
    6.6000  -18.5254   24.5306 C   0  0  0  0  0  0  0  0  0  0  0  0
    7.4681  -17.4551   25.0598 C   0  0  0  0  0  0  0  0  0  0  0  0
    7.3586  -16.1145   24.3083 C   0  0  2  0  0  0  0  0  0  0  0  0
    7.9318  -16.4210   23.0061 N   0  0  0  0  0  0  0  0  0  0  0  0
    8.0291  -15.0471   25.0433 C   0  0  0  0  0  0  0  0  0  0  0  0
    9.2864  -14.9513   25.0311 O   0  0  0  0  0  0  0  0  0  0  0  0
    7.3445  -14.0643   25.8034 N   0  0  0  0  0  0  0  0  0  0  0  0
    8.0739  -13.0797   26.6077 C   0  0  1  0  0  0  0  0  0  0  0  0
    7.1807  -11.8575   26.7474 C   0  0  0  0  0  0  0  0  0  0  0  0
    5.6128  -12.4143   27.4518 S   0  0  0  0  0  0  0  0  0  0  0  0
    8.4420  -13.6295   27.9219 C   0  0  0  0  0  0  0  0  0  0  0  0
    8.0216  -14.7513   28.2880 O   0  0  0  0  0  0  0  0  0  0  0  0
    9.2591  -12.9243   28.7840 O   0  0  0  0  0  0  0  0  0  0  0  0
  1  2  1  0
  2  4  1  0
  3  2  2  0
  4  5  1  0
  6  5  1  0
  6  8  1  0
  6  7  1  6
  8  9  2  0
 10 11  1  0
 11 12  2  0
 11 13  1  0
 13 14  1  0
 15 14  1  1
 15 17  1  0
 16 15  1  0
 16  8  1  0
 17 19  1  0
 17 18  2  0
 19 20  1  0
 20 23  1  0
 20 21  1  1
 22 21  1  0
 23 24  2  0
 23 25  1  0
M  END
$$$$
