QQC.pdb
     RDKit          3D

 25 24  0  0  1  0  0  0  0  0999 V2000
    9.9580  -13.2253   19.3374 N   0  0  0  0  0  0  0  0  0  0  0  0
    8.8081  -13.1760   18.5143 C   0  0  0  0  0  0  0  0  0  0  0  0
    8.8661  -12.8447   17.3245 O   0  0  0  0  0  0  0  0  0  0  0  0
    7.4891  -13.5447   19.1381 C   0  0  0  0  0  0  0  0  0  0  0  0
    7.7512  -13.9660   20.5489 C   0  0  0  0  0  0  0  0  0  0  0  0
    8.2799  -15.3494   20.7063 C   0  0  2  0  0  0  0  0  0  0  0  0
    7.1931  -16.2269   20.1999 N   0  0  0  0  0  0  0  0  0  0  0  0
    8.5600  -15.7881   22.0750 C   0  0  0  0  0  0  0  0  0  0  0  0
    7.5920  -16.1421   22.8387 O   0  0  0  0  0  0  0  0  0  0  0  0
   10.6814  -21.0702   23.3527 N   0  0  0  0  0  0  0  0  0  0  0  0
   11.2200  -19.8245   23.7559 C   0  0  0  0  0  0  0  0  0  0  0  0
   12.0422  -19.8013   24.6940 O   0  0  0  0  0  0  0  0  0  0  0  0
   10.8193  -18.5829   23.0876 C   0  0  0  0  0  0  0  0  0  0  0  0
   11.1458  -17.4010   23.9096 C   0  0  0  0  0  0  0  0  0  0  0  0
    9.9944  -16.3879   24.0564 C   0  0  2  0  0  0  0  0  0  0  0  0
    9.8271  -15.8832   22.7016 N   0  0  0  0  0  0  0  0  0  0  0  0
   10.3131  -15.3760   25.0582 C   0  0  0  0  0  0  0  0  0  0  0  0
   11.2239  -14.5296   24.8482 O   0  0  0  0  0  0  0  0  0  0  0  0
    9.6463  -15.2656   26.3055 N   0  0  0  0  0  0  0  0  0  0  0  0
   10.0717  -14.2888   27.3120 C   0  0  1  0  0  0  0  0  0  0  0  0
    9.0889  -13.1300   27.2626 C   0  0  0  0  0  0  0  0  0  0  0  0
    7.4444  -13.8046   27.5869 S   0  0  0  0  0  0  0  0  0  0  0  0
   10.1253  -14.8913   28.6533 C   0  0  0  0  0  0  0  0  0  0  0  0
   10.4904  -14.2178   29.6444 O   0  0  0  0  0  0  0  0  0  0  0  0
    9.7753  -16.2125   28.8537 O   0  0  0  0  0  0  0  0  0  0  0  0
  1  2  1  0
  2  4  1  0
  3  2  2  0
  4  5  1  0
  6  5  1  0
  6  8  1  0
  6  7  1  1
  8  9  2  0
 10 11  1  0
 11 12  2  0
 11 13  1  0
 13 14  1  0
 15 14  1  6
 15 17  1  0
 16 15  1  0
 16  8  1  0
 17 19  1  0
 17 18  2  0
 19 20  1  0
 20 23  1  0
 20 21  1  1
 22 21  1  0
 23 24  2  0
 23 25  1  0
M  END
$$$$
