QQC.pdb
     RDKit          3D

 25 24  0  0  1  0  0  0  0  0999 V2000
   11.2246  -13.1276   19.4341 N   0  0  0  0  0  0  0  0  0  0  0  0
   10.5313  -13.6995   18.3412 C   0  0  0  0  0  0  0  0  0  0  0  0
   11.0804  -14.4718   17.5470 O   0  0  0  0  0  0  0  0  0  0  0  0
    9.0812  -13.3355   18.1692 C   0  0  0  0  0  0  0  0  0  0  0  0
    8.3570  -13.7377   19.4144 C   0  0  0  0  0  0  0  0  0  0  0  0
    8.5565  -15.1536   19.8309 C   0  0  2  0  0  0  0  0  0  0  0  0
    7.6530  -15.9358   18.9480 N   0  0  0  0  0  0  0  0  0  0  0  0
    8.1798  -15.4876   21.2059 C   0  0  0  0  0  0  0  0  0  0  0  0
    6.9604  -15.3526   21.5806 O   0  0  0  0  0  0  0  0  0  0  0  0
   11.5112  -18.7438   25.2863 N   0  0  0  0  0  0  0  0  0  0  0  0
   10.4722  -18.2943   26.1365 C   0  0  0  0  0  0  0  0  0  0  0  0
   10.4855  -18.6401   27.3352 O   0  0  0  0  0  0  0  0  0  0  0  0
    9.3979  -17.4408   25.6208 C   0  0  0  0  0  0  0  0  0  0  0  0
    9.6056  -17.1185   24.1952 C   0  0  0  0  0  0  0  0  0  0  0  0
    8.5783  -16.1319   23.6078 C   0  0  2  0  0  0  0  0  0  0  0  0
    9.0279  -15.9704   22.2330 N   0  0  0  0  0  0  0  0  0  0  0  0
    8.5285  -14.9015   24.3906 C   0  0  0  0  0  0  0  0  0  0  0  0
    9.4599  -14.0548   24.3151 O   0  0  0  0  0  0  0  0  0  0  0  0
    7.4647  -14.5694   25.2683 N   0  0  0  0  0  0  0  0  0  0  0  0
    7.4753  -13.3231   26.0397 C   0  0  1  0  0  0  0  0  0  0  0  0
    6.0354  -12.8499   26.1560 C   0  0  0  0  0  0  0  0  0  0  0  0
    6.0227  -11.4355   27.2802 S   0  0  0  0  0  0  0  0  0  0  0  0
    8.0856  -13.5188   27.3642 C   0  0  0  0  0  0  0  0  0  0  0  0
    8.0483  -14.6366   27.9283 O   0  0  0  0  0  0  0  0  0  0  0  0
    8.7141  -12.4770   28.0183 O   0  0  0  0  0  0  0  0  0  0  0  0
  1  2  1  0
  2  4  1  0
  3  2  2  0
  4  5  1  0
  6  5  1  0
  6  8  1  0
  6  7  1  6
  8  9  2  0
 10 11  1  0
 11 12  2  0
 11 13  1  0
 13 14  1  0
 15 14  1  1
 15 17  1  0
 16 15  1  0
 16  8  1  0
 17 19  1  0
 17 18  2  0
 19 20  1  0
 20 23  1  0
 20 21  1  1
 22 21  1  0
 23 24  2  0
 23 25  1  0
M  END
$$$$
