QQC.pdb
     RDKit          3D

 25 24  0  0  1  0  0  0  0  0999 V2000
    9.8377  -13.3524   19.1223 N   0  0  0  0  0  0  0  0  0  0  0  0
    8.5647  -13.1065   18.5559 C   0  0  0  0  0  0  0  0  0  0  0  0
    8.4313  -12.6262   17.4244 O   0  0  0  0  0  0  0  0  0  0  0  0
    7.3559  -13.4517   19.3833 C   0  0  0  0  0  0  0  0  0  0  0  0
    7.8360  -14.0071   20.6863 C   0  0  0  0  0  0  0  0  0  0  0  0
    8.4081  -15.3803   20.6142 C   0  0  2  0  0  0  0  0  0  0  0  0
    7.2871  -16.2298   20.1355 N   0  0  0  0  0  0  0  0  0  0  0  0
    8.8582  -15.9658   21.8786 C   0  0  0  0  0  0  0  0  0  0  0  0
    7.9996  -16.4792   22.6816 O   0  0  0  0  0  0  0  0  0  0  0  0
   14.1921  -18.6984   22.7512 N   0  0  0  0  0  0  0  0  0  0  0  0
   13.6550  -18.8524   24.0521 C   0  0  0  0  0  0  0  0  0  0  0  0
   14.2730  -19.5547   24.8775 O   0  0  0  0  0  0  0  0  0  0  0  0
   12.3951  -18.2023   24.4247 C   0  0  0  0  0  0  0  0  0  0  0  0
   11.8464  -17.4127   23.3045 C   0  0  0  0  0  0  0  0  0  0  0  0
   10.5262  -16.6851   23.6232 C   0  0  2  0  0  0  0  0  0  0  0  0
   10.1888  -16.0493   22.3582 N   0  0  0  0  0  0  0  0  0  0  0  0
   10.6914  -15.7721   24.7494 C   0  0  0  0  0  0  0  0  0  0  0  0
   11.0636  -14.5821   24.5615 O   0  0  0  0  0  0  0  0  0  0  0  0
   10.4535  -16.1365   26.0996 N   0  0  0  0  0  0  0  0  0  0  0  0
   10.3879  -15.1268   27.1601 C   0  0  1  0  0  0  0  0  0  0  0  0
    9.1468  -14.2857   26.9089 C   0  0  0  0  0  0  0  0  0  0  0  0
    8.9805  -13.1431   28.2986 S   0  0  0  0  0  0  0  0  0  0  0  0
   10.3537  -15.7512   28.4920 C   0  0  0  0  0  0  0  0  0  0  0  0
    9.9819  -16.9390   28.6337 O   0  0  0  0  0  0  0  0  0  0  0  0
   10.7301  -15.0451   29.6181 O   0  0  0  0  0  0  0  0  0  0  0  0
  1  2  1  0
  2  4  1  0
  3  2  2  0
  4  5  1  0
  6  5  1  0
  6  8  1  0
  6  7  1  1
  8  9  2  0
 10 11  1  0
 11 12  2  0
 11 13  1  0
 13 14  1  0
 15 14  1  6
 15 17  1  0
 16 15  1  0
 16  8  1  0
 17 19  1  0
 17 18  2  0
 19 20  1  0
 20 23  1  0
 20 21  1  6
 22 21  1  0
 23 24  2  0
 23 25  1  0
M  END
$$$$
