ISH.pdb
     RDKit          3D

 25 25  0  0  1  0  0  0  0  0999 V2000
   29.9856  -13.9227  -16.6435 C   0  0  0  0  0  0  0  0  0  0  0  0
   28.5072  -13.7939  -16.9500 C   0  0  0  0  0  0  0  0  0  0  0  0
   28.0428  -12.4559  -16.4833 C   0  0  2  0  0  0  0  0  0  0  0  0
   28.2964  -12.2722  -15.0028 C   0  0  0  0  0  0  0  0  0  0  0  0
   26.6330  -12.1920  -16.8700 C   0  0  2  0  0  0  0  0  0  0  0  0
   26.3890  -12.6459  -18.2494 N   0  0  0  0  0  0  0  0  0  0  0  0
   26.1632  -10.8110  -16.7281 C   0  0  0  0  0  0  0  0  0  0  0  0
   26.0473  -10.2590  -15.6112 O   0  0  0  0  0  0  0  0  0  0  0  0
   25.1289   -6.6393  -18.9447 O   0  0  0  0  0  0  0  0  0  0  0  0
   25.4881   -7.9716  -19.0381 C   0  0  0  0  0  0  0  0  0  0  0  0
   25.4088   -8.6749  -17.6842 C   0  0  2  0  0  0  0  0  0  0  0  0
   25.8206  -10.0489  -17.8772 N   0  0  0  0  0  0  0  0  0  0  0  0
   23.9934   -8.6334  -17.2762 C   0  0  0  0  0  0  0  0  0  0  0  0
   23.1707   -9.3946  -17.8158 O   0  0  0  0  0  0  0  0  0  0  0  0
   23.5983   -7.7313  -16.2814 N   0  0  0  0  0  0  0  0  0  0  0  0
   22.2018   -7.5652  -15.9611 C   0  0  1  0  0  0  0  0  0  0  0  0
   21.9556   -8.3571  -14.7021 C   0  0  0  0  0  0  0  0  0  0  0  0
   21.6548   -9.7614  -15.0049 C   0  0  0  0  0  0  0  0  0  0  0  0
   21.6131  -10.4206  -16.1992 C   0  0  0  0  0  0  0  0  0  0  0  0
   21.2856  -11.6942  -15.9383 N   0  0  0  0  0  0  0  0  0  0  0  0
   21.1189  -11.8622  -14.6193 C   0  0  0  0  0  0  0  0  0  0  0  0
   21.3456  -10.6731  -14.0398 N   0  0  0  0  0  0  0  0  0  0  0  0
   21.8584   -6.1422  -15.8523 C   0  0  0  0  0  0  0  0  0  0  0  0
   20.5555   -5.7327  -15.6374 O   0  0  0  0  0  0  0  0  0  0  0  0
   22.7507   -5.2797  -15.9546 O   0  0  0  0  0  0  0  0  0  0  0  0
  2  1  1  0
  2  3  1  0
  3  5  1  0
  3  4  1  1
  5  7  1  0
  5  6  1  6
  7  8  2  0
 10  9  1  0
 11 10  1  6
 12 11  1  0
 12  7  1  0
 13 11  1  0
 14 13  2  0
 15 13  1  0
 16 15  1  0
 16 17  1  1
 18 17  1  0
 19 18  2  0
 20 19  1  0
 21 20  1  0
 21 22  2  0
 22 18  1  0
 23 16  1  0
 23 24  1  0
 25 23  2  0
M  END
$$$$
