ISH.pdb
     RDKit          3D

 25 25  0  0  1  0  0  0  0  0999 V2000
   18.3946  -13.7542    1.2442 C   0  0  0  0  0  0  0  0  0  0  0  0
   17.9782  -13.1182    2.5550 C   0  0  0  0  0  0  0  0  0  0  0  0
   18.1215  -14.1323    3.6388 C   0  0  2  0  0  0  0  0  0  0  0  0
   17.3612  -15.3988    3.3099 C   0  0  0  0  0  0  0  0  0  0  0  0
   17.7743  -13.5736    4.9708 C   0  0  2  0  0  0  0  0  0  0  0  0
   18.5935  -12.3832    5.2538 N   0  0  0  0  0  0  0  0  0  0  0  0
   17.8557  -14.4946    6.1080 C   0  0  0  0  0  0  0  0  0  0  0  0
   18.9372  -14.7455    6.6850 O   0  0  0  0  0  0  0  0  0  0  0  0
   15.9587  -16.7001    9.7985 O   0  0  0  0  0  0  0  0  0  0  0  0
   15.8340  -15.8289    8.7316 C   0  0  0  0  0  0  0  0  0  0  0  0
   16.8407  -16.1415    7.6257 C   0  0  2  0  0  0  0  0  0  0  0  0
   16.6861  -15.1386    6.5937 N   0  0  0  0  0  0  0  0  0  0  0  0
   16.4738  -17.4647    7.0912 C   0  0  0  0  0  0  0  0  0  0  0  0
   15.5022  -17.5745    6.3221 O   0  0  0  0  0  0  0  0  0  0  0  0
   17.2314  -18.5820    7.4617 N   0  0  0  0  0  0  0  0  0  0  0  0
   16.8097  -19.9076    7.0803 C   0  0  1  0  0  0  0  0  0  0  0  0
   17.5751  -20.2554    5.8289 C   0  0  0  0  0  0  0  0  0  0  0  0
   16.8290  -19.8750    4.6236 C   0  0  0  0  0  0  0  0  0  0  0  0
   15.5993  -19.2985    4.4882 C   0  0  0  0  0  0  0  0  0  0  0  0
   15.3685  -19.1595    3.1749 N   0  0  0  0  0  0  0  0  0  0  0  0
   16.4109  -19.6287    2.4756 C   0  0  0  0  0  0  0  0  0  0  0  0
   17.3138  -20.0708    3.3647 N   0  0  0  0  0  0  0  0  0  0  0  0
   17.0040  -20.8538    8.1856 C   0  0  0  0  0  0  0  0  0  0  0  0
   16.5502  -22.1572    8.1028 O   0  0  0  0  0  0  0  0  0  0  0  0
   17.5872  -20.4849    9.2221 O   0  0  0  0  0  0  0  0  0  0  0  0
  2  1  1  0
  2  3  1  0
  3  5  1  0
  3  4  1  6
  5  7  1  0
  5  6  1  1
  7  8  2  0
 10  9  1  0
 11 10  1  1
 12 11  1  0
 12  7  1  0
 13 11  1  0
 14 13  2  0
 15 13  1  0
 16 15  1  0
 16 17  1  6
 18 17  1  0
 19 18  2  0
 20 19  1  0
 21 20  1  0
 21 22  2  0
 22 18  1  0
 23 16  1  0
 23 24  1  0
 25 23  2  0
M  END
$$$$
