ISH.pdb
     RDKit          3D

 25 25  0  0  1  0  0  0  0  0999 V2000
   36.5644  -30.0108  -18.8677 C   0  0  0  0  0  0  0  0  0  0  0  0
   35.3877  -30.0588  -17.9142 C   0  0  0  0  0  0  0  0  0  0  0  0
   34.5231  -28.8712  -18.1706 C   0  0  2  0  0  0  0  0  0  0  0  0
   35.3166  -27.5854  -18.0848 C   0  0  0  0  0  0  0  0  0  0  0  0
   33.3141  -28.8684  -17.3075 C   0  0  2  0  0  0  0  0  0  0  0  0
   32.5443  -30.1082  -17.5039 N   0  0  0  0  0  0  0  0  0  0  0  0
   32.4159  -27.7182  -17.4434 C   0  0  0  0  0  0  0  0  0  0  0  0
   31.6809  -27.5625  -18.4440 O   0  0  0  0  0  0  0  0  0  0  0  0
   32.3861  -24.8110  -14.5359 O   0  0  0  0  0  0  0  0  0  0  0  0
   31.2102  -24.9786  -15.2445 C   0  0  0  0  0  0  0  0  0  0  0  0
   31.4599  -25.6106  -16.6128 C   0  0  2  0  0  0  0  0  0  0  0  0
   32.3554  -26.7316  -16.4229 N   0  0  0  0  0  0  0  0  0  0  0  0
   32.1213  -24.5801  -17.4325 C   0  0  0  0  0  0  0  0  0  0  0  0
   33.3579  -24.4523  -17.3878 O   0  0  0  0  0  0  0  0  0  0  0  0
   31.3395  -23.7578  -18.2525 N   0  0  0  0  0  0  0  0  0  0  0  0
   31.9543  -22.7159  -19.0380 C   0  0  1  0  0  0  0  0  0  0  0  0
   32.3727  -23.3527  -20.3388 C   0  0  0  0  0  0  0  0  0  0  0  0
   32.9610  -22.3653  -21.2516 C   0  0  0  0  0  0  0  0  0  0  0  0
   33.8559  -21.3626  -21.0143 C   0  0  0  0  0  0  0  0  0  0  0  0
   34.0716  -20.7388  -22.1812 N   0  0  0  0  0  0  0  0  0  0  0  0
   33.3432  -21.3135  -23.1481 C   0  0  0  0  0  0  0  0  0  0  0  0
   32.6569  -22.3169  -22.5795 N   0  0  0  0  0  0  0  0  0  0  0  0
   31.0435  -21.5751  -19.1933 C   0  0  0  0  0  0  0  0  0  0  0  0
   31.5250  -20.2919  -19.3750 O   0  0  0  0  0  0  0  0  0  0  0  0
   29.8120  -21.7564  -19.1619 O   0  0  0  0  0  0  0  0  0  0  0  0
  2  1  1  0
  2  3  1  0
  3  5  1  0
  3  4  1  1
  5  7  1  0
  5  6  1  6
  7  8  2  0
 10  9  1  0
 11 10  1  1
 12 11  1  0
 12  7  1  0
 13 11  1  0
 14 13  2  0
 15 13  1  0
 16 15  1  0
 16 17  1  6
 18 17  1  0
 19 18  2  0
 20 19  1  0
 21 20  1  0
 21 22  2  0
 22 18  1  0
 23 16  1  0
 23 24  1  0
 25 23  2  0
M  END
$$$$
