ISH.pdb
     RDKit          3D

 25 25  0  0  1  0  0  0  0  0999 V2000
   26.8969  -25.8141  -22.1438 C   0  0  0  0  0  0  0  0  0  0  0  0
   28.3381  -25.7310  -22.6045 C   0  0  0  0  0  0  0  0  0  0  0  0
   29.0194  -27.0115  -22.2583 C   0  0  2  0  0  0  0  0  0  0  0  0
   28.0386  -28.0241  -21.7079 C   0  0  0  0  0  0  0  0  0  0  0  0
   30.1916  -26.7944  -21.3720 C   0  0  2  0  0  0  0  0  0  0  0  0
   31.1358  -25.8529  -21.9967 N   0  0  0  0  0  0  0  0  0  0  0  0
   30.9194  -27.9926  -20.9445 C   0  0  0  0  0  0  0  0  0  0  0  0
   30.9700  -29.0265  -21.6474 O   0  0  0  0  0  0  0  0  0  0  0  0
   33.6410  -27.9023  -17.8481 O   0  0  0  0  0  0  0  0  0  0  0  0
   33.6620  -28.8812  -18.8249 C   0  0  0  0  0  0  0  0  0  0  0  0
   32.2538  -29.2386  -19.2975 C   0  0  2  0  0  0  0  0  0  0  0  0
   31.5991  -28.0112  -19.6970 N   0  0  0  0  0  0  0  0  0  0  0  0
   31.5585  -29.8162  -18.1338 C   0  0  0  0  0  0  0  0  0  0  0  0
   31.0640  -29.0666  -17.2729 O   0  0  0  0  0  0  0  0  0  0  0  0
   31.4669  -31.2082  -18.0179 N   0  0  0  0  0  0  0  0  0  0  0  0
   30.7446  -31.8022  -16.9198 C   0  0  1  0  0  0  0  0  0  0  0  0
   29.3415  -31.2546  -16.9861 C   0  0  0  0  0  0  0  0  0  0  0  0
   28.4702  -31.8974  -15.9952 C   0  0  0  0  0  0  0  0  0  0  0  0
   28.7601  -32.8014  -15.0148 C   0  0  0  0  0  0  0  0  0  0  0  0
   27.6125  -33.0808  -14.3806 N   0  0  0  0  0  0  0  0  0  0  0  0
   26.6070  -32.3838  -14.9271 C   0  0  0  0  0  0  0  0  0  0  0  0
   27.1311  -31.6527  -15.9231 N   0  0  0  0  0  0  0  0  0  0  0  0
   30.8210  -33.2670  -16.9782 C   0  0  0  0  0  0  0  0  0  0  0  0
   31.6444  -33.9070  -17.8859 O   0  0  0  0  0  0  0  0  0  0  0  0
   30.1348  -33.9550  -16.1997 O   0  0  0  0  0  0  0  0  0  0  0  0
  2  1  1  0
  2  3  1  0
  3  5  1  0
  3  4  1  1
  5  7  1  0
  5  6  1  6
  7  8  2  0
 10  9  1  0
 11 10  1  1
 12 11  1  0
 12  7  1  0
 13 11  1  0
 14 13  2  0
 15 13  1  0
 16 15  1  0
 16 17  1  6
 18 17  1  0
 19 18  2  0
 20 19  1  0
 21 20  1  0
 21 22  2  0
 22 18  1  0
 23 16  1  0
 23 24  1  0
 25 23  2  0
M  END
$$$$
