ISH.pdb
     RDKit          3D

 25 25  0  0  1  0  0  0  0  0999 V2000
   16.5737  -14.8121  -16.6757 C   0  0  0  0  0  0  0  0  0  0  0  0
   17.8367  -14.4903  -17.4486 C   0  0  0  0  0  0  0  0  0  0  0  0
   18.5244  -13.3505  -16.7766 C   0  0  2  0  0  0  0  0  0  0  0  0
   17.5952  -12.1672  -16.6141 C   0  0  0  0  0  0  0  0  0  0  0  0
   19.8024  -12.9999  -17.4479 C   0  0  2  0  0  0  0  0  0  0  0  0
   20.6613  -14.1903  -17.5632 N   0  0  0  0  0  0  0  0  0  0  0  0
   20.5749  -11.9054  -16.8534 C   0  0  0  0  0  0  0  0  0  0  0  0
   21.2561  -12.0591  -15.8152 O   0  0  0  0  0  0  0  0  0  0  0  0
   20.4844   -8.0369  -18.4585 O   0  0  0  0  0  0  0  0  0  0  0  0
   21.6705   -8.5416  -17.9572 C   0  0  0  0  0  0  0  0  0  0  0  0
   21.4254   -9.5985  -16.8815 C   0  0  2  0  0  0  0  0  0  0  0  0
   20.5701  -10.6170  -17.4523 N   0  0  0  0  0  0  0  0  0  0  0  0
   20.7202   -8.9170  -15.7818 C   0  0  0  0  0  0  0  0  0  0  0  0
   19.4766   -8.9172  -15.7491 O   0  0  0  0  0  0  0  0  0  0  0  0
   21.4686   -8.2771  -14.7868 N   0  0  0  0  0  0  0  0  0  0  0  0
   20.8146   -7.7168  -13.6297 C   0  0  1  0  0  0  0  0  0  0  0  0
   21.8725   -7.5851  -12.5637 C   0  0  0  0  0  0  0  0  0  0  0  0
   21.3000   -7.1069  -11.2997 C   0  0  0  0  0  0  0  0  0  0  0  0
   19.9989   -6.9901  -10.9048 C   0  0  0  0  0  0  0  0  0  0  0  0
   20.0052   -6.4975   -9.6579 N   0  0  0  0  0  0  0  0  0  0  0  0
   21.2666   -6.2990   -9.2514 C   0  0  0  0  0  0  0  0  0  0  0  0
   22.0683   -6.6734  -10.2605 N   0  0  0  0  0  0  0  0  0  0  0  0
   20.1446   -6.4558  -13.9701 C   0  0  0  0  0  0  0  0  0  0  0  0
   18.9605   -6.0850  -13.3604 O   0  0  0  0  0  0  0  0  0  0  0  0
   20.6444   -5.6991  -14.8234 O   0  0  0  0  0  0  0  0  0  0  0  0
  2  1  1  0
  2  3  1  0
  3  5  1  0
  3  4  1  6
  5  7  1  0
  5  6  1  1
  7  8  2  0
 10  9  1  0
 11 10  1  6
 12 11  1  0
 12  7  1  0
 13 11  1  0
 14 13  2  0
 15 13  1  0
 16 15  1  0
 16 17  1  1
 18 17  1  0
 19 18  2  0
 20 19  1  0
 21 20  1  0
 21 22  2  0
 22 18  1  0
 23 16  1  0
 23 24  1  0
 25 23  2  0
M  END
$$$$
