ISH.pdb
     RDKit          3D

 25 25  0  0  1  0  0  0  0  0999 V2000
   22.1290  -14.5295  -21.1684 C   0  0  0  0  0  0  0  0  0  0  0  0
   22.3707  -14.6544  -19.6777 C   0  0  0  0  0  0  0  0  0  0  0  0
   21.8320  -13.4358  -19.0080 C   0  0  2  0  0  0  0  0  0  0  0  0
   22.3884  -12.1746  -19.6325 C   0  0  0  0  0  0  0  0  0  0  0  0
   22.0147  -13.4859  -17.5346 C   0  0  2  0  0  0  0  0  0  0  0  0
   21.5217  -14.7675  -17.0029 N   0  0  0  0  0  0  0  0  0  0  0  0
   21.4249  -12.3871  -16.7645 C   0  0  0  0  0  0  0  0  0  0  0  0
   20.1890  -12.2750  -16.6047 O   0  0  0  0  0  0  0  0  0  0  0  0
   21.8240   -9.3644  -13.1880 O   0  0  0  0  0  0  0  0  0  0  0  0
   22.4319  -10.2321  -14.0770 C   0  0  0  0  0  0  0  0  0  0  0  0
   21.6280  -10.3733  -15.3685 C   0  0  2  0  0  0  0  0  0  0  0  0
   22.2574  -11.4022  -16.1683 N   0  0  0  0  0  0  0  0  0  0  0  0
   21.7243   -9.0768  -16.0621 C   0  0  0  0  0  0  0  0  0  0  0  0
   22.7661   -8.7764  -16.6721 O   0  0  0  0  0  0  0  0  0  0  0  0
   20.6332   -8.2007  -16.0214 N   0  0  0  0  0  0  0  0  0  0  0  0
   20.6731   -6.9529  -16.7438 C   0  0  1  0  0  0  0  0  0  0  0  0
   19.5063   -6.9749  -17.6982 C   0  0  0  0  0  0  0  0  0  0  0  0
   19.7083   -7.9618  -18.7656 C   0  0  0  0  0  0  0  0  0  0  0  0
   19.1239   -9.1782  -18.9694 C   0  0  0  0  0  0  0  0  0  0  0  0
   19.6561   -9.6920  -20.0875 N   0  0  0  0  0  0  0  0  0  0  0  0
   20.5572   -8.8412  -20.5974 C   0  0  0  0  0  0  0  0  0  0  0  0
   20.5927   -7.7730  -19.7856 N   0  0  0  0  0  0  0  0  0  0  0  0
   20.6695   -5.8146  -15.8170 C   0  0  0  0  0  0  0  0  0  0  0  0
   20.7987   -4.5163  -16.2743 O   0  0  0  0  0  0  0  0  0  0  0  0
   20.5485   -6.0119  -14.5935 O   0  0  0  0  0  0  0  0  0  0  0  0
  2  1  1  0
  2  3  1  0
  3  5  1  0
  3  4  1  6
  5  7  1  0
  5  6  1  1
  7  8  2  0
 10  9  1  0
 11 10  1  1
 12 11  1  0
 12  7  1  0
 13 11  1  0
 14 13  2  0
 15 13  1  0
 16 15  1  0
 16 17  1  6
 18 17  1  0
 19 18  2  0
 20 19  1  0
 21 20  1  0
 21 22  2  0
 22 18  1  0
 23 16  1  0
 23 24  1  0
 25 23  2  0
M  END
$$$$
