ISH.pdb
     RDKit          3D

 25 25  0  0  1  0  0  0  0  0999 V2000
   28.1596  -15.2991  -16.0221 C   0  0  0  0  0  0  0  0  0  0  0  0
   27.5380  -15.9018  -17.2656 C   0  0  0  0  0  0  0  0  0  0  0  0
   26.4224  -16.7993  -16.8488 C   0  0  2  0  0  0  0  0  0  0  0  0
   25.4038  -16.0566  -16.0115 C   0  0  0  0  0  0  0  0  0  0  0  0
   26.9206  -18.0378  -16.1972 C   0  0  2  0  0  0  0  0  0  0  0  0
   27.9134  -18.7028  -17.0577 N   0  0  0  0  0  0  0  0  0  0  0  0
   25.9075  -19.0149  -15.7883 C   0  0  0  0  0  0  0  0  0  0  0  0
   24.9842  -19.3753  -16.5520 O   0  0  0  0  0  0  0  0  0  0  0  0
   25.9025  -20.5896  -11.9334 O   0  0  0  0  0  0  0  0  0  0  0  0
   25.4412  -21.3800  -12.9703 C   0  0  0  0  0  0  0  0  0  0  0  0
   24.9163  -20.5384  -14.1324 C   0  0  2  0  0  0  0  0  0  0  0  0
   25.9486  -19.5888  -14.4893 N   0  0  0  0  0  0  0  0  0  0  0  0
   23.7344  -19.8195  -13.6247 C   0  0  0  0  0  0  0  0  0  0  0  0
   23.8619  -18.6788  -13.1451 O   0  0  0  0  0  0  0  0  0  0  0  0
   22.4807  -20.4386  -13.6922 N   0  0  0  0  0  0  0  0  0  0  0  0
   21.2743  -19.6501  -13.6323 C   0  0  1  0  0  0  0  0  0  0  0  0
   21.3757  -18.6306  -14.7383 C   0  0  0  0  0  0  0  0  0  0  0  0
   20.1367  -17.8537  -14.8633 C   0  0  0  0  0  0  0  0  0  0  0  0
   18.9797  -17.9094  -14.1416 C   0  0  0  0  0  0  0  0  0  0  0  0
   18.1470  -16.9928  -14.6552 N   0  0  0  0  0  0  0  0  0  0  0  0
   18.7388  -16.3595  -15.6773 C   0  0  0  0  0  0  0  0  0  0  0  0
   19.9658  -16.8871  -15.8092 N   0  0  0  0  0  0  0  0  0  0  0  0
   20.0867  -20.5089  -13.7140 C   0  0  0  0  0  0  0  0  0  0  0  0
   18.9865  -20.2910  -12.9056 O   0  0  0  0  0  0  0  0  0  0  0  0
   20.0600  -21.4545  -14.5236 O   0  0  0  0  0  0  0  0  0  0  0  0
  2  1  1  0
  2  3  1  0
  3  5  1  0
  3  4  1  1
  5  7  1  0
  5  6  1  6
  7  8  2  0
 10  9  1  0
 11 10  1  1
 12 11  1  0
 12  7  1  0
 13 11  1  0
 14 13  2  0
 15 13  1  0
 16 15  1  0
 16 17  1  6
 18 17  1  0
 19 18  2  0
 20 19  1  0
 21 20  1  0
 21 22  2  0
 22 18  1  0
 23 16  1  0
 23 24  1  0
 25 23  2  0
M  END
$$$$
