ISH.pdb
     RDKit          3D

 25 25  0  0  1  0  0  0  0  0999 V2000
   19.8007  -16.4453  -19.8132 C   0  0  0  0  0  0  0  0  0  0  0  0
   21.0712  -16.3727  -18.9905 C   0  0  0  0  0  0  0  0  0  0  0  0
   20.9695  -15.2071  -18.0660 C   0  0  2  0  0  0  0  0  0  0  0  0
   20.6496  -13.9345  -18.8198 C   0  0  0  0  0  0  0  0  0  0  0  0
   22.1669  -15.0833  -17.1956 C   0  0  2  0  0  0  0  0  0  0  0  0
   22.4527  -16.3682  -16.5355 N   0  0  0  0  0  0  0  0  0  0  0  0
   22.1351  -14.0210  -16.1864 C   0  0  0  0  0  0  0  0  0  0  0  0
   21.3592  -14.0581  -15.2055 O   0  0  0  0  0  0  0  0  0  0  0  0
   24.9351  -10.9742  -16.2296 O   0  0  0  0  0  0  0  0  0  0  0  0
   24.2918  -11.3032  -15.0503 C   0  0  0  0  0  0  0  0  0  0  0  0
   22.8893  -11.8528  -15.3056 C   0  0  2  0  0  0  0  0  0  0  0  0
   23.0011  -12.9002  -16.2980 N   0  0  0  0  0  0  0  0  0  0  0  0
   22.0975  -10.7356  -15.8499 C   0  0  0  0  0  0  0  0  0  0  0  0
   22.0177  -10.5748  -17.0808 O   0  0  0  0  0  0  0  0  0  0  0  0
   21.4449   -9.8695  -14.9646 N   0  0  0  0  0  0  0  0  0  0  0  0
   20.6891   -8.7481  -15.4664 C   0  0  1  0  0  0  0  0  0  0  0  0
   19.3088   -8.8633  -14.8712 C   0  0  0  0  0  0  0  0  0  0  0  0
   18.4898   -7.6880  -15.1908 C   0  0  0  0  0  0  0  0  0  0  0  0
   18.7816   -6.3571  -15.1120 C   0  0  0  0  0  0  0  0  0  0  0  0
   17.6924   -5.6873  -15.5150 N   0  0  0  0  0  0  0  0  0  0  0  0
   16.7219   -6.5501  -15.8458 C   0  0  0  0  0  0  0  0  0  0  0  0
   17.2091   -7.7848  -15.6475 N   0  0  0  0  0  0  0  0  0  0  0  0
   21.3704   -7.4837  -15.1631 C   0  0  0  0  0  0  0  0  0  0  0  0
   21.1991   -6.3670  -15.9600 O   0  0  0  0  0  0  0  0  0  0  0  0
   22.1193   -7.4055  -14.1713 O   0  0  0  0  0  0  0  0  0  0  0  0
  2  1  1  0
  2  3  1  0
  3  5  1  0
  3  4  1  6
  5  7  1  0
  5  6  1  1
  7  8  2  0
 10  9  1  0
 11 10  1  6
 12 11  1  0
 12  7  1  0
 13 11  1  0
 14 13  2  0
 15 13  1  0
 16 15  1  0
 16 17  1  1
 18 17  1  0
 19 18  2  0
 20 19  1  0
 21 20  1  0
 21 22  2  0
 22 18  1  0
 23 16  1  0
 23 24  1  0
 25 23  2  0
M  END
$$$$
