ISH.pdb
     RDKit          3D

 25 25  0  0  1  0  0  0  0  0999 V2000
   27.9637  -17.6148  -17.7772 C   0  0  0  0  0  0  0  0  0  0  0  0
   28.5085  -18.7130  -16.8866 C   0  0  0  0  0  0  0  0  0  0  0  0
   27.4059  -19.2001  -16.0087 C   0  0  2  0  0  0  0  0  0  0  0  0
   26.8750  -18.0905  -15.1271 C   0  0  0  0  0  0  0  0  0  0  0  0
   27.7986  -20.4128  -15.2459 C   0  0  2  0  0  0  0  0  0  0  0  0
   28.2400  -21.4737  -16.1667 N   0  0  0  0  0  0  0  0  0  0  0  0
   26.7970  -20.9602  -14.3265 C   0  0  0  0  0  0  0  0  0  0  0  0
   25.8365  -21.6555  -14.7261 O   0  0  0  0  0  0  0  0  0  0  0  0
   25.3442  -21.4410   -9.7270 O   0  0  0  0  0  0  0  0  0  0  0  0
   26.3502  -21.1638  -10.6347 C   0  0  0  0  0  0  0  0  0  0  0  0
   25.8442  -21.2228  -12.0751 C   0  0  2  0  0  0  0  0  0  0  0  0
   26.8928  -20.7107  -12.9311 N   0  0  0  0  0  0  0  0  0  0  0  0
   24.6711  -20.3334  -12.1405 C   0  0  0  0  0  0  0  0  0  0  0  0
   24.8199  -19.1030  -12.0340 O   0  0  0  0  0  0  0  0  0  0  0  0
   23.4015  -20.8942  -12.3228 N   0  0  0  0  0  0  0  0  0  0  0  0
   22.3621  -20.1450  -12.9853 C   0  0  1  0  0  0  0  0  0  0  0  0
   22.8831  -19.8179  -14.3617 C   0  0  0  0  0  0  0  0  0  0  0  0
   21.9180  -19.0136  -15.1206 C   0  0  0  0  0  0  0  0  0  0  0  0
   20.7072  -18.5027  -14.7524 C   0  0  0  0  0  0  0  0  0  0  0  0
   20.2156  -17.8441  -15.8115 N   0  0  0  0  0  0  0  0  0  0  0  0
   21.0749  -17.9215  -16.8369 C   0  0  0  0  0  0  0  0  0  0  0  0
   22.1260  -18.6417  -16.4155 N   0  0  0  0  0  0  0  0  0  0  0  0
   21.0992  -20.8932  -12.9833 C   0  0  0  0  0  0  0  0  0  0  0  0
   21.0032  -22.1374  -12.3881 O   0  0  0  0  0  0  0  0  0  0  0  0
   20.0896  -20.4066  -13.5257 O   0  0  0  0  0  0  0  0  0  0  0  0
  2  1  1  0
  2  3  1  0
  3  5  1  0
  3  4  1  1
  5  7  1  0
  5  6  1  6
  7  8  2  0
 10  9  1  0
 11 10  1  1
 12 11  1  0
 12  7  1  0
 13 11  1  0
 14 13  2  0
 15 13  1  0
 16 15  1  0
 16 17  1  6
 18 17  1  0
 19 18  2  0
 20 19  1  0
 21 20  1  0
 21 22  2  0
 22 18  1  0
 23 16  1  0
 23 24  1  0
 25 23  2  0
M  END
$$$$
