ISH.pdb
     RDKit          3D

 25 25  0  0  1  0  0  0  0  0999 V2000
   28.5211  -19.8225   -6.9970 C   0  0  0  0  0  0  0  0  0  0  0  0
   28.0827  -20.8127   -8.0569 C   0  0  0  0  0  0  0  0  0  0  0  0
   27.0835  -20.1469   -8.9412 C   0  0  2  0  0  0  0  0  0  0  0  0
   25.9143  -19.6117   -8.1432 C   0  0  0  0  0  0  0  0  0  0  0  0
   26.6683  -21.0225  -10.0670 C   0  0  2  0  0  0  0  0  0  0  0  0
   27.7846  -21.8915  -10.4757 N   0  0  0  0  0  0  0  0  0  0  0  0
   26.1229  -20.3520  -11.2506 C   0  0  0  0  0  0  0  0  0  0  0  0
   24.9860  -19.8294  -11.2546 O   0  0  0  0  0  0  0  0  0  0  0  0
   27.8849  -20.9328  -14.8182 O   0  0  0  0  0  0  0  0  0  0  0  0
   27.3000  -19.6821  -14.7377 C   0  0  0  0  0  0  0  0  0  0  0  0
   26.3019  -19.5979  -13.5841 C   0  0  2  0  0  0  0  0  0  0  0  0
   26.8856  -20.2767  -12.4469 N   0  0  0  0  0  0  0  0  0  0  0  0
   25.0942  -20.3175  -14.0256 C   0  0  0  0  0  0  0  0  0  0  0  0
   25.0097  -21.5472  -13.8579 O   0  0  0  0  0  0  0  0  0  0  0  0
   24.0565  -19.5981  -14.6301 N   0  0  0  0  0  0  0  0  0  0  0  0
   22.8587  -20.2736  -15.0656 C   0  0  1  0  0  0  0  0  0  0  0  0
   21.7095  -19.6045  -14.3554 C   0  0  0  0  0  0  0  0  0  0  0  0
   21.5999  -20.0648  -12.9660 C   0  0  0  0  0  0  0  0  0  0  0  0
   22.3742  -20.9381  -12.2586 C   0  0  0  0  0  0  0  0  0  0  0  0
   21.8517  -21.0239  -11.0269 N   0  0  0  0  0  0  0  0  0  0  0  0
   20.7732  -20.2343  -10.9320 C   0  0  0  0  0  0  0  0  0  0  0  0
   20.6141  -19.6409  -12.1253 N   0  0  0  0  0  0  0  0  0  0  0  0
   22.7532  -20.2540  -16.5296 C   0  0  0  0  0  0  0  0  0  0  0  0
   23.6640  -19.5612  -17.3056 O   0  0  0  0  0  0  0  0  0  0  0  0
   21.8291  -20.8699  -17.0928 O   0  0  0  0  0  0  0  0  0  0  0  0
  2  1  1  0
  2  3  1  0
  3  5  1  0
  3  4  1  1
  5  7  1  0
  5  6  1  6
  7  8  2  0
 10  9  1  0
 11 10  1  6
 12 11  1  0
 12  7  1  0
 13 11  1  0
 14 13  2  0
 15 13  1  0
 16 15  1  0
 16 17  1  1
 18 17  1  0
 19 18  2  0
 20 19  1  0
 21 20  1  0
 21 22  2  0
 22 18  1  0
 23 16  1  0
 23 24  1  0
 25 23  2  0
M  END
$$$$
