ISH.pdb
     RDKit          3D

 25 25  0  0  1  0  0  0  0  0999 V2000
   28.6573  -17.4625  -17.0844 C   0  0  0  0  0  0  0  0  0  0  0  0
   27.8248  -16.4203  -16.3654 C   0  0  0  0  0  0  0  0  0  0  0  0
   26.4304  -16.4853  -16.8900 C   0  0  2  0  0  0  0  0  0  0  0  0
   26.4102  -16.4430  -18.4026 C   0  0  0  0  0  0  0  0  0  0  0  0
   25.5548  -15.4597  -16.2668 C   0  0  2  0  0  0  0  0  0  0  0  0
   25.8511  -15.3416  -14.8293 N   0  0  0  0  0  0  0  0  0  0  0  0
   24.1109  -15.6351  -16.4472 C   0  0  0  0  0  0  0  0  0  0  0  0
   23.5604  -15.5141  -17.5643 O   0  0  0  0  0  0  0  0  0  0  0  0
   21.6779  -16.6828  -13.2357 O   0  0  0  0  0  0  0  0  0  0  0  0
   21.3252  -17.0761  -14.5139 C   0  0  0  0  0  0  0  0  0  0  0  0
   21.8640  -16.1132  -15.5706 C   0  0  2  0  0  0  0  0  0  0  0  0
   23.2833  -15.9532  -15.3371 N   0  0  0  0  0  0  0  0  0  0  0  0
   21.1768  -14.8283  -15.3516 C   0  0  0  0  0  0  0  0  0  0  0  0
   19.9385  -14.7999  -15.2357 O   0  0  0  0  0  0  0  0  0  0  0  0
   21.9361  -13.6546  -15.2775 N   0  0  0  0  0  0  0  0  0  0  0  0
   21.2880  -12.3762  -15.1155 C   0  0  1  0  0  0  0  0  0  0  0  0
   22.3113  -11.4536  -14.5037 C   0  0  0  0  0  0  0  0  0  0  0  0
   21.7533  -10.1160  -14.2720 C   0  0  0  0  0  0  0  0  0  0  0  0
   20.5126   -9.6151  -14.5412 C   0  0  0  0  0  0  0  0  0  0  0  0
   20.5060   -8.3353  -14.1420 N   0  0  0  0  0  0  0  0  0  0  0  0
   21.7008   -8.0104  -13.6295 C   0  0  0  0  0  0  0  0  0  0  0  0
   22.4730   -9.1053  -13.7076 N   0  0  0  0  0  0  0  0  0  0  0  0
   20.7416  -11.9041  -16.3935 C   0  0  0  0  0  0  0  0  0  0  0  0
   19.4268  -11.4908  -16.5030 O   0  0  0  0  0  0  0  0  0  0  0  0
   21.4682  -11.8718  -17.4042 O   0  0  0  0  0  0  0  0  0  0  0  0
  2  1  1  0
  2  3  1  0
  3  5  1  0
  3  4  1  6
  5  7  1  0
  5  6  1  1
  7  8  2  0
 10  9  1  0
 11 10  1  1
 12 11  1  0
 12  7  1  0
 13 11  1  0
 14 13  2  0
 15 13  1  0
 16 15  1  0
 16 17  1  6
 18 17  1  0
 19 18  2  0
 20 19  1  0
 21 20  1  0
 21 22  2  0
 22 18  1  0
 23 16  1  0
 23 24  1  0
 25 23  2  0
M  END
$$$$
