ISH.pdb
     RDKit          3D

 25 25  0  0  1  0  0  0  0  0999 V2000
   25.0084  -31.4924   -8.4573 C   0  0  0  0  0  0  0  0  0  0  0  0
   26.1403  -32.4557   -8.1627 C   0  0  0  0  0  0  0  0  0  0  0  0
   26.0310  -32.8925   -6.7411 C   0  0  2  0  0  0  0  0  0  0  0  0
   25.9703  -31.7051   -5.8048 C   0  0  0  0  0  0  0  0  0  0  0  0
   27.0909  -33.8677   -6.3773 C   0  0  2  0  0  0  0  0  0  0  0  0
   27.1168  -34.9773   -7.3449 N   0  0  0  0  0  0  0  0  0  0  0  0
   27.0376  -34.4155   -5.0189 C   0  0  0  0  0  0  0  0  0  0  0  0
   25.9801  -34.8650   -4.5237 O   0  0  0  0  0  0  0  0  0  0  0  0
   30.4265  -34.4416   -2.6107 O   0  0  0  0  0  0  0  0  0  0  0  0
   29.5145  -35.4725   -2.4756 C   0  0  0  0  0  0  0  0  0  0  0  0
   28.1101  -35.0438   -2.8974 C   0  0  2  0  0  0  0  0  0  0  0  0
   28.2079  -34.4509   -4.2140 N   0  0  0  0  0  0  0  0  0  0  0  0
   27.6766  -34.0250   -1.9250 C   0  0  0  0  0  0  0  0  0  0  0  0
   27.3749  -32.8835   -2.3167 O   0  0  0  0  0  0  0  0  0  0  0  0
   27.6119  -34.3634   -0.5682 N   0  0  0  0  0  0  0  0  0  0  0  0
   27.1412  -33.4041    0.4006 C   0  0  1  0  0  0  0  0  0  0  0  0
   25.6923  -33.1444    0.0748 C   0  0  0  0  0  0  0  0  0  0  0  0
   25.0603  -32.2953    1.0915 C   0  0  0  0  0  0  0  0  0  0  0  0
   25.6141  -31.4451    2.0042 C   0  0  0  0  0  0  0  0  0  0  0  0
   24.6075  -30.9075    2.7078 N   0  0  0  0  0  0  0  0  0  0  0  0
   23.4360  -31.3895    2.2706 C   0  0  0  0  0  0  0  0  0  0  0  0
   23.7104  -32.2456    1.2741 N   0  0  0  0  0  0  0  0  0  0  0  0
   27.3720  -33.8883    1.7671 C   0  0  0  0  0  0  0  0  0  0  0  0
   27.6498  -33.0135    2.8011 O   0  0  0  0  0  0  0  0  0  0  0  0
   27.3191  -35.1085    2.0095 O   0  0  0  0  0  0  0  0  0  0  0  0
  2  1  1  0
  2  3  1  0
  3  5  1  0
  3  4  1  1
  5  7  1  0
  5  6  1  6
  7  8  2  0
 10  9  1  0
 11 10  1  1
 12 11  1  0
 12  7  1  0
 13 11  1  0
 14 13  2  0
 15 13  1  0
 16 15  1  0
 16 17  1  6
 18 17  1  0
 19 18  2  0
 20 19  1  0
 21 20  1  0
 21 22  2  0
 22 18  1  0
 23 16  1  0
 23 24  1  0
 25 23  2  0
M  END
$$$$
