ISH.pdb
     RDKit          3D

 25 25  0  0  1  0  0  0  0  0999 V2000
   29.2062  -20.3964   -3.9237 C   0  0  0  0  0  0  0  0  0  0  0  0
   27.8756  -19.6800   -4.0342 C   0  0  0  0  0  0  0  0  0  0  0  0
   27.3469  -19.8754   -5.4147 C   0  0  2  0  0  0  0  0  0  0  0  0
   26.8125  -21.2785   -5.6047 C   0  0  0  0  0  0  0  0  0  0  0  0
   28.3389  -19.4849   -6.4492 C   0  0  2  0  0  0  0  0  0  0  0  0
   28.9596  -18.1961   -6.0998 N   0  0  0  0  0  0  0  0  0  0  0  0
   27.8544  -19.4262   -7.8312 C   0  0  0  0  0  0  0  0  0  0  0  0
   27.0412  -18.5560   -8.2148 O   0  0  0  0  0  0  0  0  0  0  0  0
   29.4543  -21.9735  -10.5294 O   0  0  0  0  0  0  0  0  0  0  0  0
   28.8388  -20.8640  -11.0799 C   0  0  0  0  0  0  0  0  0  0  0  0
   27.7903  -20.2737  -10.1384 C   0  0  2  0  0  0  0  0  0  0  0  0
   28.3043  -20.3740   -8.7892 N   0  0  0  0  0  0  0  0  0  0  0  0
   26.5879  -21.1144  -10.2755 C   0  0  0  0  0  0  0  0  0  0  0  0
   26.0159  -21.5478   -9.2594 O   0  0  0  0  0  0  0  0  0  0  0  0
   26.1082  -21.4119  -11.5565 N   0  0  0  0  0  0  0  0  0  0  0  0
   24.6897  -21.4311  -11.8173 C   0  0  1  0  0  0  0  0  0  0  0  0
   24.1535  -20.0990  -11.3583 C   0  0  0  0  0  0  0  0  0  0  0  0
   22.7110  -19.9900  -11.6064 C   0  0  0  0  0  0  0  0  0  0  0  0
   21.8336  -20.8891  -12.1395 C   0  0  0  0  0  0  0  0  0  0  0  0
   20.6272  -20.3046  -12.1560 N   0  0  0  0  0  0  0  0  0  0  0  0
   20.7125  -19.0662  -11.6512 C   0  0  0  0  0  0  0  0  0  0  0  0
   21.9956  -18.8679  -11.3110 N   0  0  0  0  0  0  0  0  0  0  0  0
   24.4242  -21.7310  -13.2296 C   0  0  0  0  0  0  0  0  0  0  0  0
   23.4006  -22.5824  -13.6022 O   0  0  0  0  0  0  0  0  0  0  0  0
   25.1291  -21.2139  -14.1162 O   0  0  0  0  0  0  0  0  0  0  0  0
  2  1  1  0
  2  3  1  0
  3  5  1  0
  3  4  1  6
  5  7  1  0
  5  6  1  1
  7  8  2  0
 10  9  1  0
 11 10  1  6
 12 11  1  0
 12  7  1  0
 13 11  1  0
 14 13  2  0
 15 13  1  0
 16 15  1  0
 16 17  1  6
 18 17  1  0
 19 18  2  0
 20 19  1  0
 21 20  1  0
 21 22  2  0
 22 18  1  0
 23 16  1  0
 23 24  1  0
 25 23  2  0
M  END
$$$$
