ISH.pdb
     RDKit          3D

 25 25  0  0  1  0  0  0  0  0999 V2000
   17.5802  -15.2439  -17.6993 C   0  0  0  0  0  0  0  0  0  0  0  0
   18.3224  -14.2317  -16.8503 C   0  0  0  0  0  0  0  0  0  0  0  0
   17.4832  -13.0042  -16.7369 C   0  0  2  0  0  0  0  0  0  0  0  0
   17.0799  -12.4868  -18.1007 C   0  0  0  0  0  0  0  0  0  0  0  0
   18.1265  -11.9689  -15.8878 C   0  0  2  0  0  0  0  0  0  0  0  0
   18.4844  -12.5350  -14.5765 N   0  0  0  0  0  0  0  0  0  0  0  0
   17.3736  -10.7276  -15.6864 C   0  0  0  0  0  0  0  0  0  0  0  0
   16.8553  -10.1019  -16.6379 O   0  0  0  0  0  0  0  0  0  0  0  0
   17.2540   -9.0860  -11.9599 O   0  0  0  0  0  0  0  0  0  0  0  0
   16.1762   -8.7514  -12.7595 C   0  0  0  0  0  0  0  0  0  0  0  0
   16.4907   -8.9444  -14.2420 C   0  0  2  0  0  0  0  0  0  0  0  0
   17.2097  -10.1927  -14.3804 N   0  0  0  0  0  0  0  0  0  0  0  0
   17.3635   -7.8228  -14.6315 C   0  0  0  0  0  0  0  0  0  0  0  0
   18.5996   -7.9571  -14.5917 O   0  0  0  0  0  0  0  0  0  0  0  0
   16.7808   -6.6180  -15.0420 N   0  0  0  0  0  0  0  0  0  0  0  0
   17.6092   -5.5000  -15.4220 C   0  0  1  0  0  0  0  0  0  0  0  0
   17.2066   -5.1286  -16.8266 C   0  0  0  0  0  0  0  0  0  0  0  0
   17.7794   -6.0563  -17.8091 C   0  0  0  0  0  0  0  0  0  0  0  0
   19.0788   -6.2861  -18.1576 C   0  0  0  0  0  0  0  0  0  0  0  0
   19.0735   -7.2300  -19.1096 N   0  0  0  0  0  0  0  0  0  0  0  0
   17.8144   -7.6047  -19.3746 C   0  0  0  0  0  0  0  0  0  0  0  0
   17.0132   -6.8836  -18.5751 N   0  0  0  0  0  0  0  0  0  0  0  0
   17.4833   -4.4056  -14.4519 C   0  0  0  0  0  0  0  0  0  0  0  0
   16.6490   -4.5117  -13.3545 O   0  0  0  0  0  0  0  0  0  0  0  0
   18.1362   -3.3574  -14.6118 O   0  0  0  0  0  0  0  0  0  0  0  0
  2  1  1  0
  2  3  1  0
  3  5  1  0
  3  4  1  6
  5  7  1  0
  5  6  1  1
  7  8  2  0
 10  9  1  0
 11 10  1  1
 12 11  1  0
 12  7  1  0
 13 11  1  0
 14 13  2  0
 15 13  1  0
 16 15  1  0
 16 17  1  6
 18 17  1  0
 19 18  2  0
 20 19  1  0
 21 20  1  0
 21 22  2  0
 22 18  1  0
 23 16  1  0
 23 24  1  0
 25 23  2  0
M  END
$$$$
