ISH.pdb
     RDKit          3D

 25 25  0  0  1  0  0  0  0  0999 V2000
   21.2022  -26.5427  -17.2488 C   0  0  0  0  0  0  0  0  0  0  0  0
   20.2973  -26.0862  -16.1224 C   0  0  0  0  0  0  0  0  0  0  0  0
   20.8656  -26.5736  -14.8327 C   0  0  2  0  0  0  0  0  0  0  0  0
   21.0326  -28.0776  -14.8398 C   0  0  0  0  0  0  0  0  0  0  0  0
   20.0937  -26.0786  -13.6640 C   0  0  2  0  0  0  0  0  0  0  0  0
   20.1304  -24.6074  -13.6146 N   0  0  0  0  0  0  0  0  0  0  0  0
   20.4755  -26.6133  -12.3539 C   0  0  0  0  0  0  0  0  0  0  0  0
   21.4339  -26.1469  -11.6985 O   0  0  0  0  0  0  0  0  0  0  0  0
   18.2593  -29.6132  -10.2158 O   0  0  0  0  0  0  0  0  0  0  0  0
   18.9622  -28.5488   -9.6811 C   0  0  0  0  0  0  0  0  0  0  0  0
   20.2020  -28.2165  -10.5098 C   0  0  2  0  0  0  0  0  0  0  0  0
   19.7532  -27.6956  -11.7833 N   0  0  0  0  0  0  0  0  0  0  0  0
   20.9165  -29.4884  -10.7176 C   0  0  0  0  0  0  0  0  0  0  0  0
   21.3475  -29.7794  -11.8477 O   0  0  0  0  0  0  0  0  0  0  0  0
   21.0983  -30.3520   -9.6310 N   0  0  0  0  0  0  0  0  0  0  0  0
   22.0083  -31.4667   -9.7301 C   0  0  1  0  0  0  0  0  0  0  0  0
   23.3961  -30.8806   -9.7878 C   0  0  0  0  0  0  0  0  0  0  0  0
   24.4217  -31.9253   -9.6831 C   0  0  0  0  0  0  0  0  0  0  0  0
   24.3000  -33.2836   -9.6286 C   0  0  0  0  0  0  0  0  0  0  0  0
   25.5378  -33.7894   -9.5323 N   0  0  0  0  0  0  0  0  0  0  0  0
   26.4378  -32.7966   -9.5241 C   0  0  0  0  0  0  0  0  0  0  0  0
   25.7541  -31.6455   -9.6169 N   0  0  0  0  0  0  0  0  0  0  0  0
   21.7997  -32.4089   -8.6240 C   0  0  0  0  0  0  0  0  0  0  0  0
   21.3463  -31.9788   -7.3907 O   0  0  0  0  0  0  0  0  0  0  0  0
   22.0331  -33.6207   -8.7897 O   0  0  0  0  0  0  0  0  0  0  0  0
  2  1  1  0
  2  3  1  0
  3  5  1  0
  3  4  1  6
  5  7  1  0
  5  6  1  1
  7  8  2  0
 10  9  1  0
 11 10  1  1
 12 11  1  0
 12  7  1  0
 13 11  1  0
 14 13  2  0
 15 13  1  0
 16 15  1  0
 16 17  1  1
 18 17  1  0
 19 18  2  0
 20 19  1  0
 21 20  1  0
 21 22  2  0
 22 18  1  0
 23 16  1  0
 23 24  1  0
 25 23  2  0
M  END
$$$$
