ISH.pdb
     RDKit          3D

 25 25  0  0  1  0  0  0  0  0999 V2000
   28.0160  -11.8226  -16.1067 C   0  0  0  0  0  0  0  0  0  0  0  0
   26.6235  -12.3222  -15.7790 C   0  0  0  0  0  0  0  0  0  0  0  0
   25.6634  -11.1948  -15.9551 C   0  0  2  0  0  0  0  0  0  0  0  0
   26.0052  -10.0351  -15.0450 C   0  0  0  0  0  0  0  0  0  0  0  0
   24.2528  -11.6418  -15.8245 C   0  0  2  0  0  0  0  0  0  0  0  0
   24.0121  -12.8239  -16.6689 N   0  0  0  0  0  0  0  0  0  0  0  0
   23.2204  -10.6378  -16.0973 C   0  0  0  0  0  0  0  0  0  0  0  0
   22.9718  -10.2370  -17.2562 O   0  0  0  0  0  0  0  0  0  0  0  0
   19.8666  -10.4665  -14.1559 O   0  0  0  0  0  0  0  0  0  0  0  0
   20.3620   -9.1818  -14.2873 C   0  0  0  0  0  0  0  0  0  0  0  0
   21.4486   -9.1016  -15.3582 C   0  0  2  0  0  0  0  0  0  0  0  0
   22.4608  -10.0833  -15.0324 N   0  0  0  0  0  0  0  0  0  0  0  0
   22.0228   -7.7475  -15.2675 C   0  0  0  0  0  0  0  0  0  0  0  0
   23.2166   -7.6008  -14.9501 O   0  0  0  0  0  0  0  0  0  0  0  0
   21.2077   -6.6431  -15.5424 N   0  0  0  0  0  0  0  0  0  0  0  0
   21.7897   -5.3370  -15.7323 C   0  0  1  0  0  0  0  0  0  0  0  0
   22.7276   -5.4545  -16.9067 C   0  0  0  0  0  0  0  0  0  0  0  0
   23.3228   -4.1567  -17.2465 C   0  0  0  0  0  0  0  0  0  0  0  0
   22.8853   -3.1745  -18.0871 C   0  0  0  0  0  0  0  0  0  0  0  0
   23.7926   -2.1883  -18.0515 N   0  0  0  0  0  0  0  0  0  0  0  0
   24.7890   -2.5139  -17.2167 C   0  0  0  0  0  0  0  0  0  0  0  0
   24.5035   -3.7268  -16.7181 N   0  0  0  0  0  0  0  0  0  0  0  0
   20.7439   -4.3204  -15.8983 C   0  0  0  0  0  0  0  0  0  0  0  0
   20.9755   -2.9944  -15.5828 O   0  0  0  0  0  0  0  0  0  0  0  0
   19.6233   -4.6487  -16.3306 O   0  0  0  0  0  0  0  0  0  0  0  0
  2  1  1  0
  2  3  1  0
  3  5  1  0
  3  4  1  1
  5  7  1  0
  5  6  1  6
  7  8  2  0
 10  9  1  0
 11 10  1  1
 12 11  1  0
 12  7  1  0
 13 11  1  0
 14 13  2  0
 15 13  1  0
 16 15  1  0
 16 17  1  6
 18 17  1  0
 19 18  2  0
 20 19  1  0
 21 20  1  0
 21 22  2  0
 22 18  1  0
 23 16  1  0
 23 24  1  0
 25 23  2  0
M  END
$$$$
