SYC.pdb
     RDKit          3D

 25 25  0  0  1  0  0  0  0  0999 V2000
    8.4930  -18.1864   20.5773 O   0  0  0  0  0  0  0  0  0  0  0  0
    7.6846  -17.0837   20.4298 C   0  0  0  0  0  0  0  0  0  0  0  0
    8.4619  -15.7862   20.4903 C   0  0  2  0  0  0  0  0  0  0  0  0
    9.3138  -15.6404   19.3434 N   0  0  0  0  0  0  0  0  0  0  0  0
    9.2537  -15.6700   21.7306 C   0  0  0  0  0  0  0  0  0  0  0  0
   10.4968  -15.7811   21.6703 O   0  0  0  0  0  0  0  0  0  0  0  0
   10.7431  -14.8865   30.3533 O   0  0  0  0  0  0  0  0  0  0  0  0
   10.1717  -14.8499   29.0969 C   0  0  0  0  0  0  0  0  0  0  0  0
   10.2474  -13.7052   28.3430 C   0  0  0  0  0  0  0  0  0  0  0  0
    9.6503  -13.7415   27.0899 C   0  0  0  0  0  0  0  0  0  0  0  0
    9.0107  -14.8584   26.6109 C   0  0  0  0  0  0  0  0  0  0  0  0
    8.3989  -14.8453   25.2865 C   0  0  0  0  0  0  0  0  0  0  0  0
    9.3448  -15.3430   24.1945 C   0  0  2  0  0  0  0  0  0  0  0  0
    8.6030  -15.4366   22.9608 N   0  0  0  0  0  0  0  0  0  0  0  0
    9.7502  -16.7049   24.6026 C   0  0  0  0  0  0  0  0  0  0  0  0
    8.9138  -17.6248   24.4641 O   0  0  0  0  0  0  0  0  0  0  0  0
    8.9471  -15.9936   27.3832 C   0  0  0  0  0  0  0  0  0  0  0  0
    9.5381  -15.9830   28.6437 C   0  0  0  0  0  0  0  0  0  0  0  0
   11.0392  -16.9992   25.1390 N   0  0  0  0  0  0  0  0  0  0  0  0
   11.4531  -18.3613   25.4402 C   0  0  1  0  0  0  0  0  0  0  0  0
   12.1267  -19.0248   24.2649 C   0  0  0  0  0  0  0  0  0  0  0  0
   13.3958  -17.8749   23.6547 S   0  0  0  0  0  0  0  0  0  0  0  0
   12.4249  -18.3392   26.5572 C   0  0  0  0  0  0  0  0  0  0  0  0
   12.9154  -19.4812   27.1653 O   0  0  0  0  0  0  0  0  0  0  0  0
   12.8269  -17.2187   26.9766 O   0  0  0  0  0  0  0  0  0  0  0  0
  1  2  1  0
  2  3  1  0
  3  4  1  6
  5  3  1  0
  5  6  2  0
  7  8  1  0
  8  9  2  0
  8 18  1  0
  9 10  1  0
 10 11  2  0
 11 12  1  0
 13 12  1  1
 13 14  1  0
 13 15  1  0
 14  5  1  0
 15 19  1  0
 16 15  2  0
 17 11  1  0
 18 17  2  0
 19 20  1  0
 20 23  1  0
 21 22  1  0
 20 21  1  6
 23 25  2  0
 23 24  1  0
M  END
$$$$
