SYC.pdb
     RDKit          3D

 25 25  0  0  1  0  0  0  0  0999 V2000
    8.2234  -18.6985   20.6292 O   0  0  0  0  0  0  0  0  0  0  0  0
    9.1834  -18.3363   19.7135 C   0  0  0  0  0  0  0  0  0  0  0  0
    9.2857  -16.8351   19.5479 C   0  0  2  0  0  0  0  0  0  0  0  0
   10.3599  -16.4852   18.6614 N   0  0  0  0  0  0  0  0  0  0  0  0
    9.4474  -16.1431   20.8417 C   0  0  0  0  0  0  0  0  0  0  0  0
   10.5864  -16.0627   21.3493 O   0  0  0  0  0  0  0  0  0  0  0  0
    7.0838  -11.8517   28.1301 O   0  0  0  0  0  0  0  0  0  0  0  0
    7.0755  -12.4666   26.8939 C   0  0  0  0  0  0  0  0  0  0  0  0
    6.3749  -13.6333   26.7137 C   0  0  0  0  0  0  0  0  0  0  0  0
    6.4118  -14.1948   25.4443 C   0  0  0  0  0  0  0  0  0  0  0  0
    7.1093  -13.6256   24.4072 C   0  0  0  0  0  0  0  0  0  0  0  0
    7.1163  -14.2556   23.0913 C   0  0  0  0  0  0  0  0  0  0  0  0
    8.4338  -14.9659   22.7840 C   0  0  2  0  0  0  0  0  0  0  0  0
    8.3228  -15.5844   21.4855 N   0  0  0  0  0  0  0  0  0  0  0  0
    8.5643  -16.0307   23.8013 C   0  0  0  0  0  0  0  0  0  0  0  0
    7.7262  -16.9591   23.7797 O   0  0  0  0  0  0  0  0  0  0  0  0
    7.8037  -12.4570   24.6105 C   0  0  0  0  0  0  0  0  0  0  0  0
    7.7827  -11.8738   25.8745 C   0  0  0  0  0  0  0  0  0  0  0  0
    9.5949  -16.0343   24.7881 N   0  0  0  0  0  0  0  0  0  0  0  0
    9.6691  -17.0605   25.8173 C   0  0  1  0  0  0  0  0  0  0  0  0
   10.9535  -17.8480   25.7445 C   0  0  0  0  0  0  0  0  0  0  0  0
   11.0919  -18.4930   24.0504 S   0  0  0  0  0  0  0  0  0  0  0  0
    9.6148  -16.4179   27.1502 C   0  0  0  0  0  0  0  0  0  0  0  0
    9.5881  -17.1260   28.3387 O   0  0  0  0  0  0  0  0  0  0  0  0
    9.5916  -15.1572   27.2047 O   0  0  0  0  0  0  0  0  0  0  0  0
  1  2  1  0
  2  3  1  0
  3  4  1  6
  5  3  1  0
  5  6  2  0
  7  8  1  0
  8  9  2  0
  8 18  1  0
  9 10  1  0
 10 11  2  0
 11 12  1  0
 13 12  1  1
 13 14  1  0
 13 15  1  0
 14  5  1  0
 15 19  1  0
 16 15  2  0
 17 11  1  0
 18 17  2  0
 19 20  1  0
 20 23  1  0
 21 22  1  0
 20 21  1  1
 23 25  2  0
 23 24  1  0
M  END
$$$$
