SYC.pdb
     RDKit          3D

 25 25  0  0  1  0  0  0  0  0999 V2000
    9.6119  -20.6619   21.2797 O   0  0  0  0  0  0  0  0  0  0  0  0
    8.4265  -20.0836   20.8901 C   0  0  0  0  0  0  0  0  0  0  0  0
    8.6360  -18.9133   19.9532 C   0  0  2  0  0  0  0  0  0  0  0  0
    9.3041  -19.3270   18.7512 N   0  0  0  0  0  0  0  0  0  0  0  0
    9.3805  -17.8128   20.5964 C   0  0  0  0  0  0  0  0  0  0  0  0
   10.5748  -17.6224   20.2821 O   0  0  0  0  0  0  0  0  0  0  0  0
    6.8621  -12.2702   17.7066 O   0  0  0  0  0  0  0  0  0  0  0  0
    7.2782  -12.8757   18.8756 C   0  0  0  0  0  0  0  0  0  0  0  0
    8.5127  -12.5802   19.3984 C   0  0  0  0  0  0  0  0  0  0  0  0
    8.8639  -13.2269   20.5759 C   0  0  0  0  0  0  0  0  0  0  0  0
    8.0307  -14.1215   21.2016 C   0  0  0  0  0  0  0  0  0  0  0  0
    8.4470  -14.7748   22.4378 C   0  0  0  0  0  0  0  0  0  0  0  0
    9.4393  -15.9120   22.1992 C   0  0  2  0  0  0  0  0  0  0  0  0
    8.7401  -16.9948   21.5514 N   0  0  0  0  0  0  0  0  0  0  0  0
    9.8641  -16.3641   23.5411 C   0  0  0  0  0  0  0  0  0  0  0  0
    8.9895  -16.8462   24.2944 O   0  0  0  0  0  0  0  0  0  0  0  0
    6.7990  -14.4023   20.6600 C   0  0  0  0  0  0  0  0  0  0  0  0
    6.4230  -13.7669   19.4797 C   0  0  0  0  0  0  0  0  0  0  0  0
   11.2131  -16.2706   23.9968 N   0  0  0  0  0  0  0  0  0  0  0  0
   11.7301  -17.1333   25.0485 C   0  0  1  0  0  0  0  0  0  0  0  0
   11.6738  -18.5918   24.6677 C   0  0  0  0  0  0  0  0  0  0  0  0
   12.2922  -19.5416   26.0892 S   0  0  0  0  0  0  0  0  0  0  0  0
   13.1484  -16.7933   25.3038 C   0  0  0  0  0  0  0  0  0  0  0  0
   13.8803  -15.9262   24.5119 O   0  0  0  0  0  0  0  0  0  0  0  0
   13.7198  -17.3229   26.2968 O   0  0  0  0  0  0  0  0  0  0  0  0
  1  2  1  0
  2  3  1  0
  3  4  1  6
  5  3  1  0
  5  6  2  0
  7  8  1  0
  8  9  2  0
  8 18  1  0
  9 10  1  0
 10 11  2  0
 11 12  1  0
 13 12  1  1
 13 14  1  0
 13 15  1  0
 14  5  1  0
 15 19  1  0
 16 15  2  0
 17 11  1  0
 18 17  2  0
 19 20  1  0
 20 23  1  0
 21 22  1  0
 20 21  1  6
 23 25  2  0
 23 24  1  0
M  END
$$$$
