SYC.pdb
     RDKit          3D

 25 25  0  0  1  0  0  0  0  0999 V2000
    7.6990  -20.5274   21.8706 O   0  0  0  0  0  0  0  0  0  0  0  0
    6.7114  -19.7537   21.3073 C   0  0  0  0  0  0  0  0  0  0  0  0
    7.2436  -18.8330   20.2301 C   0  0  2  0  0  0  0  0  0  0  0  0
    7.6192  -19.5726   19.0577 N   0  0  0  0  0  0  0  0  0  0  0  0
    8.3807  -18.0205   20.7053 C   0  0  0  0  0  0  0  0  0  0  0  0
    9.5441  -18.3859   20.4329 O   0  0  0  0  0  0  0  0  0  0  0  0
    7.0300  -12.2420   17.2494 O   0  0  0  0  0  0  0  0  0  0  0  0
    7.4618  -12.8157   18.4288 C   0  0  0  0  0  0  0  0  0  0  0  0
    8.8060  -12.9485   18.6740 C   0  0  0  0  0  0  0  0  0  0  0  0
    9.1663  -13.5343   19.8803 C   0  0  0  0  0  0  0  0  0  0  0  0
    8.2381  -13.9660   20.7957 C   0  0  0  0  0  0  0  0  0  0  0  0
    8.6686  -14.5754   22.0494 C   0  0  0  0  0  0  0  0  0  0  0  0
    9.2253  -15.9857   21.8594 C   0  0  2  0  0  0  0  0  0  0  0  0
    8.1427  -16.8495   21.4560 N   0  0  0  0  0  0  0  0  0  0  0  0
    9.6967  -16.4158   23.1930 C   0  0  0  0  0  0  0  0  0  0  0  0
    8.8728  -16.3939   24.1341 O   0  0  0  0  0  0  0  0  0  0  0  0
    6.8973  -13.8229   20.5290 C   0  0  0  0  0  0  0  0  0  0  0  0
    6.5098  -13.2385   19.3263 C   0  0  0  0  0  0  0  0  0  0  0  0
   11.0348  -16.8468   23.4376 N   0  0  0  0  0  0  0  0  0  0  0  0
   11.4622  -17.3205   24.7454 C   0  0  1  0  0  0  0  0  0  0  0  0
   11.5599  -18.8247   24.8022 C   0  0  0  0  0  0  0  0  0  0  0  0
   12.4595  -19.3602   23.3159 S   0  0  0  0  0  0  0  0  0  0  0  0
   12.8053  -16.7745   25.0460 C   0  0  0  0  0  0  0  0  0  0  0  0
   13.4317  -16.9190   26.2713 O   0  0  0  0  0  0  0  0  0  0  0  0
   13.4107  -16.1438   24.1356 O   0  0  0  0  0  0  0  0  0  0  0  0
  1  2  1  0
  2  3  1  0
  3  4  1  6
  5  3  1  0
  5  6  2  0
  7  8  1  0
  8  9  2  0
  8 18  1  0
  9 10  1  0
 10 11  2  0
 11 12  1  0
 13 12  1  1
 13 14  1  0
 13 15  1  0
 14  5  1  0
 15 19  1  0
 16 15  2  0
 17 11  1  0
 18 17  2  0
 19 20  1  0
 20 23  1  0
 21 22  1  0
 20 21  1  6
 23 25  2  0
 23 24  1  0
M  END
$$$$
