SYC.pdb
     RDKit          3D

 25 25  0  0  1  0  0  0  0  0999 V2000
    9.3284  -18.8288   20.5548 O   0  0  0  0  0  0  0  0  0  0  0  0
    8.5193  -17.7171   20.5831 C   0  0  0  0  0  0  0  0  0  0  0  0
    9.3113  -16.4283   20.6372 C   0  0  2  0  0  0  0  0  0  0  0  0
   10.2665  -16.3636   19.5668 N   0  0  0  0  0  0  0  0  0  0  0  0
    9.9891  -16.2466   21.9359 C   0  0  0  0  0  0  0  0  0  0  0  0
   11.2248  -16.4184   22.0055 O   0  0  0  0  0  0  0  0  0  0  0  0
   10.7353  -14.8901   30.5826 O   0  0  0  0  0  0  0  0  0  0  0  0
   10.2587  -14.9755   29.2896 C   0  0  0  0  0  0  0  0  0  0  0  0
    9.5357  -16.0746   28.8971 C   0  0  0  0  0  0  0  0  0  0  0  0
    9.0887  -16.0918   27.5826 C   0  0  0  0  0  0  0  0  0  0  0  0
    9.3471  -15.0689   26.7034 C   0  0  0  0  0  0  0  0  0  0  0  0
    8.8546  -15.1352   25.3317 C   0  0  0  0  0  0  0  0  0  0  0  0
    9.8561  -15.7814   24.3756 C   0  0  2  0  0  0  0  0  0  0  0  0
    9.2398  -15.8838   23.0753 N   0  0  0  0  0  0  0  0  0  0  0  0
   10.0856  -17.1464   24.8948 C   0  0  0  0  0  0  0  0  0  0  0  0
    9.1174  -17.9385   24.8917 O   0  0  0  0  0  0  0  0  0  0  0  0
   10.0731  -13.9780   27.1182 C   0  0  0  0  0  0  0  0  0  0  0  0
   10.5328  -13.9365   28.4316 C   0  0  0  0  0  0  0  0  0  0  0  0
   11.3510  -17.5821   25.3899 N   0  0  0  0  0  0  0  0  0  0  0  0
   11.5680  -18.9459   25.8487 C   0  0  1  0  0  0  0  0  0  0  0  0
   12.5028  -19.7091   24.9437 C   0  0  0  0  0  0  0  0  0  0  0  0
   11.6435  -19.9422   23.3587 S   0  0  0  0  0  0  0  0  0  0  0  0
   12.1791  -18.9145   27.1971 C   0  0  0  0  0  0  0  0  0  0  0  0
   12.5530  -17.7472   27.8390 O   0  0  0  0  0  0  0  0  0  0  0  0
   12.3689  -20.0113   27.7921 O   0  0  0  0  0  0  0  0  0  0  0  0
  1  2  1  0
  2  3  1  0
  3  4  1  6
  5  3  1  0
  5  6  2  0
  7  8  1  0
  8  9  2  0
  8 18  1  0
  9 10  1  0
 10 11  2  0
 11 12  1  0
 13 12  1  1
 13 14  1  0
 13 15  1  0
 14  5  1  0
 15 19  1  0
 16 15  2  0
 17 11  1  0
 18 17  2  0
 19 20  1  0
 20 23  1  0
 21 22  1  0
 20 21  1  6
 23 25  2  0
 23 24  1  0
M  END
$$$$
