SYC.pdb
     RDKit          3D

 25 25  0  0  1  0  0  0  0  0999 V2000
    9.9986  -15.6046   20.2550 O   0  0  0  0  0  0  0  0  0  0  0  0
   10.0068  -16.9649   20.0530 C   0  0  0  0  0  0  0  0  0  0  0  0
   10.7560  -17.7052   21.1403 C   0  0  2  0  0  0  0  0  0  0  0  0
   10.7557  -19.1204   20.8961 N   0  0  0  0  0  0  0  0  0  0  0  0
   10.2122  -17.4202   22.4827 C   0  0  0  0  0  0  0  0  0  0  0  0
    9.1329  -17.9483   22.8255 O   0  0  0  0  0  0  0  0  0  0  0  0
   10.3369  -15.3563   30.9563 O   0  0  0  0  0  0  0  0  0  0  0  0
   10.6621  -15.5142   29.6237 C   0  0  0  0  0  0  0  0  0  0  0  0
   11.0009  -16.7549   29.1436 C   0  0  0  0  0  0  0  0  0  0  0  0
   11.3159  -16.8380   27.7938 C   0  0  0  0  0  0  0  0  0  0  0  0
   11.2954  -15.7440   26.9639 C   0  0  0  0  0  0  0  0  0  0  0  0
   11.6349  -15.8845   25.5521 C   0  0  0  0  0  0  0  0  0  0  0  0
   10.4426  -16.3138   24.6982 C   0  0  2  0  0  0  0  0  0  0  0  0
   10.9119  -16.5613   23.3567 N   0  0  0  0  0  0  0  0  0  0  0  0
    9.5290  -15.1519   24.6687 C   0  0  0  0  0  0  0  0  0  0  0  0
    9.8085  -14.2141   23.8894 O   0  0  0  0  0  0  0  0  0  0  0  0
   10.9531  -14.5113   27.4665 C   0  0  0  0  0  0  0  0  0  0  0  0
   10.6329  -14.4012   28.8168 C   0  0  0  0  0  0  0  0  0  0  0  0
    8.3613  -15.0663   25.4843 N   0  0  0  0  0  0  0  0  0  0  0  0
    7.4810  -13.9082   25.4460 C   0  0  1  0  0  0  0  0  0  0  0  0
    6.0248  -14.3006   25.4187 C   0  0  0  0  0  0  0  0  0  0  0  0
    5.0546  -12.7764   25.6199 S   0  0  0  0  0  0  0  0  0  0  0  0
    7.6998  -13.0899   26.6605 C   0  0  0  0  0  0  0  0  0  0  0  0
    7.4664  -11.7272   26.7154 O   0  0  0  0  0  0  0  0  0  0  0  0
    8.1218  -13.6667   27.7009 O   0  0  0  0  0  0  0  0  0  0  0  0
  1  2  1  0
  2  3  1  0
  3  4  1  6
  5  3  1  0
  5  6  2  0
  7  8  1  0
  8  9  2  0
  8 18  1  0
  9 10  1  0
 10 11  2  0
 11 12  1  0
 13 12  1  1
 13 14  1  0
 13 15  1  0
 14  5  1  0
 15 19  1  0
 16 15  2  0
 17 11  1  0
 18 17  2  0
 19 20  1  0
 20 23  1  0
 21 22  1  0
 20 21  1  1
 23 25  2  0
 23 24  1  0
M  END
$$$$
