SYC.pdb
     RDKit          3D

 25 25  0  0  1  0  0  0  0  0999 V2000
   11.8751  -18.9870   22.0007 O   0  0  0  0  0  0  0  0  0  0  0  0
   11.0078  -18.6142   21.0008 C   0  0  0  0  0  0  0  0  0  0  0  0
   11.1320  -17.1479   20.6461 C   0  0  2  0  0  0  0  0  0  0  0  0
   12.4220  -16.8598   20.0845 N   0  0  0  0  0  0  0  0  0  0  0  0
   10.8746  -16.2718   21.8059 C   0  0  0  0  0  0  0  0  0  0  0  0
   11.8312  -15.6643   22.3323 O   0  0  0  0  0  0  0  0  0  0  0  0
    6.2764  -11.4878   27.5224 O   0  0  0  0  0  0  0  0  0  0  0  0
    6.6563  -12.3350   26.5005 C   0  0  0  0  0  0  0  0  0  0  0  0
    7.2952  -11.8313   25.3947 C   0  0  0  0  0  0  0  0  0  0  0  0
    7.6474  -12.7420   24.4074 C   0  0  0  0  0  0  0  0  0  0  0  0
    7.3785  -14.0845   24.5140 C   0  0  0  0  0  0  0  0  0  0  0  0
    7.7697  -15.0005   23.4480 C   0  0  0  0  0  0  0  0  0  0  0  0
    9.2734  -15.2713   23.4248 C   0  0  2  0  0  0  0  0  0  0  0  0
    9.5615  -16.1315   22.3032 N   0  0  0  0  0  0  0  0  0  0  0  0
    9.5689  -16.0102   24.6707 C   0  0  0  0  0  0  0  0  0  0  0  0
    9.4051  -17.2504   24.6622 O   0  0  0  0  0  0  0  0  0  0  0  0
    6.7378  -14.5667   25.6303 C   0  0  0  0  0  0  0  0  0  0  0  0
    6.3740  -13.6740   26.6347 C   0  0  0  0  0  0  0  0  0  0  0  0
   10.0262  -15.3678   25.8600 N   0  0  0  0  0  0  0  0  0  0  0  0
   10.6433  -16.1132   26.9468 C   0  0  1  0  0  0  0  0  0  0  0  0
   11.3231  -15.2081   27.9439 C   0  0  0  0  0  0  0  0  0  0  0  0
   10.1196  -13.9298   28.4155 S   0  0  0  0  0  0  0  0  0  0  0  0
    9.5984  -16.8711   27.6723 C   0  0  0  0  0  0  0  0  0  0  0  0
    9.8724  -17.7611   28.6957 O   0  0  0  0  0  0  0  0  0  0  0  0
    8.3937  -16.6955   27.3390 O   0  0  0  0  0  0  0  0  0  0  0  0
  1  2  1  0
  2  3  1  0
  3  4  1  1
  5  3  1  0
  5  6  2  0
  7  8  1  0
  8  9  2  0
  8 18  1  0
  9 10  1  0
 10 11  2  0
 11 12  1  0
 13 12  1  1
 13 14  1  0
 13 15  1  0
 14  5  1  0
 15 19  1  0
 16 15  2  0
 17 11  1  0
 18 17  2  0
 19 20  1  0
 20 23  1  0
 21 22  1  0
 20 21  1  1
 23 25  2  0
 23 24  1  0
M  END
$$$$
