SYC.pdb
     RDKit          3D

 25 25  0  0  1  0  0  0  0  0999 V2000
   11.7258  -18.7446   23.8716 O   0  0  0  0  0  0  0  0  0  0  0  0
   10.7837  -19.1229   22.9439 C   0  0  0  0  0  0  0  0  0  0  0  0
   10.5125  -18.0395   21.9221 C   0  0  2  0  0  0  0  0  0  0  0  0
   11.5785  -17.9552   20.9634 N   0  0  0  0  0  0  0  0  0  0  0  0
   10.2901  -16.7237   22.5529 C   0  0  0  0  0  0  0  0  0  0  0  0
   11.1794  -15.8503   22.4660 O   0  0  0  0  0  0  0  0  0  0  0  0
    5.8945  -10.4876   26.9122 O   0  0  0  0  0  0  0  0  0  0  0  0
    6.2542  -11.6168   26.2036 C   0  0  0  0  0  0  0  0  0  0  0  0
    6.9615  -11.4948   25.0333 C   0  0  0  0  0  0  0  0  0  0  0  0
    7.2883  -12.6728   24.3749 C   0  0  0  0  0  0  0  0  0  0  0  0
    6.9305  -13.9086   24.8551 C   0  0  0  0  0  0  0  0  0  0  0  0
    7.2985  -15.1170   24.1251 C   0  0  0  0  0  0  0  0  0  0  0  0
    8.7819  -15.1576   23.7608 C   0  0  2  0  0  0  0  0  0  0  0  0
    9.0850  -16.4690   23.2417 N   0  0  0  0  0  0  0  0  0  0  0  0
    9.5141  -14.9755   25.0320 C   0  0  0  0  0  0  0  0  0  0  0  0
    9.7005  -13.8047   25.4313 O   0  0  0  0  0  0  0  0  0  0  0  0
    6.2224  -14.0069   26.0291 C   0  0  0  0  0  0  0  0  0  0  0  0
    5.8822  -12.8404   26.7086 C   0  0  0  0  0  0  0  0  0  0  0  0
   10.0060  -16.0701   25.8040 N   0  0  0  0  0  0  0  0  0  0  0  0
   10.6162  -15.8756   27.1107 C   0  0  1  0  0  0  0  0  0  0  0  0
    9.6709  -15.2242   28.0892 C   0  0  0  0  0  0  0  0  0  0  0  0
   10.6004  -14.9413   29.6258 S   0  0  0  0  0  0  0  0  0  0  0  0
   10.9998  -17.1919   27.6698 C   0  0  0  0  0  0  0  0  0  0  0  0
   10.6971  -18.3974   27.0616 O   0  0  0  0  0  0  0  0  0  0  0  0
   11.6367  -17.2152   28.7592 O   0  0  0  0  0  0  0  0  0  0  0  0
  1  2  1  0
  2  3  1  0
  3  4  1  6
  5  3  1  0
  5  6  2  0
  7  8  1  0
  8  9  2  0
  8 18  1  0
  9 10  1  0
 10 11  2  0
 11 12  1  0
 13 12  1  1
 13 14  1  0
 13 15  1  0
 14  5  1  0
 15 19  1  0
 16 15  2  0
 17 11  1  0
 18 17  2  0
 19 20  1  0
 20 23  1  0
 21 22  1  0
 20 21  1  1
 23 25  2  0
 23 24  1  0
M  END
$$$$
