SYC.pdb
     RDKit          3D

 25 25  0  0  1  0  0  0  0  0999 V2000
    7.1940  -17.1336   20.6880 O   0  0  0  0  0  0  0  0  0  0  0  0
    7.4511  -16.0880   19.8325 C   0  0  0  0  0  0  0  0  0  0  0  0
    7.4211  -14.7473   20.5345 C   0  0  2  0  0  0  0  0  0  0  0  0
    7.7352  -13.6810   19.6253 N   0  0  0  0  0  0  0  0  0  0  0  0
    8.3294  -14.7086   21.6975 C   0  0  0  0  0  0  0  0  0  0  0  0
    9.5394  -14.4561   21.5151 O   0  0  0  0  0  0  0  0  0  0  0  0
   10.6980  -14.2945   30.1281 O   0  0  0  0  0  0  0  0  0  0  0  0
    9.9758  -14.4485   28.9614 C   0  0  0  0  0  0  0  0  0  0  0  0
    9.5895  -15.7016   28.5552 C   0  0  0  0  0  0  0  0  0  0  0  0
    8.8661  -15.7799   27.3725 C   0  0  0  0  0  0  0  0  0  0  0  0
    8.5433  -14.6695   26.6318 C   0  0  0  0  0  0  0  0  0  0  0  0
    7.7809  -14.8055   25.3954 C   0  0  0  0  0  0  0  0  0  0  0  0
    8.6724  -14.8660   24.1559 C   0  0  2  0  0  0  0  0  0  0  0  0
    7.8247  -14.9552   22.9921 N   0  0  0  0  0  0  0  0  0  0  0  0
    9.4413  -16.1232   24.2737 C   0  0  0  0  0  0  0  0  0  0  0  0
    8.8226  -17.1985   24.1131 O   0  0  0  0  0  0  0  0  0  0  0  0
    8.9405  -13.4245   27.0577 C   0  0  0  0  0  0  0  0  0  0  0  0
    9.6671  -13.3190   28.2406 C   0  0  0  0  0  0  0  0  0  0  0  0
   10.8391  -16.1501   24.5590 N   0  0  0  0  0  0  0  0  0  0  0  0
   11.6298  -17.3629   24.4118 C   0  0  1  0  0  0  0  0  0  0  0  0
   12.9100  -17.1192   23.6522 C   0  0  0  0  0  0  0  0  0  0  0  0
   13.6616  -15.6122   24.3371 S   0  0  0  0  0  0  0  0  0  0  0  0
   11.9969  -17.8706   25.7534 C   0  0  0  0  0  0  0  0  0  0  0  0
   11.6402  -17.2401   26.9324 O   0  0  0  0  0  0  0  0  0  0  0  0
   12.6710  -18.9352   25.8249 O   0  0  0  0  0  0  0  0  0  0  0  0
  1  2  1  0
  2  3  1  0
  3  4  1  6
  5  3  1  0
  5  6  2  0
  7  8  1  0
  8  9  2  0
  8 18  1  0
  9 10  1  0
 10 11  2  0
 11 12  1  0
 13 12  1  1
 13 14  1  0
 13 15  1  0
 14  5  1  0
 15 19  1  0
 16 15  2  0
 17 11  1  0
 18 17  2  0
 19 20  1  0
 20 23  1  0
 21 22  1  0
 20 21  1  6
 23 25  2  0
 23 24  1  0
M  END
$$$$
