SYC.pdb
     RDKit          3D

 25 25  0  0  1  0  0  0  0  0999 V2000
    7.8815  -20.3755   21.9098 O   0  0  0  0  0  0  0  0  0  0  0  0
    6.8039  -21.1506   22.2692 C   0  0  0  0  0  0  0  0  0  0  0  0
    6.1026  -20.6268   23.5042 C   0  0  2  0  0  0  0  0  0  0  0  0
    4.9423  -21.4148   23.8128 N   0  0  0  0  0  0  0  0  0  0  0  0
    5.7312  -19.2044   23.3711 C   0  0  0  0  0  0  0  0  0  0  0  0
    4.6304  -18.9095   22.8586 O   0  0  0  0  0  0  0  0  0  0  0  0
   10.3122  -18.6398   28.2056 O   0  0  0  0  0  0  0  0  0  0  0  0
    9.3501  -18.0316   27.4241 C   0  0  0  0  0  0  0  0  0  0  0  0
    8.0567  -18.4911   27.4485 C   0  0  0  0  0  0  0  0  0  0  0  0
    7.1436  -17.8310   26.6370 C   0  0  0  0  0  0  0  0  0  0  0  0
    7.4979  -16.7688   25.8420 C   0  0  0  0  0  0  0  0  0  0  0  0
    6.5000  -16.1090   25.0070 C   0  0  0  0  0  0  0  0  0  0  0  0
    6.3069  -16.8020   23.6589 C   0  0  2  0  0  0  0  0  0  0  0  0
    6.6164  -18.2017   23.8207 N   0  0  0  0  0  0  0  0  0  0  0  0
    7.3073  -16.2022   22.7507 C   0  0  0  0  0  0  0  0  0  0  0  0
    8.2986  -16.8986   22.4388 O   0  0  0  0  0  0  0  0  0  0  0  0
    8.7990  -16.3256   25.8334 C   0  0  0  0  0  0  0  0  0  0  0  0
    9.7341  -16.9705   26.6384 C   0  0  0  0  0  0  0  0  0  0  0  0
    7.1820  -14.8805   22.2279 N   0  0  0  0  0  0  0  0  0  0  0  0
    7.8640  -14.4682   21.0103 C   0  0  1  0  0  0  0  0  0  0  0  0
    7.4800  -13.0722   20.5874 C   0  0  0  0  0  0  0  0  0  0  0  0
    8.4826  -12.6588   19.1283 S   0  0  0  0  0  0  0  0  0  0  0  0
    9.3261  -14.4771   21.2443 C   0  0  0  0  0  0  0  0  0  0  0  0
   10.2578  -14.7013   20.2462 O   0  0  0  0  0  0  0  0  0  0  0  0
    9.7443  -14.2692   22.4169 O   0  0  0  0  0  0  0  0  0  0  0  0
  1  2  1  0
  2  3  1  0
  3  4  1  6
  5  3  1  0
  5  6  2  0
  7  8  1  0
  8  9  2  0
  8 18  1  0
  9 10  1  0
 10 11  2  0
 11 12  1  0
 13 12  1  1
 13 14  1  0
 13 15  1  0
 14  5  1  0
 15 19  1  0
 16 15  2  0
 17 11  1  0
 18 17  2  0
 19 20  1  0
 20 23  1  0
 21 22  1  0
 20 21  1  1
 23 25  2  0
 23 24  1  0
M  END
$$$$
