SYC.pdb
     RDKit          3D

 25 25  0  0  1  0  0  0  0  0999 V2000
    8.4719  -18.1119   20.3693 O   0  0  0  0  0  0  0  0  0  0  0  0
    7.4194  -17.2270   20.3547 C   0  0  0  0  0  0  0  0  0  0  0  0
    7.8780  -15.7845   20.3702 C   0  0  2  0  0  0  0  0  0  0  0  0
    8.5897  -15.4558   19.1670 N   0  0  0  0  0  0  0  0  0  0  0  0
    8.7075  -15.4778   21.5522 C   0  0  0  0  0  0  0  0  0  0  0  0
    9.9395  -15.3282   21.4073 O   0  0  0  0  0  0  0  0  0  0  0  0
   10.6092  -14.3599   30.0546 O   0  0  0  0  0  0  0  0  0  0  0  0
    9.9472  -14.5117   28.8525 C   0  0  0  0  0  0  0  0  0  0  0  0
    9.4880  -15.7491   28.4748 C   0  0  0  0  0  0  0  0  0  0  0  0
    8.8318  -15.8263   27.2535 C   0  0  0  0  0  0  0  0  0  0  0  0
    8.6418  -14.7297   26.4490 C   0  0  0  0  0  0  0  0  0  0  0  0
    7.9455  -14.8638   25.1740 C   0  0  0  0  0  0  0  0  0  0  0  0
    8.8949  -15.1406   24.0092 C   0  0  2  0  0  0  0  0  0  0  0  0
    8.1043  -15.3578   22.8223 N   0  0  0  0  0  0  0  0  0  0  0  0
    9.5901  -16.4008   24.3469 C   0  0  0  0  0  0  0  0  0  0  0  0
    8.9415  -17.4658   24.2467 O   0  0  0  0  0  0  0  0  0  0  0  0
    9.1102  -13.5003   26.8473 C   0  0  0  0  0  0  0  0  0  0  0  0
    9.7717  -13.3963   28.0678 C   0  0  0  0  0  0  0  0  0  0  0  0
   10.9506  -16.4419   24.7752 N   0  0  0  0  0  0  0  0  0  0  0  0
   11.6698  -17.6975   24.9291 C   0  0  1  0  0  0  0  0  0  0  0  0
   12.8514  -17.7949   23.9965 C   0  0  0  0  0  0  0  0  0  0  0  0
   13.7650  -16.2282   24.1229 S   0  0  0  0  0  0  0  0  0  0  0  0
   12.1850  -17.7970   26.3138 C   0  0  0  0  0  0  0  0  0  0  0  0
   12.8419  -18.9109   26.8059 O   0  0  0  0  0  0  0  0  0  0  0  0
   12.0155  -16.8130   27.0859 O   0  0  0  0  0  0  0  0  0  0  0  0
  1  2  1  0
  2  3  1  0
  3  4  1  6
  5  3  1  0
  5  6  2  0
  7  8  1  0
  8  9  2  0
  8 18  1  0
  9 10  1  0
 10 11  2  0
 11 12  1  0
 13 12  1  1
 13 14  1  0
 13 15  1  0
 14  5  1  0
 15 19  1  0
 16 15  2  0
 17 11  1  0
 18 17  2  0
 19 20  1  0
 20 23  1  0
 21 22  1  0
 20 21  1  6
 23 25  2  0
 23 24  1  0
M  END
$$$$
