SYC.pdb
     RDKit          3D

 25 25  0  0  1  0  0  0  0  0999 V2000
    8.6776  -18.8811   20.5469 O   0  0  0  0  0  0  0  0  0  0  0  0
    9.5597  -18.4398   19.5886 C   0  0  0  0  0  0  0  0  0  0  0  0
    9.4577  -16.9479   19.3538 C   0  0  2  0  0  0  0  0  0  0  0  0
   10.4362  -16.5070   18.3996 N   0  0  0  0  0  0  0  0  0  0  0  0
    9.5857  -16.1780   20.6068 C   0  0  0  0  0  0  0  0  0  0  0  0
   10.7260  -15.9277   21.0521 O   0  0  0  0  0  0  0  0  0  0  0  0
    6.9517  -12.1231   27.9398 O   0  0  0  0  0  0  0  0  0  0  0  0
    7.0101  -12.6901   26.6822 C   0  0  0  0  0  0  0  0  0  0  0  0
    7.6515  -12.0312   25.6629 C   0  0  0  0  0  0  0  0  0  0  0  0
    7.6704  -12.6614   24.4257 C   0  0  0  0  0  0  0  0  0  0  0  0
    7.0819  -13.8838   24.2128 C   0  0  0  0  0  0  0  0  0  0  0  0
    7.1298  -14.5041   22.8932 C   0  0  0  0  0  0  0  0  0  0  0  0
    8.5152  -15.0472   22.5462 C   0  0  2  0  0  0  0  0  0  0  0  0
    8.4278  -15.7371   21.2823 N   0  0  0  0  0  0  0  0  0  0  0  0
    8.8359  -16.0348   23.5985 C   0  0  0  0  0  0  0  0  0  0  0  0
    8.2597  -17.1440   23.5478 O   0  0  0  0  0  0  0  0  0  0  0  0
    6.4451  -14.5254   25.2482 C   0  0  0  0  0  0  0  0  0  0  0  0
    6.4121  -13.9145   26.4988 C   0  0  0  0  0  0  0  0  0  0  0  0
    9.7633  -15.7698   24.6500 N   0  0  0  0  0  0  0  0  0  0  0  0
   10.1476  -16.7927   25.6111 C   0  0  1  0  0  0  0  0  0  0  0  0
   11.6281  -16.7754   25.8997 C   0  0  0  0  0  0  0  0  0  0  0  0
   11.9386  -18.0229   27.1851 S   0  0  0  0  0  0  0  0  0  0  0  0
    9.4411  -16.5496   26.8895 C   0  0  0  0  0  0  0  0  0  0  0  0
    9.4511  -15.3328   27.5481 O   0  0  0  0  0  0  0  0  0  0  0  0
    8.7954  -17.5035   27.4054 O   0  0  0  0  0  0  0  0  0  0  0  0
  1  2  1  0
  2  3  1  0
  3  4  1  6
  5  3  1  0
  5  6  2  0
  7  8  1  0
  8  9  2  0
  8 18  1  0
  9 10  1  0
 10 11  2  0
 11 12  1  0
 13 12  1  1
 13 14  1  0
 13 15  1  0
 14  5  1  0
 15 19  1  0
 16 15  2  0
 17 11  1  0
 18 17  2  0
 19 20  1  0
 20 23  1  0
 21 22  1  0
 20 21  1  1
 23 25  2  0
 23 24  1  0
M  END
$$$$
