SYC.pdb
     RDKit          3D

 25 25  0  0  1  0  0  0  0  0999 V2000
   14.8991  -20.7577   15.4210 O   0  0  0  0  0  0  0  0  0  0  0  0
   15.2339  -21.8201   14.6145 C   0  0  0  0  0  0  0  0  0  0  0  0
   14.2327  -22.9517   14.7057 C   0  0  2  0  0  0  0  0  0  0  0  0
   12.9006  -22.4856   14.4401 N   0  0  0  0  0  0  0  0  0  0  0  0
   14.2821  -23.6333   16.0141 C   0  0  0  0  0  0  0  0  0  0  0  0
   13.2215  -24.0639   16.5150 O   0  0  0  0  0  0  0  0  0  0  0  0
   15.6220  -30.1798   14.9865 O   0  0  0  0  0  0  0  0  0  0  0  0
   15.9261  -29.0088   15.6518 C   0  0  0  0  0  0  0  0  0  0  0  0
   16.4010  -27.9270   14.9526 C   0  0  0  0  0  0  0  0  0  0  0  0
   16.6853  -26.7837   15.6875 C   0  0  0  0  0  0  0  0  0  0  0  0
   16.5067  -26.7190   17.0476 C   0  0  0  0  0  0  0  0  0  0  0  0
   16.8205  -25.4933   17.7738 C   0  0  0  0  0  0  0  0  0  0  0  0
   15.6198  -24.5562   17.8968 C   0  0  2  0  0  0  0  0  0  0  0  0
   15.5169  -23.7897   16.6791 N   0  0  0  0  0  0  0  0  0  0  0  0
   15.9408  -23.6335   19.0063 C   0  0  0  0  0  0  0  0  0  0  0  0
   16.2952  -22.4710   18.7097 O   0  0  0  0  0  0  0  0  0  0  0  0
   16.0300  -27.8145   17.7272 C   0  0  0  0  0  0  0  0  0  0  0  0
   15.7373  -28.9734   17.0134 C   0  0  0  0  0  0  0  0  0  0  0  0
   15.8614  -24.0176   20.3782 N   0  0  0  0  0  0  0  0  0  0  0  0
   16.0510  -23.0589   21.4565 C   0  0  1  0  0  0  0  0  0  0  0  0
   14.9897  -21.9871   21.4586 C   0  0  0  0  0  0  0  0  0  0  0  0
   15.3688  -20.8597   22.8335 S   0  0  0  0  0  0  0  0  0  0  0  0
   15.9740  -23.7656   22.7554 C   0  0  0  0  0  0  0  0  0  0  0  0
   16.8262  -23.5105   23.8152 O   0  0  0  0  0  0  0  0  0  0  0  0
   15.0833  -24.6475   22.9033 O   0  0  0  0  0  0  0  0  0  0  0  0
  1  2  1  0
  2  3  1  0
  3  4  1  1
  5  3  1  0
  5  6  2  0
  7  8  1  0
  8  9  2  0
  8 18  1  0
  9 10  1  0
 10 11  2  0
 11 12  1  0
 13 12  1  6
 13 14  1  0
 13 15  1  0
 14  5  1  0
 15 19  1  0
 16 15  2  0
 17 11  1  0
 18 17  2  0
 19 20  1  0
 20 23  1  0
 21 22  1  0
 20 21  1  1
 23 25  2  0
 23 24  1  0
M  END
$$$$
