LVL.pdb
     RDKit          3D

 24 23  0  0  1  0  0  0  0  0999 V2000
    5.5929  -12.0362   24.6250 C   0  0  0  0  0  0  0  0  0  0  0  0
    5.4389  -12.4775   26.0557 C   0  0  2  0  0  0  0  0  0  0  0  0
    5.7704  -11.3370   26.9606 C   0  0  0  0  0  0  0  0  0  0  0  0
    6.3472  -13.6856   26.3081 C   0  0  0  0  0  0  0  0  0  0  0  0
    5.9084  -14.7547   25.3398 C   0  0  2  0  0  0  0  0  0  0  0  0
    5.1501  -15.7400   26.0832 N   0  0  0  0  0  0  0  0  0  0  0  0
    7.0525  -15.4447   24.7036 C   0  0  0  0  0  0  0  0  0  0  0  0
    7.6179  -16.4552   25.2219 O   0  0  0  0  0  0  0  0  0  0  0  0
    7.7537  -15.4510   20.5631 C   0  0  0  0  0  0  0  0  0  0  0  0
    8.9354  -15.1913   21.4457 C   0  0  2  0  0  0  0  0  0  0  0  0
   10.1018  -15.9762   20.8149 C   0  0  0  0  0  0  0  0  0  0  0  0
    8.7673  -15.6626   22.8456 C   0  0  2  0  0  0  0  0  0  0  0  0
    7.5943  -15.0167   23.4636 N   0  0  0  0  0  0  0  0  0  0  0  0
    9.9558  -15.4193   23.7073 C   0  0  0  0  0  0  0  0  0  0  0  0
   10.3247  -14.2354   23.9804 O   0  0  0  0  0  0  0  0  0  0  0  0
   11.0166  -13.6853   27.6623 C   0  0  0  0  0  0  0  0  0  0  0  0
   10.8345  -15.1650   27.7457 C   0  0  1  0  0  0  0  0  0  0  0  0
    9.8965  -15.5185   28.9082 C   0  0  0  0  0  0  0  0  0  0  0  0
   10.4900  -15.8959   26.5207 C   0  0  0  0  0  0  0  0  0  0  0  0
   11.5341  -16.2282   25.5036 C   0  0  2  0  0  0  0  0  0  0  0  0
   10.7260  -16.4487   24.2653 N   0  0  0  0  0  0  0  0  0  0  0  0
   12.3581  -17.3885   25.7608 C   0  0  0  0  0  0  0  0  0  0  0  0
   13.6478  -17.3112   26.2140 O   0  0  0  0  0  0  0  0  0  0  0  0
   11.8880  -18.5520   25.5574 O   0  0  0  0  0  0  0  0  0  0  0  0
  2  1  1  6
  2  3  1  0
  4  2  1  0
  4  5  1  0
  5  7  1  0
  5  6  1  1
  7  8  2  0
 10  9  1  6
 10 12  1  0
 10 11  1  0
 13  7  1  0
 12 13  1  1
 14 15  2  0
 14 12  1  0
 17 16  1  6
 17 19  1  0
 18 17  1  0
 20 19  1  1
 20 21  1  0
 21 14  1  0
 22 20  1  0
 22 23  1  0
 24 22  2  0
M  END
$$$$
