LVL.pdb
     RDKit          3D

 24 23  0  0  1  0  0  0  0  0999 V2000
    9.6260  -13.4170   19.3935 C   0  0  0  0  0  0  0  0  0  0  0  0
    8.1799  -13.3015   18.9923 C   0  0  2  0  0  0  0  0  0  0  0  0
    7.7911  -11.8602   18.9641 C   0  0  0  0  0  0  0  0  0  0  0  0
    7.3212  -14.1025   19.9766 C   0  0  0  0  0  0  0  0  0  0  0  0
    7.9241  -15.4831   20.0381 C   0  0  2  0  0  0  0  0  0  0  0  0
    7.1654  -16.3367   19.1469 N   0  0  0  0  0  0  0  0  0  0  0  0
    7.8585  -16.0682   21.3957 C   0  0  0  0  0  0  0  0  0  0  0  0
    6.7623  -16.2872   21.9956 O   0  0  0  0  0  0  0  0  0  0  0  0
    9.4435  -19.3522   22.4945 C   0  0  0  0  0  0  0  0  0  0  0  0
    9.8518  -18.2780   23.4547 C   0  0  2  0  0  0  0  0  0  0  0  0
    9.7604  -18.9183   24.8533 C   0  0  0  0  0  0  0  0  0  0  0  0
    8.9731  -17.0788   23.4394 C   0  0  2  0  0  0  0  0  0  0  0  0
    9.0267  -16.4245   22.1187 N   0  0  0  0  0  0  0  0  0  0  0  0
    9.3106  -16.0744   24.4840 C   0  0  0  0  0  0  0  0  0  0  0  0
   10.4131  -15.4457   24.4441 O   0  0  0  0  0  0  0  0  0  0  0  0
    5.6022  -12.7087   26.6902 C   0  0  0  0  0  0  0  0  0  0  0  0
    6.9226  -13.2373   26.2352 C   0  0  1  0  0  0  0  0  0  0  0  0
    7.8437  -12.0798   25.8254 C   0  0  0  0  0  0  0  0  0  0  0  0
    7.6135  -14.2143   27.0847 C   0  0  0  0  0  0  0  0  0  0  0  0
    8.8984  -14.8414   26.6478 C   0  0  2  0  0  0  0  0  0  0  0  0
    8.4590  -15.7575   25.5512 N   0  0  0  0  0  0  0  0  0  0  0  0
    9.6371  -15.5892   27.6409 C   0  0  0  0  0  0  0  0  0  0  0  0
    9.5169  -16.9428   27.8081 O   0  0  0  0  0  0  0  0  0  0  0  0
   10.4412  -14.9824   28.4164 O   0  0  0  0  0  0  0  0  0  0  0  0
  2  1  1  1
  2  3  1  0
  4  2  1  0
  4  5  1  0
  5  7  1  0
  5  6  1  6
  7  8  2  0
 10  9  1  6
 10 12  1  0
 10 11  1  0
 13  7  1  0
 12 13  1  6
 14 15  2  0
 14 12  1  0
 17 16  1  1
 17 19  1  0
 18 17  1  0
 20 19  1  1
 20 21  1  0
 21 14  1  0
 22 20  1  0
 22 23  1  0
 24 22  2  0
M  END
$$$$
