LVL.pdb
     RDKit          3D

 24 23  0  0  1  0  0  0  0  0999 V2000
    9.8821  -13.0519   19.2881 C   0  0  0  0  0  0  0  0  0  0  0  0
    8.5118  -13.1486   18.6729 C   0  0  2  0  0  0  0  0  0  0  0  0
    7.8302  -11.8245   18.7797 C   0  0  0  0  0  0  0  0  0  0  0  0
    7.7211  -14.2535   19.3816 C   0  0  0  0  0  0  0  0  0  0  0  0
    8.6139  -15.4683   19.3989 C   0  0  2  0  0  0  0  0  0  0  0  0
    8.1358  -16.3825   18.3819 N   0  0  0  0  0  0  0  0  0  0  0  0
    8.5814  -16.1747   20.6988 C   0  0  0  0  0  0  0  0  0  0  0  0
    7.5148  -16.6509   21.1937 O   0  0  0  0  0  0  0  0  0  0  0  0
   10.6965  -19.1961   21.9986 C   0  0  0  0  0  0  0  0  0  0  0  0
   10.8359  -18.0098   22.9020 C   0  0  2  0  0  0  0  0  0  0  0  0
   10.8369  -18.5795   24.3337 C   0  0  0  0  0  0  0  0  0  0  0  0
    9.7237  -17.0288   22.7978 C   0  0  2  0  0  0  0  0  0  0  0  0
    9.7504  -16.3659   21.4806 N   0  0  0  0  0  0  0  0  0  0  0  0
    9.7430  -15.9852   23.8582 C   0  0  0  0  0  0  0  0  0  0  0  0
   10.6880  -15.1390   23.9152 O   0  0  0  0  0  0  0  0  0  0  0  0
    8.0219  -11.9381   27.0085 C   0  0  0  0  0  0  0  0  0  0  0  0
    7.2239  -13.2000   26.9833 C   0  0  1  0  0  0  0  0  0  0  0  0
    5.7233  -12.8782   27.0106 C   0  0  0  0  0  0  0  0  0  0  0  0
    7.5501  -14.2119   25.9718 C   0  0  0  0  0  0  0  0  0  0  0  0
    8.8824  -14.8901   25.9635 C   0  0  2  0  0  0  0  0  0  0  0  0
    8.7470  -15.8633   24.8368 N   0  0  0  0  0  0  0  0  0  0  0  0
    9.2725  -15.5897   27.1675 C   0  0  0  0  0  0  0  0  0  0  0  0
    8.8503  -16.8557   27.4736 O   0  0  0  0  0  0  0  0  0  0  0  0
   10.0407  -15.0206   28.0054 O   0  0  0  0  0  0  0  0  0  0  0  0
  2  1  1  1
  2  3  1  0
  4  2  1  0
  4  5  1  0
  5  7  1  0
  5  6  1  6
  7  8  2  0
 10  9  1  6
 10 12  1  0
 10 11  1  0
 13  7  1  0
 12 13  1  6
 14 15  2  0
 14 12  1  0
 17 16  1  6
 17 19  1  0
 18 17  1  0
 20 19  1  1
 20 21  1  0
 21 14  1  0
 22 20  1  0
 22 23  1  0
 24 22  2  0
M  END
$$$$
