LVL.pdb
     RDKit          3D

 24 23  0  0  1  0  0  0  0  0999 V2000
    4.8998  -19.6413   23.5884 C   0  0  0  0  0  0  0  0  0  0  0  0
    6.3632  -19.9858   23.5170 C   0  0  2  0  0  0  0  0  0  0  0  0
    6.5925  -21.2995   24.1885 C   0  0  0  0  0  0  0  0  0  0  0  0
    7.1748  -18.8634   24.1726 C   0  0  0  0  0  0  0  0  0  0  0  0
    6.8282  -17.5996   23.4271 C   0  0  2  0  0  0  0  0  0  0  0  0
    7.2731  -17.7581   22.0576 N   0  0  0  0  0  0  0  0  0  0  0  0
    7.5020  -16.4085   23.9905 C   0  0  0  0  0  0  0  0  0  0  0  0
    8.6832  -16.0739   23.6707 O   0  0  0  0  0  0  0  0  0  0  0  0
    5.9425  -12.6523   25.1556 C   0  0  0  0  0  0  0  0  0  0  0  0
    6.6163  -13.4970   26.1925 C   0  0  2  0  0  0  0  0  0  0  0  0
    7.3963  -12.5116   27.0842 C   0  0  0  0  0  0  0  0  0  0  0  0
    7.5827  -14.4840   25.6426 C   0  0  2  0  0  0  0  0  0  0  0  0
    6.8649  -15.5584   24.9315 N   0  0  0  0  0  0  0  0  0  0  0  0
    8.4640  -15.0984   26.6721 C   0  0  0  0  0  0  0  0  0  0  0  0
    7.9811  -15.8637   27.5629 O   0  0  0  0  0  0  0  0  0  0  0  0
   11.3995  -17.5178   25.5959 C   0  0  0  0  0  0  0  0  0  0  0  0
   12.3867  -16.8819   26.5183 C   0  0  1  0  0  0  0  0  0  0  0  0
   13.7612  -16.7900   25.8412 C   0  0  0  0  0  0  0  0  0  0  0  0
   12.0153  -15.6255   27.1794 C   0  0  0  0  0  0  0  0  0  0  0  0
   10.6782  -15.4634   27.8281 C   0  0  2  0  0  0  0  0  0  0  0  0
    9.8482  -14.8859   26.7268 N   0  0  0  0  0  0  0  0  0  0  0  0
   10.6100  -14.6059   28.9905 C   0  0  0  0  0  0  0  0  0  0  0  0
   10.3148  -13.2705   28.9255 O   0  0  0  0  0  0  0  0  0  0  0  0
   10.8384  -15.0896   30.1438 O   0  0  0  0  0  0  0  0  0  0  0  0
  2  1  1  1
  2  3  1  0
  4  2  1  0
  4  5  1  0
  5  7  1  0
  5  6  1  6
  7  8  2  0
 10  9  1  6
 10 12  1  0
 10 11  1  0
 13  7  1  0
 12 13  1  1
 14 15  2  0
 14 12  1  0
 17 16  1  6
 17 19  1  0
 18 17  1  0
 20 19  1  6
 20 21  1  0
 21 14  1  0
 22 20  1  0
 22 23  1  0
 24 22  2  0
M  END
$$$$
