LVL.pdb
     RDKit          3D

 24 23  0  0  1  0  0  0  0  0999 V2000
    8.9788  -12.0947   18.7978 C   0  0  0  0  0  0  0  0  0  0  0  0
    8.0441  -13.1490   18.2684 C   0  0  2  0  0  0  0  0  0  0  0  0
    6.8105  -12.4930   17.7420 C   0  0  0  0  0  0  0  0  0  0  0  0
    7.7245  -14.1439   19.3891 C   0  0  0  0  0  0  0  0  0  0  0  0
    9.0423  -14.4949   20.0320 C   0  0  2  0  0  0  0  0  0  0  0  0
    9.8418  -15.1949   19.0474 N   0  0  0  0  0  0  0  0  0  0  0  0
    8.8802  -15.3843   21.2036 C   0  0  0  0  0  0  0  0  0  0  0  0
    7.8483  -15.3649   21.9413 O   0  0  0  0  0  0  0  0  0  0  0  0
   10.5030  -19.2698   21.5632 C   0  0  0  0  0  0  0  0  0  0  0  0
   10.7247  -18.3093   22.6906 C   0  0  2  0  0  0  0  0  0  0  0  0
   10.5889  -19.1457   23.9777 C   0  0  0  0  0  0  0  0  0  0  0  0
    9.7337  -17.2029   22.7541 C   0  0  2  0  0  0  0  0  0  0  0  0
    9.8763  -16.3228   21.5793 N   0  0  0  0  0  0  0  0  0  0  0  0
    9.8368  -16.3752   23.9863 C   0  0  0  0  0  0  0  0  0  0  0  0
   10.8747  -15.6796   24.2128 O   0  0  0  0  0  0  0  0  0  0  0  0
    8.4032  -12.4294   27.2345 C   0  0  0  0  0  0  0  0  0  0  0  0
    7.4030  -13.5150   27.0091 C   0  0  1  0  0  0  0  0  0  0  0  0
    6.0061  -12.9135   26.8021 C   0  0  0  0  0  0  0  0  0  0  0  0
    7.7083  -14.5494   26.0140 C   0  0  0  0  0  0  0  0  0  0  0  0
    8.9397  -15.3893   26.1300 C   0  0  2  0  0  0  0  0  0  0  0  0
    8.8242  -16.3034   24.9527 N   0  0  0  0  0  0  0  0  0  0  0  0
    9.0938  -16.1683   27.3386 C   0  0  0  0  0  0  0  0  0  0  0  0
    9.9462  -15.8242   28.3533 O   0  0  0  0  0  0  0  0  0  0  0  0
    8.4204  -17.2360   27.4895 O   0  0  0  0  0  0  0  0  0  0  0  0
  2  1  1  1
  2  3  1  0
  4  2  1  0
  4  5  1  0
  5  7  1  0
  5  6  1  6
  7  8  2  0
 10  9  1  6
 10 12  1  0
 10 11  1  0
 13  7  1  0
 12 13  1  6
 14 15  2  0
 14 12  1  0
 17 16  1  6
 17 19  1  0
 18 17  1  0
 20 19  1  1
 20 21  1  0
 21 14  1  0
 22 20  1  0
 22 23  1  0
 24 22  2  0
M  END
$$$$
