LVL.pdb
     RDKit          3D

 24 23  0  0  1  0  0  0  0  0999 V2000
   10.7327  -21.1639   20.4631 C   0  0  0  0  0  0  0  0  0  0  0  0
    9.7840  -20.4509   19.5374 C   0  0  2  0  0  0  0  0  0  0  0  0
    9.9698  -20.9679   18.1490 C   0  0  0  0  0  0  0  0  0  0  0  0
   10.0408  -18.9425   19.6211 C   0  0  0  0  0  0  0  0  0  0  0  0
    9.7030  -18.5333   21.0323 C   0  0  2  0  0  0  0  0  0  0  0  0
    8.3447  -18.9584   21.3025 N   0  0  0  0  0  0  0  0  0  0  0  0
    9.7694  -17.0678   21.2268 C   0  0  0  0  0  0  0  0  0  0  0  0
   10.8379  -16.4029   21.0674 O   0  0  0  0  0  0  0  0  0  0  0  0
    7.3292  -14.2708   19.7298 C   0  0  0  0  0  0  0  0  0  0  0  0
    7.4351  -14.2289   21.2230 C   0  0  2  0  0  0  0  0  0  0  0  0
    7.4397  -12.7333   21.5945 C   0  0  0  0  0  0  0  0  0  0  0  0
    8.6768  -14.8413   21.7647 C   0  0  2  0  0  0  0  0  0  0  0  0
    8.6331  -16.3070   21.6067 N   0  0  0  0  0  0  0  0  0  0  0  0
    8.9280  -14.5224   23.1962 C   0  0  0  0  0  0  0  0  0  0  0  0
    9.2689  -13.3507   23.5472 O   0  0  0  0  0  0  0  0  0  0  0  0
    5.7371  -12.5580   26.1322 C   0  0  0  0  0  0  0  0  0  0  0  0
    7.1312  -13.0405   25.9012 C   0  0  1  0  0  0  0  0  0  0  0  0
    8.0894  -12.3948   26.9117 C   0  0  0  0  0  0  0  0  0  0  0  0
    7.3579  -14.4849   25.7754 C   0  0  0  0  0  0  0  0  0  0  0  0
    8.7415  -15.0395   25.6599 C   0  0  2  0  0  0  0  0  0  0  0  0
    8.8055  -15.4633   24.2277 N   0  0  0  0  0  0  0  0  0  0  0  0
    9.0761  -16.1573   26.5142 C   0  0  0  0  0  0  0  0  0  0  0  0
    9.6271  -16.0153   27.7595 O   0  0  0  0  0  0  0  0  0  0  0  0
    8.8647  -17.3439   26.1101 O   0  0  0  0  0  0  0  0  0  0  0  0
  2  1  1  1
  2  3  1  0
  4  2  1  0
  4  5  1  0
  5  7  1  0
  5  6  1  6
  7  8  2  0
 10  9  1  6
 10 12  1  0
 10 11  1  0
 13  7  1  0
 12 13  1  1
 14 15  2  0
 14 12  1  0
 17 16  1  1
 17 19  1  0
 18 17  1  0
 20 19  1  1
 20 21  1  0
 21 14  1  0
 22 20  1  0
 22 23  1  0
 24 22  2  0
M  END
$$$$
