LVL.pdb
     RDKit          3D

 24 23  0  0  1  0  0  0  0  0999 V2000
    7.3026  -12.2942   19.5554 C   0  0  0  0  0  0  0  0  0  0  0  0
    8.2385  -13.4675   19.6686 C   0  0  2  0  0  0  0  0  0  0  0  0
    9.6348  -13.0101   19.4028 C   0  0  0  0  0  0  0  0  0  0  0  0
    7.7998  -14.5555   18.6828 C   0  0  0  0  0  0  0  0  0  0  0  0
    8.6322  -15.7725   18.9976 C   0  0  2  0  0  0  0  0  0  0  0  0
    8.2553  -16.8181   18.0684 N   0  0  0  0  0  0  0  0  0  0  0  0
    8.4002  -16.2762   20.3696 C   0  0  0  0  0  0  0  0  0  0  0  0
    7.2561  -16.6355   20.7835 O   0  0  0  0  0  0  0  0  0  0  0  0
    9.9255  -19.2914   22.0246 C   0  0  0  0  0  0  0  0  0  0  0  0
   10.1879  -18.0936   22.8844 C   0  0  2  0  0  0  0  0  0  0  0  0
   10.0111  -18.5807   24.3356 C   0  0  0  0  0  0  0  0  0  0  0  0
    9.2480  -16.9636   22.6606 C   0  0  2  0  0  0  0  0  0  0  0  0
    9.4508  -16.3904   21.3168 N   0  0  0  0  0  0  0  0  0  0  0  0
    9.3685  -15.8747   23.6675 C   0  0  0  0  0  0  0  0  0  0  0  0
   10.4597  -15.2402   23.8060 O   0  0  0  0  0  0  0  0  0  0  0  0
    7.9972  -11.4785   26.4372 C   0  0  0  0  0  0  0  0  0  0  0  0
    7.0624  -12.6337   26.5839 C   0  0  1  0  0  0  0  0  0  0  0  0
    5.6093  -12.1396   26.6066 C   0  0  0  0  0  0  0  0  0  0  0  0
    7.2356  -13.7888   25.6956 C   0  0  0  0  0  0  0  0  0  0  0  0
    8.5382  -14.5196   25.6287 C   0  0  2  0  0  0  0  0  0  0  0  0
    8.3165  -15.4812   24.5057 N   0  0  0  0  0  0  0  0  0  0  0  0
    8.9506  -15.2399   26.8129 C   0  0  0  0  0  0  0  0  0  0  0  0
    8.3883  -16.4240   27.2084 O   0  0  0  0  0  0  0  0  0  0  0  0
    9.8758  -14.7685   27.5462 O   0  0  0  0  0  0  0  0  0  0  0  0
  2  1  1  6
  2  3  1  0
  4  2  1  0
  4  5  1  0
  5  7  1  0
  5  6  1  6
  7  8  2  0
 10  9  1  6
 10 12  1  0
 10 11  1  0
 13  7  1  0
 12 13  1  6
 14 15  2  0
 14 12  1  0
 17 16  1  6
 17 19  1  0
 18 17  1  0
 20 19  1  1
 20 21  1  0
 21 14  1  0
 22 20  1  0
 22 23  1  0
 24 22  2  0
M  END
$$$$
