LVL.pdb
     RDKit          3D

 24 23  0  0  1  0  0  0  0  0999 V2000
    9.8370  -12.9747   19.5800 C   0  0  0  0  0  0  0  0  0  0  0  0
    8.5269  -13.1228   18.8540 C   0  0  2  0  0  0  0  0  0  0  0  0
    7.8354  -11.8002   18.8126 C   0  0  0  0  0  0  0  0  0  0  0  0
    7.6792  -14.1853   19.5615 C   0  0  0  0  0  0  0  0  0  0  0  0
    8.5546  -15.4056   19.6946 C   0  0  2  0  0  0  0  0  0  0  0  0
    8.2408  -16.2966   18.5964 N   0  0  0  0  0  0  0  0  0  0  0  0
    8.3151  -16.1375   20.9583 C   0  0  0  0  0  0  0  0  0  0  0  0
    7.2115  -16.7040   21.2237 O   0  0  0  0  0  0  0  0  0  0  0  0
   11.3216  -18.0067   23.0623 C   0  0  0  0  0  0  0  0  0  0  0  0
    9.8589  -18.1836   23.3308 C   0  0  2  0  0  0  0  0  0  0  0  0
    9.3509  -19.1399   22.2345 C   0  0  0  0  0  0  0  0  0  0  0  0
    9.0669  -16.9282   23.2496 C   0  0  2  0  0  0  0  0  0  0  0  0
    9.3124  -16.2531   21.9615 N   0  0  0  0  0  0  0  0  0  0  0  0
    9.3473  -15.9694   24.3524 C   0  0  0  0  0  0  0  0  0  0  0  0
   10.4472  -15.3364   24.3944 O   0  0  0  0  0  0  0  0  0  0  0  0
    5.5939  -12.5951   26.4035 C   0  0  0  0  0  0  0  0  0  0  0  0
    6.9395  -13.1348   26.0461 C   0  0  1  0  0  0  0  0  0  0  0  0
    7.9227  -11.9830   25.7957 C   0  0  0  0  0  0  0  0  0  0  0  0
    7.5218  -14.1781   26.8981 C   0  0  0  0  0  0  0  0  0  0  0  0
    8.8202  -14.8274   26.5410 C   0  0  2  0  0  0  0  0  0  0  0  0
    8.4426  -15.7020   25.3889 N   0  0  0  0  0  0  0  0  0  0  0  0
    9.4631  -15.6209   27.5649 C   0  0  0  0  0  0  0  0  0  0  0  0
    9.3178  -16.9784   27.6683 O   0  0  0  0  0  0  0  0  0  0  0  0
   10.2009  -15.0533   28.4306 O   0  0  0  0  0  0  0  0  0  0  0  0
  2  1  1  1
  2  3  1  0
  4  2  1  0
  4  5  1  0
  5  7  1  0
  5  6  1  6
  7  8  2  0
 10  9  1  6
 10 12  1  0
 10 11  1  0
 13  7  1  0
 12 13  1  6
 14 15  2  0
 14 12  1  0
 17 16  1  1
 17 19  1  0
 18 17  1  0
 20 19  1  1
 20 21  1  0
 21 14  1  0
 22 20  1  0
 22 23  1  0
 24 22  2  0
M  END
$$$$
