LVL.pdb
     RDKit          3D

 24 23  0  0  1  0  0  0  0  0999 V2000
    5.3273  -20.6801   27.2046 C   0  0  0  0  0  0  0  0  0  0  0  0
    6.8064  -20.9270   27.0760 C   0  0  2  0  0  0  0  0  0  0  0  0
    7.3794  -21.1957   28.4284 C   0  0  0  0  0  0  0  0  0  0  0  0
    7.4618  -19.7110   26.4127 C   0  0  0  0  0  0  0  0  0  0  0  0
    6.8185  -19.5709   25.0563 C   0  0  2  0  0  0  0  0  0  0  0  0
    6.9358  -20.8454   24.3779 N   0  0  0  0  0  0  0  0  0  0  0  0
    7.4818  -18.5462   24.2197 C   0  0  0  0  0  0  0  0  0  0  0  0
    8.6350  -18.7125   23.7179 O   0  0  0  0  0  0  0  0  0  0  0  0
    5.8320  -15.9277   21.5140 C   0  0  0  0  0  0  0  0  0  0  0  0
    6.6346  -15.2790   22.5994 C   0  0  2  0  0  0  0  0  0  0  0  0
    7.4467  -14.1689   21.9046 C   0  0  0  0  0  0  0  0  0  0  0  0
    7.5909  -16.1913   23.2801 C   0  0  2  0  0  0  0  0  0  0  0  0
    6.8653  -17.3027   23.9232 N   0  0  0  0  0  0  0  0  0  0  0  0
    8.4376  -15.5188   24.3023 C   0  0  0  0  0  0  0  0  0  0  0  0
    7.9542  -14.6096   25.0453 O   0  0  0  0  0  0  0  0  0  0  0  0
   10.4527  -13.2921   28.2737 C   0  0  0  0  0  0  0  0  0  0  0  0
   10.3923  -14.7672   28.0494 C   0  0  1  0  0  0  0  0  0  0  0  0
    9.7366  -15.4594   29.2524 C   0  0  0  0  0  0  0  0  0  0  0  0
    9.8562  -15.2578   26.7745 C   0  0  0  0  0  0  0  0  0  0  0  0
   10.6153  -15.0754   25.4994 C   0  0  2  0  0  0  0  0  0  0  0  0
    9.7865  -15.8349   24.5139 N   0  0  0  0  0  0  0  0  0  0  0  0
   11.9768  -15.5617   25.4684 C   0  0  0  0  0  0  0  0  0  0  0  0
   13.0713  -14.7425   25.5430 O   0  0  0  0  0  0  0  0  0  0  0  0
   12.1974  -16.8089   25.3599 O   0  0  0  0  0  0  0  0  0  0  0  0
  2  1  1  1
  2  3  1  0
  4  2  1  0
  4  5  1  0
  5  7  1  0
  5  6  1  6
  7  8  2  0
 10  9  1  6
 10 12  1  0
 10 11  1  0
 13  7  1  0
 12 13  1  1
 14 15  2  0
 14 12  1  0
 17 16  1  1
 17 19  1  0
 18 17  1  0
 20 19  1  1
 20 21  1  0
 21 14  1  0
 22 20  1  0
 22 23  1  0
 24 22  2  0
M  END
$$$$
