LVL.pdb
     RDKit          3D

 24 23  0  0  1  0  0  0  0  0999 V2000
   10.0911  -13.1911   19.1638 C   0  0  0  0  0  0  0  0  0  0  0  0
    8.6313  -13.1085   18.8064 C   0  0  2  0  0  0  0  0  0  0  0  0
    8.1810  -11.6882   18.9031 C   0  0  0  0  0  0  0  0  0  0  0  0
    7.8336  -14.0225   19.7425 C   0  0  0  0  0  0  0  0  0  0  0  0
    8.6599  -15.2710   19.9205 C   0  0  2  0  0  0  0  0  0  0  0  0
    8.2050  -16.2443   18.9487 N   0  0  0  0  0  0  0  0  0  0  0  0
    8.5043  -15.8642   21.2673 C   0  0  0  0  0  0  0  0  0  0  0  0
    7.3861  -16.2602   21.7168 O   0  0  0  0  0  0  0  0  0  0  0  0
   10.2185  -18.9396   22.3276 C   0  0  0  0  0  0  0  0  0  0  0  0
   10.4704  -17.9235   23.3985 C   0  0  2  0  0  0  0  0  0  0  0  0
   10.3252  -18.6838   24.7309 C   0  0  0  0  0  0  0  0  0  0  0  0
    9.5055  -16.7925   23.4064 C   0  0  2  0  0  0  0  0  0  0  0  0
    9.6046  -16.0290   22.1485 N   0  0  0  0  0  0  0  0  0  0  0  0
    9.6875  -15.8566   24.5488 C   0  0  0  0  0  0  0  0  0  0  0  0
   10.7233  -15.1264   24.6274 O   0  0  0  0  0  0  0  0  0  0  0  0
    5.5315  -13.1545   26.9915 C   0  0  0  0  0  0  0  0  0  0  0  0
    6.9120  -13.4690   26.5170 C   0  0  1  0  0  0  0  0  0  0  0  0
    7.7062  -12.1731   26.3021 C   0  0  0  0  0  0  0  0  0  0  0  0
    7.6898  -14.4743   27.2504 C   0  0  0  0  0  0  0  0  0  0  0  0
    9.0525  -14.8802   26.7884 C   0  0  2  0  0  0  0  0  0  0  0  0
    8.7545  -15.7159   25.5852 N   0  0  0  0  0  0  0  0  0  0  0  0
    9.8648  -15.6348   27.7167 C   0  0  0  0  0  0  0  0  0  0  0  0
   10.7455  -15.0556   28.5905 O   0  0  0  0  0  0  0  0  0  0  0  0
    9.7818  -16.9031   27.7390 O   0  0  0  0  0  0  0  0  0  0  0  0
  2  1  1  1
  2  3  1  0
  4  2  1  0
  4  5  1  0
  5  7  1  0
  5  6  1  6
  7  8  2  0
 10  9  1  6
 10 12  1  0
 10 11  1  0
 13  7  1  0
 12 13  1  6
 14 15  2  0
 14 12  1  0
 17 16  1  1
 17 19  1  0
 18 17  1  0
 20 19  1  1
 20 21  1  0
 21 14  1  0
 22 20  1  0
 22 23  1  0
 24 22  2  0
M  END
$$$$
