LVL.pdb
     RDKit          3D

 24 23  0  0  1  0  0  0  0  0999 V2000
    6.8883  -12.4210   24.8149 C   0  0  0  0  0  0  0  0  0  0  0  0
    5.9324  -12.8374   25.9005 C   0  0  2  0  0  0  0  0  0  0  0  0
    6.0595  -11.8984   27.0544 C   0  0  0  0  0  0  0  0  0  0  0  0
    6.2361  -14.2830   26.3082 C   0  0  0  0  0  0  0  0  0  0  0  0
    5.9901  -15.1285   25.0843 C   0  0  2  0  0  0  0  0  0  0  0  0
    5.0138  -16.1397   25.4349 N   0  0  0  0  0  0  0  0  0  0  0  0
    7.2138  -15.8181   24.6188 C   0  0  0  0  0  0  0  0  0  0  0  0
    7.6738  -16.8555   25.1858 O   0  0  0  0  0  0  0  0  0  0  0  0
    8.4294  -15.9497   20.6334 C   0  0  0  0  0  0  0  0  0  0  0  0
    9.4918  -15.6159   21.6348 C   0  0  2  0  0  0  0  0  0  0  0  0
   10.7468  -16.3833   21.1761 C   0  0  0  0  0  0  0  0  0  0  0  0
    9.1758  -16.0393   23.0245 C   0  0  2  0  0  0  0  0  0  0  0  0
    7.9564  -15.3592   23.4998 N   0  0  0  0  0  0  0  0  0  0  0  0
   10.2747  -15.7827   23.9944 C   0  0  0  0  0  0  0  0  0  0  0  0
   10.7521  -14.6147   24.1360 O   0  0  0  0  0  0  0  0  0  0  0  0
   11.7211  -13.5942   27.7615 C   0  0  0  0  0  0  0  0  0  0  0  0
   10.9748  -14.8661   27.9965 C   0  0  1  0  0  0  0  0  0  0  0  0
    9.8008  -14.6220   28.9547 C   0  0  0  0  0  0  0  0  0  0  0  0
   10.5765  -15.6667   26.8330 C   0  0  0  0  0  0  0  0  0  0  0  0
   11.5875  -16.4393   26.0480 C   0  0  2  0  0  0  0  0  0  0  0  0
   10.8402  -16.7811   24.7991 N   0  0  0  0  0  0  0  0  0  0  0  0
   12.1065  -17.6468   26.6512 C   0  0  0  0  0  0  0  0  0  0  0  0
   13.3641  -17.7423   27.1842 O   0  0  0  0  0  0  0  0  0  0  0  0
   11.3816  -18.6901   26.6959 O   0  0  0  0  0  0  0  0  0  0  0  0
  2  1  1  6
  2  3  1  0
  4  2  1  0
  4  5  1  0
  5  7  1  0
  5  6  1  1
  7  8  2  0
 10  9  1  6
 10 12  1  0
 10 11  1  0
 13  7  1  0
 12 13  1  1
 14 15  2  0
 14 12  1  0
 17 16  1  6
 17 19  1  0
 18 17  1  0
 20 19  1  1
 20 21  1  0
 21 14  1  0
 22 20  1  0
 22 23  1  0
 24 22  2  0
M  END
$$$$
