LVL.pdb
     RDKit          3D

 24 23  0  0  1  0  0  0  0  0999 V2000
    5.7152  -20.3871   25.1318 C   0  0  0  0  0  0  0  0  0  0  0  0
    7.1597  -20.7621   25.3271 C   0  0  2  0  0  0  0  0  0  0  0  0
    7.3866  -21.1157   26.7599 C   0  0  0  0  0  0  0  0  0  0  0  0
    8.0454  -19.5931   24.8833 C   0  0  0  0  0  0  0  0  0  0  0  0
    7.6314  -19.2605   23.4722 C   0  0  2  0  0  0  0  0  0  0  0  0
    8.1313  -20.3087   22.6062 N   0  0  0  0  0  0  0  0  0  0  0  0
    8.1972  -17.9750   23.0057 C   0  0  0  0  0  0  0  0  0  0  0  0
    9.4260  -17.8278   22.7273 O   0  0  0  0  0  0  0  0  0  0  0  0
    6.4600  -15.2183   20.4156 C   0  0  0  0  0  0  0  0  0  0  0  0
    6.8995  -14.7017   21.7507 C   0  0  2  0  0  0  0  0  0  0  0  0
    7.4845  -13.3021   21.4793 C   0  0  0  0  0  0  0  0  0  0  0  0
    7.9525  -15.5213   22.4063 C   0  0  2  0  0  0  0  0  0  0  0  0
    7.3948  -16.8163   22.8388 N   0  0  0  0  0  0  0  0  0  0  0  0
    8.5857  -14.8586   23.5784 C   0  0  0  0  0  0  0  0  0  0  0  0
    9.1041  -13.7048   23.4665 O   0  0  0  0  0  0  0  0  0  0  0  0
    5.9729  -12.0116   26.2725 C   0  0  0  0  0  0  0  0  0  0  0  0
    7.3198  -12.5846   25.9771 C   0  0  1  0  0  0  0  0  0  0  0  0
    8.4192  -11.6531   26.5060 C   0  0  0  0  0  0  0  0  0  0  0  0
    7.5734  -13.9871   26.3266 C   0  0  0  0  0  0  0  0  0  0  0  0
    8.9058  -14.6151   26.0704 C   0  0  2  0  0  0  0  0  0  0  0  0
    8.6489  -15.4415   24.8514 N   0  0  0  0  0  0  0  0  0  0  0  0
    9.4530  -15.4487   27.1178 C   0  0  0  0  0  0  0  0  0  0  0  0
   10.2385  -14.9675   28.1307 O   0  0  0  0  0  0  0  0  0  0  0  0
    9.2137  -16.6973   27.1182 O   0  0  0  0  0  0  0  0  0  0  0  0
  2  1  1  1
  2  3  1  0
  4  2  1  0
  4  5  1  0
  5  7  1  0
  5  6  1  6
  7  8  2  0
 10  9  1  6
 10 12  1  0
 10 11  1  0
 13  7  1  0
 12 13  1  1
 14 15  2  0
 14 12  1  0
 17 16  1  1
 17 19  1  0
 18 17  1  0
 20 19  1  1
 20 21  1  0
 21 14  1  0
 22 20  1  0
 22 23  1  0
 24 22  2  0
M  END
$$$$
