LRA.pdb
     RDKit          3D

 25 24  0  0  1  0  0  0  0  0999 V2000
    5.6520  -11.7234   25.2438 C   0  0  0  0  0  0  0  0  0  0  0  0
    5.5342  -12.7092   26.3670 C   0  0  2  0  0  0  0  0  0  0  0  0
    5.8164  -11.9786   27.7036 C   0  0  0  0  0  0  0  0  0  0  0  0
    6.5166  -13.8135   26.2590 C   0  0  0  0  0  0  0  0  0  0  0  0
    6.4351  -14.7885   25.1409 C   0  0  2  0  0  0  0  0  0  0  0  0
    5.2071  -15.5958   25.4947 N   0  0  0  0  0  0  0  0  0  0  0  0
    7.5322  -15.8146   25.0962 C   0  0  0  0  0  0  0  0  0  0  0  0
    7.4639  -16.7758   25.8739 O   0  0  0  0  0  0  0  0  0  0  0  0
    8.6371  -15.0430   19.0553 N   0  0  0  0  0  0  0  0  0  0  0  0
    9.1436  -13.6920   19.2496 C   0  0  0  0  0  0  0  0  0  0  0  0
    8.7085  -12.7762   18.5269 N   0  0  0  0  0  0  0  0  0  0  0  0
   10.1276  -13.4249   20.2302 N   0  0  0  0  0  0  0  0  0  0  0  0
   10.6281  -14.3567   21.1702 C   0  0  0  0  0  0  0  0  0  0  0  0
    9.6820  -15.2528   21.8770 C   0  0  0  0  0  0  0  0  0  0  0  0
   10.4541  -16.2334   22.7561 C   0  0  0  0  0  0  0  0  0  0  0  0
    9.7883  -16.5282   24.0767 C   0  0  2  0  0  0  0  0  0  0  0  0
    8.5779  -15.6537   24.1795 N   0  0  0  0  0  0  0  0  0  0  0  0
   10.5596  -16.3094   25.2741 C   0  0  0  0  0  0  0  0  0  0  0  0
   11.7867  -16.7570   25.2799 O   0  0  0  0  0  0  0  0  0  0  0  0
    8.7664  -11.8251   18.3062 C   0  0  0  0  0  0  0  0  0  0  0  0
   10.8418  -14.2797   28.3213 C   0  0  2  0  0  0  0  0  0  0  0  0
   11.0894  -15.5537   27.5626 N   0  0  0  0  0  0  0  0  0  0  0  0
   10.1498  -15.6635   26.4691 C   0  0  0  0  0  0  0  0  0  0  0  0
   10.9851  -16.7670   28.4466 O   0  0  0  0  0  0  0  0  0  0  0  0
   11.8659  -16.8687   29.5056 O   0  0  0  0  0  0  0  0  0  0  0  0
  2  1  1  6
  3  2  1  0
  4  2  1  0
  4  5  1  0
  5  7  1  0
  5  6  1  1
  7  8  2  0
 10 12  1  0
 10  9  1  0
 11 10  2  0
 13 14  1  0
 13 12  1  0
 14 15  1  0
 16 15  1  6
 17 16  1  0
 17  7  1  0
 18 16  1  0
 19 18  2  0
 21 20  1  6
 21 23  1  0
 21 22  1  0
 22 18  1  0
 23 24  1  0
 25 23  2  0
M  END
$$$$
