LRA.pdb
     RDKit          3D

 25 24  0  0  1  0  0  0  0  0999 V2000
    7.8447  -12.8797   27.3662 C   0  0  0  0  0  0  0  0  0  0  0  0
    7.1385  -13.4738   26.1848 C   0  0  2  0  0  0  0  0  0  0  0  0
    5.8497  -12.6585   25.9122 C   0  0  0  0  0  0  0  0  0  0  0  0
    6.7242  -14.8774   26.4175 C   0  0  0  0  0  0  0  0  0  0  0  0
    6.2415  -15.7176   25.2912 C   0  0  2  0  0  0  0  0  0  0  0  0
    6.0160  -17.0585   25.9515 N   0  0  0  0  0  0  0  0  0  0  0  0
    7.2573  -16.0151   24.2243 C   0  0  0  0  0  0  0  0  0  0  0  0
    7.9238  -17.0538   24.3269 O   0  0  0  0  0  0  0  0  0  0  0  0
    8.4302  -15.5800   16.9061 N   0  0  0  0  0  0  0  0  0  0  0  0
    7.8945  -14.2395   16.7176 C   0  0  0  0  0  0  0  0  0  0  0  0
    7.6772  -13.8353   15.5601 N   0  0  0  0  0  0  0  0  0  0  0  0
    7.6416  -13.4011   17.8287 N   0  0  0  0  0  0  0  0  0  0  0  0
    8.5597  -13.1068   18.8644 C   0  0  0  0  0  0  0  0  0  0  0  0
    8.9711  -14.1839   19.7962 C   0  0  0  0  0  0  0  0  0  0  0  0
    8.1156  -14.1322   21.0596 C   0  0  0  0  0  0  0  0  0  0  0  0
    8.2728  -15.3346   21.9562 C   0  0  2  0  0  0  0  0  0  0  0  0
    7.4067  -15.1204   23.1580 N   0  0  0  0  0  0  0  0  0  0  0  0
    9.5951  -15.6305   22.4466 C   0  0  0  0  0  0  0  0  0  0  0  0
   10.4976  -15.9571   21.5606 O   0  0  0  0  0  0  0  0  0  0  0  0
    7.3110  -13.1120   15.0129 C   0  0  0  0  0  0  0  0  0  0  0  0
   11.8909  -15.2709   25.3120 C   0  0  2  0  0  0  0  0  0  0  0  0
   11.4228  -15.9741   24.0684 N   0  0  0  0  0  0  0  0  0  0  0  0
   10.0496  -15.6167   23.7907 C   0  0  0  0  0  0  0  0  0  0  0  0
   11.5457  -17.4694   24.1848 O   0  0  0  0  0  0  0  0  0  0  0  0
   10.4086  -18.2260   23.9798 O   0  0  0  0  0  0  0  0  0  0  0  0
  2  1  1  1
  3  2  1  0
  4  2  1  0
  4  5  1  0
  5  7  1  0
  5  6  1  1
  7  8  2  0
 10 12  1  0
 10  9  1  0
 11 10  2  0
 13 14  1  0
 13 12  1  0
 14 15  1  0
 16 15  1  6
 17 16  1  0
 17  7  1  0
 18 16  1  0
 19 18  2  0
 21 20  1  6
 21 23  1  0
 21 22  1  0
 22 18  1  0
 23 24  1  0
 25 23  2  0
M  END
$$$$
