LRA.pdb
     RDKit          3D

 25 24  0  0  1  0  0  0  0  0999 V2000
    9.2212  -12.8452   19.0544 C   0  0  0  0  0  0  0  0  0  0  0  0
    7.9305  -13.4488   19.5202 C   0  0  2  0  0  0  0  0  0  0  0  0
    6.8702  -12.3260   19.6427 C   0  0  0  0  0  0  0  0  0  0  0  0
    8.0487  -14.0830   20.8543 C   0  0  0  0  0  0  0  0  0  0  0  0
    8.9994  -15.2032   21.0750 C   0  0  2  0  0  0  0  0  0  0  0  0
    8.4190  -16.3039   20.2168 N   0  0  0  0  0  0  0  0  0  0  0  0
    8.9946  -15.7929   22.4573 C   0  0  0  0  0  0  0  0  0  0  0  0
    7.9066  -16.1276   22.9449 O   0  0  0  0  0  0  0  0  0  0  0  0
   13.0694  -20.4962   21.4096 N   0  0  0  0  0  0  0  0  0  0  0  0
   11.6891  -20.9588   21.3974 C   0  0  0  0  0  0  0  0  0  0  0  0
   11.2314  -21.4599   20.3535 N   0  0  0  0  0  0  0  0  0  0  0  0
   10.8736  -20.8254   22.5456 N   0  0  0  0  0  0  0  0  0  0  0  0
   11.0127  -19.8322   23.5439 C   0  0  0  0  0  0  0  0  0  0  0  0
   11.4374  -18.4666   23.1537 C   0  0  0  0  0  0  0  0  0  0  0  0
   11.5058  -17.5715   24.3885 C   0  0  0  0  0  0  0  0  0  0  0  0
   10.3798  -16.5729   24.4851 C   0  0  2  0  0  0  0  0  0  0  0  0
   10.2096  -15.9496   23.1349 N   0  0  0  0  0  0  0  0  0  0  0  0
   10.5292  -15.4906   25.4246 C   0  0  0  0  0  0  0  0  0  0  0  0
   11.6815  -14.8758   25.4437 O   0  0  0  0  0  0  0  0  0  0  0  0
   10.4285  -21.7817   19.8970 C   0  0  0  0  0  0  0  0  0  0  0  0
    8.9922  -13.1695   27.8109 C   0  0  2  0  0  0  0  0  0  0  0  0
   10.0238  -14.2093   27.4720 N   0  0  0  0  0  0  0  0  0  0  0  0
    9.5714  -15.0012   26.3500 C   0  0  0  0  0  0  0  0  0  0  0  0
   10.3249  -15.1082   28.6406 O   0  0  0  0  0  0  0  0  0  0  0  0
   10.9745  -14.5552   29.7268 O   0  0  0  0  0  0  0  0  0  0  0  0
  2  1  1  1
  3  2  1  0
  4  2  1  0
  4  5  1  0
  5  7  1  0
  5  6  1  6
  7  8  2  0
 10 12  1  0
 10  9  1  0
 11 10  2  0
 13 14  1  0
 13 12  1  0
 14 15  1  0
 16 15  1  6
 17 16  1  0
 17  7  1  0
 18 16  1  0
 19 18  2  0
 21 20  1  6
 21 23  1  0
 21 22  1  0
 22 18  1  0
 23 24  1  0
 25 23  2  0
M  END
$$$$
