LRA.pdb
     RDKit          3D

 25 24  0  0  1  0  0  0  0  0999 V2000
    8.2183  -12.7861   18.9293 C   0  0  0  0  0  0  0  0  0  0  0  0
    7.4299  -13.2967   20.0976 C   0  0  2  0  0  0  0  0  0  0  0  0
    7.3329  -12.1756   21.1623 C   0  0  0  0  0  0  0  0  0  0  0  0
    8.0718  -14.4620   20.7504 C   0  0  0  0  0  0  0  0  0  0  0  0
    8.3342  -15.7065   19.9823 C   0  0  2  0  0  0  0  0  0  0  0  0
    7.0012  -16.4171   20.0380 N   0  0  0  0  0  0  0  0  0  0  0  0
    9.2804  -16.6785   20.6291 C   0  0  0  0  0  0  0  0  0  0  0  0
    8.8770  -17.3222   21.6071 O   0  0  0  0  0  0  0  0  0  0  0  0
   14.3596  -22.1018   19.6674 N   0  0  0  0  0  0  0  0  0  0  0  0
   15.6217  -21.4738   19.3040 C   0  0  0  0  0  0  0  0  0  0  0  0
   16.6785  -22.1148   19.4548 N   0  0  0  0  0  0  0  0  0  0  0  0
   15.6514  -20.1505   18.8049 N   0  0  0  0  0  0  0  0  0  0  0  0
   14.5334  -19.2922   18.6792 C   0  0  0  0  0  0  0  0  0  0  0  0
   13.6794  -19.0360   19.8636 C   0  0  0  0  0  0  0  0  0  0  0  0
   12.6013  -18.0131   19.5147 C   0  0  0  0  0  0  0  0  0  0  0  0
   11.6264  -17.7440   20.6334 C   0  0  2  0  0  0  0  0  0  0  0  0
   10.5691  -16.8270   20.1027 N   0  0  0  0  0  0  0  0  0  0  0  0
   12.1415  -17.1319   21.8319 C   0  0  0  0  0  0  0  0  0  0  0  0
   12.6119  -15.9182   21.7236 O   0  0  0  0  0  0  0  0  0  0  0  0
   17.6537  -22.0923   19.3832 C   0  0  0  0  0  0  0  0  0  0  0  0
   12.2398  -17.2778   25.5134 C   0  0  1  0  0  0  0  0  0  0  0  0
   12.8555  -16.9342   24.1856 N   0  0  0  0  0  0  0  0  0  0  0  0
   12.2086  -17.6885   23.1354 C   0  0  0  0  0  0  0  0  0  0  0  0
   14.3366  -17.1997   24.1643 O   0  0  0  0  0  0  0  0  0  0  0  0
   15.1463  -16.3899   24.9365 O   0  0  0  0  0  0  0  0  0  0  0  0
  2  1  1  6
  3  2  1  0
  4  2  1  0
  4  5  1  0
  5  7  1  0
  5  6  1  1
  7  8  2  0
 10 12  1  0
 10  9  1  0
 11 10  2  0
 13 14  1  0
 13 12  1  0
 14 15  1  0
 16 15  1  6
 17 16  1  0
 17  7  1  0
 18 16  1  0
 19 18  2  0
 21 20  1  6
 21 23  1  0
 21 22  1  0
 22 18  1  0
 23 24  1  0
 25 23  2  0
M  END
$$$$
