LRA.pdb
     RDKit          3D

 25 24  0  0  1  0  0  0  0  0999 V2000
    6.2394  -11.7989   26.4487 C   0  0  0  0  0  0  0  0  0  0  0  0
    6.8802  -12.8667   25.6141 C   0  0  2  0  0  0  0  0  0  0  0  0
    7.4107  -12.2269   24.3068 C   0  0  0  0  0  0  0  0  0  0  0  0
    5.9258  -13.9303   25.2218 C   0  0  0  0  0  0  0  0  0  0  0  0
    6.3872  -15.1063   24.4397 C   0  0  2  0  0  0  0  0  0  0  0  0
    5.1735  -16.0072   24.4495 N   0  0  0  0  0  0  0  0  0  0  0  0
    7.4523  -15.9407   25.0939 C   0  0  0  0  0  0  0  0  0  0  0  0
    7.1922  -16.4694   26.1831 O   0  0  0  0  0  0  0  0  0  0  0  0
   11.9204  -16.8942   20.5128 N   0  0  0  0  0  0  0  0  0  0  0  0
   11.4870  -18.2092   20.0630 C   0  0  0  0  0  0  0  0  0  0  0  0
   11.3855  -18.4243   18.8409 N   0  0  0  0  0  0  0  0  0  0  0  0
   11.1679  -19.2220   20.9977 N   0  0  0  0  0  0  0  0  0  0  0  0
   10.5139  -19.0232   22.2367 C   0  0  0  0  0  0  0  0  0  0  0  0
   10.0381  -17.6659   22.5957 C   0  0  0  0  0  0  0  0  0  0  0  0
   10.7729  -17.1700   23.8387 C   0  0  0  0  0  0  0  0  0  0  0  0
    9.8650  -16.8398   24.9967 C   0  0  2  0  0  0  0  0  0  0  0  0
    8.6860  -16.0966   24.4508 N   0  0  0  0  0  0  0  0  0  0  0  0
   10.4084  -16.0312   26.0585 C   0  0  0  0  0  0  0  0  0  0  0  0
   11.2169  -15.0647   25.7144 O   0  0  0  0  0  0  0  0  0  0  0  0
   11.1934  -19.0911   18.1516 C   0  0  0  0  0  0  0  0  0  0  0  0
   10.3665  -14.2945   28.9797 C   0  0  2  0  0  0  0  0  0  0  0  0
   11.0666  -15.4778   28.3713 N   0  0  0  0  0  0  0  0  0  0  0  0
   10.1780  -16.1543   27.4531 C   0  0  0  0  0  0  0  0  0  0  0  0
   11.5515  -16.4459   29.4164 O   0  0  0  0  0  0  0  0  0  0  0  0
   12.4241  -15.9721   30.3764 O   0  0  0  0  0  0  0  0  0  0  0  0
  2  1  1  1
  3  2  1  0
  4  2  1  0
  4  5  1  0
  5  7  1  0
  5  6  1  1
  7  8  2  0
 10 12  1  0
 10  9  1  0
 11 10  2  0
 13 14  1  0
 13 12  1  0
 14 15  1  0
 16 15  1  6
 17 16  1  0
 17  7  1  0
 18 16  1  0
 19 18  2  0
 21 20  1  6
 21 23  1  0
 21 22  1  0
 22 18  1  0
 23 24  1  0
 25 23  2  0
M  END
$$$$
