LRA.pdb
     RDKit          3D

 25 24  0  0  1  0  0  0  0  0999 V2000
    7.5170  -11.8751   19.7908 C   0  0  0  0  0  0  0  0  0  0  0  0
    8.3981  -13.0843   19.8842 C   0  0  2  0  0  0  0  0  0  0  0  0
    9.1543  -13.2554   18.5430 C   0  0  0  0  0  0  0  0  0  0  0  0
    7.6298  -14.3308   20.1124 C   0  0  0  0  0  0  0  0  0  0  0  0
    8.3292  -15.5939   20.4631 C   0  0  2  0  0  0  0  0  0  0  0  0
    7.5863  -16.6226   19.6416 N   0  0  0  0  0  0  0  0  0  0  0  0
    8.1401  -16.0669   21.8770 C   0  0  0  0  0  0  0  0  0  0  0  0
    6.9956  -16.3643   22.2445 O   0  0  0  0  0  0  0  0  0  0  0  0
   10.6756  -19.1102   28.8178 N   0  0  0  0  0  0  0  0  0  0  0  0
   11.0072  -20.2158   27.9306 C   0  0  0  0  0  0  0  0  0  0  0  0
   10.8568  -21.3820   28.3400 N   0  0  0  0  0  0  0  0  0  0  0  0
   11.5100  -19.9717   26.6311 N   0  0  0  0  0  0  0  0  0  0  0  0
   11.7380  -18.6964   26.0620 C   0  0  0  0  0  0  0  0  0  0  0  0
   10.6020  -17.7558   25.9121 C   0  0  0  0  0  0  0  0  0  0  0  0
   10.3346  -17.4965   24.4317 C   0  0  0  0  0  0  0  0  0  0  0  0
    9.2218  -16.5122   24.1728 C   0  0  2  0  0  0  0  0  0  0  0  0
    9.2553  -16.1622   22.7179 N   0  0  0  0  0  0  0  0  0  0  0  0
    9.2522  -15.2677   24.8986 C   0  0  0  0  0  0  0  0  0  0  0  0
   10.3318  -14.5411   24.7862 O   0  0  0  0  0  0  0  0  0  0  0  0
   10.9450  -22.3317   28.1228 C   0  0  0  0  0  0  0  0  0  0  0  0
    7.2764  -12.7407   26.7153 C   0  0  1  0  0  0  0  0  0  0  0  0
    8.5386  -13.5274   26.4957 N   0  0  0  0  0  0  0  0  0  0  0  0
    8.2455  -14.7227   25.7370 C   0  0  0  0  0  0  0  0  0  0  0  0
    9.2054  -13.8987   27.7926 O   0  0  0  0  0  0  0  0  0  0  0  0
    9.7991  -12.8880   28.5230 O   0  0  0  0  0  0  0  0  0  0  0  0
  2  1  1  6
  3  2  1  0
  4  2  1  0
  4  5  1  0
  5  7  1  0
  5  6  1  6
  7  8  2  0
 10 12  1  0
 10  9  1  0
 11 10  2  0
 13 14  1  0
 13 12  1  0
 14 15  1  0
 16 15  1  1
 17 16  1  0
 17  7  1  0
 18 16  1  0
 19 18  2  0
 21 20  1  6
 21 23  1  0
 21 22  1  0
 22 18  1  0
 23 24  1  0
 25 23  2  0
M  END
$$$$
