LRA.pdb
     RDKit          3D

 25 24  0  0  1  0  0  0  0  0999 V2000
    8.9653  -13.4441   28.4846 C   0  0  0  0  0  0  0  0  0  0  0  0
    9.6179  -14.7871   28.6179 C   0  0  2  0  0  0  0  0  0  0  0  0
   11.0787  -14.5869   29.0931 C   0  0  0  0  0  0  0  0  0  0  0  0
    9.6755  -15.5208   27.3317 C   0  0  0  0  0  0  0  0  0  0  0  0
    8.4354  -15.7812   26.5561 C   0  0  2  0  0  0  0  0  0  0  0  0
    7.8567  -16.9910   27.2534 N   0  0  0  0  0  0  0  0  0  0  0  0
    8.6425  -16.2523   25.1440 C   0  0  0  0  0  0  0  0  0  0  0  0
    8.8013  -17.4652   24.9512 O   0  0  0  0  0  0  0  0  0  0  0  0
    7.0579  -12.8186   18.3027 N   0  0  0  0  0  0  0  0  0  0  0  0
    8.2438  -13.6598   18.3772 C   0  0  0  0  0  0  0  0  0  0  0  0
    9.3622  -13.1403   18.2048 N   0  0  0  0  0  0  0  0  0  0  0  0
    8.1288  -15.0482   18.6230 N   0  0  0  0  0  0  0  0  0  0  0  0
    7.6449  -15.6364   19.8155 C   0  0  0  0  0  0  0  0  0  0  0  0
    7.1274  -14.7636   20.8963 C   0  0  0  0  0  0  0  0  0  0  0  0
    8.2482  -14.4346   21.8793 C   0  0  0  0  0  0  0  0  0  0  0  0
    8.7600  -15.6274   22.6471 C   0  0  2  0  0  0  0  0  0  0  0  0
    8.6396  -15.3134   24.1057 N   0  0  0  0  0  0  0  0  0  0  0  0
   10.1257  -16.0278   22.4215 C   0  0  0  0  0  0  0  0  0  0  0  0
   10.3999  -16.5801   21.2700 O   0  0  0  0  0  0  0  0  0  0  0  0
   10.3171  -13.3050   18.0717 C   0  0  0  0  0  0  0  0  0  0  0  0
   13.4415  -15.0299   22.8957 C   0  0  2  0  0  0  0  0  0  0  0  0
   12.5505  -16.2389   22.8269 N   0  0  0  0  0  0  0  0  0  0  0  0
   11.2285  -15.9014   23.3052 C   0  0  0  0  0  0  0  0  0  0  0  0
   13.1005  -17.3918   23.6224 O   0  0  0  0  0  0  0  0  0  0  0  0
   14.3580  -17.8585   23.2933 O   0  0  0  0  0  0  0  0  0  0  0  0
  2  1  1  6
  3  2  1  0
  4  2  1  0
  4  5  1  0
  5  7  1  0
  5  6  1  1
  7  8  2  0
 10 12  1  0
 10  9  1  0
 11 10  2  0
 13 14  1  0
 13 12  1  0
 14 15  1  0
 16 15  1  6
 17 16  1  0
 17  7  1  0
 18 16  1  0
 19 18  2  0
 21 20  1  6
 21 23  1  0
 21 22  1  0
 22 18  1  0
 23 24  1  0
 25 23  2  0
M  END
$$$$
