LRA.pdb
     RDKit          3D

 25 24  0  0  1  0  0  0  0  0999 V2000
    9.0654  -13.2649   28.1580 C   0  0  0  0  0  0  0  0  0  0  0  0
    9.6338  -14.5847   28.5849 C   0  0  2  0  0  0  0  0  0  0  0  0
   11.0980  -14.3723   29.0439 C   0  0  0  0  0  0  0  0  0  0  0  0
    9.6628  -15.5742   27.4821 C   0  0  0  0  0  0  0  0  0  0  0  0
    8.4229  -15.9054   26.7336 C   0  0  2  0  0  0  0  0  0  0  0  0
    7.9722  -17.1895   27.3915 N   0  0  0  0  0  0  0  0  0  0  0  0
    8.6200  -16.2952   25.2956 C   0  0  0  0  0  0  0  0  0  0  0  0
    8.9273  -17.4686   25.0461 O   0  0  0  0  0  0  0  0  0  0  0  0
    9.6954  -13.2043   18.2204 N   0  0  0  0  0  0  0  0  0  0  0  0
    8.3512  -13.4129   17.7017 C   0  0  0  0  0  0  0  0  0  0  0  0
    8.2053  -13.6635   16.4908 N   0  0  0  0  0  0  0  0  0  0  0  0
    7.2262  -13.3145   18.5537 N   0  0  0  0  0  0  0  0  0  0  0  0
    7.2496  -13.4201   19.9646 C   0  0  0  0  0  0  0  0  0  0  0  0
    8.1302  -14.4283   20.6016 C   0  0  0  0  0  0  0  0  0  0  0  0
    7.8519  -14.4871   22.1015 C   0  0  0  0  0  0  0  0  0  0  0  0
    8.6396  -15.5467   22.8302 C   0  0  2  0  0  0  0  0  0  0  0  0
    8.4422  -15.3293   24.2979 N   0  0  0  0  0  0  0  0  0  0  0  0
   10.0623  -15.5902   22.6059 C   0  0  0  0  0  0  0  0  0  0  0  0
   10.7780  -14.6413   23.1477 O   0  0  0  0  0  0  0  0  0  0  0  0
    7.5634  -13.8451   15.7755 C   0  0  0  0  0  0  0  0  0  0  0  0
   12.8255  -17.8195   21.5603 C   0  0  1  0  0  0  0  0  0  0  0  0
   12.2415  -16.4640   21.8467 N   0  0  0  0  0  0  0  0  0  0  0  0
   10.7979  -16.5444   21.8565 C   0  0  0  0  0  0  0  0  0  0  0  0
   12.6868  -15.4339   20.8442 O   0  0  0  0  0  0  0  0  0  0  0  0
   13.9344  -14.8667   21.0159 O   0  0  0  0  0  0  0  0  0  0  0  0
  2  1  1  6
  3  2  1  0
  4  2  1  0
  4  5  1  0
  5  7  1  0
  5  6  1  1
  7  8  2  0
 10 12  1  0
 10  9  1  0
 11 10  2  0
 13 14  1  0
 13 12  1  0
 14 15  1  0
 16 15  1  6
 17 16  1  0
 17  7  1  0
 18 16  1  0
 19 18  2  0
 21 20  1  1
 21 23  1  0
 21 22  1  0
 22 18  1  0
 23 24  1  0
 25 23  2  0
M  END
$$$$
