LRA.pdb
     RDKit          3D

 25 24  0  0  1  0  0  0  0  0999 V2000
    8.0718  -12.6314   27.8248 C   0  0  0  0  0  0  0  0  0  0  0  0
    7.1941  -12.5471   26.6125 C   0  0  2  0  0  0  0  0  0  0  0  0
    6.2853  -11.2990   26.7403 C   0  0  0  0  0  0  0  0  0  0  0  0
    6.3022  -13.7223   26.4740 C   0  0  0  0  0  0  0  0  0  0  0  0
    6.8655  -15.0968   26.4424 C   0  0  2  0  0  0  0  0  0  0  0  0
    8.3325  -14.8596   26.7190 N   0  0  0  0  0  0  0  0  0  0  0  0
    6.8631  -15.7660   25.0967 C   0  0  0  0  0  0  0  0  0  0  0  0
    5.8519  -16.3970   24.7609 O   0  0  0  0  0  0  0  0  0  0  0  0
    7.3253  -14.0722   17.7047 N   0  0  0  0  0  0  0  0  0  0  0  0
    8.0726  -13.2333   18.6305 C   0  0  0  0  0  0  0  0  0  0  0  0
    7.8779  -12.0035   18.6199 N   0  0  0  0  0  0  0  0  0  0  0  0
    9.0184  -13.8014   19.5159 N   0  0  0  0  0  0  0  0  0  0  0  0
    9.2446  -15.1857   19.7021 C   0  0  0  0  0  0  0  0  0  0  0  0
    8.2626  -15.9832   20.4749 C   0  0  0  0  0  0  0  0  0  0  0  0
    8.0835  -15.3801   21.8658 C   0  0  0  0  0  0  0  0  0  0  0  0
    8.2115  -16.3789   22.9884 C   0  0  2  0  0  0  0  0  0  0  0  0
    7.9899  -15.6462   24.2747 N   0  0  0  0  0  0  0  0  0  0  0  0
    9.4663  -17.0750   23.1197 C   0  0  0  0  0  0  0  0  0  0  0  0
    9.7670  -17.9379   22.1863 O   0  0  0  0  0  0  0  0  0  0  0  0
    8.1775  -11.1357   18.9572 C   0  0  0  0  0  0  0  0  0  0  0  0
   12.7992  -16.9359   24.6189 C   0  0  2  0  0  0  0  0  0  0  0  0
   11.6429  -17.7310   24.0794 N   0  0  0  0  0  0  0  0  0  0  0  0
   10.4315  -16.9450   24.1516 C   0  0  0  0  0  0  0  0  0  0  0  0
   11.4536  -19.0267   24.8209 O   0  0  0  0  0  0  0  0  0  0  0  0
   12.5325  -19.8853   24.9011 O   0  0  0  0  0  0  0  0  0  0  0  0
  2  1  1  1
  3  2  1  0
  4  2  1  0
  4  5  1  0
  5  7  1  0
  5  6  1  6
  7  8  2  0
 10 12  1  0
 10  9  1  0
 11 10  2  0
 13 14  1  0
 13 12  1  0
 14 15  1  0
 16 15  1  6
 17 16  1  0
 17  7  1  0
 18 16  1  0
 19 18  2  0
 21 20  1  6
 21 23  1  0
 21 22  1  0
 22 18  1  0
 23 24  1  0
 25 23  2  0
M  END
$$$$
