LRA.pdb
     RDKit          3D

 25 24  0  0  1  0  0  0  0  0999 V2000
    9.2853  -12.4798   19.2332 C   0  0  0  0  0  0  0  0  0  0  0  0
    8.0073  -13.2209   19.4879 C   0  0  2  0  0  0  0  0  0  0  0  0
    6.8513  -12.1963   19.6050 C   0  0  0  0  0  0  0  0  0  0  0  0
    8.0385  -13.9883   20.7552 C   0  0  0  0  0  0  0  0  0  0  0  0
    9.0447  -15.0617   20.9621 C   0  0  2  0  0  0  0  0  0  0  0  0
    8.6270  -16.1060   19.9523 N   0  0  0  0  0  0  0  0  0  0  0  0
    8.9575  -15.7855   22.2762 C   0  0  0  0  0  0  0  0  0  0  0  0
    7.8569  -16.2353   22.6225 O   0  0  0  0  0  0  0  0  0  0  0  0
    9.2139  -19.3573   20.6691 N   0  0  0  0  0  0  0  0  0  0  0  0
    9.8864  -20.6134   20.9681 C   0  0  0  0  0  0  0  0  0  0  0  0
    9.9013  -21.5090   20.1032 N   0  0  0  0  0  0  0  0  0  0  0  0
   10.4976  -20.8224   22.2266 N   0  0  0  0  0  0  0  0  0  0  0  0
   10.5762  -19.8723   23.2722 C   0  0  0  0  0  0  0  0  0  0  0  0
   11.1168  -18.5220   22.9856 C   0  0  0  0  0  0  0  0  0  0  0  0
   11.2092  -17.7147   24.2780 C   0  0  0  0  0  0  0  0  0  0  0  0
   10.1899  -16.6083   24.3841 C   0  0  2  0  0  0  0  0  0  0  0  0
   10.1144  -15.9321   23.0509 N   0  0  0  0  0  0  0  0  0  0  0  0
   10.4289  -15.5747   25.3593 C   0  0  0  0  0  0  0  0  0  0  0  0
   11.5991  -14.9949   25.3351 O   0  0  0  0  0  0  0  0  0  0  0  0
   10.1100  -22.4457   19.9143 C   0  0  0  0  0  0  0  0  0  0  0  0
    9.0745  -13.2113   27.7881 C   0  0  2  0  0  0  0  0  0  0  0  0
   10.0705  -14.2783   27.4280 N   0  0  0  0  0  0  0  0  0  0  0  0
    9.5438  -15.1008   26.3619 C   0  0  0  0  0  0  0  0  0  0  0  0
   10.4253  -15.1413   28.6086 O   0  0  0  0  0  0  0  0  0  0  0  0
   11.1248  -14.5562   29.6458 O   0  0  0  0  0  0  0  0  0  0  0  0
  2  1  1  1
  3  2  1  0
  4  2  1  0
  4  5  1  0
  5  7  1  0
  5  6  1  6
  7  8  2  0
 10 12  1  0
 10  9  1  0
 11 10  2  0
 13 14  1  0
 13 12  1  0
 14 15  1  0
 16 15  1  6
 17 16  1  0
 17  7  1  0
 18 16  1  0
 19 18  2  0
 21 20  1  6
 21 23  1  0
 21 22  1  0
 22 18  1  0
 23 24  1  0
 25 23  2  0
M  END
$$$$
