LRA.pdb
     RDKit          3D

 25 24  0  0  1  0  0  0  0  0999 V2000
    5.9470  -12.2203   26.3457 C   0  0  0  0  0  0  0  0  0  0  0  0
    6.8200  -13.0879   27.2015 C   0  0  2  0  0  0  0  0  0  0  0  0
    7.9943  -12.2346   27.7426 C   0  0  0  0  0  0  0  0  0  0  0  0
    7.4140  -14.2164   26.4467 C   0  0  0  0  0  0  0  0  0  0  0  0
    6.5801  -15.0267   25.5218 C   0  0  2  0  0  0  0  0  0  0  0  0
    6.2799  -16.2606   26.3417 N   0  0  0  0  0  0  0  0  0  0  0  0
    7.2930  -15.5688   24.3149 C   0  0  0  0  0  0  0  0  0  0  0  0
    7.7881  -16.7014   24.3898 O   0  0  0  0  0  0  0  0  0  0  0  0
    8.8222  -15.7910   17.0180 N   0  0  0  0  0  0  0  0  0  0  0  0
    8.3206  -14.5348   16.4795 C   0  0  0  0  0  0  0  0  0  0  0  0
    8.4644  -14.3002   15.2652 N   0  0  0  0  0  0  0  0  0  0  0  0
    7.6962  -13.5867   17.3235 N   0  0  0  0  0  0  0  0  0  0  0  0
    8.1522  -13.1984   18.6055 C   0  0  0  0  0  0  0  0  0  0  0  0
    8.5697  -14.2411   19.5730 C   0  0  0  0  0  0  0  0  0  0  0  0
    7.7769  -14.0940   20.8693 C   0  0  0  0  0  0  0  0  0  0  0  0
    8.0722  -15.1611   21.8931 C   0  0  2  0  0  0  0  0  0  0  0  0
    7.3637  -14.7854   23.1569 N   0  0  0  0  0  0  0  0  0  0  0  0
    9.4523  -15.3837   22.2430 C   0  0  0  0  0  0  0  0  0  0  0  0
   10.0459  -14.4519   22.9396 O   0  0  0  0  0  0  0  0  0  0  0  0
    8.3456  -13.6436   14.5501 C   0  0  0  0  0  0  0  0  0  0  0  0
   11.9241  -17.8559   23.0303 C   0  0  1  0  0  0  0  0  0  0  0  0
   11.6328  -16.5299   22.3844 N   0  0  0  0  0  0  0  0  0  0  0  0
   10.2642  -16.5014   21.9192 C   0  0  0  0  0  0  0  0  0  0  0  0
   12.5656  -16.2426   21.2390 O   0  0  0  0  0  0  0  0  0  0  0  0
   13.9070  -16.0827   21.5266 O   0  0  0  0  0  0  0  0  0  0  0  0
  2  1  1  6
  3  2  1  0
  4  2  1  0
  4  5  1  0
  5  7  1  0
  5  6  1  1
  7  8  2  0
 10 12  1  0
 10  9  1  0
 11 10  2  0
 13 14  1  0
 13 12  1  0
 14 15  1  0
 16 15  1  6
 17 16  1  0
 17  7  1  0
 18 16  1  0
 19 18  2  0
 21 20  1  1
 21 23  1  0
 21 22  1  0
 22 18  1  0
 23 24  1  0
 25 23  2  0
M  END
$$$$
