LRA.pdb
     RDKit          3D

 25 24  0  0  1  0  0  0  0  0999 V2000
    7.7332  -12.0821   19.9079 C   0  0  0  0  0  0  0  0  0  0  0  0
    8.3617  -13.4431   19.9094 C   0  0  2  0  0  0  0  0  0  0  0  0
    8.7784  -13.8017   18.4610 C   0  0  0  0  0  0  0  0  0  0  0  0
    7.4287  -14.4992   20.3677 C   0  0  0  0  0  0  0  0  0  0  0  0
    7.9358  -15.6848   21.1057 C   0  0  2  0  0  0  0  0  0  0  0  0
    7.2222  -16.8294   20.4234 N   0  0  0  0  0  0  0  0  0  0  0  0
    7.4918  -15.7944   22.5373 C   0  0  0  0  0  0  0  0  0  0  0  0
    6.4845  -15.1638   22.8854 O   0  0  0  0  0  0  0  0  0  0  0  0
    4.4888  -21.1424   24.6238 N   0  0  0  0  0  0  0  0  0  0  0  0
    5.5750  -21.6175   23.7790 C   0  0  0  0  0  0  0  0  0  0  0  0
    5.3134  -22.0136   22.6279 N   0  0  0  0  0  0  0  0  0  0  0  0
    6.9043  -21.6470   24.2621 N   0  0  0  0  0  0  0  0  0  0  0  0
    7.5730  -20.5753   24.8997 C   0  0  0  0  0  0  0  0  0  0  0  0
    7.2696  -19.1839   24.4881 C   0  0  0  0  0  0  0  0  0  0  0  0
    8.1818  -18.2117   25.2321 C   0  0  0  0  0  0  0  0  0  0  0  0
    7.9518  -16.7635   24.8799 C   0  0  2  0  0  0  0  0  0  0  0  0
    8.2205  -16.6048   23.4160 N   0  0  0  0  0  0  0  0  0  0  0  0
    8.7561  -15.7783   25.5574 C   0  0  0  0  0  0  0  0  0  0  0  0
   10.0347  -15.7703   25.2906 O   0  0  0  0  0  0  0  0  0  0  0  0
    5.6802  -22.3652   21.7921 C   0  0  0  0  0  0  0  0  0  0  0  0
    8.7862  -12.6154   27.4100 C   0  0  2  0  0  0  0  0  0  0  0  0
    9.3278  -13.9965   27.1658 N   0  0  0  0  0  0  0  0  0  0  0  0
    8.3317  -14.8022   26.4958 C   0  0  0  0  0  0  0  0  0  0  0  0
    9.7526  -14.6705   28.4425 O   0  0  0  0  0  0  0  0  0  0  0  0
   10.7869  -14.0995   29.1578 O   0  0  0  0  0  0  0  0  0  0  0  0
  2  1  1  6
  3  2  1  0
  4  2  1  0
  4  5  1  0
  5  7  1  0
  5  6  1  6
  7  8  2  0
 10 12  1  0
 10  9  1  0
 11 10  2  0
 13 14  1  0
 13 12  1  0
 14 15  1  0
 16 15  1  1
 17 16  1  0
 17  7  1  0
 18 16  1  0
 19 18  2  0
 21 20  1  6
 21 23  1  0
 21 22  1  0
 22 18  1  0
 23 24  1  0
 25 23  2  0
M  END
$$$$
