LRA.pdb
     RDKit          3D

 25 24  0  0  1  0  0  0  0  0999 V2000
    6.9275  -11.6431   25.5067 C   0  0  0  0  0  0  0  0  0  0  0  0
    6.2695  -12.3723   26.6393 C   0  0  2  0  0  0  0  0  0  0  0  0
    6.8123  -11.8102   27.9769 C   0  0  0  0  0  0  0  0  0  0  0  0
    6.5633  -13.8248   26.6267 C   0  0  0  0  0  0  0  0  0  0  0  0
    6.2137  -14.6545   25.4448 C   0  0  2  0  0  0  0  0  0  0  0  0
    4.9180  -15.3067   25.8698 N   0  0  0  0  0  0  0  0  0  0  0  0
    7.1256  -15.8192   25.1796 C   0  0  0  0  0  0  0  0  0  0  0  0
    7.2616  -16.6683   26.0707 O   0  0  0  0  0  0  0  0  0  0  0  0
    8.3984  -14.1164   17.6864 N   0  0  0  0  0  0  0  0  0  0  0  0
    8.9395  -13.2744   18.7436 C   0  0  0  0  0  0  0  0  0  0  0  0
    8.6770  -12.0573   18.7377 N   0  0  0  0  0  0  0  0  0  0  0  0
    9.7655  -13.8244   19.7519 N   0  0  0  0  0  0  0  0  0  0  0  0
    9.6321  -15.1171   20.3118 C   0  0  0  0  0  0  0  0  0  0  0  0
    9.2836  -15.2533   21.7462 C   0  0  0  0  0  0  0  0  0  0  0  0
    9.1277  -16.7291   22.1048 C   0  0  0  0  0  0  0  0  0  0  0  0
    8.7469  -16.9737   23.5433 C   0  0  2  0  0  0  0  0  0  0  0  0
    7.7759  -15.9070   23.9429 N   0  0  0  0  0  0  0  0  0  0  0  0
    9.8037  -16.9593   24.5229 C   0  0  0  0  0  0  0  0  0  0  0  0
   10.4533  -15.8369   24.6790 O   0  0  0  0  0  0  0  0  0  0  0  0
    8.7991  -11.2027   19.1976 C   0  0  0  0  0  0  0  0  0  0  0  0
   10.9109  -17.7167   27.6479 C   0  0  2  0  0  0  0  0  0  0  0  0
   11.3747  -17.8172   26.2213 N   0  0  0  0  0  0  0  0  0  0  0  0
   10.2396  -18.0262   25.3505 C   0  0  0  0  0  0  0  0  0  0  0  0
   12.3742  -18.9255   26.0291 O   0  0  0  0  0  0  0  0  0  0  0  0
   13.5284  -18.8893   26.7869 O   0  0  0  0  0  0  0  0  0  0  0  0
  2  1  1  6
  3  2  1  0
  4  2  1  0
  4  5  1  0
  5  7  1  0
  5  6  1  1
  7  8  2  0
 10 12  1  0
 10  9  1  0
 11 10  2  0
 13 14  1  0
 13 12  1  0
 14 15  1  0
 16 15  1  6
 17 16  1  0
 17  7  1  0
 18 16  1  0
 19 18  2  0
 21 20  1  6
 21 23  1  0
 21 22  1  0
 22 18  1  0
 23 24  1  0
 25 23  2  0
M  END
$$$$
