RGL.pdb
     RDKit          3D

 24 23  0  0  1  0  0  0  0  0999 V2000
    6.4858  -19.4598   17.4260 N   0  0  0  0  0  0  0  0  0  0  0  0
    7.3232  -18.4738   16.8417 C   0  0  0  0  0  0  0  0  0  0  0  0
    7.1129  -18.1607   15.6090 N   0  0  0  0  0  0  0  0  0  0  0  0
    8.3841  -17.8233   17.5675 N   0  0  0  0  0  0  0  0  0  0  0  0
    8.1713  -17.2466   18.8435 C   0  0  0  0  0  0  0  0  0  0  0  0
    6.8140  -16.9372   19.3120 C   0  0  0  0  0  0  0  0  0  0  0  0
    6.5915  -16.2371   20.5839 C   0  0  0  0  0  0  0  0  0  0  0  0
    7.7269  -15.9841   21.5005 C   0  0  2  0  0  0  0  0  0  0  0  0
    7.9712  -16.9775   22.5051 N   0  0  0  0  0  0  0  0  0  0  0  0
    7.5264  -14.6964   22.2521 C   0  0  0  0  0  0  0  0  0  0  0  0
    7.1969  -13.6381   21.6571 O   0  0  0  0  0  0  0  0  0  0  0  0
    7.7494  -17.4936   15.1304 N   0  0  0  0  0  0  0  0  0  0  0  0
    7.7059  -14.6515   23.6509 C   0  0  0  0  0  0  0  0  0  0  0  0
    7.5032  -13.3988   24.3981 C   0  0  0  0  0  0  0  0  0  0  0  0
    7.6179  -13.6296   25.8553 O   0  0  0  0  0  0  0  0  0  0  0  0
    6.8026  -13.1334   26.6865 C   0  0  0  0  0  0  0  0  0  0  0  0
    9.4717  -18.5114   27.8018 C   0  0  1  0  0  0  0  0  0  0  0  0
    8.6711  -17.2396   27.4480 C   0  0  0  0  0  0  0  0  0  0  0  0
    8.5392  -17.2845   25.9242 C   0  0  0  0  0  0  0  0  0  0  0  0
    9.4818  -16.0931   27.9333 C   0  0  2  0  0  0  0  0  0  0  0  0
    8.9185  -14.7323   27.7185 N   0  0  0  0  0  0  0  0  0  0  0  0
    8.6817  -14.4359   26.3185 C   0  0  0  0  0  0  0  0  0  0  0  0
    9.6876  -13.6238   28.3162 O   0  0  0  0  0  0  0  0  0  0  0  0
    9.6658  -13.3439   29.6734 O   0  0  0  0  0  0  0  0  0  0  0  0
  1  2  1  0
  2  3  2  0
  4  2  1  0
  5  4  1  0
  6  5  1  0
  7  6  1  0
  8  7  1  0
  8 10  1  0
  8  9  1  1
 10 11  2  0
 10 12  1  0
 12 13  1  0
 14 21  1  0
 14 13  1  0
 15 14  2  0
 17 18  1  6
 17 16  1  0
 19 17  1  0
 20 22  1  0
 20 19  1  1
 20 21  1  0
 22 23  1  0
 24 22  2  0
M  END
$$$$
