RGL.pdb
     RDKit          3D

 24 23  0  0  1  0  0  0  0  0999 V2000
    7.8328  -12.4266   17.0496 N   0  0  0  0  0  0  0  0  0  0  0  0
    7.7171  -13.6642   16.3641 C   0  0  0  0  0  0  0  0  0  0  0  0
    7.4360  -13.6303   15.1065 N   0  0  0  0  0  0  0  0  0  0  0  0
    7.8986  -14.9359   17.0162 N   0  0  0  0  0  0  0  0  0  0  0  0
    8.0025  -15.0447   18.4246 C   0  0  0  0  0  0  0  0  0  0  0  0
    6.8035  -15.2129   19.2562 C   0  0  0  0  0  0  0  0  0  0  0  0
    6.8996  -15.2851   20.7201 C   0  0  0  0  0  0  0  0  0  0  0  0
    7.6638  -16.3800   21.3608 C   0  0  2  0  0  0  0  0  0  0  0  0
    7.0227  -17.0540   22.4518 N   0  0  0  0  0  0  0  0  0  0  0  0
    8.9637  -15.8659   21.9170 C   0  0  0  0  0  0  0  0  0  0  0  0
    9.4501  -14.7710   21.5332 O   0  0  0  0  0  0  0  0  0  0  0  0
    7.3672  -14.5169   14.5693 N   0  0  0  0  0  0  0  0  0  0  0  0
    9.6677  -16.6091   22.8880 C   0  0  0  0  0  0  0  0  0  0  0  0
   10.9812  -16.1579   23.3779 C   0  0  0  0  0  0  0  0  0  0  0  0
   10.8842  -15.6667   24.7705 O   0  0  0  0  0  0  0  0  0  0  0  0
   11.8927  -15.2582   25.4170 C   0  0  0  0  0  0  0  0  0  0  0  0
    8.8912  -12.2778   26.9673 C   0  0  2  0  0  0  0  0  0  0  0  0
    7.9467  -13.2768   26.2647 C   0  0  0  0  0  0  0  0  0  0  0  0
    6.5542  -12.6642   26.4293 C   0  0  0  0  0  0  0  0  0  0  0  0
    8.1074  -14.5694   26.9793 C   0  0  2  0  0  0  0  0  0  0  0  0
    9.3887  -15.2977   26.7721 N   0  0  0  0  0  0  0  0  0  0  0  0
    9.6122  -15.6600   25.3854 C   0  0  0  0  0  0  0  0  0  0  0  0
    9.5839  -16.4938   27.6140 O   0  0  0  0  0  0  0  0  0  0  0  0
    9.9222  -16.4176   28.9558 O   0  0  0  0  0  0  0  0  0  0  0  0
  1  2  1  0
  2  3  2  0
  4  2  1  0
  5  4  1  0
  6  5  1  0
  7  6  1  0
  8  7  1  0
  8 10  1  0
  8  9  1  1
 10 11  2  0
 10 12  1  0
 12 13  1  0
 14 21  1  0
 14 13  1  0
 15 14  2  0
 17 18  1  1
 17 16  1  0
 19 17  1  0
 20 22  1  0
 20 19  1  6
 20 21  1  0
 22 23  1  0
 24 22  2  0
M  END
$$$$
