RGL.pdb
     RDKit          3D

 24 23  0  0  1  0  0  0  0  0999 V2000
    9.5882  -14.0979   19.1449 N   0  0  0  0  0  0  0  0  0  0  0  0
    8.4196  -13.4208   18.7082 C   0  0  0  0  0  0  0  0  0  0  0  0
    8.5639  -12.4546   17.8671 N   0  0  0  0  0  0  0  0  0  0  0  0
    7.0995  -13.7700   19.1673 N   0  0  0  0  0  0  0  0  0  0  0  0
    6.8972  -14.6076   20.2914 C   0  0  0  0  0  0  0  0  0  0  0  0
    6.4325  -15.9909   20.1244 C   0  0  0  0  0  0  0  0  0  0  0  0
    7.3736  -17.1179   20.1676 C   0  0  0  0  0  0  0  0  0  0  0  0
    7.7954  -17.6833   21.4697 C   0  0  2  0  0  0  0  0  0  0  0  0
    6.9380  -17.4211   22.5886 N   0  0  0  0  0  0  0  0  0  0  0  0
    9.1454  -17.1518   21.8675 C   0  0  0  0  0  0  0  0  0  0  0  0
   10.1164  -17.1726   21.0679 O   0  0  0  0  0  0  0  0  0  0  0  0
    7.7571  -11.8390   17.6452 N   0  0  0  0  0  0  0  0  0  0  0  0
    9.3493  -16.6153   23.1565 C   0  0  0  0  0  0  0  0  0  0  0  0
   10.5791  -15.8720   23.4789 C   0  0  0  0  0  0  0  0  0  0  0  0
   10.5848  -15.4523   24.8980 O   0  0  0  0  0  0  0  0  0  0  0  0
   11.5626  -14.8419   25.4205 C   0  0  0  0  0  0  0  0  0  0  0  0
    8.4646  -12.3833   26.8655 C   0  0  2  0  0  0  0  0  0  0  0  0
    7.5646  -13.5674   26.4511 C   0  0  0  0  0  0  0  0  0  0  0  0
    6.1403  -13.0718   26.7103 C   0  0  0  0  0  0  0  0  0  0  0  0
    7.9564  -14.7075   27.3194 C   0  0  2  0  0  0  0  0  0  0  0  0
    9.2858  -15.3244   27.0603 N   0  0  0  0  0  0  0  0  0  0  0  0
    9.4492  -15.7515   25.6837 C   0  0  0  0  0  0  0  0  0  0  0  0
    9.6536  -16.4411   27.9520 O   0  0  0  0  0  0  0  0  0  0  0  0
   10.0546  -16.2500   29.2648 O   0  0  0  0  0  0  0  0  0  0  0  0
  1  2  1  0
  2  3  2  0
  4  2  1  0
  5  4  1  0
  6  5  1  0
  7  6  1  0
  8  7  1  0
  8 10  1  0
  8  9  1  1
 10 11  2  0
 10 12  1  0
 12 13  1  0
 14 21  1  0
 14 13  1  0
 15 14  2  0
 17 18  1  1
 17 16  1  0
 19 17  1  0
 20 22  1  0
 20 19  1  6
 20 21  1  0
 22 23  1  0
 24 22  2  0
M  END
$$$$
