RGL.pdb
     RDKit          3D

 24 23  0  0  1  0  0  0  0  0999 V2000
    8.6726  -13.9329   17.4668 N   0  0  0  0  0  0  0  0  0  0  0  0
    8.4463  -13.3004   18.7172 C   0  0  0  0  0  0  0  0  0  0  0  0
    9.1055  -12.2225   18.9732 N   0  0  0  0  0  0  0  0  0  0  0  0
    7.5214  -13.8150   19.6945 N   0  0  0  0  0  0  0  0  0  0  0  0
    6.8481  -15.0473   19.5091 C   0  0  0  0  0  0  0  0  0  0  0  0
    6.9314  -16.1092   20.5203 C   0  0  0  0  0  0  0  0  0  0  0  0
    6.2787  -17.4084   20.3118 C   0  0  0  0  0  0  0  0  0  0  0  0
    6.4169  -18.4798   21.3249 C   0  0  2  0  0  0  0  0  0  0  0  0
    5.5562  -19.6166   21.1749 N   0  0  0  0  0  0  0  0  0  0  0  0
    6.1380  -17.9464   22.7037 C   0  0  0  0  0  0  0  0  0  0  0  0
    4.9644  -17.8771   23.1514 O   0  0  0  0  0  0  0  0  0  0  0  0
    9.0422  -11.7909   19.9161 N   0  0  0  0  0  0  0  0  0  0  0  0
    7.1972  -17.5099   23.5274 C   0  0  0  0  0  0  0  0  0  0  0  0
    6.9407  -17.0299   24.8958 C   0  0  0  0  0  0  0  0  0  0  0  0
    8.0121  -16.1117   25.3419 O   0  0  0  0  0  0  0  0  0  0  0  0
    9.0170  -15.8415   24.6215 C   0  0  0  0  0  0  0  0  0  0  0  0
    6.6976  -12.3013   26.4713 C   0  0  1  0  0  0  0  0  0  0  0  0
    6.6774  -13.2134   27.7167 C   0  0  0  0  0  0  0  0  0  0  0  0
    5.9989  -12.3680   28.7967 C   0  0  0  0  0  0  0  0  0  0  0  0
    8.0972  -13.5265   28.0224 C   0  0  2  0  0  0  0  0  0  0  0  0
    8.7822  -14.4922   27.1205 N   0  0  0  0  0  0  0  0  0  0  0  0
    7.8930  -15.5237   26.6212 C   0  0  0  0  0  0  0  0  0  0  0  0
    9.9907  -15.1327   27.6744 O   0  0  0  0  0  0  0  0  0  0  0  0
   11.1553  -14.4300   27.9403 O   0  0  0  0  0  0  0  0  0  0  0  0
  1  2  1  0
  2  3  2  0
  4  2  1  0
  5  4  1  0
  6  5  1  0
  7  6  1  0
  8  7  1  0
  8 10  1  0
  8  9  1  6
 10 11  2  0
 10 12  1  0
 12 13  1  0
 14 21  1  0
 14 13  1  0
 15 14  2  0
 17 18  1  1
 17 16  1  0
 19 17  1  0
 20 22  1  0
 20 19  1  6
 20 21  1  0
 22 23  1  0
 24 22  2  0
M  END
$$$$
