RGL.pdb
     RDKit          3D

 24 23  0  0  1  0  0  0  0  0999 V2000
    9.1676  -15.1359   15.5836 N   0  0  0  0  0  0  0  0  0  0  0  0
    8.2390  -14.0658   15.4990 C   0  0  0  0  0  0  0  0  0  0  0  0
    7.7493  -13.7854   14.3399 N   0  0  0  0  0  0  0  0  0  0  0  0
    7.8333  -13.2938   16.6457 N   0  0  0  0  0  0  0  0  0  0  0  0
    8.1497  -13.6961   17.9664 C   0  0  0  0  0  0  0  0  0  0  0  0
    7.7637  -15.0242   18.4607 C   0  0  0  0  0  0  0  0  0  0  0  0
    7.9263  -15.3839   19.8755 C   0  0  0  0  0  0  0  0  0  0  0  0
    7.4943  -16.7161   20.3572 C   0  0  2  0  0  0  0  0  0  0  0  0
    6.1051  -17.0337   20.1988 N   0  0  0  0  0  0  0  0  0  0  0  0
    7.7734  -16.8656   21.8279 C   0  0  0  0  0  0  0  0  0  0  0  0
    8.9509  -16.8796   22.2705 O   0  0  0  0  0  0  0  0  0  0  0  0
    7.1251  -12.9624   14.2289 N   0  0  0  0  0  0  0  0  0  0  0  0
    6.7099  -16.9943   22.7462 C   0  0  0  0  0  0  0  0  0  0  0  0
    6.9671  -17.0570   24.1949 C   0  0  0  0  0  0  0  0  0  0  0  0
    7.9003  -15.9868   24.6116 O   0  0  0  0  0  0  0  0  0  0  0  0
    8.6728  -15.4051   23.7952 C   0  0  0  0  0  0  0  0  0  0  0  0
    7.2868  -12.1560   24.8603 C   0  0  2  0  0  0  0  0  0  0  0  0
    7.0737  -13.0276   26.1168 C   0  0  0  0  0  0  0  0  0  0  0  0
    6.2293  -12.1542   27.0471 C   0  0  0  0  0  0  0  0  0  0  0  0
    8.4286  -13.3170   26.6531 C   0  0  1  0  0  0  0  0  0  0  0  0
    8.9046  -14.7238   26.5547 N   0  0  0  0  0  0  0  0  0  0  0  0
    7.9163  -15.6128   25.9741 C   0  0  0  0  0  0  0  0  0  0  0  0
    9.3988  -15.3176   27.8119 O   0  0  0  0  0  0  0  0  0  0  0  0
   10.4775  -14.7997   28.5112 O   0  0  0  0  0  0  0  0  0  0  0  0
  1  2  1  0
  2  3  2  0
  4  2  1  0
  5  4  1  0
  6  5  1  0
  7  6  1  0
  8  7  1  0
  8 10  1  0
  8  9  1  1
 10 11  2  0
 10 12  1  0
 12 13  1  0
 14 21  1  0
 14 13  1  0
 15 14  2  0
 17 18  1  1
 17 16  1  0
 19 17  1  0
 20 22  1  0
 20 19  1  6
 20 21  1  0
 22 23  1  0
 24 22  2  0
M  END
$$$$
