RGL.pdb
     RDKit          3D

 24 23  0  0  1  0  0  0  0  0999 V2000
    9.7765  -14.7277   15.2955 N   0  0  0  0  0  0  0  0  0  0  0  0
    8.5219  -14.3384   14.7577 C   0  0  0  0  0  0  0  0  0  0  0  0
    8.4490  -14.1387   13.4863 N   0  0  0  0  0  0  0  0  0  0  0  0
    7.3469  -14.1601   15.5720 N   0  0  0  0  0  0  0  0  0  0  0  0
    7.3095  -14.5670   16.9281 C   0  0  0  0  0  0  0  0  0  0  0  0
    7.6009  -13.6143   18.0073 C   0  0  0  0  0  0  0  0  0  0  0  0
    7.4027  -13.9797   19.4161 C   0  0  0  0  0  0  0  0  0  0  0  0
    8.2023  -15.0704   20.0196 C   0  0  2  0  0  0  0  0  0  0  0  0
    8.0087  -16.3823   19.4745 N   0  0  0  0  0  0  0  0  0  0  0  0
    7.9020  -15.1994   21.4881 C   0  0  0  0  0  0  0  0  0  0  0  0
    7.8857  -14.1923   22.2418 O   0  0  0  0  0  0  0  0  0  0  0  0
    7.5395  -13.8799   13.0560 N   0  0  0  0  0  0  0  0  0  0  0  0
    7.6308  -16.4639   22.0523 C   0  0  0  0  0  0  0  0  0  0  0  0
    7.2106  -16.5888   23.4582 C   0  0  0  0  0  0  0  0  0  0  0  0
    8.2315  -16.0199   24.3661 O   0  0  0  0  0  0  0  0  0  0  0  0
    9.4639  -16.0084   24.0782 C   0  0  0  0  0  0  0  0  0  0  0  0
    7.9835  -11.9944   25.3095 C   0  0  1  0  0  0  0  0  0  0  0  0
    7.0938  -12.8044   26.2768 C   0  0  0  0  0  0  0  0  0  0  0  0
    6.3049  -11.7434   27.0471 C   0  0  0  0  0  0  0  0  0  0  0  0
    8.0215  -13.5846   27.1359 C   0  0  2  0  0  0  0  0  0  0  0  0
    8.6692  -14.7742   26.5192 N   0  0  0  0  0  0  0  0  0  0  0  0
    7.7973  -15.4736   25.5947 C   0  0  0  0  0  0  0  0  0  0  0  0
    9.2396  -15.7509   27.4670 O   0  0  0  0  0  0  0  0  0  0  0  0
   10.3939  -15.5033   28.1929 O   0  0  0  0  0  0  0  0  0  0  0  0
  1  2  1  0
  2  3  2  0
  4  2  1  0
  5  4  1  0
  6  5  1  0
  7  6  1  0
  8  7  1  0
  8 10  1  0
  8  9  1  6
 10 11  2  0
 10 12  1  0
 12 13  1  0
 14 21  1  0
 14 13  1  0
 15 14  2  0
 17 18  1  1
 17 16  1  0
 19 17  1  0
 20 22  1  0
 20 19  1  6
 20 21  1  0
 22 23  1  0
 24 22  2  0
M  END
$$$$
