RGL.pdb
     RDKit          3D

 24 23  0  0  1  0  0  0  0  0999 V2000
    8.7354  -12.4300   18.1632 N   0  0  0  0  0  0  0  0  0  0  0  0
    8.3363  -13.5679   17.4144 C   0  0  0  0  0  0  0  0  0  0  0  0
    8.8694  -13.7403   16.2534 N   0  0  0  0  0  0  0  0  0  0  0  0
    7.3700  -14.5200   17.8994 N   0  0  0  0  0  0  0  0  0  0  0  0
    7.3011  -14.8832   19.2667 C   0  0  0  0  0  0  0  0  0  0  0  0
    6.2458  -15.7811   19.7538 C   0  0  0  0  0  0  0  0  0  0  0  0
    6.1707  -16.1660   21.1694 C   0  0  0  0  0  0  0  0  0  0  0  0
    7.3312  -16.8105   21.8260 C   0  0  2  0  0  0  0  0  0  0  0  0
    7.0383  -17.7072   22.9058 N   0  0  0  0  0  0  0  0  0  0  0  0
    8.2562  -15.7753   22.4057 C   0  0  0  0  0  0  0  0  0  0  0  0
    8.3513  -14.6280   21.8985 O   0  0  0  0  0  0  0  0  0  0  0  0
    8.6119  -14.5715   15.6858 N   0  0  0  0  0  0  0  0  0  0  0  0
    9.0414  -16.0750   23.5390 C   0  0  0  0  0  0  0  0  0  0  0  0
   10.5111  -16.0044   23.4791 C   0  0  0  0  0  0  0  0  0  0  0  0
   11.1056  -16.2520   24.8116 O   0  0  0  0  0  0  0  0  0  0  0  0
   12.3537  -16.2056   25.0163 C   0  0  0  0  0  0  0  0  0  0  0  0
    9.3511  -13.7879   29.2791 C   0  0  2  0  0  0  0  0  0  0  0  0
    9.6714  -14.4588   27.9260 C   0  0  0  0  0  0  0  0  0  0  0  0
    8.4557  -14.1483   27.0501 C   0  0  0  0  0  0  0  0  0  0  0  0
    9.8341  -15.9076   28.2117 C   0  0  2  0  0  0  0  0  0  0  0  0
   10.6677  -16.6914   27.2599 N   0  0  0  0  0  0  0  0  0  0  0  0
   10.2339  -16.5491   25.8830 C   0  0  0  0  0  0  0  0  0  0  0  0
   10.8063  -18.1276   27.5692 O   0  0  0  0  0  0  0  0  0  0  0  0
   10.1917  -19.1177   26.8191 O   0  0  0  0  0  0  0  0  0  0  0  0
  1  2  1  0
  2  3  2  0
  4  2  1  0
  5  4  1  0
  6  5  1  0
  7  6  1  0
  8  7  1  0
  8 10  1  0
  8  9  1  1
 10 11  2  0
 10 12  1  0
 12 13  1  0
 14 21  1  0
 14 13  1  0
 15 14  2  0
 17 18  1  1
 17 16  1  0
 19 17  1  0
 20 22  1  0
 20 19  1  6
 20 21  1  0
 22 23  1  0
 24 22  2  0
M  END
$$$$
