RGL.pdb
     RDKit          3D

 24 23  0  0  1  0  0  0  0  0999 V2000
    7.2988  -13.9428   14.9087 N   0  0  0  0  0  0  0  0  0  0  0  0
    8.6019  -14.2312   15.3920 C   0  0  0  0  0  0  0  0  0  0  0  0
    9.3083  -15.0897   14.7396 N   0  0  0  0  0  0  0  0  0  0  0  0
    9.1518  -13.6084   16.5690 N   0  0  0  0  0  0  0  0  0  0  0  0
    8.7186  -13.9595   17.8710 C   0  0  0  0  0  0  0  0  0  0  0  0
    7.3565  -14.4583   18.1013 C   0  0  0  0  0  0  0  0  0  0  0  0
    6.8799  -14.7653   19.4563 C   0  0  0  0  0  0  0  0  0  0  0  0
    7.8378  -15.1962   20.5003 C   0  0  2  0  0  0  0  0  0  0  0  0
    8.5649  -16.4045   20.2415 N   0  0  0  0  0  0  0  0  0  0  0  0
    7.1303  -15.4276   21.8077 C   0  0  0  0  0  0  0  0  0  0  0  0
    6.3317  -14.5765   22.2770 O   0  0  0  0  0  0  0  0  0  0  0  0
   10.2776  -15.3011   15.0480 N   0  0  0  0  0  0  0  0  0  0  0  0
    7.3517  -16.6142   22.5383 C   0  0  0  0  0  0  0  0  0  0  0  0
    6.5795  -16.9048   23.7581 C   0  0  0  0  0  0  0  0  0  0  0  0
    7.2929  -16.4217   24.9613 O   0  0  0  0  0  0  0  0  0  0  0  0
    6.8547  -16.6155   26.1328 C   0  0  0  0  0  0  0  0  0  0  0  0
    6.8181  -11.8066   25.5053 C   0  0  2  0  0  0  0  0  0  0  0  0
    7.1765  -13.2059   26.0503 C   0  0  0  0  0  0  0  0  0  0  0  0
    6.9622  -13.0923   27.5611 C   0  0  0  0  0  0  0  0  0  0  0  0
    8.5940  -13.4446   25.6749 C   0  0  1  0  0  0  0  0  0  0  0  0
    9.0898  -14.8444   25.7752 N   0  0  0  0  0  0  0  0  0  0  0  0
    8.5059  -15.7209   24.7777 C   0  0  0  0  0  0  0  0  0  0  0  0
    8.9514  -15.4747   27.1022 O   0  0  0  0  0  0  0  0  0  0  0  0
    8.1094  -16.5504   27.3359 O   0  0  0  0  0  0  0  0  0  0  0  0
  1  2  1  0
  2  3  2  0
  4  2  1  0
  5  4  1  0
  6  5  1  0
  7  6  1  0
  8  7  1  0
  8 10  1  0
  8  9  1  6
 10 11  2  0
 10 12  1  0
 12 13  1  0
 14 21  1  0
 14 13  1  0
 15 14  2  0
 17 18  1  6
 17 16  1  0
 19 17  1  0
 20 22  1  0
 20 19  1  6
 20 21  1  0
 22 23  1  0
 24 22  2  0
M  END
$$$$
