RGL.pdb
     RDKit          3D

 24 23  0  0  1  0  0  0  0  0999 V2000
    7.8566  -12.1751   15.7255 N   0  0  0  0  0  0  0  0  0  0  0  0
    8.1143  -13.4428   15.1411 C   0  0  0  0  0  0  0  0  0  0  0  0
    7.8442  -13.5935   13.8897 N   0  0  0  0  0  0  0  0  0  0  0  0
    8.6569  -14.5489   15.8878 N   0  0  0  0  0  0  0  0  0  0  0  0
    8.7824  -14.5079   17.2980 C   0  0  0  0  0  0  0  0  0  0  0  0
    7.6115  -14.2626   18.1502 C   0  0  0  0  0  0  0  0  0  0  0  0
    7.7223  -14.2784   19.6148 C   0  0  0  0  0  0  0  0  0  0  0  0
    8.4913  -15.3493   20.2895 C   0  0  2  0  0  0  0  0  0  0  0  0
    8.0811  -16.6968   20.0218 N   0  0  0  0  0  0  0  0  0  0  0  0
    8.4146  -15.1974   21.7842 C   0  0  0  0  0  0  0  0  0  0  0  0
    8.6240  -14.0880   22.3390 O   0  0  0  0  0  0  0  0  0  0  0  0
    8.0741  -14.4895   13.4167 N   0  0  0  0  0  0  0  0  0  0  0  0
    8.1036  -16.3067   22.5988 C   0  0  0  0  0  0  0  0  0  0  0  0
    7.8856  -16.1430   24.0461 C   0  0  0  0  0  0  0  0  0  0  0  0
    9.1620  -16.2515   24.7871 O   0  0  0  0  0  0  0  0  0  0  0  0
   10.2876  -16.1595   24.2158 C   0  0  0  0  0  0  0  0  0  0  0  0
   10.3895  -13.3995   27.2190 C   0  0  2  0  0  0  0  0  0  0  0  0
    9.4070  -14.2834   28.0172 C   0  0  0  0  0  0  0  0  0  0  0  0
    9.1596  -13.5047   29.3110 C   0  0  0  0  0  0  0  0  0  0  0  0
   10.1008  -15.5788   28.2354 C   0  0  2  0  0  0  0  0  0  0  0  0
   10.2677  -16.4608   27.0483 N   0  0  0  0  0  0  0  0  0  0  0  0
    9.1038  -16.4652   26.1825 C   0  0  0  0  0  0  0  0  0  0  0  0
   10.6485  -17.8562   27.3409 O   0  0  0  0  0  0  0  0  0  0  0  0
    9.8478  -18.9366   27.0059 O   0  0  0  0  0  0  0  0  0  0  0  0
  1  2  1  0
  2  3  2  0
  4  2  1  0
  5  4  1  0
  6  5  1  0
  7  6  1  0
  8  7  1  0
  8 10  1  0
  8  9  1  1
 10 11  2  0
 10 12  1  0
 12 13  1  0
 14 21  1  0
 14 13  1  0
 15 14  2  0
 17 18  1  1
 17 16  1  0
 19 17  1  0
 20 22  1  0
 20 19  1  6
 20 21  1  0
 22 23  1  0
 24 22  2  0
M  END
$$$$
