RGL.pdb
     RDKit          3D

 24 23  0  0  1  0  0  0  0  0999 V2000
    9.1868  -13.4460   18.8203 N   0  0  0  0  0  0  0  0  0  0  0  0
    7.9115  -13.0796   19.3244 C   0  0  0  0  0  0  0  0  0  0  0  0
    7.0650  -12.5643   18.5000 N   0  0  0  0  0  0  0  0  0  0  0  0
    7.5381  -13.2596   20.7041 N   0  0  0  0  0  0  0  0  0  0  0  0
    7.1215  -14.5164   21.2070 C   0  0  0  0  0  0  0  0  0  0  0  0
    7.6142  -15.7654   20.6113 C   0  0  0  0  0  0  0  0  0  0  0  0
    8.9018  -16.3436   21.0178 C   0  0  0  0  0  0  0  0  0  0  0  0
    8.9651  -17.2872   22.1576 C   0  0  2  0  0  0  0  0  0  0  0  0
    7.9005  -17.2061   23.1146 N   0  0  0  0  0  0  0  0  0  0  0  0
   10.2290  -17.0824   22.9473 C   0  0  0  0  0  0  0  0  0  0  0  0
   11.2340  -16.5237   22.4370 O   0  0  0  0  0  0  0  0  0  0  0  0
    7.3660  -12.3225   17.5355 N   0  0  0  0  0  0  0  0  0  0  0  0
   10.3114  -17.5172   24.2871 C   0  0  0  0  0  0  0  0  0  0  0  0
   11.5796  -17.4343   25.0310 C   0  0  0  0  0  0  0  0  0  0  0  0
   11.4974  -16.4158   26.1015 O   0  0  0  0  0  0  0  0  0  0  0  0
   12.5260  -15.9381   26.6632 C   0  0  0  0  0  0  0  0  0  0  0  0
    7.4735  -12.4185   26.9218 C   0  0  1  0  0  0  0  0  0  0  0  0
    8.5171  -13.4585   26.4603 C   0  0  0  0  0  0  0  0  0  0  0  0
    7.8901  -14.1032   25.2223 C   0  0  0  0  0  0  0  0  0  0  0  0
    8.6857  -14.4050   27.5930 C   0  0  2  0  0  0  0  0  0  0  0  0
    9.9755  -15.1442   27.6655 N   0  0  0  0  0  0  0  0  0  0  0  0
   10.2163  -15.9713   26.4984 C   0  0  0  0  0  0  0  0  0  0  0  0
   10.1724  -15.9625   28.8776 O   0  0  0  0  0  0  0  0  0  0  0  0
   10.5773  -15.4222   30.0879 O   0  0  0  0  0  0  0  0  0  0  0  0
  1  2  1  0
  2  3  2  0
  4  2  1  0
  5  4  1  0
  6  5  1  0
  7  6  1  0
  8  7  1  0
  8 10  1  0
  8  9  1  1
 10 11  2  0
 10 12  1  0
 12 13  1  0
 14 21  1  0
 14 13  1  0
 15 14  2  0
 17 18  1  1
 17 16  1  0
 19 17  1  0
 20 22  1  0
 20 19  1  6
 20 21  1  0
 22 23  1  0
 24 22  2  0
M  END
$$$$
