RGL.pdb
     RDKit          3D

 24 23  0  0  1  0  0  0  0  0999 V2000
    7.5734  -15.4624   16.7335 N   0  0  0  0  0  0  0  0  0  0  0  0
    7.9748  -14.1214   16.4976 C   0  0  0  0  0  0  0  0  0  0  0  0
    8.1882  -13.7639   15.2776 N   0  0  0  0  0  0  0  0  0  0  0  0
    8.1505  -13.1628   17.5586 N   0  0  0  0  0  0  0  0  0  0  0  0
    7.5703  -13.3495   18.8371 C   0  0  0  0  0  0  0  0  0  0  0  0
    7.1429  -14.6826   19.2815 C   0  0  0  0  0  0  0  0  0  0  0  0
    7.7403  -15.3157   20.4646 C   0  0  0  0  0  0  0  0  0  0  0  0
    9.1503  -15.7677   20.4324 C   0  0  2  0  0  0  0  0  0  0  0  0
    9.5627  -16.4932   19.2665 N   0  0  0  0  0  0  0  0  0  0  0  0
    9.4431  -16.6779   21.5939 C   0  0  0  0  0  0  0  0  0  0  0  0
    9.9430  -17.8190   21.4189 O   0  0  0  0  0  0  0  0  0  0  0  0
    8.4544  -12.7820   15.0669 N   0  0  0  0  0  0  0  0  0  0  0  0
    9.1598  -16.2648   22.9129 C   0  0  0  0  0  0  0  0  0  0  0  0
    9.6417  -17.0419   24.0673 C   0  0  0  0  0  0  0  0  0  0  0  0
   10.0921  -16.1456   25.1553 O   0  0  0  0  0  0  0  0  0  0  0  0
   11.2753  -15.7011   25.2214 C   0  0  0  0  0  0  0  0  0  0  0  0
    8.8057  -12.2485   25.7474 C   0  0  2  0  0  0  0  0  0  0  0  0
    7.7515  -13.2466   26.2728 C   0  0  0  0  0  0  0  0  0  0  0  0
    6.5334  -12.3786   26.5959 C   0  0  0  0  0  0  0  0  0  0  0  0
    8.3506  -13.8868   27.4722 C   0  0  2  0  0  0  0  0  0  0  0  0
    9.4447  -14.8675   27.2353 N   0  0  0  0  0  0  0  0  0  0  0  0
    9.1544  -15.7826   26.1479 C   0  0  0  0  0  0  0  0  0  0  0  0
    9.8657  -15.6481   28.4147 O   0  0  0  0  0  0  0  0  0  0  0  0
   10.5720  -15.0901   29.4685 O   0  0  0  0  0  0  0  0  0  0  0  0
  1  2  1  0
  2  3  2  0
  4  2  1  0
  5  4  1  0
  6  5  1  0
  7  6  1  0
  8  7  1  0
  8 10  1  0
  8  9  1  6
 10 11  2  0
 10 12  1  0
 12 13  1  0
 14 21  1  0
 14 13  1  0
 15 14  2  0
 17 18  1  1
 17 16  1  0
 19 17  1  0
 20 22  1  0
 20 19  1  6
 20 21  1  0
 22 23  1  0
 24 22  2  0
M  END
$$$$
