RGL.pdb
     RDKit          3D

 24 23  0  0  1  0  0  0  0  0999 V2000
    9.4236  -14.4137   14.6890 N   0  0  0  0  0  0  0  0  0  0  0  0
    8.2290  -13.9471   15.2972 C   0  0  0  0  0  0  0  0  0  0  0  0
    7.8730  -12.7299   15.0664 N   0  0  0  0  0  0  0  0  0  0  0  0
    7.4152  -14.7741   16.1512 N   0  0  0  0  0  0  0  0  0  0  0  0
    7.6658  -14.8864   17.5407 C   0  0  0  0  0  0  0  0  0  0  0  0
    7.1267  -13.8982   18.4842 C   0  0  0  0  0  0  0  0  0  0  0  0
    7.2914  -14.0651   19.9343 C   0  0  0  0  0  0  0  0  0  0  0  0
    7.8290  -15.3329   20.4793 C   0  0  2  0  0  0  0  0  0  0  0  0
    6.9651  -16.0700   21.3545 N   0  0  0  0  0  0  0  0  0  0  0  0
    9.0818  -15.0810   21.2733 C   0  0  0  0  0  0  0  0  0  0  0  0
    9.7010  -13.9894   21.1863 O   0  0  0  0  0  0  0  0  0  0  0  0
    7.0069  -12.3546   15.5003 N   0  0  0  0  0  0  0  0  0  0  0  0
    9.5900  -16.0735   22.1378 C   0  0  0  0  0  0  0  0  0  0  0  0
   10.8174  -15.8392   22.9171 C   0  0  0  0  0  0  0  0  0  0  0  0
   10.5048  -15.6634   24.3529 O   0  0  0  0  0  0  0  0  0  0  0  0
   11.4008  -15.6638   25.2468 C   0  0  0  0  0  0  0  0  0  0  0  0
    8.3226  -12.4273   26.6338 C   0  0  1  0  0  0  0  0  0  0  0  0
    7.4412  -13.2793   25.6952 C   0  0  0  0  0  0  0  0  0  0  0  0
    6.0684  -12.6055   25.7468 C   0  0  0  0  0  0  0  0  0  0  0  0
    7.4424  -14.6528   26.2615 C   0  0  2  0  0  0  0  0  0  0  0  0
    8.6900  -15.4474   26.0961 N   0  0  0  0  0  0  0  0  0  0  0  0
    9.1520  -15.4897   24.7218 C   0  0  0  0  0  0  0  0  0  0  0  0
    8.6421  -16.8242   26.6248 O   0  0  0  0  0  0  0  0  0  0  0  0
    8.7480  -17.1111   27.9766 O   0  0  0  0  0  0  0  0  0  0  0  0
  1  2  1  0
  2  3  2  0
  4  2  1  0
  5  4  1  0
  6  5  1  0
  7  6  1  0
  8  7  1  0
  8 10  1  0
  8  9  1  1
 10 11  2  0
 10 12  1  0
 12 13  1  0
 14 21  1  0
 14 13  1  0
 15 14  2  0
 17 18  1  1
 17 16  1  0
 19 17  1  0
 20 22  1  0
 20 19  1  1
 20 21  1  0
 22 23  1  0
 24 22  2  0
M  END
$$$$
