RGL.pdb
     RDKit          3D

 24 23  0  0  1  0  0  0  0  0999 V2000
    7.3525  -12.5466   19.5812 N   0  0  0  0  0  0  0  0  0  0  0  0
    8.5081  -13.1866   19.0617 C   0  0  0  0  0  0  0  0  0  0  0  0
    9.5942  -12.4964   18.9857 N   0  0  0  0  0  0  0  0  0  0  0  0
    8.5076  -14.5585   18.6221 N   0  0  0  0  0  0  0  0  0  0  0  0
    7.9930  -15.6014   19.4307 C   0  0  0  0  0  0  0  0  0  0  0  0
    6.7333  -15.4307   20.1663 C   0  0  0  0  0  0  0  0  0  0  0  0
    6.6920  -15.5215   21.6318 C   0  0  0  0  0  0  0  0  0  0  0  0
    7.1559  -16.7522   22.3125 C   0  0  2  0  0  0  0  0  0  0  0  0
    6.6819  -16.9608   23.6495 N   0  0  0  0  0  0  0  0  0  0  0  0
    8.6569  -16.7702   22.4132 C   0  0  0  0  0  0  0  0  0  0  0  0
    9.3779  -16.9039   21.3911 O   0  0  0  0  0  0  0  0  0  0  0  0
   10.4483  -12.9221   18.5751 N   0  0  0  0  0  0  0  0  0  0  0  0
    9.2893  -16.6362   23.6674 C   0  0  0  0  0  0  0  0  0  0  0  0
   10.7566  -16.5628   23.7689 C   0  0  0  0  0  0  0  0  0  0  0  0
   11.1843  -16.4896   25.1837 O   0  0  0  0  0  0  0  0  0  0  0  0
   12.3929  -16.3199   25.5187 C   0  0  0  0  0  0  0  0  0  0  0  0
   10.2228  -13.3343   28.4610 C   0  0  2  0  0  0  0  0  0  0  0  0
    9.2711  -14.3117   27.7381 C   0  0  0  0  0  0  0  0  0  0  0  0
    7.8712  -13.7721   28.0387 C   0  0  0  0  0  0  0  0  0  0  0  0
    9.5243  -15.6498   28.3320 C   0  0  2  0  0  0  0  0  0  0  0  0
   10.4711  -16.5396   27.6061 N   0  0  0  0  0  0  0  0  0  0  0  0
   10.1945  -16.6151   26.1842 C   0  0  0  0  0  0  0  0  0  0  0  0
   10.5933  -17.9096   28.1406 O   0  0  0  0  0  0  0  0  0  0  0  0
   10.2876  -19.0352   27.3921 O   0  0  0  0  0  0  0  0  0  0  0  0
  1  2  1  0
  2  3  2  0
  4  2  1  0
  5  4  1  0
  6  5  1  0
  7  6  1  0
  8  7  1  0
  8 10  1  0
  8  9  1  1
 10 11  2  0
 10 12  1  0
 12 13  1  0
 14 21  1  0
 14 13  1  0
 15 14  2  0
 17 18  1  1
 17 16  1  0
 19 17  1  0
 20 22  1  0
 20 19  1  6
 20 21  1  0
 22 23  1  0
 24 22  2  0
M  END
$$$$
