RGL.pdb
     RDKit          3D

 24 23  0  0  1  0  0  0  0  0999 V2000
    8.8108  -13.1621   17.5847 N   0  0  0  0  0  0  0  0  0  0  0  0
    8.3466  -13.9691   16.5132 C   0  0  0  0  0  0  0  0  0  0  0  0
    8.0906  -13.3885   15.3911 N   0  0  0  0  0  0  0  0  0  0  0  0
    8.1535  -15.3914   16.6360 N   0  0  0  0  0  0  0  0  0  0  0  0
    8.3802  -16.0730   17.8567 C   0  0  0  0  0  0  0  0  0  0  0  0
    7.2653  -16.6740   18.6005 C   0  0  0  0  0  0  0  0  0  0  0  0
    7.4726  -17.8442   19.4638 C   0  0  0  0  0  0  0  0  0  0  0  0
    7.2366  -17.7418   20.9223 C   0  0  2  0  0  0  0  0  0  0  0  0
    6.1577  -16.8937   21.3375 N   0  0  0  0  0  0  0  0  0  0  0  0
    8.4568  -17.2077   21.6218 C   0  0  0  0  0  0  0  0  0  0  0  0
    9.4243  -17.9581   21.9103 O   0  0  0  0  0  0  0  0  0  0  0  0
    7.7882  -13.9550   14.5744 N   0  0  0  0  0  0  0  0  0  0  0  0
    8.5391  -15.8429   21.9703 C   0  0  0  0  0  0  0  0  0  0  0  0
    9.8057  -15.2599   22.4440 C   0  0  0  0  0  0  0  0  0  0  0  0
    9.8478  -15.2207   23.9227 O   0  0  0  0  0  0  0  0  0  0  0  0
   10.8408  -14.7640   24.5609 C   0  0  0  0  0  0  0  0  0  0  0  0
    7.9543  -12.6255   26.8539 C   0  0  2  0  0  0  0  0  0  0  0  0
    7.0431  -13.4755   25.9424 C   0  0  0  0  0  0  0  0  0  0  0  0
    5.6344  -12.9390   26.2058 C   0  0  0  0  0  0  0  0  0  0  0  0
    7.2247  -14.8849   26.3757 C   0  0  2  0  0  0  0  0  0  0  0  0
    8.5305  -15.5238   26.0563 N   0  0  0  0  0  0  0  0  0  0  0  0
    8.7302  -15.7146   24.6323 C   0  0  0  0  0  0  0  0  0  0  0  0
    8.8020  -16.7976   26.7499 O   0  0  0  0  0  0  0  0  0  0  0  0
    9.2566  -16.8557   28.0579 O   0  0  0  0  0  0  0  0  0  0  0  0
  1  2  1  0
  2  3  2  0
  4  2  1  0
  5  4  1  0
  6  5  1  0
  7  6  1  0
  8  7  1  0
  8 10  1  0
  8  9  1  6
 10 11  2  0
 10 12  1  0
 12 13  1  0
 14 21  1  0
 14 13  1  0
 15 14  2  0
 17 18  1  1
 17 16  1  0
 19 17  1  0
 20 22  1  0
 20 19  1  6
 20 21  1  0
 22 23  1  0
 24 22  2  0
M  END
$$$$
