RGL.pdb
     RDKit          3D

 24 23  0  0  1  0  0  0  0  0999 V2000
    8.8870  -15.0713   16.1722 N   0  0  0  0  0  0  0  0  0  0  0  0
    8.4068  -13.7520   15.9633 C   0  0  0  0  0  0  0  0  0  0  0  0
    8.7993  -13.1304   14.9044 N   0  0  0  0  0  0  0  0  0  0  0  0
    7.5116  -13.0945   16.8807 N   0  0  0  0  0  0  0  0  0  0  0  0
    7.5501  -13.3494   18.2734 C   0  0  0  0  0  0  0  0  0  0  0  0
    7.8606  -14.6912   18.7839 C   0  0  0  0  0  0  0  0  0  0  0  0
    7.9866  -14.9442   20.2253 C   0  0  0  0  0  0  0  0  0  0  0  0
    8.2806  -16.3102   20.7162 C   0  0  2  0  0  0  0  0  0  0  0  0
    7.1656  -17.0679   21.2045 N   0  0  0  0  0  0  0  0  0  0  0  0
    9.2629  -16.2657   21.8548 C   0  0  0  0  0  0  0  0  0  0  0  0
    9.4883  -17.2812   22.5623 O   0  0  0  0  0  0  0  0  0  0  0  0
    8.4964  -12.1504   14.7394 N   0  0  0  0  0  0  0  0  0  0  0  0
    9.9556  -15.0732   22.1531 C   0  0  0  0  0  0  0  0  0  0  0  0
   10.9802  -15.0396   23.2103 C   0  0  0  0  0  0  0  0  0  0  0  0
   10.4238  -15.5089   24.4988 O   0  0  0  0  0  0  0  0  0  0  0  0
   11.0909  -16.2185   25.3070 C   0  0  0  0  0  0  0  0  0  0  0  0
    8.1286  -12.5255   27.1585 C   0  0  1  0  0  0  0  0  0  0  0  0
    7.2837  -13.1536   26.0292 C   0  0  0  0  0  0  0  0  0  0  0  0
    5.9220  -12.4654   26.1449 C   0  0  0  0  0  0  0  0  0  0  0  0
    7.2310  -14.6107   26.3145 C   0  0  2  0  0  0  0  0  0  0  0  0
    8.4895  -15.3805   26.1178 N   0  0  0  0  0  0  0  0  0  0  0  0
    9.0985  -15.1419   24.8230 C   0  0  0  0  0  0  0  0  0  0  0  0
    8.3849  -16.8366   26.3336 O   0  0  0  0  0  0  0  0  0  0  0  0
    8.4074  -17.7511   25.2925 O   0  0  0  0  0  0  0  0  0  0  0  0
  1  2  1  0
  2  3  2  0
  4  2  1  0
  5  4  1  0
  6  5  1  0
  7  6  1  0
  8  7  1  0
  8 10  1  0
  8  9  1  1
 10 11  2  0
 10 12  1  0
 12 13  1  0
 14 21  1  0
 14 13  1  0
 15 14  2  0
 17 18  1  1
 17 16  1  0
 19 17  1  0
 20 22  1  0
 20 19  1  1
 20 21  1  0
 22 23  1  0
 24 22  2  0
M  END
$$$$
