GDV.pdb
     RDKit          3D

 20 19  0  0  1  0  0  0  0  0999 V2000
    7.7910  -12.5560   18.6854 N   0  0  0  0  0  0  0  0  0  0  0  0
    8.7657  -13.3722   19.3424 C   0  0  0  0  0  0  0  0  0  0  0  0
    8.1481  -14.1458   20.4628 C   0  0  0  0  0  0  0  0  0  0  0  0
    6.9710  -13.9693   20.8080 O   0  0  0  0  0  0  0  0  0  0  0  0
    8.9282  -15.1114   21.1542 N   0  0  0  0  0  0  0  0  0  0  0  0
    8.4370  -15.8999   22.2667 C   0  0  1  0  0  0  0  0  0  0  0  0
    9.1602  -17.2157   22.3157 C   0  0  0  0  0  0  0  0  0  0  0  0
    8.8698  -18.0710   21.1509 C   0  0  0  0  0  0  0  0  0  0  0  0
    7.7382  -18.6135   21.0753 O   0  0  0  0  0  0  0  0  0  0  0  0
    8.7972  -15.1295   23.5124 C   0  0  0  0  0  0  0  0  0  0  0  0
    9.9546  -14.6294   23.6064 O   0  0  0  0  0  0  0  0  0  0  0  0
    9.7682  -18.3157   20.1310 O   0  0  0  0  0  0  0  0  0  0  0  0
    7.3808  -12.3862   27.2930 C   0  0  0  0  0  0  0  0  0  0  0  0
    7.0745  -13.2322   26.0621 C   0  0  1  0  0  0  0  0  0  0  0  0
    6.6871  -12.3520   24.8960 C   0  0  0  0  0  0  0  0  0  0  0  0
    8.2573  -14.1176   25.7241 C   0  0  2  0  0  0  0  0  0  0  0  0
    7.9076  -14.9377   24.5801 N   0  0  0  0  0  0  0  0  0  0  0  0
    8.6744  -14.9558   26.8495 C   0  0  0  0  0  0  0  0  0  0  0  0
    8.2483  -16.1268   26.9468 O   0  0  0  0  0  0  0  0  0  0  0  0
    9.5365  -14.4526   27.8003 O   0  0  0  0  0  0  0  0  0  0  0  0
  2  1  1  0
  2  3  1  0
  3  4  2  0
  3  5  1  0
  5  6  1  0
  6  7  1  1
  7  8  1  0
  8 12  1  0
  9  8  2  0
 10 11  2  0
 10  6  1  0
 14 13  1  1
 15 14  1  0
 16 14  1  0
 16 17  1  6
 17 10  1  0
 18 16  1  0
 19 18  2  0
 20 18  1  0
M  END
$$$$
