GDV.pdb
     RDKit          3D

 20 19  0  0  1  0  0  0  0  0999 V2000
    4.2123  -17.3283   20.9915 N   0  0  0  0  0  0  0  0  0  0  0  0
    5.3212  -16.4269   21.0665 C   0  0  0  0  0  0  0  0  0  0  0  0
    6.1814  -16.7340   22.2501 C   0  0  0  0  0  0  0  0  0  0  0  0
    5.7480  -17.3591   23.2285 O   0  0  0  0  0  0  0  0  0  0  0  0
    7.5342  -16.2994   22.2583 N   0  0  0  0  0  0  0  0  0  0  0  0
    8.4545  -16.5446   23.3508 C   0  0  1  0  0  0  0  0  0  0  0  0
    9.7940  -16.9509   22.8056 C   0  0  0  0  0  0  0  0  0  0  0  0
    9.7746  -18.2840   22.1770 C   0  0  0  0  0  0  0  0  0  0  0  0
    9.4430  -19.2716   22.8807 O   0  0  0  0  0  0  0  0  0  0  0  0
    8.6254  -15.2214   24.0543 C   0  0  0  0  0  0  0  0  0  0  0  0
    9.2255  -14.2847   23.4534 O   0  0  0  0  0  0  0  0  0  0  0  0
   10.0998  -18.5179   20.8553 O   0  0  0  0  0  0  0  0  0  0  0  0
    6.7863  -12.4368   24.7815 C   0  0  0  0  0  0  0  0  0  0  0  0
    7.2240  -12.9056   26.1647 C   0  0  1  0  0  0  0  0  0  0  0  0
    6.1027  -13.6506   26.8522 C   0  0  0  0  0  0  0  0  0  0  0  0
    8.4762  -13.7532   26.0616 C   0  0  2  0  0  0  0  0  0  0  0  0
    8.1494  -14.9744   25.3506 N   0  0  0  0  0  0  0  0  0  0  0  0
    9.0592  -14.0597   27.3690 C   0  0  0  0  0  0  0  0  0  0  0  0
    8.9880  -15.2203   27.8273 O   0  0  0  0  0  0  0  0  0  0  0  0
    9.6860  -13.0679   28.0929 O   0  0  0  0  0  0  0  0  0  0  0  0
  2  1  1  0
  2  3  1  0
  3  4  2  0
  3  5  1  0
  5  6  1  0
  6  7  1  6
  7  8  1  0
  8 12  1  0
  9  8  2  0
 10 11  2  0
 10  6  1  0
 14 13  1  6
 15 14  1  0
 16 14  1  0
 16 17  1  1
 17 10  1  0
 18 16  1  0
 19 18  2  0
 20 18  1  0
M  END
$$$$
