GDV.pdb
     RDKit          3D

 20 19  0  0  1  0  0  0  0  0999 V2000
    7.4267  -12.7784   19.0219 N   0  0  0  0  0  0  0  0  0  0  0  0
    8.3986  -13.6952   19.5343 C   0  0  0  0  0  0  0  0  0  0  0  0
    7.9603  -14.2616   20.8467 C   0  0  0  0  0  0  0  0  0  0  0  0
    6.9500  -13.8473   21.4326 O   0  0  0  0  0  0  0  0  0  0  0  0
    8.7200  -15.3040   21.4428 N   0  0  0  0  0  0  0  0  0  0  0  0
    8.2909  -16.0506   22.6086 C   0  0  1  0  0  0  0  0  0  0  0  0
    9.0643  -17.3350   22.7027 C   0  0  0  0  0  0  0  0  0  0  0  0
    8.6016  -18.2015   23.8017 C   0  0  0  0  0  0  0  0  0  0  0  0
    7.5802  -17.8540   24.4470 O   0  0  0  0  0  0  0  0  0  0  0  0
    8.6570  -15.2037   23.8017 C   0  0  0  0  0  0  0  0  0  0  0  0
    9.8139  -14.6967   23.8573 O   0  0  0  0  0  0  0  0  0  0  0  0
    9.2233  -19.3786   24.1694 O   0  0  0  0  0  0  0  0  0  0  0  0
    7.0848  -12.1768   27.3089 C   0  0  0  0  0  0  0  0  0  0  0  0
    6.8306  -13.1624   26.1738 C   0  0  1  0  0  0  0  0  0  0  0  0
    6.3435  -12.4371   24.9402 C   0  0  0  0  0  0  0  0  0  0  0  0
    8.0803  -13.9709   25.8886 C   0  0  2  0  0  0  0  0  0  0  0  0
    7.7736  -14.9475   24.8610 N   0  0  0  0  0  0  0  0  0  0  0  0
    8.6102  -14.6306   27.0832 C   0  0  0  0  0  0  0  0  0  0  0  0
    9.1576  -13.9527   27.9794 O   0  0  0  0  0  0  0  0  0  0  0  0
    8.5049  -15.9985   27.2183 O   0  0  0  0  0  0  0  0  0  0  0  0
  2  1  1  0
  2  3  1  0
  3  4  2  0
  3  5  1  0
  5  6  1  0
  6  7  1  1
  7  8  1  0
  8 12  1  0
  9  8  2  0
 10 11  2  0
 10  6  1  0
 14 13  1  1
 15 14  1  0
 16 14  1  0
 16 17  1  6
 17 10  1  0
 18 16  1  0
 19 18  2  0
 20 18  1  0
M  END
$$$$
