GDV.pdb
     RDKit          3D

 20 19  0  0  1  0  0  0  0  0999 V2000
    7.7231  -12.5654   18.6467 N   0  0  0  0  0  0  0  0  0  0  0  0
    8.6854  -13.2822   19.4264 C   0  0  0  0  0  0  0  0  0  0  0  0
    8.0444  -13.9099   20.6224 C   0  0  0  0  0  0  0  0  0  0  0  0
    6.8675  -13.6754   20.9318 O   0  0  0  0  0  0  0  0  0  0  0  0
    8.8014  -14.8008   21.4300 N   0  0  0  0  0  0  0  0  0  0  0  0
    8.2598  -15.5186   22.5667 C   0  0  1  0  0  0  0  0  0  0  0  0
    8.8548  -16.8965   22.6285 C   0  0  0  0  0  0  0  0  0  0  0  0
    8.5043  -17.7233   21.4596 C   0  0  0  0  0  0  0  0  0  0  0  0
    7.3062  -18.0753   21.3145 O   0  0  0  0  0  0  0  0  0  0  0  0
    8.7168  -14.7640   23.7901 C   0  0  0  0  0  0  0  0  0  0  0  0
    9.9121  -14.3552   23.8428 O   0  0  0  0  0  0  0  0  0  0  0  0
    9.4149  -18.1381   20.5078 O   0  0  0  0  0  0  0  0  0  0  0  0
    7.0619  -11.7394   25.3132 C   0  0  0  0  0  0  0  0  0  0  0  0
    7.2844  -12.7485   26.4343 C   0  0  1  0  0  0  0  0  0  0  0  0
    5.9861  -13.4308   26.7998 C   0  0  0  0  0  0  0  0  0  0  0  0
    8.3490  -13.7514   26.0365 C   0  0  2  0  0  0  0  0  0  0  0  0
    7.8780  -14.4901   24.8806 N   0  0  0  0  0  0  0  0  0  0  0  0
    8.6969  -14.6664   27.1250 C   0  0  0  0  0  0  0  0  0  0  0  0
    8.3214  -15.8579   27.0824 O   0  0  0  0  0  0  0  0  0  0  0  0
    9.4379  -14.2131   28.1953 O   0  0  0  0  0  0  0  0  0  0  0  0
  2  1  1  0
  2  3  1  0
  3  4  2  0
  3  5  1  0
  5  6  1  0
  6  7  1  1
  7  8  1  0
  8 12  1  0
  9  8  2  0
 10 11  2  0
 10  6  1  0
 14 13  1  6
 15 14  1  0
 16 14  1  0
 16 17  1  6
 17 10  1  0
 18 16  1  0
 19 18  2  0
 20 18  1  0
M  END
$$$$
