GDV.pdb
     RDKit          3D

 20 19  0  0  1  0  0  0  0  0999 V2000
    7.5365  -13.1520   18.9809 N   0  0  0  0  0  0  0  0  0  0  0  0
    8.6850  -13.7240   19.6146 C   0  0  0  0  0  0  0  0  0  0  0  0
    8.2955  -14.4869   20.8400 C   0  0  0  0  0  0  0  0  0  0  0  0
    7.1413  -14.4554   21.2902 O   0  0  0  0  0  0  0  0  0  0  0  0
    9.2722  -15.2712   21.5107 N   0  0  0  0  0  0  0  0  0  0  0  0
    8.9974  -16.0681   22.6898 C   0  0  1  0  0  0  0  0  0  0  0  0
   10.0357  -17.1448   22.8291 C   0  0  0  0  0  0  0  0  0  0  0  0
   10.0004  -18.1192   21.7237 C   0  0  0  0  0  0  0  0  0  0  0  0
    8.9296  -18.7425   21.5106 O   0  0  0  0  0  0  0  0  0  0  0  0
    9.1417  -15.1339   23.8650 C   0  0  0  0  0  0  0  0  0  0  0  0
   10.1988  -14.4486   23.9726 O   0  0  0  0  0  0  0  0  0  0  0  0
   11.0764  -18.3923   20.9021 O   0  0  0  0  0  0  0  0  0  0  0  0
    7.0502  -12.3481   27.2956 C   0  0  0  0  0  0  0  0  0  0  0  0
    6.9686  -13.3195   26.1233 C   0  0  1  0  0  0  0  0  0  0  0  0
    6.5306  -12.6007   24.8678 C   0  0  0  0  0  0  0  0  0  0  0  0
    8.2969  -14.0230   25.9289 C   0  0  2  0  0  0  0  0  0  0  0  0
    8.1564  -14.9848   24.8524 N   0  0  0  0  0  0  0  0  0  0  0  0
    8.7705  -14.6810   27.1478 C   0  0  0  0  0  0  0  0  0  0  0  0
    8.5639  -15.9018   27.3184 O   0  0  0  0  0  0  0  0  0  0  0  0
    9.4437  -13.9534   28.1058 O   0  0  0  0  0  0  0  0  0  0  0  0
  2  1  1  0
  2  3  1  0
  3  4  2  0
  3  5  1  0
  5  6  1  0
  6  7  1  1
  7  8  1  0
  8 12  1  0
  9  8  2  0
 10 11  2  0
 10  6  1  0
 14 13  1  1
 15 14  1  0
 16 14  1  0
 16 17  1  6
 17 10  1  0
 18 16  1  0
 19 18  2  0
 20 18  1  0
M  END
$$$$
