GDV.pdb
     RDKit          3D

 20 19  0  0  1  0  0  0  0  0999 V2000
    5.0176  -19.4081   23.5207 N   0  0  0  0  0  0  0  0  0  0  0  0
    5.2133  -18.0217   23.2252 C   0  0  0  0  0  0  0  0  0  0  0  0
    6.6694  -17.6910   23.1498 C   0  0  0  0  0  0  0  0  0  0  0  0
    7.5365  -18.4505   23.6050 O   0  0  0  0  0  0  0  0  0  0  0  0
    7.0755  -16.4735   22.5402 N   0  0  0  0  0  0  0  0  0  0  0  0
    8.4489  -16.0126   22.4934 C   0  0  1  0  0  0  0  0  0  0  0  0
    8.7081  -15.3191   21.1863 C   0  0  0  0  0  0  0  0  0  0  0  0
    8.9685  -16.2599   20.0819 C   0  0  0  0  0  0  0  0  0  0  0  0
    9.4319  -17.3949   20.3607 O   0  0  0  0  0  0  0  0  0  0  0  0
    8.5805  -14.9883   23.5926 C   0  0  0  0  0  0  0  0  0  0  0  0
    8.5228  -13.7614   23.2925 O   0  0  0  0  0  0  0  0  0  0  0  0
    8.7340  -15.9714   18.7519 O   0  0  0  0  0  0  0  0  0  0  0  0
    7.2650  -12.6094   27.0506 C   0  0  0  0  0  0  0  0  0  0  0  0
    7.4605  -13.5154   25.8400 C   0  0  1  0  0  0  0  0  0  0  0  0
    7.4671  -12.7036   24.5650 C   0  0  0  0  0  0  0  0  0  0  0  0
    8.7307  -14.3284   25.9904 C   0  0  2  0  0  0  0  0  0  0  0  0
    8.7651  -15.3289   24.9409 N   0  0  0  0  0  0  0  0  0  0  0  0
    8.8441  -14.9594   27.3065 C   0  0  0  0  0  0  0  0  0  0  0  0
    8.4860  -16.1468   27.4620 O   0  0  0  0  0  0  0  0  0  0  0  0
    9.3458  -14.2435   28.3724 O   0  0  0  0  0  0  0  0  0  0  0  0
  2  1  1  0
  2  3  1  0
  3  4  2  0
  3  5  1  0
  5  6  1  0
  6  7  1  6
  7  8  1  0
  8 12  1  0
  9  8  2  0
 10 11  2  0
 10  6  1  0
 14 13  1  1
 15 14  1  0
 16 14  1  0
 16 17  1  6
 17 10  1  0
 18 16  1  0
 19 18  2  0
 20 18  1  0
M  END
$$$$
