GDV.pdb
     RDKit          3D

 20 19  0  0  1  0  0  0  0  0999 V2000
    7.6253  -12.7419   18.8314 N   0  0  0  0  0  0  0  0  0  0  0  0
    8.7338  -13.3477   19.5036 C   0  0  0  0  0  0  0  0  0  0  0  0
    8.2741  -14.1463   20.6810 C   0  0  0  0  0  0  0  0  0  0  0  0
    7.1012  -14.1076   21.0792 O   0  0  0  0  0  0  0  0  0  0  0  0
    9.2040  -14.9742   21.3657 N   0  0  0  0  0  0  0  0  0  0  0  0
    8.8504  -15.8443   22.4696 C   0  0  1  0  0  0  0  0  0  0  0  0
    9.7971  -17.0094   22.5220 C   0  0  0  0  0  0  0  0  0  0  0  0
    9.6846  -17.8905   21.3457 C   0  0  0  0  0  0  0  0  0  0  0  0
    8.6384  -18.5742   21.2093 O   0  0  0  0  0  0  0  0  0  0  0  0
    9.0533  -15.0289   23.7221 C   0  0  0  0  0  0  0  0  0  0  0  0
   10.1838  -14.5022   23.9301 O   0  0  0  0  0  0  0  0  0  0  0  0
   10.6622  -18.0132   20.3780 O   0  0  0  0  0  0  0  0  0  0  0  0
    7.1831  -12.4754   27.4850 C   0  0  0  0  0  0  0  0  0  0  0  0
    7.0028  -13.2795   26.2022 C   0  0  1  0  0  0  0  0  0  0  0  0
    6.5751  -12.3784   25.0665 C   0  0  0  0  0  0  0  0  0  0  0  0
    8.2759  -14.0314   25.8687 C   0  0  2  0  0  0  0  0  0  0  0  0
    8.0451  -14.8231   24.6756 N   0  0  0  0  0  0  0  0  0  0  0  0
    8.7339  -14.8812   26.9692 C   0  0  0  0  0  0  0  0  0  0  0  0
    8.4249  -16.0921   26.9926 O   0  0  0  0  0  0  0  0  0  0  0  0
    9.5051  -14.3450   27.9782 O   0  0  0  0  0  0  0  0  0  0  0  0
  2  1  1  0
  2  3  1  0
  3  4  2  0
  3  5  1  0
  5  6  1  0
  6  7  1  1
  7  8  1  0
  8 12  1  0
  9  8  2  0
 10 11  2  0
 10  6  1  0
 14 13  1  1
 15 14  1  0
 16 14  1  0
 16 17  1  6
 17 10  1  0
 18 16  1  0
 19 18  2  0
 20 18  1  0
M  END
$$$$
