GDV.pdb
     RDKit          3D

 20 19  0  0  1  0  0  0  0  0999 V2000
    7.1737  -12.9579   18.8350 N   0  0  0  0  0  0  0  0  0  0  0  0
    8.3761  -13.3585   19.4995 C   0  0  0  0  0  0  0  0  0  0  0  0
    8.0744  -14.2549   20.6574 C   0  0  0  0  0  0  0  0  0  0  0  0
    6.9130  -14.4676   21.0340 O   0  0  0  0  0  0  0  0  0  0  0  0
    9.1454  -14.8827   21.3485 N   0  0  0  0  0  0  0  0  0  0  0  0
    8.9639  -15.8092   22.4483 C   0  0  1  0  0  0  0  0  0  0  0  0
   10.0591  -16.8373   22.4328 C   0  0  0  0  0  0  0  0  0  0  0  0
    9.7118  -18.0536   23.1897 C   0  0  0  0  0  0  0  0  0  0  0  0
   10.4193  -19.0802   23.0281 O   0  0  0  0  0  0  0  0  0  0  0  0
    9.1156  -14.9932   23.7076 C   0  0  0  0  0  0  0  0  0  0  0  0
   10.1780  -14.3295   23.8796 O   0  0  0  0  0  0  0  0  0  0  0  0
    8.6515  -18.1369   24.0706 O   0  0  0  0  0  0  0  0  0  0  0  0
    7.0855  -12.3310   27.2137 C   0  0  0  0  0  0  0  0  0  0  0  0
    6.9915  -13.2551   26.0046 C   0  0  1  0  0  0  0  0  0  0  0  0
    6.6840  -12.4635   24.7541 C   0  0  0  0  0  0  0  0  0  0  0  0
    8.2674  -14.0594   25.8561 C   0  0  2  0  0  0  0  0  0  0  0  0
    8.1315  -14.9320   24.7055 N   0  0  0  0  0  0  0  0  0  0  0  0
    8.5878  -14.8356   27.0552 C   0  0  0  0  0  0  0  0  0  0  0  0
    8.2646  -16.0410   27.1230 O   0  0  0  0  0  0  0  0  0  0  0  0
    9.2455  -14.2361   28.1081 O   0  0  0  0  0  0  0  0  0  0  0  0
  2  1  1  0
  2  3  1  0
  3  4  2  0
  3  5  1  0
  5  6  1  0
  6  7  1  1
  7  8  1  0
  8 12  1  0
  9  8  2  0
 10 11  2  0
 10  6  1  0
 14 13  1  1
 15 14  1  0
 16 14  1  0
 16 17  1  6
 17 10  1  0
 18 16  1  0
 19 18  2  0
 20 18  1  0
M  END
$$$$
