GDV.pdb
     RDKit          3D

 20 19  0  0  1  0  0  0  0  0999 V2000
    6.5074  -12.9467   18.7353 N   0  0  0  0  0  0  0  0  0  0  0  0
    7.7682  -13.0094   19.4092 C   0  0  0  0  0  0  0  0  0  0  0  0
    7.7059  -13.9431   20.5752 C   0  0  0  0  0  0  0  0  0  0  0  0
    6.6355  -14.4308   20.9655 O   0  0  0  0  0  0  0  0  0  0  0  0
    8.9043  -14.2840   21.2582 N   0  0  0  0  0  0  0  0  0  0  0  0
    8.9683  -15.2317   22.3529 C   0  0  1  0  0  0  0  0  0  0  0  0
   10.2511  -16.0098   22.2775 C   0  0  0  0  0  0  0  0  0  0  0  0
   10.3761  -17.0113   23.3516 C   0  0  0  0  0  0  0  0  0  0  0  0
    9.3649  -17.2619   24.0555 O   0  0  0  0  0  0  0  0  0  0  0  0
    9.0034  -14.4064   23.6148 C   0  0  0  0  0  0  0  0  0  0  0  0
    9.3320  -13.1879   23.5372 O   0  0  0  0  0  0  0  0  0  0  0  0
   11.5412  -17.6962   23.6354 O   0  0  0  0  0  0  0  0  0  0  0  0
    6.8415  -12.3281   26.8765 C   0  0  0  0  0  0  0  0  0  0  0  0
    7.2314  -13.1783   25.6724 C   0  0  1  0  0  0  0  0  0  0  0  0
    7.5129  -12.3025   24.4730 C   0  0  0  0  0  0  0  0  0  0  0  0
    8.4178  -14.0585   26.0113 C   0  0  2  0  0  0  0  0  0  0  0  0
    8.6880  -14.9246   24.8797 N   0  0  0  0  0  0  0  0  0  0  0  0
    8.2052  -14.8492   27.2249 C   0  0  0  0  0  0  0  0  0  0  0  0
    7.6498  -15.9665   27.1522 O   0  0  0  0  0  0  0  0  0  0  0  0
    8.6178  -14.3605   28.4461 O   0  0  0  0  0  0  0  0  0  0  0  0
  2  1  1  0
  2  3  1  0
  3  4  2  0
  3  5  1  0
  5  6  1  0
  6  7  1  6
  7  8  1  0
  8 12  1  0
  9  8  2  0
 10 11  2  0
 10  6  1  0
 14 13  1  1
 15 14  1  0
 16 14  1  0
 16 17  1  6
 17 10  1  0
 18 16  1  0
 19 18  2  0
 20 18  1  0
M  END
$$$$
