GDV.pdb
     RDKit          3D

 20 19  0  0  1  0  0  0  0  0999 V2000
    7.2597  -12.9987   19.0386 N   0  0  0  0  0  0  0  0  0  0  0  0
    8.4007  -13.4756   19.7586 C   0  0  0  0  0  0  0  0  0  0  0  0
    7.9849  -14.2803   20.9480 C   0  0  0  0  0  0  0  0  0  0  0  0
    6.7994  -14.3626   21.2994 O   0  0  0  0  0  0  0  0  0  0  0  0
    8.9727  -14.9718   21.6997 N   0  0  0  0  0  0  0  0  0  0  0  0
    8.6861  -15.7442   22.8922 C   0  0  1  0  0  0  0  0  0  0  0  0
    9.6084  -16.9276   22.9653 C   0  0  0  0  0  0  0  0  0  0  0  0
    9.4917  -17.8163   21.7951 C   0  0  0  0  0  0  0  0  0  0  0  0
    8.4304  -18.4739   21.6478 O   0  0  0  0  0  0  0  0  0  0  0  0
    9.0024  -14.8407   24.0578 C   0  0  0  0  0  0  0  0  0  0  0  0
   10.1056  -14.2231   24.0683 O   0  0  0  0  0  0  0  0  0  0  0  0
   10.4810  -17.9729   20.8443 O   0  0  0  0  0  0  0  0  0  0  0  0
    7.2761  -11.8769   25.2147 C   0  0  0  0  0  0  0  0  0  0  0  0
    7.3822  -12.7694   26.4463 C   0  0  1  0  0  0  0  0  0  0  0  0
    6.0526  -13.4241   26.7436 C   0  0  0  0  0  0  0  0  0  0  0  0
    8.4806  -13.7968   26.2590 C   0  0  2  0  0  0  0  0  0  0  0  0
    8.1293  -14.6487   25.1389 N   0  0  0  0  0  0  0  0  0  0  0  0
    8.7142  -14.5985   27.4614 C   0  0  0  0  0  0  0  0  0  0  0  0
    8.3625  -15.7976   27.4899 O   0  0  0  0  0  0  0  0  0  0  0  0
    9.3218  -14.0301   28.5606 O   0  0  0  0  0  0  0  0  0  0  0  0
  2  1  1  0
  2  3  1  0
  3  4  2  0
  3  5  1  0
  5  6  1  0
  6  7  1  1
  7  8  1  0
  8 12  1  0
  9  8  2  0
 10 11  2  0
 10  6  1  0
 14 13  1  6
 15 14  1  0
 16 14  1  0
 16 17  1  6
 17 10  1  0
 18 16  1  0
 19 18  2  0
 20 18  1  0
M  END
$$$$
