GDV.pdb
     RDKit          3D

 20 19  0  0  1  0  0  0  0  0999 V2000
    7.1588  -13.2155   19.1049 N   0  0  0  0  0  0  0  0  0  0  0  0
    8.4120  -13.6653   19.6292 C   0  0  0  0  0  0  0  0  0  0  0  0
    8.2165  -14.4375   20.8944 C   0  0  0  0  0  0  0  0  0  0  0  0
    7.1200  -14.4817   21.4703 O   0  0  0  0  0  0  0  0  0  0  0  0
    9.3152  -15.1420   21.4562 N   0  0  0  0  0  0  0  0  0  0  0  0
    9.2162  -15.9927   22.6255 C   0  0  1  0  0  0  0  0  0  0  0  0
   10.4177  -16.8909   22.7039 C   0  0  0  0  0  0  0  0  0  0  0  0
   10.2627  -17.9671   23.6991 C   0  0  0  0  0  0  0  0  0  0  0  0
    9.1873  -18.0313   24.3470 O   0  0  0  0  0  0  0  0  0  0  0  0
    9.2539  -15.0675   23.8161 C   0  0  0  0  0  0  0  0  0  0  0  0
   10.2811  -14.3540   24.0012 O   0  0  0  0  0  0  0  0  0  0  0  0
   11.2306  -18.9153   23.9662 O   0  0  0  0  0  0  0  0  0  0  0  0
    6.8171  -12.4852   27.2060 C   0  0  0  0  0  0  0  0  0  0  0  0
    6.8669  -13.3762   25.9697 C   0  0  1  0  0  0  0  0  0  0  0  0
    6.4817  -12.5934   24.7354 C   0  0  0  0  0  0  0  0  0  0  0  0
    8.2396  -14.0027   25.8273 C   0  0  2  0  0  0  0  0  0  0  0  0
    8.2002  -14.9570   24.7357 N   0  0  0  0  0  0  0  0  0  0  0  0
    8.6954  -14.6490   27.0592 C   0  0  0  0  0  0  0  0  0  0  0  0
    9.0690  -13.9528   28.0277 O   0  0  0  0  0  0  0  0  0  0  0  0
    8.7119  -16.0245   27.1496 O   0  0  0  0  0  0  0  0  0  0  0  0
  2  1  1  0
  2  3  1  0
  3  4  2  0
  3  5  1  0
  5  6  1  0
  6  7  1  1
  7  8  1  0
  8 12  1  0
  9  8  2  0
 10 11  2  0
 10  6  1  0
 14 13  1  1
 15 14  1  0
 16 14  1  0
 16 17  1  6
 17 10  1  0
 18 16  1  0
 19 18  2  0
 20 18  1  0
M  END
$$$$
