GDV.pdb
     RDKit          3D

 20 19  0  0  1  0  0  0  0  0999 V2000
    7.5924  -12.7367   18.8616 N   0  0  0  0  0  0  0  0  0  0  0  0
    8.7539  -13.3728   19.4039 C   0  0  0  0  0  0  0  0  0  0  0  0
    8.4042  -14.1905   20.6058 C   0  0  0  0  0  0  0  0  0  0  0  0
    7.2651  -14.1808   21.0940 O   0  0  0  0  0  0  0  0  0  0  0  0
    9.4019  -15.0029   21.2086 N   0  0  0  0  0  0  0  0  0  0  0  0
    9.1355  -15.9582   22.2655 C   0  0  1  0  0  0  0  0  0  0  0  0
   10.2050  -17.0130   22.2789 C   0  0  0  0  0  0  0  0  0  0  0  0
   10.0386  -18.0092   21.2054 C   0  0  0  0  0  0  0  0  0  0  0  0
    8.9094  -18.1216   20.6643 O   0  0  0  0  0  0  0  0  0  0  0  0
    9.2336  -15.1860   23.5574 C   0  0  0  0  0  0  0  0  0  0  0  0
   10.3168  -14.5952   23.8335 O   0  0  0  0  0  0  0  0  0  0  0  0
   11.0515  -18.8322   20.7536 O   0  0  0  0  0  0  0  0  0  0  0  0
    6.9512  -12.6656   27.0778 C   0  0  0  0  0  0  0  0  0  0  0  0
    6.9282  -13.5329   25.8240 C   0  0  1  0  0  0  0  0  0  0  0  0
    6.5658  -12.7049   24.6124 C   0  0  0  0  0  0  0  0  0  0  0  0
    8.2603  -14.2328   25.6434 C   0  0  2  0  0  0  0  0  0  0  0  0
    8.1772  -15.0886   24.4753 N   0  0  0  0  0  0  0  0  0  0  0  0
    8.6550  -15.0073   26.8213 C   0  0  0  0  0  0  0  0  0  0  0  0
    8.3785  -16.2243   26.8891 O   0  0  0  0  0  0  0  0  0  0  0  0
    9.3310  -14.3935   27.8541 O   0  0  0  0  0  0  0  0  0  0  0  0
  2  1  1  0
  2  3  1  0
  3  4  2  0
  3  5  1  0
  5  6  1  0
  6  7  1  1
  7  8  1  0
  8 12  1  0
  9  8  2  0
 10 11  2  0
 10  6  1  0
 14 13  1  1
 15 14  1  0
 16 14  1  0
 16 17  1  6
 17 10  1  0
 18 16  1  0
 19 18  2  0
 20 18  1  0
M  END
$$$$
