GDV.pdb
     RDKit          3D

 20 19  0  0  1  0  0  0  0  0999 V2000
    7.2741  -12.8982   18.9320 N   0  0  0  0  0  0  0  0  0  0  0  0
    8.4212  -13.5478   19.4887 C   0  0  0  0  0  0  0  0  0  0  0  0
    8.0512  -14.3409   20.7010 C   0  0  0  0  0  0  0  0  0  0  0  0
    6.9046  -14.3199   21.1708 O   0  0  0  0  0  0  0  0  0  0  0  0
    9.0380  -15.1424   21.3356 N   0  0  0  0  0  0  0  0  0  0  0  0
    8.7790  -15.9774   22.4916 C   0  0  1  0  0  0  0  0  0  0  0  0
    9.7876  -17.0890   22.5521 C   0  0  0  0  0  0  0  0  0  0  0  0
    9.6577  -18.0400   21.4334 C   0  0  0  0  0  0  0  0  0  0  0  0
    8.6570  -18.8006   21.4090 O   0  0  0  0  0  0  0  0  0  0  0  0
    8.9922  -15.0957   23.6966 C   0  0  0  0  0  0  0  0  0  0  0  0
   10.0714  -14.4436   23.7913 O   0  0  0  0  0  0  0  0  0  0  0  0
   10.5718  -18.1488   20.4040 O   0  0  0  0  0  0  0  0  0  0  0  0
    7.1926  -12.3179   27.2619 C   0  0  0  0  0  0  0  0  0  0  0  0
    7.0158  -13.2469   26.0659 C   0  0  1  0  0  0  0  0  0  0  0  0
    6.6484  -12.4574   24.8303 C   0  0  0  0  0  0  0  0  0  0  0  0
    8.2692  -14.0709   25.8493 C   0  0  2  0  0  0  0  0  0  0  0  0
    8.0481  -14.9605   24.7253 N   0  0  0  0  0  0  0  0  0  0  0  0
    8.6568  -14.8315   27.0386 C   0  0  0  0  0  0  0  0  0  0  0  0
    8.3164  -16.0288   27.1518 O   0  0  0  0  0  0  0  0  0  0  0  0
    9.3967  -14.2263   28.0320 O   0  0  0  0  0  0  0  0  0  0  0  0
  2  1  1  0
  2  3  1  0
  3  4  2  0
  3  5  1  0
  5  6  1  0
  6  7  1  1
  7  8  1  0
  8 12  1  0
  9  8  2  0
 10 11  2  0
 10  6  1  0
 14 13  1  1
 15 14  1  0
 16 14  1  0
 16 17  1  6
 17 10  1  0
 18 16  1  0
 19 18  2  0
 20 18  1  0
M  END
$$$$
