GDV.pdb
     RDKit          3D

 20 19  0  0  1  0  0  0  0  0999 V2000
    7.4308  -12.7290   18.5946 N   0  0  0  0  0  0  0  0  0  0  0  0
    8.5516  -13.1459   19.3805 C   0  0  0  0  0  0  0  0  0  0  0  0
    8.1295  -14.1021   20.4496 C   0  0  0  0  0  0  0  0  0  0  0  0
    6.9399  -14.4011   20.6264 O   0  0  0  0  0  0  0  0  0  0  0  0
    9.1158  -14.6869   21.2887 N   0  0  0  0  0  0  0  0  0  0  0  0
    8.8221  -15.6552   22.3263 C   0  0  1  0  0  0  0  0  0  0  0  0
    9.8257  -16.7719   22.2784 C   0  0  0  0  0  0  0  0  0  0  0  0
    9.5846  -17.8015   23.3052 C   0  0  0  0  0  0  0  0  0  0  0  0
   10.5427  -18.1453   24.0431 O   0  0  0  0  0  0  0  0  0  0  0  0
    9.0036  -14.9285   23.6355 C   0  0  0  0  0  0  0  0  0  0  0  0
   10.1083  -14.3594   23.8686 O   0  0  0  0  0  0  0  0  0  0  0  0
    8.3648  -18.4162   23.5091 O   0  0  0  0  0  0  0  0  0  0  0  0
    7.0543  -12.4608   27.3610 C   0  0  0  0  0  0  0  0  0  0  0  0
    6.9130  -13.2872   26.0875 C   0  0  1  0  0  0  0  0  0  0  0  0
    6.5573  -12.4006   24.9161 C   0  0  0  0  0  0  0  0  0  0  0  0
    8.1820  -14.0739   25.8268 C   0  0  2  0  0  0  0  0  0  0  0  0
    8.0025  -14.8507   24.6152 N   0  0  0  0  0  0  0  0  0  0  0  0
    8.5464  -14.9439   26.9463 C   0  0  0  0  0  0  0  0  0  0  0  0
    8.1434  -16.1267   26.9741 O   0  0  0  0  0  0  0  0  0  0  0  0
    9.3335  -14.4576   27.9683 O   0  0  0  0  0  0  0  0  0  0  0  0
  2  1  1  0
  2  3  1  0
  3  4  2  0
  3  5  1  0
  5  6  1  0
  6  7  1  1
  7  8  1  0
  8 12  1  0
  9  8  2  0
 10 11  2  0
 10  6  1  0
 14 13  1  1
 15 14  1  0
 16 14  1  0
 16 17  1  6
 17 10  1  0
 18 16  1  0
 19 18  2  0
 20 18  1  0
M  END
$$$$
