GDV.pdb
     RDKit          3D

 20 19  0  0  1  0  0  0  0  0999 V2000
    7.2751  -13.5485   18.8157 N   0  0  0  0  0  0  0  0  0  0  0  0
    8.3452  -13.4355   19.7589 C   0  0  0  0  0  0  0  0  0  0  0  0
    8.0471  -14.2110   21.0019 C   0  0  0  0  0  0  0  0  0  0  0  0
    6.8888  -14.3618   21.4161 O   0  0  0  0  0  0  0  0  0  0  0  0
    9.1179  -14.7933   21.7320 N   0  0  0  0  0  0  0  0  0  0  0  0
    8.9369  -15.6313   22.9007 C   0  0  1  0  0  0  0  0  0  0  0  0
   10.0067  -16.6850   22.9414 C   0  0  0  0  0  0  0  0  0  0  0  0
    9.9054  -17.6456   21.8281 C   0  0  0  0  0  0  0  0  0  0  0  0
    8.9180  -18.4233   21.7980 O   0  0  0  0  0  0  0  0  0  0  0  0
    9.1333  -14.7287   24.0930 C   0  0  0  0  0  0  0  0  0  0  0  0
   10.2142  -14.0806   24.1953 O   0  0  0  0  0  0  0  0  0  0  0  0
   10.8326  -17.7460   20.8096 O   0  0  0  0  0  0  0  0  0  0  0  0
    7.1894  -11.8598   25.1967 C   0  0  0  0  0  0  0  0  0  0  0  0
    7.2773  -12.7644   26.4209 C   0  0  1  0  0  0  0  0  0  0  0  0
    5.9628  -13.4738   26.6522 C   0  0  0  0  0  0  0  0  0  0  0  0
    8.4220  -13.7460   26.2692 C   0  0  2  0  0  0  0  0  0  0  0  0
    8.1717  -14.5698   25.1019 N   0  0  0  0  0  0  0  0  0  0  0  0
    8.6106  -14.5808   27.4569 C   0  0  0  0  0  0  0  0  0  0  0  0
    8.3096  -15.7934   27.4214 O   0  0  0  0  0  0  0  0  0  0  0  0
    9.1198  -14.0285   28.6128 O   0  0  0  0  0  0  0  0  0  0  0  0
  2  1  1  0
  2  3  1  0
  3  4  2  0
  3  5  1  0
  5  6  1  0
  6  7  1  6
  7  8  1  0
  8 12  1  0
  9  8  2  0
 10 11  2  0
 10  6  1  0
 14 13  1  6
 15 14  1  0
 16 14  1  0
 16 17  1  6
 17 10  1  0
 18 16  1  0
 19 18  2  0
 20 18  1  0
M  END
$$$$
