GDV.pdb
     RDKit          3D

 20 19  0  0  1  0  0  0  0  0999 V2000
    7.4903  -16.0506   18.5210 N   0  0  0  0  0  0  0  0  0  0  0  0
    8.4997  -15.9966   19.5340 C   0  0  0  0  0  0  0  0  0  0  0  0
    7.9152  -16.2534   20.8859 C   0  0  0  0  0  0  0  0  0  0  0  0
    6.6929  -16.3600   21.0600 O   0  0  0  0  0  0  0  0  0  0  0  0
    8.7811  -16.3794   22.0055 N   0  0  0  0  0  0  0  0  0  0  0  0
    8.3290  -16.7065   23.3431 C   0  0  1  0  0  0  0  0  0  0  0  0
    9.1084  -17.8772   23.8710 C   0  0  0  0  0  0  0  0  0  0  0  0
    8.7083  -18.2610   25.2368 C   0  0  0  0  0  0  0  0  0  0  0  0
    9.5935  -18.3046   26.1285 O   0  0  0  0  0  0  0  0  0  0  0  0
    8.6608  -15.5089   24.1978 C   0  0  0  0  0  0  0  0  0  0  0  0
    9.8177  -15.0050   24.1182 O   0  0  0  0  0  0  0  0  0  0  0  0
    7.4143  -18.5776   25.6008 O   0  0  0  0  0  0  0  0  0  0  0  0
    7.1417  -11.7107   26.9490 C   0  0  0  0  0  0  0  0  0  0  0  0
    6.8290  -12.9438   26.1086 C   0  0  1  0  0  0  0  0  0  0  0  0
    6.1653  -12.5466   24.8099 C   0  0  0  0  0  0  0  0  0  0  0  0
    8.0894  -13.7501   25.8673 C   0  0  2  0  0  0  0  0  0  0  0  0
    7.7453  -14.9207   25.0832 N   0  0  0  0  0  0  0  0  0  0  0  0
    8.7553  -14.1416   27.1109 C   0  0  0  0  0  0  0  0  0  0  0  0
    8.5458  -15.2719   27.6017 O   0  0  0  0  0  0  0  0  0  0  0  0
    9.6125  -13.2634   27.7389 O   0  0  0  0  0  0  0  0  0  0  0  0
  2  1  1  0
  2  3  1  0
  3  4  2  0
  3  5  1  0
  5  6  1  0
  6  7  1  1
  7  8  1  0
  8 12  1  0
  9  8  2  0
 10 11  2  0
 10  6  1  0
 14 13  1  6
 15 14  1  0
 16 14  1  0
 16 17  1  1
 17 10  1  0
 18 16  1  0
 19 18  2  0
 20 18  1  0
M  END
$$$$
