ICT.pdb
     RDKit          3D

 22 21  0  0  1  0  0  0  0  0999 V2000
    7.0960  -12.1988   19.2718 C   0  0  0  0  0  0  0  0  0  0  0  0
    7.8510  -13.5153   19.2058 C   0  0  0  0  0  0  0  0  0  0  0  0
    8.0278  -14.1088   20.5751 C   0  0  2  0  0  0  0  0  0  0  0  0
    8.6915  -13.1295   21.5154 C   0  0  0  0  0  0  0  0  0  0  0  0
    8.6743  -15.4481   20.5596 C   0  0  2  0  0  0  0  0  0  0  0  0
    7.8412  -16.3258   19.6891 N   0  0  0  0  0  0  0  0  0  0  0  0
    8.8018  -16.1429   21.8351 C   0  0  0  0  0  0  0  0  0  0  0  0
    7.8285  -16.8481   22.2570 O   0  0  0  0  0  0  0  0  0  0  0  0
    9.9255  -16.1411   22.7124 N   0  0  0  0  0  0  0  0  0  0  0  0
    9.9702  -16.8448   23.9556 C   0  0  1  0  0  0  0  0  0  0  0  0
   10.8351  -18.0942   23.6786 C   0  0  0  0  0  0  0  0  0  0  0  0
   11.1065  -19.0252   25.2015 S   0  0  0  0  0  0  0  0  0  0  0  0
   10.4552  -16.1078   25.1138 C   0  0  0  0  0  0  0  0  0  0  0  0
   11.5458  -15.4457   24.9914 O   0  0  0  0  0  0  0  0  0  0  0  0
    9.4443  -13.0420   27.0004 C   0  0  0  0  0  0  0  0  0  0  0  0
    9.5400  -14.1853   27.9845 C   0  0  1  0  0  0  0  0  0  0  0  0
    8.2719  -14.5996   28.2987 O   0  0  0  0  0  0  0  0  0  0  0  0
   10.4394  -15.2841   27.4930 C   0  0  2  0  0  0  0  0  0  0  0  0
    9.8492  -16.0314   26.3971 N   0  0  0  0  0  0  0  0  0  0  0  0
   10.8239  -16.1539   28.6147 C   0  0  0  0  0  0  0  0  0  0  0  0
   11.4709  -15.6949   29.7259 O   0  0  0  0  0  0  0  0  0  0  0  0
   10.5408  -17.3780   28.5420 O   0  0  0  0  0  0  0  0  0  0  0  0
  2  1  1  0
  2  3  1  0
  3  5  1  0
  3  4  1  1
  5  7  1  0
  5  6  1  6
  7  9  1  0
  7  8  2  0
  9 10  1  0
 10 11  1  6
 10 13  1  0
 12 11  1  0
 13 14  2  0
 16 15  1  6
 16 18  1  0
 17 16  1  0
 18 20  1  0
 18 19  1  6
 19 13  1  0
 20 21  1  0
 22 20  2  0
M  END
$$$$
