ICT.pdb
     RDKit          3D

 22 21  0  0  1  0  0  0  0  0999 V2000
    6.6605  -11.3417   27.6872 C   0  0  0  0  0  0  0  0  0  0  0  0
    5.8986  -12.4154   26.9293 C   0  0  0  0  0  0  0  0  0  0  0  0
    6.8162  -13.2074   26.0410 C   0  0  2  0  0  0  0  0  0  0  0  0
    7.6677  -12.2996   25.1840 C   0  0  0  0  0  0  0  0  0  0  0  0
    6.1191  -14.2705   25.2691 C   0  0  2  0  0  0  0  0  0  0  0  0
    5.5541  -15.2308   26.2593 N   0  0  0  0  0  0  0  0  0  0  0  0
    6.9239  -15.0630   24.3470 C   0  0  0  0  0  0  0  0  0  0  0  0
    7.4943  -16.1194   24.7725 O   0  0  0  0  0  0  0  0  0  0  0  0
    7.1652  -14.8025   22.9663 N   0  0  0  0  0  0  0  0  0  0  0  0
    8.0238  -15.5936   22.1418 C   0  0  1  0  0  0  0  0  0  0  0  0
    7.8832  -14.9945   20.7251 C   0  0  0  0  0  0  0  0  0  0  0  0
    8.8430  -15.9547   19.5348 S   0  0  0  0  0  0  0  0  0  0  0  0
    9.4200  -15.6890   22.5434 C   0  0  0  0  0  0  0  0  0  0  0  0
   10.0423  -14.6023   22.8169 O   0  0  0  0  0  0  0  0  0  0  0  0
   11.5405  -17.5444   25.4915 C   0  0  0  0  0  0  0  0  0  0  0  0
   11.9057  -17.9344   24.0776 C   0  0  1  0  0  0  0  0  0  0  0  0
   11.3208  -19.1404   23.7914 O   0  0  0  0  0  0  0  0  0  0  0  0
   11.5871  -16.8488   23.0886 C   0  0  2  0  0  0  0  0  0  0  0  0
   10.1964  -16.8723   22.6726 N   0  0  0  0  0  0  0  0  0  0  0  0
   12.5099  -16.9277   21.9463 C   0  0  0  0  0  0  0  0  0  0  0  0
   12.0953  -17.1743   20.6691 O   0  0  0  0  0  0  0  0  0  0  0  0
   13.7383  -16.7591   22.1616 O   0  0  0  0  0  0  0  0  0  0  0  0
  2  1  1  0
  2  3  1  0
  3  5  1  0
  3  4  1  6
  5  7  1  0
  5  6  1  1
  7  9  1  0
  7  8  2  0
  9 10  1  0
 10 11  1  6
 10 13  1  0
 12 11  1  0
 13 14  2  0
 16 15  1  1
 16 18  1  0
 17 16  1  0
 18 20  1  0
 18 19  1  6
 19 13  1  0
 20 21  1  0
 22 20  2  0
M  END
$$$$
