ICT.pdb
     RDKit          3D

 22 21  0  0  1  0  0  0  0  0999 V2000
    7.5859  -12.2094   19.1273 C   0  0  0  0  0  0  0  0  0  0  0  0
    7.6679  -13.7180   19.2864 C   0  0  0  0  0  0  0  0  0  0  0  0
    7.5567  -14.1183   20.7306 C   0  0  2  0  0  0  0  0  0  0  0  0
    8.5712  -13.3896   21.5811 C   0  0  0  0  0  0  0  0  0  0  0  0
    7.5571  -15.5911   20.9372 C   0  0  2  0  0  0  0  0  0  0  0  0
    6.3970  -16.1395   20.1785 N   0  0  0  0  0  0  0  0  0  0  0  0
    7.4131  -16.0736   22.3056 C   0  0  0  0  0  0  0  0  0  0  0  0
    6.3102  -16.6002   22.6645 O   0  0  0  0  0  0  0  0  0  0  0  0
    8.3901  -16.0361   23.3431 N   0  0  0  0  0  0  0  0  0  0  0  0
    8.2183  -16.6438   24.6252 C   0  0  1  0  0  0  0  0  0  0  0  0
    7.9812  -18.1415   24.3308 C   0  0  0  0  0  0  0  0  0  0  0  0
    7.8700  -19.0783   25.8703 S   0  0  0  0  0  0  0  0  0  0  0  0
    9.2888  -16.4547   25.5938 C   0  0  0  0  0  0  0  0  0  0  0  0
   10.4763  -16.7942   25.2511 O   0  0  0  0  0  0  0  0  0  0  0  0
    9.9420  -13.1911   27.9340 C   0  0  0  0  0  0  0  0  0  0  0  0
   10.1043  -14.4987   28.6746 C   0  0  1  0  0  0  0  0  0  0  0  0
    9.0353  -14.6601   29.5170 O   0  0  0  0  0  0  0  0  0  0  0  0
   10.3299  -15.6554   27.7424 C   0  0  2  0  0  0  0  0  0  0  0  0
    9.1732  -15.9248   26.9074 N   0  0  0  0  0  0  0  0  0  0  0  0
   10.7500  -16.8389   28.5077 C   0  0  0  0  0  0  0  0  0  0  0  0
   11.8542  -16.8538   29.3104 O   0  0  0  0  0  0  0  0  0  0  0  0
   10.0555  -17.8842   28.4147 O   0  0  0  0  0  0  0  0  0  0  0  0
  2  1  1  0
  2  3  1  0
  3  5  1  0
  3  4  1  1
  5  7  1  0
  5  6  1  6
  7  9  1  0
  7  8  2  0
  9 10  1  0
 10 11  1  6
 10 13  1  0
 12 11  1  0
 13 14  2  0
 16 15  1  6
 16 18  1  0
 17 16  1  0
 18 20  1  0
 18 19  1  1
 19 13  1  0
 20 21  1  0
 22 20  2  0
M  END
$$$$
