ICT.pdb
     RDKit          3D

 22 21  0  0  1  0  0  0  0  0999 V2000
    5.7225  -11.1114   27.2923 C   0  0  0  0  0  0  0  0  0  0  0  0
    5.6777  -12.4424   26.5613 C   0  0  0  0  0  0  0  0  0  0  0  0
    7.0359  -12.8225   26.0423 C   0  0  2  0  0  0  0  0  0  0  0  0
    7.6204  -11.7264   25.1818 C   0  0  0  0  0  0  0  0  0  0  0  0
    7.0686  -14.1632   25.3994 C   0  0  2  0  0  0  0  0  0  0  0  0
    6.0706  -15.0131   26.1090 N   0  0  0  0  0  0  0  0  0  0  0  0
    8.3297  -14.8940   25.4428 C   0  0  0  0  0  0  0  0  0  0  0  0
    9.3404  -14.4234   24.8269 O   0  0  0  0  0  0  0  0  0  0  0  0
    8.5953  -16.1211   26.1180 N   0  0  0  0  0  0  0  0  0  0  0  0
    9.8716  -16.7642   26.1349 C   0  0  1  0  0  0  0  0  0  0  0  0
    9.8870  -17.5909   27.4396 C   0  0  0  0  0  0  0  0  0  0  0  0
   11.3696  -18.6184   27.5191 S   0  0  0  0  0  0  0  0  0  0  0  0
   10.2126  -17.5841   24.9811 C   0  0  0  0  0  0  0  0  0  0  0  0
    9.4733  -18.5994   24.7256 O   0  0  0  0  0  0  0  0  0  0  0  0
   10.0006  -17.1583   21.4081 C   0  0  0  0  0  0  0  0  0  0  0  0
   11.4111  -17.6484   21.6423 C   0  0  1  0  0  0  0  0  0  0  0  0
   12.2777  -16.6100   21.4206 O   0  0  0  0  0  0  0  0  0  0  0  0
   11.5695  -18.3026   22.9857 C   0  0  2  0  0  0  0  0  0  0  0  0
   11.2942  -17.3891   24.0800 N   0  0  0  0  0  0  0  0  0  0  0  0
   12.9051  -18.9091   23.0913 C   0  0  0  0  0  0  0  0  0  0  0  0
   13.3559  -19.8723   22.2352 O   0  0  0  0  0  0  0  0  0  0  0  0
   13.6640  -18.5183   24.0160 O   0  0  0  0  0  0  0  0  0  0  0  0
  2  1  1  0
  2  3  1  0
  3  5  1  0
  3  4  1  6
  5  7  1  0
  5  6  1  1
  7  9  1  0
  7  8  2  0
  9 10  1  0
 10 11  1  1
 10 13  1  0
 12 11  1  0
 13 14  2  0
 16 15  1  1
 16 18  1  0
 17 16  1  0
 18 20  1  0
 18 19  1  1
 19 13  1  0
 20 21  1  0
 22 20  2  0
M  END
$$$$
