ICT.pdb
     RDKit          3D

 22 21  0  0  1  0  0  0  0  0999 V2000
    7.2004  -15.4196   17.9659 C   0  0  0  0  0  0  0  0  0  0  0  0
    7.2634  -14.1629   18.8170 C   0  0  0  0  0  0  0  0  0  0  0  0
    7.6141  -14.4890   20.2414 C   0  0  2  0  0  0  0  0  0  0  0  0
    6.7100  -15.5656   20.7958 C   0  0  0  0  0  0  0  0  0  0  0  0
    7.7137  -13.2894   21.1149 C   0  0  2  0  0  0  0  0  0  0  0  0
    8.7274  -12.3848   20.5017 N   0  0  0  0  0  0  0  0  0  0  0  0
    8.1380  -13.5007   22.4938 C   0  0  0  0  0  0  0  0  0  0  0  0
    9.3736  -13.6873   22.7406 O   0  0  0  0  0  0  0  0  0  0  0  0
    7.3154  -13.5234   23.6579 N   0  0  0  0  0  0  0  0  0  0  0  0
    7.7830  -13.8808   24.9603 C   0  0  1  0  0  0  0  0  0  0  0  0
    6.7165  -13.3329   25.9340 C   0  0  0  0  0  0  0  0  0  0  0  0
    6.8926  -11.5461   26.1239 S   0  0  0  0  0  0  0  0  0  0  0  0
    8.0493  -15.2918   25.2016 C   0  0  0  0  0  0  0  0  0  0  0  0
    7.0626  -16.1078   25.1454 O   0  0  0  0  0  0  0  0  0  0  0  0
    9.8391  -17.7227   23.1630 C   0  0  0  0  0  0  0  0  0  0  0  0
   10.4031  -17.8714   24.5575 C   0  0  1  0  0  0  0  0  0  0  0  0
   11.6588  -17.3226   24.5825 O   0  0  0  0  0  0  0  0  0  0  0  0
    9.4754  -17.3268   25.6066 C   0  0  2  0  0  0  0  0  0  0  0  0
    9.3041  -15.8891   25.4990 N   0  0  0  0  0  0  0  0  0  0  0  0
    9.9389  -17.7323   26.9420 C   0  0  0  0  0  0  0  0  0  0  0  0
   10.1087  -19.0367   27.3076 O   0  0  0  0  0  0  0  0  0  0  0  0
   10.1893  -16.8307   27.7836 O   0  0  0  0  0  0  0  0  0  0  0  0
  2  1  1  0
  2  3  1  0
  3  5  1  0
  3  4  1  1
  5  7  1  0
  5  6  1  6
  7  9  1  0
  7  8  2  0
  9 10  1  0
 10 11  1  1
 10 13  1  0
 12 11  1  0
 13 14  2  0
 16 15  1  6
 16 18  1  0
 17 16  1  0
 18 20  1  0
 18 19  1  1
 19 13  1  0
 20 21  1  0
 22 20  2  0
M  END
$$$$
