ICT.pdb
     RDKit          3D

 22 21  0  0  1  0  0  0  0  0999 V2000
    6.7397  -11.4844   27.6936 C   0  0  0  0  0  0  0  0  0  0  0  0
    6.0644  -12.6888   27.0602 C   0  0  0  0  0  0  0  0  0  0  0  0
    6.9525  -13.3303   26.0315 C   0  0  2  0  0  0  0  0  0  0  0  0
    7.5192  -12.3028   25.0793 C   0  0  0  0  0  0  0  0  0  0  0  0
    6.3214  -14.4900   25.3468 C   0  0  2  0  0  0  0  0  0  0  0  0
    5.9807  -15.4877   26.4006 N   0  0  0  0  0  0  0  0  0  0  0  0
    7.1246  -15.2000   24.3585 C   0  0  0  0  0  0  0  0  0  0  0  0
    7.9854  -16.0512   24.7550 O   0  0  0  0  0  0  0  0  0  0  0  0
    7.0693  -15.0648   22.9405 N   0  0  0  0  0  0  0  0  0  0  0  0
    7.8890  -15.8062   22.0342 C   0  0  1  0  0  0  0  0  0  0  0  0
    7.6437  -15.1616   20.6522 C   0  0  0  0  0  0  0  0  0  0  0  0
    8.5264  -16.0700   19.3655 S   0  0  0  0  0  0  0  0  0  0  0  0
    9.3102  -15.8823   22.3413 C   0  0  0  0  0  0  0  0  0  0  0  0
    9.9435  -14.7844   22.5320 O   0  0  0  0  0  0  0  0  0  0  0  0
   11.4383  -17.4747   25.2708 C   0  0  0  0  0  0  0  0  0  0  0  0
   11.8500  -17.9850   23.9090 C   0  0  1  0  0  0  0  0  0  0  0  0
   11.3223  -19.2376   23.7331 O   0  0  0  0  0  0  0  0  0  0  0  0
   11.5081  -17.0166   22.8121 C   0  0  2  0  0  0  0  0  0  0  0  0
   10.1006  -17.0576   22.4589 N   0  0  0  0  0  0  0  0  0  0  0  0
   12.3792  -17.2500   21.6504 C   0  0  0  0  0  0  0  0  0  0  0  0
   13.7290  -17.0473   21.6784 O   0  0  0  0  0  0  0  0  0  0  0  0
   11.8504  -17.6557   20.5829 O   0  0  0  0  0  0  0  0  0  0  0  0
  2  1  1  0
  2  3  1  0
  3  5  1  0
  3  4  1  6
  5  7  1  0
  5  6  1  1
  7  9  1  0
  7  8  2  0
  9 10  1  0
 10 11  1  6
 10 13  1  0
 12 11  1  0
 13 14  2  0
 16 15  1  1
 16 18  1  0
 17 16  1  0
 18 20  1  0
 18 19  1  6
 19 13  1  0
 20 21  1  0
 22 20  2  0
M  END
$$$$
