ICT.pdb
     RDKit          3D

 22 21  0  0  1  0  0  0  0  0999 V2000
    6.4378  -11.6568   27.7114 C   0  0  0  0  0  0  0  0  0  0  0  0
    5.8656  -12.7348   26.8069 C   0  0  0  0  0  0  0  0  0  0  0  0
    6.9571  -13.4708   26.0820 C   0  0  2  0  0  0  0  0  0  0  0  0
    7.9141  -12.5116   25.4129 C   0  0  0  0  0  0  0  0  0  0  0  0
    6.4505  -14.5341   25.1740 C   0  0  2  0  0  0  0  0  0  0  0  0
    5.6620  -15.4838   26.0096 N   0  0  0  0  0  0  0  0  0  0  0  0
    7.4417  -15.3384   24.4691 C   0  0  0  0  0  0  0  0  0  0  0  0
    7.8932  -16.3923   25.0242 O   0  0  0  0  0  0  0  0  0  0  0  0
    7.9958  -15.0927   23.1789 N   0  0  0  0  0  0  0  0  0  0  0  0
    8.9697  -15.9318   22.5541 C   0  0  1  0  0  0  0  0  0  0  0  0
    9.0305  -15.4523   21.0871 C   0  0  0  0  0  0  0  0  0  0  0  0
    7.4133  -15.6159   20.3011 S   0  0  0  0  0  0  0  0  0  0  0  0
   10.2941  -15.9679   23.1577 C   0  0  0  0  0  0  0  0  0  0  0  0
   10.5778  -15.0807   24.0381 O   0  0  0  0  0  0  0  0  0  0  0  0
   10.9352  -17.3979   25.9004 C   0  0  0  0  0  0  0  0  0  0  0  0
   11.8537  -18.1216   24.9427 C   0  0  1  0  0  0  0  0  0  0  0  0
   11.2125  -19.2429   24.4844 O   0  0  0  0  0  0  0  0  0  0  0  0
   12.3644  -17.2199   23.8545 C   0  0  2  0  0  0  0  0  0  0  0  0
   11.3375  -16.8927   22.8819 N   0  0  0  0  0  0  0  0  0  0  0  0
   13.5528  -17.8176   23.2275 C   0  0  0  0  0  0  0  0  0  0  0  0
   14.7151  -18.0507   23.9048 O   0  0  0  0  0  0  0  0  0  0  0  0
   13.4901  -18.1270   22.0093 O   0  0  0  0  0  0  0  0  0  0  0  0
  2  1  1  0
  2  3  1  0
  3  5  1  0
  3  4  1  6
  5  7  1  0
  5  6  1  1
  7  9  1  0
  7  8  2  0
  9 10  1  0
 10 11  1  6
 10 13  1  0
 12 11  1  0
 13 14  2  0
 16 15  1  1
 16 18  1  0
 17 16  1  0
 18 20  1  0
 18 19  1  6
 19 13  1  0
 20 21  1  0
 22 20  2  0
M  END
$$$$
