ICT.pdb
     RDKit          3D

 22 21  0  0  1  0  0  0  0  0999 V2000
    7.1503  -16.0560   17.7856 C   0  0  0  0  0  0  0  0  0  0  0  0
    7.0503  -14.7066   18.4762 C   0  0  0  0  0  0  0  0  0  0  0  0
    7.5591  -14.7805   19.8883 C   0  0  2  0  0  0  0  0  0  0  0  0
    6.9366  -15.9373   20.6353 C   0  0  0  0  0  0  0  0  0  0  0  0
    7.4706  -13.4869   20.6167 C   0  0  2  0  0  0  0  0  0  0  0  0
    8.2567  -12.4903   19.8352 N   0  0  0  0  0  0  0  0  0  0  0  0
    7.9995  -13.4477   21.9749 C   0  0  0  0  0  0  0  0  0  0  0  0
    9.2613  -13.4515   22.1492 O   0  0  0  0  0  0  0  0  0  0  0  0
    7.2571  -13.3994   23.1910 N   0  0  0  0  0  0  0  0  0  0  0  0
    7.8402  -13.5311   24.4892 C   0  0  1  0  0  0  0  0  0  0  0  0
    6.8984  -12.7513   25.4330 C   0  0  0  0  0  0  0  0  0  0  0  0
    7.4589  -12.8927   27.1435 S   0  0  0  0  0  0  0  0  0  0  0  0
    8.0769  -14.8841   24.9721 C   0  0  0  0  0  0  0  0  0  0  0  0
    7.0624  -15.6503   25.1346 O   0  0  0  0  0  0  0  0  0  0  0  0
    9.5401  -17.9683   23.5588 C   0  0  0  0  0  0  0  0  0  0  0  0
   10.2508  -17.7081   24.8672 C   0  0  1  0  0  0  0  0  0  0  0  0
   11.5056  -17.2282   24.5957 O   0  0  0  0  0  0  0  0  0  0  0  0
    9.4461  -16.8336   25.7868 C   0  0  2  0  0  0  0  0  0  0  0  0
    9.3297  -15.4734   25.2929 N   0  0  0  0  0  0  0  0  0  0  0  0
   10.0090  -16.8852   27.1444 C   0  0  0  0  0  0  0  0  0  0  0  0
   10.1977  -18.0512   27.8291 O   0  0  0  0  0  0  0  0  0  0  0  0
   10.3303  -15.8009   27.6963 O   0  0  0  0  0  0  0  0  0  0  0  0
  2  1  1  0
  2  3  1  0
  3  5  1  0
  3  4  1  1
  5  7  1  0
  5  6  1  6
  7  9  1  0
  7  8  2  0
  9 10  1  0
 10 11  1  1
 10 13  1  0
 12 11  1  0
 13 14  2  0
 16 15  1  6
 16 18  1  0
 17 16  1  0
 18 20  1  0
 18 19  1  6
 19 13  1  0
 20 21  1  0
 22 20  2  0
M  END
$$$$
