ICT.pdb
     RDKit          3D

 22 21  0  0  1  0  0  0  0  0999 V2000
    7.6058  -12.0407   19.5098 C   0  0  0  0  0  0  0  0  0  0  0  0
    7.3828  -13.4827   19.9324 C   0  0  0  0  0  0  0  0  0  0  0  0
    8.5662  -14.3402   19.5819 C   0  0  2  0  0  0  0  0  0  0  0  0
    8.9229  -14.2105   18.1191 C   0  0  0  0  0  0  0  0  0  0  0  0
    8.4301  -15.7494   20.0372 C   0  0  2  0  0  0  0  0  0  0  0  0
    7.2875  -16.3432   19.2864 N   0  0  0  0  0  0  0  0  0  0  0  0
    8.1473  -15.9704   21.4504 C   0  0  0  0  0  0  0  0  0  0  0  0
    6.9369  -16.0874   21.8295 O   0  0  0  0  0  0  0  0  0  0  0  0
    9.0901  -16.0819   22.5139 N   0  0  0  0  0  0  0  0  0  0  0  0
    8.7339  -16.3361   23.8746 C   0  0  1  0  0  0  0  0  0  0  0  0
    9.6453  -17.5021   24.3168 C   0  0  0  0  0  0  0  0  0  0  0  0
    9.1208  -19.0445   23.5384 S   0  0  0  0  0  0  0  0  0  0  0  0
    8.8179  -15.2146   24.7992 C   0  0  0  0  0  0  0  0  0  0  0  0
    9.9336  -14.5898   24.8863 O   0  0  0  0  0  0  0  0  0  0  0  0
    6.4096  -11.8594   25.7644 C   0  0  0  0  0  0  0  0  0  0  0  0
    6.7332  -12.8590   26.8510 C   0  0  1  0  0  0  0  0  0  0  0  0
    5.6364  -13.6554   27.0538 O   0  0  0  0  0  0  0  0  0  0  0  0
    7.9978  -13.6189   26.5656 C   0  0  2  0  0  0  0  0  0  0  0  0
    7.7851  -14.7154   25.6382 N   0  0  0  0  0  0  0  0  0  0  0  0
    8.6056  -14.0684   27.8270 C   0  0  0  0  0  0  0  0  0  0  0  0
    8.8631  -15.3802   28.1043 O   0  0  0  0  0  0  0  0  0  0  0  0
    8.9004  -13.1990   28.6878 O   0  0  0  0  0  0  0  0  0  0  0  0
  2  1  1  0
  2  3  1  0
  3  5  1  0
  3  4  1  6
  5  7  1  0
  5  6  1  6
  7  9  1  0
  7  8  2  0
  9 10  1  0
 10 11  1  1
 10 13  1  0
 12 11  1  0
 13 14  2  0
 16 15  1  6
 16 18  1  0
 17 16  1  0
 18 20  1  0
 18 19  1  6
 19 13  1  0
 20 21  1  0
 22 20  2  0
M  END
$$$$
