ICT.pdb
     RDKit          3D

 22 21  0  0  1  0  0  0  0  0999 V2000
    6.9815  -16.0118   17.8608 C   0  0  0  0  0  0  0  0  0  0  0  0
    6.9947  -14.6790   18.5895 C   0  0  0  0  0  0  0  0  0  0  0  0
    7.4712  -14.8394   20.0057 C   0  0  2  0  0  0  0  0  0  0  0  0
    6.7910  -16.0059   20.6841 C   0  0  0  0  0  0  0  0  0  0  0  0
    7.4157  -13.5794   20.7940 C   0  0  2  0  0  0  0  0  0  0  0  0
    8.2477  -12.5750   20.0723 N   0  0  0  0  0  0  0  0  0  0  0  0
    7.9242  -13.6233   22.1599 C   0  0  0  0  0  0  0  0  0  0  0  0
    9.1774  -13.7480   22.3511 O   0  0  0  0  0  0  0  0  0  0  0  0
    7.1702  -13.5371   23.3666 N   0  0  0  0  0  0  0  0  0  0  0  0
    7.7403  -13.6307   24.6739 C   0  0  1  0  0  0  0  0  0  0  0  0
    6.7519  -12.8846   25.5970 C   0  0  0  0  0  0  0  0  0  0  0  0
    7.2898  -12.9920   27.3172 S   0  0  0  0  0  0  0  0  0  0  0  0
    8.0297  -14.9673   25.1733 C   0  0  0  0  0  0  0  0  0  0  0  0
    7.0483  -15.7775   25.3261 O   0  0  0  0  0  0  0  0  0  0  0  0
    9.6212  -18.0337   23.9012 C   0  0  0  0  0  0  0  0  0  0  0  0
   10.3015  -17.7169   25.2132 C   0  0  1  0  0  0  0  0  0  0  0  0
   11.5541  -17.2270   24.9496 O   0  0  0  0  0  0  0  0  0  0  0  0
    9.4654  -16.8236   26.0855 C   0  0  2  0  0  0  0  0  0  0  0  0
    9.3023  -15.4963   25.5204 N   0  0  0  0  0  0  0  0  0  0  0  0
   10.0278  -16.7836   27.4437 C   0  0  0  0  0  0  0  0  0  0  0  0
   10.2673  -17.9052   28.1845 O   0  0  0  0  0  0  0  0  0  0  0  0
   10.2994  -15.6603   27.9419 O   0  0  0  0  0  0  0  0  0  0  0  0
  2  1  1  0
  2  3  1  0
  3  5  1  0
  3  4  1  1
  5  7  1  0
  5  6  1  6
  7  9  1  0
  7  8  2  0
  9 10  1  0
 10 11  1  1
 10 13  1  0
 12 11  1  0
 13 14  2  0
 16 15  1  6
 16 18  1  0
 17 16  1  0
 18 20  1  0
 18 19  1  6
 19 13  1  0
 20 21  1  0
 22 20  2  0
M  END
$$$$
