ICT.pdb
     RDKit          3D

 22 21  0  0  1  0  0  0  0  0999 V2000
    5.4024  -11.6017   26.4577 C   0  0  0  0  0  0  0  0  0  0  0  0
    5.9265  -12.6172   25.4569 C   0  0  0  0  0  0  0  0  0  0  0  0
    7.3123  -13.0715   25.8196 C   0  0  2  0  0  0  0  0  0  0  0  0
    8.2775  -11.9093   25.8582 C   0  0  0  0  0  0  0  0  0  0  0  0
    7.7927  -14.2153   24.9995 C   0  0  2  0  0  0  0  0  0  0  0  0
    6.6140  -15.0879   24.7328 N   0  0  0  0  0  0  0  0  0  0  0  0
    8.8121  -15.0766   25.5868 C   0  0  0  0  0  0  0  0  0  0  0  0
    8.9629  -16.2572   25.1329 O   0  0  0  0  0  0  0  0  0  0  0  0
    9.7074  -14.7567   26.6491 N   0  0  0  0  0  0  0  0  0  0  0  0
   10.8431  -15.5488   27.0032 C   0  0  1  0  0  0  0  0  0  0  0  0
   11.3765  -14.9234   28.3110 C   0  0  0  0  0  0  0  0  0  0  0  0
   10.2676  -13.6199   28.8863 S   0  0  0  0  0  0  0  0  0  0  0  0
   10.6291  -16.9818   27.1471 C   0  0  0  0  0  0  0  0  0  0  0  0
    9.6433  -17.3730   27.8667 O   0  0  0  0  0  0  0  0  0  0  0  0
   10.4311  -19.9332   24.3995 C   0  0  0  0  0  0  0  0  0  0  0  0
   11.3687  -20.2540   25.5408 C   0  0  1  0  0  0  0  0  0  0  0  0
   12.6588  -20.1509   25.0895 O   0  0  0  0  0  0  0  0  0  0  0  0
   11.0793  -19.4289   26.7628 C   0  0  2  0  0  0  0  0  0  0  0  0
   11.4012  -18.0264   26.5705 N   0  0  0  0  0  0  0  0  0  0  0  0
   11.7701  -20.0025   27.9275 C   0  0  0  0  0  0  0  0  0  0  0  0
   11.5095  -21.2540   28.4068 O   0  0  0  0  0  0  0  0  0  0  0  0
   12.6416  -19.3026   28.5059 O   0  0  0  0  0  0  0  0  0  0  0  0
  2  1  1  0
  2  3  1  0
  3  5  1  0
  3  4  1  6
  5  7  1  0
  5  6  1  1
  7  9  1  0
  7  8  2  0
  9 10  1  0
 10 11  1  1
 10 13  1  0
 12 11  1  0
 13 14  2  0
 16 15  1  6
 16 18  1  0
 17 16  1  0
 18 20  1  0
 18 19  1  6
 19 13  1  0
 20 21  1  0
 22 20  2  0
M  END
$$$$
