ICT.pdb
     RDKit          3D

 22 21  0  0  1  0  0  0  0  0999 V2000
    7.3731  -12.2533   18.4870 C   0  0  0  0  0  0  0  0  0  0  0  0
    6.8366  -13.4174   19.3024 C   0  0  0  0  0  0  0  0  0  0  0  0
    7.7095  -13.6932   20.4942 C   0  0  2  0  0  0  0  0  0  0  0  0
    9.1571  -13.8483   20.0891 C   0  0  0  0  0  0  0  0  0  0  0  0
    7.2098  -14.8034   21.3483 C   0  0  2  0  0  0  0  0  0  0  0  0
    5.7933  -14.4889   21.6899 N   0  0  0  0  0  0  0  0  0  0  0  0
    7.8934  -15.0304   22.6160 C   0  0  0  0  0  0  0  0  0  0  0  0
    7.5634  -14.3357   23.6314 O   0  0  0  0  0  0  0  0  0  0  0  0
    8.9282  -15.9738   22.8838 N   0  0  0  0  0  0  0  0  0  0  0  0
    9.6075  -16.0809   24.1368 C   0  0  1  0  0  0  0  0  0  0  0  0
    8.5018  -16.4008   25.1667 C   0  0  0  0  0  0  0  0  0  0  0  0
    9.2291  -16.8172   26.7659 S   0  0  0  0  0  0  0  0  0  0  0  0
   10.7009  -17.0392   24.2146 C   0  0  0  0  0  0  0  0  0  0  0  0
   10.4102  -18.2870   24.1793 O   0  0  0  0  0  0  0  0  0  0  0  0
   13.2430  -17.2175   21.6990 C   0  0  0  0  0  0  0  0  0  0  0  0
   14.0145  -17.4508   22.9776 C   0  0  1  0  0  0  0  0  0  0  0  0
   14.8456  -16.3816   23.1885 O   0  0  0  0  0  0  0  0  0  0  0  0
   13.1112  -17.7627   24.1373 C   0  0  2  0  0  0  0  0  0  0  0  0
   12.0879  -16.7506   24.3274 N   0  0  0  0  0  0  0  0  0  0  0  0
   13.9131  -17.9765   25.3513 C   0  0  0  0  0  0  0  0  0  0  0  0
   14.8458  -18.9672   25.4636 O   0  0  0  0  0  0  0  0  0  0  0  0
   13.7270  -17.2073   26.3298 O   0  0  0  0  0  0  0  0  0  0  0  0
  2  1  1  0
  2  3  1  0
  3  5  1  0
  3  4  1  6
  5  7  1  0
  5  6  1  1
  7  9  1  0
  7  8  2  0
  9 10  1  0
 10 11  1  1
 10 13  1  0
 12 11  1  0
 13 14  2  0
 16 15  1  6
 16 18  1  0
 17 16  1  0
 18 20  1  0
 18 19  1  1
 19 13  1  0
 20 21  1  0
 22 20  2  0
M  END
$$$$
