ICT.pdb
     RDKit          3D

 22 21  0  0  1  0  0  0  0  0999 V2000
    7.2639  -15.5699   18.1352 C   0  0  0  0  0  0  0  0  0  0  0  0
    7.0512  -14.3659   19.0368 C   0  0  0  0  0  0  0  0  0  0  0  0
    7.5026  -14.6529   20.4412 C   0  0  2  0  0  0  0  0  0  0  0  0
    6.9216  -15.9524   20.9488 C   0  0  0  0  0  0  0  0  0  0  0  0
    7.3027  -13.5098   21.3713 C   0  0  2  0  0  0  0  0  0  0  0  0
    7.9610  -12.3234   20.7540 N   0  0  0  0  0  0  0  0  0  0  0  0
    7.8623  -13.6340   22.7120 C   0  0  0  0  0  0  0  0  0  0  0  0
    9.1101  -13.4436   22.8830 O   0  0  0  0  0  0  0  0  0  0  0  0
    7.1650  -13.9512   23.9142 N   0  0  0  0  0  0  0  0  0  0  0  0
    7.8009  -14.1480   25.1790 C   0  0  1  0  0  0  0  0  0  0  0  0
    6.8133  -13.5733   26.2184 C   0  0  0  0  0  0  0  0  0  0  0  0
    6.0287  -12.0760   25.5841 S   0  0  0  0  0  0  0  0  0  0  0  0
    8.1950  -15.5088   25.5148 C   0  0  0  0  0  0  0  0  0  0  0  0
    7.3046  -16.4279   25.4412 O   0  0  0  0  0  0  0  0  0  0  0  0
   10.3445  -17.9206   23.8128 C   0  0  0  0  0  0  0  0  0  0  0  0
   10.8194  -17.8958   25.2475 C   0  0  1  0  0  0  0  0  0  0  0  0
   12.0180  -17.2333   25.3004 O   0  0  0  0  0  0  0  0  0  0  0  0
    9.7764  -17.3508   26.1819 C   0  0  2  0  0  0  0  0  0  0  0  0
    9.4814  -15.9529   25.9244 N   0  0  0  0  0  0  0  0  0  0  0  0
   10.1832  -17.5850   27.5756 C   0  0  0  0  0  0  0  0  0  0  0  0
   10.4190  -18.8299   28.0840 O   0  0  0  0  0  0  0  0  0  0  0  0
   10.3190  -16.5875   28.3307 O   0  0  0  0  0  0  0  0  0  0  0  0
  2  1  1  0
  2  3  1  0
  3  5  1  0
  3  4  1  1
  5  7  1  0
  5  6  1  6
  7  9  1  0
  7  8  2  0
  9 10  1  0
 10 11  1  1
 10 13  1  0
 12 11  1  0
 13 14  2  0
 16 15  1  6
 16 18  1  0
 17 16  1  0
 18 20  1  0
 18 19  1  1
 19 13  1  0
 20 21  1  0
 22 20  2  0
M  END
$$$$
