ICT.pdb
     RDKit          3D

 22 21  0  0  1  0  0  0  0  0999 V2000
    5.8891  -10.7491   26.8064 C   0  0  0  0  0  0  0  0  0  0  0  0
    5.5152  -12.0361   26.0913 C   0  0  0  0  0  0  0  0  0  0  0  0
    6.7201  -12.9086   25.8783 C   0  0  2  0  0  0  0  0  0  0  0  0
    7.8544  -12.1326   25.2497 C   0  0  0  0  0  0  0  0  0  0  0  0
    6.4107  -14.1821   25.1753 C   0  0  2  0  0  0  0  0  0  0  0  0
    5.3932  -14.8986   25.9958 N   0  0  0  0  0  0  0  0  0  0  0  0
    7.5093  -15.1205   24.9788 C   0  0  0  0  0  0  0  0  0  0  0  0
    7.8648  -15.8699   25.9454 O   0  0  0  0  0  0  0  0  0  0  0  0
    8.2718  -15.3229   23.7914 N   0  0  0  0  0  0  0  0  0  0  0  0
    9.3622  -16.2412   23.6885 C   0  0  1  0  0  0  0  0  0  0  0  0
    9.8673  -16.1031   22.2353 C   0  0  0  0  0  0  0  0  0  0  0  0
    8.5628  -16.5458   21.0682 S   0  0  0  0  0  0  0  0  0  0  0  0
   10.4478  -16.0864   24.6463 C   0  0  0  0  0  0  0  0  0  0  0  0
   11.3828  -15.2557   24.3660 O   0  0  0  0  0  0  0  0  0  0  0  0
   10.6592  -14.3993   27.8352 C   0  0  0  0  0  0  0  0  0  0  0  0
   11.1614  -15.8045   28.0760 C   0  0  1  0  0  0  0  0  0  0  0  0
   10.1787  -16.5174   28.7122 O   0  0  0  0  0  0  0  0  0  0  0  0
   11.6694  -16.4497   26.8176 C   0  0  2  0  0  0  0  0  0  0  0  0
   10.5996  -16.7622   25.8873 N   0  0  0  0  0  0  0  0  0  0  0  0
   12.4762  -17.6324   27.1536 C   0  0  0  0  0  0  0  0  0  0  0  0
   13.5937  -17.5745   27.9358 O   0  0  0  0  0  0  0  0  0  0  0  0
   12.1153  -18.7478   26.6961 O   0  0  0  0  0  0  0  0  0  0  0  0
  2  1  1  0
  2  3  1  0
  3  5  1  0
  3  4  1  6
  5  7  1  0
  5  6  1  1
  7  9  1  0
  7  8  2  0
  9 10  1  0
 10 11  1  6
 10 13  1  0
 12 11  1  0
 13 14  2  0
 16 15  1  6
 16 18  1  0
 17 16  1  0
 18 20  1  0
 18 19  1  6
 19 13  1  0
 20 21  1  0
 22 20  2  0
M  END
$$$$
