DIG.pdb
     RDKit          3D

 21 20  0  0  1  0  0  0  0  0999 V2000
   18.0244  -12.1193  -17.2904 N   0  0  0  0  0  0  0  0  0  0  0  0
   18.9130  -11.0403  -17.6701 C   0  0  1  0  0  0  0  0  0  0  0  0
   18.1020   -9.9107  -18.2609 C   0  0  0  0  0  0  0  0  0  0  0  0
   17.5189  -10.3160  -19.5636 C   0  0  0  0  0  0  0  0  0  0  0  0
   17.6224  -11.4860  -20.0115 O   0  0  0  0  0  0  0  0  0  0  0  0
   19.7001  -10.6125  -16.4950 C   0  0  0  0  0  0  0  0  0  0  0  0
   19.1980  -10.7088  -15.3207 O   0  0  0  0  0  0  0  0  0  0  0  0
   16.8257   -9.3910  -20.3431 O   0  0  0  0  0  0  0  0  0  0  0  0
   24.5327  -12.3502  -15.7036 C   0  0  0  0  0  0  0  0  0  0  0  0
   23.0740  -11.8821  -15.5282 C   0  0  0  0  0  0  0  0  0  0  0  0
   23.0997  -10.3876  -15.4369 C   0  0  2  0  0  0  0  0  0  0  0  0
   24.0232  -10.0048  -14.2948 C   0  0  0  0  0  0  0  0  0  0  0  0
   21.7628   -9.7194  -15.3346 C   0  0  2  0  0  0  0  0  0  0  0  0
   21.0060  -10.0879  -16.5640 N   0  0  0  0  0  0  0  0  0  0  0  0
   21.8001   -8.2515  -15.2052 C   0  0  0  0  0  0  0  0  0  0  0  0
   22.3078   -7.7562  -14.1407 O   0  0  0  0  0  0  0  0  0  0  0  0
   21.3312   -7.3159  -16.1480 N   0  0  0  0  0  0  0  0  0  0  0  0
   21.4830   -5.8785  -15.9727 C   0  0  0  0  0  0  0  0  0  0  0  0
   20.3385   -5.3614  -15.1909 C   0  0  0  0  0  0  0  0  0  0  0  0
   19.4038   -6.1347  -14.8164 O   0  0  0  0  0  0  0  0  0  0  0  0
   20.2159   -4.0294  -14.8254 O   0  0  0  0  0  0  0  0  0  0  0  0
  2  1  1  1
  3  2  1  0
  4  3  1  0
  5  4  2  0
  6  7  2  0
  6  2  1  0
  8  4  1  0
  9 10  1  0
 10 11  1  0
 11 13  1  0
 11 12  1  1
 13 14  1  6
 14  6  1  0
 15 13  1  0
 16 15  2  0
 17 15  1  0
 18 17  1  0
 19 21  1  0
 19 18  1  0
 20 19  2  0
M  END
$$$$
