DIG.pdb
     RDKit          3D

 21 20  0  0  1  0  0  0  0  0999 V2000
   17.7255  -12.1532  -15.9215 N   0  0  0  0  0  0  0  0  0  0  0  0
   16.3535  -11.7611  -16.1704 C   0  0  1  0  0  0  0  0  0  0  0  0
   15.5019  -12.9990  -16.3282 C   0  0  0  0  0  0  0  0  0  0  0  0
   16.0375  -13.8638  -17.4083 C   0  0  0  0  0  0  0  0  0  0  0  0
   16.2638  -13.4304  -18.5664 O   0  0  0  0  0  0  0  0  0  0  0  0
   15.8822  -10.8906  -15.0734 C   0  0  0  0  0  0  0  0  0  0  0  0
   14.6644  -10.4948  -15.0504 O   0  0  0  0  0  0  0  0  0  0  0  0
   16.3103  -15.2089  -17.1634 O   0  0  0  0  0  0  0  0  0  0  0  0
   16.9213  -12.5949  -10.9382 C   0  0  0  0  0  0  0  0  0  0  0  0
   15.8355  -11.5708  -11.3255 C   0  0  0  0  0  0  0  0  0  0  0  0
   16.5347  -10.2810  -11.6258 C   0  0  2  0  0  0  0  0  0  0  0  0
   16.3684   -9.3684  -10.4244 C   0  0  0  0  0  0  0  0  0  0  0  0
   16.1412   -9.6111  -12.9066 C   0  0  2  0  0  0  0  0  0  0  0  0
   16.6937  -10.4441  -14.0116 N   0  0  0  0  0  0  0  0  0  0  0  0
   16.6092   -8.2219  -13.0610 C   0  0  0  0  0  0  0  0  0  0  0  0
   15.9615   -7.3002  -12.4550 O   0  0  0  0  0  0  0  0  0  0  0  0
   17.7176   -7.7909  -13.8159 N   0  0  0  0  0  0  0  0  0  0  0  0
   18.1011   -6.3903  -13.9215 C   0  0  0  0  0  0  0  0  0  0  0  0
   17.4099   -5.7840  -15.0805 C   0  0  0  0  0  0  0  0  0  0  0  0
   17.6302   -4.5784  -15.4118 O   0  0  0  0  0  0  0  0  0  0  0  0
   16.4978   -6.4777  -15.8614 O   0  0  0  0  0  0  0  0  0  0  0  0
  2  1  1  1
  3  2  1  0
  4  3  1  0
  5  4  2  0
  6  7  2  0
  6  2  1  0
  8  4  1  0
  9 10  1  0
 10 11  1  0
 11 13  1  0
 11 12  1  1
 13 14  1  6
 14  6  1  0
 15 13  1  0
 16 15  2  0
 17 15  1  0
 18 17  1  0
 19 21  1  0
 19 18  1  0
 20 19  2  0
M  END
$$$$
