DIG.pdb
     RDKit          3D

 21 20  0  0  1  0  0  0  0  0999 V2000
   28.0405  -22.0866  -15.7331 N   0  0  0  0  0  0  0  0  0  0  0  0
   27.1778  -20.9534  -15.4692 C   0  0  1  0  0  0  0  0  0  0  0  0
   26.6416  -20.4196  -16.7770 C   0  0  0  0  0  0  0  0  0  0  0  0
   27.7415  -19.8560  -17.5979 C   0  0  0  0  0  0  0  0  0  0  0  0
   28.6651  -19.1637  -17.1000 O   0  0  0  0  0  0  0  0  0  0  0  0
   26.0999  -21.3588  -14.5433 C   0  0  0  0  0  0  0  0  0  0  0  0
   25.5703  -22.5201  -14.6492 O   0  0  0  0  0  0  0  0  0  0  0  0
   27.7818  -20.0835  -18.9728 O   0  0  0  0  0  0  0  0  0  0  0  0
   26.6449  -20.7268   -9.4206 C   0  0  0  0  0  0  0  0  0  0  0  0
   26.2548  -21.3513  -10.7753 C   0  0  0  0  0  0  0  0  0  0  0  0
   24.9741  -20.7049  -11.2050 C   0  0  2  0  0  0  0  0  0  0  0  0
   23.9158  -21.0279  -10.1660 C   0  0  0  0  0  0  0  0  0  0  0  0
   24.5199  -21.0238  -12.5965 C   0  0  2  0  0  0  0  0  0  0  0  0
   25.5887  -20.5415  -13.5158 N   0  0  0  0  0  0  0  0  0  0  0  0
   23.2306  -20.4278  -12.9907 C   0  0  0  0  0  0  0  0  0  0  0  0
   23.1204  -19.1542  -12.9464 O   0  0  0  0  0  0  0  0  0  0  0  0
   22.0844  -21.1229  -13.4236 N   0  0  0  0  0  0  0  0  0  0  0  0
   20.8369  -20.4515  -13.7592 C   0  0  0  0  0  0  0  0  0  0  0  0
   19.8186  -20.7807  -12.7378 C   0  0  0  0  0  0  0  0  0  0  0  0
   20.0963  -21.5494  -11.7662 O   0  0  0  0  0  0  0  0  0  0  0  0
   18.5251  -20.2825  -12.7752 O   0  0  0  0  0  0  0  0  0  0  0  0
  2  1  1  6
  3  2  1  0
  4  3  1  0
  5  4  2  0
  6  7  2  0
  6  2  1  0
  8  4  1  0
  9 10  1  0
 10 11  1  0
 11 13  1  0
 11 12  1  1
 13 14  1  6
 14  6  1  0
 15 13  1  0
 16 15  2  0
 17 15  1  0
 18 17  1  0
 19 21  1  0
 19 18  1  0
 20 19  2  0
M  END
$$$$
