DIG.pdb
     RDKit          3D

 21 20  0  0  1  0  0  0  0  0999 V2000
   19.8406  -13.3060  -16.4882 N   0  0  0  0  0  0  0  0  0  0  0  0
   19.9760  -11.9443  -16.9632 C   0  0  1  0  0  0  0  0  0  0  0  0
   18.6038  -11.3688  -17.2251 C   0  0  0  0  0  0  0  0  0  0  0  0
   17.9507  -12.0761  -18.3540 C   0  0  0  0  0  0  0  0  0  0  0  0
   16.8331  -12.6399  -18.2377 O   0  0  0  0  0  0  0  0  0  0  0  0
   20.7394  -11.1513  -15.9775 C   0  0  0  0  0  0  0  0  0  0  0  0
   20.4698  -11.2530  -14.7296 O   0  0  0  0  0  0  0  0  0  0  0  0
   18.5714  -12.1364  -19.6009 O   0  0  0  0  0  0  0  0  0  0  0  0
   25.8657  -11.2760  -15.8095 C   0  0  0  0  0  0  0  0  0  0  0  0
   24.3739  -11.2099  -15.4253 C   0  0  0  0  0  0  0  0  0  0  0  0
   23.9702   -9.7686  -15.4761 C   0  0  2  0  0  0  0  0  0  0  0  0
   24.8469   -9.0030  -14.5020 C   0  0  0  0  0  0  0  0  0  0  0  0
   22.5127   -9.4939  -15.2653 C   0  0  2  0  0  0  0  0  0  0  0  0
   21.7781  -10.2596  -16.3112 N   0  0  0  0  0  0  0  0  0  0  0  0
   22.1226   -8.0741  -15.3345 C   0  0  0  0  0  0  0  0  0  0  0  0
   22.3064   -7.4550  -16.4387 O   0  0  0  0  0  0  0  0  0  0  0  0
   21.5540   -7.3105  -14.2963 N   0  0  0  0  0  0  0  0  0  0  0  0
   21.1534   -5.9216  -14.4696 C   0  0  0  0  0  0  0  0  0  0  0  0
   22.3084   -5.0437  -14.1800 C   0  0  0  0  0  0  0  0  0  0  0  0
   22.1991   -3.7807  -14.2486 O   0  0  0  0  0  0  0  0  0  0  0  0
   23.5560   -5.5328  -13.8233 O   0  0  0  0  0  0  0  0  0  0  0  0
  2  1  1  1
  3  2  1  0
  4  3  1  0
  5  4  2  0
  6  7  2  0
  6  2  1  0
  8  4  1  0
  9 10  1  0
 10 11  1  0
 11 13  1  0
 11 12  1  1
 13 14  1  6
 14  6  1  0
 15 13  1  0
 16 15  2  0
 17 15  1  0
 18 17  1  0
 19 21  1  0
 19 18  1  0
 20 19  2  0
M  END
$$$$
