DIG.pdb
     RDKit          3D

 21 20  0  0  1  0  0  0  0  0999 V2000
   17.6754  -10.7376  -16.7751 N   0  0  0  0  0  0  0  0  0  0  0  0
   18.6917   -9.7865  -17.1760 C   0  0  1  0  0  0  0  0  0  0  0  0
   18.0262   -8.5155  -17.6496 C   0  0  0  0  0  0  0  0  0  0  0  0
   17.3891   -8.7249  -18.9731 C   0  0  0  0  0  0  0  0  0  0  0  0
   17.6124   -9.7450  -19.6728 O   0  0  0  0  0  0  0  0  0  0  0  0
   19.6181   -9.5498  -16.0494 C   0  0  0  0  0  0  0  0  0  0  0  0
   19.2127   -9.7092  -14.8450 O   0  0  0  0  0  0  0  0  0  0  0  0
   16.5067   -7.7761  -19.4879 O   0  0  0  0  0  0  0  0  0  0  0  0
   25.3406  -10.4703  -14.6679 C   0  0  0  0  0  0  0  0  0  0  0  0
   24.1167   -9.6737  -14.1727 C   0  0  0  0  0  0  0  0  0  0  0  0
   23.0836   -9.7370  -15.2549 C   0  0  2  0  0  0  0  0  0  0  0  0
   23.7587   -9.3811  -16.5670 C   0  0  0  0  0  0  0  0  0  0  0  0
   21.8433   -8.9312  -15.0176 C   0  0  2  0  0  0  0  0  0  0  0  0
   20.9604   -9.1482  -16.1980 N   0  0  0  0  0  0  0  0  0  0  0  0
   22.0579   -7.4853  -14.8271 C   0  0  0  0  0  0  0  0  0  0  0  0
   22.6385   -7.1016  -13.7539 O   0  0  0  0  0  0  0  0  0  0  0  0
   21.6888   -6.4595  -15.7192 N   0  0  0  0  0  0  0  0  0  0  0  0
   22.0497   -5.0650  -15.5076 C   0  0  0  0  0  0  0  0  0  0  0  0
   20.9150   -4.3614  -14.8704 C   0  0  0  0  0  0  0  0  0  0  0  0
   20.9946   -3.1280  -14.5799 O   0  0  0  0  0  0  0  0  0  0  0  0
   19.7192   -4.9894  -14.5566 O   0  0  0  0  0  0  0  0  0  0  0  0
  2  1  1  1
  3  2  1  0
  4  3  1  0
  5  4  2  0
  6  7  2  0
  6  2  1  0
  8  4  1  0
  9 10  1  0
 10 11  1  0
 11 13  1  0
 11 12  1  6
 13 14  1  6
 14  6  1  0
 15 13  1  0
 16 15  2  0
 17 15  1  0
 18 17  1  0
 19 21  1  0
 19 18  1  0
 20 19  2  0
M  END
$$$$
