DIG.pdb
     RDKit          3D

 21 20  0  0  1  0  0  0  0  0999 V2000
   17.2302  -11.0948  -16.8123 N   0  0  0  0  0  0  0  0  0  0  0  0
   17.5394  -11.1033  -15.3973 C   0  0  1  0  0  0  0  0  0  0  0  0
   17.4873  -12.5232  -14.8839 C   0  0  0  0  0  0  0  0  0  0  0  0
   16.0934  -13.0314  -14.9025 C   0  0  0  0  0  0  0  0  0  0  0  0
   15.7601  -14.1007  -14.3318 O   0  0  0  0  0  0  0  0  0  0  0  0
   18.8578  -10.4737  -15.1764 C   0  0  0  0  0  0  0  0  0  0  0  0
   19.4866  -10.6766  -14.0793 O   0  0  0  0  0  0  0  0  0  0  0  0
   15.0941  -12.3221  -15.5673 O   0  0  0  0  0  0  0  0  0  0  0  0
   22.5947  -11.1483  -18.5636 C   0  0  0  0  0  0  0  0  0  0  0  0
   21.8389  -10.9600  -17.2329 C   0  0  0  0  0  0  0  0  0  0  0  0
   21.7237   -9.4856  -16.9974 C   0  0  2  0  0  0  0  0  0  0  0  0
   23.1274   -8.9179  -16.8923 C   0  0  0  0  0  0  0  0  0  0  0  0
   20.8580   -9.0770  -15.8451 C   0  0  2  0  0  0  0  0  0  0  0  0
   19.5029   -9.6374  -16.1090 N   0  0  0  0  0  0  0  0  0  0  0  0
   20.7509   -7.6239  -15.6215 C   0  0  0  0  0  0  0  0  0  0  0  0
   20.0807   -6.9352  -16.4658 O   0  0  0  0  0  0  0  0  0  0  0  0
   21.3149   -6.8972  -14.5548 N   0  0  0  0  0  0  0  0  0  0  0  0
   21.3169   -5.4420  -14.5082 C   0  0  0  0  0  0  0  0  0  0  0  0
   21.8653   -4.9989  -13.2076 C   0  0  0  0  0  0  0  0  0  0  0  0
   22.0568   -5.8282  -12.2656 O   0  0  0  0  0  0  0  0  0  0  0  0
   22.1977   -3.6795  -12.9400 O   0  0  0  0  0  0  0  0  0  0  0  0
  2  1  1  6
  3  2  1  0
  4  3  1  0
  5  4  2  0
  6  7  2  0
  6  2  1  0
  8  4  1  0
  9 10  1  0
 10 11  1  0
 11 13  1  0
 11 12  1  1
 13 14  1  6
 14  6  1  0
 15 13  1  0
 16 15  2  0
 17 15  1  0
 18 17  1  0
 19 21  1  0
 19 18  1  0
 20 19  2  0
M  END
$$$$
