DIG.pdb
     RDKit          3D

 21 20  0  0  1  0  0  0  0  0999 V2000
   21.1661  -13.5744  -16.7154 N   0  0  0  0  0  0  0  0  0  0  0  0
   21.3844  -12.2486  -17.2562 C   0  0  1  0  0  0  0  0  0  0  0  0
   20.0502  -11.5798  -17.4910 C   0  0  0  0  0  0  0  0  0  0  0  0
   19.3359  -12.2274  -18.6187 C   0  0  0  0  0  0  0  0  0  0  0  0
   19.6698  -13.3528  -19.0683 O   0  0  0  0  0  0  0  0  0  0  0  0
   22.2463  -11.4765  -16.3372 C   0  0  0  0  0  0  0  0  0  0  0  0
   22.0503  -11.5402  -15.0731 O   0  0  0  0  0  0  0  0  0  0  0  0
   18.2521  -11.5922  -19.2235 O   0  0  0  0  0  0  0  0  0  0  0  0
   27.3308  -11.9838  -16.2727 C   0  0  0  0  0  0  0  0  0  0  0  0
   25.8651  -11.7674  -15.8455 C   0  0  0  0  0  0  0  0  0  0  0  0
   25.5643  -10.3117  -16.0274 C   0  0  2  0  0  0  0  0  0  0  0  0
   26.5502   -9.5220  -15.1858 C   0  0  0  0  0  0  0  0  0  0  0  0
   24.1455   -9.9041  -15.7722 C   0  0  2  0  0  0  0  0  0  0  0  0
   23.3050  -10.6454  -16.7540 N   0  0  0  0  0  0  0  0  0  0  0  0
   23.8740   -8.4600  -15.8884 C   0  0  0  0  0  0  0  0  0  0  0  0
   24.0710   -7.9023  -17.0227 O   0  0  0  0  0  0  0  0  0  0  0  0
   23.4079   -7.6107  -14.8658 N   0  0  0  0  0  0  0  0  0  0  0  0
   23.0821   -6.2101  -15.0935 C   0  0  0  0  0  0  0  0  0  0  0  0
   21.7007   -5.9518  -14.6314 C   0  0  0  0  0  0  0  0  0  0  0  0
   20.9019   -6.9111  -14.4000 O   0  0  0  0  0  0  0  0  0  0  0  0
   21.2011   -4.6747  -14.4262 O   0  0  0  0  0  0  0  0  0  0  0  0
  2  1  1  1
  3  2  1  0
  4  3  1  0
  5  4  2  0
  6  7  2  0
  6  2  1  0
  8  4  1  0
  9 10  1  0
 10 11  1  0
 11 13  1  0
 11 12  1  1
 13 14  1  6
 14  6  1  0
 15 13  1  0
 16 15  2  0
 17 15  1  0
 18 17  1  0
 19 21  1  0
 19 18  1  0
 20 19  2  0
M  END
$$$$
