DIG.pdb
     RDKit          3D

 21 20  0  0  1  0  0  0  0  0999 V2000
   23.1950   -9.8960  -18.6193 N   0  0  0  0  0  0  0  0  0  0  0  0
   22.7564  -10.5810  -17.4208 C   0  0  1  0  0  0  0  0  0  0  0  0
   21.2495  -10.6899  -17.4319 C   0  0  0  0  0  0  0  0  0  0  0  0
   20.7644  -11.3109  -16.1747 C   0  0  0  0  0  0  0  0  0  0  0  0
   20.3814  -12.5069  -16.1199 O   0  0  0  0  0  0  0  0  0  0  0  0
   23.4148  -11.9012  -17.3380 C   0  0  0  0  0  0  0  0  0  0  0  0
   23.5540  -12.6128  -18.3938 O   0  0  0  0  0  0  0  0  0  0  0  0
   20.7191  -10.5694  -14.9948 O   0  0  0  0  0  0  0  0  0  0  0  0
   28.2117  -12.4401  -15.7801 C   0  0  0  0  0  0  0  0  0  0  0  0
   26.8800  -12.6617  -16.5252 C   0  0  0  0  0  0  0  0  0  0  0  0
   26.0164  -13.5067  -15.6404 C   0  0  2  0  0  0  0  0  0  0  0  0
   26.7718  -14.7873  -15.3349 C   0  0  0  0  0  0  0  0  0  0  0  0
   24.6309  -13.7711  -16.1450 C   0  0  2  0  0  0  0  0  0  0  0  0
   23.9203  -12.4616  -16.1482 N   0  0  0  0  0  0  0  0  0  0  0  0
   23.8514  -14.7482  -15.3635 C   0  0  0  0  0  0  0  0  0  0  0  0
   23.6487  -14.5005  -14.1251 O   0  0  0  0  0  0  0  0  0  0  0  0
   23.2907  -15.9479  -15.8437 N   0  0  0  0  0  0  0  0  0  0  0  0
   22.5696  -16.8779  -14.9864 C   0  0  0  0  0  0  0  0  0  0  0  0
   22.3776  -18.1546  -15.7088 C   0  0  0  0  0  0  0  0  0  0  0  0
   21.8991  -18.1713  -16.8847 O   0  0  0  0  0  0  0  0  0  0  0  0
   22.7003  -19.3867  -15.1605 O   0  0  0  0  0  0  0  0  0  0  0  0
  2  1  1  6
  3  2  1  0
  4  3  1  0
  5  4  2  0
  6  7  2  0
  6  2  1  0
  8  4  1  0
  9 10  1  0
 10 11  1  0
 11 13  1  0
 11 12  1  6
 13 14  1  1
 14  6  1  0
 15 13  1  0
 16 15  2  0
 17 15  1  0
 18 17  1  0
 19 21  1  0
 19 18  1  0
 20 19  2  0
M  END
$$$$
