DIG.pdb
     RDKit          3D

 21 20  0  0  1  0  0  0  0  0999 V2000
   27.8557  -22.2350  -15.8142 N   0  0  0  0  0  0  0  0  0  0  0  0
   27.2744  -21.0573  -15.2034 C   0  0  1  0  0  0  0  0  0  0  0  0
   26.6879  -20.1748  -16.2803 C   0  0  0  0  0  0  0  0  0  0  0  0
   27.7670  -19.5451  -17.0806 C   0  0  0  0  0  0  0  0  0  0  0  0
   28.9796  -19.8344  -16.9193 O   0  0  0  0  0  0  0  0  0  0  0  0
   26.2678  -21.4665  -14.2020 C   0  0  0  0  0  0  0  0  0  0  0  0
   25.6122  -22.5548  -14.3633 O   0  0  0  0  0  0  0  0  0  0  0  0
   27.4593  -18.5954  -18.0538 O   0  0  0  0  0  0  0  0  0  0  0  0
   26.7777  -20.5881   -8.9258 C   0  0  0  0  0  0  0  0  0  0  0  0
   26.4497  -21.3058  -10.2505 C   0  0  0  0  0  0  0  0  0  0  0  0
   25.1822  -20.7044  -10.7743 C   0  0  2  0  0  0  0  0  0  0  0  0
   24.0771  -21.0009   -9.7770 C   0  0  0  0  0  0  0  0  0  0  0  0
   24.8063  -21.0944  -12.1711 C   0  0  2  0  0  0  0  0  0  0  0  0
   25.9594  -20.7295  -13.0414 N   0  0  0  0  0  0  0  0  0  0  0  0
   23.5809  -20.4633  -12.6934 C   0  0  0  0  0  0  0  0  0  0  0  0
   23.5506  -19.1869  -12.7722 O   0  0  0  0  0  0  0  0  0  0  0  0
   22.4170  -21.1273  -13.1278 N   0  0  0  0  0  0  0  0  0  0  0  0
   21.2587  -20.4209  -13.6559 C   0  0  0  0  0  0  0  0  0  0  0  0
   20.1944  -20.3981  -12.6286 C   0  0  0  0  0  0  0  0  0  0  0  0
   19.1048  -19.7796  -12.8341 O   0  0  0  0  0  0  0  0  0  0  0  0
   20.3158  -21.0360  -11.4034 O   0  0  0  0  0  0  0  0  0  0  0  0
  2  1  1  6
  3  2  1  0
  4  3  1  0
  5  4  2  0
  6  7  2  0
  6  2  1  0
  8  4  1  0
  9 10  1  0
 10 11  1  0
 11 13  1  0
 11 12  1  1
 13 14  1  6
 14  6  1  0
 15 13  1  0
 16 15  2  0
 17 15  1  0
 18 17  1  0
 19 21  1  0
 19 18  1  0
 20 19  2  0
M  END
$$$$
