DIG.pdb
     RDKit          3D

 21 20  0  0  1  0  0  0  0  0999 V2000
   21.1379  -13.4637  -16.9567 N   0  0  0  0  0  0  0  0  0  0  0  0
   21.4293  -12.1238  -17.4233 C   0  0  1  0  0  0  0  0  0  0  0  0
   20.1483  -11.3245  -17.4763 C   0  0  0  0  0  0  0  0  0  0  0  0
   19.2233  -11.8924  -18.4878 C   0  0  0  0  0  0  0  0  0  0  0  0
   19.5960  -12.7382  -19.3398 O   0  0  0  0  0  0  0  0  0  0  0  0
   22.4424  -11.5044  -16.5439 C   0  0  0  0  0  0  0  0  0  0  0  0
   22.3388  -11.6168  -15.2723 O   0  0  0  0  0  0  0  0  0  0  0  0
   17.8873  -11.4953  -18.5219 O   0  0  0  0  0  0  0  0  0  0  0  0
   26.4596  -12.4168  -15.2477 C   0  0  0  0  0  0  0  0  0  0  0  0
   26.2799  -11.9290  -16.6994 C   0  0  0  0  0  0  0  0  0  0  0  0
   25.9031  -10.4811  -16.6332 C   0  0  2  0  0  0  0  0  0  0  0  0
   27.0075   -9.7438  -15.8979 C   0  0  0  0  0  0  0  0  0  0  0  0
   24.5483  -10.1871  -16.0655 C   0  0  2  0  0  0  0  0  0  0  0  0
   23.5540  -10.7733  -17.0077 N   0  0  0  0  0  0  0  0  0  0  0  0
   24.2464   -8.7586  -15.8627 C   0  0  0  0  0  0  0  0  0  0  0  0
   24.9316   -8.1186  -14.9926 O   0  0  0  0  0  0  0  0  0  0  0  0
   23.2674   -8.0055  -16.5400 N   0  0  0  0  0  0  0  0  0  0  0  0
   23.0749   -6.5803  -16.3136 C   0  0  0  0  0  0  0  0  0  0  0  0
   21.9164   -6.3838  -15.4148 C   0  0  0  0  0  0  0  0  0  0  0  0
   21.5821   -5.2215  -15.0287 O   0  0  0  0  0  0  0  0  0  0  0  0
   21.1390   -7.4326  -14.9472 O   0  0  0  0  0  0  0  0  0  0  0  0
  2  1  1  1
  3  2  1  0
  4  3  1  0
  5  4  2  0
  6  7  2  0
  6  2  1  0
  8  4  1  0
  9 10  1  0
 10 11  1  0
 11 13  1  0
 11 12  1  1
 13 14  1  6
 14  6  1  0
 15 13  1  0
 16 15  2  0
 17 15  1  0
 18 17  1  0
 19 21  1  0
 19 18  1  0
 20 19  2  0
M  END
$$$$
