DIG.pdb
     RDKit          3D

 21 20  0  0  1  0  0  0  0  0999 V2000
   18.1436  -11.2123  -17.6963 N   0  0  0  0  0  0  0  0  0  0  0  0
   18.9365  -10.0111  -17.8593 C   0  0  1  0  0  0  0  0  0  0  0  0
   18.0624   -8.9070  -18.4065 C   0  0  0  0  0  0  0  0  0  0  0  0
   17.7083   -9.1780  -19.8216 C   0  0  0  0  0  0  0  0  0  0  0  0
   18.4170   -8.7791  -20.7801 O   0  0  0  0  0  0  0  0  0  0  0  0
   19.5560   -9.6497  -16.5674 C   0  0  0  0  0  0  0  0  0  0  0  0
   18.8826   -9.7589  -15.4835 O   0  0  0  0  0  0  0  0  0  0  0  0
   16.5555   -9.8974  -20.1337 O   0  0  0  0  0  0  0  0  0  0  0  0
   23.4205  -12.0448  -14.5979 C   0  0  0  0  0  0  0  0  0  0  0  0
   22.1281  -11.2055  -14.6501 C   0  0  0  0  0  0  0  0  0  0  0  0
   22.5394   -9.7741  -14.8072 C   0  0  2  0  0  0  0  0  0  0  0  0
   23.3430   -9.3813  -13.5810 C   0  0  0  0  0  0  0  0  0  0  0  0
   21.4317   -8.8072  -15.0941 C   0  0  2  0  0  0  0  0  0  0  0  0
   20.8759   -9.1772  -16.4260 N   0  0  0  0  0  0  0  0  0  0  0  0
   21.8229   -7.3860  -15.1055 C   0  0  0  0  0  0  0  0  0  0  0  0
   22.7404   -7.0233  -15.9198 O   0  0  0  0  0  0  0  0  0  0  0  0
   21.2821   -6.3623  -14.3032 N   0  0  0  0  0  0  0  0  0  0  0  0
   21.6881   -4.9695  -14.4252 C   0  0  0  0  0  0  0  0  0  0  0  0
   20.6502   -4.2251  -15.1718 C   0  0  0  0  0  0  0  0  0  0  0  0
   20.2403   -4.6360  -16.3009 O   0  0  0  0  0  0  0  0  0  0  0  0
   20.0719   -3.0576  -14.6971 O   0  0  0  0  0  0  0  0  0  0  0  0
  2  1  1  1
  3  2  1  0
  4  3  1  0
  5  4  2  0
  6  7  2  0
  6  2  1  0
  8  4  1  0
  9 10  1  0
 10 11  1  0
 11 13  1  0
 11 12  1  1
 13 14  1  6
 14  6  1  0
 15 13  1  0
 16 15  2  0
 17 15  1  0
 18 17  1  0
 19 21  1  0
 19 18  1  0
 20 19  2  0
M  END
$$$$
