DIG.pdb
     RDKit          3D

 21 20  0  0  1  0  0  0  0  0999 V2000
   21.1037  -13.7893  -17.5779 N   0  0  0  0  0  0  0  0  0  0  0  0
   21.1691  -12.4090  -18.0122 C   0  0  1  0  0  0  0  0  0  0  0  0
   19.8161  -11.9859  -18.5346 C   0  0  0  0  0  0  0  0  0  0  0  0
   19.5282  -12.6506  -19.8295 C   0  0  0  0  0  0  0  0  0  0  0  0
   20.4398  -13.0468  -20.5990 O   0  0  0  0  0  0  0  0  0  0  0  0
   21.6302  -11.5610  -16.8934 C   0  0  0  0  0  0  0  0  0  0  0  0
   21.2350  -11.8074  -15.7003 O   0  0  0  0  0  0  0  0  0  0  0  0
   18.2112  -12.8584  -20.2368 O   0  0  0  0  0  0  0  0  0  0  0  0
   26.4814  -11.0200  -15.6420 C   0  0  0  0  0  0  0  0  0  0  0  0
   24.9438  -11.1280  -15.6031 C   0  0  0  0  0  0  0  0  0  0  0  0
   24.4013   -9.7418  -15.7677 C   0  0  2  0  0  0  0  0  0  0  0  0
   24.9654   -8.8833  -14.6504 C   0  0  0  0  0  0  0  0  0  0  0  0
   22.9105   -9.6349  -15.8688 C   0  0  2  0  0  0  0  0  0  0  0  0
   22.5011  -10.4629  -17.0379 N   0  0  0  0  0  0  0  0  0  0  0  0
   22.3864   -8.2668  -16.0314 C   0  0  0  0  0  0  0  0  0  0  0  0
   22.8039   -7.5791  -17.0259 O   0  0  0  0  0  0  0  0  0  0  0  0
   21.4533   -7.6229  -15.1953 N   0  0  0  0  0  0  0  0  0  0  0  0
   21.0085   -6.2548  -15.4197 C   0  0  0  0  0  0  0  0  0  0  0  0
   21.9520   -5.3239  -14.7625 C   0  0  0  0  0  0  0  0  0  0  0  0
   21.7480   -4.0709  -14.7797 O   0  0  0  0  0  0  0  0  0  0  0  0
   23.0936   -5.7503  -14.1009 O   0  0  0  0  0  0  0  0  0  0  0  0
  2  1  1  1
  3  2  1  0
  4  3  1  0
  5  4  2  0
  6  7  2  0
  6  2  1  0
  8  4  1  0
  9 10  1  0
 10 11  1  0
 11 13  1  0
 11 12  1  1
 13 14  1  6
 14  6  1  0
 15 13  1  0
 16 15  2  0
 17 15  1  0
 18 17  1  0
 19 21  1  0
 19 18  1  0
 20 19  2  0
M  END
$$$$
