DIG.pdb
     RDKit          3D

 21 20  0  0  1  0  0  0  0  0999 V2000
   28.2774  -21.5760  -15.8141 N   0  0  0  0  0  0  0  0  0  0  0  0
   27.4366  -20.4865  -15.3624 C   0  0  1  0  0  0  0  0  0  0  0  0
   26.8376  -19.7888  -16.5611 C   0  0  0  0  0  0  0  0  0  0  0  0
   27.8978  -19.1257  -17.3596 C   0  0  0  0  0  0  0  0  0  0  0  0
   28.8761  -18.5437  -16.8263 O   0  0  0  0  0  0  0  0  0  0  0  0
   26.4050  -21.0081  -14.4420 C   0  0  0  0  0  0  0  0  0  0  0  0
   25.8189  -22.1168  -14.7020 O   0  0  0  0  0  0  0  0  0  0  0  0
   27.8369  -19.1299  -18.7525 O   0  0  0  0  0  0  0  0  0  0  0  0
   26.9778  -20.5436   -9.1612 C   0  0  0  0  0  0  0  0  0  0  0  0
   26.6449  -21.1921  -10.5199 C   0  0  0  0  0  0  0  0  0  0  0  0
   25.3352  -20.6222  -10.9700 C   0  0  2  0  0  0  0  0  0  0  0  0
   24.2741  -21.0415   -9.9689 C   0  0  0  0  0  0  0  0  0  0  0  0
   24.9404  -20.9355  -12.3808 C   0  0  2  0  0  0  0  0  0  0  0  0
   25.9988  -20.3610  -13.2581 N   0  0  0  0  0  0  0  0  0  0  0  0
   23.6253  -20.4160  -12.7973 C   0  0  0  0  0  0  0  0  0  0  0  0
   23.4531  -19.1485  -12.7948 O   0  0  0  0  0  0  0  0  0  0  0  0
   22.5160  -21.1798  -13.2101 N   0  0  0  0  0  0  0  0  0  0  0  0
   21.2462  -20.5795  -13.5935 C   0  0  0  0  0  0  0  0  0  0  0  0
   20.2690  -20.7706  -12.4993 C   0  0  0  0  0  0  0  0  0  0  0  0
   20.5409  -21.5138  -11.5065 O   0  0  0  0  0  0  0  0  0  0  0  0
   19.0220  -20.1643  -12.4881 O   0  0  0  0  0  0  0  0  0  0  0  0
  2  1  1  6
  3  2  1  0
  4  3  1  0
  5  4  2  0
  6  7  2  0
  6  2  1  0
  8  4  1  0
  9 10  1  0
 10 11  1  0
 11 13  1  0
 11 12  1  1
 13 14  1  6
 14  6  1  0
 15 13  1  0
 16 15  2  0
 17 15  1  0
 18 17  1  0
 19 21  1  0
 19 18  1  0
 20 19  2  0
M  END
$$$$
