RSS.pdb
     RDKit          3D

 24 23  0  0  1  0  0  0  0  0999 V2000
    7.6057  -11.5373   19.6356 N   0  0  0  0  0  0  0  0  0  0  0  0
    8.1151  -12.7845   19.2080 C   0  0  0  0  0  0  0  0  0  0  0  0
    7.6122  -13.4407   18.2141 N   0  0  0  0  0  0  0  0  0  0  0  0
    9.2344  -13.3462   19.8975 N   0  0  0  0  0  0  0  0  0  0  0  0
    9.8865  -14.5805   19.4910 C   0  0  0  0  0  0  0  0  0  0  0  0
    9.2125  -15.7882   20.0234 C   0  0  0  0  0  0  0  0  0  0  0  0
    9.4680  -16.0042   21.4732 C   0  0  0  0  0  0  0  0  0  0  0  0
    8.7946  -17.2048   22.0443 C   0  0  2  0  0  0  0  0  0  0  0  0
    7.7928  -17.7748   21.1950 N   0  0  0  0  0  0  0  0  0  0  0  0
    8.1679  -16.9189   23.3684 C   0  0  0  0  0  0  0  0  0  0  0  0
    7.2774  -16.0384   23.4941 O   0  0  0  0  0  0  0  0  0  0  0  0
    8.0386  -14.3676   17.9992 O   0  0  0  0  0  0  0  0  0  0  0  0
    8.5563  -19.5930   26.4965 C   0  0  0  0  0  0  0  0  0  0  0  0
    7.5038  -18.6815   26.4049 C   0  0  1  0  0  0  0  0  0  0  0  0
    8.0195  -17.3742   25.8390 N   0  0  0  0  0  0  0  0  0  0  0  0
    8.5687  -17.6413   24.5195 C   0  0  0  0  0  0  0  0  0  0  0  0
    9.1598  -16.8498   26.6742 O   0  0  0  0  0  0  0  0  0  0  0  0
   10.3262  -17.3012   26.5783 O   0  0  0  0  0  0  0  0  0  0  0  0
   10.3492  -13.8167   30.3171 C   0  0  0  0  0  0  0  0  0  0  0  0
    9.4342  -14.2045   29.3541 C   0  0  1  0  0  0  0  0  0  0  0  0
    9.9553  -15.3984   28.5758 N   0  0  0  0  0  0  0  0  0  0  0  0
    8.9425  -15.7987   27.6212 C   0  0  0  0  0  0  0  0  0  0  0  0
   10.2369  -16.5368   29.4646 O   0  0  0  0  0  0  0  0  0  0  0  0
   11.4197  -16.6303   30.1469 O   0  0  0  0  0  0  0  0  0  0  0  0
  1  2  1  0
  2  3  2  0
  2  4  1  0
  4  5  1  0
  5  6  1  0
  6  7  1  0
  7  8  1  0
  8  9  1  6
  8 10  1  0
 10 11  2  0
 10 15  1  0
 13 12  1  0
 14 13  1  6
 14 16  1  0
 15 14  1  0
 16 17  2  0
 16 21  1  0
 18 19  1  0
 20 19  1  6
 20 22  1  0
 21 20  1  0
 22 23  1  0
 24 22  2  0
M  END
$$$$
