RSS.pdb
     RDKit          3D

 24 23  0  0  1  0  0  0  0  0999 V2000
    9.4418  -13.9824   16.5033 N   0  0  0  0  0  0  0  0  0  0  0  0
    8.0790  -14.3570   16.5137 C   0  0  0  0  0  0  0  0  0  0  0  0
    7.5555  -15.1136   15.6055 N   0  0  0  0  0  0  0  0  0  0  0  0
    7.2414  -13.8850   17.5718 N   0  0  0  0  0  0  0  0  0  0  0  0
    7.7379  -13.1184   18.7032 C   0  0  0  0  0  0  0  0  0  0  0  0
    8.6742  -13.8908   19.5535 C   0  0  0  0  0  0  0  0  0  0  0  0
    8.0384  -14.4091   20.7948 C   0  0  0  0  0  0  0  0  0  0  0  0
    8.9354  -15.2439   21.6430 C   0  0  2  0  0  0  0  0  0  0  0  0
    9.0840  -16.5932   21.1883 N   0  0  0  0  0  0  0  0  0  0  0  0
    8.4842  -15.2840   23.0651 C   0  0  0  0  0  0  0  0  0  0  0  0
    8.1901  -14.2305   23.6879 O   0  0  0  0  0  0  0  0  0  0  0  0
    6.5450  -15.3468   15.7134 O   0  0  0  0  0  0  0  0  0  0  0  0
    8.7532  -18.8123   25.3235 C   0  0  0  0  0  0  0  0  0  0  0  0
    7.5625  -18.0868   25.3764 C   0  0  1  0  0  0  0  0  0  0  0  0
    7.8517  -16.6260   25.0980 N   0  0  0  0  0  0  0  0  0  0  0  0
    8.3777  -16.5217   23.7465 C   0  0  0  0  0  0  0  0  0  0  0  0
    8.9352  -16.1175   26.0146 O   0  0  0  0  0  0  0  0  0  0  0  0
   10.1545  -16.2816   25.7698 O   0  0  0  0  0  0  0  0  0  0  0  0
    8.8328  -12.7416   27.8080 C   0  0  0  0  0  0  0  0  0  0  0  0
    9.1327  -13.6735   28.7859 C   0  0  2  0  0  0  0  0  0  0  0  0
    9.6065  -14.9706   28.1569 N   0  0  0  0  0  0  0  0  0  0  0  0
    8.5994  -15.4169   27.2168 C   0  0  0  0  0  0  0  0  0  0  0  0
    9.7983  -16.0198   29.1707 O   0  0  0  0  0  0  0  0  0  0  0  0
   10.7096  -15.8737   30.1813 O   0  0  0  0  0  0  0  0  0  0  0  0
  1  2  1  0
  2  3  2  0
  2  4  1  0
  4  5  1  0
  5  6  1  0
  6  7  1  0
  7  8  1  0
  8  9  1  6
  8 10  1  0
 10 11  2  0
 10 15  1  0
 13 12  1  0
 14 13  1  6
 14 16  1  0
 15 14  1  0
 16 17  2  0
 16 21  1  0
 18 19  1  0
 20 19  1  6
 20 22  1  0
 21 20  1  0
 22 23  1  0
 24 22  2  0
M  END
$$$$
