RSS.pdb
     RDKit          3D

 24 23  0  0  1  0  0  0  0  0999 V2000
    8.4294  -11.4693   20.0111 N   0  0  0  0  0  0  0  0  0  0  0  0
    8.1248  -12.7783   19.5736 C   0  0  0  0  0  0  0  0  0  0  0  0
    8.4079  -13.2011   18.3852 N   0  0  0  0  0  0  0  0  0  0  0  0
    7.4801  -13.6766   20.4798 N   0  0  0  0  0  0  0  0  0  0  0  0
    7.6398  -15.1207   20.4231 C   0  0  0  0  0  0  0  0  0  0  0  0
    9.0067  -15.5320   20.0249 C   0  0  0  0  0  0  0  0  0  0  0  0
    9.8271  -16.0079   21.1713 C   0  0  0  0  0  0  0  0  0  0  0  0
    9.4114  -17.3305   21.7181 C   0  0  2  0  0  0  0  0  0  0  0  0
    8.2627  -17.8953   21.0769 N   0  0  0  0  0  0  0  0  0  0  0  0
    9.1376  -17.2696   23.1840 C   0  0  0  0  0  0  0  0  0  0  0  0
    7.9784  -17.0542   23.6245 O   0  0  0  0  0  0  0  0  0  0  0  0
    8.1586  -14.1896   18.1663 O   0  0  0  0  0  0  0  0  0  0  0  0
   12.1291  -18.4640   25.7582 C   0  0  0  0  0  0  0  0  0  0  0  0
   10.7917  -18.6583   26.1056 C   0  0  1  0  0  0  0  0  0  0  0  0
    9.9583  -17.5219   25.5497 N   0  0  0  0  0  0  0  0  0  0  0  0
   10.1889  -17.4552   24.1157 C   0  0  0  0  0  0  0  0  0  0  0  0
   10.4195  -16.2024   26.1146 O   0  0  0  0  0  0  0  0  0  0  0  0
   11.3927  -15.5706   25.6380 O   0  0  0  0  0  0  0  0  0  0  0  0
    7.9677  -13.8955   28.0596 C   0  0  0  0  0  0  0  0  0  0  0  0
    9.2387  -13.3674   27.9161 C   0  0  1  0  0  0  0  0  0  0  0  0
   10.2793  -14.4715   27.9421 N   0  0  0  0  0  0  0  0  0  0  0  0
    9.7470  -15.6176   27.2348 C   0  0  0  0  0  0  0  0  0  0  0  0
   10.5960  -14.8779   29.3205 O   0  0  0  0  0  0  0  0  0  0  0  0
   10.4386  -16.1731   29.7337 O   0  0  0  0  0  0  0  0  0  0  0  0
  1  2  1  0
  2  3  2  0
  2  4  1  0
  4  5  1  0
  5  6  1  0
  6  7  1  0
  7  8  1  0
  8  9  1  6
  8 10  1  0
 10 11  2  0
 10 15  1  0
 13 12  1  0
 14 13  1  6
 14 16  1  0
 15 14  1  0
 16 17  2  0
 16 21  1  0
 18 19  1  0
 20 19  1  6
 20 22  1  0
 21 20  1  0
 22 23  1  0
 24 22  2  0
M  END
$$$$
