RSS.pdb
     RDKit          3D

 24 23  0  0  1  0  0  0  0  0999 V2000
    8.4866  -13.1520   17.5033 N   0  0  0  0  0  0  0  0  0  0  0  0
    8.2900  -12.6652   18.8155 C   0  0  0  0  0  0  0  0  0  0  0  0
    8.6805  -11.4913   19.1909 N   0  0  0  0  0  0  0  0  0  0  0  0
    7.6298  -13.5001   19.7700 N   0  0  0  0  0  0  0  0  0  0  0  0
    7.3824  -14.9169   19.5569 C   0  0  0  0  0  0  0  0  0  0  0  0
    8.6029  -15.7427   19.7132 C   0  0  0  0  0  0  0  0  0  0  0  0
    8.9893  -15.9446   21.1358 C   0  0  0  0  0  0  0  0  0  0  0  0
    8.7872  -17.3335   21.6370 C   0  0  2  0  0  0  0  0  0  0  0  0
    7.5341  -17.9156   21.2621 N   0  0  0  0  0  0  0  0  0  0  0  0
    8.9077  -17.4162   23.1223 C   0  0  0  0  0  0  0  0  0  0  0  0
    7.8887  -17.4531   23.8602 O   0  0  0  0  0  0  0  0  0  0  0  0
    8.4796  -11.2227   20.1781 O   0  0  0  0  0  0  0  0  0  0  0  0
   12.7117  -17.6236   24.8489 C   0  0  0  0  0  0  0  0  0  0  0  0
   11.6583  -18.3473   25.4089 C   0  0  1  0  0  0  0  0  0  0  0  0
   10.3580  -17.6075   25.1701 N   0  0  0  0  0  0  0  0  0  0  0  0
   10.1848  -17.4549   23.7346 C   0  0  0  0  0  0  0  0  0  0  0  0
   10.4310  -16.2131   25.7385 O   0  0  0  0  0  0  0  0  0  0  0  0
   10.9056  -15.2481   25.0928 O   0  0  0  0  0  0  0  0  0  0  0  0
    7.8494  -14.6557   28.1641 C   0  0  0  0  0  0  0  0  0  0  0  0
    8.9041  -13.8784   27.7186 C   0  0  1  0  0  0  0  0  0  0  0  0
   10.1935  -14.6783   27.7243 N   0  0  0  0  0  0  0  0  0  0  0  0
    9.9504  -15.9415   27.0592 C   0  0  0  0  0  0  0  0  0  0  0  0
   10.6491  -14.9518   29.0966 O   0  0  0  0  0  0  0  0  0  0  0  0
   10.9725  -13.9352   29.9541 O   0  0  0  0  0  0  0  0  0  0  0  0
  1  2  1  0
  2  3  2  0
  2  4  1  0
  4  5  1  0
  5  6  1  0
  6  7  1  0
  7  8  1  0
  8  9  1  1
  8 10  1  0
 10 11  2  0
 10 15  1  0
 13 12  1  0
 14 13  1  6
 14 16  1  0
 15 14  1  0
 16 17  2  0
 16 21  1  0
 18 19  1  0
 20 19  1  6
 20 22  1  0
 21 20  1  0
 22 23  1  0
 24 22  2  0
M  END
$$$$
