RSS.pdb
     RDKit          3D

 24 23  0  0  1  0  0  0  0  0999 V2000
    7.5285  -14.8745   16.0325 N   0  0  0  0  0  0  0  0  0  0  0  0
    7.3871  -14.3621   17.3421 C   0  0  0  0  0  0  0  0  0  0  0  0
    7.4001  -13.0957   17.6018 N   0  0  0  0  0  0  0  0  0  0  0  0
    7.2191  -15.2775   18.4273 N   0  0  0  0  0  0  0  0  0  0  0  0
    6.8882  -14.8612   19.7805 C   0  0  0  0  0  0  0  0  0  0  0  0
    8.0850  -14.5189   20.5848 C   0  0  0  0  0  0  0  0  0  0  0  0
    9.2664  -15.3612   20.2551 C   0  0  0  0  0  0  0  0  0  0  0  0
   10.4723  -15.0813   21.0849 C   0  0  2  0  0  0  0  0  0  0  0  0
   11.6542  -15.7620   20.6501 N   0  0  0  0  0  0  0  0  0  0  0  0
   10.2520  -15.4133   22.5232 C   0  0  0  0  0  0  0  0  0  0  0  0
   10.8236  -16.3964   23.0625 O   0  0  0  0  0  0  0  0  0  0  0  0
    7.3678  -12.8219   18.6074 O   0  0  0  0  0  0  0  0  0  0  0  0
    6.9205  -14.3871   24.5934 C   0  0  0  0  0  0  0  0  0  0  0  0
    8.0884  -13.9603   25.2265 C   0  0  1  0  0  0  0  0  0  0  0  0
    9.2539  -14.8036   24.7516 N   0  0  0  0  0  0  0  0  0  0  0  0
    9.3862  -14.6193   23.3155 C   0  0  0  0  0  0  0  0  0  0  0  0
    8.9687  -16.2684   24.9662 O   0  0  0  0  0  0  0  0  0  0  0  0
    8.1356  -16.8995   24.2726 O   0  0  0  0  0  0  0  0  0  0  0  0
   10.1728  -20.5368   25.3900 C   0  0  0  0  0  0  0  0  0  0  0  0
   10.1940  -19.1787   25.1254 C   0  0  1  0  0  0  0  0  0  0  0  0
    9.4407  -18.4159   26.1993 N   0  0  0  0  0  0  0  0  0  0  0  0
    9.6543  -16.9992   25.9883 C   0  0  0  0  0  0  0  0  0  0  0  0
    9.9227  -18.7667   27.5447 O   0  0  0  0  0  0  0  0  0  0  0  0
    9.7695  -20.0304   28.0476 O   0  0  0  0  0  0  0  0  0  0  0  0
  1  2  1  0
  2  3  2  0
  2  4  1  0
  4  5  1  0
  5  6  1  0
  6  7  1  0
  7  8  1  0
  8  9  1  6
  8 10  1  0
 10 11  2  0
 10 15  1  0
 13 12  1  0
 14 13  1  1
 14 16  1  0
 15 14  1  0
 16 17  2  0
 16 21  1  0
 18 19  1  0
 20 19  1  6
 20 22  1  0
 21 20  1  0
 22 23  1  0
 24 22  2  0
M  END
$$$$
