RSS.pdb
     RDKit          3D

 24 23  0  0  1  0  0  0  0  0999 V2000
    6.8647  -12.7080   18.3669 N   0  0  0  0  0  0  0  0  0  0  0  0
    8.2733  -12.8109   18.3100 C   0  0  0  0  0  0  0  0  0  0  0  0
    9.0503  -11.7779   18.3273 N   0  0  0  0  0  0  0  0  0  0  0  0
    8.8681  -14.1086   18.2334 N   0  0  0  0  0  0  0  0  0  0  0  0
    8.0965  -15.3380   18.1480 C   0  0  0  0  0  0  0  0  0  0  0  0
    7.7582  -15.8970   19.4782 C   0  0  0  0  0  0  0  0  0  0  0  0
    8.9437  -16.0428   20.3654 C   0  0  0  0  0  0  0  0  0  0  0  0
    8.8120  -17.1096   21.3976 C   0  0  2  0  0  0  0  0  0  0  0  0
    7.4983  -17.2282   21.9542 N   0  0  0  0  0  0  0  0  0  0  0  0
    9.7741  -16.9220   22.5231 C   0  0  0  0  0  0  0  0  0  0  0  0
   10.9567  -16.5438   22.3166 O   0  0  0  0  0  0  0  0  0  0  0  0
   10.0709  -11.9556   18.2087 O   0  0  0  0  0  0  0  0  0  0  0  0
    8.3197  -16.2027   26.0807 C   0  0  0  0  0  0  0  0  0  0  0  0
    9.6830  -15.9596   25.9100 C   0  0  1  0  0  0  0  0  0  0  0  0
   10.2690  -17.0101   24.9891 N   0  0  0  0  0  0  0  0  0  0  0  0
    9.3690  -17.1689   23.8582 C   0  0  0  0  0  0  0  0  0  0  0  0
   10.3213  -18.3491   25.6800 O   0  0  0  0  0  0  0  0  0  0  0  0
    9.3181  -19.0961   25.7748 O   0  0  0  0  0  0  0  0  0  0  0  0
   13.9758  -19.7727   26.5730 C   0  0  0  0  0  0  0  0  0  0  0  0
   12.9752  -20.7285   26.5562 C   0  0  1  0  0  0  0  0  0  0  0  0
   11.6393  -20.1060   26.9174 N   0  0  0  0  0  0  0  0  0  0  0  0
   11.5424  -18.8192   26.2604 C   0  0  0  0  0  0  0  0  0  0  0  0
   11.5183  -19.9006   28.3695 O   0  0  0  0  0  0  0  0  0  0  0  0
   11.4569  -20.9594   29.2346 O   0  0  0  0  0  0  0  0  0  0  0  0
  1  2  1  0
  2  3  2  0
  2  4  1  0
  4  5  1  0
  5  6  1  0
  6  7  1  0
  7  8  1  0
  8  9  1  1
  8 10  1  0
 10 11  2  0
 10 15  1  0
 13 12  1  0
 14 13  1  6
 14 16  1  0
 15 14  1  0
 16 17  2  0
 16 21  1  0
 18 19  1  0
 20 19  1  6
 20 22  1  0
 21 20  1  0
 22 23  1  0
 24 22  2  0
M  END
$$$$
