RSS.pdb
     RDKit          3D

 24 23  0  0  1  0  0  0  0  0999 V2000
    8.4110  -13.6847   21.9357 N   0  0  0  0  0  0  0  0  0  0  0  0
    7.3131  -13.8689   21.0648 C   0  0  0  0  0  0  0  0  0  0  0  0
    6.1814  -14.3530   21.4603 N   0  0  0  0  0  0  0  0  0  0  0  0
    7.4536  -13.5035   19.6899 N   0  0  0  0  0  0  0  0  0  0  0  0
    8.7388  -13.2635   19.0537 C   0  0  0  0  0  0  0  0  0  0  0  0
    9.5033  -14.5105   18.8156 C   0  0  0  0  0  0  0  0  0  0  0  0
    9.6047  -14.8631   17.3736 C   0  0  0  0  0  0  0  0  0  0  0  0
    9.0635  -16.2084   17.0297 C   0  0  2  0  0  0  0  0  0  0  0  0
    7.6946  -16.2001   16.6106 N   0  0  0  0  0  0  0  0  0  0  0  0
    9.1926  -17.1706   18.1633 C   0  0  0  0  0  0  0  0  0  0  0  0
    8.3309  -17.2216   19.0793 O   0  0  0  0  0  0  0  0  0  0  0  0
    5.4678  -14.5413   20.7238 O   0  0  0  0  0  0  0  0  0  0  0  0
   12.1976  -19.9445   17.9240 C   0  0  0  0  0  0  0  0  0  0  0  0
   11.0224  -20.3172   18.5775 C   0  0  1  0  0  0  0  0  0  0  0  0
   10.4046  -19.0993   19.2332 N   0  0  0  0  0  0  0  0  0  0  0  0
   10.2991  -18.0531   18.2290 C   0  0  0  0  0  0  0  0  0  0  0  0
   11.3114  -18.5620   20.3111 O   0  0  0  0  0  0  0  0  0  0  0  0
   12.1965  -17.7040   20.0788 O   0  0  0  0  0  0  0  0  0  0  0  0
   10.8046  -20.0404   24.1055 C   0  0  0  0  0  0  0  0  0  0  0  0
   11.4533  -18.8197   24.0425 C   0  0  1  0  0  0  0  0  0  0  0  0
   12.1281  -18.6451   22.6947 N   0  0  0  0  0  0  0  0  0  0  0  0
   11.1875  -19.0231   21.6606 C   0  0  0  0  0  0  0  0  0  0  0  0
   13.3209  -19.4988   22.5773 O   0  0  0  0  0  0  0  0  0  0  0  0
   14.4485  -19.2496   23.3120 O   0  0  0  0  0  0  0  0  0  0  0  0
  1  2  1  0
  2  3  2  0
  2  4  1  0
  4  5  1  0
  5  6  1  0
  6  7  1  0
  7  8  1  0
  8  9  1  1
  8 10  1  0
 10 11  2  0
 10 15  1  0
 13 12  1  0
 14 13  1  6
 14 16  1  0
 15 14  1  0
 16 17  2  0
 16 21  1  0
 18 19  1  0
 20 19  1  6
 20 22  1  0
 21 20  1  0
 22 23  1  0
 24 22  2  0
M  END
$$$$
