RSS.pdb
     RDKit          3D

 24 23  0  0  1  0  0  0  0  0999 V2000
    6.8167  -12.9421   17.8380 N   0  0  0  0  0  0  0  0  0  0  0  0
    7.8639  -13.5787   17.1339 C   0  0  0  0  0  0  0  0  0  0  0  0
    7.8373  -13.7573   15.8538 N   0  0  0  0  0  0  0  0  0  0  0  0
    9.0031  -14.0431   17.8622 N   0  0  0  0  0  0  0  0  0  0  0  0
    9.0294  -14.1682   19.3105 C   0  0  0  0  0  0  0  0  0  0  0  0
    8.2751  -15.3467   19.7988 C   0  0  0  0  0  0  0  0  0  0  0  0
    8.3118  -15.4869   21.2796 C   0  0  0  0  0  0  0  0  0  0  0  0
    7.6035  -16.6898   21.8013 C   0  0  2  0  0  0  0  0  0  0  0  0
    6.4352  -17.0513   21.0570 N   0  0  0  0  0  0  0  0  0  0  0  0
    7.2076  -16.5305   23.2315 C   0  0  0  0  0  0  0  0  0  0  0  0
    6.2065  -15.8420   23.5603 O   0  0  0  0  0  0  0  0  0  0  0  0
    8.6871  -14.1782   15.4203 O   0  0  0  0  0  0  0  0  0  0  0  0
    8.7495  -19.0524   26.0795 C   0  0  0  0  0  0  0  0  0  0  0  0
    7.5572  -18.3606   26.2956 C   0  0  1  0  0  0  0  0  0  0  0  0
    7.6530  -16.9859   25.6662 N   0  0  0  0  0  0  0  0  0  0  0  0
    7.9596  -17.1579   24.2554 C   0  0  0  0  0  0  0  0  0  0  0  0
    8.8036  -16.2124   26.2584 O   0  0  0  0  0  0  0  0  0  0  0  0
    9.9649  -16.2694   25.7877 O   0  0  0  0  0  0  0  0  0  0  0  0
    8.2421  -12.7266   27.9386 C   0  0  0  0  0  0  0  0  0  0  0  0
    9.0895  -13.4489   28.7602 C   0  0  2  0  0  0  0  0  0  0  0  0
    9.6836  -14.6256   28.0086 N   0  0  0  0  0  0  0  0  0  0  0  0
    8.6022  -15.3713   27.3990 C   0  0  0  0  0  0  0  0  0  0  0  0
   10.4199  -15.5233   28.9128 O   0  0  0  0  0  0  0  0  0  0  0  0
   10.1225  -16.8571   28.9875 O   0  0  0  0  0  0  0  0  0  0  0  0
  1  2  1  0
  2  3  2  0
  2  4  1  0
  4  5  1  0
  5  6  1  0
  6  7  1  0
  7  8  1  0
  8  9  1  6
  8 10  1  0
 10 11  2  0
 10 15  1  0
 13 12  1  0
 14 13  1  6
 14 16  1  0
 15 14  1  0
 16 17  2  0
 16 21  1  0
 18 19  1  0
 20 19  1  6
 20 22  1  0
 21 20  1  0
 22 23  1  0
 24 22  2  0
M  END
$$$$
