RSS.pdb
     RDKit          3D

 24 23  0  0  1  0  0  0  0  0999 V2000
   12.1103  -19.8121   15.7202 N   0  0  0  0  0  0  0  0  0  0  0  0
   11.2792  -20.8271   15.1940 C   0  0  0  0  0  0  0  0  0  0  0  0
   11.7372  -21.9688   14.7967 N   0  0  0  0  0  0  0  0  0  0  0  0
    9.8731  -20.5874   15.0982 N   0  0  0  0  0  0  0  0  0  0  0  0
    9.2262  -19.3997   15.6323 C   0  0  0  0  0  0  0  0  0  0  0  0
    9.9395  -18.8343   16.8018 C   0  0  0  0  0  0  0  0  0  0  0  0
    9.1549  -18.9300   18.0624 C   0  0  0  0  0  0  0  0  0  0  0  0
    8.4635  -17.6691   18.4537 C   0  0  2  0  0  0  0  0  0  0  0  0
    8.1697  -16.7968   17.3573 N   0  0  0  0  0  0  0  0  0  0  0  0
    9.2419  -16.8936   19.4638 C   0  0  0  0  0  0  0  0  0  0  0  0
   10.4972  -16.8212   19.4073 O   0  0  0  0  0  0  0  0  0  0  0  0
   11.0463  -22.6379   14.3942 O   0  0  0  0  0  0  0  0  0  0  0  0
    7.2441  -15.2819   22.7173 C   0  0  0  0  0  0  0  0  0  0  0  0
    8.2774  -14.5127   22.1810 C   0  0  1  0  0  0  0  0  0  0  0  0
    9.2826  -15.4229   21.5056 N   0  0  0  0  0  0  0  0  0  0  0  0
    8.5746  -16.2180   20.5154 C   0  0  0  0  0  0  0  0  0  0  0  0
    9.8616  -16.3994   22.4976 O   0  0  0  0  0  0  0  0  0  0  0  0
    9.4375  -17.5746   22.6098 O   0  0  0  0  0  0  0  0  0  0  0  0
   13.4546  -15.5658   24.2089 C   0  0  0  0  0  0  0  0  0  0  0  0
   12.9943  -16.8700   24.2564 C   0  0  1  0  0  0  0  0  0  0  0  0
   11.4809  -16.8960   24.3649 N   0  0  0  0  0  0  0  0  0  0  0  0
   10.9357  -16.0081   23.3591 C   0  0  0  0  0  0  0  0  0  0  0  0
   11.0299  -16.4373   25.6883 O   0  0  0  0  0  0  0  0  0  0  0  0
   11.4243  -17.0742   26.8338 O   0  0  0  0  0  0  0  0  0  0  0  0
  1  2  1  0
  2  3  2  0
  2  4  1  0
  4  5  1  0
  5  6  1  0
  6  7  1  0
  7  8  1  0
  8  9  1  6
  8 10  1  0
 10 11  2  0
 10 15  1  0
 13 12  1  0
 14 13  1  6
 14 16  1  0
 15 14  1  0
 16 17  2  0
 16 21  1  0
 18 19  1  0
 20 19  1  6
 20 22  1  0
 21 20  1  0
 22 23  1  0
 24 22  2  0
M  END
$$$$
