PQK.pdb
     RDKit          3D

 26 26  0  0  1  0  0  0  0  0999 V2000
   25.2360  -22.3291  -14.6257 N   0  0  0  0  0  0  0  0  0  0  0  0
   26.6360  -22.2480  -15.0651 C   0  0  0  0  0  0  0  0  0  0  0  0
   26.7441  -20.7427  -15.3212 C   0  0  0  0  0  0  0  0  0  0  0  0
   26.0833  -20.1868  -14.0680 C   0  0  0  0  0  0  0  0  0  0  0  0
   25.2158  -21.3047  -13.6014 C   0  0  1  0  0  0  0  0  0  0  0  0
   23.8497  -20.9063  -13.2271 C   0  0  0  0  0  0  0  0  0  0  0  0
   23.7232  -20.0209  -12.3419 O   0  0  0  0  0  0  0  0  0  0  0  0
   22.8161  -20.3036  -16.4862 N   0  0  0  0  0  0  0  0  0  0  0  0
   22.1123  -19.1409  -16.0691 C   0  0  0  0  0  0  0  0  0  0  0  0
   22.5113  -18.0204  -16.4129 O   0  0  0  0  0  0  0  0  0  0  0  0
   20.9123  -19.3132  -15.2279 C   0  0  0  0  0  0  0  0  0  0  0  0
   20.6853  -20.6946  -14.7481 C   0  0  0  0  0  0  0  0  0  0  0  0
   21.3198  -21.0741  -13.4332 C   0  0  2  0  0  0  0  0  0  0  0  0
   22.6981  -21.4548  -13.7981 N   0  0  0  0  0  0  0  0  0  0  0  0
   20.6403  -22.2487  -12.8454 C   0  0  0  0  0  0  0  0  0  0  0  0
   20.9288  -23.4342  -13.2212 O   0  0  0  0  0  0  0  0  0  0  0  0
   19.6596  -22.1206  -11.8523 N   0  0  0  0  0  0  0  0  0  0  0  0
   19.1641  -23.3340  -11.1303 C   0  0  1  0  0  0  0  0  0  0  0  0
   18.6939  -22.8968   -9.7666 C   0  0  0  0  0  0  0  0  0  0  0  0
   18.1933  -24.0566   -8.9738 C   0  0  0  0  0  0  0  0  0  0  0  0
   18.9917  -24.2811   -7.6949 C   0  0  0  0  0  0  0  0  0  0  0  0
   18.4288  -25.4887   -6.9962 C   0  0  0  0  0  0  0  0  0  0  0  0
   19.0952  -25.6160   -5.6936 N   0  0  0  0  0  0  0  0  0  0  0  0
   18.0504  -23.9189  -11.8853 C   0  0  0  0  0  0  0  0  0  0  0  0
   17.8030  -25.2666  -11.9430 O   0  0  0  0  0  0  0  0  0  0  0  0
   17.2740  -23.1646  -12.5218 O   0  0  0  0  0  0  0  0  0  0  0  0
  1  2  1  0
  3  2  1  0
  4  3  1  0
  5  4  1  0
  5  1  1  0
  6 14  1  0
  5  6  1  6
  7  6  2  0
  8  9  1  0
  9 10  2  0
 11  9  1  0
 11 12  1  0
 13 12  1  6
 13 14  1  0
 15 17  1  0
 15 13  1  0
 16 15  2  0
 18 17  1  0
 18 24  1  0
 18 19  1  1
 20 19  1  0
 21 20  1  0
 22 21  1  0
 23 22  1  0
 24 25  1  0
 26 24  2  0
M  END
$$$$
