PQK.pdb
     RDKit          3D

 26 26  0  0  1  0  0  0  0  0999 V2000
   23.4500  -23.6792  -14.3701 N   0  0  0  0  0  0  0  0  0  0  0  0
   24.7750  -24.0623  -14.8773 C   0  0  0  0  0  0  0  0  0  0  0  0
   24.5586  -25.5656  -15.0682 C   0  0  0  0  0  0  0  0  0  0  0  0
   23.2074  -25.5779  -15.7682 C   0  0  0  0  0  0  0  0  0  0  0  0
   22.5942  -24.2783  -15.3739 C   0  0  1  0  0  0  0  0  0  0  0  0
   21.1912  -24.3684  -14.9400 C   0  0  0  0  0  0  0  0  0  0  0  0
   20.3207  -24.5800  -15.8238 O   0  0  0  0  0  0  0  0  0  0  0  0
   19.7043  -25.4185   -9.0379 N   0  0  0  0  0  0  0  0  0  0  0  0
   18.3859  -25.2600   -9.5457 C   0  0  0  0  0  0  0  0  0  0  0  0
   17.4113  -25.4972   -8.8197 O   0  0  0  0  0  0  0  0  0  0  0  0
   18.2229  -24.8117  -10.9421 C   0  0  0  0  0  0  0  0  0  0  0  0
   19.4893  -24.6264  -11.6850 C   0  0  0  0  0  0  0  0  0  0  0  0
   19.3787  -24.3113  -13.1560 C   0  0  2  0  0  0  0  0  0  0  0  0
   20.7802  -24.2326  -13.6111 N   0  0  0  0  0  0  0  0  0  0  0  0
   18.7361  -22.9952  -13.3611 C   0  0  0  0  0  0  0  0  0  0  0  0
   19.3854  -21.9099  -13.1877 O   0  0  0  0  0  0  0  0  0  0  0  0
   17.3971  -22.8752  -13.7578 N   0  0  0  0  0  0  0  0  0  0  0  0
   16.9180  -21.6108  -14.3988 C   0  0  1  0  0  0  0  0  0  0  0  0
   17.7271  -21.3964  -15.6524 C   0  0  0  0  0  0  0  0  0  0  0  0
   17.2289  -20.2174  -16.4179 C   0  0  0  0  0  0  0  0  0  0  0  0
   18.0494  -19.9438  -17.6730 C   0  0  0  0  0  0  0  0  0  0  0  0
   17.4769  -18.7297  -18.3525 C   0  0  0  0  0  0  0  0  0  0  0  0
   18.2500  -18.4830  -19.5767 N   0  0  0  0  0  0  0  0  0  0  0  0
   15.4965  -21.7521  -14.7328 C   0  0  0  0  0  0  0  0  0  0  0  0
   14.6249  -20.6947  -14.7864 O   0  0  0  0  0  0  0  0  0  0  0  0
   15.0325  -22.8922  -14.9821 O   0  0  0  0  0  0  0  0  0  0  0  0
  1  2  1  0
  3  2  1  0
  4  3  1  0
  5  4  1  0
  5  1  1  0
  6 14  1  0
  5  6  1  1
  7  6  2  0
  8  9  1  0
  9 10  2  0
 11  9  1  0
 11 12  1  0
 13 12  1  1
 13 14  1  0
 15 17  1  0
 15 13  1  0
 16 15  2  0
 18 17  1  0
 18 24  1  0
 18 19  1  6
 20 19  1  0
 21 20  1  0
 22 21  1  0
 23 22  1  0
 24 25  1  0
 26 24  2  0
M  END
$$$$
