PQK.pdb
     RDKit          3D

 26 26  0  0  1  0  0  0  0  0999 V2000
   21.7629  -12.0067  -18.0603 N   0  0  0  0  0  0  0  0  0  0  0  0
   21.0386  -13.1951  -18.5320 C   0  0  0  0  0  0  0  0  0  0  0  0
   21.4414  -14.1963  -17.4465 C   0  0  0  0  0  0  0  0  0  0  0  0
   21.2312  -13.3631  -16.1905 C   0  0  0  0  0  0  0  0  0  0  0  0
   21.3299  -11.9587  -16.6786 C   0  0  1  0  0  0  0  0  0  0  0  0
   22.1723  -11.0796  -15.8524 C   0  0  0  0  0  0  0  0  0  0  0  0
   21.8514  -10.9328  -14.6444 O   0  0  0  0  0  0  0  0  0  0  0  0
   28.0711  -10.6235  -16.7881 N   0  0  0  0  0  0  0  0  0  0  0  0
   27.4387  -11.4860  -15.8515 C   0  0  0  0  0  0  0  0  0  0  0  0
   28.0306  -12.4931  -15.4412 O   0  0  0  0  0  0  0  0  0  0  0  0
   26.0777  -11.1452  -15.3942 C   0  0  0  0  0  0  0  0  0  0  0  0
   25.5494   -9.8670  -15.9204 C   0  0  0  0  0  0  0  0  0  0  0  0
   24.1392   -9.4988  -15.5315 C   0  0  2  0  0  0  0  0  0  0  0  0
   23.2981  -10.4069  -16.3350 N   0  0  0  0  0  0  0  0  0  0  0  0
   23.8385   -8.1033  -15.9181 C   0  0  0  0  0  0  0  0  0  0  0  0
   24.1157   -7.6680  -17.0857 O   0  0  0  0  0  0  0  0  0  0  0  0
   23.2352   -7.1999  -15.0324 N   0  0  0  0  0  0  0  0  0  0  0  0
   22.7667   -5.8679  -15.5276 C   0  0  1  0  0  0  0  0  0  0  0  0
   21.6607   -6.1109  -16.5225 C   0  0  0  0  0  0  0  0  0  0  0  0
   20.4569   -6.6873  -15.8570 C   0  0  0  0  0  0  0  0  0  0  0  0
   19.2579   -6.7816  -16.7933 C   0  0  0  0  0  0  0  0  0  0  0  0
   18.0833   -7.2890  -16.0020 C   0  0  0  0  0  0  0  0  0  0  0  0
   16.9182   -7.3416  -16.8947 N   0  0  0  0  0  0  0  0  0  0  0  0
   22.2632   -5.0854  -14.3933 C   0  0  0  0  0  0  0  0  0  0  0  0
   22.1847   -5.5745  -13.1145 O   0  0  0  0  0  0  0  0  0  0  0  0
   21.8754   -3.9060  -14.5822 O   0  0  0  0  0  0  0  0  0  0  0  0
  1  2  1  0
  3  2  1  0
  4  3  1  0
  5  4  1  0
  5  1  1  0
  6 14  1  0
  5  6  1  1
  7  6  2  0
  8  9  1  0
  9 10  2  0
 11  9  1  0
 11 12  1  0
 13 12  1  6
 13 14  1  0
 15 17  1  0
 15 13  1  0
 16 15  2  0
 18 17  1  0
 18 24  1  0
 18 19  1  6
 20 19  1  0
 21 20  1  0
 22 21  1  0
 23 22  1  0
 24 25  1  0
 26 24  2  0
M  END
$$$$
