PQK.pdb
     RDKit          3D

 26 26  0  0  1  0  0  0  0  0999 V2000
   24.6789  -12.9805  -15.5080 N   0  0  0  0  0  0  0  0  0  0  0  0
   25.4587  -14.2164  -15.6633 C   0  0  0  0  0  0  0  0  0  0  0  0
   24.6857  -14.8724  -16.8102 C   0  0  0  0  0  0  0  0  0  0  0  0
   24.5256  -13.6963  -17.7626 C   0  0  0  0  0  0  0  0  0  0  0  0
   24.6530  -12.5051  -16.8764 C   0  0  1  0  0  0  0  0  0  0  0  0
   23.6344  -11.4661  -17.0948 C   0  0  0  0  0  0  0  0  0  0  0  0
   23.5634  -10.9519  -18.2411 O   0  0  0  0  0  0  0  0  0  0  0  0
   18.3868  -11.7351  -14.1949 N   0  0  0  0  0  0  0  0  0  0  0  0
   18.5318  -12.1251  -15.5543 C   0  0  0  0  0  0  0  0  0  0  0  0
   17.7501  -12.9487  -16.0477 O   0  0  0  0  0  0  0  0  0  0  0  0
   19.6263  -11.5253  -16.3416 C   0  0  0  0  0  0  0  0  0  0  0  0
   20.4977  -10.5986  -15.5853 C   0  0  0  0  0  0  0  0  0  0  0  0
   21.6860  -10.0270  -16.3178 C   0  0  2  0  0  0  0  0  0  0  0  0
   22.7513  -11.0257  -16.1051 N   0  0  0  0  0  0  0  0  0  0  0  0
   22.1059   -8.7452  -15.7114 C   0  0  0  0  0  0  0  0  0  0  0  0
   22.7967   -8.7182  -14.6382 O   0  0  0  0  0  0  0  0  0  0  0  0
   21.7746   -7.5087  -16.2821 N   0  0  0  0  0  0  0  0  0  0  0  0
   22.1814   -6.2390  -15.6028 C   0  0  1  0  0  0  0  0  0  0  0  0
   21.9137   -5.1023  -16.5558 C   0  0  0  0  0  0  0  0  0  0  0  0
   22.2208   -3.7872  -15.9228 C   0  0  0  0  0  0  0  0  0  0  0  0
   21.8581   -2.6071  -16.8167 C   0  0  0  0  0  0  0  0  0  0  0  0
   22.2728   -1.3424  -16.1155 C   0  0  0  0  0  0  0  0  0  0  0  0
   22.0560   -0.2173  -17.0343 N   0  0  0  0  0  0  0  0  0  0  0  0
   21.3854   -6.0729  -14.3818 C   0  0  0  0  0  0  0  0  0  0  0  0
   21.8908   -5.5585  -13.2153 O   0  0  0  0  0  0  0  0  0  0  0  0
   20.1776   -6.4170  -14.3821 O   0  0  0  0  0  0  0  0  0  0  0  0
  1  2  1  0
  3  2  1  0
  4  3  1  0
  5  4  1  0
  5  1  1  0
  6 14  1  0
  5  6  1  1
  7  6  2  0
  8  9  1  0
  9 10  2  0
 11  9  1  0
 11 12  1  0
 13 12  1  1
 13 14  1  0
 15 17  1  0
 15 13  1  0
 16 15  2  0
 18 17  1  0
 18 24  1  0
 18 19  1  6
 20 19  1  0
 21 20  1  0
 22 21  1  0
 23 22  1  0
 24 25  1  0
 26 24  2  0
M  END
$$$$
