PQK.pdb
     RDKit          3D

 26 26  0  0  1  0  0  0  0  0999 V2000
   27.8925  -17.5162  -18.8488 N   0  0  0  0  0  0  0  0  0  0  0  0
   28.2283  -16.1825  -18.3309 C   0  0  0  0  0  0  0  0  0  0  0  0
   27.4845  -16.2250  -16.9938 C   0  0  0  0  0  0  0  0  0  0  0  0
   27.8892  -17.5990  -16.4799 C   0  0  0  0  0  0  0  0  0  0  0  0
   28.2571  -18.3438  -17.7169 C   0  0  1  0  0  0  0  0  0  0  0  0
   27.6966  -19.7014  -17.8054 C   0  0  0  0  0  0  0  0  0  0  0  0
   26.6182  -19.8461  -18.4376 O   0  0  0  0  0  0  0  0  0  0  0  0
   30.9326  -24.7777  -16.2570 N   0  0  0  0  0  0  0  0  0  0  0  0
   29.6601  -25.3895  -16.4230 C   0  0  0  0  0  0  0  0  0  0  0  0
   29.5380  -26.6124  -16.2729 O   0  0  0  0  0  0  0  0  0  0  0  0
   28.5116  -24.5320  -16.7740 C   0  0  0  0  0  0  0  0  0  0  0  0
   28.8115  -23.0836  -16.8209 C   0  0  0  0  0  0  0  0  0  0  0  0
   27.6658  -22.1589  -17.1494 C   0  0  2  0  0  0  0  0  0  0  0  0
   28.2940  -20.8260  -17.2297 N   0  0  0  0  0  0  0  0  0  0  0  0
   26.6706  -22.1519  -16.0555 C   0  0  0  0  0  0  0  0  0  0  0  0
   26.6221  -21.1932  -15.2139 O   0  0  0  0  0  0  0  0  0  0  0  0
   25.7366  -23.1843  -15.8934 N   0  0  0  0  0  0  0  0  0  0  0  0
   24.6365  -23.0459  -14.8885 C   0  0  1  0  0  0  0  0  0  0  0  0
   23.8649  -21.7947  -15.2219 C   0  0  0  0  0  0  0  0  0  0  0  0
   22.7719  -21.5589  -14.2348 C   0  0  0  0  0  0  0  0  0  0  0  0
   21.9551  -20.3115  -14.5513 C   0  0  0  0  0  0  0  0  0  0  0  0
   20.9544  -20.1129  -13.4455 C   0  0  0  0  0  0  0  0  0  0  0  0
   20.1004  -18.9719  -13.8004 N   0  0  0  0  0  0  0  0  0  0  0  0
   23.7592  -24.2186  -14.9743 C   0  0  0  0  0  0  0  0  0  0  0  0
   23.6403  -24.9915  -16.1010 O   0  0  0  0  0  0  0  0  0  0  0  0
   23.0700  -24.5468  -13.9772 O   0  0  0  0  0  0  0  0  0  0  0  0
  1  2  1  0
  3  2  1  0
  4  3  1  0
  5  4  1  0
  5  1  1  0
  6 14  1  0
  5  6  1  6
  7  6  2  0
  8  9  1  0
  9 10  2  0
 11  9  1  0
 11 12  1  0
 13 12  1  1
 13 14  1  0
 15 17  1  0
 15 13  1  0
 16 15  2  0
 18 17  1  0
 18 24  1  0
 18 19  1  6
 20 19  1  0
 21 20  1  0
 22 21  1  0
 23 22  1  0
 24 25  1  0
 26 24  2  0
M  END
$$$$
