PQK.pdb
     RDKit          3D

 26 26  0  0  1  0  0  0  0  0999 V2000
   21.5833  -11.6310  -19.2305 N   0  0  0  0  0  0  0  0  0  0  0  0
   21.1524  -12.7503  -20.0797 C   0  0  0  0  0  0  0  0  0  0  0  0
   21.6431  -13.9269  -19.2325 C   0  0  0  0  0  0  0  0  0  0  0  0
   21.1598  -13.5113  -17.8507 C   0  0  0  0  0  0  0  0  0  0  0  0
   21.0250  -12.0310  -17.9548 C   0  0  1  0  0  0  0  0  0  0  0  0
   21.5996  -11.2816  -16.8264 C   0  0  0  0  0  0  0  0  0  0  0  0
   21.1599  -11.5350  -15.6749 O   0  0  0  0  0  0  0  0  0  0  0  0
   27.4197   -9.9033  -16.4521 N   0  0  0  0  0  0  0  0  0  0  0  0
   26.7629  -11.0509  -15.9298 C   0  0  0  0  0  0  0  0  0  0  0  0
   27.4159  -12.0678  -15.6607 O   0  0  0  0  0  0  0  0  0  0  0  0
   25.3030  -10.9886  -15.7237 C   0  0  0  0  0  0  0  0  0  0  0  0
   24.6829   -9.6913  -16.0738 C   0  0  0  0  0  0  0  0  0  0  0  0
   23.1972   -9.5611  -15.8474 C   0  0  2  0  0  0  0  0  0  0  0  0
   22.5978  -10.3134  -16.9664 N   0  0  0  0  0  0  0  0  0  0  0  0
   22.7764   -8.1466  -15.9441 C   0  0  0  0  0  0  0  0  0  0  0  0
   22.7734   -7.5344  -17.0643 O   0  0  0  0  0  0  0  0  0  0  0  0
   22.3587   -7.4167  -14.8228 N   0  0  0  0  0  0  0  0  0  0  0  0
   21.9596   -5.9823  -14.9710 C   0  0  1  0  0  0  0  0  0  0  0  0
   20.4763   -5.9434  -15.2365 C   0  0  0  0  0  0  0  0  0  0  0  0
   20.0207   -4.5554  -15.5366 C   0  0  0  0  0  0  0  0  0  0  0  0
   18.5575   -4.4971  -15.9597 C   0  0  0  0  0  0  0  0  0  0  0  0
   18.2453   -3.0855  -16.3758 C   0  0  0  0  0  0  0  0  0  0  0  0
   16.8234   -3.0188  -16.7376 N   0  0  0  0  0  0  0  0  0  0  0  0
   22.2693   -5.2681  -13.7274 C   0  0  0  0  0  0  0  0  0  0  0  0
   22.4222   -5.8929  -12.5162 O   0  0  0  0  0  0  0  0  0  0  0  0
   22.4014   -4.0195  -13.7505 O   0  0  0  0  0  0  0  0  0  0  0  0
  1  2  1  0
  3  2  1  0
  4  3  1  0
  5  4  1  0
  5  1  1  0
  6 14  1  0
  5  6  1  1
  7  6  2  0
  8  9  1  0
  9 10  2  0
 11  9  1  0
 11 12  1  0
 13 12  1  6
 13 14  1  0
 15 17  1  0
 15 13  1  0
 16 15  2  0
 18 17  1  0
 18 24  1  0
 18 19  1  1
 20 19  1  0
 21 20  1  0
 22 21  1  0
 23 22  1  0
 24 25  1  0
 26 24  2  0
M  END
$$$$
