PQK.pdb
     RDKit          3D

 26 26  0  0  1  0  0  0  0  0999 V2000
   31.7247  -33.8015   -5.4972 N   0  0  0  0  0  0  0  0  0  0  0  0
   32.3751  -33.6199   -6.8025 C   0  0  0  0  0  0  0  0  0  0  0  0
   33.5161  -32.6826   -6.3993 C   0  0  0  0  0  0  0  0  0  0  0  0
   34.0291  -33.3729   -5.1438 C   0  0  0  0  0  0  0  0  0  0  0  0
   32.8615  -34.1740   -4.6799 C   0  0  1  0  0  0  0  0  0  0  0  0
   32.5800  -34.0710   -3.2394 C   0  0  0  0  0  0  0  0  0  0  0  0
   31.5028  -33.5193   -2.8945 O   0  0  0  0  0  0  0  0  0  0  0  0
   30.4608  -36.5200    0.2348 N   0  0  0  0  0  0  0  0  0  0  0  0
   31.3973  -36.5499    1.3040 C   0  0  0  0  0  0  0  0  0  0  0  0
   31.0093  -36.7673    2.4595 O   0  0  0  0  0  0  0  0  0  0  0  0
   32.8211  -36.3171    0.9941 C   0  0  0  0  0  0  0  0  0  0  0  0
   33.1024  -35.9978   -0.4232 C   0  0  0  0  0  0  0  0  0  0  0  0
   33.1353  -34.5378   -0.8012 C   0  0  2  0  0  0  0  0  0  0  0  0
   33.4382  -34.5492   -2.2454 N   0  0  0  0  0  0  0  0  0  0  0  0
   34.2276  -33.8389   -0.0902 C   0  0  0  0  0  0  0  0  0  0  0  0
   35.4514  -34.0771   -0.3644 O   0  0  0  0  0  0  0  0  0  0  0  0
   33.9760  -32.8857    0.9060 N   0  0  0  0  0  0  0  0  0  0  0  0
   35.1162  -32.1800    1.5701 C   0  0  1  0  0  0  0  0  0  0  0  0
   34.5724  -30.9261    2.2058 C   0  0  0  0  0  0  0  0  0  0  0  0
   35.6391  -30.1942    2.9480 C   0  0  0  0  0  0  0  0  0  0  0  0
   35.1148  -28.9470    3.6500 C   0  0  0  0  0  0  0  0  0  0  0  0
   36.2393  -28.3536    4.4543 C   0  0  0  0  0  0  0  0  0  0  0  0
   35.7647  -27.0961    5.0464 N   0  0  0  0  0  0  0  0  0  0  0  0
   35.6909  -33.0580    2.5953 C   0  0  0  0  0  0  0  0  0  0  0  0
   37.0188  -33.0499    2.9381 O   0  0  0  0  0  0  0  0  0  0  0  0
   34.9466  -33.8690    3.1997 O   0  0  0  0  0  0  0  0  0  0  0  0
  1  2  1  0
  3  2  1  0
  4  3  1  0
  5  4  1  0
  5  1  1  0
  6 14  1  0
  5  6  1  1
  7  6  2  0
  8  9  1  0
  9 10  2  0
 11  9  1  0
 11 12  1  0
 13 12  1  1
 13 14  1  0
 15 17  1  0
 15 13  1  0
 16 15  2  0
 18 17  1  0
 18 24  1  0
 18 19  1  1
 20 19  1  0
 21 20  1  0
 22 21  1  0
 23 22  1  0
 24 25  1  0
 26 24  2  0
M  END
$$$$
