PQK.pdb
     RDKit          3D

 26 26  0  0  1  0  0  0  0  0999 V2000
   27.7049  -17.9196  -17.1610 N   0  0  0  0  0  0  0  0  0  0  0  0
   28.9682  -17.6807  -17.8729 C   0  0  0  0  0  0  0  0  0  0  0  0
   29.3294  -19.1179  -18.2565 C   0  0  0  0  0  0  0  0  0  0  0  0
   27.9943  -19.6216  -18.7853 C   0  0  0  0  0  0  0  0  0  0  0  0
   26.9967  -18.7269  -18.1335 C   0  0  1  0  0  0  0  0  0  0  0  0
   25.8360  -19.4211  -17.5541 C   0  0  0  0  0  0  0  0  0  0  0  0
   25.0764  -20.0427  -18.3417 O   0  0  0  0  0  0  0  0  0  0  0  0
   26.1353  -22.5117  -12.4942 N   0  0  0  0  0  0  0  0  0  0  0  0
   24.7262  -22.6155  -12.6514 C   0  0  0  0  0  0  0  0  0  0  0  0
   24.0809  -23.3972  -11.9404 O   0  0  0  0  0  0  0  0  0  0  0  0
   24.0720  -21.7747  -13.6725 C   0  0  0  0  0  0  0  0  0  0  0  0
   24.9999  -20.9809  -14.5085 C   0  0  0  0  0  0  0  0  0  0  0  0
   24.3848  -20.1234  -15.5864 C   0  0  2  0  0  0  0  0  0  0  0  0
   25.5370  -19.4255  -16.1889 N   0  0  0  0  0  0  0  0  0  0  0  0
   23.4734  -19.1187  -14.9976 C   0  0  0  0  0  0  0  0  0  0  0  0
   23.9127  -18.2012  -14.2263 O   0  0  0  0  0  0  0  0  0  0  0  0
   22.0963  -19.1202  -15.2590 N   0  0  0  0  0  0  0  0  0  0  0  0
   21.2165  -18.0819  -14.6370 C   0  0  1  0  0  0  0  0  0  0  0  0
   20.7568  -17.1538  -15.7322 C   0  0  0  0  0  0  0  0  0  0  0  0
   19.8233  -16.1184  -15.2020 C   0  0  0  0  0  0  0  0  0  0  0  0
   19.2731  -15.2099  -16.2952 C   0  0  0  0  0  0  0  0  0  0  0  0
   18.3500  -14.2100  -15.6538 C   0  0  0  0  0  0  0  0  0  0  0  0
   17.7085  -13.4296  -16.7200 N   0  0  0  0  0  0  0  0  0  0  0  0
   20.0625  -18.7417  -14.0162 C   0  0  0  0  0  0  0  0  0  0  0  0
   19.5153  -18.3415  -12.8241 O   0  0  0  0  0  0  0  0  0  0  0  0
   19.5358  -19.7281  -14.5876 O   0  0  0  0  0  0  0  0  0  0  0  0
  1  2  1  0
  3  2  1  0
  4  3  1  0
  5  4  1  0
  5  1  1  0
  6 14  1  0
  5  6  1  1
  7  6  2  0
  8  9  1  0
  9 10  2  0
 11  9  1  0
 11 12  1  0
 13 12  1  1
 13 14  1  0
 15 17  1  0
 15 13  1  0
 16 15  2  0
 18 17  1  0
 18 24  1  0
 18 19  1  6
 20 19  1  0
 21 20  1  0
 22 21  1  0
 23 22  1  0
 24 25  1  0
 26 24  2  0
M  END
$$$$
