PQK.pdb
     RDKit          3D

 26 26  0  0  1  0  0  0  0  0999 V2000
   24.4808  -24.9182  -15.8686 N   0  0  0  0  0  0  0  0  0  0  0  0
   25.8849  -24.4886  -15.8100 C   0  0  0  0  0  0  0  0  0  0  0  0
   25.6915  -22.9952  -15.5349 C   0  0  0  0  0  0  0  0  0  0  0  0
   24.6394  -23.0363  -14.4360 C   0  0  0  0  0  0  0  0  0  0  0  0
   23.9757  -24.3558  -14.6325 C   0  0  1  0  0  0  0  0  0  0  0  0
   22.5055  -24.3158  -14.5889 C   0  0  0  0  0  0  0  0  0  0  0  0
   21.8878  -24.4047  -15.6816 O   0  0  0  0  0  0  0  0  0  0  0  0
   19.3084  -25.2757   -9.3744 N   0  0  0  0  0  0  0  0  0  0  0  0
   18.2298  -24.8181  -10.1795 C   0  0  0  0  0  0  0  0  0  0  0  0
   17.0810  -24.7945   -9.7183 O   0  0  0  0  0  0  0  0  0  0  0  0
   18.5220  -24.3807  -11.5582 C   0  0  0  0  0  0  0  0  0  0  0  0
   19.9505  -24.4455  -11.9390 C   0  0  0  0  0  0  0  0  0  0  0  0
   20.3004  -24.0438  -13.3503 C   0  0  2  0  0  0  0  0  0  0  0  0
   21.7680  -24.1856  -13.4089 N   0  0  0  0  0  0  0  0  0  0  0  0
   19.9479  -22.6282  -13.5928 C   0  0  0  0  0  0  0  0  0  0  0  0
   20.6102  -21.6812  -13.0502 O   0  0  0  0  0  0  0  0  0  0  0  0
   18.8834  -22.2592  -14.4265 N   0  0  0  0  0  0  0  0  0  0  0  0
   18.6345  -20.8143  -14.7257 C   0  0  1  0  0  0  0  0  0  0  0  0
   18.4392  -20.6806  -16.2143 C   0  0  0  0  0  0  0  0  0  0  0  0
   18.0694  -19.2839  -16.5841 C   0  0  0  0  0  0  0  0  0  0  0  0
   17.9489  -19.0886  -18.0910 C   0  0  0  0  0  0  0  0  0  0  0  0
   17.7303  -17.6243  -18.3583 C   0  0  0  0  0  0  0  0  0  0  0  0
   17.5308  -17.4475  -19.8027 N   0  0  0  0  0  0  0  0  0  0  0  0
   17.4260  -20.3797  -14.0164 C   0  0  0  0  0  0  0  0  0  0  0  0
   17.2210  -19.0913  -13.5938 O   0  0  0  0  0  0  0  0  0  0  0  0
   16.5220  -21.2158  -13.7701 O   0  0  0  0  0  0  0  0  0  0  0  0
  1  2  1  0
  3  2  1  0
  4  3  1  0
  5  4  1  0
  5  1  1  0
  6 14  1  0
  5  6  1  6
  7  6  2  0
  8  9  1  0
  9 10  2  0
 11  9  1  0
 11 12  1  0
 13 12  1  1
 13 14  1  0
 15 17  1  0
 15 13  1  0
 16 15  2  0
 18 17  1  0
 18 24  1  0
 18 19  1  6
 20 19  1  0
 21 20  1  0
 22 21  1  0
 23 22  1  0
 24 25  1  0
 26 24  2  0
M  END
$$$$
