PQK.pdb
     RDKit          3D

 26 26  0  0  1  0  0  0  0  0999 V2000
   18.3611  -16.2824    2.4551 N   0  0  0  0  0  0  0  0  0  0  0  0
   18.5013  -15.8181    1.0678 C   0  0  0  0  0  0  0  0  0  0  0  0
   17.2432  -14.9541    0.9515 C   0  0  0  0  0  0  0  0  0  0  0  0
   17.3097  -14.1676    2.2527 C   0  0  0  0  0  0  0  0  0  0  0  0
   18.1470  -15.0236    3.1396 C   0  0  1  0  0  0  0  0  0  0  0  0
   17.6150  -15.2030    4.4996 C   0  0  0  0  0  0  0  0  0  0  0  0
   17.5192  -14.1806    5.2271 O   0  0  0  0  0  0  0  0  0  0  0  0
   14.2957  -20.1849    5.9767 N   0  0  0  0  0  0  0  0  0  0  0  0
   14.2361  -19.5247    7.2344 C   0  0  0  0  0  0  0  0  0  0  0  0
   13.5056  -19.9673    8.1307 O   0  0  0  0  0  0  0  0  0  0  0  0
   15.0597  -18.3160    7.4302 C   0  0  0  0  0  0  0  0  0  0  0  0
   15.8484  -17.9056    6.2472 C   0  0  0  0  0  0  0  0  0  0  0  0
   16.6511  -16.6342    6.3687 C   0  0  2  0  0  0  0  0  0  0  0  0
   17.2149  -16.4371    5.0193 N   0  0  0  0  0  0  0  0  0  0  0  0
   17.7621  -16.8079    7.3291 C   0  0  0  0  0  0  0  0  0  0  0  0
   18.8873  -17.2827    6.9573 O   0  0  0  0  0  0  0  0  0  0  0  0
   17.6382  -16.4583    8.6807 N   0  0  0  0  0  0  0  0  0  0  0  0
   18.8081  -16.6075    9.6016 C   0  0  1  0  0  0  0  0  0  0  0  0
   19.3451  -15.2287    9.8890 C   0  0  0  0  0  0  0  0  0  0  0  0
   20.4829  -15.2854   10.8516 C   0  0  0  0  0  0  0  0  0  0  0  0
   21.0458  -13.9066   11.1760 C   0  0  0  0  0  0  0  0  0  0  0  0
   22.2150  -14.0840   12.1060 C   0  0  0  0  0  0  0  0  0  0  0  0
   22.7761  -12.7577   12.3942 N   0  0  0  0  0  0  0  0  0  0  0  0
   18.3605  -17.2448   10.8450 C   0  0  0  0  0  0  0  0  0  0  0  0
   19.2173  -17.8110   11.7538 O   0  0  0  0  0  0  0  0  0  0  0  0
   17.1334  -17.2882   11.1080 O   0  0  0  0  0  0  0  0  0  0  0  0
  1  2  1  0
  3  2  1  0
  4  3  1  0
  5  4  1  0
  5  1  1  0
  6 14  1  0
  5  6  1  1
  7  6  2  0
  8  9  1  0
  9 10  2  0
 11  9  1  0
 11 12  1  0
 13 12  1  6
 13 14  1  0
 15 17  1  0
 15 13  1  0
 16 15  2  0
 18 17  1  0
 18 24  1  0
 18 19  1  1
 20 19  1  0
 21 20  1  0
 22 21  1  0
 23 22  1  0
 24 25  1  0
 26 24  2  0
M  END
$$$$
