NTC.pdb
     RDKit          3D

 22 21  0  0  1  0  0  0  0  0999 V2000
    8.9221  -18.5517   15.7977 N   0  0  0  0  0  0  0  0  0  0  0  0
    7.9227  -17.5516   15.8974 C   0  0  0  0  0  0  0  0  0  0  0  0
    7.2363  -17.2668   14.9030 O   0  0  0  0  0  0  0  0  0  0  0  0
    7.7069  -16.8566   17.1843 C   0  0  0  0  0  0  0  0  0  0  0  0
    8.6777  -17.4478   18.1817 C   0  0  2  0  0  0  0  0  0  0  0  0
    8.0681  -18.5328   18.8859 N   0  0  0  0  0  0  0  0  0  0  0  0
    9.1741  -16.3864   19.1017 C   0  0  0  0  0  0  0  0  0  0  0  0
   10.2942  -15.8721   18.7921 O   0  0  0  0  0  0  0  0  0  0  0  0
    7.5826  -13.1697   20.2372 C   0  0  0  0  0  0  0  0  0  0  0  0
    7.9730  -13.9059   21.4951 C   0  0  1  0  0  0  0  0  0  0  0  0
    6.8637  -14.4838   22.0856 O   0  0  0  0  0  0  0  0  0  0  0  0
    8.9997  -14.9834   21.1606 C   0  0  2  0  0  0  0  0  0  0  0  0
    8.4709  -15.9573   20.2497 N   0  0  0  0  0  0  0  0  0  0  0  0
    9.5171  -15.5959   22.4115 C   0  0  0  0  0  0  0  0  0  0  0  0
    8.7205  -16.0677   23.2358 O   0  0  0  0  0  0  0  0  0  0  0  0
   10.8977  -15.6514   22.6806 N   0  0  0  0  0  0  0  0  0  0  0  0
   11.5047  -16.2728   23.8077 C   0  0  1  0  0  0  0  0  0  0  0  0
   11.3656  -17.7728   23.8306 C   0  0  0  0  0  0  0  0  0  0  0  0
    9.8000  -18.1804   24.6726 S   0  0  0  0  0  0  0  0  0  0  0  0
   12.9490  -15.9560   23.8112 C   0  0  0  0  0  0  0  0  0  0  0  0
   13.7348  -16.3036   24.7263 O   0  0  0  0  0  0  0  0  0  0  0  0
   13.4764  -15.2373   22.7533 O   0  0  0  0  0  0  0  0  0  0  0  0
  1  2  1  0
  2  4  1  0
  2  3  2  0
  5  4  1  0
  5  6  1  1
  7  5  1  0
  7  8  2  0
 10  9  1  6
 10 12  1  0
 11 10  1  0
 12 13  1  6
 12 14  1  0
 13  7  1  0
 14 16  1  0
 15 14  2  0
 16 17  1  0
 17 20  1  0
 17 18  1  6
 18 19  1  0
 20 21  2  0
 20 22  1  0
M  END
$$$$
