NTC.pdb
     RDKit          3D

 22 21  0  0  1  0  0  0  0  0999 V2000
    8.5577  -19.9102   14.8494 N   0  0  0  0  0  0  0  0  0  0  0  0
    8.1425  -18.6166   15.2530 C   0  0  0  0  0  0  0  0  0  0  0  0
    7.1503  -18.0949   14.7197 O   0  0  0  0  0  0  0  0  0  0  0  0
    8.8947  -17.9002   16.3050 C   0  0  0  0  0  0  0  0  0  0  0  0
    8.3632  -16.4852   16.3517 C   0  0  2  0  0  0  0  0  0  0  0  0
    8.6773  -15.7958   15.1389 N   0  0  0  0  0  0  0  0  0  0  0  0
    8.8912  -15.7810   17.5537 C   0  0  0  0  0  0  0  0  0  0  0  0
   10.0080  -15.1947   17.3995 O   0  0  0  0  0  0  0  0  0  0  0  0
    7.3156  -13.0769   19.4974 C   0  0  0  0  0  0  0  0  0  0  0  0
    7.7193  -14.0950   20.5353 C   0  0  1  0  0  0  0  0  0  0  0  0
    6.6164  -14.8018   20.9792 O   0  0  0  0  0  0  0  0  0  0  0  0
    8.7427  -15.0565   19.9393 C   0  0  2  0  0  0  0  0  0  0  0  0
    8.2198  -15.7483   18.7966 N   0  0  0  0  0  0  0  0  0  0  0  0
    9.2377  -15.9841   20.9890 C   0  0  0  0  0  0  0  0  0  0  0  0
    8.8860  -17.1727   20.9694 O   0  0  0  0  0  0  0  0  0  0  0  0
   10.1006  -15.5396   22.0085 N   0  0  0  0  0  0  0  0  0  0  0  0
   10.6197  -16.3340   23.0689 C   0  0  1  0  0  0  0  0  0  0  0  0
   11.9572  -15.8708   23.5849 C   0  0  0  0  0  0  0  0  0  0  0  0
   13.1774  -16.0682   22.2438 S   0  0  0  0  0  0  0  0  0  0  0  0
    9.6681  -16.3064   24.2003 C   0  0  0  0  0  0  0  0  0  0  0  0
    8.6743  -15.5414   24.2543 O   0  0  0  0  0  0  0  0  0  0  0  0
    9.8727  -17.1661   25.2647 O   0  0  0  0  0  0  0  0  0  0  0  0
  1  2  1  0
  2  4  1  0
  2  3  2  0
  5  4  1  0
  5  6  1  6
  7  5  1  0
  7  8  2  0
 10  9  1  6
 10 12  1  0
 11 10  1  0
 12 13  1  6
 12 14  1  0
 13  7  1  0
 14 16  1  0
 15 14  2  0
 16 17  1  0
 17 20  1  0
 17 18  1  1
 18 19  1  0
 20 21  2  0
 20 22  1  0
M  END
$$$$
