NTC.pdb
     RDKit          3D

 22 21  0  0  1  0  0  0  0  0999 V2000
    8.6399  -12.7956   15.7412 N   0  0  0  0  0  0  0  0  0  0  0  0
    7.8180  -13.9385   15.5769 C   0  0  0  0  0  0  0  0  0  0  0  0
    7.4276  -14.2573   14.4424 O   0  0  0  0  0  0  0  0  0  0  0  0
    7.4328  -14.7405   16.7577 C   0  0  0  0  0  0  0  0  0  0  0  0
    7.9630  -14.0236   17.9791 C   0  0  2  0  0  0  0  0  0  0  0  0
    9.3790  -13.8514   17.8790 N   0  0  0  0  0  0  0  0  0  0  0  0
    7.5702  -14.7595   19.2134 C   0  0  0  0  0  0  0  0  0  0  0  0
    6.3200  -14.8617   19.4166 O   0  0  0  0  0  0  0  0  0  0  0  0
    7.9631  -18.2119   20.2213 C   0  0  0  0  0  0  0  0  0  0  0  0
    8.5959  -17.4352   21.3496 C   0  0  1  0  0  0  0  0  0  0  0  0
    9.9748  -17.4590   21.2442 O   0  0  0  0  0  0  0  0  0  0  0  0
    8.1010  -15.9926   21.3195 C   0  0  2  0  0  0  0  0  0  0  0  0
    8.5007  -15.3182   20.1183 N   0  0  0  0  0  0  0  0  0  0  0  0
    8.5422  -15.2799   22.5463 C   0  0  0  0  0  0  0  0  0  0  0  0
    9.5740  -14.5934   22.5163 O   0  0  0  0  0  0  0  0  0  0  0  0
    7.8105  -15.3686   23.7455 N   0  0  0  0  0  0  0  0  0  0  0  0
    8.2003  -14.8299   25.0036 C   0  0  1  0  0  0  0  0  0  0  0  0
    7.0488  -14.5433   25.9319 C   0  0  0  0  0  0  0  0  0  0  0  0
    6.2875  -12.9686   25.4154 S   0  0  0  0  0  0  0  0  0  0  0  0
    9.0947  -15.7924   25.6820 C   0  0  0  0  0  0  0  0  0  0  0  0
    9.3207  -16.9511   25.2554 O   0  0  0  0  0  0  0  0  0  0  0  0
    9.7237  -15.4071   26.8524 O   0  0  0  0  0  0  0  0  0  0  0  0
  1  2  1  0
  2  4  1  0
  2  3  2  0
  5  4  1  0
  5  6  1  6
  7  5  1  0
  7  8  2  0
 10  9  1  6
 10 12  1  0
 11 10  1  0
 12 13  1  6
 12 14  1  0
 13  7  1  0
 14 16  1  0
 15 14  2  0
 16 17  1  0
 17 20  1  0
 17 18  1  1
 18 19  1  0
 20 21  2  0
 20 22  1  0
M  END
$$$$
