NTC.pdb
     RDKit          3D

 22 21  0  0  1  0  0  0  0  0999 V2000
   11.3679  -17.8879   16.9164 N   0  0  0  0  0  0  0  0  0  0  0  0
   11.7030  -17.9221   18.2931 C   0  0  0  0  0  0  0  0  0  0  0  0
   12.4931  -18.7829   18.7125 O   0  0  0  0  0  0  0  0  0  0  0  0
   11.1087  -16.9329   19.2172 C   0  0  0  0  0  0  0  0  0  0  0  0
   11.1782  -17.5207   20.6087 C   0  0  2  0  0  0  0  0  0  0  0  0
   10.3998  -18.7179   20.6823 N   0  0  0  0  0  0  0  0  0  0  0  0
   10.7501  -16.5070   21.6130 C   0  0  0  0  0  0  0  0  0  0  0  0
   11.5061  -15.4917   21.7242 O   0  0  0  0  0  0  0  0  0  0  0  0
    7.1164  -15.0683   21.9704 C   0  0  0  0  0  0  0  0  0  0  0  0
    7.6199  -15.4999   23.3256 C   0  0  1  0  0  0  0  0  0  0  0  0
    7.0733  -16.7192   23.6829 O   0  0  0  0  0  0  0  0  0  0  0  0
    9.1415  -15.6051   23.2974 C   0  0  2  0  0  0  0  0  0  0  0  0
    9.5868  -16.6359   22.4048 N   0  0  0  0  0  0  0  0  0  0  0  0
    9.6628  -15.7826   24.6773 C   0  0  0  0  0  0  0  0  0  0  0  0
   10.2735  -16.8207   24.9710 O   0  0  0  0  0  0  0  0  0  0  0  0
    9.4769  -14.7932   25.6612 N   0  0  0  0  0  0  0  0  0  0  0  0
    9.9133  -14.8675   27.0135 C   0  0  1  0  0  0  0  0  0  0  0  0
    9.3752  -13.7693   27.8934 C   0  0  0  0  0  0  0  0  0  0  0  0
   10.1465  -13.9361   29.5377 S   0  0  0  0  0  0  0  0  0  0  0  0
    9.4772  -16.1578   27.5890 C   0  0  0  0  0  0  0  0  0  0  0  0
    8.3374  -16.6508   27.4060 O   0  0  0  0  0  0  0  0  0  0  0  0
   10.3649  -16.8716   28.3742 O   0  0  0  0  0  0  0  0  0  0  0  0
  1  2  1  0
  2  4  1  0
  2  3  2  0
  5  4  1  0
  5  6  1  6
  7  5  1  0
  7  8  2  0
 10  9  1  6
 10 12  1  0
 11 10  1  0
 12 13  1  6
 12 14  1  0
 13  7  1  0
 14 16  1  0
 15 14  2  0
 16 17  1  0
 17 20  1  0
 17 18  1  1
 18 19  1  0
 20 21  2  0
 20 22  1  0
M  END
$$$$
