NTC.pdb
     RDKit          3D

 22 21  0  0  1  0  0  0  0  0999 V2000
    7.6532  -14.6318   11.5508 N   0  0  0  0  0  0  0  0  0  0  0  0
    7.1273  -14.9826   12.8193 C   0  0  0  0  0  0  0  0  0  0  0  0
    6.2721  -15.8784   12.9042 O   0  0  0  0  0  0  0  0  0  0  0  0
    7.6016  -14.2786   14.0298 C   0  0  0  0  0  0  0  0  0  0  0  0
    8.4719  -15.2466   14.7995 C   0  0  2  0  0  0  0  0  0  0  0  0
    7.7200  -16.4052   15.1697 N   0  0  0  0  0  0  0  0  0  0  0  0
    9.0741  -14.5645   15.9792 C   0  0  0  0  0  0  0  0  0  0  0  0
    9.8705  -13.6105   15.7137 O   0  0  0  0  0  0  0  0  0  0  0  0
    7.3836  -12.9702   18.8968 C   0  0  0  0  0  0  0  0  0  0  0  0
    8.4160  -13.8891   19.5020 C   0  0  1  0  0  0  0  0  0  0  0  0
    7.8148  -15.0183   20.0279 O   0  0  0  0  0  0  0  0  0  0  0  0
    9.4300  -14.2933   18.4364 C   0  0  2  0  0  0  0  0  0  0  0  0
    8.7991  -14.9296   17.3162 N   0  0  0  0  0  0  0  0  0  0  0  0
   10.4948  -15.1334   19.0429 C   0  0  0  0  0  0  0  0  0  0  0  0
   10.6650  -16.2920   18.6359 O   0  0  0  0  0  0  0  0  0  0  0  0
   11.3167  -14.6393   20.0733 N   0  0  0  0  0  0  0  0  0  0  0  0
   12.3317  -15.3680   20.7542 C   0  0  1  0  0  0  0  0  0  0  0  0
   13.6702  -14.6771   20.7812 C   0  0  0  0  0  0  0  0  0  0  0  0
   14.8109  -15.6975   21.7732 S   0  0  0  0  0  0  0  0  0  0  0  0
   11.9102  -15.5847   22.1548 C   0  0  0  0  0  0  0  0  0  0  0  0
   12.5286  -16.3221   22.9608 O   0  0  0  0  0  0  0  0  0  0  0  0
   10.7732  -14.9451   22.6154 O   0  0  0  0  0  0  0  0  0  0  0  0
  1  2  1  0
  2  4  1  0
  2  3  2  0
  5  4  1  0
  5  6  1  1
  7  5  1  0
  7  8  2  0
 10  9  1  6
 10 12  1  0
 11 10  1  0
 12 13  1  6
 12 14  1  0
 13  7  1  0
 14 16  1  0
 15 14  2  0
 16 17  1  0
 17 20  1  0
 17 18  1  1
 18 19  1  0
 20 21  2  0
 20 22  1  0
M  END
$$$$
