NTC.pdb
     RDKit          3D

 22 21  0  0  1  0  0  0  0  0999 V2000
    8.0431  -12.2142   17.9072 N   0  0  0  0  0  0  0  0  0  0  0  0
    8.3037  -13.4595   18.5318 C   0  0  0  0  0  0  0  0  0  0  0  0
    9.3063  -14.1140   18.2041 O   0  0  0  0  0  0  0  0  0  0  0  0
    7.3792  -13.9680   19.5675 C   0  0  0  0  0  0  0  0  0  0  0  0
    7.9487  -15.2736   20.0751 C   0  0  2  0  0  0  0  0  0  0  0  0
    7.6245  -16.3395   19.1788 N   0  0  0  0  0  0  0  0  0  0  0  0
    7.4679  -15.5359   21.4606 C   0  0  0  0  0  0  0  0  0  0  0  0
    6.2097  -15.6576   21.5907 O   0  0  0  0  0  0  0  0  0  0  0  0
    9.3476  -17.9201   23.9900 C   0  0  0  0  0  0  0  0  0  0  0  0
    7.9329  -17.4399   24.2011 C   0  0  1  0  0  0  0  0  0  0  0  0
    7.5280  -17.6741   25.5028 O   0  0  0  0  0  0  0  0  0  0  0  0
    7.8469  -15.9480   23.8946 C   0  0  2  0  0  0  0  0  0  0  0  0
    8.3271  -15.6474   22.5768 N   0  0  0  0  0  0  0  0  0  0  0  0
    8.5518  -15.1729   24.9480 C   0  0  0  0  0  0  0  0  0  0  0  0
    9.7836  -15.0449   24.8913 O   0  0  0  0  0  0  0  0  0  0  0  0
    7.8476  -14.5791   26.0124 N   0  0  0  0  0  0  0  0  0  0  0  0
    8.4188  -13.8178   27.0703 C   0  0  1  0  0  0  0  0  0  0  0  0
    7.4441  -12.9010   27.7626 C   0  0  0  0  0  0  0  0  0  0  0  0
    6.7144  -11.8010   26.5040 S   0  0  0  0  0  0  0  0  0  0  0  0
    8.9650  -14.7423   28.0870 C   0  0  0  0  0  0  0  0  0  0  0  0
    8.7647  -15.9815   28.0789 O   0  0  0  0  0  0  0  0  0  0  0  0
    9.7414  -14.2260   29.1090 O   0  0  0  0  0  0  0  0  0  0  0  0
  1  2  1  0
  2  4  1  0
  2  3  2  0
  5  4  1  0
  5  6  1  6
  7  5  1  0
  7  8  2  0
 10  9  1  1
 10 12  1  0
 11 10  1  0
 12 13  1  6
 12 14  1  0
 13  7  1  0
 14 16  1  0
 15 14  2  0
 16 17  1  0
 17 20  1  0
 17 18  1  1
 18 19  1  0
 20 21  2  0
 20 22  1  0
M  END
$$$$
