NTC.pdb
     RDKit          3D

 22 21  0  0  1  0  0  0  0  0999 V2000
   14.3202  -16.2165   14.8700 N   0  0  0  0  0  0  0  0  0  0  0  0
   14.2575  -14.8056   14.9887 C   0  0  0  0  0  0  0  0  0  0  0  0
   14.8715  -14.0924   14.1791 O   0  0  0  0  0  0  0  0  0  0  0  0
   13.4619  -14.1959   16.0754 C   0  0  0  0  0  0  0  0  0  0  0  0
   12.9806  -15.3206   16.9644 C   0  0  2  0  0  0  0  0  0  0  0  0
   12.0862  -16.1742   16.2460 N   0  0  0  0  0  0  0  0  0  0  0  0
   12.3602  -14.7652   18.1996 C   0  0  0  0  0  0  0  0  0  0  0  0
   13.1124  -14.0226   18.9051 O   0  0  0  0  0  0  0  0  0  0  0  0
    8.8003  -13.0235   18.7433 C   0  0  0  0  0  0  0  0  0  0  0  0
    8.9794  -14.2094   19.6588 C   0  0  1  0  0  0  0  0  0  0  0  0
    8.3168  -15.3156   19.1585 O   0  0  0  0  0  0  0  0  0  0  0  0
   10.4651  -14.5218   19.8082 C   0  0  2  0  0  0  0  0  0  0  0  0
   11.0274  -15.0271   18.5891 N   0  0  0  0  0  0  0  0  0  0  0  0
   10.6766  -15.4406   20.9564 C   0  0  0  0  0  0  0  0  0  0  0  0
   11.4868  -16.3731   20.8516 O   0  0  0  0  0  0  0  0  0  0  0  0
    9.9738  -15.2736   22.1646 N   0  0  0  0  0  0  0  0  0  0  0  0
   10.0299  -16.1419   23.2905 C   0  0  1  0  0  0  0  0  0  0  0  0
   10.1901  -15.4291   24.6081 C   0  0  0  0  0  0  0  0  0  0  0  0
   10.1489  -16.6805   25.9342 S   0  0  0  0  0  0  0  0  0  0  0  0
    8.7786  -16.9272   23.3545 C   0  0  0  0  0  0  0  0  0  0  0  0
    7.6872  -16.5364   22.8730 O   0  0  0  0  0  0  0  0  0  0  0  0
    8.7980  -18.1628   23.9764 O   0  0  0  0  0  0  0  0  0  0  0  0
  1  2  1  0
  2  4  1  0
  2  3  2  0
  5  4  1  0
  5  6  1  6
  7  5  1  0
  7  8  2  0
 10  9  1  6
 10 12  1  0
 11 10  1  0
 12 13  1  6
 12 14  1  0
 13  7  1  0
 14 16  1  0
 15 14  2  0
 16 17  1  0
 17 20  1  0
 17 18  1  1
 18 19  1  0
 20 21  2  0
 20 22  1  0
M  END
$$$$
