NTC.pdb
     RDKit          3D

 22 21  0  0  1  0  0  0  0  0999 V2000
   11.6387  -19.7749   17.7078 N   0  0  0  0  0  0  0  0  0  0  0  0
   12.5543  -18.6930   17.6967 C   0  0  0  0  0  0  0  0  0  0  0  0
   13.5144  -18.7080   16.9100 O   0  0  0  0  0  0  0  0  0  0  0  0
   12.3579  -17.5568   18.6220 C   0  0  0  0  0  0  0  0  0  0  0  0
   11.2620  -16.6908   18.0426 C   0  0  2  0  0  0  0  0  0  0  0  0
   11.7218  -16.0318   16.8598 N   0  0  0  0  0  0  0  0  0  0  0  0
   10.7742  -15.7290   19.0705 C   0  0  0  0  0  0  0  0  0  0  0  0
   11.5339  -14.7358   19.2967 O   0  0  0  0  0  0  0  0  0  0  0  0
    7.5071  -13.7792   19.2341 C   0  0  0  0  0  0  0  0  0  0  0  0
    7.6377  -14.5539   20.5222 C   0  0  1  0  0  0  0  0  0  0  0  0
    6.8548  -15.6935   20.4870 O   0  0  0  0  0  0  0  0  0  0  0  0
    9.0975  -14.9374   20.7438 C   0  0  2  0  0  0  0  0  0  0  0  0
    9.5534  -15.8822   19.7655 N   0  0  0  0  0  0  0  0  0  0  0  0
    9.2884  -15.4219   22.1353 C   0  0  0  0  0  0  0  0  0  0  0  0
    9.6447  -16.5931   22.3310 O   0  0  0  0  0  0  0  0  0  0  0  0
    9.0723  -14.5759   23.2394 N   0  0  0  0  0  0  0  0  0  0  0  0
    9.1523  -14.9531   24.6091 C   0  0  1  0  0  0  0  0  0  0  0  0
    8.6313  -13.9110   25.5642 C   0  0  0  0  0  0  0  0  0  0  0  0
    8.9550  -14.4915   27.2626 S   0  0  0  0  0  0  0  0  0  0  0  0
    8.3619  -16.1857   24.8150 C   0  0  0  0  0  0  0  0  0  0  0  0
    7.1947  -16.3438   24.3808 O   0  0  0  0  0  0  0  0  0  0  0  0
    8.9282  -17.2303   25.5235 O   0  0  0  0  0  0  0  0  0  0  0  0
  1  2  1  0
  2  4  1  0
  2  3  2  0
  5  4  1  0
  5  6  1  6
  7  5  1  0
  7  8  2  0
 10  9  1  6
 10 12  1  0
 11 10  1  0
 12 13  1  6
 12 14  1  0
 13  7  1  0
 14 16  1  0
 15 14  2  0
 16 17  1  0
 17 20  1  0
 17 18  1  1
 18 19  1  0
 20 21  2  0
 20 22  1  0
M  END
$$$$
