NTC.pdb
     RDKit          3D

 22 21  0  0  1  0  0  0  0  0999 V2000
   14.6943  -17.9502   19.2727 N   0  0  0  0  0  0  0  0  0  0  0  0
   13.2978  -17.8463   19.0542 C   0  0  0  0  0  0  0  0  0  0  0  0
   12.7066  -18.7354   18.4210 O   0  0  0  0  0  0  0  0  0  0  0  0
   12.5579  -16.6802   19.5819 C   0  0  0  0  0  0  0  0  0  0  0  0
   11.2901  -17.2040   20.2185 C   0  0  2  0  0  0  0  0  0  0  0  0
   10.3576  -17.6061   19.2117 N   0  0  0  0  0  0  0  0  0  0  0  0
   10.7203  -16.1803   21.1386 C   0  0  0  0  0  0  0  0  0  0  0  0
   11.4387  -15.1486   21.3238 O   0  0  0  0  0  0  0  0  0  0  0  0
    7.0625  -14.7061   21.0868 C   0  0  0  0  0  0  0  0  0  0  0  0
    7.4021  -15.1957   22.4730 C   0  0  1  0  0  0  0  0  0  0  0  0
    6.8244  -16.4301   22.7090 O   0  0  0  0  0  0  0  0  0  0  0  0
    8.9167  -15.2976   22.6238 C   0  0  2  0  0  0  0  0  0  0  0  0
    9.4679  -16.3170   21.7785 N   0  0  0  0  0  0  0  0  0  0  0  0
    9.2717  -15.4903   24.0536 C   0  0  0  0  0  0  0  0  0  0  0  0
    9.9986  -16.4399   24.3801 O   0  0  0  0  0  0  0  0  0  0  0  0
    8.7980  -14.6139   25.0482 N   0  0  0  0  0  0  0  0  0  0  0  0
    9.0636  -14.7114   26.4428 C   0  0  1  0  0  0  0  0  0  0  0  0
    8.3274  -13.6981   27.2801 C   0  0  0  0  0  0  0  0  0  0  0  0
    8.7668  -12.0367   26.6694 S   0  0  0  0  0  0  0  0  0  0  0  0
    8.6680  -16.0558   26.9145 C   0  0  0  0  0  0  0  0  0  0  0  0
    7.9712  -16.8523   26.2393 O   0  0  0  0  0  0  0  0  0  0  0  0
    9.0822  -16.4714   28.1673 O   0  0  0  0  0  0  0  0  0  0  0  0
  1  2  1  0
  2  4  1  0
  2  3  2  0
  5  4  1  0
  5  6  1  6
  7  5  1  0
  7  8  2  0
 10  9  1  6
 10 12  1  0
 11 10  1  0
 12 13  1  6
 12 14  1  0
 13  7  1  0
 14 16  1  0
 15 14  2  0
 16 17  1  0
 17 20  1  0
 17 18  1  1
 18 19  1  0
 20 21  2  0
 20 22  1  0
M  END
$$$$
