NTC.pdb
     RDKit          3D

 22 21  0  0  1  0  0  0  0  0999 V2000
   12.7700  -19.0956   19.1235 N   0  0  0  0  0  0  0  0  0  0  0  0
   11.9566  -18.2643   18.3135 C   0  0  0  0  0  0  0  0  0  0  0  0
   11.9082  -18.4573   17.0881 O   0  0  0  0  0  0  0  0  0  0  0  0
   11.1735  -17.1751   18.9348 C   0  0  0  0  0  0  0  0  0  0  0  0
   10.9990  -17.5250   20.3956 C   0  0  2  0  0  0  0  0  0  0  0  0
   10.1217  -18.6454   20.5371 N   0  0  0  0  0  0  0  0  0  0  0  0
   10.5198  -16.3344   21.1520 C   0  0  0  0  0  0  0  0  0  0  0  0
   11.3269  -15.3541   21.2006 O   0  0  0  0  0  0  0  0  0  0  0  0
    6.8814  -14.6652   21.1442 C   0  0  0  0  0  0  0  0  0  0  0  0
    7.3351  -14.9567   22.5533 C   0  0  1  0  0  0  0  0  0  0  0  0
    6.7161  -16.0942   23.0391 O   0  0  0  0  0  0  0  0  0  0  0  0
    8.8489  -15.1435   22.5760 C   0  0  2  0  0  0  0  0  0  0  0  0
    9.2580  -16.2676   21.7844 N   0  0  0  0  0  0  0  0  0  0  0  0
    9.3275  -15.2314   23.9798 C   0  0  0  0  0  0  0  0  0  0  0  0
    9.8603  -16.2771   24.3794 O   0  0  0  0  0  0  0  0  0  0  0  0
    9.1881  -14.1485   24.8682 N   0  0  0  0  0  0  0  0  0  0  0  0
    9.4261  -14.1826   26.2707 C   0  0  1  0  0  0  0  0  0  0  0  0
    9.2461  -12.8532   26.9564 C   0  0  0  0  0  0  0  0  0  0  0  0
    7.6573  -12.1463   26.4065 S   0  0  0  0  0  0  0  0  0  0  0  0
    8.4872  -15.1398   26.8942 C   0  0  0  0  0  0  0  0  0  0  0  0
    7.4828  -15.6111   26.3070 O   0  0  0  0  0  0  0  0  0  0  0  0
    8.7170  -15.5469   28.1963 O   0  0  0  0  0  0  0  0  0  0  0  0
  1  2  1  0
  2  4  1  0
  2  3  2  0
  5  4  1  0
  5  6  1  6
  7  5  1  0
  7  8  2  0
 10  9  1  6
 10 12  1  0
 11 10  1  0
 12 13  1  6
 12 14  1  0
 13  7  1  0
 14 16  1  0
 15 14  2  0
 16 17  1  0
 17 20  1  0
 17 18  1  1
 18 19  1  0
 20 21  2  0
 20 22  1  0
M  END
$$$$
