NTC.pdb
     RDKit          3D

 22 21  0  0  1  0  0  0  0  0999 V2000
    6.7935  -13.3318   17.1835 N   0  0  0  0  0  0  0  0  0  0  0  0
    7.8927  -13.3790   18.0770 C   0  0  0  0  0  0  0  0  0  0  0  0
    9.0497  -13.3045   17.6331 O   0  0  0  0  0  0  0  0  0  0  0  0
    7.6518  -13.5167   19.5291 C   0  0  0  0  0  0  0  0  0  0  0  0
    8.7814  -14.3482   20.0943 C   0  0  2  0  0  0  0  0  0  0  0  0
    9.0641  -15.4540   19.2330 N   0  0  0  0  0  0  0  0  0  0  0  0
    8.4511  -14.7830   21.4804 C   0  0  0  0  0  0  0  0  0  0  0  0
    7.7734  -13.9565   22.1677 O   0  0  0  0  0  0  0  0  0  0  0  0
    7.6698  -18.5634   22.7039 C   0  0  0  0  0  0  0  0  0  0  0  0
    8.6719  -17.8877   23.6071 C   0  0  1  0  0  0  0  0  0  0  0  0
    9.9498  -18.3499   23.3492 O   0  0  0  0  0  0  0  0  0  0  0  0
    8.6167  -16.3781   23.3952 C   0  0  2  0  0  0  0  0  0  0  0  0
    8.8497  -16.0246   22.0246 N   0  0  0  0  0  0  0  0  0  0  0  0
    9.5570  -15.7012   24.3254 C   0  0  0  0  0  0  0  0  0  0  0  0
   10.2819  -14.7880   23.9041 O   0  0  0  0  0  0  0  0  0  0  0  0
    9.6419  -16.0767   25.6794 N   0  0  0  0  0  0  0  0  0  0  0  0
   10.0215  -15.2306   26.7587 C   0  0  1  0  0  0  0  0  0  0  0  0
    9.0650  -14.0949   27.0139 C   0  0  0  0  0  0  0  0  0  0  0  0
    9.6859  -13.1459   28.4423 S   0  0  0  0  0  0  0  0  0  0  0  0
   10.1015  -16.0365   27.9958 C   0  0  0  0  0  0  0  0  0  0  0  0
    9.4779  -17.1125   28.1661 O   0  0  0  0  0  0  0  0  0  0  0  0
   10.9047  -15.5915   29.0305 O   0  0  0  0  0  0  0  0  0  0  0  0
  1  2  1  0
  2  4  1  0
  2  3  2  0
  5  4  1  0
  5  6  1  6
  7  5  1  0
  7  8  2  0
 10  9  1  6
 10 12  1  0
 11 10  1  0
 12 13  1  6
 12 14  1  0
 13  7  1  0
 14 16  1  0
 15 14  2  0
 16 17  1  0
 17 20  1  0
 17 18  1  1
 18 19  1  0
 20 21  2  0
 20 22  1  0
M  END
$$$$
