NTC.pdb
     RDKit          3D

 22 21  0  0  1  0  0  0  0  0999 V2000
   14.2127  -15.2979   16.0161 N   0  0  0  0  0  0  0  0  0  0  0  0
   14.5708  -14.8192   17.3012 C   0  0  0  0  0  0  0  0  0  0  0  0
   15.7456  -14.9193   17.6894 O   0  0  0  0  0  0  0  0  0  0  0  0
   13.5422  -14.2053   18.1677 C   0  0  0  0  0  0  0  0  0  0  0  0
   12.8011  -15.3321   18.8517 C   0  0  2  0  0  0  0  0  0  0  0  0
   12.1137  -16.1330   17.8870 N   0  0  0  0  0  0  0  0  0  0  0  0
   11.8815  -14.7836   19.8875 C   0  0  0  0  0  0  0  0  0  0  0  0
   12.4438  -14.2049   20.8692 O   0  0  0  0  0  0  0  0  0  0  0  0
    8.2659  -13.0206   19.3320 C   0  0  0  0  0  0  0  0  0  0  0  0
    8.2056  -14.1290   20.3540 C   0  0  1  0  0  0  0  0  0  0  0  0
    7.6528  -15.2707   19.8026 O   0  0  0  0  0  0  0  0  0  0  0  0
    9.6106  -14.4314   20.8656 C   0  0  2  0  0  0  0  0  0  0  0  0
   10.4740  -14.8834   19.8131 N   0  0  0  0  0  0  0  0  0  0  0  0
    9.5419  -15.3915   21.9974 C   0  0  0  0  0  0  0  0  0  0  0  0
   10.5801  -15.9360   22.4006 O   0  0  0  0  0  0  0  0  0  0  0  0
    8.3184  -15.6965   22.6231 N   0  0  0  0  0  0  0  0  0  0  0  0
    8.1358  -15.9849   24.0046 C   0  0  1  0  0  0  0  0  0  0  0  0
    8.3935  -14.8130   24.9156 C   0  0  0  0  0  0  0  0  0  0  0  0
    8.0834  -15.3533   26.6297 S   0  0  0  0  0  0  0  0  0  0  0  0
    6.7412  -16.4251   24.2232 C   0  0  0  0  0  0  0  0  0  0  0  0
    5.7402  -15.8061   23.7866 O   0  0  0  0  0  0  0  0  0  0  0  0
    6.5129  -17.5816   24.9473 O   0  0  0  0  0  0  0  0  0  0  0  0
  1  2  1  0
  2  4  1  0
  2  3  2  0
  5  4  1  0
  5  6  1  6
  7  5  1  0
  7  8  2  0
 10  9  1  6
 10 12  1  0
 11 10  1  0
 12 13  1  6
 12 14  1  0
 13  7  1  0
 14 16  1  0
 15 14  2  0
 16 17  1  0
 17 20  1  0
 17 18  1  1
 18 19  1  0
 20 21  2  0
 20 22  1  0
M  END
$$$$
