SPQ.pdb
     RDKit          3D

 23 23  0  0  1  0  0  0  0  0999 V2000
   16.7946  -15.6156  -14.7261 O   0  0  0  0  0  0  0  0  0  0  0  0
   17.5329  -14.4638  -14.9936 C   0  0  0  0  0  0  0  0  0  0  0  0
   17.8001  -14.3278  -16.5059 C   0  0  2  0  0  0  0  0  0  0  0  0
   18.7387  -15.4072  -16.8218 N   0  0  0  0  0  0  0  0  0  0  0  0
   18.4188  -13.0106  -16.6999 C   0  0  0  0  0  0  0  0  0  0  0  0
   19.6918  -12.9458  -16.5667 O   0  0  0  0  0  0  0  0  0  0  0  0
   17.6593  -11.8630  -17.0195 N   0  0  0  0  0  0  0  0  0  0  0  0
   16.1967  -11.8357  -17.1914 C   0  0  0  0  0  0  0  0  0  0  0  0
   15.8825  -10.4158  -16.7868 C   0  0  0  0  0  0  0  0  0  0  0  0
   16.9473   -9.6928  -17.6279 C   0  0  0  0  0  0  0  0  0  0  0  0
   18.1649  -10.5292  -17.2018 C   0  0  1  0  0  0  0  0  0  0  0  0
   18.5991   -9.9417  -15.8957 C   0  0  0  0  0  0  0  0  0  0  0  0
   18.1414  -10.3289  -14.7993 O   0  0  0  0  0  0  0  0  0  0  0  0
   21.8477   -4.9650  -15.1516 N   0  0  0  0  0  0  0  0  0  0  0  0
   22.1838   -5.5614  -13.9083 C   0  0  0  0  0  0  0  0  0  0  0  0
   22.6375   -4.8193  -12.9939 O   0  0  0  0  0  0  0  0  0  0  0  0
   21.9989   -7.0332  -13.7038 C   0  0  0  0  0  0  0  0  0  0  0  0
   21.4248   -7.6251  -14.9917 C   0  0  0  0  0  0  0  0  0  0  0  0
   20.1296   -8.3400  -14.7077 C   0  0  2  0  0  0  0  0  0  0  0  0
   19.5765   -8.8981  -15.9281 N   0  0  0  0  0  0  0  0  0  0  0  0
   19.1237   -7.4212  -14.1046 C   0  0  0  0  0  0  0  0  0  0  0  0
   18.3763   -6.7061  -14.8121 O   0  0  0  0  0  0  0  0  0  0  0  0
   18.9861   -7.3319  -12.7194 O   0  0  0  0  0  0  0  0  0  0  0  0
  2  1  1  0
  3  2  1  0
  3  4  1  1
  5  3  1  0
  6  5  2  0
  7  5  1  0
  7  8  1  0
  9  8  1  0
 10 11  1  0
 10  9  1  0
 11 12  1  1
 11  7  1  0
 12 20  1  0
 13 12  2  0
 15 17  1  0
 15 14  1  0
 16 15  2  0
 18 17  1  0
 19 21  1  0
 19 18  1  6
 20 19  1  0
 21 22  2  0
 21 23  1  0
M  END
$$$$
