SPQ.pdb
     RDKit          3D

 23 23  0  0  1  0  0  0  0  0999 V2000
   26.5780  -22.2996  -13.4308 O   0  0  0  0  0  0  0  0  0  0  0  0
   25.8501  -22.1111  -12.2569 C   0  0  0  0  0  0  0  0  0  0  0  0
   26.1201  -20.7120  -11.6680 C   0  0  2  0  0  0  0  0  0  0  0  0
   25.3444  -20.6693  -10.4260 N   0  0  0  0  0  0  0  0  0  0  0  0
   25.6099  -19.7453  -12.6479 C   0  0  0  0  0  0  0  0  0  0  0  0
   24.3519  -19.5020  -12.6174 O   0  0  0  0  0  0  0  0  0  0  0  0
   26.4540  -19.1062  -13.5833 N   0  0  0  0  0  0  0  0  0  0  0  0
   27.9194  -19.2456  -13.6359 C   0  0  0  0  0  0  0  0  0  0  0  0
   28.1807  -19.0210  -15.1055 C   0  0  0  0  0  0  0  0  0  0  0  0
   27.3445  -17.7451  -15.2984 C   0  0  0  0  0  0  0  0  0  0  0  0
   26.0394  -18.2420  -14.6552 C   0  0  1  0  0  0  0  0  0  0  0  0
   25.3509  -19.0217  -15.7313 C   0  0  0  0  0  0  0  0  0  0  0  0
   25.9190  -19.9348  -16.3678 O   0  0  0  0  0  0  0  0  0  0  0  0
   21.3075  -22.8576  -14.7911 N   0  0  0  0  0  0  0  0  0  0  0  0
   20.8989  -21.6423  -14.1825 C   0  0  0  0  0  0  0  0  0  0  0  0
   19.8555  -21.6518  -13.4726 O   0  0  0  0  0  0  0  0  0  0  0  0
   21.6960  -20.3913  -14.3875 C   0  0  0  0  0  0  0  0  0  0  0  0
   22.8916  -20.7285  -15.2795 C   0  0  0  0  0  0  0  0  0  0  0  0
   23.0240  -19.7128  -16.3841 C   0  0  2  0  0  0  0  0  0  0  0  0
   23.9908  -18.6916  -16.0252 N   0  0  0  0  0  0  0  0  0  0  0  0
   21.7196  -19.0540  -16.6744 C   0  0  0  0  0  0  0  0  0  0  0  0
   21.4473  -17.9107  -16.2394 O   0  0  0  0  0  0  0  0  0  0  0  0
   20.7555  -19.7007  -17.4476 O   0  0  0  0  0  0  0  0  0  0  0  0
  2  1  1  0
  3  2  1  0
  3  4  1  1
  5  3  1  0
  6  5  2  0
  7  5  1  0
  7  8  1  0
  9  8  1  0
 10 11  1  0
 10  9  1  0
 11 12  1  6
 11  7  1  0
 12 20  1  0
 13 12  2  0
 15 17  1  0
 15 14  1  0
 16 15  2  0
 18 17  1  0
 19 21  1  0
 19 18  1  1
 20 19  1  0
 21 22  2  0
 21 23  1  0
M  END
$$$$
