SPQ.pdb
     RDKit          3D

 23 23  0  0  1  0  0  0  0  0999 V2000
   20.0116  -13.1196  -16.1842 O   0  0  0  0  0  0  0  0  0  0  0  0
   19.9591  -11.7267  -16.1633 C   0  0  0  0  0  0  0  0  0  0  0  0
   18.5092  -11.2397  -15.9694 C   0  0  2  0  0  0  0  0  0  0  0  0
   17.8966  -11.3408  -17.2962 N   0  0  0  0  0  0  0  0  0  0  0  0
   18.5977   -9.8421  -15.5289 C   0  0  0  0  0  0  0  0  0  0  0  0
   18.9867   -8.9861  -16.3999 O   0  0  0  0  0  0  0  0  0  0  0  0
   18.2714   -9.4466  -14.2125 N   0  0  0  0  0  0  0  0  0  0  0  0
   17.7397  -10.3378  -13.1672 C   0  0  0  0  0  0  0  0  0  0  0  0
   18.2593   -9.6657  -11.9195 C   0  0  0  0  0  0  0  0  0  0  0  0
   17.8345   -8.2227  -12.2380 C   0  0  0  0  0  0  0  0  0  0  0  0
   18.4256   -8.1303  -13.6543 C   0  0  1  0  0  0  0  0  0  0  0  0
   19.8720   -7.8057  -13.4487 C   0  0  0  0  0  0  0  0  0  0  0  0
   20.7525   -8.6879  -13.3583 O   0  0  0  0  0  0  0  0  0  0  0  0
   21.9381   -6.8807  -17.9767 N   0  0  0  0  0  0  0  0  0  0  0  0
   23.0545   -6.2793  -17.3392 C   0  0  0  0  0  0  0  0  0  0  0  0
   24.1142   -6.1293  -18.0079 O   0  0  0  0  0  0  0  0  0  0  0  0
   22.9604   -5.8402  -15.9106 C   0  0  0  0  0  0  0  0  0  0  0  0
   21.6124   -6.3041  -15.3570 C   0  0  0  0  0  0  0  0  0  0  0  0
   21.4889   -5.9351  -13.9017 C   0  0  2  0  0  0  0  0  0  0  0  0
   20.2372   -6.4262  -13.3551 N   0  0  0  0  0  0  0  0  0  0  0  0
   21.5469   -4.4588  -13.7096 C   0  0  0  0  0  0  0  0  0  0  0  0
   20.5370   -3.7335  -13.8666 O   0  0  0  0  0  0  0  0  0  0  0  0
   22.7416   -3.8378  -13.3454 O   0  0  0  0  0  0  0  0  0  0  0  0
  2  1  1  0
  3  2  1  0
  3  4  1  6
  5  3  1  0
  6  5  2  0
  7  5  1  0
  7  8  1  0
  9  8  1  0
 10 11  1  0
 10  9  1  0
 11 12  1  1
 11  7  1  0
 12 20  1  0
 13 12  2  0
 15 17  1  0
 15 14  1  0
 16 15  2  0
 18 17  1  0
 19 21  1  0
 19 18  1  6
 20 19  1  0
 21 22  2  0
 21 23  1  0
M  END
$$$$
