SPQ.pdb
     RDKit          3D

 23 23  0  0  1  0  0  0  0  0999 V2000
   14.5039  -16.8420    3.3018 O   0  0  0  0  0  0  0  0  0  0  0  0
   15.6015  -16.4245    4.0530 C   0  0  0  0  0  0  0  0  0  0  0  0
   16.8464  -16.2682    3.1570 C   0  0  2  0  0  0  0  0  0  0  0  0
   17.0939  -17.6077    2.6179 N   0  0  0  0  0  0  0  0  0  0  0  0
   17.9392  -15.8388    4.0383 C   0  0  0  0  0  0  0  0  0  0  0  0
   18.6174  -16.7642    4.6095 O   0  0  0  0  0  0  0  0  0  0  0  0
   18.2398  -14.4753    4.2536 N   0  0  0  0  0  0  0  0  0  0  0  0
   17.5669  -13.3445    3.5918 C   0  0  0  0  0  0  0  0  0  0  0  0
   17.7117  -12.2665    4.6383 C   0  0  0  0  0  0  0  0  0  0  0  0
   19.2110  -12.4315    4.9368 C   0  0  0  0  0  0  0  0  0  0  0  0
   19.2204  -13.9518    5.1659 C   0  0  1  0  0  0  0  0  0  0  0  0
   18.7772  -14.1315    6.5840 C   0  0  0  0  0  0  0  0  0  0  0  0
   17.5778  -14.0608    6.9273 O   0  0  0  0  0  0  0  0  0  0  0  0
   20.5065  -18.7418    9.7582 N   0  0  0  0  0  0  0  0  0  0  0  0
   21.4085  -17.7401   10.2025 C   0  0  0  0  0  0  0  0  0  0  0  0
   22.4418  -18.1032   10.8296 O   0  0  0  0  0  0  0  0  0  0  0  0
   21.1265  -16.2956    9.9262 C   0  0  0  0  0  0  0  0  0  0  0  0
   19.7888  -16.2032    9.1908 C   0  0  0  0  0  0  0  0  0  0  0  0
   19.4347  -14.7630    8.9265 C   0  0  2  0  0  0  0  0  0  0  0  0
   19.7826  -14.3932    7.5668 N   0  0  0  0  0  0  0  0  0  0  0  0
   20.1434  -13.8490    9.8657 C   0  0  0  0  0  0  0  0  0  0  0  0
   21.0659  -13.0934    9.4801 O   0  0  0  0  0  0  0  0  0  0  0  0
   19.7943  -13.8101   11.2156 O   0  0  0  0  0  0  0  0  0  0  0  0
  2  1  1  0
  3  2  1  0
  3  4  1  1
  5  3  1  0
  6  5  2  0
  7  5  1  0
  7  8  1  0
  9  8  1  0
 10 11  1  0
 10  9  1  0
 11 12  1  1
 11  7  1  0
 12 20  1  0
 13 12  2  0
 15 17  1  0
 15 14  1  0
 16 15  2  0
 18 17  1  0
 19 21  1  0
 19 18  1  1
 20 19  1  0
 21 22  2  0
 21 23  1  0
M  END
$$$$
