SPQ.pdb
     RDKit          3D

 23 23  0  0  1  0  0  0  0  0999 V2000
   19.9519  -14.5368  -14.7269 O   0  0  0  0  0  0  0  0  0  0  0  0
   20.4177  -13.5652  -15.6114 C   0  0  0  0  0  0  0  0  0  0  0  0
   19.2957  -13.1197  -16.5705 C   0  0  2  0  0  0  0  0  0  0  0  0
   19.4986  -13.9151  -17.7839 N   0  0  0  0  0  0  0  0  0  0  0  0
   19.5144  -11.6910  -16.8276 C   0  0  0  0  0  0  0  0  0  0  0  0
   20.5010  -11.3857  -17.5865 O   0  0  0  0  0  0  0  0  0  0  0  0
   18.6841  -10.6916  -16.2729 N   0  0  0  0  0  0  0  0  0  0  0  0
   17.5045  -10.9430  -15.4275 C   0  0  0  0  0  0  0  0  0  0  0  0
   17.4801   -9.6926  -14.5823 C   0  0  0  0  0  0  0  0  0  0  0  0
   17.6361   -8.6511  -15.7026 C   0  0  0  0  0  0  0  0  0  0  0  0
   18.8553   -9.2700  -16.4058 C   0  0  1  0  0  0  0  0  0  0  0  0
   20.0364   -8.8002  -15.6158 C   0  0  0  0  0  0  0  0  0  0  0  0
   20.4109   -9.3658  -14.5663 O   0  0  0  0  0  0  0  0  0  0  0  0
   24.2614   -4.8383  -18.1195 N   0  0  0  0  0  0  0  0  0  0  0  0
   24.7831   -5.0094  -16.8107 C   0  0  0  0  0  0  0  0  0  0  0  0
   25.8494   -4.4049  -16.5097 O   0  0  0  0  0  0  0  0  0  0  0  0
   24.0750   -5.8871  -15.8256 C   0  0  0  0  0  0  0  0  0  0  0  0
   22.8067   -6.4237  -16.4907 C   0  0  0  0  0  0  0  0  0  0  0  0
   22.0109   -7.2481  -15.5128 C   0  0  2  0  0  0  0  0  0  0  0  0
   20.7485   -7.6583  -16.0997 N   0  0  0  0  0  0  0  0  0  0  0  0
   21.7311   -6.4867  -14.2630 C   0  0  0  0  0  0  0  0  0  0  0  0
   20.7121   -5.7670  -14.1438 O   0  0  0  0  0  0  0  0  0  0  0  0
   22.6070   -6.5560  -13.1797 O   0  0  0  0  0  0  0  0  0  0  0  0
  2  1  1  0
  3  2  1  0
  3  4  1  6
  5  3  1  0
  6  5  2  0
  7  5  1  0
  7  8  1  0
  9  8  1  0
 10 11  1  0
 10  9  1  0
 11 12  1  1
 11  7  1  0
 12 20  1  0
 13 12  2  0
 15 17  1  0
 15 14  1  0
 16 15  2  0
 18 17  1  0
 19 21  1  0
 19 18  1  6
 20 19  1  0
 21 22  2  0
 21 23  1  0
M  END
$$$$
