SPQ.pdb
     RDKit          3D

 23 23  0  0  1  0  0  0  0  0999 V2000
   15.1004  -25.5712    3.1409 O   0  0  0  0  0  0  0  0  0  0  0  0
   15.1024  -26.2174    1.9057 C   0  0  0  0  0  0  0  0  0  0  0  0
   16.3949  -25.9000    1.1275 C   0  0  2  0  0  0  0  0  0  0  0  0
   16.1932  -26.4925   -0.1969 N   0  0  0  0  0  0  0  0  0  0  0  0
   17.4862  -26.5668    1.8485 C   0  0  0  0  0  0  0  0  0  0  0  0
   17.5862  -27.8357    1.6984 O   0  0  0  0  0  0  0  0  0  0  0  0
   18.3896  -25.8559    2.6696 N   0  0  0  0  0  0  0  0  0  0  0  0
   18.2679  -24.4327    3.0292 C   0  0  0  0  0  0  0  0  0  0  0  0
   18.9548  -24.4121    4.3731 C   0  0  0  0  0  0  0  0  0  0  0  0
   20.2283  -25.1867    3.9957 C   0  0  0  0  0  0  0  0  0  0  0  0
   19.5561  -26.3918    3.3176 C   0  0  1  0  0  0  0  0  0  0  0  0
   19.1698  -27.3014    4.4414 C   0  0  0  0  0  0  0  0  0  0  0  0
   18.1642  -27.0984    5.1550 O   0  0  0  0  0  0  0  0  0  0  0  0
   19.8743  -33.2640    5.0588 N   0  0  0  0  0  0  0  0  0  0  0  0
   20.3219  -32.4839    3.9610 C   0  0  0  0  0  0  0  0  0  0  0  0
   21.0515  -33.0382    3.0932 O   0  0  0  0  0  0  0  0  0  0  0  0
   19.9298  -31.0429    3.8506 C   0  0  0  0  0  0  0  0  0  0  0  0
   19.1212  -30.6722    5.0945 C   0  0  0  0  0  0  0  0  0  0  0  0
   19.6636  -29.4114    5.7154 C   0  0  2  0  0  0  0  0  0  0  0  0
   19.9981  -28.4405    4.6897 N   0  0  0  0  0  0  0  0  0  0  0  0
   20.8821  -29.6872    6.5271 C   0  0  0  0  0  0  0  0  0  0  0  0
   22.0008  -29.2140    6.2183 O   0  0  0  0  0  0  0  0  0  0  0  0
   20.8086  -30.4892    7.6659 O   0  0  0  0  0  0  0  0  0  0  0  0
  2  1  1  0
  3  2  1  0
  3  4  1  6
  5  3  1  0
  6  5  2  0
  7  5  1  0
  7  8  1  0
  9  8  1  0
 10 11  1  0
 10  9  1  0
 11 12  1  1
 11  7  1  0
 12 20  1  0
 13 12  2  0
 15 17  1  0
 15 14  1  0
 16 15  2  0
 18 17  1  0
 19 21  1  0
 19 18  1  6
 20 19  1  0
 21 22  2  0
 21 23  1  0
M  END
$$$$
