SPQ.pdb
     RDKit          3D

 23 23  0  0  1  0  0  0  0  0999 V2000
   26.0977  -23.0401  -13.9926 O   0  0  0  0  0  0  0  0  0  0  0  0
   25.6274  -22.5091  -12.7925 C   0  0  0  0  0  0  0  0  0  0  0  0
   26.5034  -21.3231  -12.3420 C   0  0  2  0  0  0  0  0  0  0  0  0
   26.3581  -21.2788  -10.8849 N   0  0  0  0  0  0  0  0  0  0  0  0
   25.9331  -20.1252  -12.9705 C   0  0  0  0  0  0  0  0  0  0  0  0
   24.8741  -19.6412  -12.4349 O   0  0  0  0  0  0  0  0  0  0  0  0
   26.5144  -19.5247  -14.1095 N   0  0  0  0  0  0  0  0  0  0  0  0
   27.7941  -19.9256  -14.7188 C   0  0  0  0  0  0  0  0  0  0  0  0
   27.5636  -19.5409  -16.1601 C   0  0  0  0  0  0  0  0  0  0  0  0
   27.0266  -18.1173  -15.9381 C   0  0  0  0  0  0  0  0  0  0  0  0
   25.9562  -18.4509  -14.8862 C   0  0  1  0  0  0  0  0  0  0  0  0
   24.7743  -18.9225  -15.6739 C   0  0  0  0  0  0  0  0  0  0  0  0
   24.8368  -19.8853  -16.4680 O   0  0  0  0  0  0  0  0  0  0  0  0
   19.7212  -21.1282  -14.7781 N   0  0  0  0  0  0  0  0  0  0  0  0
   20.8266  -21.0599  -13.8906 C   0  0  0  0  0  0  0  0  0  0  0  0
   20.9909  -22.0033  -13.0685 O   0  0  0  0  0  0  0  0  0  0  0  0
   21.7632  -19.8927  -13.9415 C   0  0  0  0  0  0  0  0  0  0  0  0
   21.2563  -18.9208  -15.0080 C   0  0  0  0  0  0  0  0  0  0  0  0
   22.3009  -18.7228  -16.0752 C   0  0  2  0  0  0  0  0  0  0  0  0
   23.5363  -18.2293  -15.4947 N   0  0  0  0  0  0  0  0  0  0  0  0
   21.8411  -17.7562  -17.1116 C   0  0  0  0  0  0  0  0  0  0  0  0
   22.3805  -16.6337  -17.2516 O   0  0  0  0  0  0  0  0  0  0  0  0
   20.7851  -18.0796  -17.9636 O   0  0  0  0  0  0  0  0  0  0  0  0
  2  1  1  0
  3  2  1  0
  3  4  1  1
  5  3  1  0
  6  5  2  0
  7  5  1  0
  7  8  1  0
  9  8  1  0
 10 11  1  0
 10  9  1  0
 11 12  1  6
 11  7  1  0
 12 20  1  0
 13 12  2  0
 15 17  1  0
 15 14  1  0
 16 15  2  0
 18 17  1  0
 19 21  1  0
 19 18  1  1
 20 19  1  0
 21 22  2  0
 21 23  1  0
M  END
$$$$
