SPQ.pdb
     RDKit          3D

 23 23  0  0  1  0  0  0  0  0999 V2000
   22.5424  -11.7115  -20.8598 O   0  0  0  0  0  0  0  0  0  0  0  0
   22.0597  -10.8782  -19.8519 C   0  0  0  0  0  0  0  0  0  0  0  0
   21.3204  -11.6982  -18.7756 C   0  0  2  0  0  0  0  0  0  0  0  0
   19.9628  -11.8700  -19.2984 N   0  0  0  0  0  0  0  0  0  0  0  0
   21.3221  -10.8787  -17.5575 C   0  0  0  0  0  0  0  0  0  0  0  0
   20.4478   -9.9440  -17.4897 O   0  0  0  0  0  0  0  0  0  0  0  0
   22.2365  -11.1001  -16.5037 N   0  0  0  0  0  0  0  0  0  0  0  0
   23.2334  -12.1835  -16.4604 C   0  0  0  0  0  0  0  0  0  0  0  0
   24.3126  -11.5527  -15.6144 C   0  0  0  0  0  0  0  0  0  0  0  0
   23.4331  -11.0303  -14.4664 C   0  0  0  0  0  0  0  0  0  0  0  0
   22.3780  -10.3025  -15.3155 C   0  0  1  0  0  0  0  0  0  0  0  0
   22.9891   -8.9745  -15.6358 C   0  0  0  0  0  0  0  0  0  0  0  0
   23.7236   -8.7951  -16.6308 O   0  0  0  0  0  0  0  0  0  0  0  0
   19.8663   -5.8442  -18.2374 N   0  0  0  0  0  0  0  0  0  0  0  0
   20.5802   -4.7048  -17.7829 C   0  0  0  0  0  0  0  0  0  0  0  0
   20.2871   -3.5810  -18.2767 O   0  0  0  0  0  0  0  0  0  0  0  0
   21.6496   -4.8500  -16.7449 C   0  0  0  0  0  0  0  0  0  0  0  0
   21.7251   -6.3230  -16.3408 C   0  0  0  0  0  0  0  0  0  0  0  0
   22.7186   -6.5096  -15.2239 C   0  0  2  0  0  0  0  0  0  0  0  0
   22.7077   -7.8833  -14.7554 N   0  0  0  0  0  0  0  0  0  0  0  0
   22.4174   -5.6109  -14.0743 C   0  0  0  0  0  0  0  0  0  0  0  0
   21.6288   -5.9502  -13.1614 O   0  0  0  0  0  0  0  0  0  0  0  0
   23.0130   -4.3529  -13.9832 O   0  0  0  0  0  0  0  0  0  0  0  0
  2  1  1  0
  3  2  1  0
  3  4  1  6
  5  3  1  0
  6  5  2  0
  7  5  1  0
  7  8  1  0
  9  8  1  0
 10 11  1  0
 10  9  1  0
 11 12  1  6
 11  7  1  0
 12 20  1  0
 13 12  2  0
 15 17  1  0
 15 14  1  0
 16 15  2  0
 18 17  1  0
 19 21  1  0
 19 18  1  6
 20 19  1  0
 21 22  2  0
 21 23  1  0
M  END
$$$$
