SPQ.pdb
     RDKit          3D

 23 23  0  0  1  0  0  0  0  0999 V2000
   21.3689  -15.4083  -19.1277 O   0  0  0  0  0  0  0  0  0  0  0  0
   21.1564  -14.4019  -18.1868 C   0  0  0  0  0  0  0  0  0  0  0  0
   21.4767  -14.9086  -16.7663 C   0  0  2  0  0  0  0  0  0  0  0  0
   20.3411  -15.7603  -16.4045 N   0  0  0  0  0  0  0  0  0  0  0  0
   21.5448  -13.7192  -15.9084 C   0  0  0  0  0  0  0  0  0  0  0  0
   20.4286  -13.2225  -15.5211 O   0  0  0  0  0  0  0  0  0  0  0  0
   22.7742  -13.1417  -15.5201 N   0  0  0  0  0  0  0  0  0  0  0  0
   24.1051  -13.6621  -15.8770 C   0  0  0  0  0  0  0  0  0  0  0  0
   24.9235  -12.3938  -15.8769 C   0  0  0  0  0  0  0  0  0  0  0  0
   24.4632  -11.8198  -14.5267 C   0  0  0  0  0  0  0  0  0  0  0  0
   22.9463  -11.9431  -14.7444 C   0  0  1  0  0  0  0  0  0  0  0  0
   22.5712  -10.7342  -15.5429 C   0  0  0  0  0  0  0  0  0  0  0  0
   22.5859  -10.7229  -16.7924 O   0  0  0  0  0  0  0  0  0  0  0  0
   17.6999   -9.3455  -17.0360 N   0  0  0  0  0  0  0  0  0  0  0  0
   17.8324   -9.4331  -15.6256 C   0  0  0  0  0  0  0  0  0  0  0  0
   16.8083   -9.7222  -14.9470 O   0  0  0  0  0  0  0  0  0  0  0  0
   19.1589   -9.1861  -14.9763 C   0  0  0  0  0  0  0  0  0  0  0  0
   20.1915   -8.9446  -16.0782 C   0  0  0  0  0  0  0  0  0  0  0  0
   21.4900   -8.4656  -15.4835 C   0  0  2  0  0  0  0  0  0  0  0  0
   22.1843   -9.5581  -14.8270 N   0  0  0  0  0  0  0  0  0  0  0  0
   21.2633   -7.3788  -14.4899 C   0  0  0  0  0  0  0  0  0  0  0  0
   20.9930   -6.2075  -14.8444 O   0  0  0  0  0  0  0  0  0  0  0  0
   21.3471   -7.6399  -13.1223 O   0  0  0  0  0  0  0  0  0  0  0  0
  2  1  1  0
  3  2  1  0
  3  4  1  1
  5  3  1  0
  6  5  2  0
  7  5  1  0
  7  8  1  0
  9  8  1  0
 10 11  1  0
 10  9  1  0
 11 12  1  6
 11  7  1  0
 12 20  1  0
 13 12  2  0
 15 17  1  0
 15 14  1  0
 16 15  2  0
 18 17  1  0
 19 21  1  0
 19 18  1  1
 20 19  1  0
 21 22  2  0
 21 23  1  0
M  END
$$$$
