SPQ.pdb
     RDKit          3D

 23 23  0  0  1  0  0  0  0  0999 V2000
   25.9321  -17.5495  -16.4084 O   0  0  0  0  0  0  0  0  0  0  0  0
   25.7696  -18.4449  -17.4645 C   0  0  0  0  0  0  0  0  0  0  0  0
   26.8465  -19.5470  -17.4140 C   0  0  2  0  0  0  0  0  0  0  0  0
   26.5858  -20.3834  -18.5881 N   0  0  0  0  0  0  0  0  0  0  0  0
   26.6189  -20.2911  -16.1691 C   0  0  0  0  0  0  0  0  0  0  0  0
   25.5200  -20.9447  -16.0802 O   0  0  0  0  0  0  0  0  0  0  0  0
   27.5579  -20.2959  -15.1136 N   0  0  0  0  0  0  0  0  0  0  0  0
   28.8160  -19.5301  -15.0952 C   0  0  0  0  0  0  0  0  0  0  0  0
   29.0030  -19.3127  -13.6133 C   0  0  0  0  0  0  0  0  0  0  0  0
   28.7664  -20.7547  -13.1347 C   0  0  0  0  0  0  0  0  0  0  0  0
   27.4428  -21.0137  -13.8729 C   0  0  1  0  0  0  0  0  0  0  0  0
   26.3892  -20.4050  -13.0018 C   0  0  0  0  0  0  0  0  0  0  0  0
   26.1578  -19.1771  -12.9851 O   0  0  0  0  0  0  0  0  0  0  0  0
   21.2449  -20.5167  -13.0968 N   0  0  0  0  0  0  0  0  0  0  0  0
   21.1009  -20.4050  -11.6893 C   0  0  0  0  0  0  0  0  0  0  0  0
   20.0948  -19.7900  -11.2394 O   0  0  0  0  0  0  0  0  0  0  0  0
   22.1244  -21.0066  -10.7767 C   0  0  0  0  0  0  0  0  0  0  0  0
   23.2715  -21.5427  -11.6343 C   0  0  0  0  0  0  0  0  0  0  0  0
   24.5420  -20.7885  -11.3406 C   0  0  2  0  0  0  0  0  0  0  0  0
   25.6303  -21.2816  -12.1645 N   0  0  0  0  0  0  0  0  0  0  0  0
   24.9311  -20.9185   -9.9083 C   0  0  0  0  0  0  0  0  0  0  0  0
   25.7682  -21.7698   -9.5272 O   0  0  0  0  0  0  0  0  0  0  0  0
   24.3669  -20.0855   -8.9421 O   0  0  0  0  0  0  0  0  0  0  0  0
  2  1  1  0
  3  2  1  0
  3  4  1  6
  5  3  1  0
  6  5  2  0
  7  5  1  0
  7  8  1  0
  9  8  1  0
 10 11  1  0
 10  9  1  0
 11 12  1  1
 11  7  1  0
 12 20  1  0
 13 12  2  0
 15 17  1  0
 15 14  1  0
 16 15  2  0
 18 17  1  0
 19 21  1  0
 19 18  1  1
 20 19  1  0
 21 22  2  0
 21 23  1  0
M  END
$$$$
