LGQ.pdb
     RDKit          3D

 22 21  0  0  1  0  0  0  0  0999 V2000
   17.1644  -16.5358  -17.5708 C   0  0  0  0  0  0  0  0  0  0  0  0
   18.3638  -16.3095  -16.6786 C   0  0  2  0  0  0  0  0  0  0  0  0
   18.2974  -17.2972  -15.5489 C   0  0  0  0  0  0  0  0  0  0  0  0
   18.4561  -14.8988  -16.1958 C   0  0  0  0  0  0  0  0  0  0  0  0
   18.6257  -13.9801  -17.3861 C   0  0  2  0  0  0  0  0  0  0  0  0
   20.0264  -13.9815  -17.7530 N   0  0  0  0  0  0  0  0  0  0  0  0
   18.2629  -12.5684  -17.0181 C   0  0  0  0  0  0  0  0  0  0  0  0
   17.1137  -12.2846  -16.5747 O   0  0  0  0  0  0  0  0  0  0  0  0
   19.2016  -11.5100  -17.1579 N   0  0  0  0  0  0  0  0  0  0  0  0
   18.9603  -10.1371  -16.7962 C   0  0  0  0  0  0  0  0  0  0  0  0
   20.0568   -9.4717  -16.0961 C   0  0  0  0  0  0  0  0  0  0  0  0
   20.7405  -10.1115  -15.2219 O   0  0  0  0  0  0  0  0  0  0  0  0
   24.2395   -5.4439  -18.5141 N   0  0  0  0  0  0  0  0  0  0  0  0
   24.6141   -5.5764  -17.1446 C   0  0  0  0  0  0  0  0  0  0  0  0
   25.6617   -5.0047  -16.7966 O   0  0  0  0  0  0  0  0  0  0  0  0
   23.8306   -6.3395  -16.1701 C   0  0  0  0  0  0  0  0  0  0  0  0
   22.5475   -6.9151  -16.6982 C   0  0  0  0  0  0  0  0  0  0  0  0
   21.7019   -7.5969  -15.6712 C   0  0  2  0  0  0  0  0  0  0  0  0
   20.4724   -8.1313  -16.2791 N   0  0  0  0  0  0  0  0  0  0  0  0
   21.2417   -6.6785  -14.6023 C   0  0  0  0  0  0  0  0  0  0  0  0
   20.0331   -5.9580  -14.6754 O   0  0  0  0  0  0  0  0  0  0  0  0
   21.8967   -6.4718  -13.5457 O   0  0  0  0  0  0  0  0  0  0  0  0
  2  3  1  1
  2  1  1  0
  4  2  1  0
  4  5  1  0
  5  6  1  1
  7  5  1  0
  7  9  1  0
  8  7  2  0
 10  9  1  0
 10 11  1  0
 11 19  1  0
 12 11  2  0
 13 14  1  0
 14 15  2  0
 16 14  1  0
 16 17  1  0
 18 17  1  6
 18 20  1  0
 19 18  1  0
 20 22  2  0
 20 21  1  0
M  END
$$$$
