LGQ.pdb
     RDKit          3D

 22 21  0  0  1  0  0  0  0  0999 V2000
   28.8870  -19.2770  -16.2844 C   0  0  0  0  0  0  0  0  0  0  0  0
   27.6355  -18.4414  -16.1380 C   0  0  2  0  0  0  0  0  0  0  0  0
   27.9426  -17.0531  -16.6224 C   0  0  0  0  0  0  0  0  0  0  0  0
   27.1042  -18.4518  -14.7418 C   0  0  0  0  0  0  0  0  0  0  0  0
   26.8150  -19.8801  -14.3347 C   0  0  2  0  0  0  0  0  0  0  0  0
   26.0533  -20.5003  -15.3985 N   0  0  0  0  0  0  0  0  0  0  0  0
   25.9613  -19.9130  -13.0977 C   0  0  0  0  0  0  0  0  0  0  0  0
   25.0563  -19.0515  -12.9065 O   0  0  0  0  0  0  0  0  0  0  0  0
   26.1465  -20.9142  -12.1056 N   0  0  0  0  0  0  0  0  0  0  0  0
   25.3802  -21.0275  -10.8915 C   0  0  0  0  0  0  0  0  0  0  0  0
   23.9316  -21.0989  -11.0694 C   0  0  0  0  0  0  0  0  0  0  0  0
   23.1637  -21.1739  -10.0469 O   0  0  0  0  0  0  0  0  0  0  0  0
   20.4681  -17.2596  -14.2970 N   0  0  0  0  0  0  0  0  0  0  0  0
   19.5231  -18.1867  -13.7669 C   0  0  0  0  0  0  0  0  0  0  0  0
   18.3225  -17.8890  -13.8903 O   0  0  0  0  0  0  0  0  0  0  0  0
   19.9102  -19.4343  -13.1039 C   0  0  0  0  0  0  0  0  0  0  0  0
   21.3910  -19.6548  -12.9810 C   0  0  0  0  0  0  0  0  0  0  0  0
   21.7771  -20.9726  -12.3901 C   0  0  2  0  0  0  0  0  0  0  0  0
   23.2414  -21.0970  -12.3049 N   0  0  0  0  0  0  0  0  0  0  0  0
   21.3345  -22.1242  -13.2121 C   0  0  0  0  0  0  0  0  0  0  0  0
   20.0764  -22.7396  -13.0587 O   0  0  0  0  0  0  0  0  0  0  0  0
   22.0500  -22.6411  -14.1114 O   0  0  0  0  0  0  0  0  0  0  0  0
  2  3  1  1
  2  1  1  0
  4  2  1  0
  4  5  1  0
  5  6  1  6
  7  5  1  0
  7  9  1  0
  8  7  2  0
 10  9  1  0
 10 11  1  0
 11 19  1  0
 12 11  2  0
 13 14  1  0
 14 15  2  0
 16 14  1  0
 16 17  1  0
 18 17  1  6
 18 20  1  0
 19 18  1  0
 20 22  2  0
 20 21  1  0
M  END
$$$$
