LGQ.pdb
     RDKit          3D

 22 21  0  0  1  0  0  0  0  0999 V2000
   24.5155  -10.8047  -17.2765 C   0  0  0  0  0  0  0  0  0  0  0  0
   25.0541  -10.0495  -16.0826 C   0  0  2  0  0  0  0  0  0  0  0  0
   26.4570   -9.6163  -16.3992 C   0  0  0  0  0  0  0  0  0  0  0  0
   24.9763  -10.8473  -14.8220 C   0  0  0  0  0  0  0  0  0  0  0  0
   23.5256  -10.9863  -14.4148 C   0  0  2  0  0  0  0  0  0  0  0  0
   22.7767  -11.4166  -15.5768 N   0  0  0  0  0  0  0  0  0  0  0  0
   22.9672   -9.6560  -13.9922 C   0  0  0  0  0  0  0  0  0  0  0  0
   23.4468   -9.0314  -13.0035 O   0  0  0  0  0  0  0  0  0  0  0  0
   21.8825   -9.0606  -14.6923 N   0  0  0  0  0  0  0  0  0  0  0  0
   21.3250   -7.7641  -14.4055 C   0  0  0  0  0  0  0  0  0  0  0  0
   20.7880   -7.0442  -15.5581 C   0  0  0  0  0  0  0  0  0  0  0  0
   21.1589   -7.3631  -16.7421 O   0  0  0  0  0  0  0  0  0  0  0  0
   15.8363   -3.0386  -15.4728 N   0  0  0  0  0  0  0  0  0  0  0  0
   15.8152   -4.4644  -15.4711 C   0  0  0  0  0  0  0  0  0  0  0  0
   14.7605   -5.0047  -15.0954 O   0  0  0  0  0  0  0  0  0  0  0  0
   16.9583   -5.2829  -15.8827 C   0  0  0  0  0  0  0  0  0  0  0  0
   18.1288   -4.5123  -16.4235 C   0  0  0  0  0  0  0  0  0  0  0  0
   19.3308   -5.3443  -16.7365 C   0  0  2  0  0  0  0  0  0  0  0  0
   19.8585   -5.9779  -15.5171 N   0  0  0  0  0  0  0  0  0  0  0  0
   20.4563   -4.5480  -17.2813 C   0  0  0  0  0  0  0  0  0  0  0  0
   20.5237   -4.1318  -18.6256 O   0  0  0  0  0  0  0  0  0  0  0  0
   21.4396   -4.1821  -16.5832 O   0  0  0  0  0  0  0  0  0  0  0  0
  2  3  1  6
  2  1  1  0
  4  2  1  0
  4  5  1  0
  5  6  1  6
  7  5  1  0
  7  9  1  0
  8  7  2  0
 10  9  1  0
 10 11  1  0
 11 19  1  0
 12 11  2  0
 13 14  1  0
 14 15  2  0
 16 14  1  0
 16 17  1  0
 18 17  1  1
 18 20  1  0
 19 18  1  0
 20 22  2  0
 20 21  1  0
M  END
$$$$
