LGQ.pdb
     RDKit          3D

 22 21  0  0  1  0  0  0  0  0999 V2000
   16.0640  -11.4627  -15.7616 C   0  0  0  0  0  0  0  0  0  0  0  0
   17.3492  -12.0423  -15.2155 C   0  0  2  0  0  0  0  0  0  0  0  0
   17.2878  -13.5356  -15.3652 C   0  0  0  0  0  0  0  0  0  0  0  0
   17.6092  -11.6225  -13.8056 C   0  0  0  0  0  0  0  0  0  0  0  0
   17.4819  -10.1179  -13.7074 C   0  0  2  0  0  0  0  0  0  0  0  0
   18.8154   -9.5552  -13.7463 N   0  0  0  0  0  0  0  0  0  0  0  0
   16.8708   -9.7255  -12.3911 C   0  0  0  0  0  0  0  0  0  0  0  0
   15.6879  -10.0588  -12.0957 O   0  0  0  0  0  0  0  0  0  0  0  0
   17.6055   -8.9675  -11.4388 N   0  0  0  0  0  0  0  0  0  0  0  0
   17.1058   -8.5425  -10.1568 C   0  0  0  0  0  0  0  0  0  0  0  0
   16.2366   -7.3682  -10.1811 C   0  0  0  0  0  0  0  0  0  0  0  0
   15.9984   -6.7705  -11.2888 O   0  0  0  0  0  0  0  0  0  0  0  0
   11.7801   -5.5084   -5.9901 N   0  0  0  0  0  0  0  0  0  0  0  0
   11.7372   -6.4834   -7.0299 C   0  0  0  0  0  0  0  0  0  0  0  0
   10.7904   -7.2884   -6.9988 O   0  0  0  0  0  0  0  0  0  0  0  0
   12.7399   -6.5634   -8.0948 C   0  0  0  0  0  0  0  0  0  0  0  0
   13.7838   -5.4837   -8.0662 C   0  0  0  0  0  0  0  0  0  0  0  0
   14.7856   -5.5569   -9.1733 C   0  0  2  0  0  0  0  0  0  0  0  0
   15.5948   -6.7817   -9.0644 N   0  0  0  0  0  0  0  0  0  0  0  0
   15.7606   -4.4406   -9.1425 C   0  0  0  0  0  0  0  0  0  0  0  0
   15.5163   -3.1896   -9.7430 O   0  0  0  0  0  0  0  0  0  0  0  0
   16.8833   -4.5251   -8.5765 O   0  0  0  0  0  0  0  0  0  0  0  0
  2  3  1  1
  2  1  1  0
  4  2  1  0
  4  5  1  0
  5  6  1  1
  7  5  1  0
  7  9  1  0
  8  7  2  0
 10  9  1  0
 10 11  1  0
 11 19  1  0
 12 11  2  0
 13 14  1  0
 14 15  2  0
 16 14  1  0
 16 17  1  0
 18 17  1  1
 18 20  1  0
 19 18  1  0
 20 22  2  0
 20 21  1  0
M  END
$$$$
