LGQ.pdb
     RDKit          3D

 22 21  0  0  1  0  0  0  0  0999 V2000
   25.0177  -33.3239   -8.5897 C   0  0  0  0  0  0  0  0  0  0  0  0
   25.6653  -32.8304   -7.3158 C   0  0  2  0  0  0  0  0  0  0  0  0
   24.9472  -31.5852   -6.8800 C   0  0  0  0  0  0  0  0  0  0  0  0
   27.1352  -32.6141   -7.4713 C   0  0  0  0  0  0  0  0  0  0  0  0
   27.8030  -33.9436   -7.7472 C   0  0  2  0  0  0  0  0  0  0  0  0
   26.7703  -34.9570   -7.8033 N   0  0  0  0  0  0  0  0  0  0  0  0
   28.7285  -34.3123   -6.6213 C   0  0  0  0  0  0  0  0  0  0  0  0
   29.7281  -33.5930   -6.3363 O   0  0  0  0  0  0  0  0  0  0  0  0
   28.5069  -35.4812   -5.8432 N   0  0  0  0  0  0  0  0  0  0  0  0
   29.3320  -35.9121   -4.7442 C   0  0  0  0  0  0  0  0  0  0  0  0
   28.9577  -35.3828   -3.4347 C   0  0  0  0  0  0  0  0  0  0  0  0
   28.6768  -34.1400   -3.3026 O   0  0  0  0  0  0  0  0  0  0  0  0
   25.1149  -35.3690    1.2159 N   0  0  0  0  0  0  0  0  0  0  0  0
   24.8838  -35.7923   -0.1260 C   0  0  0  0  0  0  0  0  0  0  0  0
   23.7060  -35.7647   -0.5229 O   0  0  0  0  0  0  0  0  0  0  0  0
   25.9535  -36.2438   -1.0191 C   0  0  0  0  0  0  0  0  0  0  0  0
   27.3030  -36.3820   -0.3739 C   0  0  0  0  0  0  0  0  0  0  0  0
   28.3719  -35.5289   -0.9776 C   0  0  2  0  0  0  0  0  0  0  0  0
   28.8664  -36.1215   -2.2310 N   0  0  0  0  0  0  0  0  0  0  0  0
   29.5660  -35.4009   -0.1084 C   0  0  0  0  0  0  0  0  0  0  0  0
   29.5357  -34.7712    1.1517 O   0  0  0  0  0  0  0  0  0  0  0  0
   30.7003  -35.8457   -0.4302 O   0  0  0  0  0  0  0  0  0  0  0  0
  2  3  1  6
  2  1  1  0
  4  2  1  0
  4  5  1  0
  5  6  1  1
  7  5  1  0
  7  9  1  0
  8  7  2  0
 10  9  1  0
 10 11  1  0
 11 19  1  0
 12 11  2  0
 13 14  1  0
 14 15  2  0
 16 14  1  0
 16 17  1  0
 18 17  1  1
 18 20  1  0
 19 18  1  0
 20 22  2  0
 20 21  1  0
M  END
$$$$
