LGQ.pdb
     RDKit          3D

 22 21  0  0  1  0  0  0  0  0999 V2000
   27.6753  -15.2099  -17.3998 C   0  0  0  0  0  0  0  0  0  0  0  0
   26.4928  -15.0493  -16.4714 C   0  0  2  0  0  0  0  0  0  0  0  0
   26.4374  -13.6144  -16.0310 C   0  0  0  0  0  0  0  0  0  0  0  0
   26.5425  -15.9967  -15.3174 C   0  0  0  0  0  0  0  0  0  0  0  0
   26.5389  -17.4155  -15.8433 C   0  0  2  0  0  0  0  0  0  0  0  0
   25.6402  -17.4673  -16.9774 N   0  0  0  0  0  0  0  0  0  0  0  0
   26.0016  -18.3610  -14.8054 C   0  0  0  0  0  0  0  0  0  0  0  0
   26.1894  -18.1521  -13.5729 O   0  0  0  0  0  0  0  0  0  0  0  0
   25.2660  -19.5187  -15.1790 N   0  0  0  0  0  0  0  0  0  0  0  0
   24.7084  -20.4768  -14.2598 C   0  0  0  0  0  0  0  0  0  0  0  0
   23.2490  -20.5055  -14.1934 C   0  0  0  0  0  0  0  0  0  0  0  0
   22.5604  -19.6638  -14.8703 O   0  0  0  0  0  0  0  0  0  0  0  0
   19.2867  -25.4052  -12.9192 N   0  0  0  0  0  0  0  0  0  0  0  0
   18.4503  -24.2663  -13.1108 C   0  0  0  0  0  0  0  0  0  0  0  0
   17.2236  -24.4675  -13.0919 O   0  0  0  0  0  0  0  0  0  0  0  0
   18.9736  -22.9147  -13.3231 C   0  0  0  0  0  0  0  0  0  0  0  0
   20.4688  -22.7934  -13.2446 C   0  0  0  0  0  0  0  0  0  0  0  0
   20.9954  -21.4161  -13.4906 C   0  0  2  0  0  0  0  0  0  0  0  0
   22.4659  -21.4007  -13.4264 N   0  0  0  0  0  0  0  0  0  0  0  0
   20.5496  -20.4381  -12.4695 C   0  0  0  0  0  0  0  0  0  0  0  0
   19.3920  -19.6482  -12.6153 O   0  0  0  0  0  0  0  0  0  0  0  0
   21.1722  -20.2384  -11.3922 O   0  0  0  0  0  0  0  0  0  0  0  0
  2  3  1  1
  2  1  1  0
  4  2  1  0
  4  5  1  0
  5  6  1  6
  7  5  1  0
  7  9  1  0
  8  7  2  0
 10  9  1  0
 10 11  1  0
 11 19  1  0
 12 11  2  0
 13 14  1  0
 14 15  2  0
 16 14  1  0
 16 17  1  0
 18 17  1  1
 18 20  1  0
 19 18  1  0
 20 22  2  0
 20 21  1  0
M  END
$$$$
