LGQ.pdb
     RDKit          3D

 22 21  0  0  1  0  0  0  0  0999 V2000
   18.1096  -15.0831  -18.3238 C   0  0  0  0  0  0  0  0  0  0  0  0
   17.6685  -15.1090  -16.8779 C   0  0  2  0  0  0  0  0  0  0  0  0
   16.6064  -16.1612  -16.7334 C   0  0  0  0  0  0  0  0  0  0  0  0
   17.2115  -13.7701  -16.3981 C   0  0  0  0  0  0  0  0  0  0  0  0
   18.3515  -12.7837  -16.5289 C   0  0  2  0  0  0  0  0  0  0  0  0
   19.2963  -13.0522  -15.4650 N   0  0  0  0  0  0  0  0  0  0  0  0
   17.8556  -11.3772  -16.3400 C   0  0  0  0  0  0  0  0  0  0  0  0
   17.1791  -11.0550  -15.3220 O   0  0  0  0  0  0  0  0  0  0  0  0
   18.1329  -10.3669  -17.3010 N   0  0  0  0  0  0  0  0  0  0  0  0
   17.7043   -8.9953  -17.2064 C   0  0  0  0  0  0  0  0  0  0  0  0
   18.4707   -8.1618  -16.2828 C   0  0  0  0  0  0  0  0  0  0  0  0
   18.9225   -8.6616  -15.1933 O   0  0  0  0  0  0  0  0  0  0  0  0
   22.0981   -7.1620  -13.7036 N   0  0  0  0  0  0  0  0  0  0  0  0
   22.3195   -5.7627  -13.8662 C   0  0  0  0  0  0  0  0  0  0  0  0
   22.9719   -5.1952  -12.9729 O   0  0  0  0  0  0  0  0  0  0  0  0
   21.8184   -5.0002  -15.0123 C   0  0  0  0  0  0  0  0  0  0  0  0
   20.9501   -5.7769  -15.9606 C   0  0  0  0  0  0  0  0  0  0  0  0
   19.5612   -6.0289  -15.4684 C   0  0  2  0  0  0  0  0  0  0  0  0
   18.7872   -6.7938  -16.4596 N   0  0  0  0  0  0  0  0  0  0  0  0
   18.7918   -4.7803  -15.2512 C   0  0  0  0  0  0  0  0  0  0  0  0
   18.6312   -4.1870  -13.9834 O   0  0  0  0  0  0  0  0  0  0  0  0
   18.2222   -4.1538  -16.1845 O   0  0  0  0  0  0  0  0  0  0  0  0
  2  3  1  6
  2  1  1  0
  4  2  1  0
  4  5  1  0
  5  6  1  1
  7  5  1  0
  7  9  1  0
  8  7  2  0
 10  9  1  0
 10 11  1  0
 11 19  1  0
 12 11  2  0
 13 14  1  0
 14 15  2  0
 16 14  1  0
 16 17  1  0
 18 17  1  6
 18 20  1  0
 19 18  1  0
 20 22  2  0
 20 21  1  0
M  END
$$$$
