LGQ.pdb
     RDKit          3D

 22 21  0  0  1  0  0  0  0  0999 V2000
   16.4354  -16.3138  -18.6641 C   0  0  0  0  0  0  0  0  0  0  0  0
   17.2850  -16.6433  -17.4576 C   0  0  2  0  0  0  0  0  0  0  0  0
   16.7024  -17.8589  -16.7952 C   0  0  0  0  0  0  0  0  0  0  0  0
   17.4110  -15.4890  -16.5178 C   0  0  0  0  0  0  0  0  0  0  0  0
   17.9913  -14.3069  -17.2631 C   0  0  2  0  0  0  0  0  0  0  0  0
   19.4090  -14.5438  -17.4380 N   0  0  0  0  0  0  0  0  0  0  0  0
   17.8463  -13.0496  -16.4519 C   0  0  0  0  0  0  0  0  0  0  0  0
   16.7100  -12.6429  -16.0763 O   0  0  0  0  0  0  0  0  0  0  0  0
   18.9833  -12.2801  -16.0828 N   0  0  0  0  0  0  0  0  0  0  0  0
   18.9396  -11.0266  -15.3751 C   0  0  0  0  0  0  0  0  0  0  0  0
   18.6142   -9.8582  -16.1900 C   0  0  0  0  0  0  0  0  0  0  0  0
   18.5957   -9.9532  -17.4673 O   0  0  0  0  0  0  0  0  0  0  0  0
   14.5257   -5.2431  -15.6841 N   0  0  0  0  0  0  0  0  0  0  0  0
   15.5140   -4.6360  -16.5137 C   0  0  0  0  0  0  0  0  0  0  0  0
   15.1774   -3.5999  -17.1126 O   0  0  0  0  0  0  0  0  0  0  0  0
   16.8654   -5.1772  -16.6769 C   0  0  0  0  0  0  0  0  0  0  0  0
   17.1526   -6.4181  -15.8804 C   0  0  0  0  0  0  0  0  0  0  0  0
   17.9547   -7.4509  -16.6047 C   0  0  2  0  0  0  0  0  0  0  0  0
   18.3028   -8.5647  -15.7075 N   0  0  0  0  0  0  0  0  0  0  0  0
   19.2506   -6.9297  -17.1013 C   0  0  0  0  0  0  0  0  0  0  0  0
   19.3909   -6.2711  -18.3389 O   0  0  0  0  0  0  0  0  0  0  0  0
   20.3267   -7.0359  -16.4542 O   0  0  0  0  0  0  0  0  0  0  0  0
  2  3  1  1
  2  1  1  0
  4  2  1  0
  4  5  1  0
  5  6  1  1
  7  5  1  0
  7  9  1  0
  8  7  2  0
 10  9  1  0
 10 11  1  0
 11 19  1  0
 12 11  2  0
 13 14  1  0
 14 15  2  0
 16 14  1  0
 16 17  1  0
 18 17  1  1
 18 20  1  0
 19 18  1  0
 20 22  2  0
 20 21  1  0
M  END
$$$$
