KFR.pdb
     RDKit          3D

 32 32  0  0  1  0  0  0  0  0999 V2000
   26.2330  -19.2798  -12.6775 N   0  0  0  0  0  0  0  0  0  0  0  0
   25.7645  -20.6571  -12.6056 C   0  0  1  0  0  0  0  0  0  0  0  0
   26.5466  -21.5455  -13.5148 C   0  0  0  0  0  0  0  0  0  0  0  0
   26.5760  -21.0135  -14.9111 C   0  0  0  0  0  0  0  0  0  0  0  0
   27.9803  -20.9030  -15.4097 C   0  0  0  0  0  0  0  0  0  0  0  0
   28.2960  -22.2416  -16.0964 C   0  0  0  0  0  0  0  0  0  0  0  0
   28.6392  -21.9532  -17.4742 N   0  0  0  0  0  0  0  0  0  0  0  0
   25.9558  -21.1224  -11.1712 C   0  0  0  0  0  0  0  0  0  0  0  0
   25.5800  -22.2517  -10.8305 O   0  0  0  0  0  0  0  0  0  0  0  0
   26.5544  -20.2822  -10.2348 N   0  0  0  0  0  0  0  0  0  0  0  0
   26.7480  -20.5129   -8.8409 C   0  0  1  0  0  0  0  0  0  0  0  0
   27.7942  -19.5243   -8.3701 C   0  0  0  0  0  0  0  0  0  0  0  0
   28.1193  -19.6547   -6.9383 C   0  0  0  0  0  0  0  0  0  0  0  0
   28.8569  -20.7151   -6.4474 C   0  0  0  0  0  0  0  0  0  0  0  0
   29.1665  -20.8291   -5.0827 C   0  0  0  0  0  0  0  0  0  0  0  0
   28.7146  -19.8497   -4.2339 C   0  0  0  0  0  0  0  0  0  0  0  0
   27.9811  -18.7965   -4.7232 C   0  0  0  0  0  0  0  0  0  0  0  0
   27.6683  -18.6714   -6.0635 C   0  0  0  0  0  0  0  0  0  0  0  0
   25.5361  -20.3553   -8.0215 C   0  0  0  0  0  0  0  0  0  0  0  0
   24.8916  -19.2931   -8.0320 O   0  0  0  0  0  0  0  0  0  0  0  0
   17.8321  -24.7607   -6.9500 N   0  0  0  0  0  0  0  0  0  0  0  0
   18.9635  -24.2008   -7.6705 C   0  0  0  0  0  0  0  0  0  0  0  0
   18.8790  -24.0611   -8.8680 N   0  0  0  0  0  0  0  0  0  0  0  0
   20.1463  -23.8624   -6.9155 N   0  0  0  0  0  0  0  0  0  0  0  0
   20.4285  -22.5500   -6.4190 C   0  0  0  0  0  0  0  0  0  0  0  0
   21.7184  -22.3491   -5.7176 C   0  0  0  0  0  0  0  0  0  0  0  0
   22.9488  -22.4621   -6.5527 C   0  0  0  0  0  0  0  0  0  0  0  0
   23.8624  -21.2481   -6.3528 C   0  0  2  0  0  0  0  0  0  0  0  0
   25.0400  -21.4165   -7.1743 N   0  0  0  0  0  0  0  0  0  0  0  0
   24.1715  -21.1742   -4.9024 C   0  0  0  0  0  0  0  0  0  0  0  0
   23.3805  -20.4602   -4.0502 O   0  0  0  0  0  0  0  0  0  0  0  0
   25.1698  -21.7760   -4.4773 O   0  0  0  0  0  0  0  0  0  0  0  0
  2  3  1  0
  2  8  1  0
  2  1  1  1
  4  3  1  0
  5  4  1  0
  6  5  1  0
  7  6  1  0
  8  9  2  0
 10 11  1  0
 10  8  1  0
 11 19  1  0
 12 13  1  0
 11 12  1  1
 13 14  2  0
 14 15  1  0
 16 15  2  0
 17 16  1  0
 18 13  1  0
 18 17  2  0
 19 20  2  0
 21 22  1  0
 22 24  1  0
 22 23  2  0
 24 25  1  0
 26 25  1  0
 27 26  1  0
 28 27  1  1
 28 30  1  0
 29 19  1  0
 29 28  1  0
 30 32  2  0
 30 31  1  0
M  END
$$$$
