KFR.pdb
     RDKit          3D

 32 32  0  0  1  0  0  0  0  0999 V2000
   28.6088  -23.0491  -16.5159 N   0  0  0  0  0  0  0  0  0  0  0  0
   27.8059  -21.8409  -16.3851 C   0  0  1  0  0  0  0  0  0  0  0  0
   26.9655  -21.6127  -17.5974 C   0  0  0  0  0  0  0  0  0  0  0  0
   27.7120  -20.8574  -18.6490 C   0  0  0  0  0  0  0  0  0  0  0  0
   28.4251  -19.6849  -18.0578 C   0  0  0  0  0  0  0  0  0  0  0  0
   27.9668  -18.4571  -18.8611 C   0  0  0  0  0  0  0  0  0  0  0  0
   29.0270  -18.1254  -19.7913 N   0  0  0  0  0  0  0  0  0  0  0  0
   26.8985  -22.0327  -15.1808 C   0  0  0  0  0  0  0  0  0  0  0  0
   26.5237  -23.1687  -14.8616 O   0  0  0  0  0  0  0  0  0  0  0  0
   26.4855  -20.9334  -14.4311 N   0  0  0  0  0  0  0  0  0  0  0  0
   25.6612  -20.9201  -13.2675 C   0  0  1  0  0  0  0  0  0  0  0  0
   26.2722  -19.9243  -12.3039 C   0  0  0  0  0  0  0  0  0  0  0  0
   27.4453  -20.4516  -11.5840 C   0  0  0  0  0  0  0  0  0  0  0  0
   27.3314  -21.0858  -10.3615 C   0  0  0  0  0  0  0  0  0  0  0  0
   28.4536  -21.5896   -9.6847 C   0  0  0  0  0  0  0  0  0  0  0  0
   29.6846  -21.4373  -10.2723 C   0  0  0  0  0  0  0  0  0  0  0  0
   29.7963  -20.8063  -11.4873 C   0  0  0  0  0  0  0  0  0  0  0  0
   28.7011  -20.3049  -12.1647 C   0  0  0  0  0  0  0  0  0  0  0  0
   24.2593  -20.5488  -13.5161 C   0  0  0  0  0  0  0  0  0  0  0  0
   23.9742  -19.5240  -14.1583 O   0  0  0  0  0  0  0  0  0  0  0  0
   18.4793  -26.7379  -13.6781 N   0  0  0  0  0  0  0  0  0  0  0  0
   18.7804  -25.8613  -12.5585 C   0  0  0  0  0  0  0  0  0  0  0  0
   18.3038  -26.1145  -11.4771 N   0  0  0  0  0  0  0  0  0  0  0  0
   19.6183  -24.7121  -12.8049 N   0  0  0  0  0  0  0  0  0  0  0  0
   20.2282  -24.4244  -14.0674 C   0  0  0  0  0  0  0  0  0  0  0  0
   21.0468  -23.1929  -14.1643 C   0  0  0  0  0  0  0  0  0  0  0  0
   20.8963  -22.2107  -13.0523 C   0  0  0  0  0  0  0  0  0  0  0  0
   21.7812  -20.9807  -13.2815 C   0  0  2  0  0  0  0  0  0  0  0  0
   23.1568  -21.3488  -13.0322 N   0  0  0  0  0  0  0  0  0  0  0  0
   21.2893  -19.9184  -12.3681 C   0  0  0  0  0  0  0  0  0  0  0  0
   20.2877  -19.0730  -12.7474 O   0  0  0  0  0  0  0  0  0  0  0  0
   21.8105  -19.8118  -11.2472 O   0  0  0  0  0  0  0  0  0  0  0  0
  2  3  1  0
  2  8  1  0
  2  1  1  6
  4  3  1  0
  5  4  1  0
  6  5  1  0
  7  6  1  0
  8  9  2  0
 10 11  1  0
 10  8  1  0
 11 19  1  0
 12 13  1  0
 11 12  1  1
 13 14  2  0
 14 15  1  0
 16 15  2  0
 17 16  1  0
 18 13  1  0
 18 17  2  0
 19 20  2  0
 21 22  1  0
 22 24  1  0
 22 23  2  0
 24 25  1  0
 26 25  1  0
 27 26  1  0
 28 27  1  1
 28 30  1  0
 29 19  1  0
 29 28  1  0
 30 32  2  0
 30 31  1  0
M  END
$$$$
