KFR.pdb
     RDKit          3D

 32 32  0  0  1  0  0  0  0  0999 V2000
   30.2853  -20.5163  -11.0578 N   0  0  0  0  0  0  0  0  0  0  0  0
   29.9752  -21.8869  -10.6744 C   0  0  1  0  0  0  0  0  0  0  0  0
   30.9995  -22.4342   -9.7367 C   0  0  0  0  0  0  0  0  0  0  0  0
   32.3756  -22.3436  -10.3126 C   0  0  0  0  0  0  0  0  0  0  0  0
   32.6621  -23.5152  -11.1947 C   0  0  0  0  0  0  0  0  0  0  0  0
   34.0409  -23.2510  -11.8208 C   0  0  0  0  0  0  0  0  0  0  0  0
   34.3702  -24.3953  -12.6463 N   0  0  0  0  0  0  0  0  0  0  0  0
   28.6251  -21.8637   -9.9766 C   0  0  0  0  0  0  0  0  0  0  0  0
   28.1226  -22.9170   -9.5633 O   0  0  0  0  0  0  0  0  0  0  0  0
   27.9479  -20.6592   -9.7982 N   0  0  0  0  0  0  0  0  0  0  0  0
   26.6638  -20.4486   -9.2147 C   0  0  1  0  0  0  0  0  0  0  0  0
   26.7642  -19.2000   -8.3635 C   0  0  0  0  0  0  0  0  0  0  0  0
   27.2968  -19.4545   -7.0129 C   0  0  0  0  0  0  0  0  0  0  0  0
   27.3904  -20.7301   -6.4899 C   0  0  0  0  0  0  0  0  0  0  0  0
   27.9036  -20.9642   -5.2042 C   0  0  0  0  0  0  0  0  0  0  0  0
   28.3174  -19.8828   -4.4671 C   0  0  0  0  0  0  0  0  0  0  0  0
   28.2234  -18.6153   -4.9882 C   0  0  0  0  0  0  0  0  0  0  0  0
   27.7199  -18.3696   -6.2514 C   0  0  0  0  0  0  0  0  0  0  0  0
   25.5716  -20.2802  -10.1862 C   0  0  0  0  0  0  0  0  0  0  0  0
   25.6161  -19.3871  -11.0489 O   0  0  0  0  0  0  0  0  0  0  0  0
   18.6961  -23.7160  -12.9240 N   0  0  0  0  0  0  0  0  0  0  0  0
   18.9711  -22.7801  -14.0015 C   0  0  0  0  0  0  0  0  0  0  0  0
   18.0411  -22.2586  -14.5704 N   0  0  0  0  0  0  0  0  0  0  0  0
   20.3501  -22.5407  -14.3544 N   0  0  0  0  0  0  0  0  0  0  0  0
   21.4498  -22.7429  -13.4611 C   0  0  0  0  0  0  0  0  0  0  0  0
   21.3570  -22.1291  -12.1154 C   0  0  0  0  0  0  0  0  0  0  0  0
   22.5523  -22.2810  -11.2366 C   0  0  0  0  0  0  0  0  0  0  0  0
   23.3377  -20.9683  -11.1448 C   0  0  2  0  0  0  0  0  0  0  0  0
   24.4065  -21.1360  -10.1859 N   0  0  0  0  0  0  0  0  0  0  0  0
   22.3693  -19.9118  -10.7566 C   0  0  0  0  0  0  0  0  0  0  0  0
   21.6673  -19.2200  -11.7002 O   0  0  0  0  0  0  0  0  0  0  0  0
   22.2107  -19.6667   -9.5507 O   0  0  0  0  0  0  0  0  0  0  0  0
  2  3  1  0
  2  8  1  0
  2  1  1  1
  4  3  1  0
  5  4  1  0
  6  5  1  0
  7  6  1  0
  8  9  2  0
 10 11  1  0
 10  8  1  0
 11 19  1  0
 12 13  1  0
 11 12  1  6
 13 14  2  0
 14 15  1  0
 16 15  2  0
 17 16  1  0
 18 13  1  0
 18 17  2  0
 19 20  2  0
 21 22  1  0
 22 24  1  0
 22 23  2  0
 24 25  1  0
 26 25  1  0
 27 26  1  0
 28 27  1  1
 28 30  1  0
 29 19  1  0
 29 28  1  0
 30 32  2  0
 30 31  1  0
M  END
$$$$
