KFR.pdb
     RDKit          3D

 32 32  0  0  1  0  0  0  0  0999 V2000
   28.6156  -23.4161  -17.3840 N   0  0  0  0  0  0  0  0  0  0  0  0
   27.9417  -22.1727  -17.0358 C   0  0  1  0  0  0  0  0  0  0  0  0
   27.0437  -21.7143  -18.1364 C   0  0  0  0  0  0  0  0  0  0  0  0
   27.8218  -21.1528  -19.2823 C   0  0  0  0  0  0  0  0  0  0  0  0
   28.2913  -19.7670  -18.9793 C   0  0  0  0  0  0  0  0  0  0  0  0
   28.9945  -19.2669  -20.2516 C   0  0  0  0  0  0  0  0  0  0  0  0
   29.5126  -17.9434  -19.9704 N   0  0  0  0  0  0  0  0  0  0  0  0
   27.1069  -22.4461  -15.7953 C   0  0  0  0  0  0  0  0  0  0  0  0
   26.3492  -23.4246  -15.7612 O   0  0  0  0  0  0  0  0  0  0  0  0
   27.1907  -21.5991  -14.6922 N   0  0  0  0  0  0  0  0  0  0  0  0
   26.3981  -21.6154  -13.5068 C   0  0  1  0  0  0  0  0  0  0  0  0
   27.1236  -20.7734  -12.4781 C   0  0  0  0  0  0  0  0  0  0  0  0
   26.4027  -20.6662  -11.1969 C   0  0  0  0  0  0  0  0  0  0  0  0
   26.6193  -21.5503  -10.1574 C   0  0  0  0  0  0  0  0  0  0  0  0
   25.9320  -21.4380   -8.9383 C   0  0  0  0  0  0  0  0  0  0  0  0
   25.0271  -20.4155   -8.7988 C   0  0  0  0  0  0  0  0  0  0  0  0
   24.8125  -19.5376   -9.8332 C   0  0  0  0  0  0  0  0  0  0  0  0
   25.4810  -19.6360  -11.0387 C   0  0  0  0  0  0  0  0  0  0  0  0
   25.0331  -21.0935  -13.6775 C   0  0  0  0  0  0  0  0  0  0  0  0
   24.8366  -19.9608  -14.1490 O   0  0  0  0  0  0  0  0  0  0  0  0
   17.1838  -23.3886  -14.0022 N   0  0  0  0  0  0  0  0  0  0  0  0
   17.7840  -23.9666  -12.8113 C   0  0  0  0  0  0  0  0  0  0  0  0
   17.4917  -25.0982  -12.5034 N   0  0  0  0  0  0  0  0  0  0  0  0
   18.6845  -23.1437  -12.0397 N   0  0  0  0  0  0  0  0  0  0  0  0
   19.2747  -21.9336  -12.5251 C   0  0  0  0  0  0  0  0  0  0  0  0
   20.1482  -22.0316  -13.7181 C   0  0  0  0  0  0  0  0  0  0  0  0
   21.5407  -22.5092  -13.4796 C   0  0  0  0  0  0  0  0  0  0  0  0
   22.5280  -21.3373  -13.4590 C   0  0  2  0  0  0  0  0  0  0  0  0
   23.8662  -21.8638  -13.3104 N   0  0  0  0  0  0  0  0  0  0  0  0
   22.1241  -20.4520  -12.3375 C   0  0  0  0  0  0  0  0  0  0  0  0
   21.4243  -19.3030  -12.5653 O   0  0  0  0  0  0  0  0  0  0  0  0
   22.4384  -20.7773  -11.1822 O   0  0  0  0  0  0  0  0  0  0  0  0
  2  3  1  0
  2  8  1  0
  2  1  1  6
  4  3  1  0
  5  4  1  0
  6  5  1  0
  7  6  1  0
  8  9  2  0
 10 11  1  0
 10  8  1  0
 11 19  1  0
 12 13  1  0
 11 12  1  1
 13 14  2  0
 14 15  1  0
 16 15  2  0
 17 16  1  0
 18 13  1  0
 18 17  2  0
 19 20  2  0
 21 22  1  0
 22 24  1  0
 22 23  2  0
 24 25  1  0
 26 25  1  0
 27 26  1  0
 28 27  1  1
 28 30  1  0
 29 19  1  0
 29 28  1  0
 30 32  2  0
 30 31  1  0
M  END
$$$$
