KFR.pdb
     RDKit          3D

 32 32  0  0  1  0  0  0  0  0999 V2000
   26.8489  -21.9112  -17.2191 N   0  0  0  0  0  0  0  0  0  0  0  0
   26.7893  -23.1959  -16.5352 C   0  0  1  0  0  0  0  0  0  0  0  0
   28.1560  -23.7309  -16.2632 C   0  0  0  0  0  0  0  0  0  0  0  0
   28.8493  -24.1336  -17.5245 C   0  0  0  0  0  0  0  0  0  0  0  0
   29.0414  -22.9574  -18.4258 C   0  0  0  0  0  0  0  0  0  0  0  0
   29.7937  -23.4831  -19.6590 C   0  0  0  0  0  0  0  0  0  0  0  0
   30.0362  -22.3543  -20.5343 N   0  0  0  0  0  0  0  0  0  0  0  0
   26.0730  -22.9687  -15.2140 C   0  0  0  0  0  0  0  0  0  0  0  0
   25.9223  -23.9074  -14.4210 O   0  0  0  0  0  0  0  0  0  0  0  0
   25.5840  -21.7052  -14.8890 N   0  0  0  0  0  0  0  0  0  0  0  0
   24.8516  -21.3156  -13.7291 C   0  0  1  0  0  0  0  0  0  0  0  0
   25.4376  -20.0016  -13.2566 C   0  0  0  0  0  0  0  0  0  0  0  0
   26.7528  -20.1478  -12.6074 C   0  0  0  0  0  0  0  0  0  0  0  0
   27.9287  -19.8068  -13.2479 C   0  0  0  0  0  0  0  0  0  0  0  0
   29.1771  -19.9446  -12.6204 C   0  0  0  0  0  0  0  0  0  0  0  0
   29.2050  -20.4317  -11.3375 C   0  0  0  0  0  0  0  0  0  0  0  0
   28.0352  -20.7707  -10.7022 C   0  0  0  0  0  0  0  0  0  0  0  0
   26.7996  -20.6412  -11.3073 C   0  0  0  0  0  0  0  0  0  0  0  0
   23.4065  -21.1453  -13.9477 C   0  0  0  0  0  0  0  0  0  0  0  0
   22.9772  -20.5764  -14.9655 O   0  0  0  0  0  0  0  0  0  0  0  0
   17.9311  -25.2815  -12.8381 N   0  0  0  0  0  0  0  0  0  0  0  0
   16.6984  -24.5218  -12.7119 C   0  0  0  0  0  0  0  0  0  0  0  0
   15.7216  -24.8931  -13.3191 N   0  0  0  0  0  0  0  0  0  0  0  0
   16.7131  -23.3409  -11.8820 N   0  0  0  0  0  0  0  0  0  0  0  0
   17.9050  -22.7522  -11.3518 C   0  0  0  0  0  0  0  0  0  0  0  0
   18.7683  -21.9971  -12.2901 C   0  0  0  0  0  0  0  0  0  0  0  0
   20.2396  -22.1717  -12.1199 C   0  0  0  0  0  0  0  0  0  0  0  0
   21.0141  -21.3623  -13.1656 C   0  0  2  0  0  0  0  0  0  0  0  0
   22.4258  -21.6266  -13.0009 N   0  0  0  0  0  0  0  0  0  0  0  0
   20.6617  -19.9353  -12.9549 C   0  0  0  0  0  0  0  0  0  0  0  0
   19.5769  -19.3807  -13.5691 O   0  0  0  0  0  0  0  0  0  0  0  0
   21.3776  -19.2518  -12.2069 O   0  0  0  0  0  0  0  0  0  0  0  0
  2  3  1  0
  2  8  1  0
  2  1  1  1
  4  3  1  0
  5  4  1  0
  6  5  1  0
  7  6  1  0
  8  9  2  0
 10 11  1  0
 10  8  1  0
 11 19  1  0
 12 13  1  0
 11 12  1  6
 13 14  2  0
 14 15  1  0
 16 15  2  0
 17 16  1  0
 18 13  1  0
 18 17  2  0
 19 20  2  0
 21 22  1  0
 22 24  1  0
 22 23  2  0
 24 25  1  0
 26 25  1  0
 27 26  1  0
 28 27  1  1
 28 30  1  0
 29 19  1  0
 29 28  1  0
 30 32  2  0
 30 31  1  0
M  END
$$$$
