KFR.pdb
     RDKit          3D

 32 32  0  0  1  0  0  0  0  0999 V2000
   26.7798  -21.4548  -13.3152 N   0  0  0  0  0  0  0  0  0  0  0  0
   26.3811  -20.3532  -12.4497 C   0  0  1  0  0  0  0  0  0  0  0  0
   25.0131  -19.8624  -12.7897 C   0  0  0  0  0  0  0  0  0  0  0  0
   24.9984  -19.1390  -14.0974 C   0  0  0  0  0  0  0  0  0  0  0  0
   24.2052  -19.8932  -15.1146 C   0  0  0  0  0  0  0  0  0  0  0  0
   24.2637  -19.0599  -16.4051 C   0  0  0  0  0  0  0  0  0  0  0  0
   23.6381  -19.8389  -17.4545 N   0  0  0  0  0  0  0  0  0  0  0  0
   26.3795  -20.8800  -11.0239 C   0  0  0  0  0  0  0  0  0  0  0  0
   26.0221  -22.0426  -10.7929 O   0  0  0  0  0  0  0  0  0  0  0  0
   26.7802  -20.0590   -9.9720 N   0  0  0  0  0  0  0  0  0  0  0  0
   26.8499  -20.3770   -8.5836 C   0  0  1  0  0  0  0  0  0  0  0  0
   27.7453  -19.3409   -7.9369 C   0  0  0  0  0  0  0  0  0  0  0  0
   27.9616  -19.5718   -6.4973 C   0  0  0  0  0  0  0  0  0  0  0  0
   27.3756  -18.7769   -5.5309 C   0  0  0  0  0  0  0  0  0  0  0  0
   27.5829  -19.0068   -4.1615 C   0  0  0  0  0  0  0  0  0  0  0  0
   28.3917  -20.0544   -3.7976 C   0  0  0  0  0  0  0  0  0  0  0  0
   28.9740  -20.8435   -4.7594 C   0  0  0  0  0  0  0  0  0  0  0  0
   28.7795  -20.6289   -6.1106 C   0  0  0  0  0  0  0  0  0  0  0  0
   25.5506  -20.3861   -7.8931 C   0  0  0  0  0  0  0  0  0  0  0  0
   24.8017  -19.3953   -7.9280 O   0  0  0  0  0  0  0  0  0  0  0  0
   18.0989  -24.2487   -5.2749 N   0  0  0  0  0  0  0  0  0  0  0  0
   18.2860  -23.7959   -6.6433 C   0  0  0  0  0  0  0  0  0  0  0  0
   17.3754  -23.9233   -7.4277 N   0  0  0  0  0  0  0  0  0  0  0  0
   19.5675  -23.2370   -7.0020 N   0  0  0  0  0  0  0  0  0  0  0  0
   20.8221  -23.8518   -6.6911 C   0  0  0  0  0  0  0  0  0  0  0  0
   21.8404  -23.0173   -6.0107 C   0  0  0  0  0  0  0  0  0  0  0  0
   23.1778  -22.9421   -6.6662 C   0  0  0  0  0  0  0  0  0  0  0  0
   23.7954  -21.5498   -6.4975 C   0  0  2  0  0  0  0  0  0  0  0  0
   25.0857  -21.5352   -7.1492 N   0  0  0  0  0  0  0  0  0  0  0  0
   23.8784  -21.2881   -5.0383 C   0  0  0  0  0  0  0  0  0  0  0  0
   22.7996  -20.8225   -4.3447 O   0  0  0  0  0  0  0  0  0  0  0  0
   24.9544  -21.5000   -4.4580 O   0  0  0  0  0  0  0  0  0  0  0  0
  2  3  1  0
  2  8  1  0
  2  1  1  6
  4  3  1  0
  5  4  1  0
  6  5  1  0
  7  6  1  0
  8  9  2  0
 10 11  1  0
 10  8  1  0
 11 19  1  0
 12 13  1  0
 11 12  1  1
 13 14  2  0
 14 15  1  0
 16 15  2  0
 17 16  1  0
 18 13  1  0
 18 17  2  0
 19 20  2  0
 21 22  1  0
 22 24  1  0
 22 23  2  0
 24 25  1  0
 26 25  1  0
 27 26  1  0
 28 27  1  1
 28 30  1  0
 29 19  1  0
 29 28  1  0
 30 32  2  0
 30 31  1  0
M  END
$$$$
