KFR.pdb
     RDKit          3D

 32 32  0  0  1  0  0  0  0  0999 V2000
   28.3459  -22.1973  -17.3280 N   0  0  0  0  0  0  0  0  0  0  0  0
   27.8043  -21.0138  -16.6740 C   0  0  1  0  0  0  0  0  0  0  0  0
   26.8908  -20.2606  -17.5829 C   0  0  0  0  0  0  0  0  0  0  0  0
   27.6500  -19.5307  -18.6433 C   0  0  0  0  0  0  0  0  0  0  0  0
   27.7059  -20.3301  -19.9044 C   0  0  0  0  0  0  0  0  0  0  0  0
   28.4838  -19.4750  -20.9177 C   0  0  0  0  0  0  0  0  0  0  0  0
   28.5811  -20.2372  -22.1461 N   0  0  0  0  0  0  0  0  0  0  0  0
   27.0185  -21.4896  -15.4630 C   0  0  0  0  0  0  0  0  0  0  0  0
   26.2315  -22.4394  -15.5687 O   0  0  0  0  0  0  0  0  0  0  0  0
   27.1802  -20.8609  -14.2302 N   0  0  0  0  0  0  0  0  0  0  0  0
   26.4607  -21.0942  -13.0213 C   0  0  1  0  0  0  0  0  0  0  0  0
   27.2610  -20.4628  -11.9014 C   0  0  0  0  0  0  0  0  0  0  0  0
   26.5817  -20.5176  -10.5944 C   0  0  0  0  0  0  0  0  0  0  0  0
   26.5531  -21.6687   -9.8305 C   0  0  0  0  0  0  0  0  0  0  0  0
   25.9079  -21.7110   -8.5843 C   0  0  0  0  0  0  0  0  0  0  0  0
   25.2976  -20.5671   -8.1337 C   0  0  0  0  0  0  0  0  0  0  0  0
   25.3265  -19.4237   -8.8944 C   0  0  0  0  0  0  0  0  0  0  0  0
   25.9569  -19.3674  -10.1229 C   0  0  0  0  0  0  0  0  0  0  0  0
   25.0967  -20.5426  -13.0061 C   0  0  0  0  0  0  0  0  0  0  0  0
   24.8922  -19.3380  -13.2319 O   0  0  0  0  0  0  0  0  0  0  0  0
   20.2649  -22.7230  -16.9948 N   0  0  0  0  0  0  0  0  0  0  0  0
   19.3635  -23.4155  -16.0889 C   0  0  0  0  0  0  0  0  0  0  0  0
   18.4283  -24.0250  -16.5523 N   0  0  0  0  0  0  0  0  0  0  0  0
   19.6203  -23.3168  -14.6720 N   0  0  0  0  0  0  0  0  0  0  0  0
   19.2035  -22.2146  -13.8597 C   0  0  0  0  0  0  0  0  0  0  0  0
   20.2532  -21.2837  -13.3827 C   0  0  0  0  0  0  0  0  0  0  0  0
   21.6435  -21.8216  -13.3409 C   0  0  0  0  0  0  0  0  0  0  0  0
   22.6038  -20.8144  -12.6991 C   0  0  2  0  0  0  0  0  0  0  0  0
   23.9400  -21.3653  -12.7319 N   0  0  0  0  0  0  0  0  0  0  0  0
   22.1113  -20.5661  -11.3205 C   0  0  0  0  0  0  0  0  0  0  0  0
   21.3161  -19.4934  -11.0403 O   0  0  0  0  0  0  0  0  0  0  0  0
   22.4399  -21.3561  -10.4220 O   0  0  0  0  0  0  0  0  0  0  0  0
  2  3  1  0
  2  8  1  0
  2  1  1  6
  4  3  1  0
  5  4  1  0
  6  5  1  0
  7  6  1  0
  8  9  2  0
 10 11  1  0
 10  8  1  0
 11 19  1  0
 12 13  1  0
 11 12  1  1
 13 14  2  0
 14 15  1  0
 16 15  2  0
 17 16  1  0
 18 13  1  0
 18 17  2  0
 19 20  2  0
 21 22  1  0
 22 24  1  0
 22 23  2  0
 24 25  1  0
 26 25  1  0
 27 26  1  0
 28 27  1  1
 28 30  1  0
 29 19  1  0
 29 28  1  0
 30 32  2  0
 30 31  1  0
M  END
$$$$
