KFR.pdb
     RDKit          3D

 32 32  0  0  1  0  0  0  0  0999 V2000
   30.2782  -24.4601  -18.2872 N   0  0  0  0  0  0  0  0  0  0  0  0
   29.0603  -23.8120  -17.8200 C   0  0  1  0  0  0  0  0  0  0  0  0
   28.7131  -22.6325  -18.6662 C   0  0  0  0  0  0  0  0  0  0  0  0
   29.7344  -21.5484  -18.5431 C   0  0  0  0  0  0  0  0  0  0  0  0
   29.3874  -20.3877  -19.4178 C   0  0  0  0  0  0  0  0  0  0  0  0
   30.5248  -19.3681  -19.2451 C   0  0  0  0  0  0  0  0  0  0  0  0
   30.1987  -18.2115  -20.0547 N   0  0  0  0  0  0  0  0  0  0  0  0
   27.9417  -24.8369  -17.9137 C   0  0  0  0  0  0  0  0  0  0  0  0
   27.6196  -25.3043  -19.0139 O   0  0  0  0  0  0  0  0  0  0  0  0
   27.2750  -25.2552  -16.7640 N   0  0  0  0  0  0  0  0  0  0  0  0
   26.2069  -26.1940  -16.6574 C   0  0  1  0  0  0  0  0  0  0  0  0
   26.7569  -27.4105  -15.9425 C   0  0  0  0  0  0  0  0  0  0  0  0
   27.6353  -28.2383  -16.7885 C   0  0  0  0  0  0  0  0  0  0  0  0
   27.1320  -29.1540  -17.6927 C   0  0  0  0  0  0  0  0  0  0  0  0
   27.9758  -29.9351  -18.4984 C   0  0  0  0  0  0  0  0  0  0  0  0
   29.3317  -29.7668  -18.3673 C   0  0  0  0  0  0  0  0  0  0  0  0
   29.8305  -28.8564  -17.4676 C   0  0  0  0  0  0  0  0  0  0  0  0
   29.0125  -28.0814  -16.6678 C   0  0  0  0  0  0  0  0  0  0  0  0
   25.0296  -25.6996  -15.9263 C   0  0  0  0  0  0  0  0  0  0  0  0
   25.1424  -25.2121  -14.7889 O   0  0  0  0  0  0  0  0  0  0  0  0
   16.9055  -24.3178  -19.0929 N   0  0  0  0  0  0  0  0  0  0  0  0
   17.3645  -25.5882  -18.5561 C   0  0  0  0  0  0  0  0  0  0  0  0
   16.7658  -26.5953  -18.8529 N   0  0  0  0  0  0  0  0  0  0  0  0
   18.5040  -25.5766  -17.6703 N   0  0  0  0  0  0  0  0  0  0  0  0
   18.9710  -24.4100  -16.9851 C   0  0  0  0  0  0  0  0  0  0  0  0
   20.1696  -24.5577  -16.1262 C   0  0  0  0  0  0  0  0  0  0  0  0
   21.3617  -25.1916  -16.7594 C   0  0  0  0  0  0  0  0  0  0  0  0
   22.5575  -25.1941  -15.8010 C   0  0  2  0  0  0  0  0  0  0  0  0
   23.6990  -25.7546  -16.4886 N   0  0  0  0  0  0  0  0  0  0  0  0
   22.1536  -25.9810  -14.6084 C   0  0  0  0  0  0  0  0  0  0  0  0
   21.7671  -25.3623  -13.4554 O   0  0  0  0  0  0  0  0  0  0  0  0
   22.1759  -27.2195  -14.6796 O   0  0  0  0  0  0  0  0  0  0  0  0
  2  3  1  0
  2  8  1  0
  2  1  1  6
  4  3  1  0
  5  4  1  0
  6  5  1  0
  7  6  1  0
  8  9  2  0
 10 11  1  0
 10  8  1  0
 11 19  1  0
 12 13  1  0
 11 12  1  1
 13 14  2  0
 14 15  1  0
 16 15  2  0
 17 16  1  0
 18 13  1  0
 18 17  2  0
 19 20  2  0
 21 22  1  0
 22 24  1  0
 22 23  2  0
 24 25  1  0
 26 25  1  0
 27 26  1  0
 28 27  1  6
 28 30  1  0
 29 19  1  0
 29 28  1  0
 30 32  2  0
 30 31  1  0
M  END
$$$$
