KFR.pdb
     RDKit          3D

 32 32  0  0  1  0  0  0  0  0999 V2000
   27.9684  -22.1229  -16.1166 N   0  0  0  0  0  0  0  0  0  0  0  0
   27.5579  -21.1959  -15.0707 C   0  0  1  0  0  0  0  0  0  0  0  0
   27.0901  -19.9003  -15.6455 C   0  0  0  0  0  0  0  0  0  0  0  0
   28.1753  -19.2156  -16.4118 C   0  0  0  0  0  0  0  0  0  0  0  0
   27.6940  -17.9164  -16.9715 C   0  0  0  0  0  0  0  0  0  0  0  0
   28.8892  -17.3057  -17.7211 C   0  0  0  0  0  0  0  0  0  0  0  0
   28.4320  -16.0795  -18.3429 N   0  0  0  0  0  0  0  0  0  0  0  0
   26.4102  -21.8482  -14.3173 C   0  0  0  0  0  0  0  0  0  0  0  0
   25.5316  -22.4623  -14.9367 O   0  0  0  0  0  0  0  0  0  0  0  0
   26.3417  -21.7590  -12.9286 N   0  0  0  0  0  0  0  0  0  0  0  0
   25.2408  -22.0749  -12.0788 C   0  0  1  0  0  0  0  0  0  0  0  0
   25.8007  -22.2763  -10.6862 C   0  0  0  0  0  0  0  0  0  0  0  0
   26.5743  -21.1220  -10.1945 C   0  0  0  0  0  0  0  0  0  0  0  0
   26.0412  -20.2060   -9.3079 C   0  0  0  0  0  0  0  0  0  0  0  0
   26.7867  -19.1119   -8.8406 C   0  0  0  0  0  0  0  0  0  0  0  0
   28.0760  -18.9698   -9.2893 C   0  0  0  0  0  0  0  0  0  0  0  0
   28.6044  -19.8809  -10.1711 C   0  0  0  0  0  0  0  0  0  0  0  0
   27.8826  -20.9620  -10.6400 C   0  0  0  0  0  0  0  0  0  0  0  0
   24.1918  -21.0443  -12.0296 C   0  0  0  0  0  0  0  0  0  0  0  0
   24.2200  -20.1445  -11.1732 O   0  0  0  0  0  0  0  0  0  0  0  0
   24.1405  -22.1162  -17.8722 N   0  0  0  0  0  0  0  0  0  0  0  0
   23.3247  -21.0508  -18.4307 C   0  0  0  0  0  0  0  0  0  0  0  0
   22.8873  -21.1790  -19.5501 N   0  0  0  0  0  0  0  0  0  0  0  0
   23.0993  -19.8764  -17.6224 N   0  0  0  0  0  0  0  0  0  0  0  0
   23.3178  -19.8258  -16.2088 C   0  0  0  0  0  0  0  0  0  0  0  0
   22.2157  -20.2863  -15.3316 C   0  0  0  0  0  0  0  0  0  0  0  0
   21.8375  -19.3754  -14.2130 C   0  0  0  0  0  0  0  0  0  0  0  0
   22.0139  -20.0671  -12.8570 C   0  0  2  0  0  0  0  0  0  0  0  0
   23.0896  -21.0269  -12.9649 N   0  0  0  0  0  0  0  0  0  0  0  0
   20.7101  -20.6914  -12.5177 C   0  0  0  0  0  0  0  0  0  0  0  0
   20.5468  -22.0454  -12.5586 O   0  0  0  0  0  0  0  0  0  0  0  0
   19.7653  -19.9543  -12.1960 O   0  0  0  0  0  0  0  0  0  0  0  0
  2  3  1  0
  2  8  1  0
  2  1  1  6
  4  3  1  0
  5  4  1  0
  6  5  1  0
  7  6  1  0
  8  9  2  0
 10 11  1  0
 10  8  1  0
 11 19  1  0
 12 13  1  0
 11 12  1  1
 13 14  2  0
 14 15  1  0
 16 15  2  0
 17 16  1  0
 18 13  1  0
 18 17  2  0
 19 20  2  0
 21 22  1  0
 22 24  1  0
 22 23  2  0
 24 25  1  0
 26 25  1  0
 27 26  1  0
 28 27  1  6
 28 30  1  0
 29 19  1  0
 29 28  1  0
 30 32  2  0
 30 31  1  0
M  END
$$$$
