KFR.pdb
     RDKit          3D

 32 32  0  0  1  0  0  0  0  0999 V2000
   28.2438  -21.2951  -17.0694 N   0  0  0  0  0  0  0  0  0  0  0  0
   28.4481  -22.6376  -16.5425 C   0  0  1  0  0  0  0  0  0  0  0  0
   29.8991  -22.9822  -16.4805 C   0  0  0  0  0  0  0  0  0  0  0  0
   30.4177  -23.4178  -17.8128 C   0  0  0  0  0  0  0  0  0  0  0  0
   30.5068  -24.9074  -17.8888 C   0  0  0  0  0  0  0  0  0  0  0  0
   31.0543  -25.2314  -19.2882 C   0  0  0  0  0  0  0  0  0  0  0  0
   31.3847  -26.6420  -19.3100 N   0  0  0  0  0  0  0  0  0  0  0  0
   27.8717  -22.6609  -15.1363 C   0  0  0  0  0  0  0  0  0  0  0  0
   27.9733  -23.6804  -14.4414 O   0  0  0  0  0  0  0  0  0  0  0  0
   27.2279  -21.5369  -14.6230 N   0  0  0  0  0  0  0  0  0  0  0  0
   26.6056  -21.3831  -13.3491 C   0  0  1  0  0  0  0  0  0  0  0  0
   27.1798  -20.1285  -12.7249 C   0  0  0  0  0  0  0  0  0  0  0  0
   27.5821  -20.3069  -11.3182 C   0  0  0  0  0  0  0  0  0  0  0  0
   26.7124  -20.0695  -10.2710 C   0  0  0  0  0  0  0  0  0  0  0  0
   27.1022  -20.2467   -8.9339 C   0  0  0  0  0  0  0  0  0  0  0  0
   28.3847  -20.6678   -8.6853 C   0  0  0  0  0  0  0  0  0  0  0  0
   29.2483  -20.9028   -9.7273 C   0  0  0  0  0  0  0  0  0  0  0  0
   28.8790  -20.7322  -11.0479 C   0  0  0  0  0  0  0  0  0  0  0  0
   25.1394  -21.2678  -13.3955 C   0  0  0  0  0  0  0  0  0  0  0  0
   24.5735  -20.6927  -14.3404 O   0  0  0  0  0  0  0  0  0  0  0  0
   18.6605  -23.4316  -12.8245 N   0  0  0  0  0  0  0  0  0  0  0  0
   17.9425  -23.1379  -11.5954 C   0  0  0  0  0  0  0  0  0  0  0  0
   16.7373  -23.0543  -11.6316 N   0  0  0  0  0  0  0  0  0  0  0  0
   18.7143  -22.9351  -10.3927 N   0  0  0  0  0  0  0  0  0  0  0  0
   20.1449  -22.9097  -10.3566 C   0  0  0  0  0  0  0  0  0  0  0  0
   20.8216  -21.7376  -10.9600 C   0  0  0  0  0  0  0  0  0  0  0  0
   22.3126  -21.7685  -10.9698 C   0  0  0  0  0  0  0  0  0  0  0  0
   22.8549  -21.6849  -12.4007 C   0  0  2  0  0  0  0  0  0  0  0  0
   24.2943  -21.8125  -12.3568 N   0  0  0  0  0  0  0  0  0  0  0  0
   22.4036  -20.3849  -12.9583 C   0  0  0  0  0  0  0  0  0  0  0  0
   21.3626  -20.3204  -13.8380 O   0  0  0  0  0  0  0  0  0  0  0  0
   22.9956  -19.3520  -12.6089 O   0  0  0  0  0  0  0  0  0  0  0  0
  2  3  1  0
  2  8  1  0
  2  1  1  1
  4  3  1  0
  5  4  1  0
  6  5  1  0
  7  6  1  0
  8  9  2  0
 10 11  1  0
 10  8  1  0
 11 19  1  0
 12 13  1  0
 11 12  1  6
 13 14  2  0
 14 15  1  0
 16 15  2  0
 17 16  1  0
 18 13  1  0
 18 17  2  0
 19 20  2  0
 21 22  1  0
 22 24  1  0
 22 23  2  0
 24 25  1  0
 26 25  1  0
 27 26  1  0
 28 27  1  1
 28 30  1  0
 29 19  1  0
 29 28  1  0
 30 32  2  0
 30 31  1  0
M  END
$$$$
