KFR.pdb
     RDKit          3D

 32 32  0  0  1  0  0  0  0  0999 V2000
   16.8171  -11.5516    3.8533 N   0  0  0  0  0  0  0  0  0  0  0  0
   16.2165  -12.1679    5.0285 C   0  0  1  0  0  0  0  0  0  0  0  0
   14.8401  -12.6667    4.7374 C   0  0  0  0  0  0  0  0  0  0  0  0
   13.8750  -11.5404    4.5542 C   0  0  0  0  0  0  0  0  0  0  0  0
   12.5130  -12.0551    4.2185 C   0  0  0  0  0  0  0  0  0  0  0  0
   11.6582  -10.8198    3.8922 C   0  0  0  0  0  0  0  0  0  0  0  0
   10.3740  -11.2928    3.4164 N   0  0  0  0  0  0  0  0  0  0  0  0
   17.0980  -13.3427    5.4199 C   0  0  0  0  0  0  0  0  0  0  0  0
   17.7592  -13.9359    4.5576 O   0  0  0  0  0  0  0  0  0  0  0  0
   17.1666  -13.7566    6.7484 N   0  0  0  0  0  0  0  0  0  0  0  0
   17.9556  -14.8064    7.3044 C   0  0  1  0  0  0  0  0  0  0  0  0
   18.4515  -14.3216    8.6507 C   0  0  0  0  0  0  0  0  0  0  0  0
   19.6202  -13.4285    8.5562 C   0  0  0  0  0  0  0  0  0  0  0  0
   19.4961  -12.0894    8.2385 C   0  0  0  0  0  0  0  0  0  0  0  0
   20.6143  -11.2445    8.1555 C   0  0  0  0  0  0  0  0  0  0  0  0
   21.8519  -11.7848    8.4009 C   0  0  0  0  0  0  0  0  0  0  0  0
   21.9738  -13.1162    8.7161 C   0  0  0  0  0  0  0  0  0  0  0  0
   20.8826  -13.9599    8.8009 C   0  0  0  0  0  0  0  0  0  0  0  0
   17.2387  -16.0783    7.4870 C   0  0  0  0  0  0  0  0  0  0  0  0
   16.1835  -16.1286    8.1412 O   0  0  0  0  0  0  0  0  0  0  0  0
   14.0838  -21.9444    2.0315 N   0  0  0  0  0  0  0  0  0  0  0  0
   15.4114  -21.3529    2.0402 C   0  0  0  0  0  0  0  0  0  0  0  0
   15.9879  -21.2023    0.9887 N   0  0  0  0  0  0  0  0  0  0  0  0
   15.9857  -20.9975    3.3159 N   0  0  0  0  0  0  0  0  0  0  0  0
   15.2205  -20.8026    4.5096 C   0  0  0  0  0  0  0  0  0  0  0  0
   15.9549  -20.3999    5.7322 C   0  0  0  0  0  0  0  0  0  0  0  0
   16.7114  -19.1170    5.6556 C   0  0  0  0  0  0  0  0  0  0  0  0
   16.9829  -18.5543    7.0549 C   0  0  2  0  0  0  0  0  0  0  0  0
   17.7201  -17.3180    6.9202 N   0  0  0  0  0  0  0  0  0  0  0  0
   17.7296  -19.5975    7.8025 C   0  0  0  0  0  0  0  0  0  0  0  0
   18.6120  -19.2611    8.7874 O   0  0  0  0  0  0  0  0  0  0  0  0
   17.5365  -20.7881    7.5120 O   0  0  0  0  0  0  0  0  0  0  0  0
  2  3  1  0
  2  8  1  0
  2  1  1  6
  4  3  1  0
  5  4  1  0
  6  5  1  0
  7  6  1  0
  8  9  2  0
 10 11  1  0
 10  8  1  0
 11 19  1  0
 12 13  1  0
 11 12  1  1
 13 14  2  0
 14 15  1  0
 16 15  2  0
 17 16  1  0
 18 13  1  0
 18 17  2  0
 19 20  2  0
 21 22  1  0
 22 24  1  0
 22 23  2  0
 24 25  1  0
 26 25  1  0
 27 26  1  0
 28 27  1  6
 28 30  1  0
 29 19  1  0
 29 28  1  0
 30 32  2  0
 30 31  1  0
M  END
$$$$
