KFR.pdb
     RDKit          3D

 32 32  0  0  1  0  0  0  0  0999 V2000
   28.4915  -22.3085  -17.6031 N   0  0  0  0  0  0  0  0  0  0  0  0
   27.7810  -21.1688  -17.0393 C   0  0  1  0  0  0  0  0  0  0  0  0
   26.6358  -20.7598  -17.9049 C   0  0  0  0  0  0  0  0  0  0  0  0
   27.1041  -20.0773  -19.1492 C   0  0  0  0  0  0  0  0  0  0  0  0
   27.7138  -18.7505  -18.8319 C   0  0  0  0  0  0  0  0  0  0  0  0
   28.0745  -18.1124  -20.1831 C   0  0  0  0  0  0  0  0  0  0  0  0
   28.7622  -16.8675  -19.9064 N   0  0  0  0  0  0  0  0  0  0  0  0
   27.2489  -21.5979  -15.6817 C   0  0  0  0  0  0  0  0  0  0  0  0
   26.6298  -22.6639  -15.5671 O   0  0  0  0  0  0  0  0  0  0  0  0
   27.4553  -20.7956  -14.5615 N   0  0  0  0  0  0  0  0  0  0  0  0
   26.9990  -21.0107  -13.2277 C   0  0  1  0  0  0  0  0  0  0  0  0
   27.8379  -20.1298  -12.3257 C   0  0  0  0  0  0  0  0  0  0  0  0
   27.5042  -20.2699  -10.8968 C   0  0  0  0  0  0  0  0  0  0  0  0
   28.1245  -21.2019  -10.0869 C   0  0  0  0  0  0  0  0  0  0  0  0
   27.8041  -21.3255   -8.7255 C   0  0  0  0  0  0  0  0  0  0  0  0
   26.8478  -20.4877   -8.2083 C   0  0  0  0  0  0  0  0  0  0  0  0
   26.2317  -19.5620   -9.0148 C   0  0  0  0  0  0  0  0  0  0  0  0
   26.5361  -19.4294  -10.3562 C   0  0  0  0  0  0  0  0  0  0  0  0
   25.5767  -20.7021  -13.0114 C   0  0  0  0  0  0  0  0  0  0  0  0
   25.1258  -19.5687  -13.2478 O   0  0  0  0  0  0  0  0  0  0  0  0
   18.4569  -23.8275  -13.8232 N   0  0  0  0  0  0  0  0  0  0  0  0
   18.1244  -22.4500  -13.5000 C   0  0  0  0  0  0  0  0  0  0  0  0
   17.0238  -22.2040  -13.0653 N   0  0  0  0  0  0  0  0  0  0  0  0
   19.1248  -21.4378  -13.7411 N   0  0  0  0  0  0  0  0  0  0  0  0
   20.5322  -21.6566  -13.6009 C   0  0  0  0  0  0  0  0  0  0  0  0
   20.9869  -22.4416  -12.4291 C   0  0  0  0  0  0  0  0  0  0  0  0
   22.4527  -22.7004  -12.3361 C   0  0  0  0  0  0  0  0  0  0  0  0
   23.2434  -21.3877  -12.3269 C   0  0  2  0  0  0  0  0  0  0  0  0
   24.6436  -21.6910  -12.5201 N   0  0  0  0  0  0  0  0  0  0  0  0
   22.9662  -20.7256  -11.0271 C   0  0  0  0  0  0  0  0  0  0  0  0
   22.1753  -19.6160  -10.9575 O   0  0  0  0  0  0  0  0  0  0  0  0
   23.4719  -21.2020   -9.9991 O   0  0  0  0  0  0  0  0  0  0  0  0
  2  3  1  0
  2  8  1  0
  2  1  1  6
  4  3  1  0
  5  4  1  0
  6  5  1  0
  7  6  1  0
  8  9  2  0
 10 11  1  0
 10  8  1  0
 11 19  1  0
 12 13  1  0
 11 12  1  1
 13 14  2  0
 14 15  1  0
 16 15  2  0
 17 16  1  0
 18 13  1  0
 18 17  2  0
 19 20  2  0
 21 22  1  0
 22 24  1  0
 22 23  2  0
 24 25  1  0
 26 25  1  0
 27 26  1  0
 28 27  1  1
 28 30  1  0
 29 19  1  0
 29 28  1  0
 30 32  2  0
 30 31  1  0
M  END
$$$$
