KFR.pdb
     RDKit          3D

 32 32  0  0  1  0  0  0  0  0999 V2000
   28.4100  -22.8427  -17.0389 N   0  0  0  0  0  0  0  0  0  0  0  0
   28.1275  -21.5594  -16.4104 C   0  0  1  0  0  0  0  0  0  0  0  0
   27.1965  -20.7404  -17.2413 C   0  0  0  0  0  0  0  0  0  0  0  0
   27.8249  -20.3389  -18.5365 C   0  0  0  0  0  0  0  0  0  0  0  0
   28.4891  -19.0059  -18.4157 C   0  0  0  0  0  0  0  0  0  0  0  0
   29.0095  -18.6595  -19.8201 C   0  0  0  0  0  0  0  0  0  0  0  0
   29.6900  -17.3836  -19.7293 N   0  0  0  0  0  0  0  0  0  0  0  0
   27.4720  -21.8501  -15.0702 C   0  0  0  0  0  0  0  0  0  0  0  0
   26.6180  -22.7417  -14.9782 O   0  0  0  0  0  0  0  0  0  0  0  0
   27.8286  -21.1164  -13.9407 N   0  0  0  0  0  0  0  0  0  0  0  0
   27.2965  -21.2160  -12.6214 C   0  0  1  0  0  0  0  0  0  0  0  0
   28.2476  -20.4764  -11.7039 C   0  0  0  0  0  0  0  0  0  0  0  0
   27.7919  -20.4315  -10.3028 C   0  0  0  0  0  0  0  0  0  0  0  0
   28.2508  -21.3246   -9.3535 C   0  0  0  0  0  0  0  0  0  0  0  0
   27.8153  -21.2717   -8.0198 C   0  0  0  0  0  0  0  0  0  0  0  0
   26.9111  -20.2989   -7.6736 C   0  0  0  0  0  0  0  0  0  0  0  0
   26.4554  -19.4121   -8.6185 C   0  0  0  0  0  0  0  0  0  0  0  0
   26.8745  -19.4524   -9.9347 C   0  0  0  0  0  0  0  0  0  0  0  0
   25.9451  -20.6556  -12.4639 C   0  0  0  0  0  0  0  0  0  0  0  0
   25.6524  -19.5486  -12.9464 O   0  0  0  0  0  0  0  0  0  0  0  0
   18.6539  -22.8871  -11.0950 N   0  0  0  0  0  0  0  0  0  0  0  0
   18.1119  -22.4176  -12.3593 C   0  0  0  0  0  0  0  0  0  0  0  0
   16.9281  -22.1854  -12.4343 N   0  0  0  0  0  0  0  0  0  0  0  0
   19.0183  -22.2767  -13.4737 N   0  0  0  0  0  0  0  0  0  0  0  0
   20.4151  -22.5827  -13.4106 C   0  0  0  0  0  0  0  0  0  0  0  0
   21.2808  -21.6614  -12.6374 C   0  0  0  0  0  0  0  0  0  0  0  0
   22.7438  -21.9490  -12.6672 C   0  0  0  0  0  0  0  0  0  0  0  0
   23.5201  -20.9396  -11.8146 C   0  0  2  0  0  0  0  0  0  0  0  0
   24.9026  -21.3573  -11.7493 N   0  0  0  0  0  0  0  0  0  0  0  0
   22.8614  -20.9007  -10.4845 C   0  0  0  0  0  0  0  0  0  0  0  0
   21.6988  -20.2121  -10.2953 O   0  0  0  0  0  0  0  0  0  0  0  0
   23.3921  -21.5082   -9.5418 O   0  0  0  0  0  0  0  0  0  0  0  0
  2  3  1  0
  2  8  1  0
  2  1  1  6
  4  3  1  0
  5  4  1  0
  6  5  1  0
  7  6  1  0
  8  9  2  0
 10 11  1  0
 10  8  1  0
 11 19  1  0
 12 13  1  0
 11 12  1  1
 13 14  2  0
 14 15  1  0
 16 15  2  0
 17 16  1  0
 18 13  1  0
 18 17  2  0
 19 20  2  0
 21 22  1  0
 22 24  1  0
 22 23  2  0
 24 25  1  0
 26 25  1  0
 27 26  1  0
 28 27  1  6
 28 30  1  0
 29 19  1  0
 29 28  1  0
 30 32  2  0
 30 31  1  0
M  END
$$$$
