KFR.pdb
     RDKit          3D

 32 32  0  0  1  0  0  0  0  0999 V2000
   23.8687  -25.7145  -16.4893 N   0  0  0  0  0  0  0  0  0  0  0  0
   24.3403  -24.8383  -15.4256 C   0  0  1  0  0  0  0  0  0  0  0  0
   25.5641  -24.0907  -15.8396 C   0  0  0  0  0  0  0  0  0  0  0  0
   26.1929  -24.6954  -17.0531 C   0  0  0  0  0  0  0  0  0  0  0  0
   27.3156  -25.6057  -16.6740 C   0  0  0  0  0  0  0  0  0  0  0  0
   27.9842  -26.0304  -17.9914 C   0  0  0  0  0  0  0  0  0  0  0  0
   29.1167  -26.8687  -17.6539 N   0  0  0  0  0  0  0  0  0  0  0  0
   23.2267  -23.8456  -15.1344 C   0  0  0  0  0  0  0  0  0  0  0  0
   23.3725  -22.9925  -14.2491 O   0  0  0  0  0  0  0  0  0  0  0  0
   22.0390  -23.8901  -15.8614 N   0  0  0  0  0  0  0  0  0  0  0  0
   20.8671  -23.0972  -15.6836 C   0  0  1  0  0  0  0  0  0  0  0  0
   20.3075  -22.8195  -17.0632 C   0  0  0  0  0  0  0  0  0  0  0  0
   19.0781  -22.0066  -17.0426 C   0  0  0  0  0  0  0  0  0  0  0  0
   19.1102  -20.6318  -16.9078 C   0  0  0  0  0  0  0  0  0  0  0  0
   17.9345  -19.8645  -16.8941 C   0  0  0  0  0  0  0  0  0  0  0  0
   16.7346  -20.5188  -17.0202 C   0  0  0  0  0  0  0  0  0  0  0  0
   16.7042  -21.8856  -17.1537 C   0  0  0  0  0  0  0  0  0  0  0  0
   17.8528  -22.6538  -17.1682 C   0  0  0  0  0  0  0  0  0  0  0  0
   19.8228  -23.7268  -14.8602 C   0  0  0  0  0  0  0  0  0  0  0  0
   19.6091  -24.9492  -14.9243 O   0  0  0  0  0  0  0  0  0  0  0  0
   16.2597  -26.9324   -9.0141 N   0  0  0  0  0  0  0  0  0  0  0  0
   17.5548  -27.5654   -9.1999 C   0  0  0  0  0  0  0  0  0  0  0  0
   17.6262  -28.7707   -9.1458 N   0  0  0  0  0  0  0  0  0  0  0  0
   18.6998  -26.7134   -9.4154 N   0  0  0  0  0  0  0  0  0  0  0  0
   18.6171  -25.2972   -9.6054 C   0  0  0  0  0  0  0  0  0  0  0  0
   17.9827  -24.8126  -10.8539 C   0  0  0  0  0  0  0  0  0  0  0  0
   18.8675  -24.0745  -11.8007 C   0  0  0  0  0  0  0  0  0  0  0  0
   18.0847  -23.6031  -13.0309 C   0  0  2  0  0  0  0  0  0  0  0  0
   19.0036  -22.9637  -13.9456 N   0  0  0  0  0  0  0  0  0  0  0  0
   17.0213  -22.6894  -12.5422 C   0  0  0  0  0  0  0  0  0  0  0  0
   15.7693  -23.1536  -12.2614 O   0  0  0  0  0  0  0  0  0  0  0  0
   17.2933  -21.4878  -12.3948 O   0  0  0  0  0  0  0  0  0  0  0  0
  2  3  1  0
  2  8  1  0
  2  1  1  6
  4  3  1  0
  5  4  1  0
  6  5  1  0
  7  6  1  0
  8  9  2  0
 10 11  1  0
 10  8  1  0
 11 19  1  0
 12 13  1  0
 11 12  1  6
 13 14  2  0
 14 15  1  0
 16 15  2  0
 17 16  1  0
 18 13  1  0
 18 17  2  0
 19 20  2  0
 21 22  1  0
 22 24  1  0
 22 23  2  0
 24 25  1  0
 26 25  1  0
 27 26  1  0
 28 27  1  1
 28 30  1  0
 29 19  1  0
 29 28  1  0
 30 32  2  0
 30 31  1  0
M  END
$$$$
