KFR.pdb
     RDKit          3D

 32 32  0  0  1  0  0  0  0  0999 V2000
   13.6425  -21.2350   -6.7467 N   0  0  0  0  0  0  0  0  0  0  0  0
   13.0652  -22.1705   -5.7912 C   0  0  1  0  0  0  0  0  0  0  0  0
   12.5604  -23.3997   -6.4710 C   0  0  0  0  0  0  0  0  0  0  0  0
   11.5346  -23.0723   -7.5074 C   0  0  0  0  0  0  0  0  0  0  0  0
   10.9506  -24.3176   -8.0912 C   0  0  0  0  0  0  0  0  0  0  0  0
    9.8947  -23.8574   -9.1092 C   0  0  0  0  0  0  0  0  0  0  0  0
    9.3472  -25.0442   -9.7345 N   0  0  0  0  0  0  0  0  0  0  0  0
   14.1679  -22.5579   -4.8194 C   0  0  0  0  0  0  0  0  0  0  0  0
   15.3071  -22.8006   -5.2391 O   0  0  0  0  0  0  0  0  0  0  0  0
   13.9029  -22.6410   -3.4541 N   0  0  0  0  0  0  0  0  0  0  0  0
   14.7892  -23.0301   -2.4068 C   0  0  1  0  0  0  0  0  0  0  0  0
   14.0753  -22.7578   -1.0993 C   0  0  0  0  0  0  0  0  0  0  0  0
   14.8927  -23.0653    0.0882 C   0  0  0  0  0  0  0  0  0  0  0  0
   14.8333  -24.2919    0.7216 C   0  0  0  0  0  0  0  0  0  0  0  0
   15.6191  -24.5783    1.8494 C   0  0  0  0  0  0  0  0  0  0  0  0
   16.4607  -23.5995    2.3158 C   0  0  0  0  0  0  0  0  0  0  0  0
   16.5183  -22.3805    1.6853 C   0  0  0  0  0  0  0  0  0  0  0  0
   15.7506  -22.0841    0.5751 C   0  0  0  0  0  0  0  0  0  0  0  0
   15.1970  -24.4434   -2.4453 C   0  0  0  0  0  0  0  0  0  0  0  0
   14.3500  -25.3521   -2.4731 O   0  0  0  0  0  0  0  0  0  0  0  0
   19.2067  -25.7455   -7.8200 N   0  0  0  0  0  0  0  0  0  0  0  0
   17.8498  -25.2547   -7.9944 C   0  0  0  0  0  0  0  0  0  0  0  0
   17.4409  -25.0612   -9.1152 N   0  0  0  0  0  0  0  0  0  0  0  0
   17.0653  -24.9984   -6.8102 N   0  0  0  0  0  0  0  0  0  0  0  0
   17.5951  -25.0214   -5.4808 C   0  0  0  0  0  0  0  0  0  0  0  0
   17.8248  -26.3478   -4.8612 C   0  0  0  0  0  0  0  0  0  0  0  0
   18.2148  -26.3456   -3.4218 C   0  0  0  0  0  0  0  0  0  0  0  0
   16.9824  -26.2294   -2.5184 C   0  0  2  0  0  0  0  0  0  0  0  0
   16.5870  -24.8403   -2.4535 N   0  0  0  0  0  0  0  0  0  0  0  0
   17.3620  -26.7877   -1.1960 C   0  0  0  0  0  0  0  0  0  0  0  0
   17.4176  -28.1356   -0.9914 O   0  0  0  0  0  0  0  0  0  0  0  0
   17.6274  -26.0010   -0.2740 O   0  0  0  0  0  0  0  0  0  0  0  0
  2  3  1  0
  2  8  1  0
  2  1  1  6
  4  3  1  0
  5  4  1  0
  6  5  1  0
  7  6  1  0
  8  9  2  0
 10 11  1  0
 10  8  1  0
 11 19  1  0
 12 13  1  0
 11 12  1  1
 13 14  2  0
 14 15  1  0
 16 15  2  0
 17 16  1  0
 18 13  1  0
 18 17  2  0
 19 20  2  0
 21 22  1  0
 22 24  1  0
 22 23  2  0
 24 25  1  0
 26 25  1  0
 27 26  1  0
 28 27  1  6
 28 30  1  0
 29 19  1  0
 29 28  1  0
 30 32  2  0
 30 31  1  0
M  END
$$$$
