KFR.pdb
     RDKit          3D

 32 32  0  0  1  0  0  0  0  0999 V2000
   26.4562  -21.1608  -13.4179 N   0  0  0  0  0  0  0  0  0  0  0  0
   25.3661  -20.6057  -12.6273 C   0  0  1  0  0  0  0  0  0  0  0  0
   24.0420  -21.1078  -13.0988 C   0  0  0  0  0  0  0  0  0  0  0  0
   23.7280  -20.6195  -14.4760 C   0  0  0  0  0  0  0  0  0  0  0  0
   24.3753  -21.4843  -15.5084 C   0  0  0  0  0  0  0  0  0  0  0  0
   23.9354  -20.9244  -16.8708 C   0  0  0  0  0  0  0  0  0  0  0  0
   24.6242  -21.6827  -17.8955 N   0  0  0  0  0  0  0  0  0  0  0  0
   25.5823  -21.0497  -11.1897 C   0  0  0  0  0  0  0  0  0  0  0  0
   25.1664  -22.1530  -10.8125 O   0  0  0  0  0  0  0  0  0  0  0  0
   26.2488  -20.2191  -10.2914 N   0  0  0  0  0  0  0  0  0  0  0  0
   26.5391  -20.4616   -8.9164 C   0  0  1  0  0  0  0  0  0  0  0  0
   27.5922  -19.4550   -8.5025 C   0  0  0  0  0  0  0  0  0  0  0  0
   28.0148  -19.5953   -7.0974 C   0  0  0  0  0  0  0  0  0  0  0  0
   27.5167  -18.7823   -6.0972 C   0  0  0  0  0  0  0  0  0  0  0  0
   27.9209  -18.9259   -4.7603 C   0  0  0  0  0  0  0  0  0  0  0  0
   28.8345  -19.9063   -4.4635 C   0  0  0  0  0  0  0  0  0  0  0  0
   29.3292  -20.7134   -5.4589 C   0  0  0  0  0  0  0  0  0  0  0  0
   28.9411  -20.5833   -6.7788 C   0  0  0  0  0  0  0  0  0  0  0  0
   25.3808  -20.3411   -8.0171 C   0  0  0  0  0  0  0  0  0  0  0  0
   24.4892  -19.5030   -8.2327 O   0  0  0  0  0  0  0  0  0  0  0  0
   18.8981  -24.9980   -7.3240 N   0  0  0  0  0  0  0  0  0  0  0  0
   19.2174  -23.7829   -8.0548 C   0  0  0  0  0  0  0  0  0  0  0  0
   18.6416  -23.5609   -9.0940 N   0  0  0  0  0  0  0  0  0  0  0  0
   20.2310  -22.9118   -7.5097 N   0  0  0  0  0  0  0  0  0  0  0  0
   20.6624  -22.9443   -6.1454 C   0  0  0  0  0  0  0  0  0  0  0  0
   21.7420  -22.0097   -5.7491 C   0  0  0  0  0  0  0  0  0  0  0  0
   22.9674  -22.0178   -6.5990 C   0  0  0  0  0  0  0  0  0  0  0  0
   24.0508  -21.1075   -6.0105 C   0  0  2  0  0  0  0  0  0  0  0  0
   25.2238  -21.1826   -6.8521 N   0  0  0  0  0  0  0  0  0  0  0  0
   24.3002  -21.5741   -4.6232 C   0  0  0  0  0  0  0  0  0  0  0  0
   25.2394  -22.5283   -4.3602 O   0  0  0  0  0  0  0  0  0  0  0  0
   23.6332  -21.0786   -3.7018 O   0  0  0  0  0  0  0  0  0  0  0  0
  2  3  1  0
  2  8  1  0
  2  1  1  6
  4  3  1  0
  5  4  1  0
  6  5  1  0
  7  6  1  0
  8  9  2  0
 10 11  1  0
 10  8  1  0
 11 19  1  0
 12 13  1  0
 11 12  1  1
 13 14  2  0
 14 15  1  0
 16 15  2  0
 17 16  1  0
 18 13  1  0
 18 17  2  0
 19 20  2  0
 21 22  1  0
 22 24  1  0
 22 23  2  0
 24 25  1  0
 26 25  1  0
 27 26  1  0
 28 27  1  6
 28 30  1  0
 29 19  1  0
 29 28  1  0
 30 32  2  0
 30 31  1  0
M  END
$$$$
