GWS.pdb
     RDKit          3D

 25 26  0  0  1  0  0  0  0  0999 V2000
   28.6419  -23.4317  -16.1630 N   0  0  0  0  0  0  0  0  0  0  0  0
   28.0139  -22.1671  -15.9643 C   0  0  0  0  0  0  0  0  0  0  0  0
   27.0889  -22.1531  -14.7905 C   0  0  0  0  0  0  0  0  0  0  0  0
   26.3844  -23.1585  -14.4763 O   0  0  0  0  0  0  0  0  0  0  0  0
   26.9637  -20.9998  -13.9742 N   0  0  0  0  0  0  0  0  0  0  0  0
   25.9459  -20.8650  -12.9522 C   0  0  1  0  0  0  0  0  0  0  0  0
   26.4141  -19.9790  -11.8245 C   0  0  0  0  0  0  0  0  0  0  0  0
   27.4194  -20.5287  -10.9431 C   0  0  0  0  0  0  0  0  0  0  0  0
   28.6330  -21.0593  -11.3745 C   0  0  0  0  0  0  0  0  0  0  0  0
   29.3617  -21.4656  -10.3253 N   0  0  0  0  0  0  0  0  0  0  0  0
   28.6339  -21.2042   -9.2250 C   0  0  0  0  0  0  0  0  0  0  0  0
   28.9079  -21.4254   -7.9066 C   0  0  0  0  0  0  0  0  0  0  0  0
   28.0108  -21.0873   -6.9015 C   0  0  0  0  0  0  0  0  0  0  0  0
   26.8039  -20.5079   -7.2682 C   0  0  0  0  0  0  0  0  0  0  0  0
   26.5457  -20.2935   -8.5882 C   0  0  0  0  0  0  0  0  0  0  0  0
   27.4332  -20.6270   -9.5849 C   0  0  0  0  0  0  0  0  0  0  0  0
   24.5980  -20.6031  -13.4556 C   0  0  0  0  0  0  0  0  0  0  0  0
   24.3950  -19.5497  -14.1294 O   0  0  0  0  0  0  0  0  0  0  0  0
   21.3490  -23.2262  -12.8098 O   0  0  0  0  0  0  0  0  0  0  0  0
   21.5210  -22.5599  -14.0237 C   0  0  0  0  0  0  0  0  0  0  0  0
   22.1670  -21.1743  -13.8008 C   0  0  2  0  0  0  0  0  0  0  0  0
   23.4850  -21.4655  -13.2428 N   0  0  0  0  0  0  0  0  0  0  0  0
   21.2750  -20.4980  -12.8317 C   0  0  0  0  0  0  0  0  0  0  0  0
   21.6846  -20.2738  -11.6664 O   0  0  0  0  0  0  0  0  0  0  0  0
   19.9937  -20.0989  -13.1612 O   0  0  0  0  0  0  0  0  0  0  0  0
  1  2  1  0
  3  5  1  0
  3  2  1  0
  4  3  2  0
  6  5  1  0
  7  8  1  0
  6  7  1  1
  8 16  1  0
  9  8  2  0
  9 10  1  0
 10 11  1  0
 11 12  1  0
 12 13  2  0
 14 13  1  0
 15 14  2  0
 16 11  2  0
 16 15  1  0
 17 22  1  0
 17  6  1  0
 18 17  2  0
 19 20  1  0
 21 20  1  1
 21 22  1  0
 21 23  1  0
 23 25  1  0
 24 23  2  0
M  END
$$$$
