GWS.pdb
     RDKit          3D

 25 26  0  0  1  0  0  0  0  0999 V2000
   28.5037  -23.7375  -16.6473 N   0  0  0  0  0  0  0  0  0  0  0  0
   28.1543  -22.3822  -16.3747 C   0  0  0  0  0  0  0  0  0  0  0  0
   27.1938  -22.2448  -15.2379 C   0  0  0  0  0  0  0  0  0  0  0  0
   26.4751  -23.2108  -14.8429 O   0  0  0  0  0  0  0  0  0  0  0  0
   27.0492  -21.0126  -14.5500 N   0  0  0  0  0  0  0  0  0  0  0  0
   26.0944  -20.8161  -13.4785 C   0  0  1  0  0  0  0  0  0  0  0  0
   26.5787  -19.7801  -12.4946 C   0  0  0  0  0  0  0  0  0  0  0  0
   27.5021  -20.2329  -11.4788 C   0  0  0  0  0  0  0  0  0  0  0  0
   28.8042  -20.6555  -11.7370 C   0  0  0  0  0  0  0  0  0  0  0  0
   29.4197  -20.9891  -10.5939 N   0  0  0  0  0  0  0  0  0  0  0  0
   28.5320  -20.7876   -9.6040 C   0  0  0  0  0  0  0  0  0  0  0  0
   28.6464  -20.9761   -8.2572 C   0  0  0  0  0  0  0  0  0  0  0  0
   27.5975  -20.7139   -7.3854 C   0  0  0  0  0  0  0  0  0  0  0  0
   26.4039  -20.2466   -7.9182 C   0  0  0  0  0  0  0  0  0  0  0  0
   26.3057  -20.0635   -9.2642 C   0  0  0  0  0  0  0  0  0  0  0  0
   27.3437  -20.3220  -10.1291 C   0  0  0  0  0  0  0  0  0  0  0  0
   24.7023  -20.6898  -13.9089 C   0  0  0  0  0  0  0  0  0  0  0  0
   24.4284  -19.8910  -14.8531 O   0  0  0  0  0  0  0  0  0  0  0  0
   20.2449  -22.6432  -13.8791 O   0  0  0  0  0  0  0  0  0  0  0  0
   21.5759  -22.6293  -13.4603 C   0  0  0  0  0  0  0  0  0  0  0  0
   22.2562  -21.2960  -13.8429 C   0  0  2  0  0  0  0  0  0  0  0  0
   23.6207  -21.4176  -13.3360 N   0  0  0  0  0  0  0  0  0  0  0  0
   21.4742  -20.2599  -13.1306 C   0  0  0  0  0  0  0  0  0  0  0  0
   21.8757  -19.8377  -12.0187 O   0  0  0  0  0  0  0  0  0  0  0  0
   20.3057  -19.7324  -13.6459 O   0  0  0  0  0  0  0  0  0  0  0  0
  1  2  1  0
  3  5  1  0
  3  2  1  0
  4  3  2  0
  6  5  1  0
  7  8  1  0
  6  7  1  6
  8 16  1  0
  9  8  2  0
  9 10  1  0
 10 11  1  0
 11 12  1  0
 12 13  2  0
 14 13  1  0
 15 14  2  0
 16 11  2  0
 16 15  1  0
 17 22  1  0
 17  6  1  0
 18 17  2  0
 19 20  1  0
 21 20  1  1
 21 22  1  0
 21 23  1  0
 23 25  1  0
 24 23  2  0
M  END
$$$$
