GWS.pdb
     RDKit          3D

 25 26  0  0  1  0  0  0  0  0999 V2000
   21.0682  -20.9954  -11.0940 N   0  0  0  0  0  0  0  0  0  0  0  0
   21.8720  -21.4357  -12.1864 C   0  0  0  0  0  0  0  0  0  0  0  0
   23.2204  -20.7918  -12.2152 C   0  0  0  0  0  0  0  0  0  0  0  0
   23.3731  -19.5595  -12.4679 O   0  0  0  0  0  0  0  0  0  0  0  0
   24.3942  -21.5455  -11.9573 N   0  0  0  0  0  0  0  0  0  0  0  0
   25.7281  -20.9974  -12.0943 C   0  0  1  0  0  0  0  0  0  0  0  0
   26.6677  -21.5756  -11.0654 C   0  0  0  0  0  0  0  0  0  0  0  0
   26.6575  -20.9576   -9.7587 C   0  0  0  0  0  0  0  0  0  0  0  0
   25.5365  -20.3652   -9.1817 C   0  0  0  0  0  0  0  0  0  0  0  0
   25.8325  -19.9038   -7.9584 N   0  0  0  0  0  0  0  0  0  0  0  0
   27.1282  -20.1906   -7.7404 C   0  0  0  0  0  0  0  0  0  0  0  0
   27.9241  -19.9359   -6.6616 C   0  0  0  0  0  0  0  0  0  0  0  0
   29.2613  -20.3101   -6.6286 C   0  0  0  0  0  0  0  0  0  0  0  0
   29.7867  -20.9621   -7.7358 C   0  0  0  0  0  0  0  0  0  0  0  0
   28.9793  -21.2091   -8.8043 C   0  0  0  0  0  0  0  0  0  0  0  0
   27.6546  -20.8398   -8.8386 C   0  0  0  0  0  0  0  0  0  0  0  0
   26.2342  -20.9428  -13.4654 C   0  0  0  0  0  0  0  0  0  0  0  0
   26.0371  -21.9366  -14.2258 O   0  0  0  0  0  0  0  0  0  0  0  0
   28.7617  -18.4074  -16.8079 O   0  0  0  0  0  0  0  0  0  0  0  0
   28.1740  -18.4953  -15.5453 C   0  0  0  0  0  0  0  0  0  0  0  0
   27.3561  -19.7992  -15.4119 C   0  0  2  0  0  0  0  0  0  0  0  0
   26.9369  -19.8319  -14.0130 N   0  0  0  0  0  0  0  0  0  0  0  0
   28.3150  -20.8772  -15.7444 C   0  0  0  0  0  0  0  0  0  0  0  0
   28.9846  -21.4135  -14.8280 O   0  0  0  0  0  0  0  0  0  0  0  0
   28.5059  -21.3224  -17.0385 O   0  0  0  0  0  0  0  0  0  0  0  0
  1  2  1  0
  3  5  1  0
  3  2  1  0
  4  3  2  0
  6  5  1  0
  7  8  1  0
  6  7  1  1
  8 16  1  0
  9  8  2  0
  9 10  1  0
 10 11  1  0
 11 12  1  0
 12 13  2  0
 14 13  1  0
 15 14  2  0
 16 11  2  0
 16 15  1  0
 17 22  1  0
 17  6  1  0
 18 17  2  0
 19 20  1  0
 21 20  1  1
 21 22  1  0
 21 23  1  0
 23 25  1  0
 24 23  2  0
M  END
$$$$
