GWS.pdb
     RDKit          3D

 25 26  0  0  1  0  0  0  0  0999 V2000
   28.0545  -22.6160  -16.5818 N   0  0  0  0  0  0  0  0  0  0  0  0
   27.2761  -21.4518  -16.3134 C   0  0  0  0  0  0  0  0  0  0  0  0
   26.2258  -21.6791  -15.2748 C   0  0  0  0  0  0  0  0  0  0  0  0
   25.9992  -22.8259  -14.7857 O   0  0  0  0  0  0  0  0  0  0  0  0
   25.4336  -20.6061  -14.7915 N   0  0  0  0  0  0  0  0  0  0  0  0
   24.4229  -20.7724  -13.7671 C   0  0  1  0  0  0  0  0  0  0  0  0
   24.6238  -19.7968  -12.6341 C   0  0  0  0  0  0  0  0  0  0  0  0
   23.9806  -20.1188  -11.3802 C   0  0  0  0  0  0  0  0  0  0  0  0
   22.6003  -20.1656  -11.1978 C   0  0  0  0  0  0  0  0  0  0  0  0
   22.3098  -20.5162   -9.9370 N   0  0  0  0  0  0  0  0  0  0  0  0
   23.4836  -20.6951   -9.3055 C   0  0  0  0  0  0  0  0  0  0  0  0
   23.7523  -21.0493   -8.0153 C   0  0  0  0  0  0  0  0  0  0  0  0
   25.0519  -21.1771   -7.5424 C   0  0  0  0  0  0  0  0  0  0  0  0
   26.0967  -20.9332   -8.4233 C   0  0  0  0  0  0  0  0  0  0  0  0
   25.8119  -20.5809   -9.7077 C   0  0  0  0  0  0  0  0  0  0  0  0
   24.5254  -20.4545  -10.1780 C   0  0  0  0  0  0  0  0  0  0  0  0
   23.0544  -20.9012  -14.2667 C   0  0  0  0  0  0  0  0  0  0  0  0
   22.5892  -19.9849  -15.0074 O   0  0  0  0  0  0  0  0  0  0  0  0
   20.4117  -24.1859  -13.3889 O   0  0  0  0  0  0  0  0  0  0  0  0
   20.6017  -23.6321  -14.6555 C   0  0  0  0  0  0  0  0  0  0  0  0
   20.8625  -22.1126  -14.5551 C   0  0  2  0  0  0  0  0  0  0  0  0
   22.2003  -22.0037  -13.9790 N   0  0  0  0  0  0  0  0  0  0  0  0
   19.8078  -21.6122  -13.6444 C   0  0  0  0  0  0  0  0  0  0  0  0
   18.6868  -21.2947  -14.1118 O   0  0  0  0  0  0  0  0  0  0  0  0
   20.0093  -21.4781  -12.2840 O   0  0  0  0  0  0  0  0  0  0  0  0
  1  2  1  0
  3  5  1  0
  3  2  1  0
  4  3  2  0
  6  5  1  0
  7  8  1  0
  6  7  1  1
  8 16  1  0
  9  8  2  0
  9 10  1  0
 10 11  1  0
 11 12  1  0
 12 13  2  0
 14 13  1  0
 15 14  2  0
 16 11  2  0
 16 15  1  0
 17 22  1  0
 17  6  1  0
 18 17  2  0
 19 20  1  0
 21 20  1  1
 21 22  1  0
 21 23  1  0
 23 25  1  0
 24 23  2  0
M  END
$$$$
