GWS.pdb
     RDKit          3D

 25 26  0  0  1  0  0  0  0  0999 V2000
   31.2060  -21.6243  -10.8786 N   0  0  0  0  0  0  0  0  0  0  0  0
   30.1800  -20.6363  -10.8132 C   0  0  0  0  0  0  0  0  0  0  0  0
   28.8420  -21.2067  -10.4695 C   0  0  0  0  0  0  0  0  0  0  0  0
   28.6258  -22.4552  -10.4544 O   0  0  0  0  0  0  0  0  0  0  0  0
   27.7507  -20.3612  -10.1431 N   0  0  0  0  0  0  0  0  0  0  0  0
   26.3972  -20.8505   -9.9782 C   0  0  1  0  0  0  0  0  0  0  0  0
   25.8343  -20.4657   -8.6325 C   0  0  0  0  0  0  0  0  0  0  0  0
   26.7677  -19.9247   -7.6704 C   0  0  0  0  0  0  0  0  0  0  0  0
   27.2154  -18.6055   -7.6704 C   0  0  0  0  0  0  0  0  0  0  0  0
   28.0518  -18.3986   -6.6436 N   0  0  0  0  0  0  0  0  0  0  0  0
   28.1490  -19.5661   -5.9831 C   0  0  0  0  0  0  0  0  0  0  0  0
   28.8705  -19.9011   -4.8743 C   0  0  0  0  0  0  0  0  0  0  0  0
   28.8450  -21.1824   -4.3388 C   0  0  0  0  0  0  0  0  0  0  0  0
   28.0559  -22.1382   -4.9639 C   0  0  0  0  0  0  0  0  0  0  0  0
   27.3417  -21.7880   -6.0694 C   0  0  0  0  0  0  0  0  0  0  0  0
   27.3653  -20.5194   -6.6008 C   0  0  0  0  0  0  0  0  0  0  0  0
   25.5185  -20.6315  -11.1267 C   0  0  0  0  0  0  0  0  0  0  0  0
   25.4214  -19.4617  -11.6031 O   0  0  0  0  0  0  0  0  0  0  0  0
   23.7126  -23.7923  -12.8624 O   0  0  0  0  0  0  0  0  0  0  0  0
   23.8416  -22.6836  -13.6998 C   0  0  0  0  0  0  0  0  0  0  0  0
   23.8642  -21.3760  -12.8772 C   0  0  2  0  0  0  0  0  0  0  0  0
   24.7598  -21.6578  -11.7583 N   0  0  0  0  0  0  0  0  0  0  0  0
   22.4607  -21.1806  -12.4481 C   0  0  0  0  0  0  0  0  0  0  0  0
   22.1808  -21.1926  -11.2244 O   0  0  0  0  0  0  0  0  0  0  0  0
   21.4332  -20.9834  -13.3507 O   0  0  0  0  0  0  0  0  0  0  0  0
  1  2  1  0
  3  5  1  0
  3  2  1  0
  4  3  2  0
  6  5  1  0
  7  8  1  0
  6  7  1  1
  8 16  1  0
  9  8  2  0
  9 10  1  0
 10 11  1  0
 11 12  1  0
 12 13  2  0
 14 13  1  0
 15 14  2  0
 16 11  2  0
 16 15  1  0
 17 22  1  0
 17  6  1  0
 18 17  2  0
 19 20  1  0
 21 20  1  6
 21 22  1  0
 21 23  1  0
 23 25  1  0
 24 23  2  0
M  END
$$$$
