GWS.pdb
     RDKit          3D

 25 26  0  0  1  0  0  0  0  0999 V2000
   31.1059  -21.3665  -11.0537 N   0  0  0  0  0  0  0  0  0  0  0  0
   30.1150  -20.3757  -10.7899 C   0  0  0  0  0  0  0  0  0  0  0  0
   28.7829  -20.9599  -10.4465 C   0  0  0  0  0  0  0  0  0  0  0  0
   28.5306  -22.1932  -10.5917 O   0  0  0  0  0  0  0  0  0  0  0  0
   27.7383  -20.1455   -9.9386 N   0  0  0  0  0  0  0  0  0  0  0  0
   26.4059  -20.6482   -9.6729 C   0  0  1  0  0  0  0  0  0  0  0  0
   25.8801  -20.1396   -8.3536 C   0  0  0  0  0  0  0  0  0  0  0  0
   26.8595  -19.6404   -7.4148 C   0  0  0  0  0  0  0  0  0  0  0  0
   27.3997  -18.3570   -7.4555 C   0  0  0  0  0  0  0  0  0  0  0  0
   28.2592  -18.1823   -6.4418 N   0  0  0  0  0  0  0  0  0  0  0  0
   28.2800  -19.3352   -5.7498 C   0  0  0  0  0  0  0  0  0  0  0  0
   28.9872  -19.6904   -4.6380 C   0  0  0  0  0  0  0  0  0  0  0  0
   28.8761  -20.9514   -4.0666 C   0  0  0  0  0  0  0  0  0  0  0  0
   28.0148  -21.8653   -4.6581 C   0  0  0  0  0  0  0  0  0  0  0  0
   27.3159  -21.4954   -5.7671 C   0  0  0  0  0  0  0  0  0  0  0  0
   27.4241  -20.2467   -6.3340 C   0  0  0  0  0  0  0  0  0  0  0  0
   25.4815  -20.5716  -10.8036 C   0  0  0  0  0  0  0  0  0  0  0  0
   25.2643  -19.4426  -11.3355 O   0  0  0  0  0  0  0  0  0  0  0  0
   25.3114  -22.8329  -13.9240 O   0  0  0  0  0  0  0  0  0  0  0  0
   24.0581  -22.8343  -13.3105 C   0  0  0  0  0  0  0  0  0  0  0  0
   23.8611  -21.5564  -12.4649 C   0  0  2  0  0  0  0  0  0  0  0  0
   24.8050  -21.6949  -11.3589 N   0  0  0  0  0  0  0  0  0  0  0  0
   22.4501  -21.6165  -12.0205 C   0  0  0  0  0  0  0  0  0  0  0  0
   22.1916  -21.7618  -10.8007 O   0  0  0  0  0  0  0  0  0  0  0  0
   21.3926  -21.5185  -12.9046 O   0  0  0  0  0  0  0  0  0  0  0  0
  1  2  1  0
  3  5  1  0
  3  2  1  0
  4  3  2  0
  6  5  1  0
  7  8  1  0
  6  7  1  1
  8 16  1  0
  9  8  2  0
  9 10  1  0
 10 11  1  0
 11 12  1  0
 12 13  2  0
 14 13  1  0
 15 14  2  0
 16 11  2  0
 16 15  1  0
 17 22  1  0
 17  6  1  0
 18 17  2  0
 19 20  1  0
 21 20  1  6
 21 22  1  0
 21 23  1  0
 23 25  1  0
 24 23  2  0
M  END
$$$$
