GWS.pdb
     RDKit          3D

 25 26  0  0  1  0  0  0  0  0999 V2000
   29.0566  -21.5359  -14.3133 N   0  0  0  0  0  0  0  0  0  0  0  0
   28.5647  -20.5241  -13.4372 C   0  0  0  0  0  0  0  0  0  0  0  0
   27.5760  -21.0430  -12.4438 C   0  0  0  0  0  0  0  0  0  0  0  0
   26.9514  -22.1313  -12.6205 O   0  0  0  0  0  0  0  0  0  0  0  0
   27.2965  -20.3278  -11.2510 N   0  0  0  0  0  0  0  0  0  0  0  0
   26.1237  -20.5787  -10.4386 C   0  0  1  0  0  0  0  0  0  0  0  0
   26.2958  -20.0336   -9.0425 C   0  0  0  0  0  0  0  0  0  0  0  0
   27.5172  -20.3871   -8.3550 C   0  0  0  0  0  0  0  0  0  0  0  0
   28.5094  -21.2043   -8.8919 C   0  0  0  0  0  0  0  0  0  0  0  0
   29.5279  -21.3267   -8.0291 N   0  0  0  0  0  0  0  0  0  0  0  0
   29.2049  -20.6002   -6.9445 C   0  0  0  0  0  0  0  0  0  0  0  0
   29.8863  -20.3923   -5.7805 C   0  0  0  0  0  0  0  0  0  0  0  0
   29.3744  -19.6027   -4.7589 C   0  0  0  0  0  0  0  0  0  0  0  0
   28.1305  -19.0154   -4.9452 C   0  0  0  0  0  0  0  0  0  0  0  0
   27.4634  -19.2325   -6.1125 C   0  0  0  0  0  0  0  0  0  0  0  0
   27.9690  -20.0136   -7.1257 C   0  0  0  0  0  0  0  0  0  0  0  0
   24.8480  -20.2821  -11.0896 C   0  0  0  0  0  0  0  0  0  0  0  0
   24.6492  -19.1117  -11.5317 O   0  0  0  0  0  0  0  0  0  0  0  0
   21.1983  -22.8223  -12.5898 O   0  0  0  0  0  0  0  0  0  0  0  0
   22.3936  -22.1885  -12.9313 C   0  0  0  0  0  0  0  0  0  0  0  0
   22.6142  -20.9309  -12.0614 C   0  0  2  0  0  0  0  0  0  0  0  0
   23.8032  -21.2329  -11.2685 N   0  0  0  0  0  0  0  0  0  0  0  0
   21.3897  -20.8287  -11.2355 C   0  0  0  0  0  0  0  0  0  0  0  0
   21.4448  -21.1017  -10.0114 O   0  0  0  0  0  0  0  0  0  0  0  0
   20.1731  -20.4406  -11.7634 O   0  0  0  0  0  0  0  0  0  0  0  0
  1  2  1  0
  3  5  1  0
  3  2  1  0
  4  3  2  0
  6  5  1  0
  7  8  1  0
  6  7  1  1
  8 16  1  0
  9  8  2  0
  9 10  1  0
 10 11  1  0
 11 12  1  0
 12 13  2  0
 14 13  1  0
 15 14  2  0
 16 11  2  0
 16 15  1  0
 17 22  1  0
 17  6  1  0
 18 17  2  0
 19 20  1  0
 21 20  1  6
 21 22  1  0
 21 23  1  0
 23 25  1  0
 24 23  2  0
M  END
$$$$
