GWS.pdb
     RDKit          3D

 25 26  0  0  1  0  0  0  0  0999 V2000
   31.1967  -21.6539  -10.1786 N   0  0  0  0  0  0  0  0  0  0  0  0
   30.2005  -20.6659  -10.4329 C   0  0  0  0  0  0  0  0  0  0  0  0
   28.8215  -21.1249  -10.0846 C   0  0  0  0  0  0  0  0  0  0  0  0
   28.5700  -22.3279   -9.7754 O   0  0  0  0  0  0  0  0  0  0  0  0
   27.7291  -20.2200  -10.0869 N   0  0  0  0  0  0  0  0  0  0  0  0
   26.3699  -20.6252   -9.7922 C   0  0  1  0  0  0  0  0  0  0  0  0
   25.8501  -19.9424   -8.5515 C   0  0  0  0  0  0  0  0  0  0  0  0
   26.8329  -19.5574   -7.5638 C   0  0  0  0  0  0  0  0  0  0  0  0
   27.4264  -18.2988   -7.4994 C   0  0  0  0  0  0  0  0  0  0  0  0
   28.2748  -18.2375   -6.4633 N   0  0  0  0  0  0  0  0  0  0  0  0
   28.2359  -19.4391   -5.8605 C   0  0  0  0  0  0  0  0  0  0  0  0
   28.9084  -19.9066   -4.7691 C   0  0  0  0  0  0  0  0  0  0  0  0
   28.7355  -21.2012   -4.2966 C   0  0  0  0  0  0  0  0  0  0  0  0
   27.8474  -22.0305   -4.9678 C   0  0  0  0  0  0  0  0  0  0  0  0
   27.1837  -21.5488   -6.0552 C   0  0  0  0  0  0  0  0  0  0  0  0
   27.3533  -20.2668   -6.5242 C   0  0  0  0  0  0  0  0  0  0  0  0
   25.4672  -20.6375  -10.9428 C   0  0  0  0  0  0  0  0  0  0  0  0
   25.3618  -19.5874  -11.6435 O   0  0  0  0  0  0  0  0  0  0  0  0
   22.5000  -23.2618  -13.8160 O   0  0  0  0  0  0  0  0  0  0  0  0
   23.4431  -23.1764  -12.7912 C   0  0  0  0  0  0  0  0  0  0  0  0
   23.7501  -21.7008  -12.4514 C   0  0  2  0  0  0  0  0  0  0  0  0
   24.6934  -21.7656  -11.3382 N   0  0  0  0  0  0  0  0  0  0  0  0
   22.4426  -21.1286  -12.0574 C   0  0  0  0  0  0  0  0  0  0  0  0
   22.1148  -21.1117  -10.8458 O   0  0  0  0  0  0  0  0  0  0  0  0
   21.5569  -20.6062  -12.9805 O   0  0  0  0  0  0  0  0  0  0  0  0
  1  2  1  0
  3  5  1  0
  3  2  1  0
  4  3  2  0
  6  5  1  0
  7  8  1  0
  6  7  1  1
  8 16  1  0
  9  8  2  0
  9 10  1  0
 10 11  1  0
 11 12  1  0
 12 13  2  0
 14 13  1  0
 15 14  2  0
 16 11  2  0
 16 15  1  0
 17 22  1  0
 17  6  1  0
 18 17  2  0
 19 20  1  0
 21 20  1  1
 21 22  1  0
 21 23  1  0
 23 25  1  0
 24 23  2  0
M  END
$$$$
