GWS.pdb
     RDKit          3D

 25 26  0  0  1  0  0  0  0  0999 V2000
   31.3450  -21.5020  -10.3376 N   0  0  0  0  0  0  0  0  0  0  0  0
   30.3252  -20.5146  -10.4736 C   0  0  0  0  0  0  0  0  0  0  0  0
   28.9658  -21.0282  -10.1244 C   0  0  0  0  0  0  0  0  0  0  0  0
   28.7591  -22.2445   -9.8352 O   0  0  0  0  0  0  0  0  0  0  0  0
   27.8423  -20.1624  -10.1032 N   0  0  0  0  0  0  0  0  0  0  0  0
   26.4984  -20.6229   -9.8198 C   0  0  1  0  0  0  0  0  0  0  0  0
   25.9196  -19.9208   -8.6165 C   0  0  0  0  0  0  0  0  0  0  0  0
   26.8486  -19.5538   -7.5716 C   0  0  0  0  0  0  0  0  0  0  0  0
   27.4306  -18.2942   -7.4485 C   0  0  0  0  0  0  0  0  0  0  0  0
   28.2248  -18.2527   -6.3694 N   0  0  0  0  0  0  0  0  0  0  0  0
   28.1623  -19.4678   -5.7967 C   0  0  0  0  0  0  0  0  0  0  0  0
   28.7812  -19.9570   -4.6832 C   0  0  0  0  0  0  0  0  0  0  0  0
   28.5921  -21.2629   -4.2496 C   0  0  0  0  0  0  0  0  0  0  0  0
   27.7443  -22.0808   -4.9838 C   0  0  0  0  0  0  0  0  0  0  0  0
   27.1340  -21.5775   -6.0925 C   0  0  0  0  0  0  0  0  0  0  0  0
   27.3196  -20.2843   -6.5231 C   0  0  0  0  0  0  0  0  0  0  0  0
   25.6221  -20.7223  -10.9866 C   0  0  0  0  0  0  0  0  0  0  0  0
   25.3815  -19.6746  -11.6567 O   0  0  0  0  0  0  0  0  0  0  0  0
   23.1411  -23.6697  -14.0097 O   0  0  0  0  0  0  0  0  0  0  0  0
   23.9531  -23.4816  -12.8907 C   0  0  0  0  0  0  0  0  0  0  0  0
   24.1509  -21.9763  -12.6047 C   0  0  2  0  0  0  0  0  0  0  0  0
   25.0183  -21.9332  -11.4303 N   0  0  0  0  0  0  0  0  0  0  0  0
   22.7889  -21.4671  -12.3257 C   0  0  0  0  0  0  0  0  0  0  0  0
   22.4533  -21.2149  -11.1427 O   0  0  0  0  0  0  0  0  0  0  0  0
   21.8601  -21.2559  -13.3268 O   0  0  0  0  0  0  0  0  0  0  0  0
  1  2  1  0
  3  5  1  0
  3  2  1  0
  4  3  2  0
  6  5  1  0
  7  8  1  0
  6  7  1  1
  8 16  1  0
  9  8  2  0
  9 10  1  0
 10 11  1  0
 11 12  1  0
 12 13  2  0
 14 13  1  0
 15 14  2  0
 16 11  2  0
 16 15  1  0
 17 22  1  0
 17  6  1  0
 18 17  2  0
 19 20  1  0
 21 20  1  1
 21 22  1  0
 21 23  1  0
 23 25  1  0
 24 23  2  0
M  END
$$$$
