GWS.pdb
     RDKit          3D

 25 26  0  0  1  0  0  0  0  0999 V2000
   28.9808  -23.6705  -16.8365 N   0  0  0  0  0  0  0  0  0  0  0  0
   28.6212  -22.3193  -16.5569 C   0  0  0  0  0  0  0  0  0  0  0  0
   27.6159  -22.1988  -15.4576 C   0  0  0  0  0  0  0  0  0  0  0  0
   26.9904  -23.2031  -15.0038 O   0  0  0  0  0  0  0  0  0  0  0  0
   27.3208  -20.9400  -14.8737 N   0  0  0  0  0  0  0  0  0  0  0  0
   26.3626  -20.7751  -13.7999 C   0  0  1  0  0  0  0  0  0  0  0  0
   26.8806  -19.8330  -12.7416 C   0  0  0  0  0  0  0  0  0  0  0  0
   27.6241  -20.4267  -11.6533 C   0  0  0  0  0  0  0  0  0  0  0  0
   28.9325  -20.8925  -11.7616 C   0  0  0  0  0  0  0  0  0  0  0  0
   29.3575  -21.3631  -10.5806 N   0  0  0  0  0  0  0  0  0  0  0  0
   28.3409  -21.2071   -9.7141 C   0  0  0  0  0  0  0  0  0  0  0  0
   28.2462  -21.5254   -8.3904 C   0  0  0  0  0  0  0  0  0  0  0  0
   27.0903  -21.2894   -7.6574 C   0  0  0  0  0  0  0  0  0  0  0  0
   26.0086  -20.7115   -8.3077 C   0  0  0  0  0  0  0  0  0  0  0  0
   26.1190  -20.3995   -9.6288 C   0  0  0  0  0  0  0  0  0  0  0  0
   27.2632  -20.6319  -10.3563 C   0  0  0  0  0  0  0  0  0  0  0  0
   24.9830  -20.5559  -14.2332 C   0  0  0  0  0  0  0  0  0  0  0  0
   24.7389  -19.5935  -15.0199 O   0  0  0  0  0  0  0  0  0  0  0  0
   22.2426  -23.4211  -13.6358 O   0  0  0  0  0  0  0  0  0  0  0  0
   21.9673  -22.5116  -14.6576 C   0  0  0  0  0  0  0  0  0  0  0  0
   22.5257  -21.1134  -14.3109 C   0  0  2  0  0  0  0  0  0  0  0  0
   23.8822  -21.3648  -13.8311 N   0  0  0  0  0  0  0  0  0  0  0  0
   21.6297  -20.6069  -13.2466 C   0  0  0  0  0  0  0  0  0  0  0  0
   22.0920  -20.3925  -12.0993 O   0  0  0  0  0  0  0  0  0  0  0  0
   20.2885  -20.3578  -13.4668 O   0  0  0  0  0  0  0  0  0  0  0  0
  1  2  1  0
  3  5  1  0
  3  2  1  0
  4  3  2  0
  6  5  1  0
  7  8  1  0
  6  7  1  6
  8 16  1  0
  9  8  2  0
  9 10  1  0
 10 11  1  0
 11 12  1  0
 12 13  2  0
 14 13  1  0
 15 14  2  0
 16 11  2  0
 16 15  1  0
 17 22  1  0
 17  6  1  0
 18 17  2  0
 19 20  1  0
 21 20  1  1
 21 22  1  0
 21 23  1  0
 23 25  1  0
 24 23  2  0
M  END
$$$$
