GWS.pdb
     RDKit          3D

 25 26  0  0  1  0  0  0  0  0999 V2000
   29.3907  -20.7099  -14.0898 N   0  0  0  0  0  0  0  0  0  0  0  0
   28.6273  -19.8688  -13.2279 C   0  0  0  0  0  0  0  0  0  0  0  0
   27.6105  -20.6198  -12.4306 C   0  0  0  0  0  0  0  0  0  0  0  0
   27.1450  -21.7349  -12.8121 O   0  0  0  0  0  0  0  0  0  0  0  0
   27.1227  -20.1061  -11.2015 N   0  0  0  0  0  0  0  0  0  0  0  0
   25.9898  -20.6781  -10.5030 C   0  0  1  0  0  0  0  0  0  0  0  0
   26.0559  -20.3925   -9.0232 C   0  0  0  0  0  0  0  0  0  0  0  0
   27.3234  -20.6363   -8.3722 C   0  0  0  0  0  0  0  0  0  0  0  0
   28.3716  -21.3541   -8.9437 C   0  0  0  0  0  0  0  0  0  0  0  0
   29.4206  -21.3878   -8.1099 N   0  0  0  0  0  0  0  0  0  0  0  0
   29.0620  -20.7023   -7.0098 C   0  0  0  0  0  0  0  0  0  0  0  0
   29.7532  -20.4406   -5.8626 C   0  0  0  0  0  0  0  0  0  0  0  0
   29.1990  -19.7093   -4.8199 C   0  0  0  0  0  0  0  0  0  0  0  0
   27.9015  -19.2385   -4.9669 C   0  0  0  0  0  0  0  0  0  0  0  0
   27.2251  -19.5080   -6.1180 C   0  0  0  0  0  0  0  0  0  0  0  0
   27.7726  -20.2315   -7.1520 C   0  0  0  0  0  0  0  0  0  0  0  0
   24.6938  -20.4522  -11.1420 C   0  0  0  0  0  0  0  0  0  0  0  0
   24.2902  -19.2610  -11.2930 O   0  0  0  0  0  0  0  0  0  0  0  0
   23.2281  -22.4517  -14.2580 O   0  0  0  0  0  0  0  0  0  0  0  0
   22.3291  -22.4356  -13.1909 C   0  0  0  0  0  0  0  0  0  0  0  0
   22.5779  -21.2097  -12.2841 C   0  0  2  0  0  0  0  0  0  0  0  0
   23.8465  -21.4931  -11.6179 N   0  0  0  0  0  0  0  0  0  0  0  0
   21.4319  -21.2001  -11.3466 C   0  0  0  0  0  0  0  0  0  0  0  0
   21.6275  -21.4321  -10.1285 O   0  0  0  0  0  0  0  0  0  0  0  0
   20.1395  -20.9434  -11.7627 O   0  0  0  0  0  0  0  0  0  0  0  0
  1  2  1  0
  3  5  1  0
  3  2  1  0
  4  3  2  0
  6  5  1  0
  7  8  1  0
  6  7  1  1
  8 16  1  0
  9  8  2  0
  9 10  1  0
 10 11  1  0
 11 12  1  0
 12 13  2  0
 14 13  1  0
 15 14  2  0
 16 11  2  0
 16 15  1  0
 17 22  1  0
 17  6  1  0
 18 17  2  0
 19 20  1  0
 21 20  1  6
 21 22  1  0
 21 23  1  0
 23 25  1  0
 24 23  2  0
M  END
$$$$
