GWS.pdb
     RDKit          3D

 25 26  0  0  1  0  0  0  0  0999 V2000
   31.2939  -21.8939  -10.2296 N   0  0  0  0  0  0  0  0  0  0  0  0
   30.3409  -20.8625  -10.4774 C   0  0  0  0  0  0  0  0  0  0  0  0
   28.9456  -21.2588  -10.1175 C   0  0  0  0  0  0  0  0  0  0  0  0
   28.6128  -22.4691   -9.9434 O   0  0  0  0  0  0  0  0  0  0  0  0
   27.9290  -20.2828   -9.9551 N   0  0  0  0  0  0  0  0  0  0  0  0
   26.5416  -20.6231   -9.7147 C   0  0  1  0  0  0  0  0  0  0  0  0
   26.0500  -20.0377   -8.4142 C   0  0  0  0  0  0  0  0  0  0  0  0
   27.0600  -19.6487   -7.4559 C   0  0  0  0  0  0  0  0  0  0  0  0
   27.7589  -18.4446   -7.5005 C   0  0  0  0  0  0  0  0  0  0  0  0
   28.6071  -18.3610   -6.4659 N   0  0  0  0  0  0  0  0  0  0  0  0
   28.4641  -19.4945   -5.7565 C   0  0  0  0  0  0  0  0  0  0  0  0
   29.0918  -19.9156   -4.6203 C   0  0  0  0  0  0  0  0  0  0  0  0
   28.8076  -21.1420   -4.0335 C   0  0  0  0  0  0  0  0  0  0  0  0
   27.8532  -21.9507   -4.6353 C   0  0  0  0  0  0  0  0  0  0  0  0
   27.2356  -21.5161   -5.7687 C   0  0  0  0  0  0  0  0  0  0  0  0
   27.5154  -20.3015   -6.3508 C   0  0  0  0  0  0  0  0  0  0  0  0
   25.6574  -20.4558  -10.8676 C   0  0  0  0  0  0  0  0  0  0  0  0
   25.5515  -19.3068  -11.3904 O   0  0  0  0  0  0  0  0  0  0  0  0
   24.1546  -23.6906  -12.6532 O   0  0  0  0  0  0  0  0  0  0  0  0
   24.1058  -22.5430  -13.4455 C   0  0  0  0  0  0  0  0  0  0  0  0
   23.9873  -21.2768  -12.5682 C   0  0  2  0  0  0  0  0  0  0  0  0
   24.9024  -21.5112  -11.4541 N   0  0  0  0  0  0  0  0  0  0  0  0
   22.5691  -21.2480  -12.1440 C   0  0  0  0  0  0  0  0  0  0  0  0
   22.2832  -21.4007  -10.9312 O   0  0  0  0  0  0  0  0  0  0  0  0
   21.5341  -21.0578  -13.0396 O   0  0  0  0  0  0  0  0  0  0  0  0
  1  2  1  0
  3  5  1  0
  3  2  1  0
  4  3  2  0
  6  5  1  0
  7  8  1  0
  6  7  1  1
  8 16  1  0
  9  8  2  0
  9 10  1  0
 10 11  1  0
 11 12  1  0
 12 13  2  0
 14 13  1  0
 15 14  2  0
 16 11  2  0
 16 15  1  0
 17 22  1  0
 17  6  1  0
 18 17  2  0
 19 20  1  0
 21 20  1  6
 21 22  1  0
 21 23  1  0
 23 25  1  0
 24 23  2  0
M  END
$$$$
