GWS.pdb
     RDKit          3D

 25 26  0  0  1  0  0  0  0  0999 V2000
   31.2776  -21.7405   -9.8445 N   0  0  0  0  0  0  0  0  0  0  0  0
   30.3206  -20.9365  -10.5307 C   0  0  0  0  0  0  0  0  0  0  0  0
   28.9092  -21.3259  -10.2308 C   0  0  0  0  0  0  0  0  0  0  0  0
   28.5686  -22.5320  -10.0434 O   0  0  0  0  0  0  0  0  0  0  0  0
   27.8855  -20.3478  -10.1435 N   0  0  0  0  0  0  0  0  0  0  0  0
   26.4901  -20.6835   -9.9467 C   0  0  1  0  0  0  0  0  0  0  0  0
   25.9384  -20.0312   -8.7034 C   0  0  0  0  0  0  0  0  0  0  0  0
   26.8947  -19.6761   -7.6792 C   0  0  0  0  0  0  0  0  0  0  0  0
   27.4957  -18.4242   -7.5696 C   0  0  0  0  0  0  0  0  0  0  0  0
   28.3138  -18.3928   -6.5082 N   0  0  0  0  0  0  0  0  0  0  0  0
   28.2479  -19.6069   -5.9335 C   0  0  0  0  0  0  0  0  0  0  0  0
   28.8846  -20.1038   -4.8335 C   0  0  0  0  0  0  0  0  0  0  0  0
   28.6879  -21.4070   -4.3951 C   0  0  0  0  0  0  0  0  0  0  0  0
   27.8135  -22.2139   -5.1102 C   0  0  0  0  0  0  0  0  0  0  0  0
   27.1858  -21.7030   -6.2055 C   0  0  0  0  0  0  0  0  0  0  0  0
   27.3789  -20.4125   -6.6408 C   0  0  0  0  0  0  0  0  0  0  0  0
   25.6576  -20.5852  -11.1452 C   0  0  0  0  0  0  0  0  0  0  0  0
   25.7762  -19.5639  -11.8852 O   0  0  0  0  0  0  0  0  0  0  0  0
   22.4817  -23.2055  -11.9171 O   0  0  0  0  0  0  0  0  0  0  0  0
   23.2827  -22.8110  -12.9895 C   0  0  0  0  0  0  0  0  0  0  0  0
   23.8855  -21.4112  -12.7366 C   0  0  2  0  0  0  0  0  0  0  0  0
   24.7152  -21.5748  -11.5457 N   0  0  0  0  0  0  0  0  0  0  0  0
   22.7139  -20.5376  -12.4988 C   0  0  0  0  0  0  0  0  0  0  0  0
   22.5339  -20.0409  -11.3601 O   0  0  0  0  0  0  0  0  0  0  0  0
   21.7987  -20.2432  -13.4913 O   0  0  0  0  0  0  0  0  0  0  0  0
  1  2  1  0
  3  5  1  0
  3  2  1  0
  4  3  2  0
  6  5  1  0
  7  8  1  0
  6  7  1  1
  8 16  1  0
  9  8  2  0
  9 10  1  0
 10 11  1  0
 11 12  1  0
 12 13  2  0
 14 13  1  0
 15 14  2  0
 16 11  2  0
 16 15  1  0
 17 22  1  0
 17  6  1  0
 18 17  2  0
 19 20  1  0
 21 20  1  1
 21 22  1  0
 21 23  1  0
 23 25  1  0
 24 23  2  0
M  END
$$$$
