GWS.pdb
     RDKit          3D

 25 26  0  0  1  0  0  0  0  0999 V2000
   30.5572  -19.5046  -11.9175 N   0  0  0  0  0  0  0  0  0  0  0  0
   29.2670  -18.9753  -11.6202 C   0  0  0  0  0  0  0  0  0  0  0  0
   28.2850  -20.0260  -11.2136 C   0  0  0  0  0  0  0  0  0  0  0  0
   28.4629  -21.2525  -11.4777 O   0  0  0  0  0  0  0  0  0  0  0  0
   27.1025  -19.6853  -10.5078 N   0  0  0  0  0  0  0  0  0  0  0  0
   26.0725  -20.6511  -10.1842 C   0  0  1  0  0  0  0  0  0  0  0  0
   25.6044  -20.4977   -8.7583 C   0  0  0  0  0  0  0  0  0  0  0  0
   26.5274  -19.8743   -7.8369 C   0  0  0  0  0  0  0  0  0  0  0  0
   26.8619  -18.5223   -7.8586 C   0  0  0  0  0  0  0  0  0  0  0  0
   27.7192  -18.2396   -6.8676 N   0  0  0  0  0  0  0  0  0  0  0  0
   27.9413  -19.3908   -6.2088 C   0  0  0  0  0  0  0  0  0  0  0  0
   28.7331  -19.6573   -5.1298 C   0  0  0  0  0  0  0  0  0  0  0  0
   28.8376  -20.9330   -4.5905 C   0  0  0  0  0  0  0  0  0  0  0  0
   28.1070  -21.9555   -5.1802 C   0  0  0  0  0  0  0  0  0  0  0  0
   27.3213  -21.6732   -6.2562 C   0  0  0  0  0  0  0  0  0  0  0  0
   27.2161  -20.4103   -6.7913 C   0  0  0  0  0  0  0  0  0  0  0  0
   25.0220  -20.7928  -11.1918 C   0  0  0  0  0  0  0  0  0  0  0  0
   24.3521  -19.7686  -11.5193 O   0  0  0  0  0  0  0  0  0  0  0  0
   25.1012  -23.3841  -14.3046 O   0  0  0  0  0  0  0  0  0  0  0  0
   23.9093  -23.4382  -13.5811 C   0  0  0  0  0  0  0  0  0  0  0  0
   23.6493  -22.1002  -12.8536 C   0  0  2  0  0  0  0  0  0  0  0  0
   24.7007  -22.0177  -11.8430 N   0  0  0  0  0  0  0  0  0  0  0  0
   22.3009  -22.2530  -12.2616 C   0  0  0  0  0  0  0  0  0  0  0  0
   22.1630  -22.1979  -11.0151 O   0  0  0  0  0  0  0  0  0  0  0  0
   21.1737  -22.4566  -13.0345 O   0  0  0  0  0  0  0  0  0  0  0  0
  1  2  1  0
  3  5  1  0
  3  2  1  0
  4  3  2  0
  6  5  1  0
  7  8  1  0
  6  7  1  1
  8 16  1  0
  9  8  2  0
  9 10  1  0
 10 11  1  0
 11 12  1  0
 12 13  2  0
 14 13  1  0
 15 14  2  0
 16 11  2  0
 16 15  1  0
 17 22  1  0
 17  6  1  0
 18 17  2  0
 19 20  1  0
 21 20  1  6
 21 22  1  0
 21 23  1  0
 23 25  1  0
 24 23  2  0
M  END
$$$$
