GWS.pdb
     RDKit          3D

 25 26  0  0  1  0  0  0  0  0999 V2000
   30.5578  -20.9251  -11.7934 N   0  0  0  0  0  0  0  0  0  0  0  0
   29.9084  -20.2182  -10.7390 C   0  0  0  0  0  0  0  0  0  0  0  0
   28.6067  -20.8339  -10.3391 C   0  0  0  0  0  0  0  0  0  0  0  0
   28.4859  -22.0780  -10.1307 O   0  0  0  0  0  0  0  0  0  0  0  0
   27.4433  -20.0388  -10.1757 N   0  0  0  0  0  0  0  0  0  0  0  0
   26.1532  -20.5940   -9.8208 C   0  0  1  0  0  0  0  0  0  0  0  0
   25.6614  -20.0431   -8.5054 C   0  0  0  0  0  0  0  0  0  0  0  0
   26.6712  -19.6793   -7.5371 C   0  0  0  0  0  0  0  0  0  0  0  0
   27.3040  -18.4390   -7.4944 C   0  0  0  0  0  0  0  0  0  0  0  0
   28.1703  -18.3942   -6.4725 N   0  0  0  0  0  0  0  0  0  0  0  0
   28.1042  -19.5883   -5.8573 C   0  0  0  0  0  0  0  0  0  0  0  0
   28.7796  -20.0661   -4.7720 C   0  0  0  0  0  0  0  0  0  0  0  0
   28.5746  -21.3503   -4.2842 C   0  0  0  0  0  0  0  0  0  0  0  0
   27.6510  -22.1580   -4.9332 C   0  0  0  0  0  0  0  0  0  0  0  0
   26.9850  -21.6664   -6.0147 C   0  0  0  0  0  0  0  0  0  0  0  0
   27.1862  -20.3946   -6.4989 C   0  0  0  0  0  0  0  0  0  0  0  0
   25.1756  -20.6253  -10.9081 C   0  0  0  0  0  0  0  0  0  0  0  0
   24.9305  -19.5527  -11.5359 O   0  0  0  0  0  0  0  0  0  0  0  0
   24.9135  -23.4371  -13.6786 O   0  0  0  0  0  0  0  0  0  0  0  0
   23.6876  -23.2334  -13.0439 C   0  0  0  0  0  0  0  0  0  0  0  0
   23.5937  -21.7970  -12.4829 C   0  0  2  0  0  0  0  0  0  0  0  0
   24.4760  -21.7956  -11.3188 N   0  0  0  0  0  0  0  0  0  0  0  0
   22.1685  -21.6313  -12.1176 C   0  0  0  0  0  0  0  0  0  0  0  0
   21.8546  -21.4573  -10.9146 O   0  0  0  0  0  0  0  0  0  0  0  0
   21.1567  -21.6610  -13.0583 O   0  0  0  0  0  0  0  0  0  0  0  0
  1  2  1  0
  3  5  1  0
  3  2  1  0
  4  3  2  0
  6  5  1  0
  7  8  1  0
  6  7  1  1
  8 16  1  0
  9  8  2  0
  9 10  1  0
 10 11  1  0
 11 12  1  0
 12 13  2  0
 14 13  1  0
 15 14  2  0
 16 11  2  0
 16 15  1  0
 17 22  1  0
 17  6  1  0
 18 17  2  0
 19 20  1  0
 21 20  1  1
 21 22  1  0
 21 23  1  0
 23 25  1  0
 24 23  2  0
M  END
$$$$
