STF.pdb
     RDKit          3D

 25 25  0  0  1  0  0  0  0  0999 V2000
   12.8452  -24.0250    3.4180 O   0  0  0  0  0  0  0  0  0  0  0  0
   14.0872  -23.4226    3.4392 C   0  0  0  0  0  0  0  0  0  0  0  0
   14.3828  -22.6725    2.1603 C   0  0  2  0  0  0  0  0  0  0  0  0
   14.7814  -23.5913    1.1396 N   0  0  0  0  0  0  0  0  0  0  0  0
   15.4077  -21.6383    2.4388 C   0  0  0  0  0  0  0  0  0  0  0  0
   16.5797  -21.8555    2.0737 O   0  0  0  0  0  0  0  0  0  0  0  0
   16.4172  -17.0097    3.7413 C   0  0  0  0  0  0  0  0  0  0  0  0
   15.3877  -18.0861    3.4605 C   0  0  1  0  0  0  0  0  0  0  0  0
   14.6748  -17.7858    2.3015 O   0  0  0  0  0  0  0  0  0  0  0  0
   16.0672  -19.4467    3.3284 C   0  0  2  0  0  0  0  0  0  0  0  0
   15.0658  -20.4346    3.1021 N   0  0  0  0  0  0  0  0  0  0  0  0
   16.7862  -19.6671    4.6338 C   0  0  0  0  0  0  0  0  0  0  0  0
   16.1797  -20.1358    5.6298 O   0  0  0  0  0  0  0  0  0  0  0  0
   18.1679  -19.3500    4.7697 N   0  0  0  0  0  0  0  0  0  0  0  0
   18.8707  -19.3808    6.0213 C   0  0  1  0  0  0  0  0  0  0  0  0
   20.3667  -19.3990    5.8102 C   0  0  0  0  0  0  0  0  0  0  0  0
   21.1234  -19.3912    7.0762 C   0  0  0  0  0  0  0  0  0  0  0  0
   21.8231  -18.2820    7.4944 C   0  0  0  0  0  0  0  0  0  0  0  0
   22.5364  -18.2774    8.6895 C   0  0  0  0  0  0  0  0  0  0  0  0
   22.5639  -19.3917    9.4964 C   0  0  0  0  0  0  0  0  0  0  0  0
   21.8669  -20.5070    9.0868 C   0  0  0  0  0  0  0  0  0  0  0  0
   21.1646  -20.4931    7.8976 C   0  0  0  0  0  0  0  0  0  0  0  0
   18.4457  -18.2725    6.9096 C   0  0  0  0  0  0  0  0  0  0  0  0
   18.3868  -17.0846    6.5662 O   0  0  0  0  0  0  0  0  0  0  0  0
   18.0890  -18.5841    8.2151 O   0  0  0  0  0  0  0  0  0  0  0  0
  2  1  1  0
  3  2  1  0
  3  4  1  6
  5  3  1  0
  6  5  2  0
  8  7  1  6
  8  9  1  0
  8 10  1  0
 10 11  1  1
 11  5  1  0
 12 10  1  0
 12 14  1  0
 13 12  2  0
 15 14  1  0
 15 23  1  0
 15 16  1  6
 16 17  1  0
 17 18  2  0
 18 19  1  0
 20 19  2  0
 21 22  2  0
 21 20  1  0
 22 17  1  0
 23 25  1  0
 24 23  2  0
M  END
$$$$
