STF.pdb
     RDKit          3D

 25 25  0  0  1  0  0  0  0  0999 V2000
   27.9257  -17.1469  -15.3676 O   0  0  0  0  0  0  0  0  0  0  0  0
   28.4577  -18.4208  -15.3652 C   0  0  0  0  0  0  0  0  0  0  0  0
   27.3881  -19.4892  -15.3745 C   0  0  2  0  0  0  0  0  0  0  0  0
   26.6065  -19.3833  -16.5672 N   0  0  0  0  0  0  0  0  0  0  0  0
   26.5774  -19.3648  -14.1397 C   0  0  0  0  0  0  0  0  0  0  0  0
   25.5893  -18.6050  -14.1566 O   0  0  0  0  0  0  0  0  0  0  0  0
   24.1193  -20.7616  -13.4729 C   0  0  0  0  0  0  0  0  0  0  0  0
   24.9236  -21.2284  -12.2761 C   0  0  1  0  0  0  0  0  0  0  0  0
   25.5308  -22.4530  -12.5468 O   0  0  0  0  0  0  0  0  0  0  0  0
   25.9745  -20.1851  -11.9052 C   0  0  2  0  0  0  0  0  0  0  0  0
   26.9155  -20.0894  -12.9708 N   0  0  0  0  0  0  0  0  0  0  0  0
   26.6136  -20.6892  -10.6375 C   0  0  0  0  0  0  0  0  0  0  0  0
   27.8200  -21.0412  -10.6225 O   0  0  0  0  0  0  0  0  0  0  0  0
   25.8669  -20.7785   -9.4281 N   0  0  0  0  0  0  0  0  0  0  0  0
   26.4686  -20.8935   -8.1296 C   0  0  1  0  0  0  0  0  0  0  0  0
   27.5622  -19.8686   -7.9390 C   0  0  0  0  0  0  0  0  0  0  0  0
   28.1158  -19.8698   -6.5719 C   0  0  0  0  0  0  0  0  0  0  0  0
   28.9374  -20.8795   -6.1246 C   0  0  0  0  0  0  0  0  0  0  0  0
   29.4585  -20.8781   -4.8340 C   0  0  0  0  0  0  0  0  0  0  0  0
   29.1651  -19.8580   -3.9583 C   0  0  0  0  0  0  0  0  0  0  0  0
   28.3437  -18.8427   -4.3963 C   0  0  0  0  0  0  0  0  0  0  0  0
   27.8359  -18.8609   -5.6806 C   0  0  0  0  0  0  0  0  0  0  0  0
   25.4514  -20.8313   -7.0529 C   0  0  0  0  0  0  0  0  0  0  0  0
   24.4362  -20.1237   -7.0903 O   0  0  0  0  0  0  0  0  0  0  0  0
   25.6472  -21.6180   -5.9254 O   0  0  0  0  0  0  0  0  0  0  0  0
  2  1  1  0
  3  2  1  0
  3  4  1  6
  5  3  1  0
  6  5  2  0
  8  7  1  6
  8  9  1  0
  8 10  1  0
 10 11  1  6
 11  5  1  0
 12 10  1  0
 12 14  1  0
 13 12  2  0
 15 14  1  0
 15 23  1  0
 15 16  1  1
 16 17  1  0
 17 18  2  0
 18 19  1  0
 20 19  2  0
 21 22  2  0
 21 20  1  0
 22 17  1  0
 23 25  1  0
 24 23  2  0
M  END
$$$$
