STF.pdb
     RDKit          3D

 25 25  0  0  1  0  0  0  0  0999 V2000
   18.5409  -11.9562  -20.2572 O   0  0  0  0  0  0  0  0  0  0  0  0
   18.6660  -11.3497  -21.4911 C   0  0  0  0  0  0  0  0  0  0  0  0
   20.1018  -11.2972  -21.9617 C   0  0  2  0  0  0  0  0  0  0  0  0
   20.6707  -12.6087  -21.9314 N   0  0  0  0  0  0  0  0  0  0  0  0
   20.8443  -10.3259  -21.1234 C   0  0  0  0  0  0  0  0  0  0  0  0
   21.9188  -10.6916  -20.6079 O   0  0  0  0  0  0  0  0  0  0  0  0
   21.1065   -6.4661  -22.1198 C   0  0  0  0  0  0  0  0  0  0  0  0
   20.7449   -6.6658  -20.6615 C   0  0  1  0  0  0  0  0  0  0  0  0
   19.3806   -6.4598  -20.4668 O   0  0  0  0  0  0  0  0  0  0  0  0
   21.1407   -8.0679  -20.2054 C   0  0  2  0  0  0  0  0  0  0  0  0
   20.3473   -9.0166  -20.9129 N   0  0  0  0  0  0  0  0  0  0  0  0
   20.8670   -8.1026  -18.7243 C   0  0  0  0  0  0  0  0  0  0  0  0
   19.8760   -8.7269  -18.2689 O   0  0  0  0  0  0  0  0  0  0  0  0
   21.7237   -7.4297  -17.8069 N   0  0  0  0  0  0  0  0  0  0  0  0
   21.5905   -7.5236  -16.3804 C   0  0  1  0  0  0  0  0  0  0  0  0
   22.9198   -7.8128  -15.7232 C   0  0  0  0  0  0  0  0  0  0  0  0
   22.8170   -7.9443  -14.2577 C   0  0  0  0  0  0  0  0  0  0  0  0
   22.5975   -6.8540  -13.4468 C   0  0  0  0  0  0  0  0  0  0  0  0
   22.5009   -6.9810  -12.0641 C   0  0  0  0  0  0  0  0  0  0  0  0
   22.6231   -8.2117  -11.4607 C   0  0  0  0  0  0  0  0  0  0  0  0
   22.8429   -9.3092  -12.2635 C   0  0  0  0  0  0  0  0  0  0  0  0
   22.9359   -9.1639  -13.6339 C   0  0  0  0  0  0  0  0  0  0  0  0
   20.9392   -6.3173  -15.8159 C   0  0  0  0  0  0  0  0  0  0  0  0
   21.1739   -5.1590  -16.1843 O   0  0  0  0  0  0  0  0  0  0  0  0
   20.0026   -6.4949  -14.8060 O   0  0  0  0  0  0  0  0  0  0  0  0
  2  1  1  0
  3  2  1  0
  3  4  1  1
  5  3  1  0
  6  5  2  0
  8  7  1  6
  8  9  1  0
  8 10  1  0
 10 11  1  6
 11  5  1  0
 12 10  1  0
 12 14  1  0
 13 12  2  0
 15 14  1  0
 15 23  1  0
 15 16  1  1
 16 17  1  0
 17 18  2  0
 18 19  1  0
 20 19  2  0
 21 22  2  0
 21 20  1  0
 22 17  1  0
 23 25  1  0
 24 23  2  0
M  END
$$$$
