STF.pdb
     RDKit          3D

 25 25  0  0  1  0  0  0  0  0999 V2000
   21.5314  -11.7276  -16.6537 O   0  0  0  0  0  0  0  0  0  0  0  0
   20.8346  -10.6831  -16.0796 C   0  0  0  0  0  0  0  0  0  0  0  0
   19.4723  -10.4894  -16.7057 C   0  0  2  0  0  0  0  0  0  0  0  0
   19.3793  -11.2526  -17.9114 N   0  0  0  0  0  0  0  0  0  0  0  0
   19.2467   -9.0401  -16.9206 C   0  0  0  0  0  0  0  0  0  0  0  0
   19.5636   -8.5505  -18.0224 O   0  0  0  0  0  0  0  0  0  0  0  0
   15.8766   -7.4279  -16.6002 C   0  0  0  0  0  0  0  0  0  0  0  0
   16.8553   -6.6964  -15.7033 C   0  0  1  0  0  0  0  0  0  0  0  0
   16.7344   -7.1407  -14.3882 O   0  0  0  0  0  0  0  0  0  0  0  0
   18.2836   -6.8985  -16.2028 C   0  0  2  0  0  0  0  0  0  0  0  0
   18.6858   -8.2318  -15.9020 N   0  0  0  0  0  0  0  0  0  0  0  0
   19.1165   -5.8826  -15.4654 C   0  0  0  0  0  0  0  0  0  0  0  0
   18.9270   -4.6518  -15.6349 O   0  0  0  0  0  0  0  0  0  0  0  0
   20.1366   -6.2924  -14.5600 N   0  0  0  0  0  0  0  0  0  0  0  0
   20.9819   -5.3759  -13.8479 C   0  0  1  0  0  0  0  0  0  0  0  0
   21.9751   -6.1093  -12.9770 C   0  0  0  0  0  0  0  0  0  0  0  0
   22.8180   -7.0506  -13.7380 C   0  0  0  0  0  0  0  0  0  0  0  0
   23.7312   -6.6132  -14.6703 C   0  0  0  0  0  0  0  0  0  0  0  0
   24.5254   -7.5036  -15.3870 C   0  0  0  0  0  0  0  0  0  0  0  0
   24.4205   -8.8605  -15.1832 C   0  0  0  0  0  0  0  0  0  0  0  0
   23.5094   -9.3084  -14.2522 C   0  0  0  0  0  0  0  0  0  0  0  0
   22.7298   -8.4098  -13.5504 C   0  0  0  0  0  0  0  0  0  0  0  0
   21.6448   -4.4218  -14.7689 C   0  0  0  0  0  0  0  0  0  0  0  0
   21.5590   -4.4672  -16.0031 O   0  0  0  0  0  0  0  0  0  0  0  0
   22.4142   -3.4079  -14.2135 O   0  0  0  0  0  0  0  0  0  0  0  0
  2  1  1  0
  3  2  1  0
  3  4  1  6
  5  3  1  0
  6  5  2  0
  8  7  1  6
  8  9  1  0
  8 10  1  0
 10 11  1  1
 11  5  1  0
 12 10  1  0
 12 14  1  0
 13 12  2  0
 15 14  1  0
 15 23  1  0
 15 16  1  6
 16 17  1  0
 17 18  2  0
 18 19  1  0
 20 19  2  0
 21 22  2  0
 21 20  1  0
 22 17  1  0
 23 25  1  0
 24 23  2  0
M  END
$$$$
