STF.pdb
     RDKit          3D

 25 25  0  0  1  0  0  0  0  0999 V2000
   27.0039  -18.8466  -19.6856 O   0  0  0  0  0  0  0  0  0  0  0  0
   26.0161  -18.2519  -18.9263 C   0  0  0  0  0  0  0  0  0  0  0  0
   24.7354  -18.0533  -19.7049 C   0  0  2  0  0  0  0  0  0  0  0  0
   24.8067  -16.8377  -20.4545 N   0  0  0  0  0  0  0  0  0  0  0  0
   23.5926  -18.0839  -18.7613 C   0  0  0  0  0  0  0  0  0  0  0  0
   22.9684  -17.0246  -18.5558 O   0  0  0  0  0  0  0  0  0  0  0  0
   20.3577  -19.3041  -18.7211 C   0  0  0  0  0  0  0  0  0  0  0  0
   21.0055  -20.0178  -17.5514 C   0  0  1  0  0  0  0  0  0  0  0  0
   21.3546  -21.3186  -17.9091 O   0  0  0  0  0  0  0  0  0  0  0  0
   22.2364  -19.2488  -17.0781 C   0  0  2  0  0  0  0  0  0  0  0  0
   23.2187  -19.2844  -18.1095 N   0  0  0  0  0  0  0  0  0  0  0  0
   22.7035  -19.9605  -15.8352 C   0  0  0  0  0  0  0  0  0  0  0  0
   23.7072  -20.7161  -15.8668 O   0  0  0  0  0  0  0  0  0  0  0  0
   22.0198  -19.7940  -14.5970 N   0  0  0  0  0  0  0  0  0  0  0  0
   22.4249  -20.4282  -13.3743 C   0  0  1  0  0  0  0  0  0  0  0  0
   23.0827  -19.4426  -12.4369 C   0  0  0  0  0  0  0  0  0  0  0  0
   23.5041  -20.0571  -11.1641 C   0  0  0  0  0  0  0  0  0  0  0  0
   24.7925  -20.4987  -10.9651 C   0  0  0  0  0  0  0  0  0  0  0  0
   25.1875  -21.0783   -9.7629 C   0  0  0  0  0  0  0  0  0  0  0  0
   24.2936  -21.2286   -8.7275 C   0  0  0  0  0  0  0  0  0  0  0  0
   23.0017  -20.7899   -8.9166 C   0  0  0  0  0  0  0  0  0  0  0  0
   22.6279  -20.2172  -10.1166 C   0  0  0  0  0  0  0  0  0  0  0  0
   21.2941  -21.1402  -12.7320 C   0  0  0  0  0  0  0  0  0  0  0  0
   20.1314  -20.7167  -12.6959 O   0  0  0  0  0  0  0  0  0  0  0  0
   21.5530  -22.3643  -12.1295 O   0  0  0  0  0  0  0  0  0  0  0  0
  2  1  1  0
  3  2  1  0
  3  4  1  1
  5  3  1  0
  6  5  2  0
  8  7  1  6
  8  9  1  0
  8 10  1  0
 10 11  1  6
 11  5  1  0
 12 10  1  0
 12 14  1  0
 13 12  2  0
 15 14  1  0
 15 23  1  0
 15 16  1  1
 16 17  1  0
 17 18  2  0
 18 19  1  0
 20 19  2  0
 21 22  2  0
 21 20  1  0
 22 17  1  0
 23 25  1  0
 24 23  2  0
M  END
$$$$
