STF.pdb
     RDKit          3D

 25 25  0  0  1  0  0  0  0  0999 V2000
   26.1811  -23.2855  -17.3632 O   0  0  0  0  0  0  0  0  0  0  0  0
   26.4237  -21.9911  -17.7774 C   0  0  0  0  0  0  0  0  0  0  0  0
   27.8786  -21.6060  -17.6338 C   0  0  2  0  0  0  0  0  0  0  0  0
   28.7084  -22.6250  -18.1977 N   0  0  0  0  0  0  0  0  0  0  0  0
   28.1670  -21.3530  -16.2020 C   0  0  0  0  0  0  0  0  0  0  0  0
   29.3429  -21.1031  -15.8720 O   0  0  0  0  0  0  0  0  0  0  0  0
   28.4890  -18.8341  -15.0737 C   0  0  0  0  0  0  0  0  0  0  0  0
   27.3199  -19.2391  -14.1982 C   0  0  1  0  0  0  0  0  0  0  0  0
   26.1177  -18.8367  -14.7765 O   0  0  0  0  0  0  0  0  0  0  0  0
   27.3231  -20.7495  -13.9764 C   0  0  2  0  0  0  0  0  0  0  0  0
   27.1347  -21.3936  -15.2332 N   0  0  0  0  0  0  0  0  0  0  0  0
   26.1817  -21.0209  -13.0314 C   0  0  0  0  0  0  0  0  0  0  0  0
   25.0050  -21.1279  -13.4597 O   0  0  0  0  0  0  0  0  0  0  0  0
   26.4088  -21.1624  -11.6326 N   0  0  0  0  0  0  0  0  0  0  0  0
   25.3722  -21.4633  -10.6859 C   0  0  1  0  0  0  0  0  0  0  0  0
   25.9489  -21.9516   -9.3776 C   0  0  0  0  0  0  0  0  0  0  0  0
   26.8627  -20.9754   -8.7552 C   0  0  0  0  0  0  0  0  0  0  0  0
   28.2282  -21.0656   -8.9034 C   0  0  0  0  0  0  0  0  0  0  0  0
   29.0882  -20.1429   -8.3149 C   0  0  0  0  0  0  0  0  0  0  0  0
   28.5947  -19.1033   -7.5604 C   0  0  0  0  0  0  0  0  0  0  0  0
   27.2295  -19.0042   -7.4060 C   0  0  0  0  0  0  0  0  0  0  0  0
   26.3915  -19.9292   -7.9975 C   0  0  0  0  0  0  0  0  0  0  0  0
   24.4582  -20.3112  -10.4978 C   0  0  0  0  0  0  0  0  0  0  0  0
   24.7555  -19.1353  -10.7455 O   0  0  0  0  0  0  0  0  0  0  0  0
   23.1824  -20.5645  -10.0112 O   0  0  0  0  0  0  0  0  0  0  0  0
  2  1  1  0
  3  2  1  0
  3  4  1  1
  5  3  1  0
  6  5  2  0
  8  7  1  6
  8  9  1  0
  8 10  1  0
 10 11  1  6
 11  5  1  0
 12 10  1  0
 12 14  1  0
 13 12  2  0
 15 14  1  0
 15 23  1  0
 15 16  1  1
 16 17  1  0
 17 18  2  0
 18 19  1  0
 20 19  2  0
 21 22  2  0
 21 20  1  0
 22 17  1  0
 23 25  1  0
 24 23  2  0
M  END
$$$$
