STF.pdb
     RDKit          3D

 25 25  0  0  1  0  0  0  0  0999 V2000
   19.0291  -12.0304  -15.1177 O   0  0  0  0  0  0  0  0  0  0  0  0
   19.9383  -11.5693  -16.0486 C   0  0  0  0  0  0  0  0  0  0  0  0
   19.2648  -11.0298  -17.2900 C   0  0  2  0  0  0  0  0  0  0  0  0
   19.4707  -11.9281  -18.3833 N   0  0  0  0  0  0  0  0  0  0  0  0
   19.7792   -9.6657  -17.5584 C   0  0  0  0  0  0  0  0  0  0  0  0
   20.8230   -9.5502  -18.2301 O   0  0  0  0  0  0  0  0  0  0  0  0
   18.4915   -6.8443  -19.4927 C   0  0  0  0  0  0  0  0  0  0  0  0
   18.5949   -6.3962  -18.0485 C   0  0  1  0  0  0  0  0  0  0  0  0
   17.3576   -6.5039  -17.4168 O   0  0  0  0  0  0  0  0  0  0  0  0
   19.6420   -7.2266  -17.3105 C   0  0  2  0  0  0  0  0  0  0  0  0
   19.1036   -8.5228  -17.0654 N   0  0  0  0  0  0  0  0  0  0  0  0
   19.9169   -6.4831  -16.0295 C   0  0  0  0  0  0  0  0  0  0  0  0
   19.2254   -6.6964  -15.0020 O   0  0  0  0  0  0  0  0  0  0  0  0
   20.9655   -5.5224  -15.9527 N   0  0  0  0  0  0  0  0  0  0  0  0
   21.2763   -4.7789  -14.7644 C   0  0  1  0  0  0  0  0  0  0  0  0
   22.6275   -5.1680  -14.2115 C   0  0  0  0  0  0  0  0  0  0  0  0
   22.7477   -6.6164  -13.9609 C   0  0  0  0  0  0  0  0  0  0  0  0
   23.4167   -7.4482  -14.8299 C   0  0  0  0  0  0  0  0  0  0  0  0
   23.5287   -8.8148  -14.5909 C   0  0  0  0  0  0  0  0  0  0  0  0
   22.9690   -9.3807  -13.4684 C   0  0  0  0  0  0  0  0  0  0  0  0
   22.2974   -8.5567  -12.5924 C   0  0  0  0  0  0  0  0  0  0  0  0
   22.1964   -7.2028  -12.8460 C   0  0  0  0  0  0  0  0  0  0  0  0
   21.1665   -3.3183  -14.9940 C   0  0  0  0  0  0  0  0  0  0  0  0
   21.2637   -2.4617  -14.1056 O   0  0  0  0  0  0  0  0  0  0  0  0
   20.9396   -2.8781  -16.2914 O   0  0  0  0  0  0  0  0  0  0  0  0
  2  1  1  0
  3  2  1  0
  3  4  1  6
  5  3  1  0
  6  5  2  0
  8  7  1  6
  8  9  1  0
  8 10  1  0
 10 11  1  1
 11  5  1  0
 12 10  1  0
 12 14  1  0
 13 12  2  0
 15 14  1  0
 15 23  1  0
 15 16  1  6
 16 17  1  0
 17 18  2  0
 18 19  1  0
 20 19  2  0
 21 22  2  0
 21 20  1  0
 22 17  1  0
 23 25  1  0
 24 23  2  0
M  END
$$$$
