STF.pdb
     RDKit          3D

 25 25  0  0  1  0  0  0  0  0999 V2000
   31.5116  -22.7741  -14.0065 O   0  0  0  0  0  0  0  0  0  0  0  0
   30.3224  -23.4450  -14.2106 C   0  0  0  0  0  0  0  0  0  0  0  0
   29.3085  -22.6030  -14.9513 C   0  0  2  0  0  0  0  0  0  0  0  0
   29.8573  -22.1673  -16.1978 N   0  0  0  0  0  0  0  0  0  0  0  0
   28.8920  -21.4790  -14.0792 C   0  0  0  0  0  0  0  0  0  0  0  0
   29.2264  -20.3234  -14.4057 O   0  0  0  0  0  0  0  0  0  0  0  0
   25.5869  -19.0051  -12.5244 C   0  0  0  0  0  0  0  0  0  0  0  0
   26.3964  -20.0872  -13.2108 C   0  0  1  0  0  0  0  0  0  0  0  0
   26.9759  -19.5936  -14.3780 O   0  0  0  0  0  0  0  0  0  0  0  0
   27.4723  -20.6213  -12.2686 C   0  0  2  0  0  0  0  0  0  0  0  0
   28.1340  -21.7106  -12.9055 N   0  0  0  0  0  0  0  0  0  0  0  0
   26.7399  -21.0596  -11.0272 C   0  0  0  0  0  0  0  0  0  0  0  0
   26.2904  -22.2289  -10.9260 O   0  0  0  0  0  0  0  0  0  0  0  0
   26.5402  -20.1607   -9.9408 N   0  0  0  0  0  0  0  0  0  0  0  0
   25.8412  -20.5124   -8.7369 C   0  0  1  0  0  0  0  0  0  0  0  0
   26.0607  -19.4818   -7.6541 C   0  0  0  0  0  0  0  0  0  0  0  0
   27.2527  -19.7609   -6.8315 C   0  0  0  0  0  0  0  0  0  0  0  0
   28.1328  -18.7657   -6.4715 C   0  0  0  0  0  0  0  0  0  0  0  0
   29.2569  -19.0319   -5.6950 C   0  0  0  0  0  0  0  0  0  0  0  0
   29.5246  -20.3097   -5.2600 C   0  0  0  0  0  0  0  0  0  0  0  0
   28.6498  -21.3127   -5.6150 C   0  0  0  0  0  0  0  0  0  0  0  0
   27.5395  -21.0297   -6.3861 C   0  0  0  0  0  0  0  0  0  0  0  0
   24.4013  -20.7521   -8.9959 C   0  0  0  0  0  0  0  0  0  0  0  0
   23.7634  -20.2399   -9.9250 O   0  0  0  0  0  0  0  0  0  0  0  0
   23.7192  -21.6079   -8.1410 O   0  0  0  0  0  0  0  0  0  0  0  0
  2  1  1  0
  3  2  1  0
  3  4  1  6
  5  3  1  0
  6  5  2  0
  8  7  1  1
  8  9  1  0
  8 10  1  0
 10 11  1  6
 11  5  1  0
 12 10  1  0
 12 14  1  0
 13 12  2  0
 15 14  1  0
 15 23  1  0
 15 16  1  1
 16 17  1  0
 17 18  2  0
 18 19  1  0
 20 19  2  0
 21 22  2  0
 21 20  1  0
 22 17  1  0
 23 25  1  0
 24 23  2  0
M  END
$$$$
