STF.pdb
     RDKit          3D

 25 25  0  0  1  0  0  0  0  0999 V2000
   19.1685  -19.2183  -12.4718 O   0  0  0  0  0  0  0  0  0  0  0  0
   20.4669  -19.2650  -12.0050 C   0  0  0  0  0  0  0  0  0  0  0  0
   21.4016  -19.9489  -12.9767 C   0  0  2  0  0  0  0  0  0  0  0  0
   20.6464  -20.7110  -13.9220 N   0  0  0  0  0  0  0  0  0  0  0  0
   22.3679  -20.7722  -12.2113 C   0  0  0  0  0  0  0  0  0  0  0  0
   21.9710  -21.8498  -11.7263 O   0  0  0  0  0  0  0  0  0  0  0  0
   25.0071  -22.6078  -13.3905 C   0  0  0  0  0  0  0  0  0  0  0  0
   25.6632  -21.6900  -12.3784 C   0  0  1  0  0  0  0  0  0  0  0  0
   26.2657  -20.6102  -13.0209 O   0  0  0  0  0  0  0  0  0  0  0  0
   24.6334  -21.1975  -11.3648 C   0  0  2  0  0  0  0  0  0  0  0  0
   23.7072  -20.3469  -12.0349 N   0  0  0  0  0  0  0  0  0  0  0  0
   25.4211  -20.4532  -10.3184 C   0  0  0  0  0  0  0  0  0  0  0  0
   24.9315  -19.4522   -9.7373 O   0  0  0  0  0  0  0  0  0  0  0  0
   26.7372  -20.8659   -9.9635 N   0  0  0  0  0  0  0  0  0  0  0  0
   27.4954  -20.2731   -8.8981 C   0  0  1  0  0  0  0  0  0  0  0  0
   26.7550  -20.3592   -7.5839 C   0  0  0  0  0  0  0  0  0  0  0  0
   27.5629  -19.8957   -6.4403 C   0  0  0  0  0  0  0  0  0  0  0  0
   27.7270  -18.5570   -6.1654 C   0  0  0  0  0  0  0  0  0  0  0  0
   28.4900  -18.1223   -5.0855 C   0  0  0  0  0  0  0  0  0  0  0  0
   29.1089  -19.0261   -4.2526 C   0  0  0  0  0  0  0  0  0  0  0  0
   28.9508  -20.3682   -4.5192 C   0  0  0  0  0  0  0  0  0  0  0  0
   28.1899  -20.7809   -5.5955 C   0  0  0  0  0  0  0  0  0  0  0  0
   28.8561  -20.8554   -8.8114 C   0  0  0  0  0  0  0  0  0  0  0  0
   29.8776  -20.2088   -8.5449 O   0  0  0  0  0  0  0  0  0  0  0  0
   28.9980  -22.2171   -9.0442 O   0  0  0  0  0  0  0  0  0  0  0  0
  2  1  1  0
  3  2  1  0
  3  4  1  6
  5  3  1  0
  6  5  2  0
  8  7  1  6
  8  9  1  0
  8 10  1  0
 10 11  1  6
 11  5  1  0
 12 10  1  0
 12 14  1  0
 13 12  2  0
 15 14  1  0
 15 23  1  0
 15 16  1  1
 16 17  1  0
 17 18  2  0
 18 19  1  0
 20 19  2  0
 21 22  2  0
 21 20  1  0
 22 17  1  0
 23 25  1  0
 24 23  2  0
M  END
$$$$
