STF.pdb
     RDKit          3D

 25 25  0  0  1  0  0  0  0  0999 V2000
   17.3602  -12.2269  -18.5210 O   0  0  0  0  0  0  0  0  0  0  0  0
   17.9353  -11.3550  -17.6182 C   0  0  0  0  0  0  0  0  0  0  0  0
   19.1665  -11.9380  -16.9623 C   0  0  2  0  0  0  0  0  0  0  0  0
   18.8482  -13.1978  -16.3656 N   0  0  0  0  0  0  0  0  0  0  0  0
   19.6997  -10.9558  -15.9884 C   0  0  0  0  0  0  0  0  0  0  0  0
   19.1432  -10.8654  -14.8766 O   0  0  0  0  0  0  0  0  0  0  0  0
   22.6910  -10.9306  -14.1783 C   0  0  0  0  0  0  0  0  0  0  0  0
   22.7232   -9.6305  -14.9568 C   0  0  1  0  0  0  0  0  0  0  0  0
   23.5219   -9.7632  -16.0909 O   0  0  0  0  0  0  0  0  0  0  0  0
   21.3081   -9.2138  -15.3497 C   0  0  2  0  0  0  0  0  0  0  0  0
   20.8120  -10.1408  -16.3113 N   0  0  0  0  0  0  0  0  0  0  0  0
   21.4407   -7.8277  -15.9248 C   0  0  0  0  0  0  0  0  0  0  0  0
   21.3961   -7.6408  -17.1668 O   0  0  0  0  0  0  0  0  0  0  0  0
   21.6195   -6.6983  -15.0759 N   0  0  0  0  0  0  0  0  0  0  0  0
   21.7147   -5.3492  -15.5579 C   0  0  1  0  0  0  0  0  0  0  0  0
   20.5685   -5.0154  -16.4840 C   0  0  0  0  0  0  0  0  0  0  0  0
   20.6204   -3.6281  -16.9819 C   0  0  0  0  0  0  0  0  0  0  0  0
   21.5901   -3.2122  -17.8659 C   0  0  0  0  0  0  0  0  0  0  0  0
   21.6368   -1.9024  -18.3343 C   0  0  0  0  0  0  0  0  0  0  0  0
   20.7065   -0.9752  -17.9239 C   0  0  0  0  0  0  0  0  0  0  0  0
   19.7319   -1.3814  -17.0393 C   0  0  0  0  0  0  0  0  0  0  0  0
   19.7013   -2.6855  -16.5853 C   0  0  0  0  0  0  0  0  0  0  0  0
   21.8303   -4.3810  -14.4412 C   0  0  0  0  0  0  0  0  0  0  0  0
   21.1711   -4.4385  -13.3949 O   0  0  0  0  0  0  0  0  0  0  0  0
   22.7379   -3.3383  -14.5743 O   0  0  0  0  0  0  0  0  0  0  0  0
  2  1  1  0
  3  2  1  0
  3  4  1  1
  5  3  1  0
  6  5  2  0
  8  7  1  6
  8  9  1  0
  8 10  1  0
 10 11  1  6
 11  5  1  0
 12 10  1  0
 12 14  1  0
 13 12  2  0
 15 14  1  0
 15 23  1  0
 15 16  1  1
 16 17  1  0
 17 18  2  0
 18 19  1  0
 20 19  2  0
 21 22  2  0
 21 20  1  0
 22 17  1  0
 23 25  1  0
 24 23  2  0
M  END
$$$$
