STF.pdb
     RDKit          3D

 25 25  0  0  1  0  0  0  0  0999 V2000
   15.6678  -10.7059  -16.0330 O   0  0  0  0  0  0  0  0  0  0  0  0
   15.2628   -9.6853  -15.1961 C   0  0  0  0  0  0  0  0  0  0  0  0
   14.8905   -8.4330  -15.9570 C   0  0  2  0  0  0  0  0  0  0  0  0
   14.1096   -8.7765  -17.1046 N   0  0  0  0  0  0  0  0  0  0  0  0
   16.1301   -7.6966  -16.3012 C   0  0  0  0  0  0  0  0  0  0  0  0
   16.4968   -7.6827  -17.4926 O   0  0  0  0  0  0  0  0  0  0  0  0
   16.7941   -4.1564  -15.9556 C   0  0  0  0  0  0  0  0  0  0  0  0
   17.8952   -4.8577  -15.1855 C   0  0  1  0  0  0  0  0  0  0  0  0
   17.6233   -4.8337  -13.8191 O   0  0  0  0  0  0  0  0  0  0  0  0
   18.0468   -6.2969  -15.6715 C   0  0  2  0  0  0  0  0  0  0  0  0
   16.8792   -7.0260  -15.3038 N   0  0  0  0  0  0  0  0  0  0  0  0
   19.2778   -6.8274  -14.9839 C   0  0  0  0  0  0  0  0  0  0  0  0
   19.2396   -7.9066  -14.3410 O   0  0  0  0  0  0  0  0  0  0  0  0
   20.5120   -6.1194  -15.0461 N   0  0  0  0  0  0  0  0  0  0  0  0
   21.7791   -6.7000  -14.7014 C   0  0  1  0  0  0  0  0  0  0  0  0
   22.0781   -7.9105  -15.5546 C   0  0  0  0  0  0  0  0  0  0  0  0
   23.4309   -8.4518  -15.3259 C   0  0  0  0  0  0  0  0  0  0  0  0
   24.5134   -8.0305  -16.0645 C   0  0  0  0  0  0  0  0  0  0  0  0
   25.7890   -8.5430  -15.8466 C   0  0  0  0  0  0  0  0  0  0  0  0
   26.0084   -9.4950  -14.8775 C   0  0  0  0  0  0  0  0  0  0  0  0
   24.9315   -9.9232  -14.1329 C   0  0  0  0  0  0  0  0  0  0  0  0
   23.6729   -9.4033  -14.3633 C   0  0  0  0  0  0  0  0  0  0  0  0
   22.8686   -5.6959  -14.7557 C   0  0  0  0  0  0  0  0  0  0  0  0
   23.7977   -5.6277  -13.9404 O   0  0  0  0  0  0  0  0  0  0  0  0
   22.8488   -4.7682  -15.7889 O   0  0  0  0  0  0  0  0  0  0  0  0
  2  1  1  0
  3  2  1  0
  3  4  1  6
  5  3  1  0
  6  5  2  0
  8  7  1  6
  8  9  1  0
  8 10  1  0
 10 11  1  1
 11  5  1  0
 12 10  1  0
 12 14  1  0
 13 12  2  0
 15 14  1  0
 15 23  1  0
 15 16  1  6
 16 17  1  0
 17 18  2  0
 18 19  1  0
 20 19  2  0
 21 22  2  0
 21 20  1  0
 22 17  1  0
 23 25  1  0
 24 23  2  0
M  END
$$$$
