DNI.pdb
     RDKit          3D

 25 24  0  0  1  0  0  0  0  0999 V2000
    7.9039  -17.8325   18.6050 N   0  0  0  0  0  0  0  0  0  0  0  0
    8.5108  -16.6668   19.2005 C   0  0  1  0  0  0  0  0  0  0  0  0
    7.9169  -15.3918   18.6905 C   0  0  0  0  0  0  0  0  0  0  0  0
    8.2762  -15.1133   17.3003 C   0  0  0  0  0  0  0  0  0  0  0  0
    9.1708  -15.7718   16.7236 O   0  0  0  0  0  0  0  0  0  0  0  0
    8.2867  -16.7359   20.6762 C   0  0  0  0  0  0  0  0  0  0  0  0
    7.1628  -16.5801   21.1790 O   0  0  0  0  0  0  0  0  0  0  0  0
    7.6384  -14.1147   16.6010 O   0  0  0  0  0  0  0  0  0  0  0  0
   11.1326  -18.6892   25.6620 N   0  0  0  0  0  0  0  0  0  0  0  0
    9.9738  -18.6580   24.8568 C   0  0  0  0  0  0  0  0  0  0  0  0
    8.8676  -18.8406   25.4070 O   0  0  0  0  0  0  0  0  0  0  0  0
   10.0969  -18.4161   23.4244 C   0  0  0  0  0  0  0  0  0  0  0  0
    9.2998  -17.2733   22.9117 C   0  0  2  0  0  0  0  0  0  0  0  0
    9.4098  -16.9870   21.5195 N   0  0  0  0  0  0  0  0  0  0  0  0
    9.4219  -16.0450   23.7565 C   0  0  0  0  0  0  0  0  0  0  0  0
   10.4383  -15.3384   23.5756 O   0  0  0  0  0  0  0  0  0  0  0  0
    6.5947  -11.4607   26.4783 C   0  0  0  0  0  0  0  0  0  0  0  0
    7.7668  -12.4049   26.5547 C   0  0  0  0  0  0  0  0  0  0  0  0
    7.4952  -13.6093   25.6667 C   0  0  2  0  0  0  0  0  0  0  0  0
    6.3510  -14.3637   26.3158 C   0  0  0  0  0  0  0  0  0  0  0  0
    8.6820  -14.5442   25.6353 C   0  0  2  0  0  0  0  0  0  0  0  0
    8.4815  -15.6408   24.7230 N   0  0  0  0  0  0  0  0  0  0  0  0
    9.1292  -14.9481   26.9896 C   0  0  0  0  0  0  0  0  0  0  0  0
    9.5509  -14.0997   27.8384 O   0  0  0  0  0  0  0  0  0  0  0  0
    9.1148  -16.2747   27.4096 O   0  0  0  0  0  0  0  0  0  0  0  0
  2  1  1  6
  3  2  1  0
  3  4  1  0
  4  5  2  0
  6  7  2  0
  6  2  1  0
  8  4  1  0
  9 10  1  0
 10 12  1  0
 11 10  2  0
 13 12  1  1
 13 15  1  0
 13 14  1  0
 14  6  1  0
 15 16  2  0
 18 17  1  0
 19 21  1  0
 19 18  1  0
 19 20  1  1
 21 23  1  0
 22 15  1  0
 21 22  1  6
 23 25  1  0
 24 23  2  0
M  END
$$$$
