DNI.pdb
     RDKit          3D

 25 24  0  0  1  0  0  0  0  0999 V2000
   10.5385  -18.7813   18.8694 N   0  0  0  0  0  0  0  0  0  0  0  0
   11.0960  -18.2590   20.0934 C   0  0  1  0  0  0  0  0  0  0  0  0
   12.0656  -17.1462   19.8486 C   0  0  0  0  0  0  0  0  0  0  0  0
   13.1936  -17.5492   19.0092 C   0  0  0  0  0  0  0  0  0  0  0  0
   13.9456  -18.4893   19.3515 O   0  0  0  0  0  0  0  0  0  0  0  0
    9.9701  -17.7317   20.9223 C   0  0  0  0  0  0  0  0  0  0  0  0
    8.8955  -17.3694   20.4181 O   0  0  0  0  0  0  0  0  0  0  0  0
   13.4521  -16.8956   17.8265 O   0  0  0  0  0  0  0  0  0  0  0  0
   10.5575  -20.0994   24.2397 N   0  0  0  0  0  0  0  0  0  0  0  0
    9.4708  -19.3833   24.7863 C   0  0  0  0  0  0  0  0  0  0  0  0
    9.3417  -19.3639   26.0283 O   0  0  0  0  0  0  0  0  0  0  0  0
    8.5414  -18.6944   23.8992 C   0  0  0  0  0  0  0  0  0  0  0  0
    9.0805  -17.4690   23.2572 C   0  0  2  0  0  0  0  0  0  0  0  0
   10.1528  -17.6461   22.3346 N   0  0  0  0  0  0  0  0  0  0  0  0
    9.3431  -16.3628   24.2292 C   0  0  0  0  0  0  0  0  0  0  0  0
   10.5327  -16.1915   24.5763 O   0  0  0  0  0  0  0  0  0  0  0  0
    6.7144  -11.2721   26.6007 C   0  0  0  0  0  0  0  0  0  0  0  0
    7.8695  -12.2400   26.5875 C   0  0  0  0  0  0  0  0  0  0  0  0
    7.4777  -13.4725   25.7873 C   0  0  2  0  0  0  0  0  0  0  0  0
    6.3653  -14.1466   26.5668 C   0  0  0  0  0  0  0  0  0  0  0  0
    8.6212  -14.4569   25.7044 C   0  0  2  0  0  0  0  0  0  0  0  0
    8.3541  -15.5169   24.7663 N   0  0  0  0  0  0  0  0  0  0  0  0
    9.0773  -14.9187   27.0370 C   0  0  0  0  0  0  0  0  0  0  0  0
    8.8327  -16.0929   27.4608 O   0  0  0  0  0  0  0  0  0  0  0  0
    9.7964  -14.0971   27.8997 O   0  0  0  0  0  0  0  0  0  0  0  0
  2  1  1  6
  3  2  1  0
  3  4  1  0
  4  5  2  0
  6  7  2  0
  6  2  1  0
  8  4  1  0
  9 10  1  0
 10 12  1  0
 11 10  2  0
 13 12  1  1
 13 15  1  0
 13 14  1  0
 14  6  1  0
 15 16  2  0
 18 17  1  0
 19 21  1  0
 19 18  1  0
 19 20  1  1
 21 23  1  0
 22 15  1  0
 21 22  1  6
 23 25  1  0
 24 23  2  0
M  END
$$$$
