DNI.pdb
     RDKit          3D

 25 24  0  0  1  0  0  0  0  0999 V2000
   11.7946  -18.6810   20.6399 N   0  0  0  0  0  0  0  0  0  0  0  0
   11.0158  -17.5084   20.3230 C   0  0  1  0  0  0  0  0  0  0  0  0
   10.2779  -17.6470   19.0288 C   0  0  0  0  0  0  0  0  0  0  0  0
   11.1695  -17.8060   17.8803 C   0  0  0  0  0  0  0  0  0  0  0  0
   12.3685  -18.1289   18.0374 O   0  0  0  0  0  0  0  0  0  0  0  0
   10.0180  -17.3106   21.4175 C   0  0  0  0  0  0  0  0  0  0  0  0
    9.2074  -16.3709   21.4069 O   0  0  0  0  0  0  0  0  0  0  0  0
   10.7052  -17.5971   16.6021 O   0  0  0  0  0  0  0  0  0  0  0  0
   10.5937  -20.2277   25.8888 N   0  0  0  0  0  0  0  0  0  0  0  0
   10.0084  -20.2384   24.6045 C   0  0  0  0  0  0  0  0  0  0  0  0
   10.5222  -20.9641   23.7276 O   0  0  0  0  0  0  0  0  0  0  0  0
    8.8354  -19.4142   24.3394 C   0  0  0  0  0  0  0  0  0  0  0  0
    9.1090  -18.1546   23.6024 C   0  0  2  0  0  0  0  0  0  0  0  0
   10.0115  -18.2375   22.5021 N   0  0  0  0  0  0  0  0  0  0  0  0
    9.4149  -17.0006   24.5035 C   0  0  0  0  0  0  0  0  0  0  0  0
   10.6051  -16.6169   24.5393 O   0  0  0  0  0  0  0  0  0  0  0  0
    7.0525  -11.8543   26.7442 C   0  0  0  0  0  0  0  0  0  0  0  0
    8.1918  -12.8408   26.7391 C   0  0  0  0  0  0  0  0  0  0  0  0
    7.7825  -14.0706   25.9435 C   0  0  2  0  0  0  0  0  0  0  0  0
    6.4594  -14.5294   26.5252 C   0  0  0  0  0  0  0  0  0  0  0  0
    8.7679  -15.1998   26.1370 C   0  0  2  0  0  0  0  0  0  0  0  0
    8.4649  -16.3305   25.2975 N   0  0  0  0  0  0  0  0  0  0  0  0
    8.9804  -15.5365   27.5648 C   0  0  0  0  0  0  0  0  0  0  0  0
    8.5473  -16.6202   28.0709 O   0  0  0  0  0  0  0  0  0  0  0  0
    9.6629  -14.6890   28.4322 O   0  0  0  0  0  0  0  0  0  0  0  0
  2  1  1  1
  3  2  1  0
  3  4  1  0
  4  5  2  0
  6  7  2  0
  6  2  1  0
  8  4  1  0
  9 10  1  0
 10 12  1  0
 11 10  2  0
 13 12  1  1
 13 15  1  0
 13 14  1  0
 14  6  1  0
 15 16  2  0
 18 17  1  0
 19 21  1  0
 19 18  1  0
 19 20  1  1
 21 23  1  0
 22 15  1  0
 21 22  1  6
 23 25  1  0
 24 23  2  0
M  END
$$$$
