DNI.pdb
     RDKit          3D

 25 24  0  0  1  0  0  0  0  0999 V2000
    9.7893  -13.7397   19.3353 N   0  0  0  0  0  0  0  0  0  0  0  0
    8.4090  -13.3197   19.3389 C   0  0  1  0  0  0  0  0  0  0  0  0
    7.7170  -13.6250   18.0479 C   0  0  0  0  0  0  0  0  0  0  0  0
    8.2517  -14.8132   17.3835 C   0  0  0  0  0  0  0  0  0  0  0  0
    8.3108  -15.9115   17.9807 O   0  0  0  0  0  0  0  0  0  0  0  0
    7.7087  -14.0536   20.4360 C   0  0  0  0  0  0  0  0  0  0  0  0
    6.5176  -13.8423   20.7130 O   0  0  0  0  0  0  0  0  0  0  0  0
    8.7062  -14.7428   16.0867 O   0  0  0  0  0  0  0  0  0  0  0  0
    6.1388  -18.4646   23.3749 N   0  0  0  0  0  0  0  0  0  0  0  0
    7.4709  -18.0123   23.2586 C   0  0  0  0  0  0  0  0  0  0  0  0
    8.2666  -18.2755   24.1844 O   0  0  0  0  0  0  0  0  0  0  0  0
    7.8771  -17.2611   22.0770 C   0  0  0  0  0  0  0  0  0  0  0  0
    7.8893  -15.7861   22.2465 C   0  0  2  0  0  0  0  0  0  0  0  0
    8.4466  -15.0218   21.1799 N   0  0  0  0  0  0  0  0  0  0  0  0
    8.3988  -15.3521   23.5842 C   0  0  0  0  0  0  0  0  0  0  0  0
    9.6400  -15.3589   23.7410 O   0  0  0  0  0  0  0  0  0  0  0  0
    6.0644  -11.1927   25.9253 C   0  0  0  0  0  0  0  0  0  0  0  0
    6.9970  -12.2410   25.3752 C   0  0  0  0  0  0  0  0  0  0  0  0
    7.2387  -13.3006   26.4390 C   0  0  2  0  0  0  0  0  0  0  0  0
    8.0353  -12.6231   27.5372 C   0  0  0  0  0  0  0  0  0  0  0  0
    8.0905  -14.4283   25.9040 C   0  0  2  0  0  0  0  0  0  0  0  0
    7.5846  -14.9423   24.6570 N   0  0  0  0  0  0  0  0  0  0  0  0
    8.3744  -15.4656   26.9240 C   0  0  0  0  0  0  0  0  0  0  0  0
    7.6956  -16.5388   26.9974 O   0  0  0  0  0  0  0  0  0  0  0  0
    9.3961  -15.3258   27.8583 O   0  0  0  0  0  0  0  0  0  0  0  0
  2  1  1  6
  3  2  1  0
  3  4  1  0
  4  5  2  0
  6  7  2  0
  6  2  1  0
  8  4  1  0
  9 10  1  0
 10 12  1  0
 11 10  2  0
 13 12  1  6
 13 15  1  0
 13 14  1  0
 14  6  1  0
 15 16  2  0
 18 17  1  0
 19 21  1  0
 19 18  1  0
 19 20  1  1
 21 23  1  0
 22 15  1  0
 21 22  1  6
 23 25  1  0
 24 23  2  0
M  END
$$$$
