DNI.pdb
     RDKit          3D

 25 24  0  0  1  0  0  0  0  0999 V2000
    9.0319  -18.2515   20.3131 N   0  0  0  0  0  0  0  0  0  0  0  0
    8.1725  -17.0989   20.1911 C   0  0  1  0  0  0  0  0  0  0  0  0
    7.0215  -17.3417   19.2666 C   0  0  0  0  0  0  0  0  0  0  0  0
    7.4451  -17.6937   17.9116 C   0  0  0  0  0  0  0  0  0  0  0  0
    8.6523  -17.8908   17.6466 O   0  0  0  0  0  0  0  0  0  0  0  0
    7.6312  -16.7843   21.5478 C   0  0  0  0  0  0  0  0  0  0  0  0
    6.7746  -15.9043   21.7265 O   0  0  0  0  0  0  0  0  0  0  0  0
    6.5207  -17.8093   16.8991 O   0  0  0  0  0  0  0  0  0  0  0  0
    5.5020  -19.5427   24.2374 N   0  0  0  0  0  0  0  0  0  0  0  0
    6.9056  -19.6255   24.3619 C   0  0  0  0  0  0  0  0  0  0  0  0
    7.4684  -20.6820   24.0061 O   0  0  0  0  0  0  0  0  0  0  0  0
    7.6508  -18.4913   24.8944 C   0  0  0  0  0  0  0  0  0  0  0  0
    7.7034  -17.3036   24.0050 C   0  0  2  0  0  0  0  0  0  0  0  0
    8.1263  -17.5255   22.6618 N   0  0  0  0  0  0  0  0  0  0  0  0
    8.3883  -16.1302   24.6307 C   0  0  0  0  0  0  0  0  0  0  0  0
    9.6389  -16.1264   24.5957 O   0  0  0  0  0  0  0  0  0  0  0  0
    6.6919  -11.4590   27.7160 C   0  0  0  0  0  0  0  0  0  0  0  0
    6.4778  -12.6162   26.7747 C   0  0  0  0  0  0  0  0  0  0  0  0
    7.6214  -12.6622   25.7732 C   0  0  2  0  0  0  0  0  0  0  0  0
    6.9805  -12.6516   24.3989 C   0  0  0  0  0  0  0  0  0  0  0  0
    8.3993  -13.9524   25.8903 C   0  0  2  0  0  0  0  0  0  0  0  0
    7.7262  -15.0493   25.2431 N   0  0  0  0  0  0  0  0  0  0  0  0
    8.8352  -14.2346   27.2787 C   0  0  0  0  0  0  0  0  0  0  0  0
    8.3896  -15.2301   27.9332 O   0  0  0  0  0  0  0  0  0  0  0  0
    9.7535  -13.4290   27.9450 O   0  0  0  0  0  0  0  0  0  0  0  0
  2  1  1  1
  3  2  1  0
  3  4  1  0
  4  5  2  0
  6  7  2  0
  6  2  1  0
  8  4  1  0
  9 10  1  0
 10 12  1  0
 11 10  2  0
 13 12  1  1
 13 15  1  0
 13 14  1  0
 14  6  1  0
 15 16  2  0
 18 17  1  0
 19 21  1  0
 19 18  1  0
 19 20  1  6
 21 23  1  0
 22 15  1  0
 21 22  1  1
 23 25  1  0
 24 23  2  0
M  END
$$$$
