DNI.pdb
     RDKit          3D

 25 24  0  0  1  0  0  0  0  0999 V2000
    9.8211  -17.5306   19.2972 N   0  0  0  0  0  0  0  0  0  0  0  0
    8.8718  -16.4484   19.3950 C   0  0  1  0  0  0  0  0  0  0  0  0
    7.7503  -16.5838   18.4140 C   0  0  0  0  0  0  0  0  0  0  0  0
    8.2085  -16.5991   17.0251 C   0  0  0  0  0  0  0  0  0  0  0  0
    9.4298  -16.5903   16.7513 O   0  0  0  0  0  0  0  0  0  0  0  0
    8.2981  -16.4645   20.7746 C   0  0  0  0  0  0  0  0  0  0  0  0
    7.2827  -15.8160   21.0724 O   0  0  0  0  0  0  0  0  0  0  0  0
    7.3013  -16.6178   15.9909 O   0  0  0  0  0  0  0  0  0  0  0  0
    9.0587  -20.7283   22.4274 N   0  0  0  0  0  0  0  0  0  0  0  0
    8.1491  -19.8168   23.0055 C   0  0  0  0  0  0  0  0  0  0  0  0
    6.9275  -20.0162   22.8392 O   0  0  0  0  0  0  0  0  0  0  0  0
    8.6525  -18.6828   23.7710 C   0  0  0  0  0  0  0  0  0  0  0  0
    8.4896  -17.3617   23.1135 C   0  0  2  0  0  0  0  0  0  0  0  0
    8.9506  -17.2523   21.7690 N   0  0  0  0  0  0  0  0  0  0  0  0
    8.9457  -16.2203   23.9660 C   0  0  0  0  0  0  0  0  0  0  0  0
   10.1691  -15.9595   23.9466 O   0  0  0  0  0  0  0  0  0  0  0  0
    5.6001  -12.1295   25.6222 C   0  0  0  0  0  0  0  0  0  0  0  0
    6.7782  -12.9124   25.1023 C   0  0  0  0  0  0  0  0  0  0  0  0
    7.4718  -13.6016   26.2671 C   0  0  2  0  0  0  0  0  0  0  0  0
    8.1361  -12.5027   27.0737 C   0  0  0  0  0  0  0  0  0  0  0  0
    8.5683  -14.5220   25.7835 C   0  0  2  0  0  0  0  0  0  0  0  0
    8.1002  -15.4346   24.7720 N   0  0  0  0  0  0  0  0  0  0  0  0
    9.3074  -15.1663   26.8951 C   0  0  0  0  0  0  0  0  0  0  0  0
   10.2090  -14.5507   27.5479 O   0  0  0  0  0  0  0  0  0  0  0  0
    9.0595  -16.4783   27.2873 O   0  0  0  0  0  0  0  0  0  0  0  0
  2  1  1  1
  3  2  1  0
  3  4  1  0
  4  5  2  0
  6  7  2  0
  6  2  1  0
  8  4  1  0
  9 10  1  0
 10 12  1  0
 11 10  2  0
 13 12  1  1
 13 15  1  0
 13 14  1  0
 14  6  1  0
 15 16  2  0
 18 17  1  0
 19 21  1  0
 19 18  1  0
 19 20  1  1
 21 23  1  0
 22 15  1  0
 21 22  1  6
 23 25  1  0
 24 23  2  0
M  END
$$$$
