DNI.pdb
     RDKit          3D

 25 24  0  0  1  0  0  0  0  0999 V2000
    9.9980  -14.0245   18.7612 N   0  0  0  0  0  0  0  0  0  0  0  0
    8.6931  -13.5477   19.1508 C   0  0  1  0  0  0  0  0  0  0  0  0
    7.6629  -13.7757   18.0901 C   0  0  0  0  0  0  0  0  0  0  0  0
    8.2471  -14.1337   16.7978 C   0  0  0  0  0  0  0  0  0  0  0  0
    9.4816  -14.2980   16.6741 O   0  0  0  0  0  0  0  0  0  0  0  0
    8.2804  -14.2920   20.3789 C   0  0  0  0  0  0  0  0  0  0  0  0
    7.2050  -14.0652   20.9554 O   0  0  0  0  0  0  0  0  0  0  0  0
    7.4469  -14.2913   15.6897 O   0  0  0  0  0  0  0  0  0  0  0  0
    7.7297  -18.4732   20.8024 N   0  0  0  0  0  0  0  0  0  0  0  0
    9.0975  -18.2857   21.0963 C   0  0  0  0  0  0  0  0  0  0  0  0
    9.9386  -18.9055   20.4122 O   0  0  0  0  0  0  0  0  0  0  0  0
    9.4868  -17.3855   22.1749 C   0  0  0  0  0  0  0  0  0  0  0  0
    8.9088  -16.0205   22.0906 C   0  0  2  0  0  0  0  0  0  0  0  0
    9.1617  -15.2890   20.8934 N   0  0  0  0  0  0  0  0  0  0  0  0
    9.1510  -15.2023   23.3191 C   0  0  0  0  0  0  0  0  0  0  0  0
   10.3175  -14.7858   23.4948 O   0  0  0  0  0  0  0  0  0  0  0  0
    5.7352  -12.1517   27.0169 C   0  0  0  0  0  0  0  0  0  0  0  0
    6.1689  -13.1870   26.0113 C   0  0  0  0  0  0  0  0  0  0  0  0
    7.5847  -12.8738   25.5527 C   0  0  2  0  0  0  0  0  0  0  0  0
    7.4619  -12.3318   24.1418 C   0  0  0  0  0  0  0  0  0  0  0  0
    8.4243  -14.1279   25.4748 C   0  0  2  0  0  0  0  0  0  0  0  0
    8.1666  -14.8762   24.2712 N   0  0  0  0  0  0  0  0  0  0  0  0
    8.3704  -14.9316   26.7192 C   0  0  0  0  0  0  0  0  0  0  0  0
    8.7670  -14.4684   27.8355 O   0  0  0  0  0  0  0  0  0  0  0  0
    7.8853  -16.2357   26.7383 O   0  0  0  0  0  0  0  0  0  0  0  0
  2  1  1  6
  3  2  1  0
  3  4  1  0
  4  5  2  0
  6  7  2  0
  6  2  1  0
  8  4  1  0
  9 10  1  0
 10 12  1  0
 11 10  2  0
 13 12  1  1
 13 15  1  0
 13 14  1  0
 14  6  1  0
 15 16  2  0
 18 17  1  0
 19 21  1  0
 19 18  1  0
 19 20  1  6
 21 23  1  0
 22 15  1  0
 21 22  1  6
 23 25  1  0
 24 23  2  0
M  END
$$$$
