DNI.pdb
     RDKit          3D

 25 24  0  0  1  0  0  0  0  0999 V2000
    8.2591  -18.7157   20.0445 N   0  0  0  0  0  0  0  0  0  0  0  0
    8.2128  -17.2738   20.0690 C   0  0  1  0  0  0  0  0  0  0  0  0
    7.4329  -16.7091   18.9239 C   0  0  0  0  0  0  0  0  0  0  0  0
    8.0756  -16.9386   17.6302 C   0  0  0  0  0  0  0  0  0  0  0  0
    8.1300  -18.0865   17.1344 O   0  0  0  0  0  0  0  0  0  0  0  0
    7.5517  -16.8574   21.3427 C   0  0  0  0  0  0  0  0  0  0  0  0
    6.9709  -15.7665   21.4563 O   0  0  0  0  0  0  0  0  0  0  0  0
    8.6388  -15.8932   16.9354 O   0  0  0  0  0  0  0  0  0  0  0  0
    5.8022  -19.6016   22.6395 N   0  0  0  0  0  0  0  0  0  0  0  0
    6.1498  -19.6837   24.0051 C   0  0  0  0  0  0  0  0  0  0  0  0
    5.8941  -20.7422   24.6167 O   0  0  0  0  0  0  0  0  0  0  0  0
    6.7897  -18.5471   24.6563 C   0  0  0  0  0  0  0  0  0  0  0  0
    7.1245  -17.4160   23.7547 C   0  0  2  0  0  0  0  0  0  0  0  0
    7.6007  -17.7513   22.4535 N   0  0  0  0  0  0  0  0  0  0  0  0
    7.9617  -16.3663   24.4139 C   0  0  0  0  0  0  0  0  0  0  0  0
    9.1987  -16.4477   24.2455 O   0  0  0  0  0  0  0  0  0  0  0  0
    5.8929  -11.5871   27.0303 C   0  0  0  0  0  0  0  0  0  0  0  0
    6.4676  -12.9770   26.9357 C   0  0  0  0  0  0  0  0  0  0  0  0
    7.6025  -12.9791   25.9234 C   0  0  2  0  0  0  0  0  0  0  0  0
    6.9627  -12.7351   24.5704 C   0  0  0  0  0  0  0  0  0  0  0  0
    8.2752  -14.3308   25.8589 C   0  0  2  0  0  0  0  0  0  0  0  0
    7.4543  -15.3113   25.1958 N   0  0  0  0  0  0  0  0  0  0  0  0
    8.8118  -14.7669   27.1701 C   0  0  0  0  0  0  0  0  0  0  0  0
    9.6520  -14.0658   27.8185 O   0  0  0  0  0  0  0  0  0  0  0  0
    8.4296  -15.9651   27.7654 O   0  0  0  0  0  0  0  0  0  0  0  0
  2  1  1  6
  3  2  1  0
  3  4  1  0
  4  5  2  0
  6  7  2  0
  6  2  1  0
  8  4  1  0
  9 10  1  0
 10 12  1  0
 11 10  2  0
 13 12  1  1
 13 15  1  0
 13 14  1  0
 14  6  1  0
 15 16  2  0
 18 17  1  0
 19 21  1  0
 19 18  1  0
 19 20  1  6
 21 23  1  0
 22 15  1  0
 21 22  1  1
 23 25  1  0
 24 23  2  0
M  END
$$$$
