DNI.pdb
     RDKit          3D

 25 24  0  0  1  0  0  0  0  0999 V2000
    9.3259  -16.4501   19.0990 N   0  0  0  0  0  0  0  0  0  0  0  0
    7.9034  -16.2112   19.0644 C   0  0  1  0  0  0  0  0  0  0  0  0
    7.1945  -17.1279   18.1179 C   0  0  0  0  0  0  0  0  0  0  0  0
    7.7972  -18.4592   18.0571 C   0  0  0  0  0  0  0  0  0  0  0  0
    8.9939  -18.6081   17.7220 O   0  0  0  0  0  0  0  0  0  0  0  0
    7.3656  -16.4427   20.4391 C   0  0  0  0  0  0  0  0  0  0  0  0
    6.1500  -16.4001   20.6858 O   0  0  0  0  0  0  0  0  0  0  0  0
    7.0545  -19.5762   18.3629 O   0  0  0  0  0  0  0  0  0  0  0  0
   10.1378  -19.5009   23.3310 N   0  0  0  0  0  0  0  0  0  0  0  0
    9.2159  -18.6741   24.0083 C   0  0  0  0  0  0  0  0  0  0  0  0
    9.5108  -18.2770   25.1551 O   0  0  0  0  0  0  0  0  0  0  0  0
    7.9618  -18.3100   23.3602 C   0  0  0  0  0  0  0  0  0  0  0  0
    7.9034  -16.9181   22.8468 C   0  0  2  0  0  0  0  0  0  0  0  0
    8.2909  -16.7175   21.4897 N   0  0  0  0  0  0  0  0  0  0  0  0
    8.5316  -15.9236   23.7708 C   0  0  0  0  0  0  0  0  0  0  0  0
    9.7684  -16.0145   23.9359 O   0  0  0  0  0  0  0  0  0  0  0  0
    6.4168  -11.7559   27.4032 C   0  0  0  0  0  0  0  0  0  0  0  0
    6.4588  -12.8957   26.4181 C   0  0  0  0  0  0  0  0  0  0  0  0
    7.6324  -12.6938   25.4722 C   0  0  2  0  0  0  0  0  0  0  0  0
    7.0325  -12.4052   24.1097 C   0  0  0  0  0  0  0  0  0  0  0  0
    8.4504  -13.9574   25.3384 C   0  0  2  0  0  0  0  0  0  0  0  0
    7.8318  -14.9096   24.4520 N   0  0  0  0  0  0  0  0  0  0  0  0
    8.8597  -14.5165   26.6487 C   0  0  0  0  0  0  0  0  0  0  0  0
    8.3679  -15.5993   27.1000 O   0  0  0  0  0  0  0  0  0  0  0  0
    9.8019  -13.8908   27.4593 O   0  0  0  0  0  0  0  0  0  0  0  0
  2  1  1  1
  3  2  1  0
  3  4  1  0
  4  5  2  0
  6  7  2  0
  6  2  1  0
  8  4  1  0
  9 10  1  0
 10 12  1  0
 11 10  2  0
 13 12  1  1
 13 15  1  0
 13 14  1  0
 14  6  1  0
 15 16  2  0
 18 17  1  0
 19 21  1  0
 19 18  1  0
 19 20  1  6
 21 23  1  0
 22 15  1  0
 21 22  1  1
 23 25  1  0
 24 23  2  0
M  END
$$$$
