DNI.pdb
     RDKit          3D

 25 24  0  0  1  0  0  0  0  0999 V2000
    9.1553  -19.0016   19.8033 N   0  0  0  0  0  0  0  0  0  0  0  0
    8.9385  -17.5811   19.9330 C   0  0  1  0  0  0  0  0  0  0  0  0
    8.1013  -17.0286   18.8229 C   0  0  0  0  0  0  0  0  0  0  0  0
    8.7907  -17.0360   17.5330 C   0  0  0  0  0  0  0  0  0  0  0  0
    9.9298  -16.5322   17.4104 O   0  0  0  0  0  0  0  0  0  0  0  0
    8.2283  -17.3413   21.2256 C   0  0  0  0  0  0  0  0  0  0  0  0
    7.0197  -17.0628   21.2703 O   0  0  0  0  0  0  0  0  0  0  0  0
    8.1942  -17.5941   16.4259 O   0  0  0  0  0  0  0  0  0  0  0  0
    5.8273  -18.4454   24.0563 N   0  0  0  0  0  0  0  0  0  0  0  0
    6.9005  -19.1764   24.6096 C   0  0  0  0  0  0  0  0  0  0  0  0
    6.6414  -20.2350   25.2195 O   0  0  0  0  0  0  0  0  0  0  0  0
    8.2640  -18.6837   24.4562 C   0  0  0  0  0  0  0  0  0  0  0  0
    8.3855  -17.3929   23.7326 C   0  0  2  0  0  0  0  0  0  0  0  0
    8.9770  -17.4368   22.4363 N   0  0  0  0  0  0  0  0  0  0  0  0
    8.9491  -16.2954   24.5783 C   0  0  0  0  0  0  0  0  0  0  0  0
   10.1963  -16.2163   24.6368 O   0  0  0  0  0  0  0  0  0  0  0  0
    5.7953  -12.0074   26.2090 C   0  0  0  0  0  0  0  0  0  0  0  0
    6.8695  -12.9035   25.6485 C   0  0  0  0  0  0  0  0  0  0  0  0
    7.6751  -13.4934   26.7956 C   0  0  2  0  0  0  0  0  0  0  0  0
    8.4203  -12.3344   27.4288 C   0  0  0  0  0  0  0  0  0  0  0  0
    8.7149  -14.4665   26.2900 C   0  0  2  0  0  0  0  0  0  0  0  0
    8.1785  -15.3623   25.2975 N   0  0  0  0  0  0  0  0  0  0  0  0
    9.4525  -15.1379   27.3865 C   0  0  0  0  0  0  0  0  0  0  0  0
    9.0554  -16.2372   27.8883 O   0  0  0  0  0  0  0  0  0  0  0  0
   10.6180  -14.6059   27.9296 O   0  0  0  0  0  0  0  0  0  0  0  0
  2  1  1  6
  3  2  1  0
  3  4  1  0
  4  5  2  0
  6  7  2  0
  6  2  1  0
  8  4  1  0
  9 10  1  0
 10 12  1  0
 11 10  2  0
 13 12  1  1
 13 15  1  0
 13 14  1  0
 14  6  1  0
 15 16  2  0
 18 17  1  0
 19 21  1  0
 19 18  1  0
 19 20  1  6
 21 23  1  0
 22 15  1  0
 21 22  1  1
 23 25  1  0
 24 23  2  0
M  END
$$$$
