DNI.pdb
     RDKit          3D

 25 24  0  0  1  0  0  0  0  0999 V2000
    9.7860  -13.5911   19.2235 N   0  0  0  0  0  0  0  0  0  0  0  0
    8.4248  -13.2701   19.5787 C   0  0  1  0  0  0  0  0  0  0  0  0
    7.4711  -13.5039   18.4498 C   0  0  0  0  0  0  0  0  0  0  0  0
    7.6829  -14.7887   17.7835 C   0  0  0  0  0  0  0  0  0  0  0  0
    6.7898  -15.6655   17.7799 O   0  0  0  0  0  0  0  0  0  0  0  0
    8.0294  -14.1478   20.7214 C   0  0  0  0  0  0  0  0  0  0  0  0
    6.8872  -14.1222   21.2061 O   0  0  0  0  0  0  0  0  0  0  0  0
    8.8746  -15.0590   17.1512 O   0  0  0  0  0  0  0  0  0  0  0  0
   10.9849  -17.6387   20.4889 N   0  0  0  0  0  0  0  0  0  0  0  0
   10.6902  -17.3650   21.8419 C   0  0  0  0  0  0  0  0  0  0  0  0
   11.6433  -17.2036   22.6327 O   0  0  0  0  0  0  0  0  0  0  0  0
    9.3006  -17.2784   22.2744 C   0  0  0  0  0  0  0  0  0  0  0  0
    8.7590  -15.8992   22.3685 C   0  0  2  0  0  0  0  0  0  0  0  0
    9.0071  -15.0351   21.2622 N   0  0  0  0  0  0  0  0  0  0  0  0
    9.0491  -15.2417   23.6803 C   0  0  0  0  0  0  0  0  0  0  0  0
   10.1656  -14.6894   23.7963 O   0  0  0  0  0  0  0  0  0  0  0  0
    5.9988  -11.7206   25.8501 C   0  0  0  0  0  0  0  0  0  0  0  0
    7.1239  -12.6163   25.3994 C   0  0  0  0  0  0  0  0  0  0  0  0
    7.4234  -13.6291   26.4937 C   0  0  2  0  0  0  0  0  0  0  0  0
    8.0118  -12.8422   27.6487 C   0  0  0  0  0  0  0  0  0  0  0  0
    8.4753  -14.6190   26.0494 C   0  0  2  0  0  0  0  0  0  0  0  0
    8.1603  -15.2044   24.7715 N   0  0  0  0  0  0  0  0  0  0  0  0
    8.8198  -15.6011   27.1048 C   0  0  0  0  0  0  0  0  0  0  0  0
    9.5162  -15.2798   28.1197 O   0  0  0  0  0  0  0  0  0  0  0  0
    8.4039  -16.9278   27.0465 O   0  0  0  0  0  0  0  0  0  0  0  0
  2  1  1  6
  3  2  1  0
  3  4  1  0
  4  5  2  0
  6  7  2  0
  6  2  1  0
  8  4  1  0
  9 10  1  0
 10 12  1  0
 11 10  2  0
 13 12  1  6
 13 15  1  0
 13 14  1  0
 14  6  1  0
 15 16  2  0
 18 17  1  0
 19 21  1  0
 19 18  1  0
 19 20  1  1
 21 23  1  0
 22 15  1  0
 21 22  1  6
 23 25  1  0
 24 23  2  0
M  END
$$$$
