DNI.pdb
     RDKit          3D

 25 24  0  0  1  0  0  0  0  0999 V2000
    9.6670  -15.0222   18.9202 N   0  0  0  0  0  0  0  0  0  0  0  0
    8.6270  -14.0785   19.2514 C   0  0  1  0  0  0  0  0  0  0  0  0
    7.6448  -13.8985   18.1371 C   0  0  0  0  0  0  0  0  0  0  0  0
    8.2566  -14.0230   16.8144 C   0  0  0  0  0  0  0  0  0  0  0  0
    8.2360  -13.0690   16.0046 O   0  0  0  0  0  0  0  0  0  0  0  0
    7.8967  -14.6008   20.4458 C   0  0  0  0  0  0  0  0  0  0  0  0
    6.9028  -14.0234   20.9136 O   0  0  0  0  0  0  0  0  0  0  0  0
    8.8628  -15.1980   16.4335 O   0  0  0  0  0  0  0  0  0  0  0  0
    6.1985  -18.9907   23.8427 N   0  0  0  0  0  0  0  0  0  0  0  0
    7.4257  -18.3054   23.7129 C   0  0  0  0  0  0  0  0  0  0  0  0
    8.1235  -18.1453   24.7362 O   0  0  0  0  0  0  0  0  0  0  0  0
    7.8408  -17.8103   22.4061 C   0  0  0  0  0  0  0  0  0  0  0  0
    7.8332  -16.3323   22.2652 C   0  0  2  0  0  0  0  0  0  0  0  0
    8.3707  -15.7996   21.0571 N   0  0  0  0  0  0  0  0  0  0  0  0
    8.3473  -15.6233   23.4779 C   0  0  0  0  0  0  0  0  0  0  0  0
    9.5900  -15.5662   23.6097 O   0  0  0  0  0  0  0  0  0  0  0  0
    6.9215  -10.8142   26.8926 C   0  0  0  0  0  0  0  0  0  0  0  0
    7.7423  -12.0763   26.8246 C   0  0  0  0  0  0  0  0  0  0  0  0
    7.1329  -13.0121   25.7922 C   0  0  2  0  0  0  0  0  0  0  0  0
    5.8607  -13.5557   26.4131 C   0  0  0  0  0  0  0  0  0  0  0  0
    8.0362  -14.1936   25.5246 C   0  0  2  0  0  0  0  0  0  0  0  0
    7.5355  -15.0259   24.4607 N   0  0  0  0  0  0  0  0  0  0  0  0
    8.3981  -14.9295   26.7593 C   0  0  0  0  0  0  0  0  0  0  0  0
    9.0373  -14.3746   27.7088 O   0  0  0  0  0  0  0  0  0  0  0  0
    8.0617  -16.2661   26.9507 O   0  0  0  0  0  0  0  0  0  0  0  0
  2  1  1  6
  3  2  1  0
  3  4  1  0
  4  5  2  0
  6  7  2  0
  6  2  1  0
  8  4  1  0
  9 10  1  0
 10 12  1  0
 11 10  2  0
 13 12  1  1
 13 15  1  0
 13 14  1  0
 14  6  1  0
 15 16  2  0
 18 17  1  0
 19 21  1  0
 19 18  1  0
 19 20  1  1
 21 23  1  0
 22 15  1  0
 21 22  1  6
 23 25  1  0
 24 23  2  0
M  END
$$$$
