MAS.pdb
     RDKit          3D

 20 19  0  0  1  0  0  0  0  0999 V2000
    6.6732  -11.1838   27.9484 C   0  0  0  0  0  0  0  0  0  0  0  0
    6.5849  -12.1727   26.4460 S   0  0  0  0  0  0  0  0  0  0  0  0
    6.4645  -13.9204   26.8213 C   0  0  0  0  0  0  0  0  0  0  0  0
    6.2160  -14.6880   25.5200 C   0  0  0  0  0  0  0  0  0  0  0  0
    7.5286  -15.0905   24.8825 C   0  0  2  0  0  0  0  0  0  0  0  0
    8.5081  -14.0767   25.2247 N   0  0  0  0  0  0  0  0  0  0  0  0
    7.4591  -15.2242   23.4289 C   0  0  0  0  0  0  0  0  0  0  0  0
    6.8096  -16.1624   22.8909 O   0  0  0  0  0  0  0  0  0  0  0  0
    8.0859  -13.0964   20.4926 C   0  0  0  0  0  0  0  0  0  0  0  0
    8.0844  -14.5175   21.0809 C   0  0  2  0  0  0  0  0  0  0  0  0
    8.1050  -14.3240   22.5172 N   0  0  0  0  0  0  0  0  0  0  0  0
    9.2482  -15.2832   20.6002 C   0  0  0  0  0  0  0  0  0  0  0  0
    9.3625  -15.4990   19.3661 O   0  0  0  0  0  0  0  0  0  0  0  0
   11.9140  -16.6081   23.2874 O   0  0  0  0  0  0  0  0  0  0  0  0
   12.4713  -16.4552   22.0275 C   0  0  0  0  0  0  0  0  0  0  0  0
   11.3978  -16.5566   20.9357 C   0  0  2  0  0  0  0  0  0  0  0  0
   10.2575  -15.7986   21.4371 N   0  0  0  0  0  0  0  0  0  0  0  0
   11.0618  -17.9970   20.7942 C   0  0  0  0  0  0  0  0  0  0  0  0
   11.9905  -18.8214   20.1985 O   0  0  0  0  0  0  0  0  0  0  0  0
    9.9908  -18.4867   21.1854 O   0  0  0  0  0  0  0  0  0  0  0  0
  2  1  1  0
  3  4  1  0
  3  2  1  0
  5  6  1  6
  5  4  1  0
  7  5  1  0
  7  8  2  0
 10  9  1  6
 10 11  1  0
 10 12  1  0
 11  7  1  0
 12 17  1  0
 13 12  2  0
 14 15  1  0
 16 15  1  1
 16 18  1  0
 17 16  1  0
 18 20  2  0
 18 19  1  0
M  END
$$$$
