MAS.pdb
     RDKit          3D

 20 19  0  0  1  0  0  0  0  0999 V2000
   10.0933  -26.1330   37.6025 C   0  0  0  0  0  0  0  0  0  0  0  0
    8.4431  -25.4133   37.5652 S   0  0  0  0  0  0  0  0  0  0  0  0
    7.5859  -25.8250   36.0468 C   0  0  0  0  0  0  0  0  0  0  0  0
    8.5560  -25.6623   34.8734 C   0  0  0  0  0  0  0  0  0  0  0  0
    7.9041  -26.1047   33.5808 C   0  0  2  0  0  0  0  0  0  0  0  0
    7.7973  -27.5508   33.6194 N   0  0  0  0  0  0  0  0  0  0  0  0
    8.6425  -25.7064   32.3842 C   0  0  0  0  0  0  0  0  0  0  0  0
    9.7243  -26.2728   32.0671 O   0  0  0  0  0  0  0  0  0  0  0  0
    7.9944  -23.3758   29.5214 C   0  0  0  0  0  0  0  0  0  0  0  0
    8.9372  -24.3170   30.2899 C   0  0  2  0  0  0  0  0  0  0  0  0
    8.2104  -24.6675   31.4940 N   0  0  0  0  0  0  0  0  0  0  0  0
   10.2185  -23.6497   30.5810 C   0  0  0  0  0  0  0  0  0  0  0  0
   10.2614  -22.8009   31.5086 O   0  0  0  0  0  0  0  0  0  0  0  0
   13.4702  -24.2090   28.1363 O   0  0  0  0  0  0  0  0  0  0  0  0
   13.7627  -24.0147   29.4772 C   0  0  0  0  0  0  0  0  0  0  0  0
   12.6632  -23.1957   30.1665 C   0  0  2  0  0  0  0  0  0  0  0  0
   11.4171  -23.8984   29.8839 N   0  0  0  0  0  0  0  0  0  0  0  0
   12.6716  -21.8489   29.5391 C   0  0  0  0  0  0  0  0  0  0  0  0
   11.5876  -21.4880   28.7698 O   0  0  0  0  0  0  0  0  0  0  0  0
   13.6037  -21.0412   29.6758 O   0  0  0  0  0  0  0  0  0  0  0  0
  2  1  1  0
  3  4  1  0
  3  2  1  0
  5  6  1  1
  5  4  1  0
  7  5  1  0
  7  8  2  0
 10  9  1  6
 10 11  1  0
 10 12  1  0
 11  7  1  0
 12 17  1  0
 13 12  2  0
 14 15  1  0
 16 15  1  6
 16 18  1  0
 17 16  1  0
 18 20  2  0
 18 19  1  0
M  END
$$$$
