MAS.pdb
     RDKit          3D

 20 19  0  0  1  0  0  0  0  0999 V2000
    8.2389  -11.9198   27.6154 C   0  0  0  0  0  0  0  0  0  0  0  0
    6.8178  -13.0256   27.5922 S   0  0  0  0  0  0  0  0  0  0  0  0
    5.7992  -12.7488   26.1447 C   0  0  0  0  0  0  0  0  0  0  0  0
    5.8910  -13.9772   25.2351 C   0  0  0  0  0  0  0  0  0  0  0  0
    7.3360  -14.2900   24.9103 C   0  0  2  0  0  0  0  0  0  0  0  0
    7.9632  -13.0546   24.4805 N   0  0  0  0  0  0  0  0  0  0  0  0
    7.4981  -15.3020   23.8686 C   0  0  0  0  0  0  0  0  0  0  0  0
    7.0594  -16.4745   24.0249 O   0  0  0  0  0  0  0  0  0  0  0  0
    8.5140  -15.3876   20.2994 C   0  0  0  0  0  0  0  0  0  0  0  0
    8.4306  -16.1049   21.6574 C   0  0  2  0  0  0  0  0  0  0  0  0
    8.1509  -15.0537   22.6152 N   0  0  0  0  0  0  0  0  0  0  0  0
    9.6887  -16.8135   21.9521 C   0  0  0  0  0  0  0  0  0  0  0  0
   10.0598  -17.7342   21.1792 O   0  0  0  0  0  0  0  0  0  0  0  0
   12.5694  -15.1085   24.0634 O   0  0  0  0  0  0  0  0  0  0  0  0
   12.8695  -16.2000   23.2635 C   0  0  0  0  0  0  0  0  0  0  0  0
   11.7544  -17.2522   23.3287 C   0  0  2  0  0  0  0  0  0  0  0  0
   10.5181  -16.5291   23.0547 N   0  0  0  0  0  0  0  0  0  0  0  0
   11.7586  -17.7996   24.7100 C   0  0  0  0  0  0  0  0  0  0  0  0
   10.6425  -17.5929   25.4900 O   0  0  0  0  0  0  0  0  0  0  0  0
   12.7147  -18.4295   25.1885 O   0  0  0  0  0  0  0  0  0  0  0  0
  2  1  1  0
  3  4  1  0
  3  2  1  0
  5  6  1  6
  5  4  1  0
  7  5  1  0
  7  8  2  0
 10  9  1  6
 10 11  1  0
 10 12  1  0
 11  7  1  0
 12 17  1  0
 13 12  2  0
 14 15  1  0
 16 15  1  1
 16 18  1  0
 17 16  1  0
 18 20  2  0
 18 19  1  0
M  END
$$$$
