MAS.pdb
     RDKit          3D

 20 19  0  0  1  0  0  0  0  0999 V2000
    6.6719  -11.2325   26.4016 C   0  0  0  0  0  0  0  0  0  0  0  0
    6.1311  -12.7047   27.2863 S   0  0  0  0  0  0  0  0  0  0  0  0
    6.8469  -14.1886   26.5825 C   0  0  0  0  0  0  0  0  0  0  0  0
    6.4348  -14.2847   25.1109 C   0  0  0  0  0  0  0  0  0  0  0  0
    7.1111  -15.4647   24.4465 C   0  0  2  0  0  0  0  0  0  0  0  0
    6.8416  -16.6357   25.2593 N   0  0  0  0  0  0  0  0  0  0  0  0
    8.5556  -15.3045   24.2940 C   0  0  0  0  0  0  0  0  0  0  0  0
    9.0365  -14.4439   23.5067 O   0  0  0  0  0  0  0  0  0  0  0  0
   11.5079  -16.0509   26.2951 C   0  0  0  0  0  0  0  0  0  0  0  0
   10.9497  -15.8862   24.8714 C   0  0  2  0  0  0  0  0  0  0  0  0
    9.5212  -16.0901   25.0075 N   0  0  0  0  0  0  0  0  0  0  0  0
   11.5706  -16.8557   23.9514 C   0  0  0  0  0  0  0  0  0  0  0  0
   10.8515  -17.4083   23.0795 O   0  0  0  0  0  0  0  0  0  0  0  0
   13.5026  -16.0243   20.7607 O   0  0  0  0  0  0  0  0  0  0  0  0
   13.7058  -15.9255   22.1283 C   0  0  0  0  0  0  0  0  0  0  0  0
   13.7542  -17.3147   22.7785 C   0  0  2  0  0  0  0  0  0  0  0  0
   12.9330  -17.2131   23.9791 N   0  0  0  0  0  0  0  0  0  0  0  0
   15.1749  -17.5797   23.1233 C   0  0  0  0  0  0  0  0  0  0  0  0
   15.6416  -18.8689   22.9925 O   0  0  0  0  0  0  0  0  0  0  0  0
   15.9536  -16.6990   23.5207 O   0  0  0  0  0  0  0  0  0  0  0  0
  2  1  1  0
  3  4  1  0
  3  2  1  0
  5  6  1  1
  5  4  1  0
  7  5  1  0
  7  8  2  0
 10  9  1  1
 10 11  1  0
 10 12  1  0
 11  7  1  0
 12 17  1  0
 13 12  2  0
 14 15  1  0
 16 15  1  1
 16 18  1  0
 17 16  1  0
 18 20  2  0
 18 19  1  0
M  END
$$$$
