MAS.pdb
     RDKit          3D

 20 19  0  0  1  0  0  0  0  0999 V2000
    7.8820  -11.8209   26.1974 C   0  0  0  0  0  0  0  0  0  0  0  0
    6.4378  -12.6186   26.9191 S   0  0  0  0  0  0  0  0  0  0  0  0
    6.6597  -14.3929   27.0301 C   0  0  0  0  0  0  0  0  0  0  0  0
    7.4730  -14.8645   25.8215 C   0  0  0  0  0  0  0  0  0  0  0  0
    6.6602  -15.8212   24.9756 C   0  0  2  0  0  0  0  0  0  0  0  0
    6.5759  -17.0768   25.6971 N   0  0  0  0  0  0  0  0  0  0  0  0
    7.2285  -16.0621   23.6510 C   0  0  0  0  0  0  0  0  0  0  0  0
    7.7570  -17.1702   23.3601 O   0  0  0  0  0  0  0  0  0  0  0  0
    7.4639  -14.1052   20.4568 C   0  0  0  0  0  0  0  0  0  0  0  0
    7.8330  -15.3346   21.3039 C   0  0  2  0  0  0  0  0  0  0  0  0
    7.2319  -15.0862   22.5992 N   0  0  0  0  0  0  0  0  0  0  0  0
    9.2959  -15.4936   21.3844 C   0  0  0  0  0  0  0  0  0  0  0  0
    9.9464  -15.6546   20.3196 O   0  0  0  0  0  0  0  0  0  0  0  0
   11.1897  -16.1808   24.9841 O   0  0  0  0  0  0  0  0  0  0  0  0
   11.8761  -15.3741   24.0901 C   0  0  0  0  0  0  0  0  0  0  0  0
   11.4710  -15.6881   22.6437 C   0  0  2  0  0  0  0  0  0  0  0  0
   10.0291  -15.4779   22.5872 N   0  0  0  0  0  0  0  0  0  0  0  0
   11.8135  -17.1131   22.4000 C   0  0  0  0  0  0  0  0  0  0  0  0
   13.1459  -17.4605   22.3662 O   0  0  0  0  0  0  0  0  0  0  0  0
   10.9601  -17.9973   22.2268 O   0  0  0  0  0  0  0  0  0  0  0  0
  2  1  1  0
  3  4  1  0
  3  2  1  0
  5  6  1  1
  5  4  1  0
  7  5  1  0
  7  8  2  0
 10  9  1  6
 10 11  1  0
 10 12  1  0
 11  7  1  0
 12 17  1  0
 13 12  2  0
 14 15  1  0
 16 15  1  1
 16 18  1  0
 17 16  1  0
 18 20  2  0
 18 19  1  0
M  END
$$$$
