MAS.pdb
     RDKit          3D

 20 19  0  0  1  0  0  0  0  0999 V2000
    8.1376  -11.7524   21.5465 C   0  0  0  0  0  0  0  0  0  0  0  0
    8.2081  -12.0656   19.7746 S   0  0  0  0  0  0  0  0  0  0  0  0
    7.6548  -13.7239   19.3825 C   0  0  0  0  0  0  0  0  0  0  0  0
    8.4149  -14.7185   20.2643 C   0  0  0  0  0  0  0  0  0  0  0  0
    7.9913  -16.1374   19.9502 C   0  0  2  0  0  0  0  0  0  0  0  0
    6.5712  -16.2397   20.2278 N   0  0  0  0  0  0  0  0  0  0  0  0
    8.7088  -17.1493   20.7228 C   0  0  0  0  0  0  0  0  0  0  0  0
    8.3610  -17.4381   21.9006 O   0  0  0  0  0  0  0  0  0  0  0  0
   11.4566  -19.5912   19.9898 C   0  0  0  0  0  0  0  0  0  0  0  0
   10.5092  -18.9074   20.9899 C   0  0  2  0  0  0  0  0  0  0  0  0
    9.8370  -17.8794   20.2202 N   0  0  0  0  0  0  0  0  0  0  0  0
   11.2628  -18.3540   22.1290 C   0  0  0  0  0  0  0  0  0  0  0  0
   11.8613  -17.2571   21.9828 O   0  0  0  0  0  0  0  0  0  0  0  0
   10.6617  -19.9013   25.6784 O   0  0  0  0  0  0  0  0  0  0  0  0
   11.3188  -18.6832   25.7545 C   0  0  0  0  0  0  0  0  0  0  0  0
   12.1470  -18.4255   24.4886 C   0  0  2  0  0  0  0  0  0  0  0  0
   11.3623  -18.9753   23.3894 N   0  0  0  0  0  0  0  0  0  0  0  0
   13.4264  -19.1627   24.6533 C   0  0  0  0  0  0  0  0  0  0  0  0
   14.3085  -18.7190   25.6135 O   0  0  0  0  0  0  0  0  0  0  0  0
   13.7336  -20.1520   23.9701 O   0  0  0  0  0  0  0  0  0  0  0  0
  2  1  1  0
  3  4  1  0
  3  2  1  0
  5  6  1  1
  5  4  1  0
  7  5  1  0
  7  8  2  0
 10  9  1  6
 10 11  1  0
 10 12  1  0
 11  7  1  0
 12 17  1  0
 13 12  2  0
 14 15  1  0
 16 15  1  1
 16 18  1  0
 17 16  1  0
 18 20  2  0
 18 19  1  0
M  END
$$$$
