MAS.pdb
     RDKit          3D

 20 19  0  0  1  0  0  0  0  0999 V2000
    6.6682  -12.7497   25.5439 C   0  0  0  0  0  0  0  0  0  0  0  0
    8.2889  -12.8399   26.3235 S   0  0  0  0  0  0  0  0  0  0  0  0
    8.6303  -14.4907   26.9299 C   0  0  0  0  0  0  0  0  0  0  0  0
    7.5359  -15.4365   26.4276 C   0  0  0  0  0  0  0  0  0  0  0  0
    7.7966  -16.8497   26.9034 C   0  0  2  0  0  0  0  0  0  0  0  0
    8.9605  -16.8106   27.7682 N   0  0  0  0  0  0  0  0  0  0  0  0
    8.0320  -17.8006   25.8190 C   0  0  0  0  0  0  0  0  0  0  0  0
    9.1384  -18.3955   25.7023 O   0  0  0  0  0  0  0  0  0  0  0  0
    6.0298  -19.0398   22.8922 C   0  0  0  0  0  0  0  0  0  0  0  0
    7.3484  -18.9686   23.6807 C   0  0  2  0  0  0  0  0  0  0  0  0
    7.0515  -18.1288   24.8242 N   0  0  0  0  0  0  0  0  0  0  0  0
    8.4286  -18.4170   22.8438 C   0  0  0  0  0  0  0  0  0  0  0  0
    9.0548  -19.1923   22.0759 O   0  0  0  0  0  0  0  0  0  0  0  0
   10.1272  -14.4772   20.6639 O   0  0  0  0  0  0  0  0  0  0  0  0
    9.2604  -15.1211   21.5329 C   0  0  0  0  0  0  0  0  0  0  0  0
    9.7881  -16.5134   21.9042 C   0  0  2  0  0  0  0  0  0  0  0  0
    8.8161  -17.0626   22.8422 N   0  0  0  0  0  0  0  0  0  0  0  0
   11.1077  -16.3140   22.5573 C   0  0  0  0  0  0  0  0  0  0  0  0
   12.1752  -15.9606   21.7619 O   0  0  0  0  0  0  0  0  0  0  0  0
   11.2898  -16.4504   23.7772 O   0  0  0  0  0  0  0  0  0  0  0  0
  2  1  1  0
  3  4  1  0
  3  2  1  0
  5  6  1  1
  5  4  1  0
  7  5  1  0
  7  8  2  0
 10  9  1  6
 10 11  1  0
 10 12  1  0
 11  7  1  0
 12 17  1  0
 13 12  2  0
 14 15  1  0
 16 15  1  1
 16 18  1  0
 17 16  1  0
 18 20  2  0
 18 19  1  0
M  END
$$$$
