MAS.pdb
     RDKit          3D

 20 19  0  0  1  0  0  0  0  0999 V2000
    8.8877  -11.5199   19.3609 C   0  0  0  0  0  0  0  0  0  0  0  0
    8.0089  -12.2223   20.7670 S   0  0  0  0  0  0  0  0  0  0  0  0
    8.1431  -14.0086   20.7941 C   0  0  0  0  0  0  0  0  0  0  0  0
    7.3995  -14.5402   22.0226 C   0  0  0  0  0  0  0  0  0  0  0  0
    7.5329  -16.0453   22.1133 C   0  0  2  0  0  0  0  0  0  0  0  0
    6.8273  -16.6144   20.9809 N   0  0  0  0  0  0  0  0  0  0  0  0
    6.9961  -16.6091   23.3501 C   0  0  0  0  0  0  0  0  0  0  0  0
    5.7671  -16.5284   23.6238 O   0  0  0  0  0  0  0  0  0  0  0  0
    6.2573  -19.0025   24.8523 C   0  0  0  0  0  0  0  0  0  0  0  0
    7.2275  -17.9787   25.4653 C   0  0  2  0  0  0  0  0  0  0  0  0
    7.7992  -17.2835   24.3293 N   0  0  0  0  0  0  0  0  0  0  0  0
    8.2503  -18.6534   26.2842 C   0  0  0  0  0  0  0  0  0  0  0  0
    7.8785  -19.3479   27.2651 O   0  0  0  0  0  0  0  0  0  0  0  0
   12.0451  -17.5495   25.8943 O   0  0  0  0  0  0  0  0  0  0  0  0
   11.9890  -18.8842   26.2640 C   0  0  0  0  0  0  0  0  0  0  0  0
   10.6298  -19.2244   26.8898 C   0  0  2  0  0  0  0  0  0  0  0  0
    9.6361  -18.5749   26.0431 N   0  0  0  0  0  0  0  0  0  0  0  0
   10.6278  -18.6444   28.2577 C   0  0  0  0  0  0  0  0  0  0  0  0
   11.4435  -19.2221   29.2053 O   0  0  0  0  0  0  0  0  0  0  0  0
    9.9301  -17.6708   28.5822 O   0  0  0  0  0  0  0  0  0  0  0  0
  2  1  1  0
  3  4  1  0
  3  2  1  0
  5  6  1  6
  5  4  1  0
  7  5  1  0
  7  8  2  0
 10  9  1  6
 10 11  1  0
 10 12  1  0
 11  7  1  0
 12 17  1  0
 13 12  2  0
 14 15  1  0
 16 15  1  6
 16 18  1  0
 17 16  1  0
 18 20  2  0
 18 19  1  0
M  END
$$$$
