MAS.pdb
     RDKit          3D

 20 19  0  0  1  0  0  0  0  0999 V2000
    9.4431  -12.4410   20.0023 C   0  0  0  0  0  0  0  0  0  0  0  0
    7.6495  -12.4492   19.8423 S   0  0  0  0  0  0  0  0  0  0  0  0
    6.8558  -12.7817   21.4137 C   0  0  0  0  0  0  0  0  0  0  0  0
    7.5989  -13.9257   22.1090 C   0  0  0  0  0  0  0  0  0  0  0  0
    6.9124  -14.2927   23.4072 C   0  0  2  0  0  0  0  0  0  0  0  0
    7.1191  -13.1965   24.3344 N   0  0  0  0  0  0  0  0  0  0  0  0
    7.4085  -15.5308   24.0044 C   0  0  0  0  0  0  0  0  0  0  0  0
    8.3490  -15.5178   24.8452 O   0  0  0  0  0  0  0  0  0  0  0  0
    6.3297  -19.1183   23.9374 C   0  0  0  0  0  0  0  0  0  0  0  0
    7.3441  -18.0372   24.3468 C   0  0  2  0  0  0  0  0  0  0  0  0
    6.8815  -16.8287   23.6939 N   0  0  0  0  0  0  0  0  0  0  0  0
    8.7065  -18.4146   23.9304 C   0  0  0  0  0  0  0  0  0  0  0  0
    9.2660  -19.3864   24.5008 O   0  0  0  0  0  0  0  0  0  0  0  0
   10.8153  -16.3408   20.9414 O   0  0  0  0  0  0  0  0  0  0  0  0
   10.8930  -17.7214   21.0360 C   0  0  0  0  0  0  0  0  0  0  0  0
   10.7653  -18.1803   22.4948 C   0  0  2  0  0  0  0  0  0  0  0  0
    9.4382  -17.7546   22.9237 N   0  0  0  0  0  0  0  0  0  0  0  0
   11.8261  -17.4778   23.2619 C   0  0  0  0  0  0  0  0  0  0  0  0
   11.4376  -16.5255   24.1780 O   0  0  0  0  0  0  0  0  0  0  0  0
   13.0366  -17.7085   23.1157 O   0  0  0  0  0  0  0  0  0  0  0  0
  2  1  1  0
  3  4  1  0
  3  2  1  0
  5  6  1  1
  5  4  1  0
  7  5  1  0
  7  8  2  0
 10  9  1  6
 10 11  1  0
 10 12  1  0
 11  7  1  0
 12 17  1  0
 13 12  2  0
 14 15  1  0
 16 15  1  6
 16 18  1  0
 17 16  1  0
 18 20  2  0
 18 19  1  0
M  END
$$$$
