MAS.pdb
     RDKit          3D

 20 19  0  0  1  0  0  0  0  0999 V2000
    7.1379  -11.5930   26.2385 C   0  0  0  0  0  0  0  0  0  0  0  0
    6.0788  -12.9831   26.6725 S   0  0  0  0  0  0  0  0  0  0  0  0
    7.0252  -14.3266   27.3861 C   0  0  0  0  0  0  0  0  0  0  0  0
    7.7736  -15.0524   26.2647 C   0  0  0  0  0  0  0  0  0  0  0  0
    6.7994  -15.7661   25.3521 C   0  0  2  0  0  0  0  0  0  0  0  0
    6.4625  -17.0306   25.9780 N   0  0  0  0  0  0  0  0  0  0  0  0
    7.3251  -16.0154   24.0115 C   0  0  0  0  0  0  0  0  0  0  0  0
    7.7828  -17.1465   23.6907 O   0  0  0  0  0  0  0  0  0  0  0  0
    7.4346  -14.0690   20.8103 C   0  0  0  0  0  0  0  0  0  0  0  0
    7.8159  -15.3129   21.6305 C   0  0  2  0  0  0  0  0  0  0  0  0
    7.3630  -15.0226   22.9764 N   0  0  0  0  0  0  0  0  0  0  0  0
    9.2679  -15.5561   21.5664 C   0  0  0  0  0  0  0  0  0  0  0  0
    9.7971  -15.7667   20.4446 O   0  0  0  0  0  0  0  0  0  0  0  0
   11.3880  -16.0996   24.9742 O   0  0  0  0  0  0  0  0  0  0  0  0
   12.1139  -15.4509   23.9876 C   0  0  0  0  0  0  0  0  0  0  0  0
   11.5593  -15.7755   22.5941 C   0  0  2  0  0  0  0  0  0  0  0  0
   10.1188  -15.5699   22.6891 N   0  0  0  0  0  0  0  0  0  0  0  0
   11.8793  -17.2011   22.3242 C   0  0  0  0  0  0  0  0  0  0  0  0
   13.1895  -17.5290   22.0543 O   0  0  0  0  0  0  0  0  0  0  0  0
   11.0262  -18.1022   22.3311 O   0  0  0  0  0  0  0  0  0  0  0  0
  2  1  1  0
  3  4  1  0
  3  2  1  0
  5  6  1  1
  5  4  1  0
  7  5  1  0
  7  8  2  0
 10  9  1  6
 10 11  1  0
 10 12  1  0
 11  7  1  0
 12 17  1  0
 13 12  2  0
 14 15  1  0
 16 15  1  1
 16 18  1  0
 17 16  1  0
 18 20  2  0
 18 19  1  0
M  END
$$$$
