MAS.pdb
     RDKit          3D

 20 19  0  0  1  0  0  0  0  0999 V2000
    6.6713  -10.6260   26.4714 C   0  0  0  0  0  0  0  0  0  0  0  0
    5.9204  -11.8035   27.6082 S   0  0  0  0  0  0  0  0  0  0  0  0
    6.6162  -13.4418   27.4045 C   0  0  0  0  0  0  0  0  0  0  0  0
    6.5379  -13.8302   25.9254 C   0  0  0  0  0  0  0  0  0  0  0  0
    7.2649  -15.1350   25.6803 C   0  0  2  0  0  0  0  0  0  0  0  0
    8.6257  -14.9715   26.1552 N   0  0  0  0  0  0  0  0  0  0  0  0
    7.2884  -15.5396   24.2762 C   0  0  0  0  0  0  0  0  0  0  0  0
    6.6422  -16.5470   23.8771 O   0  0  0  0  0  0  0  0  0  0  0  0
    8.0522  -14.0211   21.0418 C   0  0  0  0  0  0  0  0  0  0  0  0
    8.0946  -15.3039   21.8891 C   0  0  2  0  0  0  0  0  0  0  0  0
    8.0271  -14.8438   23.2619 N   0  0  0  0  0  0  0  0  0  0  0  0
    9.3218  -16.0719   21.6135 C   0  0  0  0  0  0  0  0  0  0  0  0
    9.5413  -16.4597   20.4370 O   0  0  0  0  0  0  0  0  0  0  0  0
   12.4132  -16.1470   24.2573 O   0  0  0  0  0  0  0  0  0  0  0  0
   12.6427  -16.3918   22.9124 C   0  0  0  0  0  0  0  0  0  0  0  0
   11.4819  -17.1803   22.2915 C   0  0  2  0  0  0  0  0  0  0  0  0
   10.2814  -16.4078   22.5886 N   0  0  0  0  0  0  0  0  0  0  0  0
   11.4482  -18.5024   22.9686 C   0  0  0  0  0  0  0  0  0  0  0  0
   12.4673  -19.3901   22.7034 O   0  0  0  0  0  0  0  0  0  0  0  0
   10.5505  -18.8401   23.7560 O   0  0  0  0  0  0  0  0  0  0  0  0
  2  1  1  0
  3  4  1  0
  3  2  1  0
  5  6  1  6
  5  4  1  0
  7  5  1  0
  7  8  2  0
 10  9  1  6
 10 11  1  0
 10 12  1  0
 11  7  1  0
 12 17  1  0
 13 12  2  0
 14 15  1  0
 16 15  1  1
 16 18  1  0
 17 16  1  0
 18 20  2  0
 18 19  1  0
M  END
$$$$
