MAS.pdb
     RDKit          3D

 20 19  0  0  1  0  0  0  0  0999 V2000
    7.3967  -11.6260   20.1671 C   0  0  0  0  0  0  0  0  0  0  0  0
    7.2602  -12.9930   19.0029 S   0  0  0  0  0  0  0  0  0  0  0  0
    8.0481  -14.4716   19.6375 C   0  0  0  0  0  0  0  0  0  0  0  0
    8.3488  -14.2702   21.1252 C   0  0  0  0  0  0  0  0  0  0  0  0
    9.0307  -15.4937   21.6991 C   0  0  2  0  0  0  0  0  0  0  0  0
    8.4940  -16.6537   21.0130 N   0  0  0  0  0  0  0  0  0  0  0  0
    8.8384  -15.6522   23.1391 C   0  0  0  0  0  0  0  0  0  0  0  0
    9.0965  -14.7112   23.9388 O   0  0  0  0  0  0  0  0  0  0  0  0
    7.5948  -18.4079   25.3685 C   0  0  0  0  0  0  0  0  0  0  0  0
    8.1118  -16.9728   25.1718 C   0  0  2  0  0  0  0  0  0  0  0  0
    8.3526  -16.8576   23.7471 N   0  0  0  0  0  0  0  0  0  0  0  0
    9.3303  -16.7426   25.9681 C   0  0  0  0  0  0  0  0  0  0  0  0
   10.4326  -17.1493   25.5183 O   0  0  0  0  0  0  0  0  0  0  0  0
    9.3223  -14.0227   28.8463 O   0  0  0  0  0  0  0  0  0  0  0  0
   10.5727  -14.4232   28.4021 C   0  0  0  0  0  0  0  0  0  0  0  0
   10.5647  -15.9040   27.9997 C   0  0  2  0  0  0  0  0  0  0  0  0
    9.3490  -16.0896   27.2162 N   0  0  0  0  0  0  0  0  0  0  0  0
   10.5152  -16.6923   29.2582 C   0  0  0  0  0  0  0  0  0  0  0  0
   11.6053  -16.6368   30.0983 O   0  0  0  0  0  0  0  0  0  0  0  0
    9.5440  -17.3926   29.5838 O   0  0  0  0  0  0  0  0  0  0  0  0
  2  1  1  0
  3  4  1  0
  3  2  1  0
  5  6  1  6
  5  4  1  0
  7  5  1  0
  7  8  2  0
 10  9  1  6
 10 11  1  0
 10 12  1  0
 11  7  1  0
 12 17  1  0
 13 12  2  0
 14 15  1  0
 16 15  1  1
 16 18  1  0
 17 16  1  0
 18 20  2  0
 18 19  1  0
M  END
$$$$
