MAS.pdb
     RDKit          3D

 20 19  0  0  1  0  0  0  0  0999 V2000
    8.9238  -11.1485   19.4459 C   0  0  0  0  0  0  0  0  0  0  0  0
    7.6562  -12.4159   19.6177 S   0  0  0  0  0  0  0  0  0  0  0  0
    8.3462  -13.9493   20.2359 C   0  0  0  0  0  0  0  0  0  0  0  0
    8.5981  -14.8887   19.0532 C   0  0  0  0  0  0  0  0  0  0  0  0
    9.8685  -15.6833   19.2680 C   0  0  2  0  0  0  0  0  0  0  0  0
   10.0306  -16.5628   18.1259 N   0  0  0  0  0  0  0  0  0  0  0  0
    9.8634  -16.4790   20.4937 C   0  0  0  0  0  0  0  0  0  0  0  0
    9.5959  -15.9552   21.6099 O   0  0  0  0  0  0  0  0  0  0  0  0
   10.5780  -20.0685   21.3374 C   0  0  0  0  0  0  0  0  0  0  0  0
   10.1633  -18.6491   21.7603 C   0  0  2  0  0  0  0  0  0  0  0  0
   10.1534  -17.8837   20.5295 N   0  0  0  0  0  0  0  0  0  0  0  0
   11.1053  -18.1037   22.7537 C   0  0  0  0  0  0  0  0  0  0  0  0
   12.2324  -17.7041   22.3628 O   0  0  0  0  0  0  0  0  0  0  0  0
    9.8606  -17.1973   26.5058 O   0  0  0  0  0  0  0  0  0  0  0  0
   10.9947  -16.5608   26.0265 C   0  0  0  0  0  0  0  0  0  0  0  0
   11.7935  -17.4860   25.0988 C   0  0  2  0  0  0  0  0  0  0  0  0
   10.8295  -17.9962   24.1310 N   0  0  0  0  0  0  0  0  0  0  0  0
   12.3336  -18.5821   25.9442 C   0  0  0  0  0  0  0  0  0  0  0  0
   11.7972  -19.8412   25.7895 O   0  0  0  0  0  0  0  0  0  0  0  0
   13.2387  -18.4154   26.7765 O   0  0  0  0  0  0  0  0  0  0  0  0
  2  1  1  0
  3  4  1  0
  3  2  1  0
  5  6  1  6
  5  4  1  0
  7  5  1  0
  7  8  2  0
 10  9  1  6
 10 11  1  0
 10 12  1  0
 11  7  1  0
 12 17  1  0
 13 12  2  0
 14 15  1  0
 16 15  1  1
 16 18  1  0
 17 16  1  0
 18 20  2  0
 18 19  1  0
M  END
$$$$
