MAS.pdb
     RDKit          3D

 20 19  0  0  1  0  0  0  0  0999 V2000
    6.7565  -11.2635   27.4986 C   0  0  0  0  0  0  0  0  0  0  0  0
    7.2356  -12.9778   27.2262 S   0  0  0  0  0  0  0  0  0  0  0  0
    5.9825  -13.8670   26.3050 C   0  0  0  0  0  0  0  0  0  0  0  0
    6.3601  -15.3504   26.2647 C   0  0  0  0  0  0  0  0  0  0  0  0
    7.7640  -15.5260   25.7265 C   0  0  2  0  0  0  0  0  0  0  0  0
    8.4420  -14.2500   25.8533 N   0  0  0  0  0  0  0  0  0  0  0  0
    7.8084  -15.9603   24.3318 C   0  0  0  0  0  0  0  0  0  0  0  0
    7.3921  -17.1014   23.9908 O   0  0  0  0  0  0  0  0  0  0  0  0
    8.1785  -14.4555   21.0028 C   0  0  0  0  0  0  0  0  0  0  0  0
    8.4962  -15.6513   21.9162 C   0  0  2  0  0  0  0  0  0  0  0  0
    8.3142  -15.1475   23.2631 N   0  0  0  0  0  0  0  0  0  0  0  0
    9.8662  -16.1401   21.6795 C   0  0  0  0  0  0  0  0  0  0  0  0
   10.1743  -16.5429   20.5281 O   0  0  0  0  0  0  0  0  0  0  0  0
   13.6723  -15.7707   24.0679 O   0  0  0  0  0  0  0  0  0  0  0  0
   13.1786  -15.6049   22.7833 C   0  0  0  0  0  0  0  0  0  0  0  0
   12.2021  -16.7316   22.4202 C   0  0  2  0  0  0  0  0  0  0  0  0
   10.8709  -16.1893   22.6658 N   0  0  0  0  0  0  0  0  0  0  0  0
   12.4942  -17.8661   23.3341 C   0  0  0  0  0  0  0  0  0  0  0  0
   13.6444  -18.5915   23.1158 O   0  0  0  0  0  0  0  0  0  0  0  0
   11.7544  -18.1869   24.2773 O   0  0  0  0  0  0  0  0  0  0  0  0
  2  1  1  0
  3  4  1  0
  3  2  1  0
  5  6  1  6
  5  4  1  0
  7  5  1  0
  7  8  2  0
 10  9  1  6
 10 11  1  0
 10 12  1  0
 11  7  1  0
 12 17  1  0
 13 12  2  0
 14 15  1  0
 16 15  1  1
 16 18  1  0
 17 16  1  0
 18 20  2  0
 18 19  1  0
M  END
$$$$
