MAS.pdb
     RDKit          3D

 20 19  0  0  1  0  0  0  0  0999 V2000
    6.5609  -10.9132   26.1745 C   0  0  0  0  0  0  0  0  0  0  0  0
    6.4448  -12.2081   27.4205 S   0  0  0  0  0  0  0  0  0  0  0  0
    7.0816  -13.7653   26.8046 C   0  0  0  0  0  0  0  0  0  0  0  0
    5.9521  -14.5111   26.0887 C   0  0  0  0  0  0  0  0  0  0  0  0
    6.4782  -15.7728   25.4384 C   0  0  2  0  0  0  0  0  0  0  0  0
    7.5597  -16.2714   26.2666 N   0  0  0  0  0  0  0  0  0  0  0  0
    6.9662  -15.5717   24.0757 C   0  0  0  0  0  0  0  0  0  0  0  0
    6.1915  -15.1920   23.1552 O   0  0  0  0  0  0  0  0  0  0  0  0
    8.5109  -14.0217   22.1090 C   0  0  0  0  0  0  0  0  0  0  0  0
    8.8063  -15.5134   22.3395 C   0  0  2  0  0  0  0  0  0  0  0  0
    8.3296  -15.7826   23.6816 N   0  0  0  0  0  0  0  0  0  0  0  0
   10.2458  -15.7905   22.1884 C   0  0  0  0  0  0  0  0  0  0  0  0
   10.7972  -15.5411   21.0854 O   0  0  0  0  0  0  0  0  0  0  0  0
   11.9167  -17.9026   25.0462 O   0  0  0  0  0  0  0  0  0  0  0  0
   12.9298  -17.2747   24.3388 C   0  0  0  0  0  0  0  0  0  0  0  0
   12.4252  -16.7831   22.9755 C   0  0  2  0  0  0  0  0  0  0  0  0
   11.0609  -16.3229   23.2065 N   0  0  0  0  0  0  0  0  0  0  0  0
   12.4468  -17.9534   22.0604 C   0  0  0  0  0  0  0  0  0  0  0  0
   11.2484  -18.5647   21.7652 O   0  0  0  0  0  0  0  0  0  0  0  0
   13.4876  -18.4012   21.5543 O   0  0  0  0  0  0  0  0  0  0  0  0
  2  1  1  0
  3  4  1  0
  3  2  1  0
  5  6  1  1
  5  4  1  0
  7  5  1  0
  7  8  2  0
 10  9  1  1
 10 11  1  0
 10 12  1  0
 11  7  1  0
 12 17  1  0
 13 12  2  0
 14 15  1  0
 16 15  1  1
 16 18  1  0
 17 16  1  0
 18 20  2  0
 18 19  1  0
M  END
$$$$
