ECW.pdb
     RDKit          3D

 30 31  0  0  1  0  0  0  0  0999 V2000
   26.3861  -17.9747  -15.1339 N   0  0  0  0  0  0  0  0  0  0  0  0
   25.1286  -18.6264  -14.8297 C   0  0  1  0  0  0  0  0  0  0  0  0
   24.3402  -18.7033  -16.1165 C   0  0  0  0  0  0  0  0  0  0  0  0
   22.9869  -18.0651  -15.8937 C   0  0  0  0  0  0  0  0  0  0  0  0
   22.5525  -17.2440  -17.0236 C   0  0  0  0  0  0  0  0  0  0  0  0
   22.1684  -17.7766  -18.0944 O   0  0  0  0  0  0  0  0  0  0  0  0
   25.3941  -19.9310  -14.2328 C   0  0  0  0  0  0  0  0  0  0  0  0
   25.3963  -20.9601  -14.9557 O   0  0  0  0  0  0  0  0  0  0  0  0
   22.5561  -15.8552  -16.9358 O   0  0  0  0  0  0  0  0  0  0  0  0
   25.6512  -20.0343  -12.8267 N   0  0  0  0  0  0  0  0  0  0  0  0
   26.5297  -21.0167  -12.2790 C   0  0  1  0  0  0  0  0  0  0  0  0
   27.9016  -20.9496  -12.9230 C   0  0  0  0  0  0  0  0  0  0  0  0
   28.9652  -22.2940  -12.2884 S   0  0  0  0  0  0  0  0  0  0  0  0
   26.6682  -20.8894  -10.7847 C   0  0  0  0  0  0  0  0  0  0  0  0
   27.7635  -20.4902  -10.3306 O   0  0  0  0  0  0  0  0  0  0  0  0
   25.5785  -21.2190   -9.9679 N   0  0  0  0  0  0  0  0  0  0  0  0
   25.5759  -21.1210   -8.5262 C   0  0  1  0  0  0  0  0  0  0  0  0
   25.8421  -19.7174   -8.0647 C   0  0  0  0  0  0  0  0  0  0  0  0
   27.2244  -19.5037   -7.6280 C   0  0  0  0  0  0  0  0  0  0  0  0
   28.2999  -19.1775   -8.4172 C   0  0  0  0  0  0  0  0  0  0  0  0
   29.3924  -19.0687   -7.6671 N   0  0  0  0  0  0  0  0  0  0  0  0
   29.0357  -19.3222   -6.3910 C   0  0  0  0  0  0  0  0  0  0  0  0
   29.7609  -19.3480   -5.2040 C   0  0  0  0  0  0  0  0  0  0  0  0
   29.1427  -19.6417   -4.0073 C   0  0  0  0  0  0  0  0  0  0  0  0
   27.7772  -19.9151   -3.9872 C   0  0  0  0  0  0  0  0  0  0  0  0
   27.0473  -19.8959   -5.1330 C   0  0  0  0  0  0  0  0  0  0  0  0
   27.6797  -19.6003   -6.3242 C   0  0  0  0  0  0  0  0  0  0  0  0
   24.2892  -21.6545   -8.0141 C   0  0  0  0  0  0  0  0  0  0  0  0
   24.1685  -21.9259   -6.8039 O   0  0  0  0  0  0  0  0  0  0  0  0
   23.1892  -21.8701   -8.8388 O   0  0  0  0  0  0  0  0  0  0  0  0
  2  1  1  6
  2  7  1  0
  3  2  1  0
  3  4  1  0
  4  5  1  0
  5  6  2  0
  5  9  1  0
  7  8  2  0
 10 11  1  0
 10  7  1  0
 11 14  1  0
 12 13  1  0
 11 12  1  6
 14 15  2  0
 16 17  1  0
 16 14  1  0
 17 28  1  0
 17 18  1  6
 19 27  1  0
 19 18  1  0
 20 19  2  0
 21 20  1  0
 21 22  1  0
 22 27  2  0
 23 22  1  0
 23 24  2  0
 24 25  1  0
 25 26  2  0
 27 26  1  0
 28 29  2  0
 28 30  1  0
M  END
$$$$
