ECW.pdb
     RDKit          3D

 30 31  0  0  1  0  0  0  0  0999 V2000
   30.4401  -24.1686  -18.2989 N   0  0  0  0  0  0  0  0  0  0  0  0
   29.8887  -22.8682  -17.9770 C   0  0  1  0  0  0  0  0  0  0  0  0
   30.2493  -21.9352  -19.1096 C   0  0  0  0  0  0  0  0  0  0  0  0
   31.7566  -21.8607  -19.2139 C   0  0  0  0  0  0  0  0  0  0  0  0
   32.3014  -22.7611  -20.2299 C   0  0  0  0  0  0  0  0  0  0  0  0
   31.6836  -22.9663  -21.3040 O   0  0  0  0  0  0  0  0  0  0  0  0
   28.4508  -22.9939  -17.7640 C   0  0  0  0  0  0  0  0  0  0  0  0
   27.6999  -23.2909  -18.7281 O   0  0  0  0  0  0  0  0  0  0  0  0
   33.5159  -23.4095  -20.0271 O   0  0  0  0  0  0  0  0  0  0  0  0
   27.9006  -22.7790  -16.4583 N   0  0  0  0  0  0  0  0  0  0  0  0
   26.5162  -22.9710  -16.1694 C   0  0  1  0  0  0  0  0  0  0  0  0
   26.1036  -24.4150  -16.3838 C   0  0  0  0  0  0  0  0  0  0  0  0
   24.5010  -24.7432  -15.5680 S   0  0  0  0  0  0  0  0  0  0  0  0
   26.1612  -22.5487  -14.7680 C   0  0  0  0  0  0  0  0  0  0  0  0
   26.7642  -23.0997  -13.8205 O   0  0  0  0  0  0  0  0  0  0  0  0
   25.1801  -21.5662  -14.5793 N   0  0  0  0  0  0  0  0  0  0  0  0
   24.7636  -21.0610  -13.2912 C   0  0  1  0  0  0  0  0  0  0  0  0
   25.1218  -19.6131  -13.1203 C   0  0  0  0  0  0  0  0  0  0  0  0
   24.7060  -18.7766  -14.2492 C   0  0  0  0  0  0  0  0  0  0  0  0
   23.4518  -18.2693  -14.4847 C   0  0  0  0  0  0  0  0  0  0  0  0
   23.4570  -17.5590  -15.6088 N   0  0  0  0  0  0  0  0  0  0  0  0
   24.7091  -17.5997  -16.1091 C   0  0  0  0  0  0  0  0  0  0  0  0
   25.2806  -17.0410  -17.2479 C   0  0  0  0  0  0  0  0  0  0  0  0
   26.6142  -17.2390  -17.5361 C   0  0  0  0  0  0  0  0  0  0  0  0
   27.3972  -18.0065  -16.6773 C   0  0  0  0  0  0  0  0  0  0  0  0
   26.8622  -18.5624  -15.5589 C   0  0  0  0  0  0  0  0  0  0  0  0
   25.5253  -18.3559  -15.2829 C   0  0  0  0  0  0  0  0  0  0  0  0
   23.3098  -21.3110  -13.1281 C   0  0  0  0  0  0  0  0  0  0  0  0
   22.6367  -21.7094  -14.0982 O   0  0  0  0  0  0  0  0  0  0  0  0
   22.6500  -21.1173  -11.9182 O   0  0  0  0  0  0  0  0  0  0  0  0
  2  1  1  6
  2  7  1  0
  3  2  1  0
  3  4  1  0
  4  5  1  0
  5  6  2  0
  5  9  1  0
  7  8  2  0
 10 11  1  0
 10  7  1  0
 11 14  1  0
 12 13  1  0
 11 12  1  1
 14 15  2  0
 16 17  1  0
 16 14  1  0
 17 28  1  0
 17 18  1  6
 19 27  1  0
 19 18  1  0
 20 19  2  0
 21 20  1  0
 21 22  1  0
 22 27  2  0
 23 22  1  0
 23 24  2  0
 24 25  1  0
 25 26  2  0
 27 26  1  0
 28 29  2  0
 28 30  1  0
M  END
$$$$
