ECW.pdb
     RDKit          3D

 30 31  0  0  1  0  0  0  0  0999 V2000
   21.3232  -11.5557  -16.3858 N   0  0  0  0  0  0  0  0  0  0  0  0
   20.3241  -11.0204  -17.2880 C   0  0  1  0  0  0  0  0  0  0  0  0
   19.1696  -11.9951  -17.3083 C   0  0  0  0  0  0  0  0  0  0  0  0
   19.1855  -12.7368  -18.6266 C   0  0  0  0  0  0  0  0  0  0  0  0
   17.9095  -12.6603  -19.3375 C   0  0  0  0  0  0  0  0  0  0  0  0
   16.8225  -12.6643  -18.7083 O   0  0  0  0  0  0  0  0  0  0  0  0
   19.9458   -9.6817  -16.8483 C   0  0  0  0  0  0  0  0  0  0  0  0
   19.0692   -9.0402  -17.4820 O   0  0  0  0  0  0  0  0  0  0  0  0
   17.8734  -12.5819  -20.7264 O   0  0  0  0  0  0  0  0  0  0  0  0
   20.5740   -9.1037  -15.6971 N   0  0  0  0  0  0  0  0  0  0  0  0
   20.1717   -7.8460  -15.1556 C   0  0  1  0  0  0  0  0  0  0  0  0
   20.5911   -7.7115  -13.7039 C   0  0  0  0  0  0  0  0  0  0  0  0
   19.7323   -8.9581  -12.6790 S   0  0  0  0  0  0  0  0  0  0  0  0
   20.7140   -6.6843  -15.9460 C   0  0  0  0  0  0  0  0  0  0  0  0
   21.9338   -6.6840  -16.2236 O   0  0  0  0  0  0  0  0  0  0  0  0
   19.8428   -5.6586  -16.3363 N   0  0  0  0  0  0  0  0  0  0  0  0
   20.2134   -4.5453  -17.1796 C   0  0  1  0  0  0  0  0  0  0  0  0
   19.6122   -4.6627  -18.5503 C   0  0  0  0  0  0  0  0  0  0  0  0
   20.0689   -5.8463  -19.2835 C   0  0  0  0  0  0  0  0  0  0  0  0
   21.3507   -6.3347  -19.3492 C   0  0  0  0  0  0  0  0  0  0  0  0
   21.3792   -7.4236  -20.1119 N   0  0  0  0  0  0  0  0  0  0  0  0
   20.1217   -7.6491  -20.5450 C   0  0  0  0  0  0  0  0  0  0  0  0
   19.5751   -8.6354  -21.3598 C   0  0  0  0  0  0  0  0  0  0  0  0
   18.2285   -8.6387  -21.6551 C   0  0  0  0  0  0  0  0  0  0  0  0
   17.4069   -7.6435  -21.1314 C   0  0  0  0  0  0  0  0  0  0  0  0
   17.9169   -6.6695  -20.3330 C   0  0  0  0  0  0  0  0  0  0  0  0
   19.2673   -6.6788  -20.0459 C   0  0  0  0  0  0  0  0  0  0  0  0
   19.8339   -3.2831  -16.4975 C   0  0  0  0  0  0  0  0  0  0  0  0
   19.3033   -3.3228  -15.3706 O   0  0  0  0  0  0  0  0  0  0  0  0
   20.0469   -2.0323  -17.0691 O   0  0  0  0  0  0  0  0  0  0  0  0
  2  1  1  1
  2  7  1  0
  3  2  1  0
  3  4  1  0
  4  5  1  0
  5  6  2  0
  5  9  1  0
  7  8  2  0
 10 11  1  0
 10  7  1  0
 11 14  1  0
 12 13  1  0
 11 12  1  1
 14 15  2  0
 16 17  1  0
 16 14  1  0
 17 28  1  0
 17 18  1  6
 19 27  1  0
 19 18  1  0
 20 19  2  0
 21 20  1  0
 21 22  1  0
 22 27  2  0
 23 22  1  0
 23 24  2  0
 24 25  1  0
 25 26  2  0
 27 26  1  0
 28 29  2  0
 28 30  1  0
M  END
$$$$
