ECW.pdb
     RDKit          3D

 30 31  0  0  1  0  0  0  0  0999 V2000
   24.3274  -19.2478  -14.6610 N   0  0  0  0  0  0  0  0  0  0  0  0
   24.5355  -20.5131  -15.3350 C   0  0  1  0  0  0  0  0  0  0  0  0
   24.7342  -20.2124  -16.8025 C   0  0  0  0  0  0  0  0  0  0  0  0
   23.4726  -19.5747  -17.3409 C   0  0  0  0  0  0  0  0  0  0  0  0
   22.6770  -20.4902  -18.1586 C   0  0  0  0  0  0  0  0  0  0  0  0
   21.4237  -20.4101  -18.1777 O   0  0  0  0  0  0  0  0  0  0  0  0
   25.6672  -21.2033  -14.7256 C   0  0  0  0  0  0  0  0  0  0  0  0
   26.0673  -22.2938  -15.2075 O   0  0  0  0  0  0  0  0  0  0  0  0
   23.2925  -21.4695  -18.9323 O   0  0  0  0  0  0  0  0  0  0  0  0
   26.3178  -20.6362  -13.5814 N   0  0  0  0  0  0  0  0  0  0  0  0
   27.4487  -21.2480  -12.9620 C   0  0  1  0  0  0  0  0  0  0  0  0
   28.7047  -20.4232  -13.1707 C   0  0  0  0  0  0  0  0  0  0  0  0
   28.3972  -18.6777  -12.7230 S   0  0  0  0  0  0  0  0  0  0  0  0
   27.2374  -21.4795  -11.4889 C   0  0  0  0  0  0  0  0  0  0  0  0
   28.2261  -21.8205  -10.8024 O   0  0  0  0  0  0  0  0  0  0  0  0
   25.9564  -21.3067  -10.9479 N   0  0  0  0  0  0  0  0  0  0  0  0
   25.6846  -21.0429   -9.5535 C   0  0  1  0  0  0  0  0  0  0  0  0
   26.3960  -19.8114   -9.0726 C   0  0  0  0  0  0  0  0  0  0  0  0
   27.6450  -20.1035   -8.3644 C   0  0  0  0  0  0  0  0  0  0  0  0
   28.7096  -20.8340   -8.8323 C   0  0  0  0  0  0  0  0  0  0  0  0
   29.6620  -20.8862   -7.9059 N   0  0  0  0  0  0  0  0  0  0  0  0
   29.2248  -20.1930   -6.8344 C   0  0  0  0  0  0  0  0  0  0  0  0
   29.8001  -19.9208   -5.5973 C   0  0  0  0  0  0  0  0  0  0  0  0
   29.1267  -19.1703   -4.6573 C   0  0  0  0  0  0  0  0  0  0  0  0
   27.8566  -18.6793   -4.9501 C   0  0  0  0  0  0  0  0  0  0  0  0
   27.2736  -18.9314   -6.1511 C   0  0  0  0  0  0  0  0  0  0  0  0
   27.9597  -19.6845   -7.0829 C   0  0  0  0  0  0  0  0  0  0  0  0
   24.2152  -20.9636   -9.3606 C   0  0  0  0  0  0  0  0  0  0  0  0
   23.4704  -20.7759  -10.3419 O   0  0  0  0  0  0  0  0  0  0  0  0
   23.6184  -21.0914   -8.1100 O   0  0  0  0  0  0  0  0  0  0  0  0
  2  1  1  1
  2  7  1  0
  3  2  1  0
  3  4  1  0
  4  5  1  0
  5  6  2  0
  5  9  1  0
  7  8  2  0
 10 11  1  0
 10  7  1  0
 11 14  1  0
 12 13  1  0
 11 12  1  1
 14 15  2  0
 16 17  1  0
 16 14  1  0
 17 28  1  0
 17 18  1  6
 19 27  1  0
 19 18  1  0
 20 19  2  0
 21 20  1  0
 21 22  1  0
 22 27  2  0
 23 22  1  0
 23 24  2  0
 24 25  1  0
 25 26  2  0
 27 26  1  0
 28 29  2  0
 28 30  1  0
M  END
$$$$
