ECW.pdb
     RDKit          3D

 30 31  0  0  1  0  0  0  0  0999 V2000
   35.5350  -38.2068   -3.5477 N   0  0  0  0  0  0  0  0  0  0  0  0
   34.7914  -37.5864   -4.6251 C   0  0  1  0  0  0  0  0  0  0  0  0
   35.1176  -38.3451   -5.8905 C   0  0  0  0  0  0  0  0  0  0  0  0
   36.4443  -37.8504   -6.4229 C   0  0  0  0  0  0  0  0  0  0  0  0
   36.9519  -38.6628   -7.5283 C   0  0  0  0  0  0  0  0  0  0  0  0
   36.4559  -38.5647   -8.6781 O   0  0  0  0  0  0  0  0  0  0  0  0
   33.3702  -37.5918   -4.2951 C   0  0  0  0  0  0  0  0  0  0  0  0
   32.8438  -38.6289   -3.8167 O   0  0  0  0  0  0  0  0  0  0  0  0
   37.9953  -39.5618   -7.3289 O   0  0  0  0  0  0  0  0  0  0  0  0
   32.5808  -36.4164   -4.5170 N   0  0  0  0  0  0  0  0  0  0  0  0
   31.1898  -36.3576   -4.2030 C   0  0  1  0  0  0  0  0  0  0  0  0
   30.9527  -36.5361   -2.7153 C   0  0  0  0  0  0  0  0  0  0  0  0
   31.9246  -35.3115   -1.7680 S   0  0  0  0  0  0  0  0  0  0  0  0
   30.5543  -35.0721   -4.6634 C   0  0  0  0  0  0  0  0  0  0  0  0
   31.1210  -33.9983   -4.3615 O   0  0  0  0  0  0  0  0  0  0  0  0
   29.3659  -35.1253   -5.4038 N   0  0  0  0  0  0  0  0  0  0  0  0
   28.6351  -33.9671   -5.8648 C   0  0  1  0  0  0  0  0  0  0  0  0
   28.0185  -34.2004   -7.2136 C   0  0  0  0  0  0  0  0  0  0  0  0
   27.2214  -33.0669   -7.6898 C   0  0  0  0  0  0  0  0  0  0  0  0
   27.6614  -32.0030   -8.4384 C   0  0  0  0  0  0  0  0  0  0  0  0
   26.6514  -31.1715   -8.6767 N   0  0  0  0  0  0  0  0  0  0  0  0
   25.5531  -31.6873   -8.0871 C   0  0  0  0  0  0  0  0  0  0  0  0
   24.2357  -31.2463   -8.0139 C   0  0  0  0  0  0  0  0  0  0  0  0
   23.2850  -31.9773   -7.3338 C   0  0  0  0  0  0  0  0  0  0  0  0
   23.6483  -33.1703   -6.7137 C   0  0  0  0  0  0  0  0  0  0  0  0
   24.9284  -33.6221   -6.7711 C   0  0  0  0  0  0  0  0  0  0  0  0
   25.8698  -32.8796   -7.4556 C   0  0  0  0  0  0  0  0  0  0  0  0
   27.6316  -33.5958   -4.8364 C   0  0  0  0  0  0  0  0  0  0  0  0
   27.2603  -32.4108   -4.7320 O   0  0  0  0  0  0  0  0  0  0  0  0
   27.0749  -34.5278   -3.9657 O   0  0  0  0  0  0  0  0  0  0  0  0
  2  1  1  1
  2  7  1  0
  3  2  1  0
  3  4  1  0
  4  5  1  0
  5  6  2  0
  5  9  1  0
  7  8  2  0
 10 11  1  0
 10  7  1  0
 11 14  1  0
 12 13  1  0
 11 12  1  1
 14 15  2  0
 16 17  1  0
 16 14  1  0
 17 28  1  0
 17 18  1  6
 19 27  1  0
 19 18  1  0
 20 19  2  0
 21 20  1  0
 21 22  1  0
 22 27  2  0
 23 22  1  0
 23 24  2  0
 24 25  1  0
 25 26  2  0
 27 26  1  0
 28 29  2  0
 28 30  1  0
M  END
$$$$
