ECW.pdb
     RDKit          3D

 30 31  0  0  1  0  0  0  0  0999 V2000
    9.4554  -14.9864   -9.1435 N   0  0  0  0  0  0  0  0  0  0  0  0
    9.3525  -16.3989   -8.8387 C   0  0  1  0  0  0  0  0  0  0  0  0
   10.7578  -16.9529   -8.7994 C   0  0  0  0  0  0  0  0  0  0  0  0
   11.3133  -16.9635  -10.2064 C   0  0  0  0  0  0  0  0  0  0  0  0
   10.9573  -18.1723  -10.9492 C   0  0  0  0  0  0  0  0  0  0  0  0
    9.7544  -18.4648  -11.1615 O   0  0  0  0  0  0  0  0  0  0  0  0
    8.6261  -16.5695   -7.5850 C   0  0  0  0  0  0  0  0  0  0  0  0
    8.8943  -15.8323   -6.6021 O   0  0  0  0  0  0  0  0  0  0  0  0
   11.9445  -19.0238  -11.4360 O   0  0  0  0  0  0  0  0  0  0  0  0
    7.6108  -17.5754   -7.4788 N   0  0  0  0  0  0  0  0  0  0  0  0
    6.8924  -17.8137   -6.2688 C   0  0  1  0  0  0  0  0  0  0  0  0
    5.6653  -18.6708   -6.5162 C   0  0  0  0  0  0  0  0  0  0  0  0
    4.6715  -18.8094   -4.9882 S   0  0  0  0  0  0  0  0  0  0  0  0
    7.7511  -18.4570   -5.2120 C   0  0  0  0  0  0  0  0  0  0  0  0
    8.6918  -19.1904   -5.5890 O   0  0  0  0  0  0  0  0  0  0  0  0
    7.4680  -18.2135   -3.8614 N   0  0  0  0  0  0  0  0  0  0  0  0
    8.2772  -18.6777   -2.7580 C   0  0  1  0  0  0  0  0  0  0  0  0
    9.6658  -18.1092   -2.8102 C   0  0  0  0  0  0  0  0  0  0  0  0
   10.5106  -18.5407   -1.6934 C   0  0  0  0  0  0  0  0  0  0  0  0
   11.2792  -19.6769   -1.6290 C   0  0  0  0  0  0  0  0  0  0  0  0
   11.9047  -19.7316   -0.4568 N   0  0  0  0  0  0  0  0  0  0  0  0
   11.5483  -18.6362    0.2452 C   0  0  0  0  0  0  0  0  0  0  0  0
   11.8950  -18.1842    1.5145 C   0  0  0  0  0  0  0  0  0  0  0  0
   11.3790  -17.0046    2.0072 C   0  0  0  0  0  0  0  0  0  0  0  0
   10.5013  -16.2577    1.2252 C   0  0  0  0  0  0  0  0  0  0  0  0
   10.1477  -16.6780   -0.0175 C   0  0  0  0  0  0  0  0  0  0  0  0
   10.6721  -17.8612   -0.4980 C   0  0  0  0  0  0  0  0  0  0  0  0
    7.5791  -18.3598   -1.4875 C   0  0  0  0  0  0  0  0  0  0  0  0
    8.1291  -18.6121   -0.3981 O   0  0  0  0  0  0  0  0  0  0  0  0
    6.3137  -17.7817   -1.4554 O   0  0  0  0  0  0  0  0  0  0  0  0
  2  1  1  1
  2  7  1  0
  3  2  1  0
  3  4  1  0
  4  5  1  0
  5  6  2  0
  5  9  1  0
  7  8  2  0
 10 11  1  0
 10  7  1  0
 11 14  1  0
 12 13  1  0
 11 12  1  6
 14 15  2  0
 16 17  1  0
 16 14  1  0
 17 28  1  0
 17 18  1  1
 19 27  1  0
 19 18  1  0
 20 19  2  0
 21 20  1  0
 21 22  1  0
 22 27  2  0
 23 22  1  0
 23 24  2  0
 24 25  1  0
 25 26  2  0
 27 26  1  0
 28 29  2  0
 28 30  1  0
M  END
$$$$
