ECW.pdb
     RDKit          3D

 30 31  0  0  1  0  0  0  0  0999 V2000
   22.5579  -19.2840  -16.1091 N   0  0  0  0  0  0  0  0  0  0  0  0
   21.8060  -18.6933  -15.0208 C   0  0  1  0  0  0  0  0  0  0  0  0
   20.3421  -18.7884  -15.3834 C   0  0  0  0  0  0  0  0  0  0  0  0
   20.1473  -18.2065  -16.7661 C   0  0  0  0  0  0  0  0  0  0  0  0
   20.5095  -16.7915  -16.8437 C   0  0  0  0  0  0  0  0  0  0  0  0
   21.5055  -16.4192  -17.5123 O   0  0  0  0  0  0  0  0  0  0  0  0
   22.1413  -19.3772  -13.7765 C   0  0  0  0  0  0  0  0  0  0  0  0
   21.4414  -19.1850  -12.7495 O   0  0  0  0  0  0  0  0  0  0  0  0
   19.7579  -15.8280  -16.1778 O   0  0  0  0  0  0  0  0  0  0  0  0
   23.2657  -20.2647  -13.7297 N   0  0  0  0  0  0  0  0  0  0  0  0
   23.6255  -20.9833  -12.5503 C   0  0  1  0  0  0  0  0  0  0  0  0
   23.4978  -22.4807  -12.7569 C   0  0  0  0  0  0  0  0  0  0  0  0
   24.6001  -23.0296  -14.1079 S   0  0  0  0  0  0  0  0  0  0  0  0
   25.0203  -20.6563  -12.0856 C   0  0  0  0  0  0  0  0  0  0  0  0
   25.9261  -20.6011  -12.9468 O   0  0  0  0  0  0  0  0  0  0  0  0
   25.2495  -20.4291  -10.7221 N   0  0  0  0  0  0  0  0  0  0  0  0
   26.5577  -20.3310  -10.1163 C   0  0  1  0  0  0  0  0  0  0  0  0
   26.4791  -19.8297   -8.7033 C   0  0  0  0  0  0  0  0  0  0  0  0
   27.7450  -19.9495   -7.9751 C   0  0  0  0  0  0  0  0  0  0  0  0
   28.9867  -20.1914   -8.5094 C   0  0  0  0  0  0  0  0  0  0  0  0
   29.8941  -20.2351   -7.5384 N   0  0  0  0  0  0  0  0  0  0  0  0
   29.2510  -20.0229   -6.3718 C   0  0  0  0  0  0  0  0  0  0  0  0
   29.6964  -19.9617   -5.0552 C   0  0  0  0  0  0  0  0  0  0  0  0
   28.8133  -19.7257   -4.0232 C   0  0  0  0  0  0  0  0  0  0  0  0
   27.4607  -19.5465   -4.3026 C   0  0  0  0  0  0  0  0  0  0  0  0
   27.0013  -19.6015   -5.5801 C   0  0  0  0  0  0  0  0  0  0  0  0
   27.8971  -19.8387   -6.6035 C   0  0  0  0  0  0  0  0  0  0  0  0
   27.2297  -21.6504  -10.2159 C   0  0  0  0  0  0  0  0  0  0  0  0
   26.5726  -22.6953  -10.0443 O   0  0  0  0  0  0  0  0  0  0  0  0
   28.5866  -21.7779  -10.4975 O   0  0  0  0  0  0  0  0  0  0  0  0
  2  1  1  6
  2  7  1  0
  3  2  1  0
  3  4  1  0
  4  5  1  0
  5  6  2  0
  5  9  1  0
  7  8  2  0
 10 11  1  0
 10  7  1  0
 11 14  1  0
 12 13  1  0
 11 12  1  6
 14 15  2  0
 16 17  1  0
 16 14  1  0
 17 28  1  0
 17 18  1  1
 19 27  1  0
 19 18  1  0
 20 19  2  0
 21 20  1  0
 21 22  1  0
 22 27  2  0
 23 22  1  0
 23 24  2  0
 24 25  1  0
 25 26  2  0
 27 26  1  0
 28 29  2  0
 28 30  1  0
M  END
$$$$
