ECW.pdb
     RDKit          3D

 30 31  0  0  1  0  0  0  0  0999 V2000
   16.9450  -13.4008  -17.9582 N   0  0  0  0  0  0  0  0  0  0  0  0
   18.1737  -12.8660  -17.4077 C   0  0  1  0  0  0  0  0  0  0  0  0
   19.2752  -13.1609  -18.3991 C   0  0  0  0  0  0  0  0  0  0  0  0
   19.5306  -14.6519  -18.4095 C   0  0  0  0  0  0  0  0  0  0  0  0
   20.6586  -15.0297  -19.2605 C   0  0  0  0  0  0  0  0  0  0  0  0
   21.8180  -14.6156  -19.0115 O   0  0  0  0  0  0  0  0  0  0  0  0
   18.0013  -11.4426  -17.1379 C   0  0  0  0  0  0  0  0  0  0  0  0
   17.4872  -10.6987  -18.0119 O   0  0  0  0  0  0  0  0  0  0  0  0
   20.4706  -15.8558  -20.3645 O   0  0  0  0  0  0  0  0  0  0  0  0
   18.4179  -10.8984  -15.8792 N   0  0  0  0  0  0  0  0  0  0  0  0
   18.3555   -9.5022  -15.5902 C   0  0  1  0  0  0  0  0  0  0  0  0
   17.5349   -9.2339  -14.3427 C   0  0  0  0  0  0  0  0  0  0  0  0
   18.2086  -10.1746  -12.9275 S   0  0  0  0  0  0  0  0  0  0  0  0
   19.7225   -8.8895  -15.4351 C   0  0  0  0  0  0  0  0  0  0  0  0
   20.6829   -9.6546  -15.1959 O   0  0  0  0  0  0  0  0  0  0  0  0
   19.8666   -7.5015  -15.5625 N   0  0  0  0  0  0  0  0  0  0  0  0
   21.1255   -6.7973  -15.4785 C   0  0  1  0  0  0  0  0  0  0  0  0
   21.7958   -6.6965  -16.8181 C   0  0  0  0  0  0  0  0  0  0  0  0
   23.0811   -5.9945  -16.7712 C   0  0  0  0  0  0  0  0  0  0  0  0
   24.3153   -6.5446  -16.5265 C   0  0  0  0  0  0  0  0  0  0  0  0
   25.2463   -5.5959  -16.5617 N   0  0  0  0  0  0  0  0  0  0  0  0
   24.6261   -4.4280  -16.8283 C   0  0  0  0  0  0  0  0  0  0  0  0
   25.1010   -3.1290  -16.9783 C   0  0  0  0  0  0  0  0  0  0  0  0
   24.2370   -2.0909  -17.2551 C   0  0  0  0  0  0  0  0  0  0  0  0
   22.8742   -2.3463  -17.3862 C   0  0  0  0  0  0  0  0  0  0  0  0
   22.3862   -3.6063  -17.2444 C   0  0  0  0  0  0  0  0  0  0  0  0
   23.2630   -4.6361  -16.9672 C   0  0  0  0  0  0  0  0  0  0  0  0
   20.8890   -5.4697  -14.8587 C   0  0  0  0  0  0  0  0  0  0  0  0
   21.8568   -4.7426  -14.5627 O   0  0  0  0  0  0  0  0  0  0  0  0
   19.6115   -4.9894  -14.5871 O   0  0  0  0  0  0  0  0  0  0  0  0
  2  1  1  6
  2  7  1  0
  3  2  1  0
  3  4  1  0
  4  5  1  0
  5  6  2  0
  5  9  1  0
  7  8  2  0
 10 11  1  0
 10  7  1  0
 11 14  1  0
 12 13  1  0
 11 12  1  1
 14 15  2  0
 16 17  1  0
 16 14  1  0
 17 28  1  0
 17 18  1  6
 19 27  1  0
 19 18  1  0
 20 19  2  0
 21 20  1  0
 21 22  1  0
 22 27  2  0
 23 22  1  0
 23 24  2  0
 24 25  1  0
 25 26  2  0
 27 26  1  0
 28 29  2  0
 28 30  1  0
M  END
$$$$
