ECW.pdb
     RDKit          3D

 30 31  0  0  1  0  0  0  0  0999 V2000
   27.7381  -20.4451  -19.4952 N   0  0  0  0  0  0  0  0  0  0  0  0
   27.7749  -20.9500  -18.1379 C   0  0  1  0  0  0  0  0  0  0  0  0
   29.1988  -20.8192  -17.6490 C   0  0  0  0  0  0  0  0  0  0  0  0
   29.9485  -22.0859  -17.9978 C   0  0  0  0  0  0  0  0  0  0  0  0
   29.5412  -23.2304  -17.1830 C   0  0  0  0  0  0  0  0  0  0  0  0
   29.1673  -24.3017  -17.7217 O   0  0  0  0  0  0  0  0  0  0  0  0
   26.8121  -20.2155  -17.3243 C   0  0  0  0  0  0  0  0  0  0  0  0
   26.4574  -19.0588  -17.6677 O   0  0  0  0  0  0  0  0  0  0  0  0
   29.5592  -23.1558  -15.7935 O   0  0  0  0  0  0  0  0  0  0  0  0
   26.2748  -20.8144  -16.1383 N   0  0  0  0  0  0  0  0  0  0  0  0
   25.3215  -20.1503  -15.3094 C   0  0  1  0  0  0  0  0  0  0  0  0
   23.9995  -19.9643  -16.0300 C   0  0  0  0  0  0  0  0  0  0  0  0
   22.8595  -21.3347  -15.6249 S   0  0  0  0  0  0  0  0  0  0  0  0
   25.0892  -20.8772  -14.0109 C   0  0  0  0  0  0  0  0  0  0  0  0
   25.1150  -22.1279  -14.0278 O   0  0  0  0  0  0  0  0  0  0  0  0
   24.8553  -20.1348  -12.8458 N   0  0  0  0  0  0  0  0  0  0  0  0
   24.9207  -20.6711  -11.5056 C   0  0  1  0  0  0  0  0  0  0  0  0
   25.7296  -19.7931  -10.5952 C   0  0  0  0  0  0  0  0  0  0  0  0
   26.9776  -20.4169  -10.1474 C   0  0  0  0  0  0  0  0  0  0  0  0
   27.8771  -21.1124  -10.9174 C   0  0  0  0  0  0  0  0  0  0  0  0
   28.8874  -21.5320  -10.1614 N   0  0  0  0  0  0  0  0  0  0  0  0
   28.6522  -21.1138   -8.9007 C   0  0  0  0  0  0  0  0  0  0  0  0
   29.3660  -21.2644   -7.7161 C   0  0  0  0  0  0  0  0  0  0  0  0
   28.8953  -20.7270   -6.5370 C   0  0  0  0  0  0  0  0  0  0  0  0
   27.6921  -20.0256   -6.5325 C   0  0  0  0  0  0  0  0  0  0  0  0
   26.9768  -19.8648   -7.6765 C   0  0  0  0  0  0  0  0  0  0  0  0
   27.4603  -20.4085   -8.8498 C   0  0  0  0  0  0  0  0  0  0  0  0
   23.5385  -20.8857  -11.0096 C   0  0  0  0  0  0  0  0  0  0  0  0
   22.5880  -20.2807  -11.5420 O   0  0  0  0  0  0  0  0  0  0  0  0
   23.2486  -21.7482   -9.9566 O   0  0  0  0  0  0  0  0  0  0  0  0
  2  1  1  6
  2  7  1  0
  3  2  1  0
  3  4  1  0
  4  5  1  0
  5  6  2  0
  5  9  1  0
  7  8  2  0
 10 11  1  0
 10  7  1  0
 11 14  1  0
 12 13  1  0
 11 12  1  6
 14 15  2  0
 16 17  1  0
 16 14  1  0
 17 28  1  0
 17 18  1  1
 19 27  1  0
 19 18  1  0
 20 19  2  0
 21 20  1  0
 21 22  1  0
 22 27  2  0
 23 22  1  0
 23 24  2  0
 24 25  1  0
 25 26  2  0
 27 26  1  0
 28 29  2  0
 28 30  1  0
M  END
$$$$
