ECW.pdb
     RDKit          3D

 30 31  0  0  1  0  0  0  0  0999 V2000
   27.7280  -19.3693  -17.2874 N   0  0  0  0  0  0  0  0  0  0  0  0
   28.5928  -18.5221  -16.4917 C   0  0  1  0  0  0  0  0  0  0  0  0
   28.9226  -17.3069  -17.3270 C   0  0  0  0  0  0  0  0  0  0  0  0
   30.4243  -17.2246  -17.4898 C   0  0  0  0  0  0  0  0  0  0  0  0
   30.8302  -16.8666  -18.8487 C   0  0  0  0  0  0  0  0  0  0  0  0
   32.0397  -16.8939  -19.1859 O   0  0  0  0  0  0  0  0  0  0  0  0
   27.9265  -18.1989  -15.2346 C   0  0  0  0  0  0  0  0  0  0  0  0
   27.5624  -17.0171  -15.0062 O   0  0  0  0  0  0  0  0  0  0  0  0
   29.8841  -16.4879  -19.7964 O   0  0  0  0  0  0  0  0  0  0  0  0
   27.6896  -19.2286  -14.2663 N   0  0  0  0  0  0  0  0  0  0  0  0
   26.6694  -19.1263  -13.2736 C   0  0  1  0  0  0  0  0  0  0  0  0
   25.3155  -18.8526  -13.9010 C   0  0  0  0  0  0  0  0  0  0  0  0
   23.9826  -19.1551  -12.6871 S   0  0  0  0  0  0  0  0  0  0  0  0
   26.5851  -20.3587  -12.4121 C   0  0  0  0  0  0  0  0  0  0  0  0
   26.2869  -21.4403  -12.9657 O   0  0  0  0  0  0  0  0  0  0  0  0
   26.8405  -20.2500  -11.0386 N   0  0  0  0  0  0  0  0  0  0  0  0
   26.7584  -21.3461  -10.1006 C   0  0  1  0  0  0  0  0  0  0  0  0
   27.9398  -21.3739   -9.1746 C   0  0  0  0  0  0  0  0  0  0  0  0
   27.8190  -20.4381   -8.0535 C   0  0  0  0  0  0  0  0  0  0  0  0
   27.0055  -19.3341   -7.9819 C   0  0  0  0  0  0  0  0  0  0  0  0
   27.1704  -18.7283   -6.8097 N   0  0  0  0  0  0  0  0  0  0  0  0
   28.0881  -19.4316   -6.1148 C   0  0  0  0  0  0  0  0  0  0  0  0
   28.6372  -19.2588   -4.8482 C   0  0  0  0  0  0  0  0  0  0  0  0
   29.5793  -20.1406   -4.3628 C   0  0  0  0  0  0  0  0  0  0  0  0
   29.9850  -21.2159   -5.1494 C   0  0  0  0  0  0  0  0  0  0  0  0
   29.4634  -21.4062   -6.3894 C   0  0  0  0  0  0  0  0  0  0  0  0
   28.5209  -20.5152   -6.8626 C   0  0  0  0  0  0  0  0  0  0  0  0
   25.4674  -21.2566   -9.3742 C   0  0  0  0  0  0  0  0  0  0  0  0
   24.7444  -20.2516   -9.5164 O   0  0  0  0  0  0  0  0  0  0  0  0
   25.0176  -22.2627   -8.5244 O   0  0  0  0  0  0  0  0  0  0  0  0
  2  1  1  6
  2  7  1  0
  3  2  1  0
  3  4  1  0
  4  5  1  0
  5  6  2  0
  5  9  1  0
  7  8  2  0
 10 11  1  0
 10  7  1  0
 11 14  1  0
 12 13  1  0
 11 12  1  6
 14 15  2  0
 16 17  1  0
 16 14  1  0
 17 28  1  0
 17 18  1  1
 19 27  1  0
 19 18  1  0
 20 19  2  0
 21 20  1  0
 21 22  1  0
 22 27  2  0
 23 22  1  0
 23 24  2  0
 24 25  1  0
 25 26  2  0
 27 26  1  0
 28 29  2  0
 28 30  1  0
M  END
$$$$
