ECW.pdb
     RDKit          3D

 30 31  0  0  1  0  0  0  0  0999 V2000
   26.9744  -20.0595  -19.8036 N   0  0  0  0  0  0  0  0  0  0  0  0
   26.9623  -20.4421  -18.4064 C   0  0  1  0  0  0  0  0  0  0  0  0
   27.4668  -19.2592  -17.6130 C   0  0  0  0  0  0  0  0  0  0  0  0
   27.8996  -18.1781  -18.5785 C   0  0  0  0  0  0  0  0  0  0  0  0
   29.0374  -17.4003  -18.0884 C   0  0  0  0  0  0  0  0  0  0  0  0
   30.1951  -17.8874  -18.0864 O   0  0  0  0  0  0  0  0  0  0  0  0
   25.6151  -20.8595  -18.0329 C   0  0  0  0  0  0  0  0  0  0  0  0
   24.6200  -20.2431  -18.4923 O   0  0  0  0  0  0  0  0  0  0  0  0
   28.8606  -16.1042  -17.6138 O   0  0  0  0  0  0  0  0  0  0  0  0
   25.4316  -21.9694  -17.1449 N   0  0  0  0  0  0  0  0  0  0  0  0
   24.1402  -22.4099  -16.7264 C   0  0  1  0  0  0  0  0  0  0  0  0
   23.5615  -23.4215  -17.6977 C   0  0  0  0  0  0  0  0  0  0  0  0
   24.8068  -24.6982  -18.0986 S   0  0  0  0  0  0  0  0  0  0  0  0
   24.1587  -22.9970  -15.3396 C   0  0  0  0  0  0  0  0  0  0  0  0
   24.8911  -23.9904  -15.1345 O   0  0  0  0  0  0  0  0  0  0  0  0
   23.3643  -22.4163  -14.3421 N   0  0  0  0  0  0  0  0  0  0  0  0
   23.2509  -22.9155  -12.9909 C   0  0  1  0  0  0  0  0  0  0  0  0
   24.0833  -22.1150  -12.0316 C   0  0  0  0  0  0  0  0  0  0  0  0
   24.3479  -20.7500  -12.4938 C   0  0  0  0  0  0  0  0  0  0  0  0
   23.5533  -19.6454  -12.3079 C   0  0  0  0  0  0  0  0  0  0  0  0
   24.1204  -18.5827  -12.8713 N   0  0  0  0  0  0  0  0  0  0  0  0
   25.2821  -18.9878  -13.4246 C   0  0  0  0  0  0  0  0  0  0  0  0
   26.2688  -18.3086  -14.1320 C   0  0  0  0  0  0  0  0  0  0  0  0
   27.3837  -18.9718  -14.5988 C   0  0  0  0  0  0  0  0  0  0  0  0
   27.5230  -20.3366  -14.3589 C   0  0  0  0  0  0  0  0  0  0  0  0
   26.5731  -21.0221  -13.6704 C   0  0  0  0  0  0  0  0  0  0  0  0
   25.4620  -20.3449  -13.2090 C   0  0  0  0  0  0  0  0  0  0  0  0
   21.8162  -22.9453  -12.6122 C   0  0  0  0  0  0  0  0  0  0  0  0
   20.9827  -22.3151  -13.2912 O   0  0  0  0  0  0  0  0  0  0  0  0
   21.3491  -23.6583  -11.5122 O   0  0  0  0  0  0  0  0  0  0  0  0
  2  1  1  6
  2  7  1  0
  3  2  1  0
  3  4  1  0
  4  5  1  0
  5  6  2  0
  5  9  1  0
  7  8  2  0
 10 11  1  0
 10  7  1  0
 11 14  1  0
 12 13  1  0
 11 12  1  6
 14 15  2  0
 16 17  1  0
 16 14  1  0
 17 28  1  0
 17 18  1  1
 19 27  1  0
 19 18  1  0
 20 19  2  0
 21 20  1  0
 21 22  1  0
 22 27  2  0
 23 22  1  0
 23 24  2  0
 24 25  1  0
 25 26  2  0
 27 26  1  0
 28 29  2  0
 28 30  1  0
M  END
$$$$
