ECW.pdb
     RDKit          3D

 30 31  0  0  1  0  0  0  0  0999 V2000
   28.3922  -22.7201  -19.1408 N   0  0  0  0  0  0  0  0  0  0  0  0
   28.1632  -21.2913  -19.0711 C   0  0  1  0  0  0  0  0  0  0  0  0
   26.8330  -21.0173  -19.7336 C   0  0  0  0  0  0  0  0  0  0  0  0
   26.6754  -21.9563  -20.9090 C   0  0  0  0  0  0  0  0  0  0  0  0
   25.4390  -21.7287  -21.6569 C   0  0  0  0  0  0  0  0  0  0  0  0
   24.5621  -22.6244  -21.7361 O   0  0  0  0  0  0  0  0  0  0  0  0
   28.2168  -20.8622  -17.6777 C   0  0  0  0  0  0  0  0  0  0  0  0
   28.9804  -21.4522  -16.8711 O   0  0  0  0  0  0  0  0  0  0  0  0
   25.2088  -20.5145  -22.2966 O   0  0  0  0  0  0  0  0  0  0  0  0
   27.4002  -19.7712  -17.2341 N   0  0  0  0  0  0  0  0  0  0  0  0
   27.5531  -19.1739  -15.9470 C   0  0  1  0  0  0  0  0  0  0  0  0
   27.4484  -17.6626  -16.0249 C   0  0  0  0  0  0  0  0  0  0  0  0
   27.1966  -16.9587  -14.3566 S   0  0  0  0  0  0  0  0  0  0  0  0
   26.5513  -19.6975  -14.9518 C   0  0  0  0  0  0  0  0  0  0  0  0
   25.3365  -19.5723  -15.2234 O   0  0  0  0  0  0  0  0  0  0  0  0
   27.0111  -20.2980  -13.7722 N   0  0  0  0  0  0  0  0  0  0  0  0
   26.1728  -20.6392  -12.6458 C   0  0  1  0  0  0  0  0  0  0  0  0
   26.9867  -20.9792  -11.4309 C   0  0  0  0  0  0  0  0  0  0  0  0
   26.2109  -20.9525  -10.1881 C   0  0  0  0  0  0  0  0  0  0  0  0
   24.9581  -21.4764   -9.9839 C   0  0  0  0  0  0  0  0  0  0  0  0
   24.5774  -21.2574   -8.7288 N   0  0  0  0  0  0  0  0  0  0  0  0
   25.5759  -20.5926   -8.1117 C   0  0  0  0  0  0  0  0  0  0  0  0
   25.7193  -20.1141   -6.8132 C   0  0  0  0  0  0  0  0  0  0  0  0
   26.8667  -19.4535   -6.4289 C   0  0  0  0  0  0  0  0  0  0  0  0
   27.8930  -19.2636   -7.3510 C   0  0  0  0  0  0  0  0  0  0  0  0
   27.7767  -19.7216   -8.6249 C   0  0  0  0  0  0  0  0  0  0  0  0
   26.6220  -20.3814   -8.9958 C   0  0  0  0  0  0  0  0  0  0  0  0
   25.2243  -19.5242  -12.4020 C   0  0  0  0  0  0  0  0  0  0  0  0
   25.6179  -18.3450  -12.4899 O   0  0  0  0  0  0  0  0  0  0  0  0
   23.8891  -19.7381  -12.0729 O   0  0  0  0  0  0  0  0  0  0  0  0
  2  1  1  1
  2  7  1  0
  3  2  1  0
  3  4  1  0
  4  5  1  0
  5  6  2  0
  5  9  1  0
  7  8  2  0
 10 11  1  0
 10  7  1  0
 11 14  1  0
 12 13  1  0
 11 12  1  6
 14 15  2  0
 16 17  1  0
 16 14  1  0
 17 28  1  0
 17 18  1  1
 19 27  1  0
 19 18  1  0
 20 19  2  0
 21 20  1  0
 21 22  1  0
 22 27  2  0
 23 22  1  0
 23 24  2  0
 24 25  1  0
 25 26  2  0
 27 26  1  0
 28 29  2  0
 28 30  1  0
M  END
$$$$
