ECW.pdb
     RDKit          3D

 30 31  0  0  1  0  0  0  0  0999 V2000
   21.2929   -5.0143  -17.1695 N   0  0  0  0  0  0  0  0  0  0  0  0
   21.9291   -4.6127  -15.9315 C   0  0  1  0  0  0  0  0  0  0  0  0
   21.0283   -3.5930  -15.2742 C   0  0  0  0  0  0  0  0  0  0  0  0
   19.7858   -3.4277  -16.1211 C   0  0  0  0  0  0  0  0  0  0  0  0
   18.8379   -2.4663  -15.5585 C   0  0  0  0  0  0  0  0  0  0  0  0
   19.0345   -1.9574  -14.4272 O   0  0  0  0  0  0  0  0  0  0  0  0
   22.1679   -5.7929  -15.1076 C   0  0  0  0  0  0  0  0  0  0  0  0
   22.1056   -5.7033  -13.8547 O   0  0  0  0  0  0  0  0  0  0  0  0
   17.6978   -2.0956  -16.2652 O   0  0  0  0  0  0  0  0  0  0  0  0
   22.4719   -7.0481  -15.7287 N   0  0  0  0  0  0  0  0  0  0  0  0
   22.6573   -8.2485  -14.9792 C   0  0  1  0  0  0  0  0  0  0  0  0
   21.4871   -8.5030  -14.0480 C   0  0  0  0  0  0  0  0  0  0  0  0
   21.7235  -10.0778  -13.1503 S   0  0  0  0  0  0  0  0  0  0  0  0
   22.8661   -9.4484  -15.8651 C   0  0  0  0  0  0  0  0  0  0  0  0
   21.9583   -9.7438  -16.6736 O   0  0  0  0  0  0  0  0  0  0  0  0
   24.0551  -10.1812  -15.7522 N   0  0  0  0  0  0  0  0  0  0  0  0
   24.3571  -11.3744  -16.5092 C   0  0  1  0  0  0  0  0  0  0  0  0
   25.7957  -11.7771  -16.3602 C   0  0  0  0  0  0  0  0  0  0  0  0
   26.1319  -13.0042  -17.0871 C   0  0  0  0  0  0  0  0  0  0  0  0
   26.2972  -13.1430  -18.4433 C   0  0  0  0  0  0  0  0  0  0  0  0
   26.5948  -14.4060  -18.7339 N   0  0  0  0  0  0  0  0  0  0  0  0
   26.6248  -15.0934  -17.5735 C   0  0  0  0  0  0  0  0  0  0  0  0
   26.8806  -16.4298  -17.2837 C   0  0  0  0  0  0  0  0  0  0  0  0
   26.8480  -16.8873  -15.9837 C   0  0  0  0  0  0  0  0  0  0  0  0
   26.5560  -16.0011  -14.9496 C   0  0  0  0  0  0  0  0  0  0  0  0
   26.3028  -14.6913  -15.2071 C   0  0  0  0  0  0  0  0  0  0  0  0
   26.3389  -14.2473  -16.5138 C   0  0  0  0  0  0  0  0  0  0  0  0
   23.4195  -12.4494  -16.0996 C   0  0  0  0  0  0  0  0  0  0  0  0
   23.1186  -12.5847  -14.8979 O   0  0  0  0  0  0  0  0  0  0  0  0
   22.8494  -13.3310  -17.0130 O   0  0  0  0  0  0  0  0  0  0  0  0
  2  1  1  6
  2  7  1  0
  3  2  1  0
  3  4  1  0
  4  5  1  0
  5  6  2  0
  5  9  1  0
  7  8  2  0
 10 11  1  0
 10  7  1  0
 11 14  1  0
 12 13  1  0
 11 12  1  6
 14 15  2  0
 16 17  1  0
 16 14  1  0
 17 28  1  0
 17 18  1  1
 19 27  1  0
 19 18  1  0
 20 19  2  0
 21 20  1  0
 21 22  1  0
 22 27  2  0
 23 22  1  0
 23 24  2  0
 24 25  1  0
 25 26  2  0
 27 26  1  0
 28 29  2  0
 28 30  1  0
M  END
$$$$
