HCD.pdb
     RDKit          3D

 25 25  0  0  1  0  0  0  0  0999 V2000
    8.5211  -15.7064   20.5607 N   0  0  0  0  0  0  0  0  0  0  0  0
    8.2878  -14.3033   20.7231 C   0  0  1  0  0  0  0  0  0  0  0  0
    7.1120  -13.8120   19.9303 C   0  0  0  0  0  0  0  0  0  0  0  0
    7.4795  -13.7691   18.4978 C   0  0  0  0  0  0  0  0  0  0  0  0
    8.6742  -14.1695   17.9569 C   0  0  0  0  0  0  0  0  0  0  0  0
    8.6316  -13.9756   16.6049 N   0  0  0  0  0  0  0  0  0  0  0  0
    7.4270  -13.4629   16.3173 C   0  0  0  0  0  0  0  0  0  0  0  0
    6.7291  -13.3395   17.4782 N   0  0  0  0  0  0  0  0  0  0  0  0
    8.0734  -13.9867   22.1822 C   0  0  0  0  0  0  0  0  0  0  0  0
    7.4698  -12.9477   22.4956 O   0  0  0  0  0  0  0  0  0  0  0  0
    8.5633  -14.8775   23.1529 N   0  0  0  0  0  0  0  0  0  0  0  0
    8.3085  -14.7009   24.5428 C   0  0  1  0  0  0  0  0  0  0  0  0
    6.8792  -14.6344   24.9444 C   0  0  0  0  0  0  0  0  0  0  0  0
    6.6013  -13.9646   26.5793 S   0  0  0  0  0  0  0  0  0  0  0  0
    9.0383  -15.7043   25.4158 C   0  0  0  0  0  0  0  0  0  0  0  0
   10.1655  -15.4720   25.9191 O   0  0  0  0  0  0  0  0  0  0  0  0
    8.4675  -16.9631   25.7028 N   0  0  0  0  0  0  0  0  0  0  0  0
    9.1545  -17.8207   26.6879 C   0  0  1  0  0  0  0  0  0  0  0  0
    9.3332  -17.0931   27.9781 C   0  0  0  0  0  0  0  0  0  0  0  0
   10.6068  -17.3495   28.6483 C   0  0  0  0  0  0  0  0  0  0  0  0
   11.4671  -18.0863   28.1222 O   0  0  0  0  0  0  0  0  0  0  0  0
    8.2027  -18.9721   26.8598 C   0  0  0  0  0  0  0  0  0  0  0  0
    8.4972  -19.9810   27.5407 O   0  0  0  0  0  0  0  0  0  0  0  0
   10.9460  -16.8082   29.8859 O   0  0  0  0  0  0  0  0  0  0  0  0
    6.9339  -18.9737   26.2647 O   0  0  0  0  0  0  0  0  0  0  0  0
  2  1  1  1
  3  2  1  0
  4  3  1  0
  5  4  2  0
  6  7  1  0
  6  5  1  0
  7  8  2  0
  8  4  1  0
  9 10  2  0
  9  2  1  0
 11  9  1  0
 12 11  1  0
 12 15  1  0
 12 13  1  6
 14 13  1  0
 15 17  1  0
 16 15  2  0
 17 18  1  0
 18 22  1  0
 18 19  1  1
 19 20  1  0
 20 21  2  0
 22 23  2  0
 22 25  1  0
 24 20  1  0
M  END
$$$$
