HCD.pdb
     RDKit          3D

 25 25  0  0  1  0  0  0  0  0999 V2000
    8.9936  -12.2181   18.9609 N   0  0  0  0  0  0  0  0  0  0  0  0
    8.5607  -13.4361   19.5759 C   0  0  1  0  0  0  0  0  0  0  0  0
    9.0926  -14.6587   18.8869 C   0  0  0  0  0  0  0  0  0  0  0  0
    8.5885  -14.6868   17.4961 C   0  0  0  0  0  0  0  0  0  0  0  0
    7.8670  -13.6987   16.8772 C   0  0  0  0  0  0  0  0  0  0  0  0
    7.5874  -14.0934   15.5992 N   0  0  0  0  0  0  0  0  0  0  0  0
    8.1295  -15.3080   15.4335 C   0  0  0  0  0  0  0  0  0  0  0  0
    8.7391  -15.6639   16.5961 N   0  0  0  0  0  0  0  0  0  0  0  0
    8.9834  -13.4555   21.0237 C   0  0  0  0  0  0  0  0  0  0  0  0
    9.5124  -12.4452   21.5153 O   0  0  0  0  0  0  0  0  0  0  0  0
    8.7675  -14.6192   21.7821 N   0  0  0  0  0  0  0  0  0  0  0  0
    9.0515  -14.6802   23.1762 C   0  0  1  0  0  0  0  0  0  0  0  0
    8.3351  -13.7014   24.0351 C   0  0  0  0  0  0  0  0  0  0  0  0
    6.5520  -13.8145   23.9556 S   0  0  0  0  0  0  0  0  0  0  0  0
    8.9012  -16.0743   23.7556 C   0  0  0  0  0  0  0  0  0  0  0  0
    8.0226  -16.8811   23.3622 O   0  0  0  0  0  0  0  0  0  0  0  0
    9.7604  -16.5283   24.7795 N   0  0  0  0  0  0  0  0  0  0  0  0
   10.6749  -17.6432   24.4653 C   0  0  1  0  0  0  0  0  0  0  0  0
   11.7678  -17.1822   23.5604 C   0  0  0  0  0  0  0  0  0  0  0  0
   12.7970  -18.1849   23.2915 C   0  0  0  0  0  0  0  0  0  0  0  0
   12.5020  -19.3958   23.2122 O   0  0  0  0  0  0  0  0  0  0  0  0
   11.2290  -18.0193   25.8116 C   0  0  0  0  0  0  0  0  0  0  0  0
   12.0488  -18.9551   25.9543 O   0  0  0  0  0  0  0  0  0  0  0  0
   14.1425  -17.8747   23.1094 O   0  0  0  0  0  0  0  0  0  0  0  0
   10.8545  -17.3390   26.9782 O   0  0  0  0  0  0  0  0  0  0  0  0
  2  1  1  6
  3  2  1  0
  4  3  1  0
  5  4  2  0
  6  7  1  0
  6  5  1  0
  7  8  2  0
  8  4  1  0
  9 10  2  0
  9  2  1  0
 11  9  1  0
 12 11  1  0
 12 15  1  0
 12 13  1  1
 14 13  1  0
 15 17  1  0
 16 15  2  0
 17 18  1  0
 18 22  1  0
 18 19  1  6
 19 20  1  0
 20 21  2  0
 22 23  2  0
 22 25  1  0
 24 20  1  0
M  END
$$$$
