HCD.pdb
     RDKit          3D

 25 25  0  0  1  0  0  0  0  0999 V2000
    8.3170  -15.9343   16.8301 N   0  0  0  0  0  0  0  0  0  0  0  0
    8.6797  -16.8264   17.8894 C   0  0  1  0  0  0  0  0  0  0  0  0
    9.7303  -17.8181   17.4829 C   0  0  0  0  0  0  0  0  0  0  0  0
    9.2576  -18.5624   16.2948 C   0  0  0  0  0  0  0  0  0  0  0  0
    8.2191  -19.4570   16.2612 C   0  0  0  0  0  0  0  0  0  0  0  0
    8.0900  -19.9330   14.9868 N   0  0  0  0  0  0  0  0  0  0  0  0
    9.0363  -19.3395   14.2459 C   0  0  0  0  0  0  0  0  0  0  0  0
    9.7454  -18.5040   15.0514 N   0  0  0  0  0  0  0  0  0  0  0  0
    9.1717  -16.0364   19.0764 C   0  0  0  0  0  0  0  0  0  0  0  0
   10.2963  -15.5115   19.0324 O   0  0  0  0  0  0  0  0  0  0  0  0
    8.3432  -15.9137   20.2053 N   0  0  0  0  0  0  0  0  0  0  0  0
    8.8622  -15.6291   21.5005 C   0  0  1  0  0  0  0  0  0  0  0  0
    7.8645  -15.2760   22.5439 C   0  0  0  0  0  0  0  0  0  0  0  0
    6.1635  -15.5449   22.0612 S   0  0  0  0  0  0  0  0  0  0  0  0
    9.7876  -16.7113   22.0239 C   0  0  0  0  0  0  0  0  0  0  0  0
   10.0974  -17.7239   21.3482 O   0  0  0  0  0  0  0  0  0  0  0  0
   10.3482  -16.6206   23.3163 N   0  0  0  0  0  0  0  0  0  0  0  0
   11.7927  -16.8870   23.4590 C   0  0  1  0  0  0  0  0  0  0  0  0
   12.5848  -15.9164   22.6487 C   0  0  0  0  0  0  0  0  0  0  0  0
   14.0339  -16.0741   22.7582 C   0  0  0  0  0  0  0  0  0  0  0  0
   14.5523  -16.4828   23.8184 O   0  0  0  0  0  0  0  0  0  0  0  0
   12.0359  -16.6700   24.9269 C   0  0  0  0  0  0  0  0  0  0  0  0
   11.3832  -15.8330   25.5914 O   0  0  0  0  0  0  0  0  0  0  0  0
   14.9181  -15.7892   21.7206 O   0  0  0  0  0  0  0  0  0  0  0  0
   13.0086  -17.3960   25.6274 O   0  0  0  0  0  0  0  0  0  0  0  0
  2  1  1  6
  3  2  1  0
  4  3  1  0
  5  4  2  0
  6  7  1  0
  6  5  1  0
  7  8  2  0
  8  4  1  0
  9 10  2  0
  9  2  1  0
 11  9  1  0
 12 11  1  0
 12 15  1  0
 12 13  1  1
 14 13  1  0
 15 17  1  0
 16 15  2  0
 17 18  1  0
 18 22  1  0
 18 19  1  6
 19 20  1  0
 20 21  2  0
 22 23  2  0
 22 25  1  0
 24 20  1  0
M  END
$$$$
