HCD.pdb
     RDKit          3D

 25 25  0  0  1  0  0  0  0  0999 V2000
   10.6994  -14.7347   19.1311 N   0  0  0  0  0  0  0  0  0  0  0  0
    9.4168  -14.2347   19.5239 C   0  0  1  0  0  0  0  0  0  0  0  0
    8.2800  -15.0176   18.9346 C   0  0  0  0  0  0  0  0  0  0  0  0
    7.9739  -14.4854   17.5885 C   0  0  0  0  0  0  0  0  0  0  0  0
    8.6846  -13.5231   16.9183 C   0  0  0  0  0  0  0  0  0  0  0  0
    8.0912  -13.3018   15.7074 N   0  0  0  0  0  0  0  0  0  0  0  0
    7.0297  -14.1169   15.6331 C   0  0  0  0  0  0  0  0  0  0  0  0
    6.9644  -14.8364   16.7854 N   0  0  0  0  0  0  0  0  0  0  0  0
    9.3034  -14.2451   21.0279 C   0  0  0  0  0  0  0  0  0  0  0  0
    8.5140  -13.4632   21.5826 O   0  0  0  0  0  0  0  0  0  0  0  0
   10.0957  -15.1416   21.7659 N   0  0  0  0  0  0  0  0  0  0  0  0
   10.0227  -15.2278   23.1854 C   0  0  1  0  0  0  0  0  0  0  0  0
    8.6627  -15.3839   23.7641 C   0  0  0  0  0  0  0  0  0  0  0  0
    8.5964  -15.2397   25.5455 S   0  0  0  0  0  0  0  0  0  0  0  0
   10.9494  -16.2782   23.7682 C   0  0  0  0  0  0  0  0  0  0  0  0
   11.7982  -16.8930   23.0758 O   0  0  0  0  0  0  0  0  0  0  0  0
   10.8933  -16.6118   25.1387 N   0  0  0  0  0  0  0  0  0  0  0  0
   11.5932  -17.8348   25.5775 C   0  0  1  0  0  0  0  0  0  0  0  0
   10.6699  -19.0062   25.5396 C   0  0  0  0  0  0  0  0  0  0  0  0
   10.5763  -19.7463   26.7968 C   0  0  0  0  0  0  0  0  0  0  0  0
   11.2139  -19.3747   27.8043 O   0  0  0  0  0  0  0  0  0  0  0  0
   12.6832  -17.9897   24.5534 C   0  0  0  0  0  0  0  0  0  0  0  0
   13.4569  -18.9744   24.5509 O   0  0  0  0  0  0  0  0  0  0  0  0
    9.7932  -20.8863   26.9603 O   0  0  0  0  0  0  0  0  0  0  0  0
   12.8886  -17.0367   23.5466 O   0  0  0  0  0  0  0  0  0  0  0  0
  2  1  1  1
  3  2  1  0
  4  3  1  0
  5  4  2  0
  6  7  1  0
  6  5  1  0
  7  8  2  0
  8  4  1  0
  9 10  2  0
  9  2  1  0
 11  9  1  0
 12 11  1  0
 12 15  1  0
 12 13  1  6
 14 13  1  0
 15 17  1  0
 16 15  2  0
 17 18  1  0
 18 22  1  0
 18 19  1  6
 19 20  1  0
 20 21  2  0
 22 23  2  0
 22 25  1  0
 24 20  1  0
M  END
$$$$
