HCD.pdb
     RDKit          3D

 25 25  0  0  1  0  0  0  0  0999 V2000
    7.6143  -16.2150   17.9049 N   0  0  0  0  0  0  0  0  0  0  0  0
    9.0310  -16.0975   18.0734 C   0  0  1  0  0  0  0  0  0  0  0  0
    9.7214  -15.5635   16.8524 C   0  0  0  0  0  0  0  0  0  0  0  0
    8.7955  -14.6649   16.1284 C   0  0  0  0  0  0  0  0  0  0  0  0
    7.8057  -13.9003   16.6903 C   0  0  0  0  0  0  0  0  0  0  0  0
    7.1681  -13.2089   15.6989 N   0  0  0  0  0  0  0  0  0  0  0  0
    7.7573  -13.5434   14.5424 C   0  0  0  0  0  0  0  0  0  0  0  0
    8.7501  -14.4330   14.8126 N   0  0  0  0  0  0  0  0  0  0  0  0
    9.3330  -15.2024   19.2492 C   0  0  0  0  0  0  0  0  0  0  0  0
    9.1123  -13.9838   19.1569 O   0  0  0  0  0  0  0  0  0  0  0  0
    9.8578  -15.7710   20.4227 N   0  0  0  0  0  0  0  0  0  0  0  0
    9.4598  -15.3382   21.7197 C   0  0  1  0  0  0  0  0  0  0  0  0
    8.0019  -15.3775   22.0056 C   0  0  0  0  0  0  0  0  0  0  0  0
    7.5275  -14.5845   23.5369 S   0  0  0  0  0  0  0  0  0  0  0  0
   10.2185  -16.0276   22.8381 C   0  0  0  0  0  0  0  0  0  0  0  0
   10.0380  -15.7522   24.0503 O   0  0  0  0  0  0  0  0  0  0  0  0
   11.1755  -17.0259   22.5545 N   0  0  0  0  0  0  0  0  0  0  0  0
   11.8894  -17.6367   23.6926 C   0  0  1  0  0  0  0  0  0  0  0  0
   12.7359  -18.7739   23.2278 C   0  0  0  0  0  0  0  0  0  0  0  0
   12.0554  -19.7133   22.3382 C   0  0  0  0  0  0  0  0  0  0  0  0
   10.8842  -20.0785   22.5722 O   0  0  0  0  0  0  0  0  0  0  0  0
   12.7496  -16.5119   24.1985 C   0  0  0  0  0  0  0  0  0  0  0  0
   12.7168  -15.3692   23.6873 O   0  0  0  0  0  0  0  0  0  0  0  0
   12.6438  -20.2551   21.1981 O   0  0  0  0  0  0  0  0  0  0  0  0
   13.6342  -16.6867   25.2713 O   0  0  0  0  0  0  0  0  0  0  0  0
  2  1  1  6
  3  2  1  0
  4  3  1  0
  5  4  2  0
  6  7  1  0
  6  5  1  0
  7  8  2  0
  8  4  1  0
  9 10  2  0
  9  2  1  0
 11  9  1  0
 12 11  1  0
 12 15  1  0
 12 13  1  1
 14 13  1  0
 15 17  1  0
 16 15  2  0
 17 18  1  0
 18 22  1  0
 18 19  1  6
 19 20  1  0
 20 21  2  0
 22 23  2  0
 22 25  1  0
 24 20  1  0
M  END
$$$$
