HCD.pdb
     RDKit          3D

 25 25  0  0  1  0  0  0  0  0999 V2000
   10.4175  -15.8128   21.0258 N   0  0  0  0  0  0  0  0  0  0  0  0
    9.3541  -15.0420   21.5952 C   0  0  1  0  0  0  0  0  0  0  0  0
    8.0102  -15.3923   21.0261 C   0  0  0  0  0  0  0  0  0  0  0  0
    7.7303  -14.5108   19.8713 C   0  0  0  0  0  0  0  0  0  0  0  0
    8.5528  -13.5264   19.3871 C   0  0  0  0  0  0  0  0  0  0  0  0
    7.9464  -12.9349   18.3148 N   0  0  0  0  0  0  0  0  0  0  0  0
    6.7666  -13.5468   18.1413 C   0  0  0  0  0  0  0  0  0  0  0  0
    6.6415  -14.5079   19.0955 N   0  0  0  0  0  0  0  0  0  0  0  0
    9.3282  -15.2343   23.0910 C   0  0  0  0  0  0  0  0  0  0  0  0
   10.2615  -15.8411   23.6413 O   0  0  0  0  0  0  0  0  0  0  0  0
    8.2459  -14.7206   23.8265 N   0  0  0  0  0  0  0  0  0  0  0  0
    8.1595  -14.8517   25.2418 C   0  0  1  0  0  0  0  0  0  0  0  0
    6.9915  -14.2010   25.8907 C   0  0  0  0  0  0  0  0  0  0  0  0
    6.7388  -12.4949   25.4177 S   0  0  0  0  0  0  0  0  0  0  0  0
    8.2729  -16.2882   25.7163 C   0  0  0  0  0  0  0  0  0  0  0  0
    7.4006  -17.1564   25.4648 O   0  0  0  0  0  0  0  0  0  0  0  0
    9.3855  -16.7140   26.4736 N   0  0  0  0  0  0  0  0  0  0  0  0
    9.4423  -18.1335   26.8733 C   0  0  1  0  0  0  0  0  0  0  0  0
   10.1412  -18.9411   25.8315 C   0  0  0  0  0  0  0  0  0  0  0  0
   10.4557  -20.3106   26.2347 C   0  0  0  0  0  0  0  0  0  0  0  0
    9.7775  -20.8893   27.1092 O   0  0  0  0  0  0  0  0  0  0  0  0
   10.2488  -18.0984   28.1418 C   0  0  0  0  0  0  0  0  0  0  0  0
   10.8349  -17.0612   28.5275 O   0  0  0  0  0  0  0  0  0  0  0  0
   11.5030  -21.0501   25.6907 O   0  0  0  0  0  0  0  0  0  0  0  0
   10.3855  -19.2287   28.9590 O   0  0  0  0  0  0  0  0  0  0  0  0
  2  1  1  6
  3  2  1  0
  4  3  1  0
  5  4  2  0
  6  7  1  0
  6  5  1  0
  7  8  2  0
  8  4  1  0
  9 10  2  0
  9  2  1  0
 11  9  1  0
 12 11  1  0
 12 15  1  0
 12 13  1  6
 14 13  1  0
 15 17  1  0
 16 15  2  0
 17 18  1  0
 18 22  1  0
 18 19  1  6
 19 20  1  0
 20 21  2  0
 22 23  2  0
 22 25  1  0
 24 20  1  0
M  END
$$$$
