HCD.pdb
     RDKit          3D

 25 25  0  0  1  0  0  0  0  0999 V2000
    8.8613  -15.6159   20.0784 N   0  0  0  0  0  0  0  0  0  0  0  0
    8.5390  -14.3626   20.6904 C   0  0  1  0  0  0  0  0  0  0  0  0
    7.2703  -13.7628   20.1584 C   0  0  0  0  0  0  0  0  0  0  0  0
    7.3460  -13.7042   18.6819 C   0  0  0  0  0  0  0  0  0  0  0  0
    7.9184  -12.7029   17.9405 C   0  0  0  0  0  0  0  0  0  0  0  0
    7.7895  -13.0088   16.6149 N   0  0  0  0  0  0  0  0  0  0  0  0
    7.1466  -14.1827   16.5413 C   0  0  0  0  0  0  0  0  0  0  0  0
    6.8789  -14.6011   17.8075 N   0  0  0  0  0  0  0  0  0  0  0  0
    8.4197  -14.5392   22.1837 C   0  0  0  0  0  0  0  0  0  0  0  0
    7.9748  -13.6060   22.8717 O   0  0  0  0  0  0  0  0  0  0  0  0
    8.8161  -15.7582   22.7606 N   0  0  0  0  0  0  0  0  0  0  0  0
    8.7722  -15.9826   24.1661 C   0  0  1  0  0  0  0  0  0  0  0  0
    7.4566  -15.7695   24.8237 C   0  0  0  0  0  0  0  0  0  0  0  0
    6.1809  -16.9142   24.3128 S   0  0  0  0  0  0  0  0  0  0  0  0
    9.3341  -17.3318   24.5731 C   0  0  0  0  0  0  0  0  0  0  0  0
    9.2470  -18.3508   23.8436 O   0  0  0  0  0  0  0  0  0  0  0  0
    9.9904  -17.4980   25.8118 N   0  0  0  0  0  0  0  0  0  0  0  0
   11.2367  -18.2882   25.8287 C   0  0  1  0  0  0  0  0  0  0  0  0
   12.3471  -17.5249   25.1882 C   0  0  0  0  0  0  0  0  0  0  0  0
   13.6548  -18.1732   25.2684 C   0  0  0  0  0  0  0  0  0  0  0  0
   13.7683  -19.3229   25.7428 O   0  0  0  0  0  0  0  0  0  0  0  0
   11.5029  -18.4734   27.2969 C   0  0  0  0  0  0  0  0  0  0  0  0
   10.9228  -17.7866   28.1687 O   0  0  0  0  0  0  0  0  0  0  0  0
   14.8360  -17.5759   24.8353 O   0  0  0  0  0  0  0  0  0  0  0  0
   12.4167  -19.4273   27.7650 O   0  0  0  0  0  0  0  0  0  0  0  0
  2  1  1  6
  3  2  1  0
  4  3  1  0
  5  4  2  0
  6  7  1  0
  6  5  1  0
  7  8  2  0
  8  4  1  0
  9 10  2  0
  9  2  1  0
 11  9  1  0
 12 11  1  0
 12 15  1  0
 12 13  1  6
 14 13  1  0
 15 17  1  0
 16 15  2  0
 17 18  1  0
 18 22  1  0
 18 19  1  1
 19 20  1  0
 20 21  2  0
 22 23  2  0
 22 25  1  0
 24 20  1  0
M  END
$$$$
