HCD.pdb
     RDKit          3D

 25 25  0  0  1  0  0  0  0  0999 V2000
    8.6873  -15.5990   21.1713 N   0  0  0  0  0  0  0  0  0  0  0  0
    8.4250  -14.1918   21.1899 C   0  0  1  0  0  0  0  0  0  0  0  0
    7.1297  -13.8311   20.5232 C   0  0  0  0  0  0  0  0  0  0  0  0
    7.2252  -14.1455   19.0806 C   0  0  0  0  0  0  0  0  0  0  0  0
    6.9081  -15.3421   18.4909 C   0  0  0  0  0  0  0  0  0  0  0  0
    7.1282  -15.2413   17.1460 N   0  0  0  0  0  0  0  0  0  0  0  0
    7.5746  -13.9995   16.9109 C   0  0  0  0  0  0  0  0  0  0  0  0
    7.6314  -13.3363   18.0970 N   0  0  0  0  0  0  0  0  0  0  0  0
    8.4092  -13.6940   22.6136 C   0  0  0  0  0  0  0  0  0  0  0  0
    7.9894  -12.5498   22.8520 O   0  0  0  0  0  0  0  0  0  0  0  0
    8.8711  -14.5393   23.6373 N   0  0  0  0  0  0  0  0  0  0  0  0
    8.8245  -14.1643   25.0103 C   0  0  1  0  0  0  0  0  0  0  0  0
    7.5299  -13.6219   25.4986 C   0  0  0  0  0  0  0  0  0  0  0  0
    7.4675  -13.3336   27.2625 S   0  0  0  0  0  0  0  0  0  0  0  0
    9.3048  -15.2588   25.9447 C   0  0  0  0  0  0  0  0  0  0  0  0
    8.6091  -16.2671   26.2224 O   0  0  0  0  0  0  0  0  0  0  0  0
   10.5779  -15.1855   26.5502 N   0  0  0  0  0  0  0  0  0  0  0  0
   11.0398  -16.3550   27.3228 C   0  0  1  0  0  0  0  0  0  0  0  0
   12.5168  -16.5183   27.1892 C   0  0  0  0  0  0  0  0  0  0  0  0
   13.0009  -16.5582   25.8105 C   0  0  0  0  0  0  0  0  0  0  0  0
   12.6017  -17.4388   25.0199 O   0  0  0  0  0  0  0  0  0  0  0  0
   10.6752  -15.9951   28.7365 C   0  0  0  0  0  0  0  0  0  0  0  0
   10.2742  -14.8504   29.0479 O   0  0  0  0  0  0  0  0  0  0  0  0
   13.9157  -15.6456   25.2910 O   0  0  0  0  0  0  0  0  0  0  0  0
   10.7662  -16.9260   29.7801 O   0  0  0  0  0  0  0  0  0  0  0  0
  2  1  1  1
  3  2  1  0
  4  3  1  0
  5  4  2  0
  6  7  1  0
  6  5  1  0
  7  8  2  0
  8  4  1  0
  9 10  2  0
  9  2  1  0
 11  9  1  0
 12 11  1  0
 12 15  1  0
 12 13  1  1
 14 13  1  0
 15 17  1  0
 16 15  2  0
 17 18  1  0
 18 22  1  0
 18 19  1  1
 19 20  1  0
 20 21  2  0
 22 23  2  0
 22 25  1  0
 24 20  1  0
M  END
$$$$
