HCD.pdb
     RDKit          3D

 25 25  0  0  1  0  0  0  0  0999 V2000
   11.0450  -18.7834   18.7621 N   0  0  0  0  0  0  0  0  0  0  0  0
   10.9790  -17.3616   18.6083 C   0  0  1  0  0  0  0  0  0  0  0  0
    9.7879  -16.9157   17.8115 C   0  0  0  0  0  0  0  0  0  0  0  0
    9.8181  -17.5757   16.4876 C   0  0  0  0  0  0  0  0  0  0  0  0
   10.8325  -17.4984   15.5683 C   0  0  0  0  0  0  0  0  0  0  0  0
   10.4913  -18.2418   14.4737 N   0  0  0  0  0  0  0  0  0  0  0  0
    9.2833  -18.7698   14.7159 C   0  0  0  0  0  0  0  0  0  0  0  0
    8.8786  -18.3586   15.9475 N   0  0  0  0  0  0  0  0  0  0  0  0
   10.9475  -16.7022   19.9645 C   0  0  0  0  0  0  0  0  0  0  0  0
   10.7891  -15.4727   20.0381 O   0  0  0  0  0  0  0  0  0  0  0  0
   11.0986  -17.4974   21.1137 N   0  0  0  0  0  0  0  0  0  0  0  0
   11.0079  -16.9570   22.4281 C   0  0  1  0  0  0  0  0  0  0  0  0
    9.8110  -16.1235   22.7135 C   0  0  0  0  0  0  0  0  0  0  0  0
    9.5356  -15.7955   24.4499 S   0  0  0  0  0  0  0  0  0  0  0  0
   11.1742  -18.0014   23.5158 C   0  0  0  0  0  0  0  0  0  0  0  0
   10.3800  -18.9641   23.6588 O   0  0  0  0  0  0  0  0  0  0  0  0
   12.2496  -17.9311   24.4275 N   0  0  0  0  0  0  0  0  0  0  0  0
   12.6764  -19.1818   25.0846 C   0  0  1  0  0  0  0  0  0  0  0  0
   14.1439  -19.3876   24.9111 C   0  0  0  0  0  0  0  0  0  0  0  0
   14.6576  -20.6229   25.5002 C   0  0  0  0  0  0  0  0  0  0  0  0
   13.8942  -21.4088   26.0998 O   0  0  0  0  0  0  0  0  0  0  0  0
   12.3461  -18.9368   26.5309 C   0  0  0  0  0  0  0  0  0  0  0  0
   12.6236  -19.7681   27.4254 O   0  0  0  0  0  0  0  0  0  0  0  0
   15.9956  -21.0045   25.4392 O   0  0  0  0  0  0  0  0  0  0  0  0
   11.7088  -17.7617   26.9519 O   0  0  0  0  0  0  0  0  0  0  0  0
  2  1  1  1
  3  2  1  0
  4  3  1  0
  5  4  2  0
  6  7  1  0
  6  5  1  0
  7  8  2  0
  8  4  1  0
  9 10  2  0
  9  2  1  0
 11  9  1  0
 12 11  1  0
 12 15  1  0
 12 13  1  6
 14 13  1  0
 15 17  1  0
 16 15  2  0
 17 18  1  0
 18 22  1  0
 18 19  1  1
 19 20  1  0
 20 21  2  0
 22 23  2  0
 22 25  1  0
 24 20  1  0
M  END
$$$$
