HCD.pdb
     RDKit          3D

 25 25  0  0  1  0  0  0  0  0999 V2000
   10.0381  -15.5637   16.8686 N   0  0  0  0  0  0  0  0  0  0  0  0
   10.8170  -14.9992   17.9288 C   0  0  1  0  0  0  0  0  0  0  0  0
   10.0620  -14.9082   19.2227 C   0  0  0  0  0  0  0  0  0  0  0  0
    8.8884  -14.0268   19.0359 C   0  0  0  0  0  0  0  0  0  0  0  0
    8.8546  -12.8698   18.3007 C   0  0  0  0  0  0  0  0  0  0  0  0
    7.5960  -12.3421   18.3693 N   0  0  0  0  0  0  0  0  0  0  0  0
    6.8648  -13.1630   19.1362 C   0  0  0  0  0  0  0  0  0  0  0  0
    7.6608  -14.1894   19.5397 N   0  0  0  0  0  0  0  0  0  0  0  0
   12.0664  -15.8182   18.1366 C   0  0  0  0  0  0  0  0  0  0  0  0
   12.4068  -16.6374   17.2675 O   0  0  0  0  0  0  0  0  0  0  0  0
   12.8161  -15.6335   19.3112 N   0  0  0  0  0  0  0  0  0  0  0  0
   14.2011  -15.9559   19.3865 C   0  0  1  0  0  0  0  0  0  0  0  0
   15.0710  -15.3604   18.3389 C   0  0  0  0  0  0  0  0  0  0  0  0
   14.8516  -13.6005   18.1086 S   0  0  0  0  0  0  0  0  0  0  0  0
   14.8006  -15.6976   20.7559 C   0  0  0  0  0  0  0  0  0  0  0  0
   15.1360  -14.5510   21.1441 O   0  0  0  0  0  0  0  0  0  0  0  0
   15.0087  -16.7567   21.6658 N   0  0  0  0  0  0  0  0  0  0  0  0
   15.2534  -16.4103   23.0793 C   0  0  1  0  0  0  0  0  0  0  0  0
   14.4147  -17.2572   23.9767 C   0  0  0  0  0  0  0  0  0  0  0  0
   12.9750  -17.0410   23.8446 C   0  0  0  0  0  0  0  0  0  0  0  0
   12.5327  -16.0021   23.3107 O   0  0  0  0  0  0  0  0  0  0  0  0
   16.7108  -16.7323   23.2617 C   0  0  0  0  0  0  0  0  0  0  0  0
   17.2960  -16.5646   24.3561 O   0  0  0  0  0  0  0  0  0  0  0  0
   12.0179  -17.9491   24.2904 O   0  0  0  0  0  0  0  0  0  0  0  0
   17.4901  -17.2380   22.2124 O   0  0  0  0  0  0  0  0  0  0  0  0
  2  1  1  6
  3  2  1  0
  4  3  1  0
  5  4  2  0
  6  7  1  0
  6  5  1  0
  7  8  2  0
  8  4  1  0
  9 10  2  0
  9  2  1  0
 11  9  1  0
 12 11  1  0
 12 15  1  0
 12 13  1  6
 14 13  1  0
 15 17  1  0
 16 15  2  0
 17 18  1  0
 18 22  1  0
 18 19  1  1
 19 20  1  0
 20 21  2  0
 22 23  2  0
 22 25  1  0
 24 20  1  0
M  END
$$$$
