HCD.pdb
     RDKit          3D

 25 25  0  0  1  0  0  0  0  0999 V2000
   10.0382  -14.3970   20.4520 N   0  0  0  0  0  0  0  0  0  0  0  0
    8.8101  -14.0203   21.0839 C   0  0  1  0  0  0  0  0  0  0  0  0
    7.6287  -14.7883   20.5673 C   0  0  0  0  0  0  0  0  0  0  0  0
    7.4111  -14.4409   19.1457 C   0  0  0  0  0  0  0  0  0  0  0  0
    7.4274  -13.1788   18.6099 C   0  0  0  0  0  0  0  0  0  0  0  0
    7.1859  -13.2680   17.2678 N   0  0  0  0  0  0  0  0  0  0  0  0
    7.0232  -14.5672   16.9814 C   0  0  0  0  0  0  0  0  0  0  0  0
    7.1619  -15.2773   18.1331 N   0  0  0  0  0  0  0  0  0  0  0  0
    8.9212  -14.2185   22.5750 C   0  0  0  0  0  0  0  0  0  0  0  0
    9.8710  -14.8758   23.0309 O   0  0  0  0  0  0  0  0  0  0  0  0
    7.9446  -13.6531   23.4132 N   0  0  0  0  0  0  0  0  0  0  0  0
    8.0249  -13.7317   24.8328 C   0  0  1  0  0  0  0  0  0  0  0  0
    6.9941  -12.9759   25.5910 C   0  0  0  0  0  0  0  0  0  0  0  0
    7.1151  -13.1399   27.3678 S   0  0  0  0  0  0  0  0  0  0  0  0
    8.0960  -15.1567   25.3487 C   0  0  0  0  0  0  0  0  0  0  0  0
    7.1828  -15.9961   25.1506 O   0  0  0  0  0  0  0  0  0  0  0  0
    9.2137  -15.6039   26.0859 N   0  0  0  0  0  0  0  0  0  0  0  0
    9.2501  -17.0242   26.4851 C   0  0  1  0  0  0  0  0  0  0  0  0
   10.0264  -17.8249   25.4939 C   0  0  0  0  0  0  0  0  0  0  0  0
   10.3281  -19.1905   25.9195 C   0  0  0  0  0  0  0  0  0  0  0  0
    9.4090  -20.0038   26.1511 O   0  0  0  0  0  0  0  0  0  0  0  0
    9.9638  -16.9882   27.8080 C   0  0  0  0  0  0  0  0  0  0  0  0
   10.2518  -18.0328   28.4357 O   0  0  0  0  0  0  0  0  0  0  0  0
   11.6231  -19.6723   26.0933 O   0  0  0  0  0  0  0  0  0  0  0  0
   10.3439  -15.7796   28.4070 O   0  0  0  0  0  0  0  0  0  0  0  0
  2  1  1  6
  3  2  1  0
  4  3  1  0
  5  4  2  0
  6  7  1  0
  6  5  1  0
  7  8  2  0
  8  4  1  0
  9 10  2  0
  9  2  1  0
 11  9  1  0
 12 11  1  0
 12 15  1  0
 12 13  1  1
 14 13  1  0
 15 17  1  0
 16 15  2  0
 17 18  1  0
 18 22  1  0
 18 19  1  6
 19 20  1  0
 20 21  2  0
 22 23  2  0
 22 25  1  0
 24 20  1  0
M  END
$$$$
