HCD.pdb
     RDKit          3D

 25 25  0  0  1  0  0  0  0  0999 V2000
    8.8912  -17.5661   19.5577 N   0  0  0  0  0  0  0  0  0  0  0  0
   10.0428  -16.7240   19.4387 C   0  0  1  0  0  0  0  0  0  0  0  0
    9.9929  -15.8348   18.2306 C   0  0  0  0  0  0  0  0  0  0  0  0
    9.9182  -16.6753   17.0153 C   0  0  0  0  0  0  0  0  0  0  0  0
    8.8066  -16.8765   16.2381 C   0  0  0  0  0  0  0  0  0  0  0  0
    9.1357  -17.7123   15.2083 N   0  0  0  0  0  0  0  0  0  0  0  0
   10.4323  -18.0214   15.3496 C   0  0  0  0  0  0  0  0  0  0  0  0
   10.9033  -17.3846   16.4552 N   0  0  0  0  0  0  0  0  0  0  0  0
   10.1851  -15.8754   20.6775 C   0  0  0  0  0  0  0  0  0  0  0  0
   11.1506  -15.1004   20.7749 O   0  0  0  0  0  0  0  0  0  0  0  0
    9.2193  -15.9831   21.6932 N   0  0  0  0  0  0  0  0  0  0  0  0
    9.4821  -15.5871   23.0356 C   0  0  1  0  0  0  0  0  0  0  0  0
    8.4959  -14.6614   23.6514 C   0  0  0  0  0  0  0  0  0  0  0  0
    7.1755  -15.4744   24.5426 S   0  0  0  0  0  0  0  0  0  0  0  0
    9.7324  -16.7593   23.9657 C   0  0  0  0  0  0  0  0  0  0  0  0
    8.9919  -17.7736   23.9929 O   0  0  0  0  0  0  0  0  0  0  0  0
   10.8294  -16.7561   24.8541 N   0  0  0  0  0  0  0  0  0  0  0  0
   11.1851  -18.0286   25.5115 C   0  0  1  0  0  0  0  0  0  0  0  0
   12.5091  -18.5148   25.0252 C   0  0  0  0  0  0  0  0  0  0  0  0
   13.0339  -19.6719   25.7481 C   0  0  0  0  0  0  0  0  0  0  0  0
   12.2744  -20.5937   26.1131 O   0  0  0  0  0  0  0  0  0  0  0  0
   11.2639  -17.6509   26.9649 C   0  0  0  0  0  0  0  0  0  0  0  0
   11.2046  -16.4594   27.3454 O   0  0  0  0  0  0  0  0  0  0  0  0
   14.3788  -19.8285   26.0741 O   0  0  0  0  0  0  0  0  0  0  0  0
   11.4082  -18.6169   27.9699 O   0  0  0  0  0  0  0  0  0  0  0  0
  2  1  1  1
  3  2  1  0
  4  3  1  0
  5  4  2  0
  6  7  1  0
  6  5  1  0
  7  8  2  0
  8  4  1  0
  9 10  2  0
  9  2  1  0
 11  9  1  0
 12 11  1  0
 12 15  1  0
 12 13  1  1
 14 13  1  0
 15 17  1  0
 16 15  2  0
 17 18  1  0
 18 22  1  0
 18 19  1  6
 19 20  1  0
 20 21  2  0
 22 23  2  0
 22 25  1  0
 24 20  1  0
M  END
$$$$
