KMG.pdb
     RDKit          3D

 22 21  0  0  1  0  0  0  0  0999 V2000
   26.0809  -23.9685  -15.2615 N   0  0  0  0  0  0  0  0  0  0  0  0
   26.2967  -22.5902  -14.8303 C   0  0  1  0  0  0  0  0  0  0  0  0
   25.6512  -21.6732  -15.8108 C   0  0  0  0  0  0  0  0  0  0  0  0
   26.4650  -21.3511  -17.0281 C   0  0  0  0  0  0  0  0  0  0  0  0
   25.9660  -22.1057  -18.2444 C   0  0  0  0  0  0  0  0  0  0  0  0
   26.8371  -21.8207  -19.4355 C   0  0  0  0  0  0  0  0  0  0  0  0
   26.3283  -22.5299  -20.6161 N   0  0  0  0  0  0  0  0  0  0  0  0
   25.8151  -22.4537  -13.4351 C   0  0  0  0  0  0  0  0  0  0  0  0
   25.0905  -23.3917  -12.9865 O   0  0  0  0  0  0  0  0  0  0  0  0
   26.8351  -19.9207   -6.2872 C   0  0  0  0  0  0  0  0  0  0  0  0
   26.6262  -20.7155   -7.8380 S   0  0  0  0  0  0  0  0  0  0  0  0
   26.9163  -19.8695   -9.3360 C   0  0  0  0  0  0  0  0  0  0  0  0
   26.7991  -20.4307  -10.6539 C   0  0  0  0  0  0  0  0  0  0  0  0
   25.7697  -21.3150  -11.2142 C   0  0  2  0  0  0  0  0  0  0  0  0
   26.1699  -21.3242  -12.6867 N   0  0  0  0  0  0  0  0  0  0  0  0
   24.3750  -20.8027  -11.2756 C   0  0  0  0  0  0  0  0  0  0  0  0
   23.6166  -20.8322  -10.2435 O   0  0  0  0  0  0  0  0  0  0  0  0
   23.7639  -20.2423  -12.4194 N   0  0  0  0  0  0  0  0  0  0  0  0
   22.4699  -19.5771  -12.3572 C   0  0  0  0  0  0  0  0  0  0  0  0
   21.3656  -20.5146  -12.6362 C   0  0  0  0  0  0  0  0  0  0  0  0
   21.6665  -21.6746  -12.9959 O   0  0  0  0  0  0  0  0  0  0  0  0
   20.0440  -20.1572  -12.5147 O   0  0  0  0  0  0  0  0  0  0  0  0
  2  8  1  0
  2  1  1  6
  3  2  1  0
  4  3  1  0
  5  4  1  0
  6  5  1  0
  7  6  1  0
  8  9  2  0
 10 11  1  0
 12 11  1  0
 13 12  1  0
 14 13  1  1
 15 14  1  0
 15  8  1  0
 16 17  2  0
 16 14  1  0
 18 16  1  0
 19 18  1  0
 20 19  1  0
 21 20  2  0
 22 20  1  0
M  END
$$$$
