KMG.pdb
     RDKit          3D

 22 21  0  0  1  0  0  0  0  0999 V2000
   25.9309  -21.8444  -14.5679 N   0  0  0  0  0  0  0  0  0  0  0  0
   24.6588  -22.0076  -15.2660 C   0  0  1  0  0  0  0  0  0  0  0  0
   24.3478  -23.4610  -15.3651 C   0  0  0  0  0  0  0  0  0  0  0  0
   24.8507  -24.1474  -16.5996 C   0  0  0  0  0  0  0  0  0  0  0  0
   26.3305  -24.4592  -16.4970 C   0  0  0  0  0  0  0  0  0  0  0  0
   26.8339  -25.0558  -17.7813 C   0  0  0  0  0  0  0  0  0  0  0  0
   28.2583  -25.3906  -17.6601 N   0  0  0  0  0  0  0  0  0  0  0  0
   23.6335  -21.1945  -14.5698 C   0  0  0  0  0  0  0  0  0  0  0  0
   23.7758  -21.0442  -13.3194 O   0  0  0  0  0  0  0  0  0  0  0  0
   19.9942  -14.9784  -13.1990 C   0  0  0  0  0  0  0  0  0  0  0  0
   20.0991  -16.6464  -13.7348 S   0  0  0  0  0  0  0  0  0  0  0  0
   21.4565  -17.2128  -14.6732 C   0  0  0  0  0  0  0  0  0  0  0  0
   21.6192  -18.5410  -15.1978 C   0  0  0  0  0  0  0  0  0  0  0  0
   21.5374  -19.8398  -14.5183 C   0  0  2  0  0  0  0  0  0  0  0  0
   22.5758  -20.6388  -15.3007 N   0  0  0  0  0  0  0  0  0  0  0  0
   20.3071  -20.6505  -14.7193 C   0  0  0  0  0  0  0  0  0  0  0  0
   20.1068  -21.2827  -15.8155 O   0  0  0  0  0  0  0  0  0  0  0  0
   19.2776  -20.8164  -13.7663 N   0  0  0  0  0  0  0  0  0  0  0  0
   18.0271  -21.4900  -14.0881 C   0  0  0  0  0  0  0  0  0  0  0  0
   18.0681  -22.9159  -13.7117 C   0  0  0  0  0  0  0  0  0  0  0  0
   17.0061  -23.5709  -13.8045 O   0  0  0  0  0  0  0  0  0  0  0  0
   19.2154  -23.5315  -13.2717 O   0  0  0  0  0  0  0  0  0  0  0  0
  2  8  1  0
  2  1  1  1
  3  2  1  0
  4  3  1  0
  5  4  1  0
  6  5  1  0
  7  6  1  0
  8  9  2  0
 10 11  1  0
 12 11  1  0
 13 12  1  0
 14 13  1  6
 15 14  1  0
 15  8  1  0
 16 17  2  0
 16 14  1  0
 18 16  1  0
 19 18  1  0
 20 19  1  0
 21 20  2  0
 22 20  1  0
M  END
$$$$
