KMG.pdb
     RDKit          3D

 22 21  0  0  1  0  0  0  0  0999 V2000
   22.2256  -11.6680  -17.7203 N   0  0  0  0  0  0  0  0  0  0  0  0
   21.1370  -11.2257  -18.5873 C   0  0  1  0  0  0  0  0  0  0  0  0
   20.4969  -12.4216  -19.2031 C   0  0  0  0  0  0  0  0  0  0  0  0
   21.4127  -13.3150  -19.9848 C   0  0  0  0  0  0  0  0  0  0  0  0
   20.6454  -14.4175  -20.6873 C   0  0  0  0  0  0  0  0  0  0  0  0
   21.5761  -15.2703  -21.5028 C   0  0  0  0  0  0  0  0  0  0  0  0
   22.5271  -15.9641  -20.6253 N   0  0  0  0  0  0  0  0  0  0  0  0
   20.2254  -10.3664  -17.7951 C   0  0  0  0  0  0  0  0  0  0  0  0
   19.1528   -9.9976  -18.3606 O   0  0  0  0  0  0  0  0  0  0  0  0
   14.5591   -9.3941  -14.0922 C   0  0  0  0  0  0  0  0  0  0  0  0
   16.0122   -9.5688  -15.0609 S   0  0  0  0  0  0  0  0  0  0  0  0
   17.5407   -9.9908  -14.3332 C   0  0  0  0  0  0  0  0  0  0  0  0
   18.7925  -10.1249  -15.0266 C   0  0  0  0  0  0  0  0  0  0  0  0
   19.5942   -9.1154  -15.7292 C   0  0  2  0  0  0  0  0  0  0  0  0
   20.5749  -10.0050  -16.4878 N   0  0  0  0  0  0  0  0  0  0  0  0
   20.5083   -8.2688  -14.9174 C   0  0  0  0  0  0  0  0  0  0  0  0
   21.6743   -8.6859  -14.5890 O   0  0  0  0  0  0  0  0  0  0  0  0
   20.2128   -6.9686  -14.4506 N   0  0  0  0  0  0  0  0  0  0  0  0
   21.1891   -6.1664  -13.7267 C   0  0  0  0  0  0  0  0  0  0  0  0
   22.0417   -5.3908  -14.6474 C   0  0  0  0  0  0  0  0  0  0  0  0
   22.8291   -4.5579  -14.1458 O   0  0  0  0  0  0  0  0  0  0  0  0
   21.9962   -5.5541  -16.0113 O   0  0  0  0  0  0  0  0  0  0  0  0
  2  8  1  0
  2  1  1  1
  3  2  1  0
  4  3  1  0
  5  4  1  0
  6  5  1  0
  7  6  1  0
  8  9  2  0
 10 11  1  0
 12 11  1  0
 13 12  1  0
 14 13  1  1
 15 14  1  0
 15  8  1  0
 16 17  2  0
 16 14  1  0
 18 16  1  0
 19 18  1  0
 20 19  1  0
 21 20  2  0
 22 20  1  0
M  END
$$$$
