KMG.pdb
     RDKit          3D

 22 21  0  0  1  0  0  0  0  0999 V2000
   26.8693  -18.9223  -12.6980 N   0  0  0  0  0  0  0  0  0  0  0  0
   27.0129  -20.3754  -12.6796 C   0  0  1  0  0  0  0  0  0  0  0  0
   28.2779  -20.7422  -13.3755 C   0  0  0  0  0  0  0  0  0  0  0  0
   28.2912  -20.5127  -14.8570 C   0  0  0  0  0  0  0  0  0  0  0  0
   27.4227  -21.5213  -15.5823 C   0  0  0  0  0  0  0  0  0  0  0  0
   27.5613  -21.3628  -17.0704 C   0  0  0  0  0  0  0  0  0  0  0  0
   26.6514  -22.2826  -17.7645 N   0  0  0  0  0  0  0  0  0  0  0  0
   26.9142  -20.8393  -11.2753 C   0  0  0  0  0  0  0  0  0  0  0  0
   27.0883  -22.0776  -11.0691 O   0  0  0  0  0  0  0  0  0  0  0  0
   28.4546  -19.6831   -3.9211 C   0  0  0  0  0  0  0  0  0  0  0  0
   28.5190  -19.5969   -5.6728 S   0  0  0  0  0  0  0  0  0  0  0  0
   27.0949  -19.2398   -6.6153 C   0  0  0  0  0  0  0  0  0  0  0  0
   26.9782  -19.3671   -8.0421 C   0  0  0  0  0  0  0  0  0  0  0  0
   26.4498  -20.4732   -8.8500 C   0  0  2  0  0  0  0  0  0  0  0  0
   26.6398  -19.9163  -10.2580 N   0  0  0  0  0  0  0  0  0  0  0  0
   24.9841  -20.7215   -8.8105 C   0  0  0  0  0  0  0  0  0  0  0  0
   24.4574  -21.4059   -7.8642 O   0  0  0  0  0  0  0  0  0  0  0  0
   24.0523  -20.2435   -9.7586 N   0  0  0  0  0  0  0  0  0  0  0  0
   22.6194  -20.4569   -9.6101 C   0  0  0  0  0  0  0  0  0  0  0  0
   21.9146  -20.3138  -10.8982 C   0  0  0  0  0  0  0  0  0  0  0  0
   22.5593  -20.5583  -11.9423 O   0  0  0  0  0  0  0  0  0  0  0  0
   20.5982  -19.9279  -10.9816 O   0  0  0  0  0  0  0  0  0  0  0  0
  2  8  1  0
  2  1  1  1
  3  2  1  0
  4  3  1  0
  5  4  1  0
  6  5  1  0
  7  6  1  0
  8  9  2  0
 10 11  1  0
 12 11  1  0
 13 12  1  0
 14 13  1  1
 15 14  1  0
 15  8  1  0
 16 17  2  0
 16 14  1  0
 18 16  1  0
 19 18  1  0
 20 19  1  0
 21 20  2  0
 22 20  1  0
M  END
$$$$
