KMG.pdb
     RDKit          3D

 22 21  0  0  1  0  0  0  0  0999 V2000
   25.4304  -20.6346  -15.5633 N   0  0  0  0  0  0  0  0  0  0  0  0
   26.1130  -19.4514  -15.0470 C   0  0  1  0  0  0  0  0  0  0  0  0
   27.3397  -19.2123  -15.8575 C   0  0  0  0  0  0  0  0  0  0  0  0
   28.3712  -20.2990  -15.8059 C   0  0  0  0  0  0  0  0  0  0  0  0
   28.1095  -21.3624  -16.8540 C   0  0  0  0  0  0  0  0  0  0  0  0
   29.1948  -22.4018  -16.8329 C   0  0  0  0  0  0  0  0  0  0  0  0
   28.8535  -23.5086  -17.7353 N   0  0  0  0  0  0  0  0  0  0  0  0
   25.1490  -18.3257  -15.0241 C   0  0  0  0  0  0  0  0  0  0  0  0
   25.5913  -17.2025  -14.6382 O   0  0  0  0  0  0  0  0  0  0  0  0
   24.3117  -17.2723  -20.9267 C   0  0  0  0  0  0  0  0  0  0  0  0
   24.9450  -16.1157  -19.7686 S   0  0  0  0  0  0  0  0  0  0  0  0
   24.7151  -16.3332  -18.0528 C   0  0  0  0  0  0  0  0  0  0  0  0
   24.0199  -17.4263  -17.4304 C   0  0  0  0  0  0  0  0  0  0  0  0
   23.1576  -17.4412  -16.2422 C   0  0  2  0  0  0  0  0  0  0  0  0
   23.8225  -18.5409  -15.4191 N   0  0  0  0  0  0  0  0  0  0  0  0
   21.7740  -17.9638  -16.3969 C   0  0  0  0  0  0  0  0  0  0  0  0
   20.9189  -17.3559  -17.1321 O   0  0  0  0  0  0  0  0  0  0  0  0
   21.2755  -19.1381  -15.7901 N   0  0  0  0  0  0  0  0  0  0  0  0
   19.8902  -19.5598  -15.9441 C   0  0  0  0  0  0  0  0  0  0  0  0
   19.0877  -19.2281  -14.7515 C   0  0  0  0  0  0  0  0  0  0  0  0
   19.6436  -18.5720  -13.8427 O   0  0  0  0  0  0  0  0  0  0  0  0
   17.7750  -19.6114  -14.6139 O   0  0  0  0  0  0  0  0  0  0  0  0
  2  8  1  0
  2  1  1  6
  3  2  1  0
  4  3  1  0
  5  4  1  0
  6  5  1  0
  7  6  1  0
  8  9  2  0
 10 11  1  0
 12 11  1  0
 13 12  1  0
 14 13  1  6
 15 14  1  0
 15  8  1  0
 16 17  2  0
 16 14  1  0
 18 16  1  0
 19 18  1  0
 20 19  1  0
 21 20  2  0
 22 20  1  0
M  END
$$$$
