KMG.pdb
     RDKit          3D

 22 21  0  0  1  0  0  0  0  0999 V2000
   12.8123  -10.2387   -9.9922 N   0  0  0  0  0  0  0  0  0  0  0  0
   14.1773  -10.0732  -10.4840 C   0  0  1  0  0  0  0  0  0  0  0  0
   14.2595  -10.6205  -11.8670 C   0  0  0  0  0  0  0  0  0  0  0  0
   14.0076  -12.0927  -11.9962 C   0  0  0  0  0  0  0  0  0  0  0  0
   15.1986  -12.9027  -11.5238 C   0  0  0  0  0  0  0  0  0  0  0  0
   14.9408  -14.3726  -11.7022 C   0  0  0  0  0  0  0  0  0  0  0  0
   16.0927  -15.1500  -11.2285 N   0  0  0  0  0  0  0  0  0  0  0  0
   14.5539   -8.6456  -10.3527 C   0  0  0  0  0  0  0  0  0  0  0  0
   13.7204   -7.7930  -10.7822 O   0  0  0  0  0  0  0  0  0  0  0  0
   12.4398   -4.3223   -7.8626 C   0  0  0  0  0  0  0  0  0  0  0  0
   13.9485   -4.6952   -7.0470 S   0  0  0  0  0  0  0  0  0  0  0  0
   15.3854   -5.1102   -7.9453 C   0  0  0  0  0  0  0  0  0  0  0  0
   15.7137   -6.4160   -8.4482 C   0  0  0  0  0  0  0  0  0  0  0  0
   16.1653   -6.8261   -9.7836 C   0  0  2  0  0  0  0  0  0  0  0  0
   15.7830   -8.3033   -9.7747 N   0  0  0  0  0  0  0  0  0  0  0  0
   17.6304   -6.8869  -10.0311 C   0  0  0  0  0  0  0  0  0  0  0  0
   18.4045   -7.5384   -9.2452 O   0  0  0  0  0  0  0  0  0  0  0  0
   18.2985   -6.2736  -11.1142 N   0  0  0  0  0  0  0  0  0  0  0  0
   19.7488   -6.3011  -11.2438 C   0  0  0  0  0  0  0  0  0  0  0  0
   20.1900   -5.6972  -12.5154 C   0  0  0  0  0  0  0  0  0  0  0  0
   19.3073   -5.3757  -13.3417 O   0  0  0  0  0  0  0  0  0  0  0  0
   21.5149   -5.4825  -12.8112 O   0  0  0  0  0  0  0  0  0  0  0  0
  2  8  1  0
  2  1  1  6
  3  2  1  0
  4  3  1  0
  5  4  1  0
  6  5  1  0
  7  6  1  0
  8  9  2  0
 10 11  1  0
 12 11  1  0
 13 12  1  0
 14 13  1  1
 15 14  1  0
 15  8  1  0
 16 17  2  0
 16 14  1  0
 18 16  1  0
 19 18  1  0
 20 19  1  0
 21 20  2  0
 22 20  1  0
M  END
$$$$
