KMG.pdb
     RDKit          3D

 22 21  0  0  1  0  0  0  0  0999 V2000
   26.2167  -19.9542  -13.9881 N   0  0  0  0  0  0  0  0  0  0  0  0
   26.5753  -21.3161  -13.6025 C   0  0  1  0  0  0  0  0  0  0  0  0
   27.9557  -21.6040  -14.0829 C   0  0  0  0  0  0  0  0  0  0  0  0
   28.1074  -21.7459  -15.5677 C   0  0  0  0  0  0  0  0  0  0  0  0
   28.0279  -20.4020  -16.2643 C   0  0  0  0  0  0  0  0  0  0  0  0
   28.2055  -20.5658  -17.7476 C   0  0  0  0  0  0  0  0  0  0  0  0
   29.4694  -19.9543  -18.1769 N   0  0  0  0  0  0  0  0  0  0  0  0
   26.3798  -21.4570  -12.1399 C   0  0  0  0  0  0  0  0  0  0  0  0
   26.6066  -22.5996  -11.6407 O   0  0  0  0  0  0  0  0  0  0  0  0
   27.6104  -19.3368   -5.1392 C   0  0  0  0  0  0  0  0  0  0  0  0
   26.9634  -20.1288   -6.5655 S   0  0  0  0  0  0  0  0  0  0  0  0
   27.3670  -19.5760   -8.1703 C   0  0  0  0  0  0  0  0  0  0  0  0
   26.4696  -19.5259   -9.2919 C   0  0  0  0  0  0  0  0  0  0  0  0
   25.6703  -20.5920   -9.9084 C   0  0  2  0  0  0  0  0  0  0  0  0
   25.9635  -20.3520  -11.3866 N   0  0  0  0  0  0  0  0  0  0  0  0
   24.1896  -20.4629   -9.8615 C   0  0  0  0  0  0  0  0  0  0  0  0
   23.6115  -19.8592   -8.8906 O   0  0  0  0  0  0  0  0  0  0  0  0
   23.2987  -20.9566  -10.8405 N   0  0  0  0  0  0  0  0  0  0  0  0
   21.8571  -20.7792  -10.7340 C   0  0  0  0  0  0  0  0  0  0  0  0
   21.1641  -21.2364  -11.9534 C   0  0  0  0  0  0  0  0  0  0  0  0
   21.8679  -21.6728  -12.8913 O   0  0  0  0  0  0  0  0  0  0  0  0
   19.7966  -21.1972  -12.0852 O   0  0  0  0  0  0  0  0  0  0  0  0
  2  8  1  0
  2  1  1  1
  3  2  1  0
  4  3  1  0
  5  4  1  0
  6  5  1  0
  7  6  1  0
  8  9  2  0
 10 11  1  0
 12 11  1  0
 13 12  1  0
 14 13  1  1
 15 14  1  0
 15  8  1  0
 16 17  2  0
 16 14  1  0
 18 16  1  0
 19 18  1  0
 20 19  1  0
 21 20  2  0
 22 20  1  0
M  END
$$$$
