KMG.pdb
     RDKit          3D

 22 21  0  0  1  0  0  0  0  0999 V2000
   28.4587  -23.0839  -17.7969 N   0  0  0  0  0  0  0  0  0  0  0  0
   27.4155  -22.1534  -17.3749 C   0  0  1  0  0  0  0  0  0  0  0  0
   26.1185  -22.5844  -17.9673 C   0  0  0  0  0  0  0  0  0  0  0  0
   26.1059  -22.7312  -19.4593 C   0  0  0  0  0  0  0  0  0  0  0  0
   26.5331  -21.4494  -20.1464 C   0  0  0  0  0  0  0  0  0  0  0  0
   26.4788  -21.6084  -21.6399 C   0  0  0  0  0  0  0  0  0  0  0  0
   27.0049  -20.4053  -22.2967 N   0  0  0  0  0  0  0  0  0  0  0  0
   27.4305  -22.0707  -15.8950 C   0  0  0  0  0  0  0  0  0  0  0  0
   27.5065  -23.1663  -15.2624 O   0  0  0  0  0  0  0  0  0  0  0  0
   30.8889  -22.2103  -11.2803 C   0  0  0  0  0  0  0  0  0  0  0  0
   29.8328  -20.8087  -11.2586 S   0  0  0  0  0  0  0  0  0  0  0  0
   29.6463  -19.7931  -12.6649 C   0  0  0  0  0  0  0  0  0  0  0  0
   28.5196  -19.7927  -13.5573 C   0  0  0  0  0  0  0  0  0  0  0  0
   27.4670  -20.7984  -13.7476 C   0  0  2  0  0  0  0  0  0  0  0  0
   27.3622  -20.8192  -15.2699 N   0  0  0  0  0  0  0  0  0  0  0  0
   26.0817  -20.4358  -13.3467 C   0  0  0  0  0  0  0  0  0  0  0  0
   25.7421  -20.3976  -12.1120 O   0  0  0  0  0  0  0  0  0  0  0  0
   25.0392  -20.0974  -14.2380 N   0  0  0  0  0  0  0  0  0  0  0  0
   23.7357  -19.6487  -13.7687 C   0  0  0  0  0  0  0  0  0  0  0  0
   22.9282  -20.7726  -13.2579 C   0  0  0  0  0  0  0  0  0  0  0  0
   23.4314  -21.9171  -13.3059 O   0  0  0  0  0  0  0  0  0  0  0  0
   21.6659  -20.6014  -12.7419 O   0  0  0  0  0  0  0  0  0  0  0  0
  2  8  1  0
  2  1  1  1
  3  2  1  0
  4  3  1  0
  5  4  1  0
  6  5  1  0
  7  6  1  0
  8  9  2  0
 10 11  1  0
 12 11  1  0
 13 12  1  0
 14 13  1  6
 15 14  1  0
 15  8  1  0
 16 17  2  0
 16 14  1  0
 18 16  1  0
 19 18  1  0
 20 19  1  0
 21 20  2  0
 22 20  1  0
M  END
$$$$
