KMG.pdb
     RDKit          3D

 22 21  0  0  1  0  0  0  0  0999 V2000
   19.6644  -12.6414  -17.5208 N   0  0  0  0  0  0  0  0  0  0  0  0
   20.3075  -11.4464  -18.0598 C   0  0  1  0  0  0  0  0  0  0  0  0
   19.2665  -10.5758  -18.6741 C   0  0  0  0  0  0  0  0  0  0  0  0
   18.4337  -11.2186  -19.7423 C   0  0  0  0  0  0  0  0  0  0  0  0
   19.1242  -11.1664  -21.0906 C   0  0  0  0  0  0  0  0  0  0  0  0
   18.2428  -11.7527  -22.1574 C   0  0  0  0  0  0  0  0  0  0  0  0
   18.9414  -11.7513  -23.4488 N   0  0  0  0  0  0  0  0  0  0  0  0
   21.0970  -10.8099  -16.9788 C   0  0  0  0  0  0  0  0  0  0  0  0
   20.6887  -10.9881  -15.7923 O   0  0  0  0  0  0  0  0  0  0  0  0
   27.4485  -12.3643  -15.0735 C   0  0  0  0  0  0  0  0  0  0  0  0
   27.0402  -10.9367  -16.0091 S   0  0  0  0  0  0  0  0  0  0  0  0
   25.5929  -10.0202  -15.6784 C   0  0  0  0  0  0  0  0  0  0  0  0
   24.3715  -10.0775  -16.4337 C   0  0  0  0  0  0  0  0  0  0  0  0
   23.0521   -9.5053  -16.1379 C   0  0  2  0  0  0  0  0  0  0  0  0
   22.2330  -10.0567  -17.3014 N   0  0  0  0  0  0  0  0  0  0  0  0
   22.8799   -8.0379  -16.3060 C   0  0  0  0  0  0  0  0  0  0  0  0
   22.8641   -7.5058  -17.4713 O   0  0  0  0  0  0  0  0  0  0  0  0
   22.7103   -7.1128  -15.2519 N   0  0  0  0  0  0  0  0  0  0  0  0
   22.4545   -5.7001  -15.4963 C   0  0  0  0  0  0  0  0  0  0  0  0
   22.1500   -4.9808  -14.2449 C   0  0  0  0  0  0  0  0  0  0  0  0
   21.9886   -5.6630  -13.2085 O   0  0  0  0  0  0  0  0  0  0  0  0
   22.0411   -3.6120  -14.1868 O   0  0  0  0  0  0  0  0  0  0  0  0
  2  8  1  0
  2  1  1  1
  3  2  1  0
  4  3  1  0
  5  4  1  0
  6  5  1  0
  7  6  1  0
  8  9  2  0
 10 11  1  0
 12 11  1  0
 13 12  1  0
 14 13  1  6
 15 14  1  0
 15  8  1  0
 16 17  2  0
 16 14  1  0
 18 16  1  0
 19 18  1  0
 20 19  1  0
 21 20  2  0
 22 20  1  0
M  END
$$$$
