KMG.pdb
     RDKit          3D

 22 21  0  0  1  0  0  0  0  0999 V2000
   20.8946  -19.5631  -10.6521 N   0  0  0  0  0  0  0  0  0  0  0  0
   21.7198  -20.7094  -10.2813 C   0  0  1  0  0  0  0  0  0  0  0  0
   21.3977  -21.8468  -11.1877 C   0  0  0  0  0  0  0  0  0  0  0  0
   20.2702  -22.7292  -10.7428 C   0  0  0  0  0  0  0  0  0  0  0  0
   20.1269  -22.7276   -9.2338 C   0  0  0  0  0  0  0  0  0  0  0  0
   18.8954  -23.4834   -8.8204 C   0  0  0  0  0  0  0  0  0  0  0  0
   18.7056  -23.3865   -7.3677 N   0  0  0  0  0  0  0  0  0  0  0  0
   23.1406  -20.2870  -10.2881 C   0  0  0  0  0  0  0  0  0  0  0  0
   23.4667  -19.3925  -11.1246 O   0  0  0  0  0  0  0  0  0  0  0  0
   26.9402  -18.1549   -6.1318 C   0  0  0  0  0  0  0  0  0  0  0  0
   27.9329  -19.5348   -6.5687 S   0  0  0  0  0  0  0  0  0  0  0  0
   27.3451  -20.7654   -7.6568 C   0  0  0  0  0  0  0  0  0  0  0  0
   26.0144  -20.8456   -8.1941 C   0  0  0  0  0  0  0  0  0  0  0  0
   25.5088  -20.4703   -9.5203 C   0  0  2  0  0  0  0  0  0  0  0  0
   24.0433  -20.8766   -9.3941 N   0  0  0  0  0  0  0  0  0  0  0  0
   25.9549  -21.2785  -10.6861 C   0  0  0  0  0  0  0  0  0  0  0  0
   25.9688  -22.5585  -10.6334 O   0  0  0  0  0  0  0  0  0  0  0  0
   26.3806  -20.7518  -11.9258 N   0  0  0  0  0  0  0  0  0  0  0  0
   26.8970  -21.6008  -12.9904 C   0  0  0  0  0  0  0  0  0  0  0  0
   27.0981  -20.8412  -14.2390 C   0  0  0  0  0  0  0  0  0  0  0  0
   26.7139  -19.6507  -14.2617 O   0  0  0  0  0  0  0  0  0  0  0  0
   27.6830  -21.3928  -15.3537 O   0  0  0  0  0  0  0  0  0  0  0  0
  2  8  1  0
  2  1  1  6
  3  2  1  0
  4  3  1  0
  5  4  1  0
  6  5  1  0
  7  6  1  0
  8  9  2  0
 10 11  1  0
 12 11  1  0
 13 12  1  0
 14 13  1  1
 15 14  1  0
 15  8  1  0
 16 17  2  0
 16 14  1  0
 18 16  1  0
 19 18  1  0
 20 19  1  0
 21 20  2  0
 22 20  1  0
M  END
$$$$
