KMG.pdb
     RDKit          3D

 22 21  0  0  1  0  0  0  0  0999 V2000
   23.3141  -21.2391  -10.7398 N   0  0  0  0  0  0  0  0  0  0  0  0
   23.6487  -21.0539  -12.1491 C   0  0  1  0  0  0  0  0  0  0  0  0
   22.4664  -20.4831  -12.8529 C   0  0  0  0  0  0  0  0  0  0  0  0
   21.7178  -21.4351  -13.7366 C   0  0  0  0  0  0  0  0  0  0  0  0
   21.2861  -22.6740  -12.9773 C   0  0  0  0  0  0  0  0  0  0  0  0
   20.5466  -23.6172  -13.8841 C   0  0  0  0  0  0  0  0  0  0  0  0
   20.1299  -24.8124  -13.1402 N   0  0  0  0  0  0  0  0  0  0  0  0
   24.8826  -20.2371  -12.2353 C   0  0  0  0  0  0  0  0  0  0  0  0
   25.0072  -19.2996  -11.3917 O   0  0  0  0  0  0  0  0  0  0  0  0
   30.6742  -22.3079   -9.6413 C   0  0  0  0  0  0  0  0  0  0  0  0
   29.9832  -22.1169  -11.2433 S   0  0  0  0  0  0  0  0  0  0  0  0
   28.7332  -20.9408  -11.5564 C   0  0  0  0  0  0  0  0  0  0  0  0
   28.1047  -20.7008  -12.8265 C   0  0  0  0  0  0  0  0  0  0  0  0
   27.1135  -19.6887  -13.2119 C   0  0  2  0  0  0  0  0  0  0  0  0
   25.8372  -20.5251  -13.2190 N   0  0  0  0  0  0  0  0  0  0  0  0
   27.1546  -19.1747  -14.6067 C   0  0  0  0  0  0  0  0  0  0  0  0
   26.6986  -19.8726  -15.5795 O   0  0  0  0  0  0  0  0  0  0  0  0
   27.6647  -17.9158  -14.9949 N   0  0  0  0  0  0  0  0  0  0  0  0
   27.8220  -17.5432  -16.3939 C   0  0  0  0  0  0  0  0  0  0  0  0
   26.6152  -16.8732  -16.9145 C   0  0  0  0  0  0  0  0  0  0  0  0
   25.5241  -17.1297  -16.3585 O   0  0  0  0  0  0  0  0  0  0  0  0
   26.6550  -15.9942  -17.9703 O   0  0  0  0  0  0  0  0  0  0  0  0
  2  8  1  0
  2  1  1  1
  3  2  1  0
  4  3  1  0
  5  4  1  0
  6  5  1  0
  7  6  1  0
  8  9  2  0
 10 11  1  0
 12 11  1  0
 13 12  1  0
 14 13  1  6
 15 14  1  0
 15  8  1  0
 16 17  2  0
 16 14  1  0
 18 16  1  0
 19 18  1  0
 20 19  1  0
 21 20  2  0
 22 20  1  0
M  END
$$$$
