KMG.pdb
     RDKit          3D

 22 21  0  0  1  0  0  0  0  0999 V2000
   26.2482  -19.1628  -13.5159 N   0  0  0  0  0  0  0  0  0  0  0  0
   27.0019  -20.3954  -13.3041 C   0  0  1  0  0  0  0  0  0  0  0  0
   28.4193  -20.1663  -13.7008 C   0  0  0  0  0  0  0  0  0  0  0  0
   28.6279  -19.6804  -15.1037 C   0  0  0  0  0  0  0  0  0  0  0  0
   28.9458  -20.8248  -16.0455 C   0  0  0  0  0  0  0  0  0  0  0  0
   29.1992  -20.3097  -17.4345 C   0  0  0  0  0  0  0  0  0  0  0  0
   29.6318  -21.4060  -18.3101 N   0  0  0  0  0  0  0  0  0  0  0  0
   26.8075  -20.8293  -11.9002 C   0  0  0  0  0  0  0  0  0  0  0  0
   27.3419  -21.9278  -11.5625 O   0  0  0  0  0  0  0  0  0  0  0  0
   28.3074  -19.7849   -4.8602 C   0  0  0  0  0  0  0  0  0  0  0  0
   27.0346  -19.9318   -6.0596 S   0  0  0  0  0  0  0  0  0  0  0  0
   27.3472  -19.6452   -7.7520 C   0  0  0  0  0  0  0  0  0  0  0  0
   26.3530  -19.5522   -8.7858 C   0  0  0  0  0  0  0  0  0  0  0  0
   25.7776  -20.6003   -9.6378 C   0  0  2  0  0  0  0  0  0  0  0  0
   26.0612  -20.0303  -11.0246 N   0  0  0  0  0  0  0  0  0  0  0  0
   24.2975  -20.7419   -9.6579 C   0  0  0  0  0  0  0  0  0  0  0  0
   23.6736  -21.2762   -8.6747 O   0  0  0  0  0  0  0  0  0  0  0  0
   23.4536  -20.3130  -10.7064 N   0  0  0  0  0  0  0  0  0  0  0  0
   22.0049  -20.4446  -10.6362 C   0  0  0  0  0  0  0  0  0  0  0  0
   21.4921  -21.3476  -11.6840 C   0  0  0  0  0  0  0  0  0  0  0  0
   22.3301  -21.9500  -12.3914 O   0  0  0  0  0  0  0  0  0  0  0  0
   20.1487  -21.5414  -11.9003 O   0  0  0  0  0  0  0  0  0  0  0  0
  2  8  1  0
  2  1  1  1
  3  2  1  0
  4  3  1  0
  5  4  1  0
  6  5  1  0
  7  6  1  0
  8  9  2  0
 10 11  1  0
 12 11  1  0
 13 12  1  0
 14 13  1  1
 15 14  1  0
 15  8  1  0
 16 17  2  0
 16 14  1  0
 18 16  1  0
 19 18  1  0
 20 19  1  0
 21 20  2  0
 22 20  1  0
M  END
$$$$
