QEE.pdb
     RDKit          3D

 28 27  0  0  1  0  0  0  0  0999 V2000
   27.2491  -14.5815  -15.6568 N   0  0  0  0  0  0  0  0  0  0  0  0
   26.4557  -15.3036  -16.6160 C   0  0  0  0  0  0  0  0  0  0  0  0
   25.7467  -14.6341  -17.3917 O   0  0  0  0  0  0  0  0  0  0  0  0
   26.4629  -16.7671  -16.6963 C   0  0  0  0  0  0  0  0  0  0  0  0
   27.4036  -17.3939  -15.7490 C   0  0  0  0  0  0  0  0  0  0  0  0
   27.5831  -18.8653  -15.7984 C   0  0  2  0  0  0  0  0  0  0  0  0
   27.5598  -19.2771  -17.2314 N   0  0  0  0  0  0  0  0  0  0  0  0
   26.5864  -19.6830  -15.1171 C   0  0  0  0  0  0  0  0  0  0  0  0
   25.7137  -20.2940  -15.8276 O   0  0  0  0  0  0  0  0  0  0  0  0
   26.4490  -19.9056  -13.7287 N   0  0  0  0  0  0  0  0  0  0  0  0
   25.3483  -20.6949  -13.1686 C   0  0  1  0  0  0  0  0  0  0  0  0
   25.6929  -20.7317  -11.6683 C   0  0  0  0  0  0  0  0  0  0  0  0
   24.7340  -21.5033  -10.8438 C   0  0  0  0  0  0  0  0  0  0  0  0
   25.1365  -21.5255   -9.4378 C   0  0  0  0  0  0  0  0  0  0  0  0
   24.3262  -21.3196   -8.5237 O   0  0  0  0  0  0  0  0  0  0  0  0
   24.0359  -20.0629  -13.3841 C   0  0  0  0  0  0  0  0  0  0  0  0
   23.9081  -18.7977  -13.2120 O   0  0  0  0  0  0  0  0  0  0  0  0
   26.4807  -21.7884   -9.1226 O   0  0  0  0  0  0  0  0  0  0  0  0
   22.9271  -20.8307  -13.7762 N   0  0  0  0  0  0  0  0  0  0  0  0
   21.6310  -20.1799  -14.0532 C   0  0  1  0  0  0  0  0  0  0  0  0
   21.5254  -20.1550  -15.5362 C   0  0  0  0  0  0  0  0  0  0  0  0
   20.2997  -19.6075  -16.1515 C   0  0  0  0  0  0  0  0  0  0  0  0
   20.3504  -19.6904  -17.6207 C   0  0  0  0  0  0  0  0  0  0  0  0
   19.3193  -19.2963  -18.2719 O   0  0  0  0  0  0  0  0  0  0  0  0
   20.5976  -20.8477  -13.2828 C   0  0  0  0  0  0  0  0  0  0  0  0
   20.7993  -22.0467  -12.8826 O   0  0  0  0  0  0  0  0  0  0  0  0
   21.4471  -20.1677  -18.3000 O   0  0  0  0  0  0  0  0  0  0  0  0
   19.3801  -20.2852  -12.9340 O   0  0  0  0  0  0  0  0  0  0  0  0
  2  1  1  0
  2  3  2  0
  4  5  1  0
  4  2  1  0
  5  6  1  0
  6  7  1  6
  8  6  1  0
  8 10  1  0
  9  8  2  0
 11 10  1  0
 12 13  1  0
 11 12  1  1
 14 13  1  0
 15 14  2  0
 16 11  1  0
 17 16  2  0
 18 14  1  0
 19 16  1  0
 20 19  1  0
 20 25  1  0
 20 21  1  6
 22 21  1  0
 22 23  1  0
 23 27  1  0
 24 23  2  0
 25 28  1  0
 26 25  2  0
M  END
$$$$
