QEE.pdb
     RDKit          3D

 28 27  0  0  1  0  0  0  0  0999 V2000
   13.7660  -13.8781  -15.6618 N   0  0  0  0  0  0  0  0  0  0  0  0
   15.0909  -14.4306  -15.7633 C   0  0  0  0  0  0  0  0  0  0  0  0
   15.1855  -15.6473  -16.0144 O   0  0  0  0  0  0  0  0  0  0  0  0
   16.2958  -13.6161  -15.5815 C   0  0  0  0  0  0  0  0  0  0  0  0
   15.9997  -12.2188  -15.2138 C   0  0  0  0  0  0  0  0  0  0  0  0
   17.1306  -11.2709  -15.0649 C   0  0  2  0  0  0  0  0  0  0  0  0
   18.0416  -11.8131  -14.0162 N   0  0  0  0  0  0  0  0  0  0  0  0
   16.8095   -9.9052  -14.6675 C   0  0  0  0  0  0  0  0  0  0  0  0
   16.1548   -9.1720  -15.4882 O   0  0  0  0  0  0  0  0  0  0  0  0
   17.1300   -9.2569  -13.4537 N   0  0  0  0  0  0  0  0  0  0  0  0
   16.7655   -7.8615  -13.1928 C   0  0  1  0  0  0  0  0  0  0  0  0
   16.9520   -7.7465  -11.6687 C   0  0  0  0  0  0  0  0  0  0  0  0
   15.7813   -8.1931  -10.8784 C   0  0  0  0  0  0  0  0  0  0  0  0
   15.9613   -7.9141   -9.4539 C   0  0  0  0  0  0  0  0  0  0  0  0
   15.6841   -6.8101   -8.9650 O   0  0  0  0  0  0  0  0  0  0  0  0
   17.6421   -6.9098  -13.8960 C   0  0  0  0  0  0  0  0  0  0  0  0
   18.8270   -7.2710  -14.2307 O   0  0  0  0  0  0  0  0  0  0  0  0
   16.4628   -8.9308   -8.6232 O   0  0  0  0  0  0  0  0  0  0  0  0
   17.1929   -5.6150  -14.2031 N   0  0  0  0  0  0  0  0  0  0  0  0
   17.9703   -4.7542  -15.1167 C   0  0  1  0  0  0  0  0  0  0  0  0
   18.1625   -5.5738  -16.3425 C   0  0  0  0  0  0  0  0  0  0  0  0
   18.7643   -4.9401  -17.5329 C   0  0  0  0  0  0  0  0  0  0  0  0
   18.8778   -5.8915  -18.6509 C   0  0  0  0  0  0  0  0  0  0  0  0
   18.1232   -5.7013  -19.6692 O   0  0  0  0  0  0  0  0  0  0  0  0
   17.3077   -3.4670  -15.2246 C   0  0  0  0  0  0  0  0  0  0  0  0
   18.0190   -2.4143  -15.3802 O   0  0  0  0  0  0  0  0  0  0  0  0
   19.7504   -6.9548  -18.6354 O   0  0  0  0  0  0  0  0  0  0  0  0
   15.9364   -3.2741  -15.1724 O   0  0  0  0  0  0  0  0  0  0  0  0
  2  1  1  0
  2  3  2  0
  4  5  1  0
  4  2  1  0
  5  6  1  0
  6  7  1  1
  8  6  1  0
  8 10  1  0
  9  8  2  0
 11 10  1  0
 12 13  1  0
 11 12  1  1
 14 13  1  0
 15 14  2  0
 16 11  1  0
 17 16  2  0
 18 14  1  0
 19 16  1  0
 20 19  1  0
 20 25  1  0
 20 21  1  6
 22 21  1  0
 22 23  1  0
 23 27  1  0
 24 23  2  0
 25 28  1  0
 26 25  2  0
M  END
$$$$
