QEE.pdb
     RDKit          3D

 28 27  0  0  1  0  0  0  0  0999 V2000
   27.0801  -23.4626  -16.5602 N   0  0  0  0  0  0  0  0  0  0  0  0
   28.2271  -22.5938  -16.5808 C   0  0  0  0  0  0  0  0  0  0  0  0
   29.3047  -23.0590  -16.1626 O   0  0  0  0  0  0  0  0  0  0  0  0
   28.1561  -21.2132  -17.0681 C   0  0  0  0  0  0  0  0  0  0  0  0
   26.8256  -20.8526  -17.5928 C   0  0  0  0  0  0  0  0  0  0  0  0
   26.0237  -19.8449  -16.8572 C   0  0  2  0  0  0  0  0  0  0  0  0
   26.9699  -18.9835  -16.0915 N   0  0  0  0  0  0  0  0  0  0  0  0
   25.0463  -20.3414  -15.8958 C   0  0  0  0  0  0  0  0  0  0  0  0
   24.0665  -21.0407  -16.3321 O   0  0  0  0  0  0  0  0  0  0  0  0
   25.0342  -20.1533  -14.4955 N   0  0  0  0  0  0  0  0  0  0  0  0
   23.9544  -20.6658  -13.6472 C   0  0  1  0  0  0  0  0  0  0  0  0
   24.5889  -20.6371  -12.2445 C   0  0  0  0  0  0  0  0  0  0  0  0
   23.7391  -21.2224  -11.1816 C   0  0  0  0  0  0  0  0  0  0  0  0
   24.3946  -21.1534   -9.8759 C   0  0  0  0  0  0  0  0  0  0  0  0
   25.6138  -21.3315   -9.7475 O   0  0  0  0  0  0  0  0  0  0  0  0
   22.7528  -19.8157  -13.6906 C   0  0  0  0  0  0  0  0  0  0  0  0
   22.8779  -18.5408  -13.6174 O   0  0  0  0  0  0  0  0  0  0  0  0
   23.6139  -20.8771   -8.7403 O   0  0  0  0  0  0  0  0  0  0  0  0
   21.4755  -20.3870  -13.8123 N   0  0  0  0  0  0  0  0  0  0  0  0
   20.2798  -19.5255  -13.9026 C   0  0  1  0  0  0  0  0  0  0  0  0
   19.5930  -19.9550  -15.1496 C   0  0  0  0  0  0  0  0  0  0  0  0
   18.3141  -19.3123  -15.5130 C   0  0  0  0  0  0  0  0  0  0  0  0
   17.7624  -19.8745  -16.7571 C   0  0  0  0  0  0  0  0  0  0  0  0
   17.6283  -19.0829  -17.7561 O   0  0  0  0  0  0  0  0  0  0  0  0
   19.5610  -19.5884  -12.6429 C   0  0  0  0  0  0  0  0  0  0  0  0
   19.6613  -20.6423  -11.9235 O   0  0  0  0  0  0  0  0  0  0  0  0
   17.3949  -21.1946  -16.8764 O   0  0  0  0  0  0  0  0  0  0  0  0
   18.7547  -18.5804  -12.1388 O   0  0  0  0  0  0  0  0  0  0  0  0
  2  1  1  0
  2  3  2  0
  4  5  1  0
  4  2  1  0
  5  6  1  0
  6  7  1  1
  8  6  1  0
  8 10  1  0
  9  8  2  0
 11 10  1  0
 12 13  1  0
 11 12  1  1
 14 13  1  0
 15 14  2  0
 16 11  1  0
 17 16  2  0
 18 14  1  0
 19 16  1  0
 20 19  1  0
 20 25  1  0
 20 21  1  6
 22 21  1  0
 22 23  1  0
 23 27  1  0
 24 23  2  0
 25 28  1  0
 26 25  2  0
M  END
$$$$
