QEE.pdb
     RDKit          3D

 28 27  0  0  1  0  0  0  0  0999 V2000
   27.9150  -10.3780  -16.0474 N   0  0  0  0  0  0  0  0  0  0  0  0
   27.9486  -11.8092  -16.1938 C   0  0  0  0  0  0  0  0  0  0  0  0
   29.0578  -12.3684  -16.0961 O   0  0  0  0  0  0  0  0  0  0  0  0
   26.7409  -12.5996  -16.4490 C   0  0  0  0  0  0  0  0  0  0  0  0
   25.5118  -11.7849  -16.4786 C   0  0  0  0  0  0  0  0  0  0  0  0
   24.2205  -12.4610  -16.7525 C   0  0  2  0  0  0  0  0  0  0  0  0
   24.2942  -13.0404  -18.1246 N   0  0  0  0  0  0  0  0  0  0  0  0
   23.0156  -11.6407  -16.7144 C   0  0  0  0  0  0  0  0  0  0  0  0
   22.8570  -10.7522  -17.6228 O   0  0  0  0  0  0  0  0  0  0  0  0
   21.9573  -11.6967  -15.7800 N   0  0  0  0  0  0  0  0  0  0  0  0
   20.8383  -10.7505  -15.8086 C   0  0  1  0  0  0  0  0  0  0  0  0
   19.6441  -11.6325  -15.4001 C   0  0  0  0  0  0  0  0  0  0  0  0
   19.1427  -12.5139  -16.4801 C   0  0  0  0  0  0  0  0  0  0  0  0
   18.0035  -13.3135  -16.0305 C   0  0  0  0  0  0  0  0  0  0  0  0
   16.8403  -12.8950  -16.1104 O   0  0  0  0  0  0  0  0  0  0  0  0
   21.0144   -9.6417  -14.8558 C   0  0  0  0  0  0  0  0  0  0  0  0
   21.9734   -9.6865  -14.0045 O   0  0  0  0  0  0  0  0  0  0  0  0
   18.2424  -14.5906  -15.4944 O   0  0  0  0  0  0  0  0  0  0  0  0
   20.1447   -8.5388  -14.8718 N   0  0  0  0  0  0  0  0  0  0  0  0
   20.3783   -7.3931  -13.9704 C   0  0  1  0  0  0  0  0  0  0  0  0
   21.7315   -6.8931  -14.3311 C   0  0  0  0  0  0  0  0  0  0  0  0
   22.2112   -5.6380  -13.7182 C   0  0  0  0  0  0  0  0  0  0  0  0
   22.6803   -4.6849  -14.7378 C   0  0  0  0  0  0  0  0  0  0  0  0
   22.2338   -3.4851  -14.6767 O   0  0  0  0  0  0  0  0  0  0  0  0
   19.2452   -6.4897  -14.0579 C   0  0  0  0  0  0  0  0  0  0  0  0
   18.9214   -5.7995  -13.0297 O   0  0  0  0  0  0  0  0  0  0  0  0
   23.5640   -5.0361  -15.7317 O   0  0  0  0  0  0  0  0  0  0  0  0
   18.4636   -6.3051  -15.1871 O   0  0  0  0  0  0  0  0  0  0  0  0
  2  1  1  0
  2  3  2  0
  4  5  1  0
  4  2  1  0
  5  6  1  0
  6  7  1  6
  8  6  1  0
  8 10  1  0
  9  8  2  0
 11 10  1  0
 12 13  1  0
 11 12  1  1
 14 13  1  0
 15 14  2  0
 16 11  1  0
 17 16  2  0
 18 14  1  0
 19 16  1  0
 20 19  1  0
 20 25  1  0
 20 21  1  6
 22 21  1  0
 22 23  1  0
 23 27  1  0
 24 23  2  0
 25 28  1  0
 26 25  2  0
M  END
$$$$
