QEE.pdb
     RDKit          3D

 28 27  0  0  1  0  0  0  0  0999 V2000
   16.2252  -10.6772  -15.7901 N   0  0  0  0  0  0  0  0  0  0  0  0
   16.4249  -12.0880  -15.9919 C   0  0  0  0  0  0  0  0  0  0  0  0
   15.4359  -12.7617  -16.3391 O   0  0  0  0  0  0  0  0  0  0  0  0
   17.7286  -12.7302  -15.8018 C   0  0  0  0  0  0  0  0  0  0  0  0
   18.7669  -11.8003  -15.3198 C   0  0  0  0  0  0  0  0  0  0  0  0
   19.2354  -10.7280  -16.2309 C   0  0  2  0  0  0  0  0  0  0  0  0
   19.7101  -11.3758  -17.4874 N   0  0  0  0  0  0  0  0  0  0  0  0
   20.3283   -9.8838  -15.7628 C   0  0  0  0  0  0  0  0  0  0  0  0
   20.2248   -9.3415  -14.6075 O   0  0  0  0  0  0  0  0  0  0  0  0
   21.5333   -9.5742  -16.4326 N   0  0  0  0  0  0  0  0  0  0  0  0
   22.4571   -8.5463  -15.9446 C   0  0  1  0  0  0  0  0  0  0  0  0
   23.6174   -8.6336  -16.9529 C   0  0  0  0  0  0  0  0  0  0  0  0
   24.7284   -7.6915  -16.6832 C   0  0  0  0  0  0  0  0  0  0  0  0
   25.7333   -7.7334  -17.7452 C   0  0  0  0  0  0  0  0  0  0  0  0
   26.0829   -6.7125  -18.3535 O   0  0  0  0  0  0  0  0  0  0  0  0
   21.8592   -7.2006  -15.9569 C   0  0  0  0  0  0  0  0  0  0  0  0
   21.2980   -6.7684  -17.0268 O   0  0  0  0  0  0  0  0  0  0  0  0
   26.3139   -8.9690  -18.0793 O   0  0  0  0  0  0  0  0  0  0  0  0
   21.8971   -6.3897  -14.8107 N   0  0  0  0  0  0  0  0  0  0  0  0
   21.2262   -5.0744  -14.8064 C   0  0  1  0  0  0  0  0  0  0  0  0
   19.7770   -5.3854  -14.6868 C   0  0  0  0  0  0  0  0  0  0  0  0
   18.9130   -5.2089  -15.8713 C   0  0  0  0  0  0  0  0  0  0  0  0
   17.5098   -5.5366  -15.5689 C   0  0  0  0  0  0  0  0  0  0  0  0
   17.2115   -5.7944  -14.3494 O   0  0  0  0  0  0  0  0  0  0  0  0
   21.8529   -4.2322  -13.8036 C   0  0  0  0  0  0  0  0  0  0  0  0
   22.4416   -4.7842  -12.8100 O   0  0  0  0  0  0  0  0  0  0  0  0
   16.5311   -5.5735  -16.5348 O   0  0  0  0  0  0  0  0  0  0  0  0
   21.8695   -2.8469  -13.8295 O   0  0  0  0  0  0  0  0  0  0  0  0
  2  1  1  0
  2  3  2  0
  4  5  1  0
  4  2  1  0
  5  6  1  0
  6  7  1  6
  8  6  1  0
  8 10  1  0
  9  8  2  0
 11 10  1  0
 12 13  1  0
 11 12  1  6
 14 13  1  0
 15 14  2  0
 16 11  1  0
 17 16  2  0
 18 14  1  0
 19 16  1  0
 20 19  1  0
 20 25  1  0
 20 21  1  1
 22 21  1  0
 22 23  1  0
 23 27  1  0
 24 23  2  0
 25 28  1  0
 26 25  2  0
M  END
$$$$
