QEE.pdb
     RDKit          3D

 28 27  0  0  1  0  0  0  0  0999 V2000
   20.4242  -15.3259  -17.7157 N   0  0  0  0  0  0  0  0  0  0  0  0
   18.9886  -15.3399  -17.6174 C   0  0  0  0  0  0  0  0  0  0  0  0
   18.4256  -16.4515  -17.6240 O   0  0  0  0  0  0  0  0  0  0  0  0
   18.1979  -14.1101  -17.5142 C   0  0  0  0  0  0  0  0  0  0  0  0
   19.0091  -12.8868  -17.6583 C   0  0  0  0  0  0  0  0  0  0  0  0
   19.4423  -12.1757  -16.4310 C   0  0  2  0  0  0  0  0  0  0  0  0
   18.5653  -12.6267  -15.3123 N   0  0  0  0  0  0  0  0  0  0  0  0
   19.3780  -10.7191  -16.4451 C   0  0  0  0  0  0  0  0  0  0  0  0
   19.8887  -10.0984  -17.4418 O   0  0  0  0  0  0  0  0  0  0  0  0
   18.8040   -9.8667  -15.4753 N   0  0  0  0  0  0  0  0  0  0  0  0
   18.7103   -8.4166  -15.6664 C   0  0  1  0  0  0  0  0  0  0  0  0
   17.4529   -8.0531  -14.8556 C   0  0  0  0  0  0  0  0  0  0  0  0
   16.1773   -8.3339  -15.5547 C   0  0  0  0  0  0  0  0  0  0  0  0
   15.0271   -7.9071  -14.7583 C   0  0  0  0  0  0  0  0  0  0  0  0
   14.7753   -8.4094  -13.6542 O   0  0  0  0  0  0  0  0  0  0  0  0
   19.8881   -7.7029  -15.1451 C   0  0  0  0  0  0  0  0  0  0  0  0
   20.4624   -8.1263  -14.0785 O   0  0  0  0  0  0  0  0  0  0  0  0
   14.1892   -6.8993  -15.2655 O   0  0  0  0  0  0  0  0  0  0  0  0
   20.3869   -6.5672  -15.8040 N   0  0  0  0  0  0  0  0  0  0  0  0
   21.6151   -5.9053  -15.3209 C   0  0  1  0  0  0  0  0  0  0  0  0
   22.0627   -5.0555  -16.4561 C   0  0  0  0  0  0  0  0  0  0  0  0
   23.2240   -4.1644  -16.2610 C   0  0  0  0  0  0  0  0  0  0  0  0
   23.4863   -3.3501  -17.4593 C   0  0  0  0  0  0  0  0  0  0  0  0
   24.1801   -2.2829  -17.3098 O   0  0  0  0  0  0  0  0  0  0  0  0
   21.3384   -5.2828  -14.0389 C   0  0  0  0  0  0  0  0  0  0  0  0
   20.1393   -4.9254  -13.7689 O   0  0  0  0  0  0  0  0  0  0  0  0
   23.0193   -3.6931  -18.7069 O   0  0  0  0  0  0  0  0  0  0  0  0
   22.2842   -5.0354  -13.0568 O   0  0  0  0  0  0  0  0  0  0  0  0
  2  1  1  0
  2  3  2  0
  4  5  1  0
  4  2  1  0
  5  6  1  0
  6  7  1  1
  8  6  1  0
  8 10  1  0
  9  8  2  0
 11 10  1  0
 12 13  1  0
 11 12  1  1
 14 13  1  0
 15 14  2  0
 16 11  1  0
 17 16  2  0
 18 14  1  0
 19 16  1  0
 20 19  1  0
 20 25  1  0
 20 21  1  6
 22 21  1  0
 22 23  1  0
 23 27  1  0
 24 23  2  0
 25 28  1  0
 26 25  2  0
M  END
$$$$
