QEE.pdb
     RDKit          3D

 28 27  0  0  1  0  0  0  0  0999 V2000
   16.8485  -13.6627  -12.7462 N   0  0  0  0  0  0  0  0  0  0  0  0
   15.8294  -13.7214  -13.7605 C   0  0  0  0  0  0  0  0  0  0  0  0
   15.3569  -14.8418  -14.0324 O   0  0  0  0  0  0  0  0  0  0  0  0
   15.3505  -12.5260  -14.4606 C   0  0  0  0  0  0  0  0  0  0  0  0
   16.0467  -11.2941  -14.0448 C   0  0  0  0  0  0  0  0  0  0  0  0
   15.7753  -10.0412  -14.7905 C   0  0  2  0  0  0  0  0  0  0  0  0
   15.8861  -10.3468  -16.2459 N   0  0  0  0  0  0  0  0  0  0  0  0
   16.6583   -8.9087  -14.5377 C   0  0  0  0  0  0  0  0  0  0  0  0
   16.5528   -8.2944  -13.4191 O   0  0  0  0  0  0  0  0  0  0  0  0
   17.6547   -8.3790  -15.3878 N   0  0  0  0  0  0  0  0  0  0  0  0
   18.4960   -7.2451  -14.9944 C   0  0  1  0  0  0  0  0  0  0  0  0
   19.8828   -7.6596  -15.5196 C   0  0  0  0  0  0  0  0  0  0  0  0
   20.9684   -7.5536  -14.5171 C   0  0  0  0  0  0  0  0  0  0  0  0
   22.2242   -8.1000  -15.0306 C   0  0  0  0  0  0  0  0  0  0  0  0
   22.4673   -9.3144  -15.0028 O   0  0  0  0  0  0  0  0  0  0  0  0
   18.0631   -5.9814  -15.6140 C   0  0  0  0  0  0  0  0  0  0  0  0
   17.4150   -6.0100  -16.7211 O   0  0  0  0  0  0  0  0  0  0  0  0
   23.1764   -7.2175  -15.5690 O   0  0  0  0  0  0  0  0  0  0  0  0
   18.3519   -4.7493  -15.0046 N   0  0  0  0  0  0  0  0  0  0  0  0
   17.8803   -3.4891  -15.6125 C   0  0  1  0  0  0  0  0  0  0  0  0
   16.3964   -3.5756  -15.5682 C   0  0  0  0  0  0  0  0  0  0  0  0
   15.7074   -3.3031  -14.2908 C   0  0  0  0  0  0  0  0  0  0  0  0
   14.2487   -3.2177  -14.4724 C   0  0  0  0  0  0  0  0  0  0  0  0
   13.7915   -3.3491  -15.6625 O   0  0  0  0  0  0  0  0  0  0  0  0
   18.5427   -2.3761  -14.9567 C   0  0  0  0  0  0  0  0  0  0  0  0
   19.3052   -2.6107  -13.9557 O   0  0  0  0  0  0  0  0  0  0  0  0
   13.3813   -3.0058  -13.4261 O   0  0  0  0  0  0  0  0  0  0  0  0
   18.4178   -1.0475  -15.3300 O   0  0  0  0  0  0  0  0  0  0  0  0
  2  1  1  0
  2  3  2  0
  4  5  1  0
  4  2  1  0
  5  6  1  0
  6  7  1  6
  8  6  1  0
  8 10  1  0
  9  8  2  0
 11 10  1  0
 12 13  1  0
 11 12  1  6
 14 13  1  0
 15 14  2  0
 16 11  1  0
 17 16  2  0
 18 14  1  0
 19 16  1  0
 20 19  1  0
 20 25  1  0
 20 21  1  1
 22 21  1  0
 22 23  1  0
 23 27  1  0
 24 23  2  0
 25 28  1  0
 26 25  2  0
M  END
$$$$
