QEE.pdb
     RDKit          3D

 28 27  0  0  1  0  0  0  0  0999 V2000
   17.3858  -13.1826  -13.9118 N   0  0  0  0  0  0  0  0  0  0  0  0
   17.5408  -14.1834  -14.9342 C   0  0  0  0  0  0  0  0  0  0  0  0
   16.7256  -15.1257  -14.9405 O   0  0  0  0  0  0  0  0  0  0  0  0
   18.6069  -14.1200  -15.9381 C   0  0  0  0  0  0  0  0  0  0  0  0
   19.4737  -12.9362  -15.7874 C   0  0  0  0  0  0  0  0  0  0  0  0
   18.9619  -11.6210  -16.2433 C   0  0  2  0  0  0  0  0  0  0  0  0
   17.9080  -11.8749  -17.2673 N   0  0  0  0  0  0  0  0  0  0  0  0
   19.9197  -10.7067  -16.8540 C   0  0  0  0  0  0  0  0  0  0  0  0
   20.9677  -10.3921  -16.1890 O   0  0  0  0  0  0  0  0  0  0  0  0
   19.8493  -10.1010  -18.1285 N   0  0  0  0  0  0  0  0  0  0  0  0
   20.8840   -9.1849  -18.6168 C   0  0  1  0  0  0  0  0  0  0  0  0
   20.6420   -9.1870  -20.1374 C   0  0  0  0  0  0  0  0  0  0  0  0
   21.6123   -8.3750  -20.9079 C   0  0  0  0  0  0  0  0  0  0  0  0
   21.8572   -8.9493  -22.2306 C   0  0  0  0  0  0  0  0  0  0  0  0
   22.4763   -8.3297  -23.1066 O   0  0  0  0  0  0  0  0  0  0  0  0
   20.7361   -7.8258  -18.0698 C   0  0  0  0  0  0  0  0  0  0  0  0
   19.6319   -7.4862  -17.5114 O   0  0  0  0  0  0  0  0  0  0  0  0
   21.3742  -10.2396  -22.5083 O   0  0  0  0  0  0  0  0  0  0  0  0
   21.7906   -6.9017  -18.1530 N   0  0  0  0  0  0  0  0  0  0  0  0
   21.7480   -5.6506  -17.3702 C   0  0  1  0  0  0  0  0  0  0  0  0
   21.6889   -6.0900  -15.9508 C   0  0  0  0  0  0  0  0  0  0  0  0
   21.8688   -5.0813  -14.8873 C   0  0  0  0  0  0  0  0  0  0  0  0
   21.7454   -5.6814  -13.5484 C   0  0  0  0  0  0  0  0  0  0  0  0
   20.5671   -5.7970  -13.0577 O   0  0  0  0  0  0  0  0  0  0  0  0
   22.8376   -4.7924  -17.7990 C   0  0  0  0  0  0  0  0  0  0  0  0
   23.8471   -5.3177  -18.3851 O   0  0  0  0  0  0  0  0  0  0  0  0
   22.8330   -6.1120  -12.8247 O   0  0  0  0  0  0  0  0  0  0  0  0
   22.8809   -3.4184  -17.6243 O   0  0  0  0  0  0  0  0  0  0  0  0
  2  1  1  0
  2  3  2  0
  4  5  1  0
  4  2  1  0
  5  6  1  0
  6  7  1  6
  8  6  1  0
  8 10  1  0
  9  8  2  0
 11 10  1  0
 12 13  1  0
 11 12  1  6
 14 13  1  0
 15 14  2  0
 16 11  1  0
 17 16  2  0
 18 14  1  0
 19 16  1  0
 20 19  1  0
 20 25  1  0
 20 21  1  1
 22 21  1  0
 22 23  1  0
 23 27  1  0
 24 23  2  0
 25 28  1  0
 26 25  2  0
M  END
$$$$
