QEE.pdb
     RDKit          3D

 28 27  0  0  1  0  0  0  0  0999 V2000
   27.8966  -16.6691  -15.5257 N   0  0  0  0  0  0  0  0  0  0  0  0
   28.1891  -16.9416  -16.9081 C   0  0  0  0  0  0  0  0  0  0  0  0
   28.9716  -16.1665  -17.4908 O   0  0  0  0  0  0  0  0  0  0  0  0
   27.6022  -18.0778  -17.6243 C   0  0  0  0  0  0  0  0  0  0  0  0
   26.7470  -18.9217  -16.7689 C   0  0  0  0  0  0  0  0  0  0  0  0
   27.3969  -19.9000  -15.8633 C   0  0  2  0  0  0  0  0  0  0  0  0
   28.0873  -20.9137  -16.7114 N   0  0  0  0  0  0  0  0  0  0  0  0
   26.5339  -20.6422  -14.9519 C   0  0  0  0  0  0  0  0  0  0  0  0
   25.6578  -21.4307  -15.4522 O   0  0  0  0  0  0  0  0  0  0  0  0
   26.5350  -20.6130  -13.5393 N   0  0  0  0  0  0  0  0  0  0  0  0
   25.3808  -21.0476  -12.7475 C   0  0  1  0  0  0  0  0  0  0  0  0
   25.8750  -20.8546  -11.3021 C   0  0  0  0  0  0  0  0  0  0  0  0
   24.8853  -21.2321  -10.2664 C   0  0  0  0  0  0  0  0  0  0  0  0
   25.3913  -20.9613   -8.9210 C   0  0  0  0  0  0  0  0  0  0  0  0
   26.4326  -20.3173   -8.7327 O   0  0  0  0  0  0  0  0  0  0  0  0
   24.1839  -20.2280  -13.0005 C   0  0  0  0  0  0  0  0  0  0  0  0
   24.3200  -18.9920  -13.3171 O   0  0  0  0  0  0  0  0  0  0  0  0
   24.6712  -21.4480   -7.8165 O   0  0  0  0  0  0  0  0  0  0  0  0
   22.8991  -20.7865  -12.8994 N   0  0  0  0  0  0  0  0  0  0  0  0
   21.7105  -19.9915  -13.2671 C   0  0  1  0  0  0  0  0  0  0  0  0
   21.8784  -19.7012  -14.7158 C   0  0  0  0  0  0  0  0  0  0  0  0
   20.7728  -19.0432  -15.4407 C   0  0  0  0  0  0  0  0  0  0  0  0
   20.9274  -19.1794  -16.8986 C   0  0  0  0  0  0  0  0  0  0  0  0
   21.8013  -20.0137  -17.3260 O   0  0  0  0  0  0  0  0  0  0  0  0
   20.5209  -20.6940  -12.8209 C   0  0  0  0  0  0  0  0  0  0  0  0
   19.4161  -20.0528  -12.7389 O   0  0  0  0  0  0  0  0  0  0  0  0
   20.1783  -18.4539  -17.7956 O   0  0  0  0  0  0  0  0  0  0  0  0
   20.4765  -22.0330  -12.4670 O   0  0  0  0  0  0  0  0  0  0  0  0
  2  1  1  0
  2  3  2  0
  4  5  1  0
  4  2  1  0
  5  6  1  0
  6  7  1  6
  8  6  1  0
  8 10  1  0
  9  8  2  0
 11 10  1  0
 12 13  1  0
 11 12  1  1
 14 13  1  0
 15 14  2  0
 16 11  1  0
 17 16  2  0
 18 14  1  0
 19 16  1  0
 20 19  1  0
 20 25  1  0
 20 21  1  6
 22 21  1  0
 22 23  1  0
 23 27  1  0
 24 23  2  0
 25 28  1  0
 26 25  2  0
M  END
$$$$
