QEE.pdb
     RDKit          3D

 28 27  0  0  1  0  0  0  0  0999 V2000
   15.4391  -14.2891  -15.3924 N   0  0  0  0  0  0  0  0  0  0  0  0
   15.3769  -13.1535  -14.5106 C   0  0  0  0  0  0  0  0  0  0  0  0
   14.7557  -13.2942  -13.4397 O   0  0  0  0  0  0  0  0  0  0  0  0
   16.0094  -11.8722  -14.8368 C   0  0  0  0  0  0  0  0  0  0  0  0
   16.5773  -11.8371  -16.1976 C   0  0  0  0  0  0  0  0  0  0  0  0
   17.3801  -10.6567  -16.5996 C   0  0  2  0  0  0  0  0  0  0  0  0
   17.8421  -10.8781  -18.0001 N   0  0  0  0  0  0  0  0  0  0  0  0
   18.5717  -10.3600  -15.8134 C   0  0  0  0  0  0  0  0  0  0  0  0
   18.4222  -10.0299  -14.5852 O   0  0  0  0  0  0  0  0  0  0  0  0
   19.9197  -10.3923  -16.2355 N   0  0  0  0  0  0  0  0  0  0  0  0
   21.0039   -9.8181  -15.4338 C   0  0  1  0  0  0  0  0  0  0  0  0
   22.2373  -10.5900  -15.9376 C   0  0  0  0  0  0  0  0  0  0  0  0
   23.5080  -10.1965  -15.2856 C   0  0  0  0  0  0  0  0  0  0  0  0
   24.6498  -10.8918  -15.8790 C   0  0  0  0  0  0  0  0  0  0  0  0
   24.5081  -11.7225  -16.7869 O   0  0  0  0  0  0  0  0  0  0  0  0
   21.1678   -8.3726  -15.6617 C   0  0  0  0  0  0  0  0  0  0  0  0
   20.9412   -7.8872  -16.8277 O   0  0  0  0  0  0  0  0  0  0  0  0
   25.9400  -10.6044  -15.4014 O   0  0  0  0  0  0  0  0  0  0  0  0
   21.5677   -7.5236  -14.6166 N   0  0  0  0  0  0  0  0  0  0  0  0
   21.6308   -6.0634  -14.8260 C   0  0  1  0  0  0  0  0  0  0  0  0
   20.2393   -5.6663  -15.1685 C   0  0  0  0  0  0  0  0  0  0  0  0
   19.8963   -4.2301  -15.1914 C   0  0  0  0  0  0  0  0  0  0  0  0
   18.4680   -4.0214  -15.4821 C   0  0  0  0  0  0  0  0  0  0  0  0
   17.7427   -5.0622  -15.6647 O   0  0  0  0  0  0  0  0  0  0  0  0
   22.2771   -5.4532  -13.6782 C   0  0  0  0  0  0  0  0  0  0  0  0
   22.4109   -6.1379  -12.6050 O   0  0  0  0  0  0  0  0  0  0  0  0
   17.9016   -2.7704  -15.5616 O   0  0  0  0  0  0  0  0  0  0  0  0
   22.7745   -4.1603  -13.6427 O   0  0  0  0  0  0  0  0  0  0  0  0
  2  1  1  0
  2  3  2  0
  4  5  1  0
  4  2  1  0
  5  6  1  0
  6  7  1  6
  8  6  1  0
  8 10  1  0
  9  8  2  0
 11 10  1  0
 12 13  1  0
 11 12  1  6
 14 13  1  0
 15 14  2  0
 16 11  1  0
 17 16  2  0
 18 14  1  0
 19 16  1  0
 20 19  1  0
 20 25  1  0
 20 21  1  1
 22 21  1  0
 22 23  1  0
 23 27  1  0
 24 23  2  0
 25 28  1  0
 26 25  2  0
M  END
$$$$
