QEE.pdb
     RDKit          3D

 28 27  0  0  1  0  0  0  0  0999 V2000
   14.0306  -12.6239  -15.8337 N   0  0  0  0  0  0  0  0  0  0  0  0
   13.7530  -12.1171  -17.1516 C   0  0  0  0  0  0  0  0  0  0  0  0
   12.9911  -12.7884  -17.8738 O   0  0  0  0  0  0  0  0  0  0  0  0
   14.3317  -10.8654  -17.6481 C   0  0  0  0  0  0  0  0  0  0  0  0
   15.1359  -10.1576  -16.6344 C   0  0  0  0  0  0  0  0  0  0  0  0
   16.5110   -9.7325  -16.9918 C   0  0  2  0  0  0  0  0  0  0  0  0
   17.3871  -10.9380  -16.9359 N   0  0  0  0  0  0  0  0  0  0  0  0
   17.1399   -8.7250  -16.1459 C   0  0  0  0  0  0  0  0  0  0  0  0
   17.2275   -8.9558  -14.8894 O   0  0  0  0  0  0  0  0  0  0  0  0
   17.6905   -7.4843  -16.5378 N   0  0  0  0  0  0  0  0  0  0  0  0
   18.3835   -6.6032  -15.5935 C   0  0  1  0  0  0  0  0  0  0  0  0
   19.6463   -7.4127  -15.2460 C   0  0  0  0  0  0  0  0  0  0  0  0
   20.5864   -6.7124  -14.3402 C   0  0  0  0  0  0  0  0  0  0  0  0
   21.7387   -7.5521  -14.0142 C   0  0  0  0  0  0  0  0  0  0  0  0
   22.0883   -7.7545  -12.8431 O   0  0  0  0  0  0  0  0  0  0  0  0
   18.7461   -5.3085  -16.1940 C   0  0  0  0  0  0  0  0  0  0  0  0
   19.1957   -5.2730  -17.3952 O   0  0  0  0  0  0  0  0  0  0  0  0
   22.4645   -8.1424  -15.0632 O   0  0  0  0  0  0  0  0  0  0  0  0
   18.6032   -4.1162  -15.4654 N   0  0  0  0  0  0  0  0  0  0  0  0
   18.8140   -2.8114  -16.1236 C   0  0  1  0  0  0  0  0  0  0  0  0
   17.8277   -1.8987  -15.4867 C   0  0  0  0  0  0  0  0  0  0  0  0
   17.8640   -0.4631  -15.8307 C   0  0  0  0  0  0  0  0  0  0  0  0
   16.8183    0.2889  -15.1172 C   0  0  0  0  0  0  0  0  0  0  0  0
   17.1838    1.3139  -14.4401 O   0  0  0  0  0  0  0  0  0  0  0  0
   20.2258   -2.4788  -16.0629 C   0  0  0  0  0  0  0  0  0  0  0  0
   20.9410   -2.9783  -15.1262 O   0  0  0  0  0  0  0  0  0  0  0  0
   15.4904   -0.0678  -15.1550 O   0  0  0  0  0  0  0  0  0  0  0  0
   20.8833   -1.6459  -16.9540 O   0  0  0  0  0  0  0  0  0  0  0  0
  2  1  1  0
  2  3  2  0
  4  5  1  0
  4  2  1  0
  5  6  1  0
  6  7  1  1
  8  6  1  0
  8 10  1  0
  9  8  2  0
 11 10  1  0
 12 13  1  0
 11 12  1  6
 14 13  1  0
 15 14  2  0
 16 11  1  0
 17 16  2  0
 18 14  1  0
 19 16  1  0
 20 19  1  0
 20 25  1  0
 20 21  1  1
 22 21  1  0
 22 23  1  0
 23 27  1  0
 24 23  2  0
 25 28  1  0
 26 25  2  0
M  END
$$$$
