QEE.pdb
     RDKit          3D

 28 27  0  0  1  0  0  0  0  0999 V2000
   29.2780  -13.3945  -16.1823 N   0  0  0  0  0  0  0  0  0  0  0  0
   28.2278  -12.4868  -16.5618 C   0  0  0  0  0  0  0  0  0  0  0  0
   28.5627  -11.3390  -16.9123 O   0  0  0  0  0  0  0  0  0  0  0  0
   26.8138  -12.8725  -16.5439 C   0  0  0  0  0  0  0  0  0  0  0  0
   25.9114  -11.7822  -16.9589 C   0  0  0  0  0  0  0  0  0  0  0  0
   24.4502  -12.0360  -16.9648 C   0  0  2  0  0  0  0  0  0  0  0  0
   24.1643  -13.0145  -18.0531 N   0  0  0  0  0  0  0  0  0  0  0  0
   23.5746  -10.8931  -17.1961 C   0  0  0  0  0  0  0  0  0  0  0  0
   23.2870  -10.5834  -18.4048 O   0  0  0  0  0  0  0  0  0  0  0  0
   22.9740  -10.0517  -16.2330 N   0  0  0  0  0  0  0  0  0  0  0  0
   22.1970   -8.8663  -16.6064 C   0  0  1  0  0  0  0  0  0  0  0  0
   20.7498   -9.3154  -16.3330 C   0  0  0  0  0  0  0  0  0  0  0  0
   20.6091  -10.2494  -15.1918 C   0  0  0  0  0  0  0  0  0  0  0  0
   19.2120  -10.6275  -14.9809 C   0  0  0  0  0  0  0  0  0  0  0  0
   18.5298  -10.1265  -14.0763 O   0  0  0  0  0  0  0  0  0  0  0  0
   22.5382   -7.6895  -15.7896 C   0  0  0  0  0  0  0  0  0  0  0  0
   23.0955   -7.8545  -14.6457 O   0  0  0  0  0  0  0  0  0  0  0  0
   18.6343  -11.5858  -15.8314 O   0  0  0  0  0  0  0  0  0  0  0  0
   22.2603   -6.3924  -16.2513 N   0  0  0  0  0  0  0  0  0  0  0  0
   22.7877   -5.2165  -15.5309 C   0  0  1  0  0  0  0  0  0  0  0  0
   22.6172   -4.0814  -16.4762 C   0  0  0  0  0  0  0  0  0  0  0  0
   21.2692   -3.5072  -16.6601 C   0  0  0  0  0  0  0  0  0  0  0  0
   21.2864   -2.3850  -17.6132 C   0  0  0  0  0  0  0  0  0  0  0  0
   21.2512   -2.6686  -18.8625 O   0  0  0  0  0  0  0  0  0  0  0  0
   22.1597   -5.1475  -14.2239 C   0  0  0  0  0  0  0  0  0  0  0  0
   22.6679   -4.3840  -13.3311 O   0  0  0  0  0  0  0  0  0  0  0  0
   21.3380   -1.0704  -17.2115 O   0  0  0  0  0  0  0  0  0  0  0  0
   21.0284   -5.8548  -13.8493 O   0  0  0  0  0  0  0  0  0  0  0  0
  2  1  1  0
  2  3  2  0
  4  5  1  0
  4  2  1  0
  5  6  1  0
  6  7  1  6
  8  6  1  0
  8 10  1  0
  9  8  2  0
 11 10  1  0
 12 13  1  0
 11 12  1  1
 14 13  1  0
 15 14  2  0
 16 11  1  0
 17 16  2  0
 18 14  1  0
 19 16  1  0
 20 19  1  0
 20 25  1  0
 20 21  1  6
 22 21  1  0
 22 23  1  0
 23 27  1  0
 24 23  2  0
 25 28  1  0
 26 25  2  0
M  END
$$$$
