QEE.pdb
     RDKit          3D

 28 27  0  0  1  0  0  0  0  0999 V2000
   29.2798  -20.3547  -12.7188 N   0  0  0  0  0  0  0  0  0  0  0  0
   29.8424  -19.3244  -13.5511 C   0  0  0  0  0  0  0  0  0  0  0  0
   31.0143  -18.9736  -13.3138 O   0  0  0  0  0  0  0  0  0  0  0  0
   29.0876  -18.6966  -14.6395 C   0  0  0  0  0  0  0  0  0  0  0  0
   27.7280  -19.2473  -14.7934 C   0  0  0  0  0  0  0  0  0  0  0  0
   27.4265  -20.5681  -14.1899 C   0  0  2  0  0  0  0  0  0  0  0  0
   27.8714  -21.6180  -15.1510 N   0  0  0  0  0  0  0  0  0  0  0  0
   26.0317  -20.8575  -13.8783 C   0  0  0  0  0  0  0  0  0  0  0  0
   25.2967  -21.3632  -14.7968 O   0  0  0  0  0  0  0  0  0  0  0  0
   25.3558  -20.6526  -12.6546 N   0  0  0  0  0  0  0  0  0  0  0  0
   23.9203  -20.9060  -12.5025 C   0  0  1  0  0  0  0  0  0  0  0  0
   23.7189  -20.7859  -10.9808 C   0  0  0  0  0  0  0  0  0  0  0  0
   22.3113  -20.9280  -10.5414 C   0  0  0  0  0  0  0  0  0  0  0  0
   22.1920  -20.8160   -9.0879 C   0  0  0  0  0  0  0  0  0  0  0  0
   23.1826  -20.6499   -8.3628 O   0  0  0  0  0  0  0  0  0  0  0  0
   23.0954  -19.9158  -13.2148 C   0  0  0  0  0  0  0  0  0  0  0  0
   23.3983  -18.6710  -13.1412 O   0  0  0  0  0  0  0  0  0  0  0  0
   20.9159  -20.8999   -8.5050 O   0  0  0  0  0  0  0  0  0  0  0  0
   21.9843  -20.3213  -13.9724 N   0  0  0  0  0  0  0  0  0  0  0  0
   21.1709  -19.3230  -14.6946 C   0  0  1  0  0  0  0  0  0  0  0  0
   21.5760  -19.4585  -16.1190 C   0  0  0  0  0  0  0  0  0  0  0  0
   20.8782  -18.6462  -17.1358 C   0  0  0  0  0  0  0  0  0  0  0  0
   21.3672  -18.9439  -18.4923 C   0  0  0  0  0  0  0  0  0  0  0  0
   22.3506  -19.7585  -18.6018 O   0  0  0  0  0  0  0  0  0  0  0  0
   19.7762  -19.5077  -14.3365 C   0  0  0  0  0  0  0  0  0  0  0  0
   19.4108  -20.6196  -13.8183 O   0  0  0  0  0  0  0  0  0  0  0  0
   20.8122  -18.3863  -19.6207 O   0  0  0  0  0  0  0  0  0  0  0  0
   18.7803  -18.5601  -14.5115 O   0  0  0  0  0  0  0  0  0  0  0  0
  2  1  1  0
  2  3  2  0
  4  5  1  0
  4  2  1  0
  5  6  1  0
  6  7  1  6
  8  6  1  0
  8 10  1  0
  9  8  2  0
 11 10  1  0
 12 13  1  0
 11 12  1  1
 14 13  1  0
 15 14  2  0
 16 11  1  0
 17 16  2  0
 18 14  1  0
 19 16  1  0
 20 19  1  0
 20 25  1  0
 20 21  1  6
 22 21  1  0
 22 23  1  0
 23 27  1  0
 24 23  2  0
 25 28  1  0
 26 25  2  0
M  END
$$$$
