QEE.pdb
     RDKit          3D

 28 27  0  0  1  0  0  0  0  0999 V2000
   28.1423  -10.4835  -15.9409 N   0  0  0  0  0  0  0  0  0  0  0  0
   28.3843  -11.8242  -16.4044 C   0  0  0  0  0  0  0  0  0  0  0  0
   29.5224  -12.2967  -16.2194 O   0  0  0  0  0  0  0  0  0  0  0  0
   27.3509  -12.6217  -17.0709 C   0  0  0  0  0  0  0  0  0  0  0  0
   26.0903  -11.8830  -17.2726 C   0  0  0  0  0  0  0  0  0  0  0  0
   25.1962  -11.6769  -16.1074 C   0  0  2  0  0  0  0  0  0  0  0  0
   24.8212  -13.0205  -15.5804 N   0  0  0  0  0  0  0  0  0  0  0  0
   23.9474  -10.9617  -16.3420 C   0  0  0  0  0  0  0  0  0  0  0  0
   24.0069   -9.7812  -16.8346 O   0  0  0  0  0  0  0  0  0  0  0  0
   22.6308  -11.4113  -16.0953 N   0  0  0  0  0  0  0  0  0  0  0  0
   21.4657  -10.5333  -16.2360 C   0  0  1  0  0  0  0  0  0  0  0  0
   20.2925  -11.4834  -15.9332 C   0  0  0  0  0  0  0  0  0  0  0  0
   18.9552  -10.8644  -16.0846 C   0  0  0  0  0  0  0  0  0  0  0  0
   17.8881  -11.8219  -15.7946 C   0  0  0  0  0  0  0  0  0  0  0  0
   17.2352  -12.3644  -16.6968 O   0  0  0  0  0  0  0  0  0  0  0  0
   21.4862   -9.4132  -15.2804 C   0  0  0  0  0  0  0  0  0  0  0  0
   22.0063   -9.5825  -14.1196 O   0  0  0  0  0  0  0  0  0  0  0  0
   17.6013  -12.1302  -14.4537 O   0  0  0  0  0  0  0  0  0  0  0  0
   20.9440   -8.1651  -15.6282 N   0  0  0  0  0  0  0  0  0  0  0  0
   21.1655   -6.9896  -14.7626 C   0  0  1  0  0  0  0  0  0  0  0  0
   22.3953   -6.3475  -15.2979 C   0  0  0  0  0  0  0  0  0  0  0  0
   22.8707   -5.0955  -14.6755 C   0  0  0  0  0  0  0  0  0  0  0  0
   24.0541   -4.5630  -15.3712 C   0  0  0  0  0  0  0  0  0  0  0  0
   23.8615   -3.6639  -16.2639 O   0  0  0  0  0  0  0  0  0  0  0  0
   19.9373   -6.2182  -14.6971 C   0  0  0  0  0  0  0  0  0  0  0  0
   19.0852   -6.3269  -15.6461 O   0  0  0  0  0  0  0  0  0  0  0  0
   25.3320   -4.9924  -15.0974 O   0  0  0  0  0  0  0  0  0  0  0  0
   19.5988   -5.3520  -13.6698 O   0  0  0  0  0  0  0  0  0  0  0  0
  2  1  1  0
  2  3  2  0
  4  5  1  0
  4  2  1  0
  5  6  1  0
  6  7  1  6
  8  6  1  0
  8 10  1  0
  9  8  2  0
 11 10  1  0
 12 13  1  0
 11 12  1  1
 14 13  1  0
 15 14  2  0
 16 11  1  0
 17 16  2  0
 18 14  1  0
 19 16  1  0
 20 19  1  0
 20 25  1  0
 20 21  1  6
 22 21  1  0
 22 23  1  0
 23 27  1  0
 24 23  2  0
 25 28  1  0
 26 25  2  0
M  END
$$$$
