PQE.pdb
     RDKit          3D

 26 26  0  0  1  0  0  0  0  0999 V2000
   27.9581  -19.7557  -15.3795 N   0  0  0  0  0  0  0  0  0  0  0  0
   29.1834  -20.0085  -16.1536 C   0  0  0  0  0  0  0  0  0  0  0  0
   29.4058  -21.4794  -15.8460 C   0  0  0  0  0  0  0  0  0  0  0  0
   27.9835  -22.0207  -15.9184 C   0  0  0  0  0  0  0  0  0  0  0  0
   27.0995  -20.8121  -15.8581 C   0  0  1  0  0  0  0  0  0  0  0  0
   25.9696  -21.0732  -14.9265 C   0  0  0  0  0  0  0  0  0  0  0  0
   25.0988  -21.9196  -15.2440 O   0  0  0  0  0  0  0  0  0  0  0  0
   25.7703  -19.5315   -8.7963 N   0  0  0  0  0  0  0  0  0  0  0  0
   25.2845  -20.8305   -9.0610 C   0  0  0  0  0  0  0  0  0  0  0  0
   25.1943  -21.6056   -8.0767 O   0  0  0  0  0  0  0  0  0  0  0  0
   24.8911  -21.2972  -10.4121 C   0  0  0  0  0  0  0  0  0  0  0  0
   25.0382  -20.2873  -11.4756 C   0  0  0  0  0  0  0  0  0  0  0  0
   24.6617  -20.6506  -12.8644 C   0  0  2  0  0  0  0  0  0  0  0  0
   25.8250  -20.4087  -13.6871 N   0  0  0  0  0  0  0  0  0  0  0  0
   23.5220  -19.9521  -13.4321 C   0  0  0  0  0  0  0  0  0  0  0  0
   23.4490  -18.7139  -13.6453 O   0  0  0  0  0  0  0  0  0  0  0  0
   22.3717  -20.7027  -13.7896 N   0  0  0  0  0  0  0  0  0  0  0  0
   21.2049  -20.0950  -14.3950 C   0  0  1  0  0  0  0  0  0  0  0  0
   21.3446  -20.2731  -15.8984 C   0  0  0  0  0  0  0  0  0  0  0  0
   20.1311  -19.5990  -16.5372 C   0  0  0  0  0  0  0  0  0  0  0  0
   20.1625  -19.7991  -18.0079 C   0  0  0  0  0  0  0  0  0  0  0  0
   20.0922  -20.9653  -18.4726 O   0  0  0  0  0  0  0  0  0  0  0  0
   19.9842  -20.8492  -13.9387 C   0  0  0  0  0  0  0  0  0  0  0  0
   18.7497  -20.2230  -13.8166 O   0  0  0  0  0  0  0  0  0  0  0  0
   20.2680  -18.7132  -18.8537 O   0  0  0  0  0  0  0  0  0  0  0  0
   20.0439  -22.0682  -13.6543 O   0  0  0  0  0  0  0  0  0  0  0  0
  1  2  1  0
  3  2  1  0
  4  5  1  0
  4  3  1  0
  5  1  1  0
  6 14  1  0
  5  6  1  1
  7  6  2  0
  8  9  1  0
  9 10  2  0
 11 12  1  0
 11  9  1  0
 13 14  1  0
 13 12  1  1
 15 13  1  0
 16 15  2  0
 17 15  1  0
 18 17  1  0
 18 19  1  6
 20 19  1  0
 20 21  1  0
 21 25  1  0
 21 22  2  0
 23 18  1  0
 23 24  1  0
 26 23  2  0
M  END
$$$$
