PQE.pdb
     RDKit          3D

 26 26  0  0  1  0  0  0  0  0999 V2000
   17.1588  -25.7741   -3.6025 N   0  0  0  0  0  0  0  0  0  0  0  0
   17.0177  -26.0803   -5.0346 C   0  0  0  0  0  0  0  0  0  0  0  0
   15.6048  -26.6378   -5.0599 C   0  0  0  0  0  0  0  0  0  0  0  0
   14.8883  -25.6855   -4.1107 C   0  0  0  0  0  0  0  0  0  0  0  0
   15.9795  -24.9765   -3.3674 C   0  0  1  0  0  0  0  0  0  0  0  0
   15.6319  -24.9132   -1.9225 C   0  0  0  0  0  0  0  0  0  0  0  0
   14.6792  -24.1835   -1.5545 O   0  0  0  0  0  0  0  0  0  0  0  0
   13.6444  -29.6231    2.4776 N   0  0  0  0  0  0  0  0  0  0  0  0
   14.7243  -28.7561    2.2030 C   0  0  0  0  0  0  0  0  0  0  0  0
   15.6663  -28.7551    3.0339 O   0  0  0  0  0  0  0  0  0  0  0  0
   14.7846  -27.8764    1.0111 C   0  0  0  0  0  0  0  0  0  0  0  0
   15.9903  -27.0321    0.9338 C   0  0  0  0  0  0  0  0  0  0  0  0
   15.8584  -25.6403    0.4358 C   0  0  2  0  0  0  0  0  0  0  0  0
   16.3281  -25.6417   -0.9310 N   0  0  0  0  0  0  0  0  0  0  0  0
   16.5648  -24.6140    1.1821 C   0  0  0  0  0  0  0  0  0  0  0  0
   17.7851  -24.3286    1.0673 O   0  0  0  0  0  0  0  0  0  0  0  0
   15.8444  -23.8459    2.1337 N   0  0  0  0  0  0  0  0  0  0  0  0
   16.4637  -22.7923    2.9106 C   0  0  1  0  0  0  0  0  0  0  0  0
   15.3587  -21.8236    3.3004 C   0  0  0  0  0  0  0  0  0  0  0  0
   15.7736  -20.4483    2.7792 C   0  0  0  0  0  0  0  0  0  0  0  0
   14.7599  -19.4369    3.1710 C   0  0  0  0  0  0  0  0  0  0  0  0
   14.7879  -18.9540    4.3316 O   0  0  0  0  0  0  0  0  0  0  0  0
   17.0301  -23.3976    4.1676 C   0  0  0  0  0  0  0  0  0  0  0  0
   16.8116  -24.7313    4.4912 O   0  0  0  0  0  0  0  0  0  0  0  0
   13.7977  -19.0330    2.2673 O   0  0  0  0  0  0  0  0  0  0  0  0
   17.7177  -22.7157    4.9629 O   0  0  0  0  0  0  0  0  0  0  0  0
  1  2  1  0
  3  2  1  0
  4  5  1  0
  4  3  1  0
  5  1  1  0
  6 14  1  0
  5  6  1  1
  7  6  2  0
  8  9  1  0
  9 10  2  0
 11 12  1  0
 11  9  1  0
 13 14  1  0
 13 12  1  1
 15 13  1  0
 16 15  2  0
 17 15  1  0
 18 17  1  0
 18 19  1  1
 20 19  1  0
 20 21  1  0
 21 25  1  0
 21 22  2  0
 23 18  1  0
 23 24  1  0
 26 23  2  0
M  END
$$$$
