PQE.pdb
     RDKit          3D

 26 26  0  0  1  0  0  0  0  0999 V2000
   25.2988  -14.1227  -15.4033 N   0  0  0  0  0  0  0  0  0  0  0  0
   26.4531  -14.9835  -15.7052 C   0  0  0  0  0  0  0  0  0  0  0  0
   26.6179  -14.7133  -17.1910 C   0  0  0  0  0  0  0  0  0  0  0  0
   26.3807  -13.2095  -17.2517 C   0  0  0  0  0  0  0  0  0  0  0  0
   25.7407  -12.8594  -15.9427 C   0  0  1  0  0  0  0  0  0  0  0  0
   24.6037  -11.9306  -16.1821 C   0  0  0  0  0  0  0  0  0  0  0  0
   24.8236  -10.8249  -16.7340 O   0  0  0  0  0  0  0  0  0  0  0  0
   18.5608  -13.7271  -16.2954 N   0  0  0  0  0  0  0  0  0  0  0  0
   19.6429  -14.0402  -17.1465 C   0  0  0  0  0  0  0  0  0  0  0  0
   19.4916  -15.0320  -17.9023 O   0  0  0  0  0  0  0  0  0  0  0  0
   20.9082  -13.2680  -17.1791 C   0  0  0  0  0  0  0  0  0  0  0  0
   20.9612  -12.1395  -16.2324 C   0  0  0  0  0  0  0  0  0  0  0  0
   22.2004  -11.3264  -16.1571 C   0  0  2  0  0  0  0  0  0  0  0  0
   23.2724  -12.2334  -15.8154 N   0  0  0  0  0  0  0  0  0  0  0  0
   22.1944  -10.2191  -15.2174 C   0  0  0  0  0  0  0  0  0  0  0  0
   22.5530  -10.2742  -14.0124 O   0  0  0  0  0  0  0  0  0  0  0  0
   21.7505   -8.9476  -15.6655 N   0  0  0  0  0  0  0  0  0  0  0  0
   21.8023   -7.7674  -14.8279 C   0  0  1  0  0  0  0  0  0  0  0  0
   22.1969   -6.6059  -15.7260 C   0  0  0  0  0  0  0  0  0  0  0  0
   22.2747   -5.3664  -14.8356 C   0  0  0  0  0  0  0  0  0  0  0  0
   22.6371   -4.1824  -15.6548 C   0  0  0  0  0  0  0  0  0  0  0  0
   23.0470   -4.3496  -16.8316 O   0  0  0  0  0  0  0  0  0  0  0  0
   20.4207   -7.5040  -14.2902 C   0  0  0  0  0  0  0  0  0  0  0  0
   20.2279   -6.8966  -13.0554 O   0  0  0  0  0  0  0  0  0  0  0  0
   22.5239   -2.9122  -15.1262 O   0  0  0  0  0  0  0  0  0  0  0  0
   19.3994   -7.8253  -14.9414 O   0  0  0  0  0  0  0  0  0  0  0  0
  1  2  1  0
  3  2  1  0
  4  5  1  0
  4  3  1  0
  5  1  1  0
  6 14  1  0
  5  6  1  6
  7  6  2  0
  8  9  1  0
  9 10  2  0
 11 12  1  0
 11  9  1  0
 13 14  1  0
 13 12  1  1
 15 13  1  0
 16 15  2  0
 17 15  1  0
 18 17  1  0
 18 19  1  6
 20 19  1  0
 20 21  1  0
 21 25  1  0
 21 22  2  0
 23 18  1  0
 23 24  1  0
 26 23  2  0
M  END
$$$$
