PQE.pdb
     RDKit          3D

 26 26  0  0  1  0  0  0  0  0999 V2000
   16.4234  -13.4930  -12.0243 N   0  0  0  0  0  0  0  0  0  0  0  0
   16.1537  -14.7257  -12.7809 C   0  0  0  0  0  0  0  0  0  0  0  0
   14.9851  -14.2728  -13.6392 C   0  0  0  0  0  0  0  0  0  0  0  0
   15.4279  -12.8697  -14.0347 C   0  0  0  0  0  0  0  0  0  0  0  0
   16.5405  -12.5279  -13.0907 C   0  0  1  0  0  0  0  0  0  0  0  0
   16.3612  -11.1351  -12.6003 C   0  0  0  0  0  0  0  0  0  0  0  0
   16.5086  -10.1809  -13.4023 O   0  0  0  0  0  0  0  0  0  0  0  0
   12.3170   -9.6706   -8.1742 N   0  0  0  0  0  0  0  0  0  0  0  0
   12.9955   -8.4463   -8.3588 C   0  0  0  0  0  0  0  0  0  0  0  0
   12.5689   -7.4653   -7.7005 O   0  0  0  0  0  0  0  0  0  0  0  0
   14.1531   -8.2819   -9.2704 C   0  0  0  0  0  0  0  0  0  0  0  0
   14.6149   -9.5297   -9.9047 C   0  0  0  0  0  0  0  0  0  0  0  0
   15.7314   -9.4657  -10.8803 C   0  0  2  0  0  0  0  0  0  0  0  0
   16.0293  -10.8278  -11.2609 N   0  0  0  0  0  0  0  0  0  0  0  0
   16.9511   -8.8185  -10.4299 C   0  0  0  0  0  0  0  0  0  0  0  0
   17.7958   -9.3102   -9.6371 O   0  0  0  0  0  0  0  0  0  0  0  0
   17.2470   -7.5150  -10.9071 N   0  0  0  0  0  0  0  0  0  0  0  0
   18.4344   -6.7911  -10.5033 C   0  0  1  0  0  0  0  0  0  0  0  0
   19.3259   -6.6861  -11.7303 C   0  0  0  0  0  0  0  0  0  0  0  0
   20.5688   -5.9042  -11.3070 C   0  0  0  0  0  0  0  0  0  0  0  0
   21.4907   -5.7642  -12.4623 C   0  0  0  0  0  0  0  0  0  0  0  0
   22.4528   -4.9581  -12.3884 O   0  0  0  0  0  0  0  0  0  0  0  0
   18.0276   -5.4011  -10.0913 C   0  0  0  0  0  0  0  0  0  0  0  0
   16.8958   -4.7915  -10.6191 O   0  0  0  0  0  0  0  0  0  0  0  0
   21.2904   -6.5131  -13.6045 O   0  0  0  0  0  0  0  0  0  0  0  0
   18.6987   -4.7493   -9.2577 O   0  0  0  0  0  0  0  0  0  0  0  0
  1  2  1  0
  3  2  1  0
  4  5  1  0
  4  3  1  0
  5  1  1  0
  6 14  1  0
  5  6  1  1
  7  6  2  0
  8  9  1  0
  9 10  2  0
 11 12  1  0
 11  9  1  0
 13 14  1  0
 13 12  1  1
 15 13  1  0
 16 15  2  0
 17 15  1  0
 18 17  1  0
 18 19  1  6
 20 19  1  0
 20 21  1  0
 21 25  1  0
 21 22  2  0
 23 18  1  0
 23 24  1  0
 26 23  2  0
M  END
$$$$
