PQE.pdb
     RDKit          3D

 26 26  0  0  1  0  0  0  0  0999 V2000
   24.7606  -13.2751  -15.7704 N   0  0  0  0  0  0  0  0  0  0  0  0
   25.3853  -14.5748  -16.0624 C   0  0  0  0  0  0  0  0  0  0  0  0
   24.3704  -15.1575  -17.0311 C   0  0  0  0  0  0  0  0  0  0  0  0
   24.0291  -13.9386  -17.8790 C   0  0  0  0  0  0  0  0  0  0  0  0
   24.5394  -12.7635  -17.1014 C   0  0  1  0  0  0  0  0  0  0  0  0
   23.5194  -11.6810  -17.1170 C   0  0  0  0  0  0  0  0  0  0  0  0
   23.2830  -11.0793  -18.1929 O   0  0  0  0  0  0  0  0  0  0  0  0
   17.9834  -12.3502  -15.3533 N   0  0  0  0  0  0  0  0  0  0  0  0
   18.0064  -10.9427  -15.4616 C   0  0  0  0  0  0  0  0  0  0  0  0
   16.8984  -10.3569  -15.3785 O   0  0  0  0  0  0  0  0  0  0  0  0
   19.2479  -10.1579  -15.6637 C   0  0  0  0  0  0  0  0  0  0  0  0
   20.4740  -10.9687  -15.7714 C   0  0  0  0  0  0  0  0  0  0  0  0
   21.7586  -10.2874  -16.0684 C   0  0  2  0  0  0  0  0  0  0  0  0
   22.7940  -11.2907  -15.9680 N   0  0  0  0  0  0  0  0  0  0  0  0
   22.1051   -9.1579  -15.2236 C   0  0  0  0  0  0  0  0  0  0  0  0
   22.7299   -9.2187  -14.1330 O   0  0  0  0  0  0  0  0  0  0  0  0
   21.7196   -7.8556  -15.6356 N   0  0  0  0  0  0  0  0  0  0  0  0
   22.0400   -6.6711  -14.8664 C   0  0  1  0  0  0  0  0  0  0  0  0
   21.6334   -5.4736  -15.7103 C   0  0  0  0  0  0  0  0  0  0  0  0
   22.0572   -4.2252  -14.9377 C   0  0  0  0  0  0  0  0  0  0  0  0
   21.6855   -3.0100  -15.7055 C   0  0  0  0  0  0  0  0  0  0  0  0
   22.3227   -2.7228  -16.7506 O   0  0  0  0  0  0  0  0  0  0  0  0
   21.2038   -6.6758  -13.6143 C   0  0  0  0  0  0  0  0  0  0  0  0
   21.6571   -6.0898  -12.4386 O   0  0  0  0  0  0  0  0  0  0  0  0
   20.6501   -2.2060  -15.2730 O   0  0  0  0  0  0  0  0  0  0  0  0
   20.0702   -7.2096  -13.5935 O   0  0  0  0  0  0  0  0  0  0  0  0
  1  2  1  0
  3  2  1  0
  4  5  1  0
  4  3  1  0
  5  1  1  0
  6 14  1  0
  5  6  1  1
  7  6  2  0
  8  9  1  0
  9 10  2  0
 11 12  1  0
 11  9  1  0
 13 14  1  0
 13 12  1  1
 15 13  1  0
 16 15  2  0
 17 15  1  0
 18 17  1  0
 18 19  1  6
 20 19  1  0
 20 21  1  0
 21 25  1  0
 21 22  2  0
 23 18  1  0
 23 24  1  0
 26 23  2  0
M  END
$$$$
