PQE.pdb
     RDKit          3D

 26 26  0  0  1  0  0  0  0  0999 V2000
   21.4360  -14.1381  -17.6208 N   0  0  0  0  0  0  0  0  0  0  0  0
   21.5591  -15.4766  -18.2192 C   0  0  0  0  0  0  0  0  0  0  0  0
   20.2506  -15.5572  -18.9867 C   0  0  0  0  0  0  0  0  0  0  0  0
   20.1525  -14.1504  -19.5634 C   0  0  0  0  0  0  0  0  0  0  0  0
   21.1393  -13.3360  -18.7830 C   0  0  1  0  0  0  0  0  0  0  0  0
   20.5226  -12.0334  -18.4151 C   0  0  0  0  0  0  0  0  0  0  0  0
   20.2851  -11.1932  -19.3168 O   0  0  0  0  0  0  0  0  0  0  0  0
   15.6515  -11.1107  -15.1825 N   0  0  0  0  0  0  0  0  0  0  0  0
   16.1814   -9.8021  -15.1835 C   0  0  0  0  0  0  0  0  0  0  0  0
   15.4513   -8.9023  -14.6985 O   0  0  0  0  0  0  0  0  0  0  0  0
   17.5218   -9.4626  -15.7183 C   0  0  0  0  0  0  0  0  0  0  0  0
   18.2602  -10.6035  -16.2891 C   0  0  0  0  0  0  0  0  0  0  0  0
   19.6404  -10.3847  -16.7886 C   0  0  2  0  0  0  0  0  0  0  0  0
   20.1865  -11.6894  -17.0857 N   0  0  0  0  0  0  0  0  0  0  0  0
   20.5478   -9.6783  -15.9015 C   0  0  0  0  0  0  0  0  0  0  0  0
   21.1694  -10.1827  -14.9305 O   0  0  0  0  0  0  0  0  0  0  0  0
   20.7762   -8.2949  -16.1213 N   0  0  0  0  0  0  0  0  0  0  0  0
   21.7238   -7.5300  -15.3375 C   0  0  1  0  0  0  0  0  0  0  0  0
   21.8227   -6.1566  -15.9820 C   0  0  0  0  0  0  0  0  0  0  0  0
   22.9435   -5.4101  -15.2598 C   0  0  0  0  0  0  0  0  0  0  0  0
   22.3621   -4.3959  -14.3446 C   0  0  0  0  0  0  0  0  0  0  0  0
   21.5346   -3.5628  -14.7941 O   0  0  0  0  0  0  0  0  0  0  0  0
   21.1681   -7.3639  -13.9480 C   0  0  0  0  0  0  0  0  0  0  0  0
   21.9800   -7.4734  -12.8256 O   0  0  0  0  0  0  0  0  0  0  0  0
   22.7287   -4.3710  -13.0140 O   0  0  0  0  0  0  0  0  0  0  0  0
   19.9532   -7.1211  -13.7602 O   0  0  0  0  0  0  0  0  0  0  0  0
  1  2  1  0
  3  2  1  0
  4  5  1  0
  4  3  1  0
  5  1  1  0
  6 14  1  0
  5  6  1  1
  7  6  2  0
  8  9  1  0
  9 10  2  0
 11 12  1  0
 11  9  1  0
 13 14  1  0
 13 12  1  1
 15 13  1  0
 16 15  2  0
 17 15  1  0
 18 17  1  0
 18 19  1  6
 20 19  1  0
 20 21  1  0
 21 25  1  0
 21 22  2  0
 23 18  1  0
 23 24  1  0
 26 23  2  0
M  END
$$$$
