PQE.pdb
     RDKit          3D

 26 26  0  0  1  0  0  0  0  0999 V2000
   25.0329  -13.7842  -15.5363 N   0  0  0  0  0  0  0  0  0  0  0  0
   25.9050  -14.9525  -15.7341 C   0  0  0  0  0  0  0  0  0  0  0  0
   25.1429  -15.6844  -16.8255 C   0  0  0  0  0  0  0  0  0  0  0  0
   24.7120  -14.5282  -17.7192 C   0  0  0  0  0  0  0  0  0  0  0  0
   24.9050  -13.2960  -16.8882 C   0  0  1  0  0  0  0  0  0  0  0  0
   23.7250  -12.4044  -17.0464 C   0  0  0  0  0  0  0  0  0  0  0  0
   23.4639  -11.9313  -18.1794 O   0  0  0  0  0  0  0  0  0  0  0  0
   18.0679  -14.5239  -17.0844 N   0  0  0  0  0  0  0  0  0  0  0  0
   18.7201  -13.5112  -16.3479 C   0  0  0  0  0  0  0  0  0  0  0  0
   18.1327  -13.1039  -15.3150 O   0  0  0  0  0  0  0  0  0  0  0  0
   20.0278  -12.9305  -16.7361 C   0  0  0  0  0  0  0  0  0  0  0  0
   20.5329  -11.8924  -15.8197 C   0  0  0  0  0  0  0  0  0  0  0  0
   21.7664  -11.1531  -16.1863 C   0  0  2  0  0  0  0  0  0  0  0  0
   22.8724  -12.0585  -15.9730 N   0  0  0  0  0  0  0  0  0  0  0  0
   22.0184   -9.9149  -15.4702 C   0  0  0  0  0  0  0  0  0  0  0  0
   22.6392   -9.8078  -14.3808 O   0  0  0  0  0  0  0  0  0  0  0  0
   21.5351   -8.6991  -16.0204 N   0  0  0  0  0  0  0  0  0  0  0  0
   21.8021   -7.4116  -15.4135 C   0  0  1  0  0  0  0  0  0  0  0  0
   21.3656   -6.3532  -16.4138 C   0  0  0  0  0  0  0  0  0  0  0  0
   21.6352   -4.9959  -15.7658 C   0  0  0  0  0  0  0  0  0  0  0  0
   21.2502   -3.9085  -16.7005 C   0  0  0  0  0  0  0  0  0  0  0  0
   21.3145   -4.1101  -17.9399 O   0  0  0  0  0  0  0  0  0  0  0  0
   20.9484   -7.2804  -14.1801 C   0  0  0  0  0  0  0  0  0  0  0  0
   21.3803   -6.5585  -13.0740 O   0  0  0  0  0  0  0  0  0  0  0  0
   20.8263   -2.6898  -16.2100 O   0  0  0  0  0  0  0  0  0  0  0  0
   19.8192   -7.8195  -14.1127 O   0  0  0  0  0  0  0  0  0  0  0  0
  1  2  1  0
  3  2  1  0
  4  5  1  0
  4  3  1  0
  5  1  1  0
  6 14  1  0
  5  6  1  1
  7  6  2  0
  8  9  1  0
  9 10  2  0
 11 12  1  0
 11  9  1  0
 13 14  1  0
 13 12  1  1
 15 13  1  0
 16 15  2  0
 17 15  1  0
 18 17  1  0
 18 19  1  6
 20 19  1  0
 20 21  1  0
 21 25  1  0
 21 22  2  0
 23 18  1  0
 23 24  1  0
 26 23  2  0
M  END
$$$$
