PQE.pdb
     RDKit          3D

 26 26  0  0  1  0  0  0  0  0999 V2000
   16.4874  -12.6554  -13.1482 N   0  0  0  0  0  0  0  0  0  0  0  0
   16.2190  -13.7044  -14.1443 C   0  0  0  0  0  0  0  0  0  0  0  0
   14.9826  -13.1349  -14.8186 C   0  0  0  0  0  0  0  0  0  0  0  0
   15.3454  -11.6584  -14.9154 C   0  0  0  0  0  0  0  0  0  0  0  0
   16.5006  -11.4753  -13.9784 C   0  0  1  0  0  0  0  0  0  0  0  0
   16.2985  -10.2351  -13.1824 C   0  0  0  0  0  0  0  0  0  0  0  0
   16.2605   -9.1286  -13.7739 O   0  0  0  0  0  0  0  0  0  0  0  0
   12.8258  -10.0412   -8.0935 N   0  0  0  0  0  0  0  0  0  0  0  0
   12.4869  -10.0382   -9.4641 C   0  0  0  0  0  0  0  0  0  0  0  0
   11.3074  -10.3624   -9.7496 O   0  0  0  0  0  0  0  0  0  0  0  0
   13.4399   -9.6795  -10.5417 C   0  0  0  0  0  0  0  0  0  0  0  0
   14.7965   -9.3444  -10.0728 C   0  0  0  0  0  0  0  0  0  0  0  0
   15.8388   -9.0131  -11.0759 C   0  0  2  0  0  0  0  0  0  0  0  0
   16.1453  -10.2392  -11.7771 N   0  0  0  0  0  0  0  0  0  0  0  0
   17.0696   -8.4341  -10.5667 C   0  0  0  0  0  0  0  0  0  0  0  0
   18.0938   -9.0748  -10.2142 O   0  0  0  0  0  0  0  0  0  0  0  0
   17.1585   -7.0230  -10.4429 N   0  0  0  0  0  0  0  0  0  0  0  0
   18.4112   -6.3434  -10.1862 C   0  0  1  0  0  0  0  0  0  0  0  0
   19.3003   -6.5850  -11.3955 C   0  0  0  0  0  0  0  0  0  0  0  0
   20.5081   -5.6607  -11.2470 C   0  0  0  0  0  0  0  0  0  0  0  0
   21.3572   -5.7458  -12.4619 C   0  0  0  0  0  0  0  0  0  0  0  0
   21.8691   -6.8493  -12.7796 O   0  0  0  0  0  0  0  0  0  0  0  0
   18.1392   -4.8659  -10.0842 C   0  0  0  0  0  0  0  0  0  0  0  0
   16.9429   -4.3174  -10.5304 O   0  0  0  0  0  0  0  0  0  0  0  0
   21.5801   -4.6224  -13.2325 O   0  0  0  0  0  0  0  0  0  0  0  0
   18.9854   -4.0832   -9.5925 O   0  0  0  0  0  0  0  0  0  0  0  0
  1  2  1  0
  3  2  1  0
  4  5  1  0
  4  3  1  0
  5  1  1  0
  6 14  1  0
  5  6  1  1
  7  6  2  0
  8  9  1  0
  9 10  2  0
 11 12  1  0
 11  9  1  0
 13 14  1  0
 13 12  1  1
 15 13  1  0
 16 15  2  0
 17 15  1  0
 18 17  1  0
 18 19  1  6
 20 19  1  0
 20 21  1  0
 21 25  1  0
 21 22  2  0
 23 18  1  0
 23 24  1  0
 26 23  2  0
M  END
$$$$
