PQE.pdb
     RDKit          3D

 26 26  0  0  1  0  0  0  0  0999 V2000
   19.8769  -30.5640  -10.7339 N   0  0  0  0  0  0  0  0  0  0  0  0
   19.4353  -29.2119  -11.1099 C   0  0  0  0  0  0  0  0  0  0  0  0
   20.3084  -28.3715  -10.1938 C   0  0  0  0  0  0  0  0  0  0  0  0
   21.6384  -29.1089  -10.2856 C   0  0  0  0  0  0  0  0  0  0  0  0
   21.3074  -30.4441  -10.8803 C   0  0  1  0  0  0  0  0  0  0  0  0
   22.0322  -31.5089  -10.1365 C   0  0  0  0  0  0  0  0  0  0  0  0
   21.4039  -32.2112   -9.3073 O   0  0  0  0  0  0  0  0  0  0  0  0
   26.8967  -34.2085   -7.3952 N   0  0  0  0  0  0  0  0  0  0  0  0
   27.0392  -33.9403   -8.7739 C   0  0  0  0  0  0  0  0  0  0  0  0
   28.0681  -33.3070   -9.1174 O   0  0  0  0  0  0  0  0  0  0  0  0
   26.0522  -34.3639   -9.7961 C   0  0  0  0  0  0  0  0  0  0  0  0
   25.2195  -33.2723  -10.3323 C   0  0  0  0  0  0  0  0  0  0  0  0
   24.0618  -32.7974   -9.5344 C   0  0  2  0  0  0  0  0  0  0  0  0
   23.4090  -31.7734  -10.3180 N   0  0  0  0  0  0  0  0  0  0  0  0
   24.3557  -32.2722   -8.2126 C   0  0  0  0  0  0  0  0  0  0  0  0
   24.7134  -31.0943   -7.9514 O   0  0  0  0  0  0  0  0  0  0  0  0
   24.2389  -33.1378   -7.0940 N   0  0  0  0  0  0  0  0  0  0  0  0
   24.5529  -32.7117   -5.7460 C   0  0  1  0  0  0  0  0  0  0  0  0
   23.2307  -32.5667   -5.0098 C   0  0  0  0  0  0  0  0  0  0  0  0
   22.5839  -33.9510   -4.9875 C   0  0  0  0  0  0  0  0  0  0  0  0
   21.3443  -33.9123   -4.1714 C   0  0  0  0  0  0  0  0  0  0  0  0
   21.3283  -33.2436   -3.1068 O   0  0  0  0  0  0  0  0  0  0  0  0
   25.3524  -33.7983   -5.0772 C   0  0  0  0  0  0  0  0  0  0  0  0
   25.4674  -35.0636   -5.6401 O   0  0  0  0  0  0  0  0  0  0  0  0
   20.2225  -34.6049   -4.5806 O   0  0  0  0  0  0  0  0  0  0  0  0
   25.9403  -33.5947   -3.9894 O   0  0  0  0  0  0  0  0  0  0  0  0
  1  2  1  0
  3  2  1  0
  4  5  1  0
  4  3  1  0
  5  1  1  0
  6 14  1  0
  5  6  1  1
  7  6  2  0
  8  9  1  0
  9 10  2  0
 11 12  1  0
 11  9  1  0
 13 14  1  0
 13 12  1  6
 15 13  1  0
 16 15  2  0
 17 15  1  0
 18 17  1  0
 18 19  1  1
 20 19  1  0
 20 21  1  0
 21 25  1  0
 21 22  2  0
 23 18  1  0
 23 24  1  0
 26 23  2  0
M  END
$$$$
