PQE.pdb
     RDKit          3D

 26 26  0  0  1  0  0  0  0  0999 V2000
   25.8361  -11.5564  -16.1288 N   0  0  0  0  0  0  0  0  0  0  0  0
   26.6726  -12.7148  -16.4795 C   0  0  0  0  0  0  0  0  0  0  0  0
   25.6844  -13.5328  -17.2931 C   0  0  0  0  0  0  0  0  0  0  0  0
   24.9938  -12.4468  -18.1084 C   0  0  0  0  0  0  0  0  0  0  0  0
   25.3461  -11.1595  -17.4267 C   0  0  1  0  0  0  0  0  0  0  0  0
   24.1314  -10.3071  -17.3239 C   0  0  0  0  0  0  0  0  0  0  0  0
   23.6107   -9.8561  -18.3731 O   0  0  0  0  0  0  0  0  0  0  0  0
   18.8580  -10.8414  -16.3583 N   0  0  0  0  0  0  0  0  0  0  0  0
   18.8542   -9.6718  -15.5676 C   0  0  0  0  0  0  0  0  0  0  0  0
   17.7386   -9.1249  -15.3827 O   0  0  0  0  0  0  0  0  0  0  0  0
   20.0770   -9.0851  -14.9688 C   0  0  0  0  0  0  0  0  0  0  0  0
   21.3225   -9.8042  -15.2918 C   0  0  0  0  0  0  0  0  0  0  0  0
   22.3796   -9.0965  -16.0561 C   0  0  2  0  0  0  0  0  0  0  0  0
   23.5266   -9.9751  -16.0900 N   0  0  0  0  0  0  0  0  0  0  0  0
   22.7879   -7.7979  -15.5499 C   0  0  0  0  0  0  0  0  0  0  0  0
   23.5317   -7.5963  -14.5550 O   0  0  0  0  0  0  0  0  0  0  0  0
   22.3246   -6.6317  -16.2131 N   0  0  0  0  0  0  0  0  0  0  0  0
   22.7245   -5.2991  -15.8112 C   0  0  1  0  0  0  0  0  0  0  0  0
   22.0243   -4.3272  -16.7475 C   0  0  0  0  0  0  0  0  0  0  0  0
   22.5275   -2.9295  -16.3891 C   0  0  0  0  0  0  0  0  0  0  0  0
   21.8774   -1.9225  -17.2652 C   0  0  0  0  0  0  0  0  0  0  0  0
   21.9871   -0.7013  -16.9868 O   0  0  0  0  0  0  0  0  0  0  0  0
   22.2255   -5.0538  -14.4119 C   0  0  0  0  0  0  0  0  0  0  0  0
   20.9654   -5.4780  -14.0077 O   0  0  0  0  0  0  0  0  0  0  0  0
   21.1605   -2.3267  -18.3734 O   0  0  0  0  0  0  0  0  0  0  0  0
   22.9329   -4.4580  -13.5664 O   0  0  0  0  0  0  0  0  0  0  0  0
  1  2  1  0
  3  2  1  0
  4  5  1  0
  4  3  1  0
  5  1  1  0
  6 14  1  0
  5  6  1  1
  7  6  2  0
  8  9  1  0
  9 10  2  0
 11 12  1  0
 11  9  1  0
 13 14  1  0
 13 12  1  1
 15 13  1  0
 16 15  2  0
 17 15  1  0
 18 17  1  0
 18 19  1  6
 20 19  1  0
 20 21  1  0
 21 25  1  0
 21 22  2  0
 23 18  1  0
 23 24  1  0
 26 23  2  0
M  END
$$$$
