PQE.pdb
     RDKit          3D

 26 26  0  0  1  0  0  0  0  0999 V2000
   25.4062  -13.0526  -15.6403 N   0  0  0  0  0  0  0  0  0  0  0  0
   26.2743  -14.1839  -16.0024 C   0  0  0  0  0  0  0  0  0  0  0  0
   25.6406  -14.6088  -17.3160 C   0  0  0  0  0  0  0  0  0  0  0  0
   25.3461  -13.2592  -17.9587 C   0  0  0  0  0  0  0  0  0  0  0  0
   25.4569  -12.2614  -16.8460 C   0  0  1  0  0  0  0  0  0  0  0  0
   24.3226  -11.3027  -16.9282 C   0  0  0  0  0  0  0  0  0  0  0  0
   24.2822  -10.4836  -17.8785 O   0  0  0  0  0  0  0  0  0  0  0  0
   18.4486  -12.4418  -15.4366 N   0  0  0  0  0  0  0  0  0  0  0  0
   19.1627  -12.6440  -16.6376 C   0  0  0  0  0  0  0  0  0  0  0  0
   18.6402  -13.4203  -17.4755 O   0  0  0  0  0  0  0  0  0  0  0  0
   20.4626  -11.9961  -16.9354 C   0  0  0  0  0  0  0  0  0  0  0  0
   20.9351  -11.0649  -15.8952 C   0  0  0  0  0  0  0  0  0  0  0  0
   22.1960  -10.3164  -16.1241 C   0  0  2  0  0  0  0  0  0  0  0  0
   23.2753  -11.2665  -15.9793 N   0  0  0  0  0  0  0  0  0  0  0  0
   22.4424   -9.1784  -15.2561 C   0  0  0  0  0  0  0  0  0  0  0  0
   22.9838   -9.2219  -14.1209 O   0  0  0  0  0  0  0  0  0  0  0  0
   22.0499   -7.8876  -15.6970 N   0  0  0  0  0  0  0  0  0  0  0  0
   22.2899   -6.6932  -14.9141 C   0  0  1  0  0  0  0  0  0  0  0  0
   21.9824   -5.5068  -15.8136 C   0  0  0  0  0  0  0  0  0  0  0  0
   22.2434   -4.2477  -14.9879 C   0  0  0  0  0  0  0  0  0  0  0  0
   21.8763   -3.0452  -15.7773 C   0  0  0  0  0  0  0  0  0  0  0  0
   21.2404   -2.1138  -15.2213 O   0  0  0  0  0  0  0  0  0  0  0  0
   21.3226   -6.6778  -13.7602 C   0  0  0  0  0  0  0  0  0  0  0  0
   20.0201   -7.1410  -13.9010 O   0  0  0  0  0  0  0  0  0  0  0  0
   22.2312   -2.9541  -17.1082 O   0  0  0  0  0  0  0  0  0  0  0  0
   21.6632   -6.2456  -12.6344 O   0  0  0  0  0  0  0  0  0  0  0  0
  1  2  1  0
  3  2  1  0
  4  5  1  0
  4  3  1  0
  5  1  1  0
  6 14  1  0
  5  6  1  1
  7  6  2  0
  8  9  1  0
  9 10  2  0
 11 12  1  0
 11  9  1  0
 13 14  1  0
 13 12  1  1
 15 13  1  0
 16 15  2  0
 17 15  1  0
 18 17  1  0
 18 19  1  6
 20 19  1  0
 20 21  1  0
 21 25  1  0
 21 22  2  0
 23 18  1  0
 23 24  1  0
 26 23  2  0
M  END
$$$$
