PQE.pdb
     RDKit          3D

 26 26  0  0  1  0  0  0  0  0999 V2000
   19.3098  -11.2225  -17.6864 N   0  0  0  0  0  0  0  0  0  0  0  0
   18.5527  -12.4839  -17.6743 C   0  0  0  0  0  0  0  0  0  0  0  0
   19.2936  -13.2403  -16.5850 C   0  0  0  0  0  0  0  0  0  0  0  0
   19.5232  -12.1396  -15.5569 C   0  0  0  0  0  0  0  0  0  0  0  0
   19.2714  -10.8575  -16.2909 C   0  0  1  0  0  0  0  0  0  0  0  0
   20.3330   -9.8745  -15.9454 C   0  0  0  0  0  0  0  0  0  0  0  0
   20.3961   -9.4297  -14.7734 O   0  0  0  0  0  0  0  0  0  0  0  0
   25.7591   -9.3220  -19.0229 N   0  0  0  0  0  0  0  0  0  0  0  0
   25.8151   -8.2649  -18.0886 C   0  0  0  0  0  0  0  0  0  0  0  0
   26.8968   -7.6295  -18.0267 O   0  0  0  0  0  0  0  0  0  0  0  0
   24.6828   -7.8908  -17.2077 C   0  0  0  0  0  0  0  0  0  0  0  0
   23.5034   -8.7677  -17.3209 C   0  0  0  0  0  0  0  0  0  0  0  0
   22.3209   -8.4900  -16.4683 C   0  0  2  0  0  0  0  0  0  0  0  0
   21.2857   -9.4103  -16.8810 N   0  0  0  0  0  0  0  0  0  0  0  0
   21.7977   -7.1357  -16.5047 C   0  0  0  0  0  0  0  0  0  0  0  0
   21.4372   -6.5133  -17.5373 O   0  0  0  0  0  0  0  0  0  0  0  0
   21.6684   -6.4222  -15.2846 N   0  0  0  0  0  0  0  0  0  0  0  0
   21.1356   -5.0770  -15.2242 C   0  0  1  0  0  0  0  0  0  0  0  0
   19.6475   -5.2041  -14.9401 C   0  0  0  0  0  0  0  0  0  0  0  0
   19.0896   -3.7834  -14.8660 C   0  0  0  0  0  0  0  0  0  0  0  0
   17.6089   -3.8305  -14.7684 C   0  0  0  0  0  0  0  0  0  0  0  0
   17.0243   -4.9431  -14.8034 O   0  0  0  0  0  0  0  0  0  0  0  0
   21.7806   -4.3608  -14.0673 C   0  0  0  0  0  0  0  0  0  0  0  0
   21.8109   -2.9731  -14.0008 O   0  0  0  0  0  0  0  0  0  0  0  0
   16.8846   -2.6623  -14.6407 O   0  0  0  0  0  0  0  0  0  0  0  0
   22.3115   -4.9957  -13.1263 O   0  0  0  0  0  0  0  0  0  0  0  0
  1  2  1  0
  3  2  1  0
  4  5  1  0
  4  3  1  0
  5  1  1  0
  6 14  1  0
  5  6  1  6
  7  6  2  0
  8  9  1  0
  9 10  2  0
 11 12  1  0
 11  9  1  0
 13 14  1  0
 13 12  1  6
 15 13  1  0
 16 15  2  0
 17 15  1  0
 18 17  1  0
 18 19  1  1
 20 19  1  0
 20 21  1  0
 21 25  1  0
 21 22  2  0
 23 18  1  0
 23 24  1  0
 26 23  2  0
M  END
$$$$
