PQE.pdb
     RDKit          3D

 26 26  0  0  1  0  0  0  0  0999 V2000
   18.5108  -11.3314  -17.2088 N   0  0  0  0  0  0  0  0  0  0  0  0
   17.6061  -12.4878  -17.1150 C   0  0  0  0  0  0  0  0  0  0  0  0
   18.1224  -13.1400  -15.8438 C   0  0  0  0  0  0  0  0  0  0  0  0
   18.3721  -11.9235  -14.9612 C   0  0  0  0  0  0  0  0  0  0  0  0
   18.3642  -10.7517  -15.8955 C   0  0  1  0  0  0  0  0  0  0  0  0
   19.4950   -9.8455  -15.5600 C   0  0  0  0  0  0  0  0  0  0  0  0
   19.4857   -9.2371  -14.4622 O   0  0  0  0  0  0  0  0  0  0  0  0
   25.1924  -10.0524  -18.2454 N   0  0  0  0  0  0  0  0  0  0  0  0
   25.2278   -8.8451  -17.5143 C   0  0  0  0  0  0  0  0  0  0  0  0
   26.3077   -8.2042  -17.5444 O   0  0  0  0  0  0  0  0  0  0  0  0
   24.0767   -8.3245  -16.7384 C   0  0  0  0  0  0  0  0  0  0  0  0
   22.8589   -9.1508  -16.8209 C   0  0  0  0  0  0  0  0  0  0  0  0
   21.6684   -8.7513  -16.0301 C   0  0  2  0  0  0  0  0  0  0  0  0
   20.5926   -9.6320  -16.4249 N   0  0  0  0  0  0  0  0  0  0  0  0
   21.2310   -7.3731  -16.1659 C   0  0  0  0  0  0  0  0  0  0  0  0
   20.6832   -6.8713  -17.1817 O   0  0  0  0  0  0  0  0  0  0  0  0
   21.4237   -6.4864  -15.0744 N   0  0  0  0  0  0  0  0  0  0  0  0
   21.0343   -5.0926  -15.1280 C   0  0  1  0  0  0  0  0  0  0  0  0
   19.5348   -5.0436  -14.8821 C   0  0  0  0  0  0  0  0  0  0  0  0
   19.1481   -3.5671  -14.8074 C   0  0  0  0  0  0  0  0  0  0  0  0
   17.6801   -3.4418  -14.6249 C   0  0  0  0  0  0  0  0  0  0  0  0
   17.1386   -2.3133  -14.7443 O   0  0  0  0  0  0  0  0  0  0  0  0
   21.7238   -4.3621  -14.0063 C   0  0  0  0  0  0  0  0  0  0  0  0
   21.8485   -2.9781  -14.0123 O   0  0  0  0  0  0  0  0  0  0  0  0
   16.9205   -4.5553  -14.3271 O   0  0  0  0  0  0  0  0  0  0  0  0
   22.2078   -4.9812  -13.0302 O   0  0  0  0  0  0  0  0  0  0  0  0
  1  2  1  0
  3  2  1  0
  4  5  1  0
  4  3  1  0
  5  1  1  0
  6 14  1  0
  5  6  1  1
  7  6  2  0
  8  9  1  0
  9 10  2  0
 11 12  1  0
 11  9  1  0
 13 14  1  0
 13 12  1  6
 15 13  1  0
 16 15  2  0
 17 15  1  0
 18 17  1  0
 18 19  1  1
 20 19  1  0
 20 21  1  0
 21 25  1  0
 21 22  2  0
 23 18  1  0
 23 24  1  0
 26 23  2  0
M  END
$$$$
