PQE.pdb
     RDKit          3D

 26 26  0  0  1  0  0  0  0  0999 V2000
   24.3927  -13.3136  -15.2289 N   0  0  0  0  0  0  0  0  0  0  0  0
   25.1934  -14.5106  -15.5301 C   0  0  0  0  0  0  0  0  0  0  0  0
   24.9007  -14.6729  -17.0119 C   0  0  0  0  0  0  0  0  0  0  0  0
   24.9481  -13.2265  -17.4884 C   0  0  0  0  0  0  0  0  0  0  0  0
   24.8612  -12.3990  -16.2419 C   0  0  1  0  0  0  0  0  0  0  0  0
   23.9087  -11.2774  -16.4596 C   0  0  0  0  0  0  0  0  0  0  0  0
   24.1650  -10.4201  -17.3399 O   0  0  0  0  0  0  0  0  0  0  0  0
   17.6778  -11.4910  -15.6499 N   0  0  0  0  0  0  0  0  0  0  0  0
   18.5070  -12.0217  -16.6618 C   0  0  0  0  0  0  0  0  0  0  0  0
   17.9860  -12.8754  -17.4218 O   0  0  0  0  0  0  0  0  0  0  0  0
   19.9219  -11.6224  -16.8532 C   0  0  0  0  0  0  0  0  0  0  0  0
   20.4202  -10.6437  -15.8701 C   0  0  0  0  0  0  0  0  0  0  0  0
   21.7797  -10.0767  -16.0509 C   0  0  2  0  0  0  0  0  0  0  0  0
   22.7155  -11.1261  -15.7168 N   0  0  0  0  0  0  0  0  0  0  0  0
   22.0967   -8.8900  -15.2759 C   0  0  0  0  0  0  0  0  0  0  0  0
   22.5567   -8.8770  -14.1046 O   0  0  0  0  0  0  0  0  0  0  0  0
   21.8803   -7.6156  -15.8618 N   0  0  0  0  0  0  0  0  0  0  0  0
   22.1365   -6.3802  -15.1509 C   0  0  1  0  0  0  0  0  0  0  0  0
   22.0801   -5.2604  -16.1776 C   0  0  0  0  0  0  0  0  0  0  0  0
   22.3657   -3.9598  -15.4279 C   0  0  0  0  0  0  0  0  0  0  0  0
   22.3422   -2.8183  -16.3769 C   0  0  0  0  0  0  0  0  0  0  0  0
   22.3312   -3.0454  -17.6135 O   0  0  0  0  0  0  0  0  0  0  0  0
   21.0291   -6.1664  -14.1533 C   0  0  0  0  0  0  0  0  0  0  0  0
   19.7303   -6.5876  -14.4119 O   0  0  0  0  0  0  0  0  0  0  0  0
   22.3325   -1.5220  -15.9027 O   0  0  0  0  0  0  0  0  0  0  0  0
   21.2449   -5.6006  -13.0563 O   0  0  0  0  0  0  0  0  0  0  0  0
  1  2  1  0
  3  2  1  0
  4  5  1  0
  4  3  1  0
  5  1  1  0
  6 14  1  0
  5  6  1  6
  7  6  2  0
  8  9  1  0
  9 10  2  0
 11 12  1  0
 11  9  1  0
 13 14  1  0
 13 12  1  1
 15 13  1  0
 16 15  2  0
 17 15  1  0
 18 17  1  0
 18 19  1  6
 20 19  1  0
 20 21  1  0
 21 25  1  0
 21 22  2  0
 23 18  1  0
 23 24  1  0
 26 23  2  0
M  END
$$$$
