PQE.pdb
     RDKit          3D

 26 26  0  0  1  0  0  0  0  0999 V2000
   24.0086  -20.3657  -16.2635 N   0  0  0  0  0  0  0  0  0  0  0  0
   25.1953  -19.9033  -17.0002 C   0  0  0  0  0  0  0  0  0  0  0  0
   25.2130  -18.4372  -16.6028 C   0  0  0  0  0  0  0  0  0  0  0  0
   24.8582  -18.5218  -15.1235 C   0  0  0  0  0  0  0  0  0  0  0  0
   24.3063  -19.9016  -14.9300 C   0  0  1  0  0  0  0  0  0  0  0  0
   23.0861  -19.8306  -14.0823 C   0  0  0  0  0  0  0  0  0  0  0  0
   23.1775  -19.3744  -12.9165 O   0  0  0  0  0  0  0  0  0  0  0  0
   20.7904  -17.5113  -16.0923 N   0  0  0  0  0  0  0  0  0  0  0  0
   20.0059  -17.1040  -14.9914 C   0  0  0  0  0  0  0  0  0  0  0  0
   19.8479  -15.8666  -14.8441 O   0  0  0  0  0  0  0  0  0  0  0  0
   19.3837  -18.0509  -14.0352 C   0  0  0  0  0  0  0  0  0  0  0  0
   19.6043  -19.4736  -14.3513 C   0  0  0  0  0  0  0  0  0  0  0  0
   20.6777  -20.2074  -13.6360 C   0  0  2  0  0  0  0  0  0  0  0  0
   21.8137  -20.2558  -14.5281 N   0  0  0  0  0  0  0  0  0  0  0  0
   20.3604  -21.5540  -13.1940 C   0  0  0  0  0  0  0  0  0  0  0  0
   20.5070  -22.6047  -13.8709 O   0  0  0  0  0  0  0  0  0  0  0  0
   19.8366  -21.7366  -11.8876 N   0  0  0  0  0  0  0  0  0  0  0  0
   19.5903  -23.0485  -11.3260 C   0  0  1  0  0  0  0  0  0  0  0  0
   19.5843  -22.8874   -9.8142 C   0  0  0  0  0  0  0  0  0  0  0  0
   19.3761  -24.2810   -9.2228 C   0  0  0  0  0  0  0  0  0  0  0  0
   19.1910  -24.1796   -7.7532 C   0  0  0  0  0  0  0  0  0  0  0  0
   18.4542  -23.2741   -7.2861 O   0  0  0  0  0  0  0  0  0  0  0  0
   18.2223  -23.5034  -11.7606 C   0  0  0  0  0  0  0  0  0  0  0  0
   17.9523  -24.8419  -12.0188 O   0  0  0  0  0  0  0  0  0  0  0  0
   19.8231  -25.0723   -6.9112 O   0  0  0  0  0  0  0  0  0  0  0  0
   17.2825  -22.6869  -11.9034 O   0  0  0  0  0  0  0  0  0  0  0  0
  1  2  1  0
  3  2  1  0
  4  5  1  0
  4  3  1  0
  5  1  1  0
  6 14  1  0
  5  6  1  1
  7  6  2  0
  8  9  1  0
  9 10  2  0
 11 12  1  0
 11  9  1  0
 13 14  1  0
 13 12  1  6
 15 13  1  0
 16 15  2  0
 17 15  1  0
 18 17  1  0
 18 19  1  1
 20 19  1  0
 20 21  1  0
 21 25  1  0
 21 22  2  0
 23 18  1  0
 23 24  1  0
 26 23  2  0
M  END
$$$$
