PQE.pdb
     RDKit          3D

 26 26  0  0  1  0  0  0  0  0999 V2000
   20.6043  -12.4328  -17.5999 N   0  0  0  0  0  0  0  0  0  0  0  0
   19.8835  -13.7005  -17.7949 C   0  0  0  0  0  0  0  0  0  0  0  0
   20.1234  -14.3642  -16.4496 C   0  0  0  0  0  0  0  0  0  0  0  0
   19.9470  -13.1878  -15.4977 C   0  0  0  0  0  0  0  0  0  0  0  0
   20.0252  -11.9668  -16.3631 C   0  0  1  0  0  0  0  0  0  0  0  0
   20.8804  -10.9461  -15.7002 C   0  0  0  0  0  0  0  0  0  0  0  0
   20.5339  -10.4904  -14.5832 O   0  0  0  0  0  0  0  0  0  0  0  0
   27.0558  -10.3581  -16.4709 N   0  0  0  0  0  0  0  0  0  0  0  0
   26.2969  -11.2717  -15.7076 C   0  0  0  0  0  0  0  0  0  0  0  0
   26.8952  -12.3028  -15.3118 O   0  0  0  0  0  0  0  0  0  0  0  0
   24.8683  -11.0660  -15.3685 C   0  0  0  0  0  0  0  0  0  0  0  0
   24.2976   -9.8005  -15.8640 C   0  0  0  0  0  0  0  0  0  0  0  0
   22.8792   -9.4877  -15.5597 C   0  0  2  0  0  0  0  0  0  0  0  0
   22.0779  -10.4575  -16.2711 N   0  0  0  0  0  0  0  0  0  0  0  0
   22.4220   -8.1511  -15.8973 C   0  0  0  0  0  0  0  0  0  0  0  0
   21.9920   -7.7821  -17.0210 O   0  0  0  0  0  0  0  0  0  0  0  0
   22.4494   -7.1478  -14.8938 N   0  0  0  0  0  0  0  0  0  0  0  0
   21.8751   -5.8335  -15.0937 C   0  0  1  0  0  0  0  0  0  0  0  0
   20.3842   -6.0324  -15.3149 C   0  0  0  0  0  0  0  0  0  0  0  0
   19.7572   -4.6401  -15.3731 C   0  0  0  0  0  0  0  0  0  0  0  0
   18.3095   -4.7544  -15.6817 C   0  0  0  0  0  0  0  0  0  0  0  0
   17.8263   -5.8811  -15.9611 O   0  0  0  0  0  0  0  0  0  0  0  0
   22.0657   -5.0337  -13.8322 C   0  0  0  0  0  0  0  0  0  0  0  0
   22.0140   -3.6451  -13.8406 O   0  0  0  0  0  0  0  0  0  0  0  0
   17.5051   -3.6328  -15.6612 O   0  0  0  0  0  0  0  0  0  0  0  0
   22.2773   -5.5970  -12.7331 O   0  0  0  0  0  0  0  0  0  0  0  0
  1  2  1  0
  3  2  1  0
  4  5  1  0
  4  3  1  0
  5  1  1  0
  6 14  1  0
  5  6  1  1
  7  6  2  0
  8  9  1  0
  9 10  2  0
 11 12  1  0
 11  9  1  0
 13 14  1  0
 13 12  1  6
 15 13  1  0
 16 15  2  0
 17 15  1  0
 18 17  1  0
 18 19  1  1
 20 19  1  0
 20 21  1  0
 21 25  1  0
 21 22  2  0
 23 18  1  0
 23 24  1  0
 26 23  2  0
M  END
$$$$
