LCV.pdb
     RDKit          3D

 22 21  0  0  1  0  0  0  0  0999 V2000
    9.6474  -13.0084   19.3882 C   0  0  0  0  0  0  0  0  0  0  0  0
    8.1963  -13.4922   19.4265 C   0  0  2  0  0  0  0  0  0  0  0  0
    7.3448  -12.2597   19.3720 C   0  0  0  0  0  0  0  0  0  0  0  0
    7.9515  -14.3474   20.6456 C   0  0  0  0  0  0  0  0  0  0  0  0
    8.8632  -15.5293   20.6201 C   0  0  2  0  0  0  0  0  0  0  0  0
    8.4806  -16.3999   19.5280 N   0  0  0  0  0  0  0  0  0  0  0  0
    8.8597  -16.2986   21.8748 C   0  0  0  0  0  0  0  0  0  0  0  0
    7.8590  -17.0018   22.1561 O   0  0  0  0  0  0  0  0  0  0  0  0
    9.9309  -16.2974   22.8028 N   0  0  0  0  0  0  0  0  0  0  0  0
    9.8175  -17.0402   24.0728 C   0  0  1  0  0  0  0  0  0  0  0  0
   10.4909  -18.3798   23.8535 C   0  0  0  0  0  0  0  0  0  0  0  0
   12.1572  -18.1802   23.2716 S   0  0  0  0  0  0  0  0  0  0  0  0
   10.3504  -16.2564   25.1796 C   0  0  0  0  0  0  0  0  0  0  0  0
   11.4003  -15.5518   24.9811 O   0  0  0  0  0  0  0  0  0  0  0  0
    9.0440  -13.4840   26.9864 C   0  0  0  0  0  0  0  0  0  0  0  0
    9.4052  -14.4453   28.0986 C   0  0  2  0  0  0  0  0  0  0  0  0
   10.0239  -13.6269   29.2080 C   0  0  0  0  0  0  0  0  0  0  0  0
   10.3607  -15.4639   27.5415 C   0  0  2  0  0  0  0  0  0  0  0  0
    9.7779  -16.2259   26.4542 N   0  0  0  0  0  0  0  0  0  0  0  0
   10.7637  -16.3653   28.6466 C   0  0  0  0  0  0  0  0  0  0  0  0
   11.4359  -15.9723   29.6261 O   0  0  0  0  0  0  0  0  0  0  0  0
   10.3734  -17.6931   28.5787 O   0  0  0  0  0  0  0  0  0  0  0  0
  2  1  1  1
  2  4  1  0
  3  2  1  0
  4  5  1  0
  5  6  1  6
  5  7  1  0
  7  9  1  0
  7  8  2  0
  9 10  1  0
 10 13  1  0
 10 11  1  6
 11 12  1  0
 13 14  2  0
 16 17  1  1
 16 18  1  0
 16 15  1  0
 18 19  1  6
 19 13  1  0
 20 22  1  0
 20 18  1  0
 21 20  2  0
M  END
$$$$
