LCV.pdb
     RDKit          3D

 22 21  0  0  1  0  0  0  0  0999 V2000
    7.0684  -12.7967   19.3819 C   0  0  0  0  0  0  0  0  0  0  0  0
    8.4510  -13.4519   19.3677 C   0  0  2  0  0  0  0  0  0  0  0  0
    9.4355  -12.3528   19.6317 C   0  0  0  0  0  0  0  0  0  0  0  0
    8.6838  -14.1772   18.0648 C   0  0  0  0  0  0  0  0  0  0  0  0
    9.8692  -15.0752   18.1960 C   0  0  2  0  0  0  0  0  0  0  0  0
   10.0422  -15.8155   16.9636 N   0  0  0  0  0  0  0  0  0  0  0  0
    9.7646  -16.0225   19.3176 C   0  0  0  0  0  0  0  0  0  0  0  0
    8.8763  -16.9084   19.2868 O   0  0  0  0  0  0  0  0  0  0  0  0
   10.6162  -15.9996   20.4503 N   0  0  0  0  0  0  0  0  0  0  0  0
   10.4464  -16.9905   21.5305 C   0  0  1  0  0  0  0  0  0  0  0  0
   11.5526  -18.0120   21.3599 C   0  0  0  0  0  0  0  0  0  0  0  0
   13.1511  -17.2379   21.3316 S   0  0  0  0  0  0  0  0  0  0  0  0
   10.4075  -16.3357   22.8316 C   0  0  0  0  0  0  0  0  0  0  0  0
   11.2627  -15.4162   23.0799 O   0  0  0  0  0  0  0  0  0  0  0  0
    7.0779  -16.4171   25.2590 C   0  0  0  0  0  0  0  0  0  0  0  0
    8.1405  -15.3506   25.4172 C   0  0  2  0  0  0  0  0  0  0  0  0
    7.7968  -14.2368   24.4557 C   0  0  0  0  0  0  0  0  0  0  0  0
    9.4745  -15.9741   25.1131 C   0  0  2  0  0  0  0  0  0  0  0  0
    9.4839  -16.6523   23.8316 N   0  0  0  0  0  0  0  0  0  0  0  0
    9.7939  -16.9253   26.2037 C   0  0  0  0  0  0  0  0  0  0  0  0
    9.8623  -18.1615   26.0216 O   0  0  0  0  0  0  0  0  0  0  0  0
   10.0234  -16.4109   27.4696 O   0  0  0  0  0  0  0  0  0  0  0  0
  2  1  1  6
  2  4  1  0
  3  2  1  0
  4  5  1  0
  5  6  1  6
  5  7  1  0
  7  9  1  0
  7  8  2  0
  9 10  1  0
 10 13  1  0
 10 11  1  1
 11 12  1  0
 13 14  2  0
 16 17  1  6
 16 18  1  0
 16 15  1  0
 18 19  1  6
 19 13  1  0
 20 22  1  0
 20 18  1  0
 21 20  2  0
M  END
$$$$
