LCV.pdb
     RDKit          3D

 22 21  0  0  1  0  0  0  0  0999 V2000
    7.2499  -12.3977   20.5666 C   0  0  0  0  0  0  0  0  0  0  0  0
    8.2272  -13.5673   20.7011 C   0  0  2  0  0  0  0  0  0  0  0  0
    9.5422  -13.0736   20.1775 C   0  0  0  0  0  0  0  0  0  0  0  0
    7.7037  -14.7851   19.9796 C   0  0  0  0  0  0  0  0  0  0  0  0
    8.5354  -15.9733   20.3334 C   0  0  2  0  0  0  0  0  0  0  0  0
    8.1448  -17.0909   19.4995 N   0  0  0  0  0  0  0  0  0  0  0  0
    8.4252  -16.3647   21.7480 C   0  0  0  0  0  0  0  0  0  0  0  0
    7.3039  -16.6963   22.2034 O   0  0  0  0  0  0  0  0  0  0  0  0
    9.5217  -16.3921   22.6456 N   0  0  0  0  0  0  0  0  0  0  0  0
    9.3401  -16.8709   24.0295 C   0  0  1  0  0  0  0  0  0  0  0  0
    9.7736  -18.3228   24.0465 C   0  0  0  0  0  0  0  0  0  0  0  0
   11.5059  -18.4864   23.6898 S   0  0  0  0  0  0  0  0  0  0  0  0
   10.0404  -16.0076   24.9715 C   0  0  0  0  0  0  0  0  0  0  0  0
   11.1315  -15.4521   24.5982 O   0  0  0  0  0  0  0  0  0  0  0  0
    8.2980  -14.1954   28.2572 C   0  0  0  0  0  0  0  0  0  0  0  0
    9.6268  -13.7469   27.6875 C   0  0  2  0  0  0  0  0  0  0  0  0
    9.3243  -12.7860   26.5613 C   0  0  0  0  0  0  0  0  0  0  0  0
   10.3650  -14.9674   27.2119 C   0  0  2  0  0  0  0  0  0  0  0  0
    9.5874  -15.7458   26.2675 N   0  0  0  0  0  0  0  0  0  0  0  0
   10.7070  -15.7863   28.3988 C   0  0  0  0  0  0  0  0  0  0  0  0
   11.4731  -15.3794   29.3007 O   0  0  0  0  0  0  0  0  0  0  0  0
   10.1487  -17.0505   28.5002 O   0  0  0  0  0  0  0  0  0  0  0  0
  2  1  1  6
  2  4  1  0
  3  2  1  0
  4  5  1  0
  5  6  1  6
  5  7  1  0
  7  9  1  0
  7  8  2  0
  9 10  1  0
 10 13  1  0
 10 11  1  6
 11 12  1  0
 13 14  2  0
 16 17  1  6
 16 18  1  0
 16 15  1  0
 18 19  1  6
 19 13  1  0
 20 22  1  0
 20 18  1  0
 21 20  2  0
M  END
$$$$
