LCV.pdb
     RDKit          3D

 22 21  0  0  1  0  0  0  0  0999 V2000
    9.9004  -13.3644   19.0459 C   0  0  0  0  0  0  0  0  0  0  0  0
    8.4158  -13.5663   18.7356 C   0  0  2  0  0  0  0  0  0  0  0  0
    7.8572  -12.2016   18.4663 C   0  0  0  0  0  0  0  0  0  0  0  0
    7.7289  -14.2926   19.8663 C   0  0  0  0  0  0  0  0  0  0  0  0
    8.4271  -15.5858   20.1287 C   0  0  2  0  0  0  0  0  0  0  0  0
    7.9408  -16.5844   19.1997 N   0  0  0  0  0  0  0  0  0  0  0  0
    8.2491  -16.0785   21.5042 C   0  0  0  0  0  0  0  0  0  0  0  0
    7.1161  -16.4781   21.8669 O   0  0  0  0  0  0  0  0  0  0  0  0
    9.2914  -16.1323   22.4630 N   0  0  0  0  0  0  0  0  0  0  0  0
    9.0136  -16.5792   23.8416 C   0  0  1  0  0  0  0  0  0  0  0  0
    9.9474  -17.7401   24.1177 C   0  0  0  0  0  0  0  0  0  0  0  0
    9.9857  -18.1443   25.8469 S   0  0  0  0  0  0  0  0  0  0  0  0
    9.1197  -15.4670   24.7770 C   0  0  0  0  0  0  0  0  0  0  0  0
   10.1900  -14.7649   24.7744 O   0  0  0  0  0  0  0  0  0  0  0  0
    6.2469  -12.9490   25.8875 C   0  0  0  0  0  0  0  0  0  0  0  0
    6.9745  -13.4769   27.1055 C   0  0  2  0  0  0  0  0  0  0  0  0
    7.1563  -12.3131   28.0518 C   0  0  0  0  0  0  0  0  0  0  0  0
    8.2874  -14.0515   26.6506 C   0  0  2  0  0  0  0  0  0  0  0  0
    8.1142  -15.1168   25.6823 N   0  0  0  0  0  0  0  0  0  0  0  0
    9.0065  -14.5515   27.8461 C   0  0  0  0  0  0  0  0  0  0  0  0
    9.0459  -15.7645   28.1508 O   0  0  0  0  0  0  0  0  0  0  0  0
    9.6561  -13.6275   28.6486 O   0  0  0  0  0  0  0  0  0  0  0  0
  2  1  1  1
  2  4  1  0
  3  2  1  0
  4  5  1  0
  5  6  1  6
  5  7  1  0
  7  9  1  0
  7  8  2  0
  9 10  1  0
 10 13  1  0
 10 11  1  1
 11 12  1  0
 13 14  2  0
 16 17  1  1
 16 18  1  0
 16 15  1  0
 18 19  1  6
 19 13  1  0
 20 22  1  0
 20 18  1  0
 21 20  2  0
M  END
$$$$
