LCV.pdb
     RDKit          3D

 22 21  0  0  1  0  0  0  0  0999 V2000
    9.3561  -13.3759   19.3171 C   0  0  0  0  0  0  0  0  0  0  0  0
    7.8513  -13.5221   19.5522 C   0  0  2  0  0  0  0  0  0  0  0  0
    7.2707  -12.1483   19.4012 C   0  0  0  0  0  0  0  0  0  0  0  0
    7.5805  -14.1526   20.8964 C   0  0  0  0  0  0  0  0  0  0  0  0
    8.1569  -15.5294   20.9294 C   0  0  2  0  0  0  0  0  0  0  0  0
    7.3246  -16.4111   20.1377 N   0  0  0  0  0  0  0  0  0  0  0  0
    8.2848  -16.0780   22.2892 C   0  0  0  0  0  0  0  0  0  0  0  0
    7.2471  -16.2795   22.9655 O   0  0  0  0  0  0  0  0  0  0  0  0
    9.5248  -16.3993   22.8957 N   0  0  0  0  0  0  0  0  0  0  0  0
    9.5644  -16.9507   24.2639 C   0  0  1  0  0  0  0  0  0  0  0  0
   10.2671  -18.2900   24.1716 C   0  0  0  0  0  0  0  0  0  0  0  0
    9.4269  -19.3874   23.0559 S   0  0  0  0  0  0  0  0  0  0  0  0
   10.1694  -15.9997   25.1874 C   0  0  0  0  0  0  0  0  0  0  0  0
   11.2162  -15.3649   24.8138 O   0  0  0  0  0  0  0  0  0  0  0  0
    8.2886  -14.1832   28.4688 C   0  0  0  0  0  0  0  0  0  0  0  0
    9.5556  -13.6855   27.8067 C   0  0  2  0  0  0  0  0  0  0  0  0
    9.1364  -12.8533   26.6172 C   0  0  0  0  0  0  0  0  0  0  0  0
   10.3719  -14.8826   27.4050 C   0  0  2  0  0  0  0  0  0  0  0  0
    9.6699  -15.7353   26.4656 N   0  0  0  0  0  0  0  0  0  0  0  0
   10.7119  -15.6376   28.6341 C   0  0  0  0  0  0  0  0  0  0  0  0
   10.2475  -16.7737   28.8776 O   0  0  0  0  0  0  0  0  0  0  0  0
   11.5796  -15.0493   29.5402 O   0  0  0  0  0  0  0  0  0  0  0  0
  2  1  1  1
  2  4  1  0
  3  2  1  0
  4  5  1  0
  5  6  1  6
  5  7  1  0
  7  9  1  0
  7  8  2  0
  9 10  1  0
 10 13  1  0
 10 11  1  6
 11 12  1  0
 13 14  2  0
 16 17  1  6
 16 18  1  0
 16 15  1  0
 18 19  1  6
 19 13  1  0
 20 22  1  0
 20 18  1  0
 21 20  2  0
M  END
$$$$
