LCV.pdb
     RDKit          3D

 22 21  0  0  1  0  0  0  0  0999 V2000
    9.5025  -13.6950   19.4283 C   0  0  0  0  0  0  0  0  0  0  0  0
    8.0994  -13.8356   18.8346 C   0  0  2  0  0  0  0  0  0  0  0  0
    7.7136  -12.4706   18.3498 C   0  0  0  0  0  0  0  0  0  0  0  0
    7.1453  -14.4120   19.8521 C   0  0  0  0  0  0  0  0  0  0  0  0
    7.6907  -15.6983   20.3782 C   0  0  2  0  0  0  0  0  0  0  0  0
    7.3179  -16.7731   19.4823 N   0  0  0  0  0  0  0  0  0  0  0  0
    7.2255  -16.0191   21.7372 C   0  0  0  0  0  0  0  0  0  0  0  0
    5.9930  -16.1163   21.9527 O   0  0  0  0  0  0  0  0  0  0  0  0
    8.0931  -16.2291   22.8380 N   0  0  0  0  0  0  0  0  0  0  0  0
    7.5578  -16.2649   24.2126 C   0  0  1  0  0  0  0  0  0  0  0  0
    7.6975  -17.6945   24.6953 C   0  0  0  0  0  0  0  0  0  0  0  0
    9.4036  -18.1500   24.8876 S   0  0  0  0  0  0  0  0  0  0  0  0
    8.2109  -15.2657   25.0482 C   0  0  0  0  0  0  0  0  0  0  0  0
    9.4487  -15.0115   24.8442 O   0  0  0  0  0  0  0  0  0  0  0  0
    6.1201  -12.7491   27.6692 C   0  0  0  0  0  0  0  0  0  0  0  0
    7.5066  -12.3806   27.1861 C   0  0  2  0  0  0  0  0  0  0  0  0
    7.3346  -11.5704   25.9222 C   0  0  0  0  0  0  0  0  0  0  0  0
    8.2698  -13.6539   26.9468 C   0  0  2  0  0  0  0  0  0  0  0  0
    7.5611  -14.5610   26.0653 N   0  0  0  0  0  0  0  0  0  0  0  0
    8.5132  -14.2947   28.2607 C   0  0  0  0  0  0  0  0  0  0  0  0
    7.9978  -15.3884   28.5832 O   0  0  0  0  0  0  0  0  0  0  0  0
    9.3467  -13.6454   29.1572 O   0  0  0  0  0  0  0  0  0  0  0  0
  2  1  1  1
  2  4  1  0
  3  2  1  0
  4  5  1  0
  5  6  1  6
  5  7  1  0
  7  9  1  0
  7  8  2  0
  9 10  1  0
 10 13  1  0
 10 11  1  1
 11 12  1  0
 13 14  2  0
 16 17  1  6
 16 18  1  0
 16 15  1  0
 18 19  1  6
 19 13  1  0
 20 22  1  0
 20 18  1  0
 21 20  2  0
M  END
$$$$
