LCV.pdb
     RDKit          3D

 22 21  0  0  1  0  0  0  0  0999 V2000
    2.0050  -18.8933   20.4238 C   0  0  0  0  0  0  0  0  0  0  0  0
    2.2039  -19.7408   21.6822 C   0  0  2  0  0  0  0  0  0  0  0  0
    1.0272  -19.4563   22.5662 C   0  0  0  0  0  0  0  0  0  0  0  0
    3.5352  -19.4367   22.3247 C   0  0  0  0  0  0  0  0  0  0  0  0
    4.6274  -19.6130   21.3224 C   0  0  2  0  0  0  0  0  0  0  0  0
    4.7293  -21.0148   20.9736 N   0  0  0  0  0  0  0  0  0  0  0  0
    5.9375  -19.1364   21.7943 C   0  0  0  0  0  0  0  0  0  0  0  0
    6.4639  -19.6875   22.7913 O   0  0  0  0  0  0  0  0  0  0  0  0
    6.6565  -18.0773   21.1860 N   0  0  0  0  0  0  0  0  0  0  0  0
    7.9612  -17.6535   21.7297 C   0  0  1  0  0  0  0  0  0  0  0  0
    8.8885  -17.4775   20.5442 C   0  0  0  0  0  0  0  0  0  0  0  0
   10.4419  -16.7701   21.0357 S   0  0  0  0  0  0  0  0  0  0  0  0
    7.8115  -16.4762   22.5751 C   0  0  0  0  0  0  0  0  0  0  0  0
    7.3130  -15.4143   22.0630 O   0  0  0  0  0  0  0  0  0  0  0  0
    7.5169  -15.9107   26.6208 C   0  0  0  0  0  0  0  0  0  0  0  0
    7.6954  -14.7643   25.6485 C   0  0  2  0  0  0  0  0  0  0  0  0
    6.3246  -14.4180   25.1155 C   0  0  0  0  0  0  0  0  0  0  0  0
    8.6313  -15.2168   24.5621 C   0  0  2  0  0  0  0  0  0  0  0  0
    8.1803  -16.4374   23.9226 N   0  0  0  0  0  0  0  0  0  0  0  0
    9.9707  -15.4135   25.1651 C   0  0  0  0  0  0  0  0  0  0  0  0
   10.4746  -16.5465   25.3331 O   0  0  0  0  0  0  0  0  0  0  0  0
   10.6813  -14.2891   25.5532 O   0  0  0  0  0  0  0  0  0  0  0  0
  2  1  1  6
  2  4  1  0
  3  2  1  0
  4  5  1  0
  5  6  1  1
  5  7  1  0
  7  9  1  0
  7  8  2  0
  9 10  1  0
 10 13  1  0
 10 11  1  6
 11 12  1  0
 13 14  2  0
 16 17  1  6
 16 18  1  0
 16 15  1  0
 18 19  1  1
 19 13  1  0
 20 22  1  0
 20 18  1  0
 21 20  2  0
M  END
$$$$
