LCV.pdb
     RDKit          3D

 22 21  0  0  1  0  0  0  0  0999 V2000
    8.2913  -14.6253   18.4407 C   0  0  0  0  0  0  0  0  0  0  0  0
    7.6014  -13.5866   19.3275 C   0  0  2  0  0  0  0  0  0  0  0  0
    7.4743  -12.3466   18.4949 C   0  0  0  0  0  0  0  0  0  0  0  0
    8.3728  -13.3828   20.6086 C   0  0  0  0  0  0  0  0  0  0  0  0
    8.3037  -14.6223   21.4379 C   0  0  2  0  0  0  0  0  0  0  0  0
    6.9714  -15.1818   21.3443 N   0  0  0  0  0  0  0  0  0  0  0  0
    8.6349  -14.3982   22.8543 C   0  0  0  0  0  0  0  0  0  0  0  0
    9.8029  -14.0567   23.1607 O   0  0  0  0  0  0  0  0  0  0  0  0
    7.7050  -14.5453   23.9137 N   0  0  0  0  0  0  0  0  0  0  0  0
    8.1162  -14.2878   25.3073 C   0  0  1  0  0  0  0  0  0  0  0  0
    7.0798  -13.3547   25.9000 C   0  0  0  0  0  0  0  0  0  0  0  0
    7.3934  -13.0466   27.6210 S   0  0  0  0  0  0  0  0  0  0  0  0
    8.3046  -15.5387   26.0305 C   0  0  0  0  0  0  0  0  0  0  0  0
    7.2993  -16.3169   26.1796 O   0  0  0  0  0  0  0  0  0  0  0  0
   11.9340  -17.5483   26.4188 C   0  0  0  0  0  0  0  0  0  0  0  0
   10.5586  -18.1684   26.5416 C   0  0  2  0  0  0  0  0  0  0  0  0
   10.0660  -18.4352   25.1382 C   0  0  0  0  0  0  0  0  0  0  0  0
    9.6761  -17.2009   27.2805 C   0  0  2  0  0  0  0  0  0  0  0  0
    9.5271  -15.9439   26.5733 N   0  0  0  0  0  0  0  0  0  0  0  0
   10.2682  -16.9733   28.6199 C   0  0  0  0  0  0  0  0  0  0  0  0
   10.7570  -15.8736   28.9630 O   0  0  0  0  0  0  0  0  0  0  0  0
   10.2736  -18.0292   29.5171 O   0  0  0  0  0  0  0  0  0  0  0  0
  2  1  1  6
  2  4  1  0
  3  2  1  0
  4  5  1  0
  5  6  1  1
  5  7  1  0
  7  9  1  0
  7  8  2  0
  9 10  1  0
 10 13  1  0
 10 11  1  1
 11 12  1  0
 13 14  2  0
 16 17  1  6
 16 18  1  0
 16 15  1  0
 18 19  1  6
 19 13  1  0
 20 22  1  0
 20 18  1  0
 21 20  2  0
M  END
$$$$
