LCV.pdb
     RDKit          3D

 22 21  0  0  1  0  0  0  0  0999 V2000
    7.2508  -12.4081   19.1687 C   0  0  0  0  0  0  0  0  0  0  0  0
    8.3073  -13.4378   19.5744 C   0  0  2  0  0  0  0  0  0  0  0  0
    9.6186  -12.7114   19.5742 C   0  0  0  0  0  0  0  0  0  0  0  0
    8.2722  -14.6301   18.6498 C   0  0  0  0  0  0  0  0  0  0  0  0
    8.9592  -15.7867   19.2972 C   0  0  2  0  0  0  0  0  0  0  0  0
    8.9079  -16.9277   18.4070 N   0  0  0  0  0  0  0  0  0  0  0  0
    8.3769  -16.1611   20.5961 C   0  0  0  0  0  0  0  0  0  0  0  0
    7.4803  -17.0385   20.6322 O   0  0  0  0  0  0  0  0  0  0  0  0
    8.7689  -15.5858   21.8306 N   0  0  0  0  0  0  0  0  0  0  0  0
    8.2349  -16.1126   23.1013 C   0  0  1  0  0  0  0  0  0  0  0  0
    8.7638  -17.5257   23.2414 C   0  0  0  0  0  0  0  0  0  0  0  0
   10.5253  -17.5389   23.4696 S   0  0  0  0  0  0  0  0  0  0  0  0
    8.5583  -15.2210   24.2075 C   0  0  0  0  0  0  0  0  0  0  0  0
    9.6517  -14.5573   24.1591 O   0  0  0  0  0  0  0  0  0  0  0  0
    6.1313  -12.6605   25.5082 C   0  0  0  0  0  0  0  0  0  0  0  0
    6.7409  -13.3034   26.7356 C   0  0  2  0  0  0  0  0  0  0  0  0
    7.0158  -12.1955   27.7257 C   0  0  0  0  0  0  0  0  0  0  0  0
    7.9968  -14.0144   26.3135 C   0  0  2  0  0  0  0  0  0  0  0  0
    7.7388  -15.0439   25.3256 N   0  0  0  0  0  0  0  0  0  0  0  0
    8.6177  -14.6030   27.5235 C   0  0  0  0  0  0  0  0  0  0  0  0
    8.5807  -15.8289   27.7718 O   0  0  0  0  0  0  0  0  0  0  0  0
    9.2611  -13.7498   28.4056 O   0  0  0  0  0  0  0  0  0  0  0  0
  2  1  1  6
  2  4  1  0
  3  2  1  0
  4  5  1  0
  5  6  1  6
  5  7  1  0
  7  9  1  0
  7  8  2  0
  9 10  1  0
 10 13  1  0
 10 11  1  1
 11 12  1  0
 13 14  2  0
 16 17  1  1
 16 18  1  0
 16 15  1  0
 18 19  1  6
 19 13  1  0
 20 22  1  0
 20 18  1  0
 21 20  2  0
M  END
$$$$
