LCV.pdb
     RDKit          3D

 22 21  0  0  1  0  0  0  0  0999 V2000
   13.2080  -19.6322   20.6503 C   0  0  0  0  0  0  0  0  0  0  0  0
   12.4211  -18.5058   19.9772 C   0  0  2  0  0  0  0  0  0  0  0  0
   13.4402  -17.6008   19.3533 C   0  0  0  0  0  0  0  0  0  0  0  0
   11.5222  -17.8146   20.9732 C   0  0  0  0  0  0  0  0  0  0  0  0
   10.5908  -18.8096   21.5826 C   0  0  2  0  0  0  0  0  0  0  0  0
    9.5921  -19.1858   20.6039 N   0  0  0  0  0  0  0  0  0  0  0  0
    9.9173  -18.3152   22.7943 C   0  0  0  0  0  0  0  0  0  0  0  0
    8.9438  -17.5324   22.6745 O   0  0  0  0  0  0  0  0  0  0  0  0
   10.3026  -18.6714   24.1109 N   0  0  0  0  0  0  0  0  0  0  0  0
    9.5506  -18.1580   25.2721 C   0  0  1  0  0  0  0  0  0  0  0  0
    8.9785  -19.3655   25.9867 C   0  0  0  0  0  0  0  0  0  0  0  0
   10.2621  -20.3667   26.6974 S   0  0  0  0  0  0  0  0  0  0  0  0
   10.3919  -17.2972   26.0935 C   0  0  0  0  0  0  0  0  0  0  0  0
   11.6608  -17.4597   26.0501 O   0  0  0  0  0  0  0  0  0  0  0  0
    8.9357  -14.1431   28.6719 C   0  0  0  0  0  0  0  0  0  0  0  0
   10.2753  -14.1067   27.9679 C   0  0  2  0  0  0  0  0  0  0  0  0
   10.0594  -13.4185   26.6401 C   0  0  0  0  0  0  0  0  0  0  0  0
   10.7537  -15.5227   27.8042 C   0  0  2  0  0  0  0  0  0  0  0  0
    9.8926  -16.2954   26.9303 N   0  0  0  0  0  0  0  0  0  0  0  0
   10.8156  -16.1426   29.1489 C   0  0  0  0  0  0  0  0  0  0  0  0
   10.0760  -17.0935   29.4877 O   0  0  0  0  0  0  0  0  0  0  0  0
   11.7338  -15.6389   30.0562 O   0  0  0  0  0  0  0  0  0  0  0  0
  2  1  1  1
  2  4  1  0
  3  2  1  0
  4  5  1  0
  5  6  1  6
  5  7  1  0
  7  9  1  0
  7  8  2  0
  9 10  1  0
 10 13  1  0
 10 11  1  1
 11 12  1  0
 13 14  2  0
 16 17  1  6
 16 18  1  0
 16 15  1  0
 18 19  1  6
 19 13  1  0
 20 22  1  0
 20 18  1  0
 21 20  2  0
M  END
$$$$
