LCV.pdb
     RDKit          3D

 22 21  0  0  1  0  0  0  0  0999 V2000
    9.6636  -13.1540   20.0152 C   0  0  0  0  0  0  0  0  0  0  0  0
    8.1865  -13.3752   19.6831 C   0  0  2  0  0  0  0  0  0  0  0  0
    7.5524  -12.0169   19.6791 C   0  0  0  0  0  0  0  0  0  0  0  0
    7.5583  -14.3370   20.6620 C   0  0  0  0  0  0  0  0  0  0  0  0
    8.3792  -15.5816   20.7387 C   0  0  2  0  0  0  0  0  0  0  0  0
    7.9031  -16.5255   19.7492 N   0  0  0  0  0  0  0  0  0  0  0  0
    8.3539  -16.2186   22.0653 C   0  0  0  0  0  0  0  0  0  0  0  0
    7.2471  -16.4987   22.5862 O   0  0  0  0  0  0  0  0  0  0  0  0
    9.5179  -16.5423   22.8062 N   0  0  0  0  0  0  0  0  0  0  0  0
    9.4049  -17.2062   24.1192 C   0  0  1  0  0  0  0  0  0  0  0  0
    9.9391  -18.6130   23.9414 C   0  0  0  0  0  0  0  0  0  0  0  0
    8.8947  -19.5727   22.8722 S   0  0  0  0  0  0  0  0  0  0  0  0
   10.0665  -16.4220   25.1540 C   0  0  0  0  0  0  0  0  0  0  0  0
   11.2414  -15.9702   24.9222 O   0  0  0  0  0  0  0  0  0  0  0  0
    8.8871  -13.3827   27.0321 C   0  0  0  0  0  0  0  0  0  0  0  0
    9.3434  -14.3650   28.0896 C   0  0  2  0  0  0  0  0  0  0  0  0
   10.1012  -13.5747   29.1309 C   0  0  0  0  0  0  0  0  0  0  0  0
   10.2052  -15.4006   27.4220 C   0  0  2  0  0  0  0  0  0  0  0  0
    9.4896  -16.1294   26.3928 N   0  0  0  0  0  0  0  0  0  0  0  0
   10.6959  -16.3298   28.4670 C   0  0  0  0  0  0  0  0  0  0  0  0
   10.2367  -17.4848   28.6118 O   0  0  0  0  0  0  0  0  0  0  0  0
   11.7033  -15.8882   29.3097 O   0  0  0  0  0  0  0  0  0  0  0  0
  2  1  1  1
  2  4  1  0
  3  2  1  0
  4  5  1  0
  5  6  1  6
  5  7  1  0
  7  9  1  0
  7  8  2  0
  9 10  1  0
 10 13  1  0
 10 11  1  6
 11 12  1  0
 13 14  2  0
 16 17  1  1
 16 18  1  0
 16 15  1  0
 18 19  1  6
 19 13  1  0
 20 22  1  0
 20 18  1  0
 21 20  2  0
M  END
$$$$
