LCV.pdb
     RDKit          3D

 22 21  0  0  1  0  0  0  0  0999 V2000
    9.4739  -13.3191   19.4442 C   0  0  0  0  0  0  0  0  0  0  0  0
    7.9555  -13.4472   19.5825 C   0  0  2  0  0  0  0  0  0  0  0  0
    7.4060  -12.0595   19.4428 C   0  0  0  0  0  0  0  0  0  0  0  0
    7.5935  -14.1165   20.8859 C   0  0  0  0  0  0  0  0  0  0  0  0
    8.1852  -15.4865   20.9270 C   0  0  2  0  0  0  0  0  0  0  0  0
    7.4058  -16.3654   20.0803 N   0  0  0  0  0  0  0  0  0  0  0  0
    8.2508  -16.0554   22.2828 C   0  0  0  0  0  0  0  0  0  0  0  0
    7.1830  -16.2728   22.9052 O   0  0  0  0  0  0  0  0  0  0  0  0
    9.4620  -16.3795   22.9436 N   0  0  0  0  0  0  0  0  0  0  0  0
    9.4411  -16.9079   24.3212 C   0  0  1  0  0  0  0  0  0  0  0  0
   10.0840  -18.2791   24.2695 C   0  0  0  0  0  0  0  0  0  0  0  0
   10.3637  -18.9259   25.9000 S   0  0  0  0  0  0  0  0  0  0  0  0
   10.0649  -15.9693   25.2447 C   0  0  0  0  0  0  0  0  0  0  0  0
   11.1893  -15.4493   24.9225 O   0  0  0  0  0  0  0  0  0  0  0  0
    8.0653  -14.2830   28.5423 C   0  0  0  0  0  0  0  0  0  0  0  0
    9.2536  -13.6123   27.8867 C   0  0  2  0  0  0  0  0  0  0  0  0
    8.7142  -12.7467   26.7718 C   0  0  0  0  0  0  0  0  0  0  0  0
   10.1731  -14.6879   27.3785 C   0  0  2  0  0  0  0  0  0  0  0  0
    9.5037  -15.5979   26.4696 N   0  0  0  0  0  0  0  0  0  0  0  0
   10.7055  -15.4249   28.5488 C   0  0  0  0  0  0  0  0  0  0  0  0
   11.4261  -14.8826   29.4163 O   0  0  0  0  0  0  0  0  0  0  0  0
   10.3842  -16.7669   28.6741 O   0  0  0  0  0  0  0  0  0  0  0  0
  2  1  1  1
  2  4  1  0
  3  2  1  0
  4  5  1  0
  5  6  1  6
  5  7  1  0
  7  9  1  0
  7  8  2  0
  9 10  1  0
 10 13  1  0
 10 11  1  6
 11 12  1  0
 13 14  2  0
 16 17  1  6
 16 18  1  0
 16 15  1  0
 18 19  1  6
 19 13  1  0
 20 22  1  0
 20 18  1  0
 21 20  2  0
M  END
$$$$
