LCV.pdb
     RDKit          3D

 22 21  0  0  1  0  0  0  0  0999 V2000
    6.7196  -12.3979   26.8728 C   0  0  0  0  0  0  0  0  0  0  0  0
    7.0896  -13.3771   25.7569 C   0  0  2  0  0  0  0  0  0  0  0  0
    7.4225  -12.5383   24.5601 C   0  0  0  0  0  0  0  0  0  0  0  0
    5.9701  -14.3608   25.5181 C   0  0  0  0  0  0  0  0  0  0  0  0
    6.3540  -15.3009   24.4237 C   0  0  2  0  0  0  0  0  0  0  0  0
    5.2941  -16.2697   24.2372 N   0  0  0  0  0  0  0  0  0  0  0  0
    7.6178  -16.0109   24.6785 C   0  0  0  0  0  0  0  0  0  0  0  0
    7.6942  -16.7859   25.6626 O   0  0  0  0  0  0  0  0  0  0  0  0
    8.7747  -15.8745   23.8713 N   0  0  0  0  0  0  0  0  0  0  0  0
   10.0024  -16.6264   24.1953 C   0  0  1  0  0  0  0  0  0  0  0  0
   10.8086  -16.7130   22.9152 C   0  0  0  0  0  0  0  0  0  0  0  0
   12.3484  -17.5594   23.1747 S   0  0  0  0  0  0  0  0  0  0  0  0
   10.6986  -16.0190   25.3221 C   0  0  0  0  0  0  0  0  0  0  0  0
   11.3256  -14.9192   25.1334 O   0  0  0  0  0  0  0  0  0  0  0  0
    9.4883  -15.4446   28.9110 C   0  0  0  0  0  0  0  0  0  0  0  0
   10.7994  -14.8916   28.3945 C   0  0  2  0  0  0  0  0  0  0  0  0
   10.4634  -13.7367   27.4799 C   0  0  0  0  0  0  0  0  0  0  0  0
   11.5195  -15.9977   27.6741 C   0  0  2  0  0  0  0  0  0  0  0  0
   10.7210  -16.5685   26.6070 N   0  0  0  0  0  0  0  0  0  0  0  0
   11.8718  -17.0379   28.6692 C   0  0  0  0  0  0  0  0  0  0  0  0
   12.6485  -16.8202   29.6259 O   0  0  0  0  0  0  0  0  0  0  0  0
   11.3113  -18.2964   28.5213 O   0  0  0  0  0  0  0  0  0  0  0  0
  2  1  1  1
  2  4  1  0
  3  2  1  0
  4  5  1  0
  5  6  1  1
  5  7  1  0
  7  9  1  0
  7  8  2  0
  9 10  1  0
 10 13  1  0
 10 11  1  6
 11 12  1  0
 13 14  2  0
 16 17  1  6
 16 18  1  0
 16 15  1  0
 18 19  1  6
 19 13  1  0
 20 22  1  0
 20 18  1  0
 21 20  2  0
M  END
$$$$
