LCV.pdb
     RDKit          3D

 22 21  0  0  1  0  0  0  0  0999 V2000
    9.5547  -12.6418   20.2679 C   0  0  0  0  0  0  0  0  0  0  0  0
    8.4925  -13.1583   19.2952 C   0  0  2  0  0  0  0  0  0  0  0  0
    7.4581  -12.0780   19.1958 C   0  0  0  0  0  0  0  0  0  0  0  0
    7.9437  -14.4850   19.7606 C   0  0  0  0  0  0  0  0  0  0  0  0
    9.0701  -15.3863   20.1449 C   0  0  2  0  0  0  0  0  0  0  0  0
    9.2572  -16.3800   19.1085 N   0  0  0  0  0  0  0  0  0  0  0  0
    8.8623  -16.0660   21.4338 C   0  0  0  0  0  0  0  0  0  0  0  0
    7.8292  -16.7593   21.5979 O   0  0  0  0  0  0  0  0  0  0  0  0
    9.7681  -15.9877   22.5209 N   0  0  0  0  0  0  0  0  0  0  0  0
    9.4929  -16.7163   23.7743 C   0  0  1  0  0  0  0  0  0  0  0  0
    9.7521  -18.1819   23.4899 C   0  0  0  0  0  0  0  0  0  0  0  0
   11.4343  -18.4579   22.9911 S   0  0  0  0  0  0  0  0  0  0  0  0
   10.2632  -16.1570   24.8775 C   0  0  0  0  0  0  0  0  0  0  0  0
   11.4756  -15.8077   24.6623 O   0  0  0  0  0  0  0  0  0  0  0  0
   10.7783  -13.6568   28.9229 C   0  0  0  0  0  0  0  0  0  0  0  0
   10.0580  -14.0475   27.6501 C   0  0  2  0  0  0  0  0  0  0  0  0
    8.5789  -14.0429   27.9588 C   0  0  0  0  0  0  0  0  0  0  0  0
   10.5491  -15.4070   27.2359 C   0  0  2  0  0  0  0  0  0  0  0  0
    9.7528  -15.9755   26.1658 N   0  0  0  0  0  0  0  0  0  0  0  0
   10.5172  -16.2872   28.4277 C   0  0  0  0  0  0  0  0  0  0  0  0
    9.6884  -17.2157   28.5582 O   0  0  0  0  0  0  0  0  0  0  0  0
   11.4480  -16.0612   29.4289 O   0  0  0  0  0  0  0  0  0  0  0  0
  2  1  1  1
  2  4  1  0
  3  2  1  0
  4  5  1  0
  5  6  1  6
  5  7  1  0
  7  9  1  0
  7  8  2  0
  9 10  1  0
 10 13  1  0
 10 11  1  6
 11 12  1  0
 13 14  2  0
 16 17  1  1
 16 18  1  0
 16 15  1  0
 18 19  1  6
 19 13  1  0
 20 22  1  0
 20 18  1  0
 21 20  2  0
M  END
$$$$
