LCV.pdb
     RDKit          3D

 22 21  0  0  1  0  0  0  0  0999 V2000
    7.3558  -13.2597   18.2379 C   0  0  0  0  0  0  0  0  0  0  0  0
    7.8678  -13.6245   19.6329 C   0  0  2  0  0  0  0  0  0  0  0  0
    8.0460  -12.3278   20.3635 C   0  0  0  0  0  0  0  0  0  0  0  0
    9.1288  -14.4485   19.5394 C   0  0  0  0  0  0  0  0  0  0  0  0
    8.8099  -15.8838   19.7978 C   0  0  2  0  0  0  0  0  0  0  0  0
    7.9422  -16.3736   18.7471 N   0  0  0  0  0  0  0  0  0  0  0  0
    8.1675  -16.1151   21.1017 C   0  0  0  0  0  0  0  0  0  0  0  0
    6.9167  -16.1999   21.1586 O   0  0  0  0  0  0  0  0  0  0  0  0
    8.8810  -16.2508   22.3187 N   0  0  0  0  0  0  0  0  0  0  0  0
    8.1560  -16.4168   23.5931 C   0  0  1  0  0  0  0  0  0  0  0  0
    8.3212  -17.8670   24.0003 C   0  0  0  0  0  0  0  0  0  0  0  0
    7.5644  -18.1886   25.5748 S   0  0  0  0  0  0  0  0  0  0  0  0
    8.6119  -15.4444   24.5780 C   0  0  0  0  0  0  0  0  0  0  0  0
    9.8688  -15.2295   24.6897 O   0  0  0  0  0  0  0  0  0  0  0  0
    5.9562  -13.2216   27.0266 C   0  0  0  0  0  0  0  0  0  0  0  0
    7.3112  -12.6578   26.6559 C   0  0  2  0  0  0  0  0  0  0  0  0
    7.1174  -11.8190   25.4141 C   0  0  0  0  0  0  0  0  0  0  0  0
    8.2475  -13.8112   26.4236 C   0  0  2  0  0  0  0  0  0  0  0  0
    7.7522  -14.7251   25.4127 N   0  0  0  0  0  0  0  0  0  0  0  0
    8.4315  -14.5176   27.7133 C   0  0  0  0  0  0  0  0  0  0  0  0
    8.0106  -15.6792   27.9119 O   0  0  0  0  0  0  0  0  0  0  0  0
    9.0979  -13.8529   28.7302 O   0  0  0  0  0  0  0  0  0  0  0  0
  2  1  1  6
  2  4  1  0
  3  2  1  0
  4  5  1  0
  5  6  1  6
  5  7  1  0
  7  9  1  0
  7  8  2  0
  9 10  1  0
 10 13  1  0
 10 11  1  1
 11 12  1  0
 13 14  2  0
 16 17  1  6
 16 18  1  0
 16 15  1  0
 18 19  1  6
 19 13  1  0
 20 22  1  0
 20 18  1  0
 21 20  2  0
M  END
$$$$
