LCV.pdb
     RDKit          3D

 22 21  0  0  1  0  0  0  0  0999 V2000
    9.2612  -13.6466   19.7782 C   0  0  0  0  0  0  0  0  0  0  0  0
    7.8036  -13.7067   19.3166 C   0  0  2  0  0  0  0  0  0  0  0  0
    7.4410  -12.3133   18.8996 C   0  0  0  0  0  0  0  0  0  0  0  0
    6.9217  -14.2644   20.4070 C   0  0  0  0  0  0  0  0  0  0  0  0
    7.4277  -15.6056   20.8240 C   0  0  2  0  0  0  0  0  0  0  0  0
    6.8611  -16.6170   19.9563 N   0  0  0  0  0  0  0  0  0  0  0  0
    7.1159  -15.9398   22.2230 C   0  0  0  0  0  0  0  0  0  0  0  0
    5.9331  -16.2210   22.5337 O   0  0  0  0  0  0  0  0  0  0  0  0
    8.0808  -15.9653   23.2608 N   0  0  0  0  0  0  0  0  0  0  0  0
    7.6945  -16.3647   24.6279 C   0  0  1  0  0  0  0  0  0  0  0  0
    7.1399  -17.7713   24.5284 C   0  0  0  0  0  0  0  0  0  0  0  0
    8.4149  -18.9448   24.1383 S   0  0  0  0  0  0  0  0  0  0  0  0
    8.8131  -16.2069   25.5483 C   0  0  0  0  0  0  0  0  0  0  0  0
    9.9987  -16.4121   25.1118 O   0  0  0  0  0  0  0  0  0  0  0  0
    9.0081  -13.2167   27.8998 C   0  0  0  0  0  0  0  0  0  0  0  0
    9.5063  -14.4058   28.6931 C   0  0  2  0  0  0  0  0  0  0  0  0
   10.7361  -13.9529   29.4451 C   0  0  0  0  0  0  0  0  0  0  0  0
    9.8071  -15.5173   27.7261 C   0  0  2  0  0  0  0  0  0  0  0  0
    8.6680  -15.8397   26.8890 N   0  0  0  0  0  0  0  0  0  0  0  0
   10.2254  -16.7039   28.5092 C   0  0  0  0  0  0  0  0  0  0  0  0
    9.5259  -17.7383   28.5913 O   0  0  0  0  0  0  0  0  0  0  0  0
   11.4415  -16.6512   29.1712 O   0  0  0  0  0  0  0  0  0  0  0  0
  2  1  1  1
  2  4  1  0
  3  2  1  0
  4  5  1  0
  5  6  1  6
  5  7  1  0
  7  9  1  0
  7  8  2  0
  9 10  1  0
 10 13  1  0
 10 11  1  6
 11 12  1  0
 13 14  2  0
 16 17  1  6
 16 18  1  0
 16 15  1  0
 18 19  1  1
 19 13  1  0
 20 22  1  0
 20 18  1  0
 21 20  2  0
M  END
$$$$
