LCV.pdb
     RDKit          3D

 22 21  0  0  1  0  0  0  0  0999 V2000
    9.5365  -13.8030   19.2796 C   0  0  0  0  0  0  0  0  0  0  0  0
    8.1003  -13.8219   18.7525 C   0  0  2  0  0  0  0  0  0  0  0  0
    7.8140  -12.4306   18.2735 C   0  0  0  0  0  0  0  0  0  0  0  0
    7.1476  -14.3066   19.8180 C   0  0  0  0  0  0  0  0  0  0  0  0
    7.5671  -15.6604   20.2872 C   0  0  2  0  0  0  0  0  0  0  0  0
    7.0145  -16.6622   19.3997 N   0  0  0  0  0  0  0  0  0  0  0  0
    7.1516  -15.9562   21.6678 C   0  0  0  0  0  0  0  0  0  0  0  0
    5.9272  -16.0211   21.9354 O   0  0  0  0  0  0  0  0  0  0  0  0
    8.0592  -16.1765   22.7338 N   0  0  0  0  0  0  0  0  0  0  0  0
    7.5654  -16.3053   24.1184 C   0  0  1  0  0  0  0  0  0  0  0  0
    7.7893  -17.7474   24.5263 C   0  0  0  0  0  0  0  0  0  0  0  0
    7.5664  -17.9687   26.2745 S   0  0  0  0  0  0  0  0  0  0  0  0
    8.1918  -15.3154   24.9850 C   0  0  0  0  0  0  0  0  0  0  0  0
    9.4521  -15.1184   24.8783 O   0  0  0  0  0  0  0  0  0  0  0  0
    6.0506  -13.0979   27.9217 C   0  0  0  0  0  0  0  0  0  0  0  0
    7.2527  -12.4933   27.2282 C   0  0  2  0  0  0  0  0  0  0  0  0
    6.7333  -11.7034   26.0495 C   0  0  0  0  0  0  0  0  0  0  0  0
    8.1598  -13.6158   26.8062 C   0  0  2  0  0  0  0  0  0  0  0  0
    7.4933  -14.5606   25.9313 N   0  0  0  0  0  0  0  0  0  0  0  0
    8.6437  -14.2973   28.0300 C   0  0  0  0  0  0  0  0  0  0  0  0
    8.3398  -15.4787   28.3088 O   0  0  0  0  0  0  0  0  0  0  0  0
    9.4643  -13.5854   28.8902 O   0  0  0  0  0  0  0  0  0  0  0  0
  2  1  1  1
  2  4  1  0
  3  2  1  0
  4  5  1  0
  5  6  1  6
  5  7  1  0
  7  9  1  0
  7  8  2  0
  9 10  1  0
 10 13  1  0
 10 11  1  1
 11 12  1  0
 13 14  2  0
 16 17  1  6
 16 18  1  0
 16 15  1  0
 18 19  1  6
 19 13  1  0
 20 22  1  0
 20 18  1  0
 21 20  2  0
M  END
$$$$
