GKE.pdb
     RDKit          3D

 23 22  0  0  1  0  0  0  0  0999 V2000
   27.8829  -18.0559  -16.7224 N   0  0  0  0  0  0  0  0  0  0  0  0
   27.1881  -17.8815  -15.4632 C   0  0  0  0  0  0  0  0  0  0  0  0
   26.0801  -18.8940  -15.3570 C   0  0  0  0  0  0  0  0  0  0  0  0
   25.3526  -19.1012  -16.3420 O   0  0  0  0  0  0  0  0  0  0  0  0
   25.8516  -19.6133  -14.1579 N   0  0  0  0  0  0  0  0  0  0  0  0
   24.8233  -20.6255  -14.0615 C   0  0  1  0  0  0  0  0  0  0  0  0
   25.1503  -21.6346  -12.9585 C   0  0  0  0  0  0  0  0  0  0  0  0
   24.2895  -22.8627  -13.0860 C   0  0  0  0  0  0  0  0  0  0  0  0
   24.6688  -23.7619  -14.2062 C   0  0  0  0  0  0  0  0  0  0  0  0
   23.7804  -24.9686  -14.2684 C   0  0  0  0  0  0  0  0  0  0  0  0
   24.1824  -25.8566  -15.3692 N   0  0  0  0  0  0  0  0  0  0  0  0
   23.5254  -19.9713  -13.8207 C   0  0  0  0  0  0  0  0  0  0  0  0
   23.3874  -19.2233  -12.8139 O   0  0  0  0  0  0  0  0  0  0  0  0
   22.3957  -20.1166  -14.6450 N   0  0  0  0  0  0  0  0  0  0  0  0
   21.1228  -19.3930  -14.4288 C   0  0  1  0  0  0  0  0  0  0  0  0
   20.7230  -18.7000  -15.6644 C   0  0  0  0  0  0  0  0  0  0  0  0
   19.4829  -17.8999  -15.5736 C   0  0  0  0  0  0  0  0  0  0  0  0
   19.0173  -17.2692  -16.8270 C   0  0  0  0  0  0  0  0  0  0  0  0
   19.3019  -16.0986  -17.1999 O   0  0  0  0  0  0  0  0  0  0  0  0
   20.1174  -20.2162  -13.7931 C   0  0  0  0  0  0  0  0  0  0  0  0
   20.0337  -21.4738  -13.8636 O   0  0  0  0  0  0  0  0  0  0  0  0
   18.1998  -18.0159  -17.6700 O   0  0  0  0  0  0  0  0  0  0  0  0
   19.1428  -19.5320  -13.0232 O   0  0  0  0  0  0  0  0  0  0  0  0
  2  1  1  0
  2  3  1  0
  3  4  2  0
  5  3  1  0
  5  6  1  0
  6  7  1  1
  8  7  1  0
  9  8  1  0
  9 10  1  0
 10 11  1  0
 12  6  1  0
 12 14  1  0
 13 12  2  0
 15 14  1  0
 15 16  1  6
 16 17  1  0
 17 18  1  0
 18 22  1  0
 19 18  2  0
 20 23  1  0
 20 15  1  0
 21 20  2  0
M  END
$$$$
