GKE.pdb
     RDKit          3D

 23 22  0  0  1  0  0  0  0  0999 V2000
   18.3897  -14.3941  -15.4620 N   0  0  0  0  0  0  0  0  0  0  0  0
   18.4819  -13.3378  -16.4492 C   0  0  0  0  0  0  0  0  0  0  0  0
   19.4853  -12.3125  -15.9948 C   0  0  0  0  0  0  0  0  0  0  0  0
   19.2009  -11.5673  -15.0429 O   0  0  0  0  0  0  0  0  0  0  0  0
   20.7446  -12.1816  -16.6308 N   0  0  0  0  0  0  0  0  0  0  0  0
   21.7073  -11.1856  -16.2154 C   0  0  1  0  0  0  0  0  0  0  0  0
   23.1239  -11.5859  -16.6334 C   0  0  0  0  0  0  0  0  0  0  0  0
   23.6857  -12.6195  -15.6943 C   0  0  0  0  0  0  0  0  0  0  0  0
   25.0071  -13.1625  -16.1022 C   0  0  0  0  0  0  0  0  0  0  0  0
   25.5337  -14.1425  -15.0963 C   0  0  0  0  0  0  0  0  0  0  0  0
   26.7493  -14.8014  -15.5963 N   0  0  0  0  0  0  0  0  0  0  0  0
   21.3285   -9.8822  -16.7884 C   0  0  0  0  0  0  0  0  0  0  0  0
   21.1262   -9.7880  -18.0303 O   0  0  0  0  0  0  0  0  0  0  0  0
   21.1693   -8.7010  -16.0427 N   0  0  0  0  0  0  0  0  0  0  0  0
   20.7249   -7.4152  -16.6258 C   0  0  1  0  0  0  0  0  0  0  0  0
   19.7610   -6.7619  -15.7253 C   0  0  0  0  0  0  0  0  0  0  0  0
   19.2601   -5.4454  -16.1748 C   0  0  0  0  0  0  0  0  0  0  0  0
   18.4020   -4.7108  -15.2212 C   0  0  0  0  0  0  0  0  0  0  0  0
   18.1028   -5.1052  -14.0613 O   0  0  0  0  0  0  0  0  0  0  0  0
   21.8297   -6.6051  -17.0905 C   0  0  0  0  0  0  0  0  0  0  0  0
   21.8120   -5.8222  -18.0805 O   0  0  0  0  0  0  0  0  0  0  0  0
   17.8768   -3.4866  -15.6235 O   0  0  0  0  0  0  0  0  0  0  0  0
   23.0372   -6.7118  -16.3548 O   0  0  0  0  0  0  0  0  0  0  0  0
  2  1  1  0
  2  3  1  0
  3  4  2  0
  5  3  1  0
  5  6  1  0
  6  7  1  6
  8  7  1  0
  9  8  1  0
  9 10  1  0
 10 11  1  0
 12  6  1  0
 12 14  1  0
 13 12  2  0
 15 14  1  0
 15 16  1  1
 16 17  1  0
 17 18  1  0
 18 22  1  0
 19 18  2  0
 20 23  1  0
 20 15  1  0
 21 20  2  0
M  END
$$$$
