GKE.pdb
     RDKit          3D

 23 22  0  0  1  0  0  0  0  0999 V2000
   16.3253   -9.8700  -17.8235 N   0  0  0  0  0  0  0  0  0  0  0  0
   16.8218   -8.5552  -17.4717 C   0  0  0  0  0  0  0  0  0  0  0  0
   18.0555   -8.6956  -16.6217 C   0  0  0  0  0  0  0  0  0  0  0  0
   17.9855   -8.4469  -15.4070 O   0  0  0  0  0  0  0  0  0  0  0  0
   19.2920   -9.1049  -17.1795 N   0  0  0  0  0  0  0  0  0  0  0  0
   20.4986   -9.1769  -16.3856 C   0  0  1  0  0  0  0  0  0  0  0  0
   21.5419  -10.0737  -17.0557 C   0  0  0  0  0  0  0  0  0  0  0  0
   20.9939  -11.4584  -17.2751 C   0  0  0  0  0  0  0  0  0  0  0  0
   21.9423  -12.3945  -17.9321 C   0  0  0  0  0  0  0  0  0  0  0  0
   21.2958  -13.7149  -18.2287 C   0  0  0  0  0  0  0  0  0  0  0  0
   22.2537  -14.6352  -18.8589 N   0  0  0  0  0  0  0  0  0  0  0  0
   21.0189   -7.8144  -16.1768 C   0  0  0  0  0  0  0  0  0  0  0  0
   21.1248   -7.0351  -17.1635 O   0  0  0  0  0  0  0  0  0  0  0  0
   21.4185   -7.2970  -14.9321 N   0  0  0  0  0  0  0  0  0  0  0  0
   21.8020   -5.8841  -14.7148 C   0  0  1  0  0  0  0  0  0  0  0  0
   20.7651   -4.9928  -15.2601 C   0  0  0  0  0  0  0  0  0  0  0  0
   20.9477   -3.5535  -14.9749 C   0  0  0  0  0  0  0  0  0  0  0  0
   19.8309   -2.6634  -15.3573 C   0  0  0  0  0  0  0  0  0  0  0  0
   18.8676   -2.9871  -16.1040 O   0  0  0  0  0  0  0  0  0  0  0  0
   22.2285   -5.6273  -13.3566 C   0  0  0  0  0  0  0  0  0  0  0  0
   22.8985   -4.6321  -12.9639 O   0  0  0  0  0  0  0  0  0  0  0  0
   19.8317   -1.3635  -14.8606 O   0  0  0  0  0  0  0  0  0  0  0  0
   21.8510   -6.5923  -12.3886 O   0  0  0  0  0  0  0  0  0  0  0  0
  2  1  1  0
  2  3  1  0
  3  4  2  0
  5  3  1  0
  5  6  1  0
  6  7  1  6
  8  7  1  0
  9  8  1  0
  9 10  1  0
 10 11  1  0
 12  6  1  0
 12 14  1  0
 13 12  2  0
 15 14  1  0
 15 16  1  1
 16 17  1  0
 17 18  1  0
 18 22  1  0
 19 18  2  0
 20 23  1  0
 20 15  1  0
 21 20  2  0
M  END
$$$$
