GKE.pdb
     RDKit          3D

 23 22  0  0  1  0  0  0  0  0999 V2000
   22.4711  -11.9163  -19.8306 N   0  0  0  0  0  0  0  0  0  0  0  0
   22.9844  -11.2963  -18.6260 C   0  0  0  0  0  0  0  0  0  0  0  0
   21.9978  -10.2753  -18.1275 C   0  0  0  0  0  0  0  0  0  0  0  0
   21.7542   -9.2774  -18.8255 O   0  0  0  0  0  0  0  0  0  0  0  0
   21.3434  -10.4305  -16.8805 N   0  0  0  0  0  0  0  0  0  0  0  0
   20.3794   -9.4650  -16.4013 C   0  0  1  0  0  0  0  0  0  0  0  0
   19.4803  -10.0772  -15.3249 C   0  0  0  0  0  0  0  0  0  0  0  0
   18.4370  -10.9681  -15.9439 C   0  0  0  0  0  0  0  0  0  0  0  0
   17.6477  -11.7581  -14.9639 C   0  0  0  0  0  0  0  0  0  0  0  0
   16.5606  -12.5420  -15.6370 C   0  0  0  0  0  0  0  0  0  0  0  0
   15.8770  -13.4189  -14.6748 N   0  0  0  0  0  0  0  0  0  0  0  0
   21.0954   -8.2825  -15.8916 C   0  0  0  0  0  0  0  0  0  0  0  0
   22.0870   -8.4419  -15.1277 O   0  0  0  0  0  0  0  0  0  0  0  0
   20.7541   -6.9530  -16.1956 N   0  0  0  0  0  0  0  0  0  0  0  0
   21.4627   -5.7764  -15.6440 C   0  0  1  0  0  0  0  0  0  0  0  0
   21.1147   -4.5728  -16.4167 C   0  0  0  0  0  0  0  0  0  0  0  0
   21.7865   -3.3262  -15.9914 C   0  0  0  0  0  0  0  0  0  0  0  0
   21.4046   -2.0961  -16.7172 C   0  0  0  0  0  0  0  0  0  0  0  0
   21.1904   -0.9745  -16.1820 O   0  0  0  0  0  0  0  0  0  0  0  0
   21.3425   -5.6803  -14.2056 C   0  0  0  0  0  0  0  0  0  0  0  0
   20.3455   -6.0359  -13.5179 O   0  0  0  0  0  0  0  0  0  0  0  0
   21.2673   -2.1690  -18.1000 O   0  0  0  0  0  0  0  0  0  0  0  0
   22.4566   -5.1339  -13.5192 O   0  0  0  0  0  0  0  0  0  0  0  0
  2  1  1  0
  2  3  1  0
  3  4  2  0
  5  3  1  0
  5  6  1  0
  6  7  1  1
  8  7  1  0
  9  8  1  0
  9 10  1  0
 10 11  1  0
 12  6  1  0
 12 14  1  0
 13 12  2  0
 15 14  1  0
 15 16  1  6
 16 17  1  0
 17 18  1  0
 18 22  1  0
 19 18  2  0
 20 23  1  0
 20 15  1  0
 21 20  2  0
M  END
$$$$
