GKE.pdb
     RDKit          3D

 23 22  0  0  1  0  0  0  0  0999 V2000
   26.4206  -19.9887   -7.6482 N   0  0  0  0  0  0  0  0  0  0  0  0
   26.2060  -21.1187   -8.5289 C   0  0  0  0  0  0  0  0  0  0  0  0
   25.9008  -20.6227   -9.9164 C   0  0  0  0  0  0  0  0  0  0  0  0
   25.7642  -19.4032  -10.1071 O   0  0  0  0  0  0  0  0  0  0  0  0
   25.7667  -21.5181  -11.0062 N   0  0  0  0  0  0  0  0  0  0  0  0
   25.4875  -21.0505  -12.3458 C   0  0  1  0  0  0  0  0  0  0  0  0
   26.3615  -21.7751  -13.3718 C   0  0  0  0  0  0  0  0  0  0  0  0
   27.2986  -20.8120  -14.0501 C   0  0  0  0  0  0  0  0  0  0  0  0
   26.8657  -20.3910  -15.4076 C   0  0  0  0  0  0  0  0  0  0  0  0
   27.9100  -19.5529  -16.0830 C   0  0  0  0  0  0  0  0  0  0  0  0
   27.4387  -19.0902  -17.3967 N   0  0  0  0  0  0  0  0  0  0  0  0
   24.0551  -21.2414  -12.6331 C   0  0  0  0  0  0  0  0  0  0  0  0
   23.5179  -22.3559  -12.3850 O   0  0  0  0  0  0  0  0  0  0  0  0
   23.2139  -20.2547  -13.1766 N   0  0  0  0  0  0  0  0  0  0  0  0
   21.7668  -20.4510  -13.4179 C   0  0  1  0  0  0  0  0  0  0  0  0
   21.1231  -19.1558  -13.6913 C   0  0  0  0  0  0  0  0  0  0  0  0
   19.6640  -19.2062  -13.9256 C   0  0  0  0  0  0  0  0  0  0  0  0
   19.0113  -17.9250  -14.2690 C   0  0  0  0  0  0  0  0  0  0  0  0
   18.1523  -17.3348  -13.5591 O   0  0  0  0  0  0  0  0  0  0  0  0
   21.5006  -21.5183  -14.3573 C   0  0  0  0  0  0  0  0  0  0  0  0
   22.1644  -21.7726  -15.4005 O   0  0  0  0  0  0  0  0  0  0  0  0
   19.3640  -17.3124  -15.4677 O   0  0  0  0  0  0  0  0  0  0  0  0
   20.3873  -22.3466  -14.0651 O   0  0  0  0  0  0  0  0  0  0  0  0
  2  1  1  0
  2  3  1  0
  3  4  2  0
  5  3  1  0
  5  6  1  0
  6  7  1  6
  8  7  1  0
  9  8  1  0
  9 10  1  0
 10 11  1  0
 12  6  1  0
 12 14  1  0
 13 12  2  0
 15 14  1  0
 15 16  1  6
 16 17  1  0
 17 18  1  0
 18 22  1  0
 19 18  2  0
 20 23  1  0
 20 15  1  0
 21 20  2  0
M  END
$$$$
