GKE.pdb
     RDKit          3D

 23 22  0  0  1  0  0  0  0  0999 V2000
   23.2001  -11.9272  -18.1335 N   0  0  0  0  0  0  0  0  0  0  0  0
   23.5828  -10.5521  -18.3812 C   0  0  0  0  0  0  0  0  0  0  0  0
   22.5182   -9.6313  -17.8492 C   0  0  0  0  0  0  0  0  0  0  0  0
   22.2026   -8.6264  -18.5072 O   0  0  0  0  0  0  0  0  0  0  0  0
   21.8711   -9.8882  -16.6153 N   0  0  0  0  0  0  0  0  0  0  0  0
   20.8497   -9.0075  -16.0935 C   0  0  1  0  0  0  0  0  0  0  0  0
   19.9228   -9.7537  -15.1313 C   0  0  0  0  0  0  0  0  0  0  0  0
   18.7416  -10.3287  -15.8659 C   0  0  0  0  0  0  0  0  0  0  0  0
   17.8410  -11.1567  -15.0229 C   0  0  0  0  0  0  0  0  0  0  0  0
   16.6390  -11.6193  -15.7913 C   0  0  0  0  0  0  0  0  0  0  0  0
   15.7765  -12.4644  -14.9523 N   0  0  0  0  0  0  0  0  0  0  0  0
   21.4957   -7.8601  -15.4325 C   0  0  0  0  0  0  0  0  0  0  0  0
   22.4602   -8.0631  -14.6446 O   0  0  0  0  0  0  0  0  0  0  0  0
   21.1142   -6.5190  -15.6132 N   0  0  0  0  0  0  0  0  0  0  0  0
   21.8334   -5.3726  -15.0140 C   0  0  1  0  0  0  0  0  0  0  0  0
   21.5200   -4.1402  -15.7553 C   0  0  0  0  0  0  0  0  0  0  0  0
   22.1583   -2.9087  -15.2432 C   0  0  0  0  0  0  0  0  0  0  0  0
   21.8386   -1.6575  -15.9628 C   0  0  0  0  0  0  0  0  0  0  0  0
   22.0570   -1.4481  -17.1870 O   0  0  0  0  0  0  0  0  0  0  0  0
   21.6899   -5.3179  -13.5755 C   0  0  0  0  0  0  0  0  0  0  0  0
   20.6925   -5.7168  -12.9128 O   0  0  0  0  0  0  0  0  0  0  0  0
   21.2502   -0.6217  -15.2434 O   0  0  0  0  0  0  0  0  0  0  0  0
   22.7795   -4.7619  -12.8582 O   0  0  0  0  0  0  0  0  0  0  0  0
  2  1  1  0
  2  3  1  0
  3  4  2  0
  5  3  1  0
  5  6  1  0
  6  7  1  1
  8  7  1  0
  9  8  1  0
  9 10  1  0
 10 11  1  0
 12  6  1  0
 12 14  1  0
 13 12  2  0
 15 14  1  0
 15 16  1  6
 16 17  1  0
 17 18  1  0
 18 22  1  0
 19 18  2  0
 20 23  1  0
 20 15  1  0
 21 20  2  0
M  END
$$$$
