GKE.pdb
     RDKit          3D

 23 22  0  0  1  0  0  0  0  0999 V2000
   15.6712  -13.6850  -12.3782 N   0  0  0  0  0  0  0  0  0  0  0  0
   16.1953  -13.0826  -11.1694 C   0  0  0  0  0  0  0  0  0  0  0  0
   15.9378  -11.6003  -11.1951 C   0  0  0  0  0  0  0  0  0  0  0  0
   15.8856  -11.0135  -12.2884 O   0  0  0  0  0  0  0  0  0  0  0  0
   15.7543  -10.8634   -9.9989 N   0  0  0  0  0  0  0  0  0  0  0  0
   15.3830   -9.4659  -10.0150 C   0  0  1  0  0  0  0  0  0  0  0  0
   14.3243   -9.1686   -8.9508 C   0  0  0  0  0  0  0  0  0  0  0  0
   12.9483   -9.5093   -9.4567 C   0  0  0  0  0  0  0  0  0  0  0  0
   11.8462   -9.1263   -8.5367 C   0  0  0  0  0  0  0  0  0  0  0  0
   10.5037   -9.4529   -9.1201 C   0  0  0  0  0  0  0  0  0  0  0  0
    9.4261   -9.0756   -8.1936 N   0  0  0  0  0  0  0  0  0  0  0  0
   16.5898   -8.6451   -9.8134 C   0  0  0  0  0  0  0  0  0  0  0  0
   17.3480   -8.8905   -8.8351 O   0  0  0  0  0  0  0  0  0  0  0  0
   16.9765   -7.5804  -10.6461 N   0  0  0  0  0  0  0  0  0  0  0  0
   18.1353   -6.7016  -10.3708 C   0  0  1  0  0  0  0  0  0  0  0  0
   19.1502   -6.8641  -11.4246 C   0  0  0  0  0  0  0  0  0  0  0  0
   20.3205   -5.9658  -11.3261 C   0  0  0  0  0  0  0  0  0  0  0  0
   21.3528   -6.1181  -12.3734 C   0  0  0  0  0  0  0  0  0  0  0  0
   21.3825   -7.0384  -13.2350 O   0  0  0  0  0  0  0  0  0  0  0  0
   17.7411   -5.3463  -10.0541 C   0  0  0  0  0  0  0  0  0  0  0  0
   16.7282   -4.7426  -10.5046 O   0  0  0  0  0  0  0  0  0  0  0  0
   22.3779   -5.1782  -12.4223 O   0  0  0  0  0  0  0  0  0  0  0  0
   18.5809   -4.6443   -9.1525 O   0  0  0  0  0  0  0  0  0  0  0  0
  2  1  1  0
  2  3  1  0
  3  4  2  0
  5  3  1  0
  5  6  1  0
  6  7  1  1
  8  7  1  0
  9  8  1  0
  9 10  1  0
 10 11  1  0
 12  6  1  0
 12 14  1  0
 13 12  2  0
 15 14  1  0
 15 16  1  6
 16 17  1  0
 17 18  1  0
 18 22  1  0
 19 18  2  0
 20 23  1  0
 20 15  1  0
 21 20  2  0
M  END
$$$$
