GKE.pdb
     RDKit          3D

 23 22  0  0  1  0  0  0  0  0999 V2000
   26.1224  -15.3618  -16.4445 N   0  0  0  0  0  0  0  0  0  0  0  0
   26.1194  -15.9376  -15.1151 C   0  0  0  0  0  0  0  0  0  0  0  0
   25.7788  -17.4006  -15.2026 C   0  0  0  0  0  0  0  0  0  0  0  0
   25.3545  -17.8605  -16.2754 O   0  0  0  0  0  0  0  0  0  0  0  0
   25.9326  -18.2610  -14.0875 N   0  0  0  0  0  0  0  0  0  0  0  0
   25.5802  -19.6620  -14.1526 C   0  0  1  0  0  0  0  0  0  0  0  0
   26.5902  -20.5168  -13.3839 C   0  0  0  0  0  0  0  0  0  0  0  0
   27.7922  -20.8202  -14.2376 C   0  0  0  0  0  0  0  0  0  0  0  0
   27.4759  -21.5042  -15.5181 C   0  0  0  0  0  0  0  0  0  0  0  0
   28.7210  -21.8520  -16.2784 C   0  0  0  0  0  0  0  0  0  0  0  0
   28.3894  -22.5207  -17.5452 N   0  0  0  0  0  0  0  0  0  0  0  0
   24.2165  -19.8401  -13.6241 C   0  0  0  0  0  0  0  0  0  0  0  0
   23.9567  -19.4698  -12.4461 O   0  0  0  0  0  0  0  0  0  0  0  0
   23.1505  -20.4050  -14.3460 N   0  0  0  0  0  0  0  0  0  0  0  0
   21.7844  -20.5686  -13.8003 C   0  0  1  0  0  0  0  0  0  0  0  0
   20.8334  -19.7548  -14.5750 C   0  0  0  0  0  0  0  0  0  0  0  0
   19.4318  -19.7931  -14.1055 C   0  0  0  0  0  0  0  0  0  0  0  0
   18.4318  -19.1385  -14.9755 C   0  0  0  0  0  0  0  0  0  0  0  0
   18.6760  -18.6174  -16.0976 O   0  0  0  0  0  0  0  0  0  0  0  0
   21.4318  -21.9563  -13.5936 C   0  0  0  0  0  0  0  0  0  0  0  0
   21.9001  -22.9438  -14.2251 O   0  0  0  0  0  0  0  0  0  0  0  0
   17.1137  -19.0868  -14.5322 O   0  0  0  0  0  0  0  0  0  0  0  0
   20.4695  -22.2142  -12.5845 O   0  0  0  0  0  0  0  0  0  0  0  0
  2  1  1  0
  2  3  1  0
  3  4  2  0
  5  3  1  0
  5  6  1  0
  6  7  1  1
  8  7  1  0
  9  8  1  0
  9 10  1  0
 10 11  1  0
 12  6  1  0
 12 14  1  0
 13 12  2  0
 15 14  1  0
 15 16  1  6
 16 17  1  0
 17 18  1  0
 18 22  1  0
 19 18  2  0
 20 23  1  0
 20 15  1  0
 21 20  2  0
M  END
$$$$
