GKE.pdb
     RDKit          3D

 23 22  0  0  1  0  0  0  0  0999 V2000
   26.0285  -13.9232  -16.0901 N   0  0  0  0  0  0  0  0  0  0  0  0
   26.2043  -15.0107  -15.1493 C   0  0  0  0  0  0  0  0  0  0  0  0
   25.4199  -16.2079  -15.6138 C   0  0  0  0  0  0  0  0  0  0  0  0
   24.6604  -16.0927  -16.5896 O   0  0  0  0  0  0  0  0  0  0  0  0
   25.5312  -17.4603  -14.9608 N   0  0  0  0  0  0  0  0  0  0  0  0
   24.9543  -18.6634  -15.5184 C   0  0  1  0  0  0  0  0  0  0  0  0
   25.7789  -19.8943  -15.1353 C   0  0  0  0  0  0  0  0  0  0  0  0
   26.7339  -20.2619  -16.2390 C   0  0  0  0  0  0  0  0  0  0  0  0
   27.3977  -21.5790  -16.0600 C   0  0  0  0  0  0  0  0  0  0  0  0
   28.3769  -21.8561  -17.1618 C   0  0  0  0  0  0  0  0  0  0  0  0
   29.0662  -23.1355  -16.9380 N   0  0  0  0  0  0  0  0  0  0  0  0
   23.5609  -18.7877  -15.0562 C   0  0  0  0  0  0  0  0  0  0  0  0
   23.3185  -18.7941  -13.8179 O   0  0  0  0  0  0  0  0  0  0  0  0
   22.4474  -18.9029  -15.9067 N   0  0  0  0  0  0  0  0  0  0  0  0
   21.0456  -18.8810  -15.4321 C   0  0  1  0  0  0  0  0  0  0  0  0
   20.1576  -18.4166  -16.5103 C   0  0  0  0  0  0  0  0  0  0  0  0
   18.7472  -18.1973  -16.1242 C   0  0  0  0  0  0  0  0  0  0  0  0
   17.8366  -17.7472  -17.1984 C   0  0  0  0  0  0  0  0  0  0  0  0
   16.6207  -17.4510  -17.0426 O   0  0  0  0  0  0  0  0  0  0  0  0
   20.6669  -20.1065  -14.7633 C   0  0  0  0  0  0  0  0  0  0  0  0
   21.0027  -21.2741  -15.1058 O   0  0  0  0  0  0  0  0  0  0  0  0
   18.3498  -17.6379  -18.4872 O   0  0  0  0  0  0  0  0  0  0  0  0
   19.8419  -19.9661  -13.6185 O   0  0  0  0  0  0  0  0  0  0  0  0
  2  1  1  0
  2  3  1  0
  3  4  2  0
  5  3  1  0
  5  6  1  0
  6  7  1  1
  8  7  1  0
  9  8  1  0
  9 10  1  0
 10 11  1  0
 12  6  1  0
 12 14  1  0
 13 12  2  0
 15 14  1  0
 15 16  1  6
 16 17  1  0
 17 18  1  0
 18 22  1  0
 19 18  2  0
 20 23  1  0
 20 15  1  0
 21 20  2  0
M  END
$$$$
