GKE.pdb
     RDKit          3D

 23 22  0  0  1  0  0  0  0  0999 V2000
   24.7947  -20.3330   -8.9371 N   0  0  0  0  0  0  0  0  0  0  0  0
   25.4137  -21.1496   -9.9612 C   0  0  0  0  0  0  0  0  0  0  0  0
   25.3938  -20.4111  -11.2721 C   0  0  0  0  0  0  0  0  0  0  0  0
   24.7771  -19.3361  -11.3522 O   0  0  0  0  0  0  0  0  0  0  0  0
   26.0632  -20.9175  -12.4134 N   0  0  0  0  0  0  0  0  0  0  0  0
   26.1080  -20.1829  -13.6582 C   0  0  1  0  0  0  0  0  0  0  0  0
   27.2484  -20.6824  -14.5479 C   0  0  0  0  0  0  0  0  0  0  0  0
   27.3440  -19.8606  -15.8053 C   0  0  0  0  0  0  0  0  0  0  0  0
   28.4579  -20.2506  -16.7077 C   0  0  0  0  0  0  0  0  0  0  0  0
   28.5139  -19.3741  -17.9235 C   0  0  0  0  0  0  0  0  0  0  0  0
   29.6155  -19.7796  -18.8090 N   0  0  0  0  0  0  0  0  0  0  0  0
   24.8062  -20.3067  -14.3369 C   0  0  0  0  0  0  0  0  0  0  0  0
   24.2292  -21.4285  -14.3676 O   0  0  0  0  0  0  0  0  0  0  0  0
   24.1351  -19.2465  -14.9712 N   0  0  0  0  0  0  0  0  0  0  0  0
   22.7827  -19.3660  -15.5605 C   0  0  1  0  0  0  0  0  0  0  0  0
   22.2018  -18.0282  -15.7598 C   0  0  0  0  0  0  0  0  0  0  0  0
   20.8236  -18.0051  -16.2948 C   0  0  0  0  0  0  0  0  0  0  0  0
   20.2745  -16.6748  -16.6327 C   0  0  0  0  0  0  0  0  0  0  0  0
   20.8848  -15.5803  -16.4912 O   0  0  0  0  0  0  0  0  0  0  0  0
   22.7488  -20.2628  -16.6950 C   0  0  0  0  0  0  0  0  0  0  0  0
   23.6086  -20.3273  -17.6170 O   0  0  0  0  0  0  0  0  0  0  0  0
   18.9833  -16.6122  -17.1480 O   0  0  0  0  0  0  0  0  0  0  0  0
   21.6407  -21.1450  -16.7632 O   0  0  0  0  0  0  0  0  0  0  0  0
  2  1  1  0
  2  3  1  0
  3  4  2  0
  5  3  1  0
  5  6  1  0
  6  7  1  6
  8  7  1  0
  9  8  1  0
  9 10  1  0
 10 11  1  0
 12  6  1  0
 12 14  1  0
 13 12  2  0
 15 14  1  0
 15 16  1  6
 16 17  1  0
 17 18  1  0
 18 22  1  0
 19 18  2  0
 20 23  1  0
 20 15  1  0
 21 20  2  0
M  END
$$$$
