GKE.pdb
     RDKit          3D

 23 22  0  0  1  0  0  0  0  0999 V2000
   14.9139  -13.1989  -12.6606 N   0  0  0  0  0  0  0  0  0  0  0  0
   15.9951  -12.6996  -11.8356 C   0  0  0  0  0  0  0  0  0  0  0  0
   15.7850  -11.2342  -11.5660 C   0  0  0  0  0  0  0  0  0  0  0  0
   15.8988  -10.4241  -12.5005 O   0  0  0  0  0  0  0  0  0  0  0  0
   15.4609  -10.7624  -10.2700 N   0  0  0  0  0  0  0  0  0  0  0  0
   15.2071   -9.3625  -10.0108 C   0  0  1  0  0  0  0  0  0  0  0  0
   14.3143   -9.1868   -8.7805 C   0  0  0  0  0  0  0  0  0  0  0  0
   14.0602   -7.7282   -8.5091 C   0  0  0  0  0  0  0  0  0  0  0  0
   12.6773   -7.2807   -8.8167 C   0  0  0  0  0  0  0  0  0  0  0  0
   12.4783   -5.8338   -8.4756 C   0  0  0  0  0  0  0  0  0  0  0  0
   11.0950   -5.4181   -8.7508 N   0  0  0  0  0  0  0  0  0  0  0  0
   16.4932   -8.6636   -9.8430 C   0  0  0  0  0  0  0  0  0  0  0  0
   17.2833   -9.0331   -8.9312 O   0  0  0  0  0  0  0  0  0  0  0  0
   16.9242   -7.5877  -10.6388 N   0  0  0  0  0  0  0  0  0  0  0  0
   18.1587   -6.8146  -10.3759 C   0  0  1  0  0  0  0  0  0  0  0  0
   19.0978   -6.9711  -11.4986 C   0  0  0  0  0  0  0  0  0  0  0  0
   20.3470   -6.1864  -11.3986 C   0  0  0  0  0  0  0  0  0  0  0  0
   21.2725   -6.2795  -12.5477 C   0  0  0  0  0  0  0  0  0  0  0  0
   21.7470   -7.3514  -13.0126 O   0  0  0  0  0  0  0  0  0  0  0  0
   17.8848   -5.4615   -9.9439 C   0  0  0  0  0  0  0  0  0  0  0  0
   16.9249   -4.7383  -10.3298 O   0  0  0  0  0  0  0  0  0  0  0  0
   21.6580   -5.0980  -13.1739 O   0  0  0  0  0  0  0  0  0  0  0  0
   18.7876   -4.9109   -8.9991 O   0  0  0  0  0  0  0  0  0  0  0  0
  2  1  1  0
  2  3  1  0
  3  4  2  0
  5  3  1  0
  5  6  1  0
  6  7  1  1
  8  7  1  0
  9  8  1  0
  9 10  1  0
 10 11  1  0
 12  6  1  0
 12 14  1  0
 13 12  2  0
 15 14  1  0
 15 16  1  6
 16 17  1  0
 17 18  1  0
 18 22  1  0
 19 18  2  0
 20 23  1  0
 20 15  1  0
 21 20  2  0
M  END
$$$$
