GKE.pdb
     RDKit          3D

 23 22  0  0  1  0  0  0  0  0999 V2000
   26.3761  -20.4327  -10.2741 N   0  0  0  0  0  0  0  0  0  0  0  0
   25.6370  -21.5877  -10.7417 C   0  0  0  0  0  0  0  0  0  0  0  0
   25.1469  -21.3366  -12.1420 C   0  0  0  0  0  0  0  0  0  0  0  0
   25.7206  -20.4853  -12.8409 O   0  0  0  0  0  0  0  0  0  0  0  0
   24.0463  -22.0509  -12.6767 N   0  0  0  0  0  0  0  0  0  0  0  0
   23.6947  -21.9708  -14.0771 C   0  0  1  0  0  0  0  0  0  0  0  0
   23.2870  -23.3429  -14.6184 C   0  0  0  0  0  0  0  0  0  0  0  0
   24.4941  -24.2214  -14.8103 C   0  0  0  0  0  0  0  0  0  0  0  0
   25.3853  -23.8018  -15.9226 C   0  0  0  0  0  0  0  0  0  0  0  0
   26.5178  -24.7663  -16.1142 C   0  0  0  0  0  0  0  0  0  0  0  0
   27.4256  -24.3016  -17.1735 N   0  0  0  0  0  0  0  0  0  0  0  0
   22.6121  -20.9858  -14.2457 C   0  0  0  0  0  0  0  0  0  0  0  0
   21.6570  -20.9697  -13.4212 O   0  0  0  0  0  0  0  0  0  0  0  0
   22.5548  -20.0351  -15.2798 N   0  0  0  0  0  0  0  0  0  0  0  0
   21.4724  -19.0350  -15.4170 C   0  0  1  0  0  0  0  0  0  0  0  0
   21.8534  -18.0155  -16.4081 C   0  0  0  0  0  0  0  0  0  0  0  0
   20.8378  -16.9742  -16.6738 C   0  0  0  0  0  0  0  0  0  0  0  0
   21.1637  -15.9972  -17.7344 C   0  0  0  0  0  0  0  0  0  0  0  0
   22.2752  -15.9091  -18.3235 O   0  0  0  0  0  0  0  0  0  0  0  0
   20.1710  -19.6448  -15.5821 C   0  0  0  0  0  0  0  0  0  0  0  0
   19.9164  -20.6819  -16.2551 O   0  0  0  0  0  0  0  0  0  0  0  0
   20.1742  -15.0985  -18.1217 O   0  0  0  0  0  0  0  0  0  0  0  0
   19.0917  -19.0061  -14.9201 O   0  0  0  0  0  0  0  0  0  0  0  0
  2  1  1  0
  2  3  1  0
  3  4  2  0
  5  3  1  0
  5  6  1  0
  6  7  1  1
  8  7  1  0
  9  8  1  0
  9 10  1  0
 10 11  1  0
 12  6  1  0
 12 14  1  0
 13 12  2  0
 15 14  1  0
 15 16  1  6
 16 17  1  0
 17 18  1  0
 18 22  1  0
 19 18  2  0
 20 23  1  0
 20 15  1  0
 21 20  2  0
M  END
$$$$
