GKE.pdb
     RDKit          3D

 23 22  0  0  1  0  0  0  0  0999 V2000
   24.4193  -20.3247   -8.2117 N   0  0  0  0  0  0  0  0  0  0  0  0
   25.4199  -20.8989   -9.0879 C   0  0  0  0  0  0  0  0  0  0  0  0
   25.0776  -20.5795  -10.5179 C   0  0  0  0  0  0  0  0  0  0  0  0
   24.0329  -19.9553  -10.7656 O   0  0  0  0  0  0  0  0  0  0  0  0
   25.9221  -20.9763  -11.5841 N   0  0  0  0  0  0  0  0  0  0  0  0
   25.6914  -20.5365  -12.9422 C   0  0  1  0  0  0  0  0  0  0  0  0
   26.9526  -20.7022  -13.7929 C   0  0  0  0  0  0  0  0  0  0  0  0
   26.7439  -20.1378  -15.1726 C   0  0  0  0  0  0  0  0  0  0  0  0
   27.9258  -20.2527  -16.0656 C   0  0  0  0  0  0  0  0  0  0  0  0
   27.7170  -19.5122  -17.3530 C   0  0  0  0  0  0  0  0  0  0  0  0
   28.9308  -19.5535  -18.1818 N   0  0  0  0  0  0  0  0  0  0  0  0
   24.5612  -21.2939  -13.5076 C   0  0  0  0  0  0  0  0  0  0  0  0
   24.5946  -22.5552  -13.4959 O   0  0  0  0  0  0  0  0  0  0  0  0
   23.4156  -20.7090  -14.0753 N   0  0  0  0  0  0  0  0  0  0  0  0
   22.2288  -21.4799  -14.5086 C   0  0  1  0  0  0  0  0  0  0  0  0
   21.0007  -20.7363  -14.1831 C   0  0  0  0  0  0  0  0  0  0  0  0
   20.3756  -20.0135  -15.3114 C   0  0  0  0  0  0  0  0  0  0  0  0
   19.1479  -19.2508  -15.0006 C   0  0  0  0  0  0  0  0  0  0  0  0
   18.5689  -18.4547  -15.7889 O   0  0  0  0  0  0  0  0  0  0  0  0
   22.3497  -21.9698  -15.8643 C   0  0  0  0  0  0  0  0  0  0  0  0
   21.8392  -23.0309  -16.3192 O   0  0  0  0  0  0  0  0  0  0  0  0
   18.5768  -19.4157  -13.7424 O   0  0  0  0  0  0  0  0  0  0  0  0
   23.1160  -21.1727  -16.7521 O   0  0  0  0  0  0  0  0  0  0  0  0
  2  1  1  0
  2  3  1  0
  3  4  2  0
  5  3  1  0
  5  6  1  0
  6  7  1  6
  8  7  1  0
  9  8  1  0
  9 10  1  0
 10 11  1  0
 12  6  1  0
 12 14  1  0
 13 12  2  0
 15 14  1  0
 15 16  1  6
 16 17  1  0
 17 18  1  0
 18 22  1  0
 19 18  2  0
 20 23  1  0
 20 15  1  0
 21 20  2  0
M  END
$$$$
