GKE.pdb
     RDKit          3D

 23 22  0  0  1  0  0  0  0  0999 V2000
   26.0232  -24.2559  -15.6560 N   0  0  0  0  0  0  0  0  0  0  0  0
   26.3027  -22.9525  -15.0888 C   0  0  0  0  0  0  0  0  0  0  0  0
   25.2061  -22.5769  -14.1294 C   0  0  0  0  0  0  0  0  0  0  0  0
   24.0815  -23.0860  -14.2658 O   0  0  0  0  0  0  0  0  0  0  0  0
   25.4315  -21.6560  -13.0766 N   0  0  0  0  0  0  0  0  0  0  0  0
   24.3672  -21.2348  -12.1927 C   0  0  1  0  0  0  0  0  0  0  0  0
   24.9311  -20.5705  -10.9348 C   0  0  0  0  0  0  0  0  0  0  0  0
   23.8227  -20.1822   -9.9934 C   0  0  0  0  0  0  0  0  0  0  0  0
   23.5051  -21.2077   -8.9664 C   0  0  0  0  0  0  0  0  0  0  0  0
   22.4156  -20.7452   -8.0452 C   0  0  0  0  0  0  0  0  0  0  0  0
   22.1437  -21.7539   -7.0105 N   0  0  0  0  0  0  0  0  0  0  0  0
   23.4685  -20.3233  -12.9222 C   0  0  0  0  0  0  0  0  0  0  0  0
   23.9530  -19.3187  -13.5124 O   0  0  0  0  0  0  0  0  0  0  0  0
   22.0753  -20.4862  -13.0172 N   0  0  0  0  0  0  0  0  0  0  0  0
   21.1876  -19.5557  -13.7499 C   0  0  1  0  0  0  0  0  0  0  0  0
   21.0361  -20.0002  -15.1450 C   0  0  0  0  0  0  0  0  0  0  0  0
   19.8436  -20.8286  -15.4240 C   0  0  0  0  0  0  0  0  0  0  0  0
   19.7187  -21.3542  -16.8001 C   0  0  0  0  0  0  0  0  0  0  0  0
   18.8560  -22.1910  -17.1821 O   0  0  0  0  0  0  0  0  0  0  0  0
   19.9691  -19.2655  -13.0262 C   0  0  0  0  0  0  0  0  0  0  0  0
   19.2062  -18.2790  -13.2215 O   0  0  0  0  0  0  0  0  0  0  0  0
   20.6183  -20.8972  -17.7585 O   0  0  0  0  0  0  0  0  0  0  0  0
   19.6127  -20.1838  -12.0062 O   0  0  0  0  0  0  0  0  0  0  0  0
  2  1  1  0
  2  3  1  0
  3  4  2  0
  5  3  1  0
  5  6  1  0
  6  7  1  1
  8  7  1  0
  9  8  1  0
  9 10  1  0
 10 11  1  0
 12  6  1  0
 12 14  1  0
 13 12  2  0
 15 14  1  0
 15 16  1  6
 16 17  1  0
 17 18  1  0
 18 22  1  0
 19 18  2  0
 20 23  1  0
 20 15  1  0
 21 20  2  0
M  END
$$$$
