CCG.pdb
     RDKit          3D

 17 16  0  0  1  0  0  0  0  0999 V2000
    7.9775  -14.1184   20.9540 N   0  0  0  0  0  0  0  0  0  0  0  0
    7.1828  -14.4892   22.0822 C   0  0  1  0  0  0  0  0  0  0  0  0
    6.8612  -15.9597   22.0039 C   0  0  0  0  0  0  0  0  0  0  0  0
    5.8786  -16.3705   20.5536 S   0  0  0  0  0  0  0  0  0  0  0  0
    7.8111  -14.1231   23.3772 C   0  0  0  0  0  0  0  0  0  0  0  0
    9.0579  -14.2154   23.5115 O   0  0  0  0  0  0  0  0  0  0  0  0
    7.0753  -13.6645   24.4999 N   0  0  0  0  0  0  0  0  0  0  0  0
    7.6551  -13.4324   25.7923 C   0  0  1  0  0  0  0  0  0  0  0  0
    6.6344  -12.7346   26.7015 C   0  0  0  0  0  0  0  0  0  0  0  0
    6.3606  -11.0716   26.0471 S   0  0  0  0  0  0  0  0  0  0  0  0
    8.0598  -14.6729   26.4808 C   0  0  0  0  0  0  0  0  0  0  0  0
    7.2326  -15.6191   26.5306 O   0  0  0  0  0  0  0  0  0  0  0  0
    9.3208  -14.8632   27.0879 N   0  0  0  0  0  0  0  0  0  0  0  0
    9.6765  -16.0531   27.8331 C   0  0  0  0  0  0  0  0  0  0  0  0
   10.3603  -17.0502   26.9760 C   0  0  0  0  0  0  0  0  0  0  0  0
   10.5790  -16.7959   25.6324 O   0  0  0  0  0  0  0  0  0  0  0  0
   10.7578  -18.1450   27.4390 O   0  0  0  0  0  0  0  0  0  0  0  0
  2  3  1  0
  2  1  1  6
  3  4  1  0
  5  2  1  0
  5  6  2  0
  7  5  1  0
  8 11  1  0
  8  7  1  0
  8  9  1  1
 10  9  1  0
 11 13  1  0
 12 11  2  0
 13 14  1  0
 14 15  1  0
 15 17  2  0
 15 16  1  0
M  END
$$$$
