CCG.pdb
     RDKit          3D

 17 16  0  0  1  0  0  0  0  0999 V2000
   -2.9995  -22.5153   26.3033 N   0  0  0  0  0  0  0  0  0  0  0  0
   -4.0231  -23.4303   26.6995 C   0  0  1  0  0  0  0  0  0  0  0  0
   -3.4533  -24.8249   26.7490 C   0  0  0  0  0  0  0  0  0  0  0  0
   -3.3341  -25.5752   25.1179 S   0  0  0  0  0  0  0  0  0  0  0  0
   -4.6768  -23.0485   27.9773 C   0  0  0  0  0  0  0  0  0  0  0  0
   -3.9722  -22.6694   28.9472 O   0  0  0  0  0  0  0  0  0  0  0  0
   -6.0805  -23.0853   28.1775 N   0  0  0  0  0  0  0  0  0  0  0  0
   -6.7191  -22.7319   29.4135 C   0  0  1  0  0  0  0  0  0  0  0  0
   -7.9067  -21.8001   29.1365 C   0  0  0  0  0  0  0  0  0  0  0  0
   -8.5519  -21.2417   30.7304 S   0  0  0  0  0  0  0  0  0  0  0  0
   -7.2531  -23.8952   30.1471 C   0  0  0  0  0  0  0  0  0  0  0  0
   -7.9897  -24.7013   29.5228 O   0  0  0  0  0  0  0  0  0  0  0  0
   -6.9875  -24.1593   31.5089 N   0  0  0  0  0  0  0  0  0  0  0  0
   -7.5679  -25.2704   32.2345 C   0  0  0  0  0  0  0  0  0  0  0  0
   -6.7884  -26.5160   32.0407 C   0  0  0  0  0  0  0  0  0  0  0  0
   -5.6544  -26.5236   31.2458 O   0  0  0  0  0  0  0  0  0  0  0  0
   -7.1305  -27.5910   32.5867 O   0  0  0  0  0  0  0  0  0  0  0  0
  2  3  1  0
  2  1  1  1
  3  4  1  0
  5  2  1  0
  5  6  2  0
  7  5  1  0
  8 11  1  0
  8  7  1  0
  8  9  1  6
 10  9  1  0
 11 13  1  0
 12 11  2  0
 13 14  1  0
 14 15  1  0
 15 17  2  0
 15 16  1  0
M  END
$$$$
