CCG.pdb
     RDKit          3D

 17 16  0  0  1  0  0  0  0  0999 V2000
   -0.6832  -25.0477   27.3458 N   0  0  0  0  0  0  0  0  0  0  0  0
   -2.0910  -25.2860   27.2893 C   0  0  1  0  0  0  0  0  0  0  0  0
   -2.4113  -26.5596   28.0292 C   0  0  0  0  0  0  0  0  0  0  0  0
   -1.9307  -28.0280   27.1068 S   0  0  0  0  0  0  0  0  0  0  0  0
   -2.8921  -24.1369   27.7828 C   0  0  0  0  0  0  0  0  0  0  0  0
   -2.6948  -23.6940   28.9430 O   0  0  0  0  0  0  0  0  0  0  0  0
   -3.8904  -23.4915   27.0090 N   0  0  0  0  0  0  0  0  0  0  0  0
   -4.6869  -22.3975   27.4877 C   0  0  1  0  0  0  0  0  0  0  0  0
   -4.7094  -21.2750   26.4413 C   0  0  0  0  0  0  0  0  0  0  0  0
   -3.0854  -20.4805   26.4511 S   0  0  0  0  0  0  0  0  0  0  0  0
   -6.0917  -22.7679   27.7445 C   0  0  0  0  0  0  0  0  0  0  0  0
   -6.7105  -23.3989   26.8496 O   0  0  0  0  0  0  0  0  0  0  0  0
   -6.7848  -22.4569   28.9352 N   0  0  0  0  0  0  0  0  0  0  0  0
   -8.1715  -22.8059   29.1659 C   0  0  0  0  0  0  0  0  0  0  0  0
   -8.6018  -22.4542   30.5398 C   0  0  0  0  0  0  0  0  0  0  0  0
   -9.9225  -22.6065   30.9276 O   0  0  0  0  0  0  0  0  0  0  0  0
   -7.7886  -22.0119   31.3848 O   0  0  0  0  0  0  0  0  0  0  0  0
  2  3  1  0
  2  1  1  1
  3  4  1  0
  5  2  1  0
  5  6  2  0
  7  5  1  0
  8 11  1  0
  8  7  1  0
  8  9  1  6
 10  9  1  0
 11 13  1  0
 12 11  2  0
 13 14  1  0
 14 15  1  0
 15 17  2  0
 15 16  1  0
M  END
$$$$
