CCG.pdb
     RDKit          3D

 17 16  0  0  1  0  0  0  0  0999 V2000
    9.1387  -17.2859   15.7205 N   0  0  0  0  0  0  0  0  0  0  0  0
    8.5407  -17.3434   17.0170 C   0  0  1  0  0  0  0  0  0  0  0  0
    8.5231  -18.7728   17.4950 C   0  0  0  0  0  0  0  0  0  0  0  0
    7.9544  -18.9201   19.1958 S   0  0  0  0  0  0  0  0  0  0  0  0
    9.1924  -16.4354   17.9950 C   0  0  0  0  0  0  0  0  0  0  0  0
   10.4473  -16.3812   18.0527 O   0  0  0  0  0  0  0  0  0  0  0  0
    8.4708  -15.6049   18.8903 N   0  0  0  0  0  0  0  0  0  0  0  0
    9.0908  -14.7814   19.8893 C   0  0  1  0  0  0  0  0  0  0  0  0
    8.0617  -13.7984   20.4637 C   0  0  0  0  0  0  0  0  0  0  0  0
    7.5588  -12.6860   19.1302 S   0  0  0  0  0  0  0  0  0  0  0  0
    9.6263  -15.5508   21.0286 C   0  0  0  0  0  0  0  0  0  0  0  0
    8.8371  -16.2990   21.6606 O   0  0  0  0  0  0  0  0  0  0  0  0
   10.9722  -15.4984   21.4533 N   0  0  0  0  0  0  0  0  0  0  0  0
   11.4890  -16.2697   22.5650 C   0  0  0  0  0  0  0  0  0  0  0  0
   12.9395  -16.0381   22.7629 C   0  0  0  0  0  0  0  0  0  0  0  0
   13.6627  -15.2746   21.8619 O   0  0  0  0  0  0  0  0  0  0  0  0
   13.5494  -16.5231   23.7445 O   0  0  0  0  0  0  0  0  0  0  0  0
  2  3  1  0
  2  1  1  6
  3  4  1  0
  5  2  1  0
  5  6  2  0
  7  5  1  0
  8 11  1  0
  8  7  1  0
  8  9  1  1
 10  9  1  0
 11 13  1  0
 12 11  2  0
 13 14  1  0
 14 15  1  0
 15 17  2  0
 15 16  1  0
M  END
$$$$
