CCG.pdb
     RDKit          3D

 17 16  0  0  1  0  0  0  0  0999 V2000
    7.7757  -13.9692   20.0400 N   0  0  0  0  0  0  0  0  0  0  0  0
    6.9996  -14.2130   21.2148 C   0  0  1  0  0  0  0  0  0  0  0  0
    6.3159  -15.5507   21.0921 C   0  0  0  0  0  0  0  0  0  0  0  0
    7.4804  -16.8924   20.8066 S   0  0  0  0  0  0  0  0  0  0  0  0
    7.7938  -14.1044   22.4651 C   0  0  0  0  0  0  0  0  0  0  0  0
    9.0418  -14.2522   22.4238 O   0  0  0  0  0  0  0  0  0  0  0  0
    7.2192  -13.8380   23.7343 N   0  0  0  0  0  0  0  0  0  0  0  0
    7.9697  -13.8016   24.9574 C   0  0  1  0  0  0  0  0  0  0  0  0
    7.1605  -13.0769   26.0416 C   0  0  0  0  0  0  0  0  0  0  0  0
    8.1679  -13.0309   27.5422 S   0  0  0  0  0  0  0  0  0  0  0  0
    8.2861  -15.1417   25.4871 C   0  0  0  0  0  0  0  0  0  0  0  0
    7.3471  -15.9711   25.5983 O   0  0  0  0  0  0  0  0  0  0  0  0
    9.5805  -15.5506   25.8774 N   0  0  0  0  0  0  0  0  0  0  0  0
    9.9124  -16.9138   26.2371 C   0  0  0  0  0  0  0  0  0  0  0  0
    9.9416  -17.0991   27.7072 C   0  0  0  0  0  0  0  0  0  0  0  0
    9.1980  -18.1008   28.3083 O   0  0  0  0  0  0  0  0  0  0  0  0
   10.6353  -16.3597   28.4440 O   0  0  0  0  0  0  0  0  0  0  0  0
  2  3  1  0
  2  1  1  6
  3  4  1  0
  5  2  1  0
  5  6  2  0
  7  5  1  0
  8 11  1  0
  8  7  1  0
  8  9  1  1
 10  9  1  0
 11 13  1  0
 12 11  2  0
 13 14  1  0
 14 15  1  0
 15 17  2  0
 15 16  1  0
M  END
$$$$
