CCG.pdb
     RDKit          3D

 17 16  0  0  1  0  0  0  0  0999 V2000
    5.6124  -18.3901   22.1989 N   0  0  0  0  0  0  0  0  0  0  0  0
    5.6857  -17.9227   23.5473 C   0  0  1  0  0  0  0  0  0  0  0  0
    6.0454  -19.0716   24.4543 C   0  0  0  0  0  0  0  0  0  0  0  0
    7.7855  -19.5154   24.3418 S   0  0  0  0  0  0  0  0  0  0  0  0
    6.6100  -16.7717   23.7106 C   0  0  0  0  0  0  0  0  0  0  0  0
    7.4931  -16.5552   22.8421 O   0  0  0  0  0  0  0  0  0  0  0  0
    6.5584  -15.8792   24.8118 N   0  0  0  0  0  0  0  0  0  0  0  0
    7.5115  -14.8287   25.0321 C   0  0  1  0  0  0  0  0  0  0  0  0
    7.0731  -13.9722   26.2277 C   0  0  0  0  0  0  0  0  0  0  0  0
    5.6103  -13.0351   25.7268 S   0  0  0  0  0  0  0  0  0  0  0  0
    8.8662  -15.3259   25.3389 C   0  0  0  0  0  0  0  0  0  0  0  0
    9.0122  -16.0611   26.3490 O   0  0  0  0  0  0  0  0  0  0  0  0
   10.0104  -15.0264   24.5670 N   0  0  0  0  0  0  0  0  0  0  0  0
   11.3461  -15.4640   24.9166 C   0  0  0  0  0  0  0  0  0  0  0  0
   11.8864  -16.4188   23.9202 C   0  0  0  0  0  0  0  0  0  0  0  0
   11.3836  -17.7060   23.8298 O   0  0  0  0  0  0  0  0  0  0  0  0
   12.8075  -16.0915   23.1359 O   0  0  0  0  0  0  0  0  0  0  0  0
  2  3  1  0
  2  1  1  6
  3  4  1  0
  5  2  1  0
  5  6  2  0
  7  5  1  0
  8 11  1  0
  8  7  1  0
  8  9  1  1
 10  9  1  0
 11 13  1  0
 12 11  2  0
 13 14  1  0
 14 15  1  0
 15 17  2  0
 15 16  1  0
M  END
$$$$
