CCG.pdb
     RDKit          3D

 17 16  0  0  1  0  0  0  0  0999 V2000
    8.1708  -17.1244   17.3919 N   0  0  0  0  0  0  0  0  0  0  0  0
    7.4346  -17.1406   18.6165 C   0  0  1  0  0  0  0  0  0  0  0  0
    7.1042  -18.5654   18.9809 C   0  0  0  0  0  0  0  0  0  0  0  0
    5.9228  -19.3076   17.8446 S   0  0  0  0  0  0  0  0  0  0  0  0
    8.1306  -16.4293   19.7189 C   0  0  0  0  0  0  0  0  0  0  0  0
    9.3858  -16.3555   19.7165 O   0  0  0  0  0  0  0  0  0  0  0  0
    7.4521  -15.8127   20.8012 N   0  0  0  0  0  0  0  0  0  0  0  0
    8.1189  -15.1744   21.9005 C   0  0  1  0  0  0  0  0  0  0  0  0
    7.1006  -14.3947   22.7433 C   0  0  0  0  0  0  0  0  0  0  0  0
    7.9981  -13.6050   24.0996 S   0  0  0  0  0  0  0  0  0  0  0  0
    8.7844  -16.1261   22.8104 C   0  0  0  0  0  0  0  0  0  0  0  0
    8.1144  -17.0989   23.2426 O   0  0  0  0  0  0  0  0  0  0  0  0
   10.1293  -16.0115   23.2262 N   0  0  0  0  0  0  0  0  0  0  0  0
   10.8276  -17.0443   23.9635 C   0  0  0  0  0  0  0  0  0  0  0  0
   12.2372  -16.6694   24.2263 C   0  0  0  0  0  0  0  0  0  0  0  0
   12.6954  -16.5069   25.5231 O   0  0  0  0  0  0  0  0  0  0  0  0
   13.0499  -16.4898   23.2892 O   0  0  0  0  0  0  0  0  0  0  0  0
  2  3  1  0
  2  1  1  6
  3  4  1  0
  5  2  1  0
  5  6  2  0
  7  5  1  0
  8 11  1  0
  8  7  1  0
  8  9  1  1
 10  9  1  0
 11 13  1  0
 12 11  2  0
 13 14  1  0
 14 15  1  0
 15 17  2  0
 15 16  1  0
M  END
$$$$
