CCG.pdb
     RDKit          3D

 17 16  0  0  1  0  0  0  0  0999 V2000
    5.6730  -16.7757   20.5266 N   0  0  0  0  0  0  0  0  0  0  0  0
    5.5048  -16.7617   21.9455 C   0  0  1  0  0  0  0  0  0  0  0  0
    5.1283  -18.1431   22.4167 C   0  0  0  0  0  0  0  0  0  0  0  0
    3.3873  -18.5089   22.1466 S   0  0  0  0  0  0  0  0  0  0  0  0
    6.6920  -16.2312   22.6631 C   0  0  0  0  0  0  0  0  0  0  0  0
    7.8238  -16.2858   22.1180 O   0  0  0  0  0  0  0  0  0  0  0  0
    6.6282  -15.6524   23.9565 N   0  0  0  0  0  0  0  0  0  0  0  0
    7.7752  -15.1676   24.6705 C   0  0  1  0  0  0  0  0  0  0  0  0
    7.3234  -14.2729   25.8326 C   0  0  0  0  0  0  0  0  0  0  0  0
    8.8056  -13.7007   26.6955 S   0  0  0  0  0  0  0  0  0  0  0  0
    8.5950  -16.2450   25.2568 C   0  0  0  0  0  0  0  0  0  0  0  0
    8.0253  -17.0838   26.0011 O   0  0  0  0  0  0  0  0  0  0  0  0
    9.9818  -16.3921   25.0333 N   0  0  0  0  0  0  0  0  0  0  0  0
   10.7469  -17.5345   25.4887 C   0  0  0  0  0  0  0  0  0  0  0  0
   12.1764  -17.4184   25.1152 C   0  0  0  0  0  0  0  0  0  0  0  0
   13.1721  -17.7592   26.0154 O   0  0  0  0  0  0  0  0  0  0  0  0
   12.5234  -17.0112   23.9818 O   0  0  0  0  0  0  0  0  0  0  0  0
  2  3  1  0
  2  1  1  6
  3  4  1  0
  5  2  1  0
  5  6  2  0
  7  5  1  0
  8 11  1  0
  8  7  1  0
  8  9  1  1
 10  9  1  0
 11 13  1  0
 12 11  2  0
 13 14  1  0
 14 15  1  0
 15 17  2  0
 15 16  1  0
M  END
$$$$
