CCG.pdb
     RDKit          3D

 17 16  0  0  1  0  0  0  0  0999 V2000
    8.2627  -13.9138   20.9274 N   0  0  0  0  0  0  0  0  0  0  0  0
    7.4723  -14.4501   21.9902 C   0  0  1  0  0  0  0  0  0  0  0  0
    6.9651  -15.8135   21.5954 C   0  0  0  0  0  0  0  0  0  0  0  0
    5.7792  -15.7393   20.2442 S   0  0  0  0  0  0  0  0  0  0  0  0
    8.1918  -14.4765   23.2892 C   0  0  0  0  0  0  0  0  0  0  0  0
    9.4394  -14.6316   23.3059 O   0  0  0  0  0  0  0  0  0  0  0  0
    7.5444  -14.3343   24.5433 N   0  0  0  0  0  0  0  0  0  0  0  0
    8.2211  -14.4316   25.8054 C   0  0  1  0  0  0  0  0  0  0  0  0
    7.3378  -13.8445   26.9147 C   0  0  0  0  0  0  0  0  0  0  0  0
    7.0151  -12.1137   26.5035 S   0  0  0  0  0  0  0  0  0  0  0  0
    8.5282  -15.8206   26.1965 C   0  0  0  0  0  0  0  0  0  0  0  0
    7.6044  -16.6717   26.1319 O   0  0  0  0  0  0  0  0  0  0  0  0
    9.7976  -16.2534   26.6395 N   0  0  0  0  0  0  0  0  0  0  0  0
   10.1249  -17.6420   26.8897 C   0  0  0  0  0  0  0  0  0  0  0  0
   10.4677  -17.8744   28.3128 C   0  0  0  0  0  0  0  0  0  0  0  0
   10.8475  -19.1316   28.7521 O   0  0  0  0  0  0  0  0  0  0  0  0
   10.4241  -16.9464   29.1541 O   0  0  0  0  0  0  0  0  0  0  0  0
  2  3  1  0
  2  1  1  6
  3  4  1  0
  5  2  1  0
  5  6  2  0
  7  5  1  0
  8 11  1  0
  8  7  1  0
  8  9  1  1
 10  9  1  0
 11 13  1  0
 12 11  2  0
 13 14  1  0
 14 15  1  0
 15 17  2  0
 15 16  1  0
M  END
$$$$
