CCG.pdb
     RDKit          3D

 17 16  0  0  1  0  0  0  0  0999 V2000
    7.8022  -12.8578   19.0895 N   0  0  0  0  0  0  0  0  0  0  0  0
    7.2022  -13.7245   20.0543 C   0  0  1  0  0  0  0  0  0  0  0  0
    7.0071  -15.0894   19.4452 C   0  0  0  0  0  0  0  0  0  0  0  0
    6.2883  -16.2617   20.6057 S   0  0  0  0  0  0  0  0  0  0  0  0
    7.9623  -13.7851   21.3288 C   0  0  0  0  0  0  0  0  0  0  0  0
    9.2159  -13.6892   21.3103 O   0  0  0  0  0  0  0  0  0  0  0  0
    7.3482  -13.9482   22.5969 N   0  0  0  0  0  0  0  0  0  0  0  0
    8.0789  -14.1293   23.8191 C   0  0  1  0  0  0  0  0  0  0  0  0
    7.1256  -14.0123   25.0162 C   0  0  0  0  0  0  0  0  0  0  0  0
    6.4946  -12.3185   25.0541 S   0  0  0  0  0  0  0  0  0  0  0  0
    8.7281  -15.4503   23.9198 C   0  0  0  0  0  0  0  0  0  0  0  0
    8.0115  -16.4742   23.7781 O   0  0  0  0  0  0  0  0  0  0  0  0
   10.1065  -15.6355   24.1659 N   0  0  0  0  0  0  0  0  0  0  0  0
   10.7158  -16.9358   24.3551 C   0  0  0  0  0  0  0  0  0  0  0  0
   11.8878  -17.1241   23.4677 C   0  0  0  0  0  0  0  0  0  0  0  0
   12.2431  -16.1498   22.5499 O   0  0  0  0  0  0  0  0  0  0  0  0
   12.5865  -18.1632   23.5216 O   0  0  0  0  0  0  0  0  0  0  0  0
  2  3  1  0
  2  1  1  6
  3  4  1  0
  5  2  1  0
  5  6  2  0
  7  5  1  0
  8 11  1  0
  8  7  1  0
  8  9  1  1
 10  9  1  0
 11 13  1  0
 12 11  2  0
 13 14  1  0
 14 15  1  0
 15 17  2  0
 15 16  1  0
M  END
$$$$
