CCG.pdb
     RDKit          3D

 17 16  0  0  1  0  0  0  0  0999 V2000
    5.2537  -18.7238   20.1439 N   0  0  0  0  0  0  0  0  0  0  0  0
    5.1744  -17.5501   20.9550 C   0  0  1  0  0  0  0  0  0  0  0  0
    3.8654  -17.5479   21.7024 C   0  0  0  0  0  0  0  0  0  0  0  0
    3.0686  -19.1612   21.6945 S   0  0  0  0  0  0  0  0  0  0  0  0
    6.3376  -17.3970   21.8656 C   0  0  0  0  0  0  0  0  0  0  0  0
    7.1909  -18.3173   21.9444 O   0  0  0  0  0  0  0  0  0  0  0  0
    6.5522  -16.2500   22.6720 N   0  0  0  0  0  0  0  0  0  0  0  0
    7.7039  -16.0682   23.5093 C   0  0  1  0  0  0  0  0  0  0  0  0
    7.9189  -14.5727   23.7788 C   0  0  0  0  0  0  0  0  0  0  0  0
    6.5388  -13.9918   24.7921 S   0  0  0  0  0  0  0  0  0  0  0  0
    7.5773  -16.7237   24.8249 C   0  0  0  0  0  0  0  0  0  0  0  0
    6.4649  -16.6680   25.4093 O   0  0  0  0  0  0  0  0  0  0  0  0
    8.6300  -17.4106   25.4689 N   0  0  0  0  0  0  0  0  0  0  0  0
    8.4719  -18.1191   26.7223 C   0  0  0  0  0  0  0  0  0  0  0  0
    9.7609  -18.6680   27.2057 C   0  0  0  0  0  0  0  0  0  0  0  0
    9.8270  -19.3728   28.3960 O   0  0  0  0  0  0  0  0  0  0  0  0
   10.8212  -18.5113   26.5560 O   0  0  0  0  0  0  0  0  0  0  0  0
  2  3  1  0
  2  1  1  1
  3  4  1  0
  5  2  1  0
  5  6  2  0
  7  5  1  0
  8 11  1  0
  8  7  1  0
  8  9  1  1
 10  9  1  0
 11 13  1  0
 12 11  2  0
 13 14  1  0
 14 15  1  0
 15 17  2  0
 15 16  1  0
M  END
$$$$
