VGR.pdb
     RDKit          3D

 23 22  0  0  1  0  0  0  0  0999 V2000
   26.1435  -20.2595  -17.0213 C   0  0  0  0  0  0  0  0  0  0  0  0
   27.6424  -20.1383  -17.1668 C   0  0  2  0  0  0  0  0  0  0  0  0
   28.1117  -20.7042  -18.4903 C   0  0  0  0  0  0  0  0  0  0  0  0
   28.3243  -20.8590  -16.0064 C   0  0  2  0  0  0  0  0  0  0  0  0
   28.0268  -22.2698  -16.0652 N   0  0  0  0  0  0  0  0  0  0  0  0
   27.8431  -20.3203  -14.7110 C   0  0  0  0  0  0  0  0  0  0  0  0
   28.0286  -19.0919  -14.4251 O   0  0  0  0  0  0  0  0  0  0  0  0
   27.1744  -21.1277  -13.7628 N   0  0  0  0  0  0  0  0  0  0  0  0
   26.5918  -20.5724  -12.5673 C   0  0  0  0  0  0  0  0  0  0  0  0
   25.1415  -20.9266  -12.5103 C   0  0  0  0  0  0  0  0  0  0  0  0
   24.5829  -21.4142  -13.5332 O   0  0  0  0  0  0  0  0  0  0  0  0
   20.0903  -23.6188   -6.8106 N   0  0  0  0  0  0  0  0  0  0  0  0
   19.0143  -23.1963   -7.6443 C   0  0  0  0  0  0  0  0  0  0  0  0
   17.9628  -23.9316   -7.7074 N   0  0  0  0  0  0  0  0  0  0  0  0
   19.1348  -21.9846   -8.3750 N   0  0  0  0  0  0  0  0  0  0  0  0
   20.4410  -21.3502   -8.4420 C   0  0  0  0  0  0  0  0  0  0  0  0
   21.0121  -21.6166   -9.8237 C   0  0  0  0  0  0  0  0  0  0  0  0
   22.3654  -20.9665   -9.9371 C   0  0  0  0  0  0  0  0  0  0  0  0
   23.0060  -21.2007  -11.2867 C   0  0  2  0  0  0  0  0  0  0  0  0
   24.3632  -20.7339  -11.3415 N   0  0  0  0  0  0  0  0  0  0  0  0
   22.1788  -20.4798  -12.2741 C   0  0  0  0  0  0  0  0  0  0  0  0
   21.0800  -21.1090  -12.8130 O   0  0  0  0  0  0  0  0  0  0  0  0
   22.4558  -19.3176  -12.6271 O   0  0  0  0  0  0  0  0  0  0  0  0
  2  1  1  1
  3  2  1  0
  4  2  1  0
  4  5  1  1
  6  4  1  0
  7  6  2  0
  8  6  1  0
  9  8  1  0
 10  9  1  0
 10 20  1  0
 11 10  2  0
 13 12  1  0
 14 13  2  0
 15 13  1  0
 16 15  1  0
 17 16  1  0
 18 17  1  0
 19 18  1  1
 19 21  1  0
 20 19  1  0
 21 23  2  0
 21 22  1  0
M  END
$$$$
