VGR.pdb
     RDKit          3D

 23 22  0  0  1  0  0  0  0  0999 V2000
   28.0560  -16.7521  -16.4149 C   0  0  0  0  0  0  0  0  0  0  0  0
   28.4657  -17.5545  -17.6277 C   0  0  2  0  0  0  0  0  0  0  0  0
   28.2946  -16.7509  -18.8993 C   0  0  0  0  0  0  0  0  0  0  0  0
   27.6383  -18.8360  -17.6909 C   0  0  2  0  0  0  0  0  0  0  0  0
   26.2363  -18.5080  -17.7877 N   0  0  0  0  0  0  0  0  0  0  0  0
   27.8575  -19.6517  -16.4715 C   0  0  0  0  0  0  0  0  0  0  0  0
   28.9751  -20.2377  -16.2913 O   0  0  0  0  0  0  0  0  0  0  0  0
   26.8598  -19.8086  -15.4825 N   0  0  0  0  0  0  0  0  0  0  0  0
   27.1250  -20.4793  -14.2348 C   0  0  0  0  0  0  0  0  0  0  0  0
   25.9183  -20.3933  -13.3581 C   0  0  0  0  0  0  0  0  0  0  0  0
   25.7346  -19.3580  -12.6579 O   0  0  0  0  0  0  0  0  0  0  0  0
   19.1911  -24.3218  -10.2198 N   0  0  0  0  0  0  0  0  0  0  0  0
   18.5009  -23.3536  -11.0056 C   0  0  0  0  0  0  0  0  0  0  0  0
   17.3296  -22.9825  -10.6309 N   0  0  0  0  0  0  0  0  0  0  0  0
   19.1232  -22.8315  -12.1704 N   0  0  0  0  0  0  0  0  0  0  0  0
   20.4813  -23.2535  -12.4712 C   0  0  0  0  0  0  0  0  0  0  0  0
   21.3878  -22.0479  -12.2950 C   0  0  0  0  0  0  0  0  0  0  0  0
   22.7898  -22.4149  -12.7031 C   0  0  0  0  0  0  0  0  0  0  0  0
   23.7629  -21.2732  -12.5136 C   0  0  2  0  0  0  0  0  0  0  0  0
   24.9645  -21.4391  -13.2826 N   0  0  0  0  0  0  0  0  0  0  0  0
   24.0817  -21.2287  -11.0731 C   0  0  0  0  0  0  0  0  0  0  0  0
   23.3904  -20.3586  -10.2615 O   0  0  0  0  0  0  0  0  0  0  0  0
   24.9610  -21.9609  -10.5806 O   0  0  0  0  0  0  0  0  0  0  0  0
  2  1  1  1
  3  2  1  0
  4  2  1  0
  4  5  1  1
  6  4  1  0
  7  6  2  0
  8  6  1  0
  9  8  1  0
 10  9  1  0
 10 20  1  0
 11 10  2  0
 13 12  1  0
 14 13  2  0
 15 13  1  0
 16 15  1  0
 17 16  1  0
 18 17  1  0
 19 18  1  1
 19 21  1  0
 20 19  1  0
 21 23  2  0
 21 22  1  0
M  END
$$$$
