VGR.pdb
     RDKit          3D

 23 22  0  0  1  0  0  0  0  0999 V2000
   19.4165  -20.1286  -17.8365 C   0  0  0  0  0  0  0  0  0  0  0  0
   20.4709  -19.2287  -18.4373 C   0  0  2  0  0  0  0  0  0  0  0  0
   20.5372  -19.3910  -19.9411 C   0  0  0  0  0  0  0  0  0  0  0  0
   21.8252  -19.5431  -17.8064 C   0  0  2  0  0  0  0  0  0  0  0  0
   22.2029  -20.9019  -18.1122 N   0  0  0  0  0  0  0  0  0  0  0  0
   21.7569  -19.3836  -16.3333 C   0  0  0  0  0  0  0  0  0  0  0  0
   21.5341  -18.2347  -15.8280 O   0  0  0  0  0  0  0  0  0  0  0  0
   21.9316  -20.4734  -15.4502 N   0  0  0  0  0  0  0  0  0  0  0  0
   21.9356  -20.2997  -14.0195 C   0  0  0  0  0  0  0  0  0  0  0  0
   23.3451  -20.1939  -13.5355 C   0  0  0  0  0  0  0  0  0  0  0  0
   24.2395  -19.7731  -14.3222 O   0  0  0  0  0  0  0  0  0  0  0  0
   27.3766  -19.3839   -5.8301 N   0  0  0  0  0  0  0  0  0  0  0  0
   28.4391  -19.7567   -6.7038 C   0  0  0  0  0  0  0  0  0  0  0  0
   29.6394  -19.7513   -6.2462 N   0  0  0  0  0  0  0  0  0  0  0  0
   28.1423  -20.1203   -8.0441 N   0  0  0  0  0  0  0  0  0  0  0  0
   26.7459  -20.2242   -8.4343 C   0  0  0  0  0  0  0  0  0  0  0  0
   26.7052  -20.6573   -9.8893 C   0  0  0  0  0  0  0  0  0  0  0  0
   25.2715  -20.7844  -10.3314 C   0  0  0  0  0  0  0  0  0  0  0  0
   25.0871  -20.4462  -11.7936 C   0  0  2  0  0  0  0  0  0  0  0  0
   23.7183  -20.5513  -12.2157 N   0  0  0  0  0  0  0  0  0  0  0  0
   25.9286  -21.3925  -12.5521 C   0  0  0  0  0  0  0  0  0  0  0  0
   27.2454  -21.0729  -12.7919 O   0  0  0  0  0  0  0  0  0  0  0  0
   25.4707  -22.4702  -12.9773 O   0  0  0  0  0  0  0  0  0  0  0  0
  2  1  1  1
  3  2  1  0
  4  2  1  0
  4  5  1  1
  6  4  1  0
  7  6  2  0
  8  6  1  0
  9  8  1  0
 10  9  1  0
 10 20  1  0
 11 10  2  0
 13 12  1  0
 14 13  2  0
 15 13  1  0
 16 15  1  0
 17 16  1  0
 18 17  1  0
 19 18  1  1
 19 21  1  0
 20 19  1  0
 21 23  2  0
 21 22  1  0
M  END
$$$$
