VGR.pdb
     RDKit          3D

 23 22  0  0  1  0  0  0  0  0999 V2000
   23.3805  -17.2746  -21.0536 C   0  0  0  0  0  0  0  0  0  0  0  0
   22.5374  -18.2380  -20.2515 C   0  0  2  0  0  0  0  0  0  0  0  0
   21.1090  -17.7500  -20.1353 C   0  0  0  0  0  0  0  0  0  0  0  0
   23.1537  -18.4192  -18.8665 C   0  0  2  0  0  0  0  0  0  0  0  0
   23.0838  -17.1775  -18.1345 N   0  0  0  0  0  0  0  0  0  0  0  0
   24.5747  -18.8279  -18.9842 C   0  0  0  0  0  0  0  0  0  0  0  0
   24.8684  -19.9841  -19.4334 O   0  0  0  0  0  0  0  0  0  0  0  0
   25.6364  -17.9720  -18.6121 N   0  0  0  0  0  0  0  0  0  0  0  0
   27.0157  -18.3591  -18.7693 C   0  0  0  0  0  0  0  0  0  0  0  0
   27.4513  -19.1430  -17.5744 C   0  0  0  0  0  0  0  0  0  0  0  0
   28.6666  -19.4671  -17.4562 O   0  0  0  0  0  0  0  0  0  0  0  0
   23.8597  -20.8292   -9.5709 N   0  0  0  0  0  0  0  0  0  0  0  0
   25.2764  -20.8702   -9.4198 C   0  0  0  0  0  0  0  0  0  0  0  0
   25.7651  -20.9165   -8.2328 N   0  0  0  0  0  0  0  0  0  0  0  0
   26.0998  -20.8587  -10.5768 N   0  0  0  0  0  0  0  0  0  0  0  0
   25.5112  -20.4284  -11.8343 C   0  0  0  0  0  0  0  0  0  0  0  0
   26.5918  -20.5046  -12.8986 C   0  0  0  0  0  0  0  0  0  0  0  0
   26.0624  -19.9350  -14.1878 C   0  0  0  0  0  0  0  0  0  0  0  0
   27.0267  -20.1183  -15.3380 C   0  0  2  0  0  0  0  0  0  0  0  0
   26.5436  -19.5396  -16.5605 N   0  0  0  0  0  0  0  0  0  0  0  0
   27.2125  -21.5735  -15.5015 C   0  0  0  0  0  0  0  0  0  0  0  0
   28.2104  -22.2042  -14.7943 O   0  0  0  0  0  0  0  0  0  0  0  0
   26.4859  -22.2384  -16.2643 O   0  0  0  0  0  0  0  0  0  0  0  0
  2  1  1  6
  3  2  1  0
  4  2  1  0
  4  5  1  1
  6  4  1  0
  7  6  2  0
  8  6  1  0
  9  8  1  0
 10  9  1  0
 10 20  1  0
 11 10  2  0
 13 12  1  0
 14 13  2  0
 15 13  1  0
 16 15  1  0
 17 16  1  0
 18 17  1  0
 19 18  1  1
 19 21  1  0
 20 19  1  0
 21 23  2  0
 21 22  1  0
M  END
$$$$
