VGR.pdb
     RDKit          3D

 23 22  0  0  1  0  0  0  0  0999 V2000
   17.2599  -23.3397  -15.0160 C   0  0  0  0  0  0  0  0  0  0  0  0
   18.5203  -23.3515  -15.8488 C   0  0  2  0  0  0  0  0  0  0  0  0
   18.9582  -24.7671  -16.1594 C   0  0  0  0  0  0  0  0  0  0  0  0
   19.6246  -22.6017  -15.1078 C   0  0  2  0  0  0  0  0  0  0  0  0
   20.7499  -22.3952  -15.9873 N   0  0  0  0  0  0  0  0  0  0  0  0
   20.0738  -23.3801  -13.9279 C   0  0  0  0  0  0  0  0  0  0  0  0
   21.1781  -24.0157  -13.9685 O   0  0  0  0  0  0  0  0  0  0  0  0
   19.3140  -23.4472  -12.7378 N   0  0  0  0  0  0  0  0  0  0  0  0
   19.7942  -24.1368  -11.5670 C   0  0  0  0  0  0  0  0  0  0  0  0
   19.6150  -25.6089  -11.7486 C   0  0  0  0  0  0  0  0  0  0  0  0
   18.9949  -26.0363  -12.7629 O   0  0  0  0  0  0  0  0  0  0  0  0
   21.9844  -33.7960  -10.2202 N   0  0  0  0  0  0  0  0  0  0  0  0
   22.9354  -32.9502  -10.8619 C   0  0  0  0  0  0  0  0  0  0  0  0
   23.7893  -33.4832  -11.6600 N   0  0  0  0  0  0  0  0  0  0  0  0
   22.9116  -31.5543  -10.6022 N   0  0  0  0  0  0  0  0  0  0  0  0
   21.8522  -31.0313   -9.7554 C   0  0  0  0  0  0  0  0  0  0  0  0
   20.8976  -30.2503  -10.6414 C   0  0  0  0  0  0  0  0  0  0  0  0
   20.9637  -28.7903  -10.2795 C   0  0  0  0  0  0  0  0  0  0  0  0
   19.9633  -27.9594  -11.0510 C   0  0  2  0  0  0  0  0  0  0  0  0
   20.1193  -26.5508  -10.8172 N   0  0  0  0  0  0  0  0  0  0  0  0
   18.6248  -28.4033  -10.6150 C   0  0  0  0  0  0  0  0  0  0  0  0
   17.9982  -29.4159  -11.3047 O   0  0  0  0  0  0  0  0  0  0  0  0
   18.0543  -27.8806   -9.6386 O   0  0  0  0  0  0  0  0  0  0  0  0
  2  1  1  1
  3  2  1  0
  4  2  1  0
  4  5  1  6
  6  4  1  0
  7  6  2  0
  8  6  1  0
  9  8  1  0
 10  9  1  0
 10 20  1  0
 11 10  2  0
 13 12  1  0
 14 13  2  0
 15 13  1  0
 16 15  1  0
 17 16  1  0
 18 17  1  0
 19 18  1  1
 19 21  1  0
 20 19  1  0
 21 23  2  0
 21 22  1  0
M  END
$$$$
