VGR.pdb
     RDKit          3D

 23 22  0  0  1  0  0  0  0  0999 V2000
   19.3297  -22.3917  -15.7892 C   0  0  0  0  0  0  0  0  0  0  0  0
   19.2855  -22.4244  -14.2794 C   0  0  2  0  0  0  0  0  0  0  0  0
   19.1027  -23.8373  -13.7673 C   0  0  0  0  0  0  0  0  0  0  0  0
   18.1530  -21.5273  -13.7858 C   0  0  2  0  0  0  0  0  0  0  0  0
   18.3415  -20.1852  -14.2816 N   0  0  0  0  0  0  0  0  0  0  0  0
   18.1317  -21.4929  -12.3031 C   0  0  0  0  0  0  0  0  0  0  0  0
   18.8510  -20.6474  -11.6765 O   0  0  0  0  0  0  0  0  0  0  0  0
   17.3314  -22.3752  -11.5421 N   0  0  0  0  0  0  0  0  0  0  0  0
   17.3851  -22.4000  -10.1021 C   0  0  0  0  0  0  0  0  0  0  0  0
   18.0296  -23.6700   -9.6506 C   0  0  0  0  0  0  0  0  0  0  0  0
   18.4335  -24.4997  -10.5133 O   0  0  0  0  0  0  0  0  0  0  0  0
   16.9528  -25.6183   -1.6010 N   0  0  0  0  0  0  0  0  0  0  0  0
   16.1227  -26.4284   -2.4293 C   0  0  0  0  0  0  0  0  0  0  0  0
   15.1239  -27.0320   -1.8925 N   0  0  0  0  0  0  0  0  0  0  0  0
   16.4215  -26.5436   -3.8128 N   0  0  0  0  0  0  0  0  0  0  0  0
   17.6234  -25.8962   -4.3121 C   0  0  0  0  0  0  0  0  0  0  0  0
   17.6847  -26.1318   -5.8111 C   0  0  0  0  0  0  0  0  0  0  0  0
   18.8643  -25.3919   -6.3838 C   0  0  0  0  0  0  0  0  0  0  0  0
   18.7750  -25.2390   -7.8855 C   0  0  2  0  0  0  0  0  0  0  0  0
   18.2058  -23.9803   -8.2788 N   0  0  0  0  0  0  0  0  0  0  0  0
   17.9356  -26.3519   -8.3710 C   0  0  0  0  0  0  0  0  0  0  0  0
   18.5204  -27.5732   -8.6163 O   0  0  0  0  0  0  0  0  0  0  0  0
   16.7132  -26.2067   -8.5621 O   0  0  0  0  0  0  0  0  0  0  0  0
  2  1  1  6
  3  2  1  0
  4  2  1  0
  4  5  1  6
  6  4  1  0
  7  6  2  0
  8  6  1  0
  9  8  1  0
 10  9  1  0
 10 20  1  0
 11 10  2  0
 13 12  1  0
 14 13  2  0
 15 13  1  0
 16 15  1  0
 17 16  1  0
 18 17  1  0
 19 18  1  1
 19 21  1  0
 20 19  1  0
 21 23  2  0
 21 22  1  0
M  END
$$$$
