VGR.pdb
     RDKit          3D

 23 22  0  0  1  0  0  0  0  0999 V2000
   24.2918  -19.3076  -17.1703 C   0  0  0  0  0  0  0  0  0  0  0  0
   25.3825  -18.3346  -17.5523 C   0  0  2  0  0  0  0  0  0  0  0  0
   25.0418  -17.6060  -18.8350 C   0  0  0  0  0  0  0  0  0  0  0  0
   26.7033  -19.0860  -17.7001 C   0  0  2  0  0  0  0  0  0  0  0  0
   26.5644  -20.1282  -18.6884 N   0  0  0  0  0  0  0  0  0  0  0  0
   27.0948  -19.6991  -16.4074 C   0  0  0  0  0  0  0  0  0  0  0  0
   27.3335  -18.9574  -15.3985 O   0  0  0  0  0  0  0  0  0  0  0  0
   27.2161  -21.0980  -16.2450 N   0  0  0  0  0  0  0  0  0  0  0  0
   27.5361  -21.6906  -14.9708 C   0  0  0  0  0  0  0  0  0  0  0  0
   26.3001  -21.7702  -14.1353 C   0  0  0  0  0  0  0  0  0  0  0  0
   26.3651  -22.2794  -12.9810 O   0  0  0  0  0  0  0  0  0  0  0  0
   24.2702  -20.3473   -8.8341 N   0  0  0  0  0  0  0  0  0  0  0  0
   25.6947  -20.3490   -8.7890 C   0  0  0  0  0  0  0  0  0  0  0  0
   26.2717  -20.4850   -7.6494 N   0  0  0  0  0  0  0  0  0  0  0  0
   26.4290  -20.2014   -9.9956 N   0  0  0  0  0  0  0  0  0  0  0  0
   25.7181  -19.7526  -11.1815 C   0  0  0  0  0  0  0  0  0  0  0  0
   24.5922  -20.7374  -11.4438 C   0  0  0  0  0  0  0  0  0  0  0  0
   23.8478  -20.3239  -12.6855 C   0  0  0  0  0  0  0  0  0  0  0  0
   23.8824  -21.3878  -13.7594 C   0  0  2  0  0  0  0  0  0  0  0  0
   25.0473  -21.2915  -14.5940 N   0  0  0  0  0  0  0  0  0  0  0  0
   22.6602  -21.2077  -14.5673 C   0  0  0  0  0  0  0  0  0  0  0  0
   21.4708  -21.7230  -14.1052 O   0  0  0  0  0  0  0  0  0  0  0  0
   22.6854  -20.6006  -15.6549 O   0  0  0  0  0  0  0  0  0  0  0  0
  2  1  1  6
  3  2  1  0
  4  2  1  0
  4  5  1  6
  6  4  1  0
  7  6  2  0
  8  6  1  0
  9  8  1  0
 10  9  1  0
 10 20  1  0
 11 10  2  0
 13 12  1  0
 14 13  2  0
 15 13  1  0
 16 15  1  0
 17 16  1  0
 18 17  1  0
 19 18  1  1
 19 21  1  0
 20 19  1  0
 21 23  2  0
 21 22  1  0
M  END
$$$$
