VGR.pdb
     RDKit          3D

 23 22  0  0  1  0  0  0  0  0999 V2000
   30.7023  -16.9744  -18.7097 C   0  0  0  0  0  0  0  0  0  0  0  0
   29.4339  -16.8700  -19.5237 C   0  0  2  0  0  0  0  0  0  0  0  0
   28.8840  -15.4595  -19.5023 C   0  0  0  0  0  0  0  0  0  0  0  0
   28.4006  -17.8539  -18.9807 C   0  0  2  0  0  0  0  0  0  0  0  0
   27.2272  -17.8431  -19.8206 N   0  0  0  0  0  0  0  0  0  0  0  0
   28.0068  -17.4785  -17.6008 C   0  0  0  0  0  0  0  0  0  0  0  0
   27.8414  -16.2512  -17.2987 O   0  0  0  0  0  0  0  0  0  0  0  0
   27.8033  -18.4435  -16.5882 N   0  0  0  0  0  0  0  0  0  0  0  0
   27.5201  -18.0681  -15.2259 C   0  0  0  0  0  0  0  0  0  0  0  0
   27.1269  -19.2812  -14.4475 C   0  0  0  0  0  0  0  0  0  0  0  0
   27.1873  -20.4164  -14.9984 O   0  0  0  0  0  0  0  0  0  0  0  0
   23.1743  -20.5370   -6.5139 N   0  0  0  0  0  0  0  0  0  0  0  0
   22.8024  -21.6434   -7.3319 C   0  0  0  0  0  0  0  0  0  0  0  0
   21.9061  -22.4539   -6.8960 N   0  0  0  0  0  0  0  0  0  0  0  0
   23.4285  -21.8162   -8.5947 N   0  0  0  0  0  0  0  0  0  0  0  0
   24.2326  -20.7241   -9.1177 C   0  0  0  0  0  0  0  0  0  0  0  0
   24.6850  -21.1129  -10.5143 C   0  0  0  0  0  0  0  0  0  0  0  0
   25.4591  -19.9737  -11.1225 C   0  0  0  0  0  0  0  0  0  0  0  0
   25.9624  -20.2955  -12.5116 C   0  0  2  0  0  0  0  0  0  0  0  0
   26.6853  -19.2043  -13.1029 N   0  0  0  0  0  0  0  0  0  0  0  0
   24.7730  -20.6187  -13.3239 C   0  0  0  0  0  0  0  0  0  0  0  0
   24.4920  -21.9364  -13.6038 O   0  0  0  0  0  0  0  0  0  0  0  0
   24.0224  -19.7247  -13.7589 O   0  0  0  0  0  0  0  0  0  0  0  0
  2  1  1  1
  3  2  1  0
  4  2  1  0
  4  5  1  6
  6  4  1  0
  7  6  2  0
  8  6  1  0
  9  8  1  0
 10  9  1  0
 10 20  1  0
 11 10  2  0
 13 12  1  0
 14 13  2  0
 15 13  1  0
 16 15  1  0
 17 16  1  0
 18 17  1  0
 19 18  1  1
 19 21  1  0
 20 19  1  0
 21 23  2  0
 21 22  1  0
M  END
$$$$
