VGR.pdb
     RDKit          3D

 23 22  0  0  1  0  0  0  0  0999 V2000
   13.6009  -11.1705  -14.4610 C   0  0  0  0  0  0  0  0  0  0  0  0
   13.7022  -12.5393  -15.0923 C   0  0  2  0  0  0  0  0  0  0  0  0
   12.9974  -13.5833  -14.2523 C   0  0  0  0  0  0  0  0  0  0  0  0
   15.1730  -12.9056  -15.2752 C   0  0  2  0  0  0  0  0  0  0  0  0
   15.7950  -13.0883  -13.9859 N   0  0  0  0  0  0  0  0  0  0  0  0
   15.8857  -11.8280  -16.0038 C   0  0  0  0  0  0  0  0  0  0  0  0
   15.5684  -11.5578  -17.2085 O   0  0  0  0  0  0  0  0  0  0  0  0
   16.9213  -11.0740  -15.4062 N   0  0  0  0  0  0  0  0  0  0  0  0
   17.6247  -10.0432  -16.1271 C   0  0  0  0  0  0  0  0  0  0  0  0
   18.6516   -9.4252  -15.2352 C   0  0  0  0  0  0  0  0  0  0  0  0
   18.5096   -9.5015  -13.9822 O   0  0  0  0  0  0  0  0  0  0  0  0
   25.0005  -11.4122  -15.2898 N   0  0  0  0  0  0  0  0  0  0  0  0
   24.7344  -11.5548  -16.6827 C   0  0  0  0  0  0  0  0  0  0  0  0
   24.8764  -12.7137  -17.2183 N   0  0  0  0  0  0  0  0  0  0  0  0
   24.3233  -10.4206  -17.4319 N   0  0  0  0  0  0  0  0  0  0  0  0
   23.9856   -9.2056  -16.7090 C   0  0  0  0  0  0  0  0  0  0  0  0
   22.6030   -9.3952  -16.1099 C   0  0  0  0  0  0  0  0  0  0  0  0
   22.1400   -8.0967  -15.5045 C   0  0  0  0  0  0  0  0  0  0  0  0
   20.7793   -8.2160  -14.8560 C   0  0  2  0  0  0  0  0  0  0  0  0
   19.7884   -8.7510  -15.7475 N   0  0  0  0  0  0  0  0  0  0  0  0
   20.3983   -6.8557  -14.4278 C   0  0  0  0  0  0  0  0  0  0  0  0
   20.9877   -6.3176  -13.3068 O   0  0  0  0  0  0  0  0  0  0  0  0
   19.5569   -6.1887  -15.0596 O   0  0  0  0  0  0  0  0  0  0  0  0
  2  1  1  1
  3  2  1  0
  4  2  1  0
  4  5  1  1
  6  4  1  0
  7  6  2  0
  8  6  1  0
  9  8  1  0
 10  9  1  0
 10 20  1  0
 11 10  2  0
 13 12  1  0
 14 13  2  0
 15 13  1  0
 16 15  1  0
 17 16  1  0
 18 17  1  0
 19 18  1  6
 19 21  1  0
 20 19  1  0
 21 23  2  0
 21 22  1  0
M  END
$$$$
