VGR.pdb
     RDKit          3D

 23 22  0  0  1  0  0  0  0  0999 V2000
   26.9951  -20.5058   -4.8036 C   0  0  0  0  0  0  0  0  0  0  0  0
   28.4042  -20.0861   -5.1509 C   0  0  2  0  0  0  0  0  0  0  0  0
   28.9718  -19.1529   -4.1024 C   0  0  0  0  0  0  0  0  0  0  0  0
   28.4098  -19.4146   -6.5220 C   0  0  2  0  0  0  0  0  0  0  0  0
   27.5930  -18.2255   -6.4870 N   0  0  0  0  0  0  0  0  0  0  0  0
   27.8703  -20.3377   -7.5501 C   0  0  0  0  0  0  0  0  0  0  0  0
   28.3134  -21.5304   -7.6288 O   0  0  0  0  0  0  0  0  0  0  0  0
   26.8660  -19.9422   -8.4628 N   0  0  0  0  0  0  0  0  0  0  0  0
   26.3645  -20.8362   -9.4759 C   0  0  0  0  0  0  0  0  0  0  0  0
   24.8858  -20.6648   -9.6022 C   0  0  0  0  0  0  0  0  0  0  0  0
   24.1516  -20.8602   -8.5929 O   0  0  0  0  0  0  0  0  0  0  0  0
   25.3114  -18.8260  -16.4188 N   0  0  0  0  0  0  0  0  0  0  0  0
   23.9266  -19.0847  -16.6357 C   0  0  0  0  0  0  0  0  0  0  0  0
   23.4275  -18.8217  -17.7898 N   0  0  0  0  0  0  0  0  0  0  0  0
   23.1454  -19.6214  -15.5782 N   0  0  0  0  0  0  0  0  0  0  0  0
   23.7578  -19.7435  -14.2656 C   0  0  0  0  0  0  0  0  0  0  0  0
   22.7320  -20.3664  -13.3349 C   0  0  0  0  0  0  0  0  0  0  0  0
   22.4423  -19.4149  -12.2045 C   0  0  0  0  0  0  0  0  0  0  0  0
   22.8726  -19.9651  -10.8634 C   0  0  2  0  0  0  0  0  0  0  0  0
   24.2715  -20.2880  -10.8228 N   0  0  0  0  0  0  0  0  0  0  0  0
   22.0629  -21.1766  -10.6280 C   0  0  0  0  0  0  0  0  0  0  0  0
   20.7704  -21.0399  -10.1758 O   0  0  0  0  0  0  0  0  0  0  0  0
   22.5258  -22.3154  -10.8300 O   0  0  0  0  0  0  0  0  0  0  0  0
  2  1  1  1
  3  2  1  0
  4  2  1  0
  4  5  1  1
  6  4  1  0
  7  6  2  0
  8  6  1  0
  9  8  1  0
 10  9  1  0
 10 20  1  0
 11 10  2  0
 13 12  1  0
 14 13  2  0
 15 13  1  0
 16 15  1  0
 17 16  1  0
 18 17  1  0
 19 18  1  6
 19 21  1  0
 20 19  1  0
 21 23  2  0
 21 22  1  0
M  END
$$$$
