VGR.pdb
     RDKit          3D

 23 22  0  0  1  0  0  0  0  0999 V2000
   21.0248  -16.7113  -19.2199 C   0  0  0  0  0  0  0  0  0  0  0  0
   20.2708  -16.8059  -17.9141 C   0  0  2  0  0  0  0  0  0  0  0  0
   19.5036  -15.5317  -17.6313 C   0  0  0  0  0  0  0  0  0  0  0  0
   21.2521  -17.1003  -16.7822 C   0  0  2  0  0  0  0  0  0  0  0  0
   22.1374  -15.9758  -16.5983 N   0  0  0  0  0  0  0  0  0  0  0  0
   22.0616  -18.3016  -17.1014 C   0  0  0  0  0  0  0  0  0  0  0  0
   21.5065  -19.4482  -17.1479 O   0  0  0  0  0  0  0  0  0  0  0  0
   23.4489  -18.2259  -17.3614 N   0  0  0  0  0  0  0  0  0  0  0  0
   24.2195  -19.3893  -17.7216 C   0  0  0  0  0  0  0  0  0  0  0  0
   25.2765  -19.6236  -16.6921 C   0  0  0  0  0  0  0  0  0  0  0  0
   25.9247  -18.6400  -16.2356 O   0  0  0  0  0  0  0  0  0  0  0  0
   26.0049  -21.3206   -9.3261 N   0  0  0  0  0  0  0  0  0  0  0  0
   24.7166  -21.0925   -9.8915 C   0  0  0  0  0  0  0  0  0  0  0  0
   23.6811  -21.2942   -9.1586 N   0  0  0  0  0  0  0  0  0  0  0  0
   24.6160  -20.6524  -11.2380 N   0  0  0  0  0  0  0  0  0  0  0  0
   25.7013  -20.9763  -12.1492 C   0  0  0  0  0  0  0  0  0  0  0  0
   25.1240  -21.8213  -13.2712 C   0  0  0  0  0  0  0  0  0  0  0  0
   26.2263  -22.2092  -14.2206 C   0  0  0  0  0  0  0  0  0  0  0  0
   26.5754  -21.0971  -15.1838 C   0  0  2  0  0  0  0  0  0  0  0  0
   25.5811  -20.9194  -16.2049 N   0  0  0  0  0  0  0  0  0  0  0  0
   27.8708  -21.4599  -15.7914 C   0  0  0  0  0  0  0  0  0  0  0  0
   29.0294  -21.2235  -15.0876 O   0  0  0  0  0  0  0  0  0  0  0  0
   27.9344  -21.9739  -16.9244 O   0  0  0  0  0  0  0  0  0  0  0  0
  2  1  1  6
  3  2  1  0
  4  2  1  0
  4  5  1  6
  6  4  1  0
  7  6  2  0
  8  6  1  0
  9  8  1  0
 10  9  1  0
 10 20  1  0
 11 10  2  0
 13 12  1  0
 14 13  2  0
 15 13  1  0
 16 15  1  0
 17 16  1  0
 18 17  1  0
 19 18  1  1
 19 21  1  0
 20 19  1  0
 21 23  2  0
 21 22  1  0
M  END
$$$$
