VGR.pdb
     RDKit          3D

 23 22  0  0  1  0  0  0  0  0999 V2000
   32.7796  -25.6627  -20.3414 C   0  0  0  0  0  0  0  0  0  0  0  0
   33.3984  -26.9944  -19.9861 C   0  0  2  0  0  0  0  0  0  0  0  0
   32.3460  -28.0784  -19.8875 C   0  0  0  0  0  0  0  0  0  0  0  0
   34.1567  -26.8654  -18.6673 C   0  0  2  0  0  0  0  0  0  0  0  0
   34.8633  -28.0922  -18.3880 N   0  0  0  0  0  0  0  0  0  0  0  0
   33.2141  -26.5903  -17.5556 C   0  0  0  0  0  0  0  0  0  0  0  0
   32.8648  -27.5320  -16.7707 O   0  0  0  0  0  0  0  0  0  0  0  0
   32.6774  -25.3029  -17.3261 N   0  0  0  0  0  0  0  0  0  0  0  0
   31.7812  -25.0372  -16.2292 C   0  0  0  0  0  0  0  0  0  0  0  0
   30.3816  -24.9412  -16.7429 C   0  0  0  0  0  0  0  0  0  0  0  0
   30.1739  -24.9996  -17.9877 O   0  0  0  0  0  0  0  0  0  0  0  0
   23.0873  -22.4355  -15.4528 N   0  0  0  0  0  0  0  0  0  0  0  0
   22.4659  -23.6895  -15.7229 C   0  0  0  0  0  0  0  0  0  0  0  0
   21.3005  -23.6922  -16.2631 N   0  0  0  0  0  0  0  0  0  0  0  0
   23.1479  -24.8897  -15.3896 N   0  0  0  0  0  0  0  0  0  0  0  0
   24.4702  -24.7858  -14.7949 C   0  0  0  0  0  0  0  0  0  0  0  0
   25.4836  -24.7667  -15.9259 C   0  0  0  0  0  0  0  0  0  0  0  0
   26.8742  -24.7892  -15.3492 C   0  0  0  0  0  0  0  0  0  0  0  0
   27.9417  -24.6742  -16.4139 C   0  0  2  0  0  0  0  0  0  0  0  0
   29.2695  -24.7856  -15.8780 N   0  0  0  0  0  0  0  0  0  0  0  0
   27.7581  -23.3553  -17.0508 C   0  0  0  0  0  0  0  0  0  0  0  0
   26.8616  -23.2321  -18.0876 O   0  0  0  0  0  0  0  0  0  0  0  0
   28.3967  -22.3562  -16.6690 O   0  0  0  0  0  0  0  0  0  0  0  0
  2  1  1  1
  3  2  1  0
  4  2  1  0
  4  5  1  1
  6  4  1  0
  7  6  2  0
  8  6  1  0
  9  8  1  0
 10  9  1  0
 10 20  1  0
 11 10  2  0
 13 12  1  0
 14 13  2  0
 15 13  1  0
 16 15  1  0
 17 16  1  0
 18 17  1  0
 19 18  1  1
 19 21  1  0
 20 19  1  0
 21 23  2  0
 21 22  1  0
M  END
$$$$
