VGR.pdb
     RDKit          3D

 23 22  0  0  1  0  0  0  0  0999 V2000
   22.9339  -17.0462  -19.2827 C   0  0  0  0  0  0  0  0  0  0  0  0
   24.2294  -17.7807  -19.5370 C   0  0  2  0  0  0  0  0  0  0  0  0
   24.3062  -18.2773  -20.9652 C   0  0  0  0  0  0  0  0  0  0  0  0
   24.3513  -18.9470  -18.5593 C   0  0  2  0  0  0  0  0  0  0  0  0
   23.3195  -19.9194  -18.8277 N   0  0  0  0  0  0  0  0  0  0  0  0
   24.2070  -18.4665  -17.1634 C   0  0  0  0  0  0  0  0  0  0  0  0
   25.1036  -17.7179  -16.6529 O   0  0  0  0  0  0  0  0  0  0  0  0
   23.0952  -18.8106  -16.3611 N   0  0  0  0  0  0  0  0  0  0  0  0
   22.9664  -18.3486  -15.0020 C   0  0  0  0  0  0  0  0  0  0  0  0
   22.6921  -19.5119  -14.1056 C   0  0  0  0  0  0  0  0  0  0  0  0
   22.1478  -20.5468  -14.5837 O   0  0  0  0  0  0  0  0  0  0  0  0
   26.5905  -21.3694  -13.9276 N   0  0  0  0  0  0  0  0  0  0  0  0
   27.4001  -20.9707  -12.8245 C   0  0  0  0  0  0  0  0  0  0  0  0
   28.5502  -20.4512  -13.0645 N   0  0  0  0  0  0  0  0  0  0  0  0
   26.9158  -21.1578  -11.5027 N   0  0  0  0  0  0  0  0  0  0  0  0
   25.5082  -21.4745  -11.3256 C   0  0  0  0  0  0  0  0  0  0  0  0
   24.8643  -20.3137  -10.5877 C   0  0  0  0  0  0  0  0  0  0  0  0
   23.3749  -20.5257  -10.5286 C   0  0  0  0  0  0  0  0  0  0  0  0
   22.7541  -20.6413  -11.9025 C   0  0  2  0  0  0  0  0  0  0  0  0
   23.0230  -19.4967  -12.7274 N   0  0  0  0  0  0  0  0  0  0  0  0
   21.3002  -20.7894  -11.6945 C   0  0  0  0  0  0  0  0  0  0  0  0
   20.7899  -22.0328  -11.3992 O   0  0  0  0  0  0  0  0  0  0  0  0
   20.5300  -19.8140  -11.7810 O   0  0  0  0  0  0  0  0  0  0  0  0
  2  1  1  6
  3  2  1  0
  4  2  1  0
  4  5  1  6
  6  4  1  0
  7  6  2  0
  8  6  1  0
  9  8  1  0
 10  9  1  0
 10 20  1  0
 11 10  2  0
 13 12  1  0
 14 13  2  0
 15 13  1  0
 16 15  1  0
 17 16  1  0
 18 17  1  0
 19 18  1  1
 19 21  1  0
 20 19  1  0
 21 23  2  0
 21 22  1  0
M  END
$$$$
