VGR.pdb
     RDKit          3D

 23 22  0  0  1  0  0  0  0  0999 V2000
   29.4607  -16.3601  -18.9590 C   0  0  0  0  0  0  0  0  0  0  0  0
   28.1088  -16.1165  -19.5879 C   0  0  2  0  0  0  0  0  0  0  0  0
   28.2383  -15.8200  -21.0670 C   0  0  0  0  0  0  0  0  0  0  0  0
   27.4168  -14.9601  -18.8705 C   0  0  2  0  0  0  0  0  0  0  0  0
   28.2119  -13.7623  -18.9947 N   0  0  0  0  0  0  0  0  0  0  0  0
   27.2452  -15.2754  -17.4313 C   0  0  0  0  0  0  0  0  0  0  0  0
   27.6967  -14.4758  -16.5471 O   0  0  0  0  0  0  0  0  0  0  0  0
   26.5889  -16.4476  -16.9915 N   0  0  0  0  0  0  0  0  0  0  0  0
   26.3982  -16.7325  -15.5917 C   0  0  0  0  0  0  0  0  0  0  0  0
   25.5705  -17.9675  -15.4441 C   0  0  0  0  0  0  0  0  0  0  0  0
   25.0130  -18.4642  -16.4631 O   0  0  0  0  0  0  0  0  0  0  0  0
   26.2721  -20.2291   -8.1289 N   0  0  0  0  0  0  0  0  0  0  0  0
   25.2045  -21.0571   -8.5831 C   0  0  0  0  0  0  0  0  0  0  0  0
   24.2506  -21.3296   -7.7671 N   0  0  0  0  0  0  0  0  0  0  0  0
   25.2264  -21.5526   -9.9138 N   0  0  0  0  0  0  0  0  0  0  0  0
   26.2248  -21.0225  -10.8276 C   0  0  0  0  0  0  0  0  0  0  0  0
   25.5228  -20.0586  -11.7680 C   0  0  0  0  0  0  0  0  0  0  0  0
   25.1885  -20.7700  -13.0522 C   0  0  0  0  0  0  0  0  0  0  0  0
   24.6420  -19.8324  -14.1051 C   0  0  2  0  0  0  0  0  0  0  0  0
   25.3864  -18.6073  -14.1928 N   0  0  0  0  0  0  0  0  0  0  0  0
   23.2418  -19.5524  -13.7310 C   0  0  0  0  0  0  0  0  0  0  0  0
   22.2691  -20.4749  -14.0415 O   0  0  0  0  0  0  0  0  0  0  0  0
   22.9257  -18.5010  -13.1422 O   0  0  0  0  0  0  0  0  0  0  0  0
  2  1  1  1
  3  2  1  0
  4  2  1  0
  4  5  1  1
  6  4  1  0
  7  6  2  0
  8  6  1  0
  9  8  1  0
 10  9  1  0
 10 20  1  0
 11 10  2  0
 13 12  1  0
 14 13  2  0
 15 13  1  0
 16 15  1  0
 17 16  1  0
 18 17  1  0
 19 18  1  1
 19 21  1  0
 20 19  1  0
 21 23  2  0
 21 22  1  0
M  END
$$$$
