VGR.pdb
     RDKit          3D

 23 22  0  0  1  0  0  0  0  0999 V2000
   26.5373  -22.3738  -17.3342 C   0  0  0  0  0  0  0  0  0  0  0  0
   27.5413  -21.3312  -17.7671 C   0  0  2  0  0  0  0  0  0  0  0  0
   28.9047  -21.9471  -17.9995 C   0  0  0  0  0  0  0  0  0  0  0  0
   27.6243  -20.2361  -16.7066 C   0  0  2  0  0  0  0  0  0  0  0  0
   28.1229  -20.7896  -15.4707 N   0  0  0  0  0  0  0  0  0  0  0  0
   26.2831  -19.6508  -16.4641 C   0  0  0  0  0  0  0  0  0  0  0  0
   25.6279  -19.1406  -17.4313 O   0  0  0  0  0  0  0  0  0  0  0  0
   25.6903  -19.6355  -15.1810 N   0  0  0  0  0  0  0  0  0  0  0  0
   24.4720  -18.9131  -14.9148 C   0  0  0  0  0  0  0  0  0  0  0  0
   23.3335  -19.8760  -14.8214 C   0  0  0  0  0  0  0  0  0  0  0  0
   23.0832  -20.6352  -15.7996 O   0  0  0  0  0  0  0  0  0  0  0  0
   19.2983  -23.9977   -8.3762 N   0  0  0  0  0  0  0  0  0  0  0  0
   18.6898  -24.4901   -9.5673 C   0  0  0  0  0  0  0  0  0  0  0  0
   18.0180  -25.5832   -9.5055 N   0  0  0  0  0  0  0  0  0  0  0  0
   18.8427  -23.7637  -10.7779 N   0  0  0  0  0  0  0  0  0  0  0  0
   19.7995  -22.6697  -10.8063 C   0  0  0  0  0  0  0  0  0  0  0  0
   19.6975  -22.0037  -12.1672 C   0  0  0  0  0  0  0  0  0  0  0  0
   20.7379  -20.9204  -12.2710 C   0  0  0  0  0  0  0  0  0  0  0  0
   21.4660  -20.9455  -13.5960 C   0  0  2  0  0  0  0  0  0  0  0  0
   22.5174  -19.9696  -13.6662 N   0  0  0  0  0  0  0  0  0  0  0  0
   20.4530  -20.6791  -14.6361 C   0  0  0  0  0  0  0  0  0  0  0  0
   19.9154  -21.7369  -15.3329 O   0  0  0  0  0  0  0  0  0  0  0  0
   20.0774  -19.5195  -14.8936 O   0  0  0  0  0  0  0  0  0  0  0  0
  2  1  1  1
  3  2  1  0
  4  2  1  0
  4  5  1  1
  6  4  1  0
  7  6  2  0
  8  6  1  0
  9  8  1  0
 10  9  1  0
 10 20  1  0
 11 10  2  0
 13 12  1  0
 14 13  2  0
 15 13  1  0
 16 15  1  0
 17 16  1  0
 18 17  1  0
 19 18  1  1
 19 21  1  0
 20 19  1  0
 21 23  2  0
 21 22  1  0
M  END
$$$$
