VGR.pdb
     RDKit          3D

 23 22  0  0  1  0  0  0  0  0999 V2000
   25.7342  -27.0053  -17.1696 C   0  0  0  0  0  0  0  0  0  0  0  0
   26.8254  -26.5852  -18.1264 C   0  0  2  0  0  0  0  0  0  0  0  0
   27.3070  -27.7565  -18.9560 C   0  0  0  0  0  0  0  0  0  0  0  0
   27.9835  -25.9770  -17.3391 C   0  0  2  0  0  0  0  0  0  0  0  0
   28.5727  -26.9793  -16.4843 N   0  0  0  0  0  0  0  0  0  0  0  0
   27.5019  -24.8529  -16.4997 C   0  0  0  0  0  0  0  0  0  0  0  0
   27.3226  -25.0246  -15.2493 O   0  0  0  0  0  0  0  0  0  0  0  0
   27.2288  -23.5752  -17.0391 N   0  0  0  0  0  0  0  0  0  0  0  0
   26.8722  -22.4571  -16.2025 C   0  0  0  0  0  0  0  0  0  0  0  0
   25.4016  -22.4818  -15.9402 C   0  0  0  0  0  0  0  0  0  0  0  0
   24.6779  -23.3177  -16.5512 O   0  0  0  0  0  0  0  0  0  0  0  0
   24.5008  -20.5158   -9.6911 N   0  0  0  0  0  0  0  0  0  0  0  0
   25.8474  -20.6704  -10.1318 C   0  0  0  0  0  0  0  0  0  0  0  0
   26.7511  -20.9373   -9.2587 N   0  0  0  0  0  0  0  0  0  0  0  0
   26.1485  -20.5262  -11.5121 N   0  0  0  0  0  0  0  0  0  0  0  0
   25.0466  -20.3204  -12.4374 C   0  0  0  0  0  0  0  0  0  0  0  0
   24.1836  -21.5698  -12.4112 C   0  0  0  0  0  0  0  0  0  0  0  0
   23.0125  -21.3859  -13.3394 C   0  0  0  0  0  0  0  0  0  0  0  0
   23.3700  -21.6677  -14.7814 C   0  0  2  0  0  0  0  0  0  0  0  0
   24.7838  -21.5945  -15.0235 N   0  0  0  0  0  0  0  0  0  0  0  0
   22.6609  -20.6597  -15.5938 C   0  0  0  0  0  0  0  0  0  0  0  0
   23.3938  -19.7316  -16.2974 O   0  0  0  0  0  0  0  0  0  0  0  0
   21.4168  -20.6338  -15.6540 O   0  0  0  0  0  0  0  0  0  0  0  0
  2  1  1  1
  3  2  1  0
  4  2  1  0
  4  5  1  1
  6  4  1  0
  7  6  2  0
  8  6  1  0
  9  8  1  0
 10  9  1  0
 10 20  1  0
 11 10  2  0
 13 12  1  0
 14 13  2  0
 15 13  1  0
 16 15  1  0
 17 16  1  0
 18 17  1  0
 19 18  1  1
 19 21  1  0
 20 19  1  0
 21 23  2  0
 21 22  1  0
M  END
$$$$
