WHT.pdb
     RDKit          3D

 32 34  0  0  1  0  0  0  0  0999 V2000
    6.2998  -17.3480   23.3463 N   0  0  0  0  0  0  0  0  0  0  0  0
    7.2434  -16.2782   23.2918 C   0  0  1  0  0  0  0  0  0  0  0  0
    7.8820  -15.9731   24.6229 C   0  0  0  0  0  0  0  0  0  0  0  0
    7.0583  -15.1250   25.4863 C   0  0  0  0  0  0  0  0  0  0  0  0
    6.0618  -15.5748   26.3176 C   0  0  0  0  0  0  0  0  0  0  0  0
    5.5342  -14.5208   26.9441 N   0  0  0  0  0  0  0  0  0  0  0  0
    6.1320  -13.3756   26.5718 C   0  0  0  0  0  0  0  0  0  0  0  0
    5.9690  -12.0370   26.9118 C   0  0  0  0  0  0  0  0  0  0  0  0
    6.7506  -11.0603   26.3501 C   0  0  0  0  0  0  0  0  0  0  0  0
    7.7161  -11.4325   25.4281 C   0  0  0  0  0  0  0  0  0  0  0  0
    7.8803  -12.7565   25.0891 C   0  0  0  0  0  0  0  0  0  0  0  0
    7.1015  -13.7566   25.6448 C   0  0  0  0  0  0  0  0  0  0  0  0
    8.3175  -16.5393   22.2995 C   0  0  0  0  0  0  0  0  0  0  0  0
    8.5096  -17.7170   21.9113 O   0  0  0  0  0  0  0  0  0  0  0  0
    9.1251  -15.5011   21.7835 N   0  0  0  0  0  0  0  0  0  0  0  0
   10.1402  -15.7903   20.7444 C   0  0  1  0  0  0  0  0  0  0  0  0
   10.2950  -14.5595   19.9227 C   0  0  0  0  0  0  0  0  0  0  0  0
    9.2205  -14.3480   18.9386 C   0  0  0  0  0  0  0  0  0  0  0  0
    8.1994  -15.2722   18.6964 C   0  0  0  0  0  0  0  0  0  0  0  0
    7.3709  -14.8072   17.7513 N   0  0  0  0  0  0  0  0  0  0  0  0
    7.8473  -13.6092   17.3920 C   0  0  0  0  0  0  0  0  0  0  0  0
    8.9504  -13.3392   18.1024 N   0  0  0  0  0  0  0  0  0  0  0  0
   11.3735  -16.2706   21.4031 C   0  0  0  0  0  0  0  0  0  0  0  0
   12.1738  -15.5154   21.9800 O   0  0  0  0  0  0  0  0  0  0  0  0
   11.7003  -19.4543   23.7514 C   0  0  0  0  0  0  0  0  0  0  0  0
   12.6130  -19.5555   22.5557 C   0  0  1  0  0  0  0  0  0  0  0  0
   12.0053  -20.2860   21.5580 O   0  0  0  0  0  0  0  0  0  0  0  0
   12.8679  -18.1475   22.0568 C   0  0  2  0  0  0  0  0  0  0  0  0
   11.6972  -17.6585   21.3992 N   0  0  0  0  0  0  0  0  0  0  0  0
   13.9859  -18.2064   21.1047 C   0  0  0  0  0  0  0  0  0  0  0  0
   15.2650  -18.4690   21.5602 O   0  0  0  0  0  0  0  0  0  0  0  0
   13.8497  -18.0281   19.8652 O   0  0  0  0  0  0  0  0  0  0  0  0
  2  1  1  1
  3  2  1  0
  3  4  1  0
  4  5  2  0
  5  6  1  0
  7  6  1  0
  8  7  2  0
  9  8  1  0
 10 11  1  0
 10  9  2  0
 11 12  2  0
 12  4  1  0
 12  7  1  0
 13 14  2  0
 13  2  1  0
 15 13  1  0
 16 15  1  0
 16 17  1  1
 18 22  1  0
 18 17  1  0
 19 18  2  0
 20 19  1  0
 20 21  1  0
 21 22  2  0
 23 16  1  0
 24 23  2  0
 26 25  1  1
 27 26  1  0
 28 26  1  0
 28 29  1  6
 29 23  1  0
 30 28  1  0
 31 30  1  0
 32 30  2  0
M  END
$$$$
