WHT.pdb
     RDKit          3D

 32 34  0  0  1  0  0  0  0  0999 V2000
    6.4069  -17.4898   25.1532 N   0  0  0  0  0  0  0  0  0  0  0  0
    7.3608  -16.5888   24.5910 C   0  0  1  0  0  0  0  0  0  0  0  0
    7.7909  -15.5006   25.5416 C   0  0  0  0  0  0  0  0  0  0  0  0
    6.7318  -14.5365   25.8450 C   0  0  0  0  0  0  0  0  0  0  0  0
    5.4708  -14.8593   26.2830 C   0  0  0  0  0  0  0  0  0  0  0  0
    4.7856  -13.7264   26.4525 N   0  0  0  0  0  0  0  0  0  0  0  0
    5.5302  -12.6493   26.1475 C   0  0  0  0  0  0  0  0  0  0  0  0
    5.3047  -11.2771   26.1513 C   0  0  0  0  0  0  0  0  0  0  0  0
    6.2853  -10.3941   25.7779 C   0  0  0  0  0  0  0  0  0  0  0  0
    7.5180  -10.8967   25.3926 C   0  0  0  0  0  0  0  0  0  0  0  0
    7.7449  -12.2544   25.3876 C   0  0  0  0  0  0  0  0  0  0  0  0
    6.7683  -13.1613   25.7609 C   0  0  0  0  0  0  0  0  0  0  0  0
    8.5713  -17.2990   24.1045 C   0  0  0  0  0  0  0  0  0  0  0  0
    8.9061  -18.3738   24.6588 O   0  0  0  0  0  0  0  0  0  0  0  0
    9.3522  -16.7984   23.0387 N   0  0  0  0  0  0  0  0  0  0  0  0
   10.8300  -16.8826   23.0915 C   0  0  1  0  0  0  0  0  0  0  0  0
   11.3573  -16.1486   21.9095 C   0  0  0  0  0  0  0  0  0  0  0  0
   12.7632  -16.4457   21.5885 C   0  0  0  0  0  0  0  0  0  0  0  0
   13.5669  -17.3010   22.3487 C   0  0  0  0  0  0  0  0  0  0  0  0
   14.7940  -17.3761   21.8154 N   0  0  0  0  0  0  0  0  0  0  0  0
   14.7818  -16.5866   20.7349 C   0  0  0  0  0  0  0  0  0  0  0  0
   13.5689  -16.0336   20.6031 N   0  0  0  0  0  0  0  0  0  0  0  0
   11.2896  -16.3815   24.4042 C   0  0  0  0  0  0  0  0  0  0  0  0
   11.2158  -15.1874   24.7392 O   0  0  0  0  0  0  0  0  0  0  0  0
   11.1291  -14.8338   26.9118 C   0  0  0  0  0  0  0  0  0  0  0  0
   11.5175  -16.1789   27.4711 C   0  0  1  0  0  0  0  0  0  0  0  0
   10.4112  -16.9966   27.5463 O   0  0  0  0  0  0  0  0  0  0  0  0
   12.5266  -16.7928   26.5217 C   0  0  2  0  0  0  0  0  0  0  0  0
   11.8503  -17.2776   25.3600 N   0  0  0  0  0  0  0  0  0  0  0  0
   13.1768  -17.9095   27.2218 C   0  0  0  0  0  0  0  0  0  0  0  0
   14.0067  -17.6571   28.2988 O   0  0  0  0  0  0  0  0  0  0  0  0
   13.0220  -19.1160   26.8944 O   0  0  0  0  0  0  0  0  0  0  0  0
  2  1  1  1
  3  2  1  0
  3  4  1  0
  4  5  2  0
  5  6  1  0
  7  6  1  0
  8  7  2  0
  9  8  1  0
 10 11  1  0
 10  9  2  0
 11 12  2  0
 12  4  1  0
 12  7  1  0
 13 14  2  0
 13  2  1  0
 15 13  1  0
 16 15  1  0
 16 17  1  6
 18 22  1  0
 18 17  1  0
 19 18  2  0
 20 19  1  0
 20 21  1  0
 21 22  2  0
 23 16  1  0
 24 23  2  0
 26 25  1  6
 27 26  1  0
 28 26  1  0
 28 29  1  6
 29 23  1  0
 30 28  1  0
 31 30  1  0
 32 30  2  0
M  END
$$$$
