WHT.pdb
     RDKit          3D

 32 34  0  0  1  0  0  0  0  0999 V2000
    9.5235  -15.9174   21.8622 N   0  0  0  0  0  0  0  0  0  0  0  0
    9.1780  -15.7903   23.2414 C   0  0  1  0  0  0  0  0  0  0  0  0
    7.6910  -15.7481   23.4858 C   0  0  0  0  0  0  0  0  0  0  0  0
    7.1038  -14.4209   23.2936 C   0  0  0  0  0  0  0  0  0  0  0  0
    6.5718  -13.9549   22.1163 C   0  0  0  0  0  0  0  0  0  0  0  0
    6.1343  -12.7104   22.3202 N   0  0  0  0  0  0  0  0  0  0  0  0
    6.3478  -12.3139   23.5871 C   0  0  0  0  0  0  0  0  0  0  0  0
    6.0901  -11.1472   24.2986 C   0  0  0  0  0  0  0  0  0  0  0  0
    6.4318  -11.0308   25.6216 C   0  0  0  0  0  0  0  0  0  0  0  0
    7.0447  -12.1062   26.2449 C   0  0  0  0  0  0  0  0  0  0  0  0
    7.3013  -13.2627   25.5438 C   0  0  0  0  0  0  0  0  0  0  0  0
    6.9642  -13.3995   24.2084 C   0  0  0  0  0  0  0  0  0  0  0  0
    9.7622  -16.8834   24.0601 C   0  0  0  0  0  0  0  0  0  0  0  0
    9.1131  -17.3166   25.0428 O   0  0  0  0  0  0  0  0  0  0  0  0
   11.0238  -17.4456   23.7630 N   0  0  0  0  0  0  0  0  0  0  0  0
   11.6447  -18.4199   24.6899 C   0  0  1  0  0  0  0  0  0  0  0  0
   12.7962  -19.0365   23.9773 C   0  0  0  0  0  0  0  0  0  0  0  0
   13.4907  -20.0862   24.7411 C   0  0  0  0  0  0  0  0  0  0  0  0
   12.9174  -20.7662   25.8202 C   0  0  0  0  0  0  0  0  0  0  0  0
   13.7842  -21.6608   26.3146 N   0  0  0  0  0  0  0  0  0  0  0  0
   14.8920  -21.5599   25.5706 C   0  0  0  0  0  0  0  0  0  0  0  0
   14.7128  -20.6197   24.6333 N   0  0  0  0  0  0  0  0  0  0  0  0
   11.9789  -17.7294   25.9537 C   0  0  0  0  0  0  0  0  0  0  0  0
   12.7439  -16.7522   26.0122 O   0  0  0  0  0  0  0  0  0  0  0  0
   11.2893  -15.8366   30.0547 C   0  0  0  0  0  0  0  0  0  0  0  0
   10.7771  -16.5311   28.8185 C   0  0  1  0  0  0  0  0  0  0  0  0
   10.6442  -15.6254   27.7887 O   0  0  0  0  0  0  0  0  0  0  0  0
   11.7986  -17.5806   28.4293 C   0  0  2  0  0  0  0  0  0  0  0  0
   11.4184  -18.1741   27.1862 N   0  0  0  0  0  0  0  0  0  0  0  0
   11.8134  -18.6027   29.4852 C   0  0  0  0  0  0  0  0  0  0  0  0
   12.3134  -18.2926   30.7367 O   0  0  0  0  0  0  0  0  0  0  0  0
   11.3876  -19.7765   29.3185 O   0  0  0  0  0  0  0  0  0  0  0  0
  2  1  1  6
  3  2  1  0
  3  4  1  0
  4  5  2  0
  5  6  1  0
  7  6  1  0
  8  7  2  0
  9  8  1  0
 10 11  1  0
 10  9  2  0
 11 12  2  0
 12  4  1  0
 12  7  1  0
 13 14  2  0
 13  2  1  0
 15 13  1  0
 16 15  1  0
 16 17  1  6
 18 22  1  0
 18 17  1  0
 19 18  2  0
 20 19  1  0
 20 21  1  0
 21 22  2  0
 23 16  1  0
 24 23  2  0
 26 25  1  1
 27 26  1  0
 28 26  1  0
 28 29  1  6
 29 23  1  0
 30 28  1  0
 31 30  1  0
 32 30  2  0
M  END
$$$$
