WHT.pdb
     RDKit          3D

 32 34  0  0  1  0  0  0  0  0999 V2000
    6.0881  -16.9608   23.1556 N   0  0  0  0  0  0  0  0  0  0  0  0
    7.1983  -16.0673   23.2380 C   0  0  1  0  0  0  0  0  0  0  0  0
    7.7671  -15.9440   24.6287 C   0  0  0  0  0  0  0  0  0  0  0  0
    6.9887  -15.0652   25.5034 C   0  0  0  0  0  0  0  0  0  0  0  0
    5.9182  -15.4584   26.2686 C   0  0  0  0  0  0  0  0  0  0  0  0
    5.4642  -14.3915   26.9300 N   0  0  0  0  0  0  0  0  0  0  0  0
    6.1829  -13.2917   26.6446 C   0  0  0  0  0  0  0  0  0  0  0  0
    6.1312  -11.9625   27.0501 C   0  0  0  0  0  0  0  0  0  0  0  0
    7.0254  -11.0383   26.5740 C   0  0  0  0  0  0  0  0  0  0  0  0
    7.9921  -11.4547   25.6724 C   0  0  0  0  0  0  0  0  0  0  0  0
    8.0464  -12.7696   25.2687 C   0  0  0  0  0  0  0  0  0  0  0  0
    7.1530  -13.7170   25.7377 C   0  0  0  0  0  0  0  0  0  0  0  0
    8.2917  -16.4581   22.3116 C   0  0  0  0  0  0  0  0  0  0  0  0
    8.4215  -17.6679   22.0048 O   0  0  0  0  0  0  0  0  0  0  0  0
    9.1855  -15.5078   21.7692 N   0  0  0  0  0  0  0  0  0  0  0  0
   10.2711  -15.9380   20.8581 C   0  0  1  0  0  0  0  0  0  0  0  0
   10.5363  -14.8113   19.9231 C   0  0  0  0  0  0  0  0  0  0  0  0
    9.3967  -14.4576   19.0607 C   0  0  0  0  0  0  0  0  0  0  0  0
    8.1997  -15.1796   19.0244 C   0  0  0  0  0  0  0  0  0  0  0  0
    7.3515  -14.6229   18.1488 N   0  0  0  0  0  0  0  0  0  0  0  0
    7.9877  -13.5651   17.6318 C   0  0  0  0  0  0  0  0  0  0  0  0
    9.2070  -13.4700   18.1782 N   0  0  0  0  0  0  0  0  0  0  0  0
   11.4285  -16.3741   21.6679 C   0  0  0  0  0  0  0  0  0  0  0  0
   12.5725  -15.9121   21.5217 O   0  0  0  0  0  0  0  0  0  0  0  0
   11.9403  -16.3418   25.3614 C   0  0  0  0  0  0  0  0  0  0  0  0
   11.9877  -17.7854   24.9294 C   0  0  1  0  0  0  0  0  0  0  0  0
   10.7466  -18.3645   25.0796 O   0  0  0  0  0  0  0  0  0  0  0  0
   12.3743  -17.8100   23.4643 C   0  0  2  0  0  0  0  0  0  0  0  0
   11.2675  -17.3698   22.6747 N   0  0  0  0  0  0  0  0  0  0  0  0
   12.7149  -19.1963   23.1153 C   0  0  0  0  0  0  0  0  0  0  0  0
   13.8726  -19.7668   23.6120 O   0  0  0  0  0  0  0  0  0  0  0  0
   11.9994  -19.9187   22.3716 O   0  0  0  0  0  0  0  0  0  0  0  0
  2  1  1  1
  3  2  1  0
  3  4  1  0
  4  5  2  0
  5  6  1  0
  7  6  1  0
  8  7  2  0
  9  8  1  0
 10 11  1  0
 10  9  2  0
 11 12  2  0
 12  4  1  0
 12  7  1  0
 13 14  2  0
 13  2  1  0
 15 13  1  0
 16 15  1  0
 16 17  1  6
 18 22  1  0
 18 17  1  0
 19 18  2  0
 20 19  1  0
 20 21  1  0
 21 22  2  0
 23 16  1  0
 24 23  2  0
 26 25  1  6
 27 26  1  0
 28 26  1  0
 28 29  1  6
 29 23  1  0
 30 28  1  0
 31 30  1  0
 32 30  2  0
M  END
$$$$
