WHT.pdb
     RDKit          3D

 32 34  0  0  1  0  0  0  0  0999 V2000
    5.9804  -17.9089   24.7167 N   0  0  0  0  0  0  0  0  0  0  0  0
    6.9675  -16.8927   24.5414 C   0  0  1  0  0  0  0  0  0  0  0  0
    7.3913  -16.2390   25.8320 C   0  0  0  0  0  0  0  0  0  0  0  0
    6.6888  -14.9852   26.1110 C   0  0  0  0  0  0  0  0  0  0  0  0
    5.4511  -14.8865   26.6981 C   0  0  0  0  0  0  0  0  0  0  0  0
    5.1354  -13.5928   26.7902 N   0  0  0  0  0  0  0  0  0  0  0  0
    6.1080  -12.8109   26.2900 C   0  0  0  0  0  0  0  0  0  0  0  0
    6.2768  -11.4379   26.1474 C   0  0  0  0  0  0  0  0  0  0  0  0
    7.4115  -10.9158   25.5816 C   0  0  0  0  0  0  0  0  0  0  0  0
    8.3983  -11.7877   25.1496 C   0  0  0  0  0  0  0  0  0  0  0  0
    8.2348  -13.1474   25.2891 C   0  0  0  0  0  0  0  0  0  0  0  0
    7.0971  -13.6936   25.8573 C   0  0  0  0  0  0  0  0  0  0  0  0
    8.1774  -17.4110   23.8528 C   0  0  0  0  0  0  0  0  0  0  0  0
    8.5706  -18.5737   24.1134 O   0  0  0  0  0  0  0  0  0  0  0  0
    8.8939  -16.6326   22.9164 N   0  0  0  0  0  0  0  0  0  0  0  0
   10.2625  -17.0262   22.5092 C   0  0  1  0  0  0  0  0  0  0  0  0
   10.5855  -16.2790   21.2636 C   0  0  0  0  0  0  0  0  0  0  0  0
   11.7771  -16.7712   20.5526 C   0  0  0  0  0  0  0  0  0  0  0  0
   12.5747  -17.8229   21.0141 C   0  0  0  0  0  0  0  0  0  0  0  0
   13.5837  -18.0456   20.1606 N   0  0  0  0  0  0  0  0  0  0  0  0
   13.4397  -17.1569   19.1704 C   0  0  0  0  0  0  0  0  0  0  0  0
   12.3611  -16.3988   19.4080 N   0  0  0  0  0  0  0  0  0  0  0  0
   11.1826  -16.7942   23.6428 C   0  0  0  0  0  0  0  0  0  0  0  0
   11.8925  -15.7797   23.7449 O   0  0  0  0  0  0  0  0  0  0  0  0
   11.5236  -15.1877   26.0302 C   0  0  0  0  0  0  0  0  0  0  0  0
   11.5100  -16.5185   26.7384 C   0  0  1  0  0  0  0  0  0  0  0  0
   10.2126  -16.8994   27.0034 O   0  0  0  0  0  0  0  0  0  0  0  0
   12.1474  -17.5342   25.8118 C   0  0  2  0  0  0  0  0  0  0  0  0
   11.2908  -17.7552   24.6896 N   0  0  0  0  0  0  0  0  0  0  0  0
   12.3129  -18.7848   26.5659 C   0  0  0  0  0  0  0  0  0  0  0  0
   13.2101  -18.8415   27.6167 O   0  0  0  0  0  0  0  0  0  0  0  0
   11.6716  -19.8381   26.3089 O   0  0  0  0  0  0  0  0  0  0  0  0
  2  1  1  1
  3  2  1  0
  3  4  1  0
  4  5  2  0
  5  6  1  0
  7  6  1  0
  8  7  2  0
  9  8  1  0
 10 11  1  0
 10  9  2  0
 11 12  2  0
 12  4  1  0
 12  7  1  0
 13 14  2  0
 13  2  1  0
 15 13  1  0
 16 15  1  0
 16 17  1  6
 18 22  1  0
 18 17  1  0
 19 18  2  0
 20 19  1  0
 20 21  1  0
 21 22  2  0
 23 16  1  0
 24 23  2  0
 26 25  1  6
 27 26  1  0
 28 26  1  0
 28 29  1  6
 29 23  1  0
 30 28  1  0
 31 30  1  0
 32 30  2  0
M  END
$$$$
