WHT.pdb
     RDKit          3D

 32 34  0  0  1  0  0  0  0  0999 V2000
    8.2201  -16.6971   21.1070 N   0  0  0  0  0  0  0  0  0  0  0  0
    8.4957  -16.2644   22.4391 C   0  0  1  0  0  0  0  0  0  0  0  0
    7.2572  -15.9183   23.2258 C   0  0  0  0  0  0  0  0  0  0  0  0
    7.1099  -14.4849   23.4845 C   0  0  0  0  0  0  0  0  0  0  0  0
    6.9357  -13.5216   22.5211 C   0  0  0  0  0  0  0  0  0  0  0  0
    6.8403  -12.3369   23.1286 N   0  0  0  0  0  0  0  0  0  0  0  0
    6.9426  -12.4575   24.4637 C   0  0  0  0  0  0  0  0  0  0  0  0
    6.9102  -11.5624   25.5275 C   0  0  0  0  0  0  0  0  0  0  0  0
    7.0450  -11.9919   26.8228 C   0  0  0  0  0  0  0  0  0  0  0  0
    7.2157  -13.3471   27.0574 C   0  0  0  0  0  0  0  0  0  0  0  0
    7.2482  -14.2361   26.0069 C   0  0  0  0  0  0  0  0  0  0  0  0
    7.1141  -13.8223   24.6930 C   0  0  0  0  0  0  0  0  0  0  0  0
    9.2724  -17.2771   23.1991 C   0  0  0  0  0  0  0  0  0  0  0  0
    8.7437  -18.3892   23.4404 O   0  0  0  0  0  0  0  0  0  0  0  0
   10.5850  -17.0223   23.6556 N   0  0  0  0  0  0  0  0  0  0  0  0
   11.2964  -18.0245   24.4822 C   0  0  1  0  0  0  0  0  0  0  0  0
   12.7477  -17.8979   24.1794 C   0  0  0  0  0  0  0  0  0  0  0  0
   13.1375  -18.4070   22.8540 C   0  0  0  0  0  0  0  0  0  0  0  0
   12.7741  -19.6681   22.3714 C   0  0  0  0  0  0  0  0  0  0  0  0
   13.2719  -19.8522   21.1409 N   0  0  0  0  0  0  0  0  0  0  0  0
   13.9416  -18.7341   20.8366 C   0  0  0  0  0  0  0  0  0  0  0  0
   13.8590  -17.8748   21.8609 N   0  0  0  0  0  0  0  0  0  0  0  0
   10.9258  -17.8236   25.8992 C   0  0  0  0  0  0  0  0  0  0  0  0
   11.0567  -16.7374   26.4881 O   0  0  0  0  0  0  0  0  0  0  0  0
    7.7610  -18.1322   27.6038 C   0  0  0  0  0  0  0  0  0  0  0  0
    8.6381  -19.1490   28.2890 C   0  0  1  0  0  0  0  0  0  0  0  0
    8.4230  -20.3985   27.7497 O   0  0  0  0  0  0  0  0  0  0  0  0
   10.0785  -18.7443   28.0480 C   0  0  2  0  0  0  0  0  0  0  0  0
   10.3893  -18.9011   26.6621 N   0  0  0  0  0  0  0  0  0  0  0  0
   10.9320  -19.6294   28.8531 C   0  0  0  0  0  0  0  0  0  0  0  0
   10.9176  -19.5318   30.2325 O   0  0  0  0  0  0  0  0  0  0  0  0
   11.6973  -20.4958   28.3528 O   0  0  0  0  0  0  0  0  0  0  0  0
  2  1  1  6
  3  2  1  0
  3  4  1  0
  4  5  2  0
  5  6  1  0
  7  6  1  0
  8  7  2  0
  9  8  1  0
 10 11  1  0
 10  9  2  0
 11 12  2  0
 12  4  1  0
 12  7  1  0
 13 14  2  0
 13  2  1  0
 15 13  1  0
 16 15  1  0
 16 17  1  1
 18 22  1  0
 18 17  1  0
 19 18  2  0
 20 19  1  0
 20 21  1  0
 21 22  2  0
 23 16  1  0
 24 23  2  0
 26 25  1  6
 27 26  1  0
 28 26  1  0
 28 29  1  6
 29 23  1  0
 30 28  1  0
 31 30  1  0
 32 30  2  0
M  END
$$$$
