WHT.pdb
     RDKit          3D

 32 34  0  0  1  0  0  0  0  0999 V2000
    6.7341  -17.6594   24.0722 N   0  0  0  0  0  0  0  0  0  0  0  0
    7.8268  -16.7504   24.2046 C   0  0  1  0  0  0  0  0  0  0  0  0
    7.9282  -16.1299   25.5747 C   0  0  0  0  0  0  0  0  0  0  0  0
    6.8957  -15.1266   25.8406 C   0  0  0  0  0  0  0  0  0  0  0  0
    5.6265  -15.3984   26.2893 C   0  0  0  0  0  0  0  0  0  0  0  0
    4.9722  -14.2418   26.4153 N   0  0  0  0  0  0  0  0  0  0  0  0
    5.7456  -13.1975   26.0705 C   0  0  0  0  0  0  0  0  0  0  0  0
    5.5574  -11.8205   26.0223 C   0  0  0  0  0  0  0  0  0  0  0  0
    6.5614  -10.9792   25.6167 C   0  0  0  0  0  0  0  0  0  0  0  0
    7.7800  -11.5291   25.2517 C   0  0  0  0  0  0  0  0  0  0  0  0
    7.9701  -12.8916   25.2982 C   0  0  0  0  0  0  0  0  0  0  0  0
    6.9693  -13.7571   25.7046 C   0  0  0  0  0  0  0  0  0  0  0  0
    9.1245  -17.3959   23.8793 C   0  0  0  0  0  0  0  0  0  0  0  0
    9.2335  -18.6384   24.0160 O   0  0  0  0  0  0  0  0  0  0  0  0
   10.2345  -16.6508   23.4221 N   0  0  0  0  0  0  0  0  0  0  0  0
   11.6006  -17.2167   23.5077 C   0  0  1  0  0  0  0  0  0  0  0  0
   12.3789  -16.6685   22.3641 C   0  0  0  0  0  0  0  0  0  0  0  0
   11.7775  -16.9216   21.0442 C   0  0  0  0  0  0  0  0  0  0  0  0
   11.9466  -18.1129   20.3318 C   0  0  0  0  0  0  0  0  0  0  0  0
   11.2842  -18.0527   19.1684 N   0  0  0  0  0  0  0  0  0  0  0  0
   10.7007  -16.8489   19.1315 C   0  0  0  0  0  0  0  0  0  0  0  0
   10.9973  -16.1775   20.2520 N   0  0  0  0  0  0  0  0  0  0  0  0
   12.1542  -16.9257   24.8472 C   0  0  0  0  0  0  0  0  0  0  0  0
   12.8271  -15.9120   25.0986 O   0  0  0  0  0  0  0  0  0  0  0  0
   11.8287  -15.1192   26.8486 C   0  0  0  0  0  0  0  0  0  0  0  0
   11.4549  -16.2922   27.7187 C   0  0  1  0  0  0  0  0  0  0  0  0
   10.1192  -16.5909   27.5608 O   0  0  0  0  0  0  0  0  0  0  0  0
   12.2863  -17.4765   27.2685 C   0  0  2  0  0  0  0  0  0  0  0  0
   11.9287  -17.8250   25.9296 N   0  0  0  0  0  0  0  0  0  0  0  0
   11.9913  -18.5984   28.1708 C   0  0  0  0  0  0  0  0  0  0  0  0
   12.3773  -18.5349   29.4973 O   0  0  0  0  0  0  0  0  0  0  0  0
   11.3923  -19.6436   27.8028 O   0  0  0  0  0  0  0  0  0  0  0  0
  2  1  1  1
  3  2  1  0
  3  4  1  0
  4  5  2  0
  5  6  1  0
  7  6  1  0
  8  7  2  0
  9  8  1  0
 10 11  1  0
 10  9  2  0
 11 12  2  0
 12  4  1  0
 12  7  1  0
 13 14  2  0
 13  2  1  0
 15 13  1  0
 16 15  1  0
 16 17  1  6
 18 22  1  0
 18 17  1  0
 19 18  2  0
 20 19  1  0
 20 21  1  0
 21 22  2  0
 23 16  1  0
 24 23  2  0
 26 25  1  6
 27 26  1  0
 28 26  1  0
 28 29  1  6
 29 23  1  0
 30 28  1  0
 31 30  1  0
 32 30  2  0
M  END
$$$$
