WHT.pdb
     RDKit          3D

 32 34  0  0  1  0  0  0  0  0999 V2000
    6.5292  -17.6970   23.7007 N   0  0  0  0  0  0  0  0  0  0  0  0
    7.3886  -16.5596   23.6267 C   0  0  1  0  0  0  0  0  0  0  0  0
    7.9285  -16.1275   24.9663 C   0  0  0  0  0  0  0  0  0  0  0  0
    7.0607  -15.1807   25.6691 C   0  0  0  0  0  0  0  0  0  0  0  0
    5.8528  -15.4922   26.2437 C   0  0  0  0  0  0  0  0  0  0  0  0
    5.3518  -14.3816   26.7889 N   0  0  0  0  0  0  0  0  0  0  0  0
    6.1703  -13.3305   26.6075 C   0  0  0  0  0  0  0  0  0  0  0  0
    6.1241  -11.9874   26.9652 C   0  0  0  0  0  0  0  0  0  0  0  0
    7.1384  -11.1271   26.6312 C   0  0  0  0  0  0  0  0  0  0  0  0
    8.2220  -11.6230   25.9237 C   0  0  0  0  0  0  0  0  0  0  0  0
    8.2713  -12.9518   25.5680 C   0  0  0  0  0  0  0  0  0  0  0  0
    7.2578  -13.8356   25.8957 C   0  0  0  0  0  0  0  0  0  0  0  0
    8.5319  -16.7902   22.7069 C   0  0  0  0  0  0  0  0  0  0  0  0
    8.8786  -17.9698   22.4562 O   0  0  0  0  0  0  0  0  0  0  0  0
    9.2363  -15.7210   22.1093 N   0  0  0  0  0  0  0  0  0  0  0  0
   10.3466  -15.9917   21.1671 C   0  0  1  0  0  0  0  0  0  0  0  0
   10.4914  -14.7926   20.2981 C   0  0  0  0  0  0  0  0  0  0  0  0
    9.2898  -14.4632   19.5136 C   0  0  0  0  0  0  0  0  0  0  0  0
    8.6091  -15.3875   18.7150 C   0  0  0  0  0  0  0  0  0  0  0  0
    7.5588  -14.8013   18.1241 N   0  0  0  0  0  0  0  0  0  0  0  0
    7.5622  -13.5269   18.5328 C   0  0  0  0  0  0  0  0  0  0  0  0
    8.5961  -13.3294   19.3613 N   0  0  0  0  0  0  0  0  0  0  0  0
   11.5503  -16.3608   21.9419 C   0  0  0  0  0  0  0  0  0  0  0  0
   12.3094  -15.5233   22.4577 O   0  0  0  0  0  0  0  0  0  0  0  0
   11.8446  -18.6966   24.9450 C   0  0  0  0  0  0  0  0  0  0  0  0
   12.6658  -19.2615   23.8139 C   0  0  1  0  0  0  0  0  0  0  0  0
   11.9244  -20.1818   23.1056 O   0  0  0  0  0  0  0  0  0  0  0  0
   13.0350  -18.1104   22.8999 C   0  0  2  0  0  0  0  0  0  0  0  0
   11.8924  -17.7314   22.1299 N   0  0  0  0  0  0  0  0  0  0  0  0
   14.1057  -18.5749   22.0067 C   0  0  0  0  0  0  0  0  0  0  0  0
   15.3586  -18.8544   22.5211 O   0  0  0  0  0  0  0  0  0  0  0  0
   13.9507  -18.7393   20.7675 O   0  0  0  0  0  0  0  0  0  0  0  0
  2  1  1  1
  3  2  1  0
  3  4  1  0
  4  5  2  0
  5  6  1  0
  7  6  1  0
  8  7  2  0
  9  8  1  0
 10 11  1  0
 10  9  2  0
 11 12  2  0
 12  4  1  0
 12  7  1  0
 13 14  2  0
 13  2  1  0
 15 13  1  0
 16 15  1  0
 16 17  1  1
 18 22  1  0
 18 17  1  0
 19 18  2  0
 20 19  1  0
 20 21  1  0
 21 22  2  0
 23 16  1  0
 24 23  2  0
 26 25  1  1
 27 26  1  0
 28 26  1  0
 28 29  1  6
 29 23  1  0
 30 28  1  0
 31 30  1  0
 32 30  2  0
M  END
$$$$
