WHT.pdb
     RDKit          3D

 32 34  0  0  1  0  0  0  0  0999 V2000
    7.0420  -17.6066   23.9700 N   0  0  0  0  0  0  0  0  0  0  0  0
    8.0735  -16.6709   24.2835 C   0  0  1  0  0  0  0  0  0  0  0  0
    7.8553  -15.9533   25.5912 C   0  0  0  0  0  0  0  0  0  0  0  0
    6.7898  -14.9508   25.5378 C   0  0  0  0  0  0  0  0  0  0  0  0
    5.4673  -15.1869   25.8233 C   0  0  0  0  0  0  0  0  0  0  0  0
    4.7966  -14.0434   25.6677 N   0  0  0  0  0  0  0  0  0  0  0  0
    5.6099  -13.0422   25.2887 C   0  0  0  0  0  0  0  0  0  0  0  0
    5.4257  -11.6942   25.0005 C   0  0  0  0  0  0  0  0  0  0  0  0
    6.4771  -10.8963   24.6287 C   0  0  0  0  0  0  0  0  0  0  0  0
    7.7400  -11.4607   24.5440 C   0  0  0  0  0  0  0  0  0  0  0  0
    7.9262  -12.7946   24.8285 C   0  0  0  0  0  0  0  0  0  0  0  0
    6.8780  -13.6162   25.2053 C   0  0  0  0  0  0  0  0  0  0  0  0
    9.4121  -17.3141   24.3132 C   0  0  0  0  0  0  0  0  0  0  0  0
    9.4902  -18.5366   24.5852 O   0  0  0  0  0  0  0  0  0  0  0  0
   10.5945  -16.5888   24.0447 N   0  0  0  0  0  0  0  0  0  0  0  0
   11.9153  -17.2530   24.1353 C   0  0  1  0  0  0  0  0  0  0  0  0
   12.7995  -16.6196   23.1200 C   0  0  0  0  0  0  0  0  0  0  0  0
   12.3397  -16.7798   21.7306 C   0  0  0  0  0  0  0  0  0  0  0  0
   12.2334  -18.0172   21.0880 C   0  0  0  0  0  0  0  0  0  0  0  0
   11.7902  -17.8495   19.8344 N   0  0  0  0  0  0  0  0  0  0  0  0
   11.6146  -16.5327   19.6722 C   0  0  0  0  0  0  0  0  0  0  0  0
   11.9434  -15.8983   20.8054 N   0  0  0  0  0  0  0  0  0  0  0  0
   12.3951  -17.1717   25.5313 C   0  0  0  0  0  0  0  0  0  0  0  0
   13.5358  -17.5203   25.8789 O   0  0  0  0  0  0  0  0  0  0  0  0
   11.6062  -14.3682   28.2971 C   0  0  0  0  0  0  0  0  0  0  0  0
   11.1308  -15.7319   28.7298 C   0  0  1  0  0  0  0  0  0  0  0  0
    9.7879  -15.8729   28.4558 O   0  0  0  0  0  0  0  0  0  0  0  0
   11.9113  -16.7596   27.9353 C   0  0  2  0  0  0  0  0  0  0  0  0
   11.5402  -16.6756   26.5579 N   0  0  0  0  0  0  0  0  0  0  0  0
   11.5680  -18.0875   28.4635 C   0  0  0  0  0  0  0  0  0  0  0  0
   11.9156  -18.4241   29.7590 O   0  0  0  0  0  0  0  0  0  0  0  0
   10.9600  -18.9632   27.7926 O   0  0  0  0  0  0  0  0  0  0  0  0
  2  1  1  1
  3  2  1  0
  3  4  1  0
  4  5  2  0
  5  6  1  0
  7  6  1  0
  8  7  2  0
  9  8  1  0
 10 11  1  0
 10  9  2  0
 11 12  2  0
 12  4  1  0
 12  7  1  0
 13 14  2  0
 13  2  1  0
 15 13  1  0
 16 15  1  0
 16 17  1  6
 18 22  1  0
 18 17  1  0
 19 18  2  0
 20 19  1  0
 20 21  1  0
 21 22  2  0
 23 16  1  0
 24 23  2  0
 26 25  1  6
 27 26  1  0
 28 26  1  0
 28 29  1  6
 29 23  1  0
 30 28  1  0
 31 30  1  0
 32 30  2  0
M  END
$$$$
