WHT.pdb
     RDKit          3D

 32 34  0  0  1  0  0  0  0  0999 V2000
    6.7252  -17.2401   25.2091 N   0  0  0  0  0  0  0  0  0  0  0  0
    7.1197  -16.0199   24.5821 C   0  0  1  0  0  0  0  0  0  0  0  0
    8.3380  -15.3902   25.2081 C   0  0  0  0  0  0  0  0  0  0  0  0
    8.0311  -14.5428   26.3619 C   0  0  0  0  0  0  0  0  0  0  0  0
    8.4291  -14.7908   27.6528 C   0  0  0  0  0  0  0  0  0  0  0  0
    7.9662  -13.8076   28.4279 N   0  0  0  0  0  0  0  0  0  0  0  0
    7.2711  -12.9037   27.7156 C   0  0  0  0  0  0  0  0  0  0  0  0
    6.6003  -11.7260   28.0270 C   0  0  0  0  0  0  0  0  0  0  0  0
    5.9631  -10.9931   27.0589 C   0  0  0  0  0  0  0  0  0  0  0  0
    5.9988  -11.4497   25.7509 C   0  0  0  0  0  0  0  0  0  0  0  0
    6.6619  -12.6150   25.4389 C   0  0  0  0  0  0  0  0  0  0  0  0
    7.3107  -13.3685   26.4015 C   0  0  0  0  0  0  0  0  0  0  0  0
    7.3734  -16.2020   23.1299 C   0  0  0  0  0  0  0  0  0  0  0  0
    7.4389  -17.3671   22.6685 O   0  0  0  0  0  0  0  0  0  0  0  0
    7.5423  -15.1030   22.2583 N   0  0  0  0  0  0  0  0  0  0  0  0
    7.9223  -15.3227   20.8437 C   0  0  1  0  0  0  0  0  0  0  0  0
    7.6376  -14.0610   20.1082 C   0  0  0  0  0  0  0  0  0  0  0  0
    7.9774  -14.1037   18.6762 C   0  0  0  0  0  0  0  0  0  0  0  0
    8.5505  -15.2145   18.0492 C   0  0  0  0  0  0  0  0  0  0  0  0
    8.7456  -14.9600   16.7480 N   0  0  0  0  0  0  0  0  0  0  0  0
    8.3077  -13.7125   16.5405 C   0  0  0  0  0  0  0  0  0  0  0  0
    7.8504  -13.2053   17.6929 N   0  0  0  0  0  0  0  0  0  0  0  0
    9.3267  -15.7816   20.7929 C   0  0  0  0  0  0  0  0  0  0  0  0
   10.2714  -15.1319   21.2714 O   0  0  0  0  0  0  0  0  0  0  0  0
   10.9480  -18.7666   22.1912 C   0  0  0  0  0  0  0  0  0  0  0  0
   11.0825  -18.8855   20.6943 C   0  0  1  0  0  0  0  0  0  0  0  0
   10.0488  -19.6413   20.1857 O   0  0  0  0  0  0  0  0  0  0  0  0
   11.0065  -17.4862   20.1175 C   0  0  2  0  0  0  0  0  0  0  0  0
    9.6559  -17.0228   20.1747 N   0  0  0  0  0  0  0  0  0  0  0  0
   11.4506  -17.5550   18.7183 C   0  0  0  0  0  0  0  0  0  0  0  0
   12.7988  -17.6578   18.4281 O   0  0  0  0  0  0  0  0  0  0  0  0
   10.6592  -17.5254   17.7387 O   0  0  0  0  0  0  0  0  0  0  0  0
  2  1  1  1
  3  2  1  0
  3  4  1  0
  4  5  2  0
  5  6  1  0
  7  6  1  0
  8  7  2  0
  9  8  1  0
 10 11  1  0
 10  9  2  0
 11 12  2  0
 12  4  1  0
 12  7  1  0
 13 14  2  0
 13  2  1  0
 15 13  1  0
 16 15  1  0
 16 17  1  6
 18 22  1  0
 18 17  1  0
 19 18  2  0
 20 19  1  0
 20 21  1  0
 21 22  2  0
 23 16  1  0
 24 23  2  0
 26 25  1  1
 27 26  1  0
 28 26  1  0
 28 29  1  6
 29 23  1  0
 30 28  1  0
 31 30  1  0
 32 30  2  0
M  END
$$$$
