WHT.pdb
     RDKit          3D

 32 34  0  0  1  0  0  0  0  0999 V2000
    9.1996  -15.2173   24.5880 N   0  0  0  0  0  0  0  0  0  0  0  0
    8.3562  -16.1607   23.9274 C   0  0  1  0  0  0  0  0  0  0  0  0
    7.4211  -15.5314   22.9263 C   0  0  0  0  0  0  0  0  0  0  0  0
    7.1807  -14.1071   23.1649 C   0  0  0  0  0  0  0  0  0  0  0  0
    7.1393  -13.1387   22.1920 C   0  0  0  0  0  0  0  0  0  0  0  0
    6.8992  -11.9654   22.7816 N   0  0  0  0  0  0  0  0  0  0  0  0
    6.7762  -12.0989   24.1138 C   0  0  0  0  0  0  0  0  0  0  0  0
    6.5307  -11.2186   25.1619 C   0  0  0  0  0  0  0  0  0  0  0  0
    6.4576  -11.6591   26.4585 C   0  0  0  0  0  0  0  0  0  0  0  0
    6.6341  -13.0104   26.7103 C   0  0  0  0  0  0  0  0  0  0  0  0
    6.8772  -13.8848   25.6753 C   0  0  0  0  0  0  0  0  0  0  0  0
    6.9547  -13.4597   24.3604 C   0  0  0  0  0  0  0  0  0  0  0  0
    9.1418  -17.2189   23.2423 C   0  0  0  0  0  0  0  0  0  0  0  0
    8.5310  -18.0968   22.5859 O   0  0  0  0  0  0  0  0  0  0  0  0
   10.5524  -17.2629   23.3100 N   0  0  0  0  0  0  0  0  0  0  0  0
   11.2327  -18.3832   24.0000 C   0  0  1  0  0  0  0  0  0  0  0  0
   12.6715  -18.3250   23.6251 C   0  0  0  0  0  0  0  0  0  0  0  0
   13.4605  -19.4874   24.0656 C   0  0  0  0  0  0  0  0  0  0  0  0
   12.9005  -20.6246   24.6559 C   0  0  0  0  0  0  0  0  0  0  0  0
   13.8607  -21.5122   24.9497 N   0  0  0  0  0  0  0  0  0  0  0  0
   15.0146  -20.9593   24.5574 C   0  0  0  0  0  0  0  0  0  0  0  0
   14.7716  -19.7518   24.0307 N   0  0  0  0  0  0  0  0  0  0  0  0
   10.9521  -18.2918   25.4486 C   0  0  0  0  0  0  0  0  0  0  0  0
   10.7634  -17.2141   26.0373 O   0  0  0  0  0  0  0  0  0  0  0  0
    8.9246  -20.2326   29.2939 C   0  0  0  0  0  0  0  0  0  0  0  0
    9.2778  -20.2937   27.8296 C   0  0  1  0  0  0  0  0  0  0  0  0
    8.2349  -19.8080   27.0714 O   0  0  0  0  0  0  0  0  0  0  0  0
   10.4966  -19.4183   27.6181 C   0  0  2  0  0  0  0  0  0  0  0  0
   10.8863  -19.4723   26.2443 N   0  0  0  0  0  0  0  0  0  0  0  0
   11.5772  -19.9453   28.4634 C   0  0  0  0  0  0  0  0  0  0  0  0
   11.7596  -19.4446   29.7395 O   0  0  0  0  0  0  0  0  0  0  0  0
   12.3703  -20.8496   28.0891 O   0  0  0  0  0  0  0  0  0  0  0  0
  2  1  1  6
  3  2  1  0
  3  4  1  0
  4  5  2  0
  5  6  1  0
  7  6  1  0
  8  7  2  0
  9  8  1  0
 10 11  1  0
 10  9  2  0
 11 12  2  0
 12  4  1  0
 12  7  1  0
 13 14  2  0
 13  2  1  0
 15 13  1  0
 16 15  1  0
 16 17  1  1
 18 22  1  0
 18 17  1  0
 19 18  2  0
 20 19  1  0
 20 21  1  0
 21 22  2  0
 23 16  1  0
 24 23  2  0
 26 25  1  1
 27 26  1  0
 28 26  1  0
 28 29  1  6
 29 23  1  0
 30 28  1  0
 31 30  1  0
 32 30  2  0
M  END
$$$$
