WHT.pdb
     RDKit          3D

 32 34  0  0  1  0  0  0  0  0999 V2000
    6.6734  -17.6442   25.2488 N   0  0  0  0  0  0  0  0  0  0  0  0
    7.0780  -16.3923   24.6951 C   0  0  1  0  0  0  0  0  0  0  0  0
    8.2708  -15.7864   25.3899 C   0  0  0  0  0  0  0  0  0  0  0  0
    7.9132  -14.8466   26.4539 C   0  0  0  0  0  0  0  0  0  0  0  0
    7.8830  -15.1444   27.7943 C   0  0  0  0  0  0  0  0  0  0  0  0
    7.5145  -14.0460   28.4572 N   0  0  0  0  0  0  0  0  0  0  0  0
    7.2938  -13.0162   27.6214 C   0  0  0  0  0  0  0  0  0  0  0  0
    6.9039  -11.6920   27.7897 C   0  0  0  0  0  0  0  0  0  0  0  0
    6.7576  -10.8517   26.7159 C   0  0  0  0  0  0  0  0  0  0  0  0
    7.0073  -11.3487   25.4465 C   0  0  0  0  0  0  0  0  0  0  0  0
    7.3935  -12.6588   25.2761 C   0  0  0  0  0  0  0  0  0  0  0  0
    7.5466  -13.5223   26.3469 C   0  0  0  0  0  0  0  0  0  0  0  0
    7.3791  -16.5014   23.2446 C   0  0  0  0  0  0  0  0  0  0  0  0
    7.5281  -17.6412   22.7416 O   0  0  0  0  0  0  0  0  0  0  0  0
    7.5017  -15.3605   22.4201 N   0  0  0  0  0  0  0  0  0  0  0  0
    7.9168  -15.5023   21.0054 C   0  0  1  0  0  0  0  0  0  0  0  0
    7.5191  -14.2537   20.3006 C   0  0  0  0  0  0  0  0  0  0  0  0
    7.8230  -14.2471   18.8600 C   0  0  0  0  0  0  0  0  0  0  0  0
    8.4104  -15.3234   18.1877 C   0  0  0  0  0  0  0  0  0  0  0  0
    8.5649  -15.0277   16.8898 N   0  0  0  0  0  0  0  0  0  0  0  0
    8.0875  -13.7879   16.7286 C   0  0  0  0  0  0  0  0  0  0  0  0
    7.6460  -13.3259   17.9060 N   0  0  0  0  0  0  0  0  0  0  0  0
    9.3596  -15.8215   20.9615 C   0  0  0  0  0  0  0  0  0  0  0  0
   10.2262  -15.1273   21.5191 O   0  0  0  0  0  0  0  0  0  0  0  0
   11.3938  -18.5041   22.2487 C   0  0  0  0  0  0  0  0  0  0  0  0
   11.4826  -18.6358   20.7495 C   0  0  1  0  0  0  0  0  0  0  0  0
   10.5287  -19.5204   20.2957 O   0  0  0  0  0  0  0  0  0  0  0  0
   11.2151  -17.2675   20.1555 C   0  0  2  0  0  0  0  0  0  0  0  0
    9.8208  -16.9712   20.2569 N   0  0  0  0  0  0  0  0  0  0  0  0
   11.6140  -17.3085   18.7416 C   0  0  0  0  0  0  0  0  0  0  0  0
   12.9437  -17.1496   18.3965 O   0  0  0  0  0  0  0  0  0  0  0  0
   10.7990  -17.4843   17.7973 O   0  0  0  0  0  0  0  0  0  0  0  0
  2  1  1  1
  3  2  1  0
  3  4  1  0
  4  5  2  0
  5  6  1  0
  7  6  1  0
  8  7  2  0
  9  8  1  0
 10 11  1  0
 10  9  2  0
 11 12  2  0
 12  4  1  0
 12  7  1  0
 13 14  2  0
 13  2  1  0
 15 13  1  0
 16 15  1  0
 16 17  1  6
 18 22  1  0
 18 17  1  0
 19 18  2  0
 20 19  1  0
 20 21  1  0
 21 22  2  0
 23 16  1  0
 24 23  2  0
 26 25  1  1
 27 26  1  0
 28 26  1  0
 28 29  1  6
 29 23  1  0
 30 28  1  0
 31 30  1  0
 32 30  2  0
M  END
$$$$
