WHT.pdb
     RDKit          3D

 32 34  0  0  1  0  0  0  0  0999 V2000
    6.2197  -17.4265   23.0730 N   0  0  0  0  0  0  0  0  0  0  0  0
    7.1034  -16.3143   23.2141 C   0  0  1  0  0  0  0  0  0  0  0  0
    7.5571  -16.0848   24.6333 C   0  0  0  0  0  0  0  0  0  0  0  0
    6.7477  -15.1009   25.3544 C   0  0  0  0  0  0  0  0  0  0  0  0
    5.5664  -15.3705   26.0011 C   0  0  0  0  0  0  0  0  0  0  0  0
    5.1180  -14.2350   26.5408 N   0  0  0  0  0  0  0  0  0  0  0  0
    5.9467  -13.2072   26.2866 C   0  0  0  0  0  0  0  0  0  0  0  0
    5.9469  -11.8543   26.6085 C   0  0  0  0  0  0  0  0  0  0  0  0
    6.9590  -11.0255   26.1969 C   0  0  0  0  0  0  0  0  0  0  0  0
    7.9928  -11.5636   25.4470 C   0  0  0  0  0  0  0  0  0  0  0  0
    7.9959  -12.9023   25.1266 C   0  0  0  0  0  0  0  0  0  0  0  0
    6.9839  -13.7547   25.5324 C   0  0  0  0  0  0  0  0  0  0  0  0
    8.3033  -16.4491   22.3488 C   0  0  0  0  0  0  0  0  0  0  0  0
    8.6944  -17.5983   22.0313 O   0  0  0  0  0  0  0  0  0  0  0  0
    9.0126  -15.3224   21.8760 N   0  0  0  0  0  0  0  0  0  0  0  0
   10.1509  -15.4932   20.9439 C   0  0  1  0  0  0  0  0  0  0  0  0
   10.2474  -14.2506   20.1311 C   0  0  0  0  0  0  0  0  0  0  0  0
    9.2264  -14.1348   19.0765 C   0  0  0  0  0  0  0  0  0  0  0  0
    8.3230  -15.1535   18.7582 C   0  0  0  0  0  0  0  0  0  0  0  0
    7.5179  -14.7613   17.7612 N   0  0  0  0  0  0  0  0  0  0  0  0
    7.8940  -13.5167   17.4437 C   0  0  0  0  0  0  0  0  0  0  0  0
    8.9132  -13.1469   18.2304 N   0  0  0  0  0  0  0  0  0  0  0  0
   11.3593  -15.8342   21.7243 C   0  0  0  0  0  0  0  0  0  0  0  0
   12.4623  -15.2930   21.5397 O   0  0  0  0  0  0  0  0  0  0  0  0
   11.7248  -16.2352   25.6309 C   0  0  0  0  0  0  0  0  0  0  0  0
   12.0444  -17.5262   24.9210 C   0  0  1  0  0  0  0  0  0  0  0  0
   10.9277  -18.3321   24.8806 O   0  0  0  0  0  0  0  0  0  0  0  0
   12.4579  -17.1773   23.5055 C   0  0  2  0  0  0  0  0  0  0  0  0
   11.2993  -16.8254   22.7465 N   0  0  0  0  0  0  0  0  0  0  0  0
   13.0946  -18.3656   22.9203 C   0  0  0  0  0  0  0  0  0  0  0  0
   14.3411  -18.7677   23.3640 O   0  0  0  0  0  0  0  0  0  0  0  0
   12.5624  -19.0610   22.0148 O   0  0  0  0  0  0  0  0  0  0  0  0
  2  1  1  1
  3  2  1  0
  3  4  1  0
  4  5  2  0
  5  6  1  0
  7  6  1  0
  8  7  2  0
  9  8  1  0
 10 11  1  0
 10  9  2  0
 11 12  2  0
 12  4  1  0
 12  7  1  0
 13 14  2  0
 13  2  1  0
 15 13  1  0
 16 15  1  0
 16 17  1  1
 18 22  1  0
 18 17  1  0
 19 18  2  0
 20 19  1  0
 20 21  1  0
 21 22  2  0
 23 16  1  0
 24 23  2  0
 26 25  1  1
 27 26  1  0
 28 26  1  0
 28 29  1  6
 29 23  1  0
 30 28  1  0
 31 30  1  0
 32 30  2  0
M  END
$$$$
