WWY.pdb
     RDKit          3D

 41 45  0  0  1  0  0  0  0  0999 V2000
    5.9855  -18.2916   21.0250 N   0  0  0  0  0  0  0  0  0  0  0  0
    6.5835  -17.2596   21.8063 C   0  0  1  0  0  0  0  0  0  0  0  0
    5.8575  -15.9380   21.7110 C   0  0  0  0  0  0  0  0  0  0  0  0
    6.3158  -15.1379   20.5543 C   0  0  0  0  0  0  0  0  0  0  0  0
    5.8414  -15.2431   19.2614 C   0  0  0  0  0  0  0  0  0  0  0  0
    6.4984  -14.3484   18.4779 N   0  0  0  0  0  0  0  0  0  0  0  0
    7.3865  -13.6627   19.2176 C   0  0  0  0  0  0  0  0  0  0  0  0
    8.2935  -12.6639   18.9456 C   0  0  0  0  0  0  0  0  0  0  0  0
    9.0880  -12.1488   19.9440 C   0  0  0  0  0  0  0  0  0  0  0  0
    8.9995  -12.6116   21.2253 C   0  0  0  0  0  0  0  0  0  0  0  0
    8.0906  -13.6128   21.4986 C   0  0  0  0  0  0  0  0  0  0  0  0
    7.2772  -14.1538   20.5243 C   0  0  0  0  0  0  0  0  0  0  0  0
    6.6836  -17.7131   23.2119 C   0  0  0  0  0  0  0  0  0  0  0  0
    5.6509  -17.9010   23.8981 O   0  0  0  0  0  0  0  0  0  0  0  0
    7.9729  -17.9293   23.7631 N   0  0  0  0  0  0  0  0  0  0  0  0
    8.1762  -17.7972   25.1832 C   0  0  1  0  0  0  0  0  0  0  0  0
    8.4113  -19.0931   25.8929 C   0  0  0  0  0  0  0  0  0  0  0  0
    8.5240  -18.9801   27.3502 C   0  0  0  0  0  0  0  0  0  0  0  0
    7.4899  -19.1100   28.2499 C   0  0  0  0  0  0  0  0  0  0  0  0
    7.9413  -18.9709   29.5048 N   0  0  0  0  0  0  0  0  0  0  0  0
    9.2634  -18.7512   29.4166 C   0  0  0  0  0  0  0  0  0  0  0  0
   10.1912  -18.5394   30.4067 C   0  0  0  0  0  0  0  0  0  0  0  0
   11.5188  -18.3231   30.1086 C   0  0  0  0  0  0  0  0  0  0  0  0
   11.9026  -18.3231   28.7850 C   0  0  0  0  0  0  0  0  0  0  0  0
   10.9616  -18.5385   27.7755 C   0  0  0  0  0  0  0  0  0  0  0  0
    9.6543  -18.7516   28.0796 C   0  0  0  0  0  0  0  0  0  0  0  0
    9.2792  -16.8250   25.4045 C   0  0  0  0  0  0  0  0  0  0  0  0
   10.3199  -16.8326   24.6999 O   0  0  0  0  0  0  0  0  0  0  0  0
    5.0959  -11.6324   24.8573 O   0  0  0  0  0  0  0  0  0  0  0  0
    6.2443  -12.1464   25.4601 C   0  0  0  0  0  0  0  0  0  0  0  0
    7.4216  -12.2044   24.7785 C   0  0  0  0  0  0  0  0  0  0  0  0
    8.5621  -12.7148   25.3767 C   0  0  0  0  0  0  0  0  0  0  0  0
    8.4846  -13.1652   26.6799 C   0  0  0  0  0  0  0  0  0  0  0  0
    9.6427  -13.7247   27.3808 C   0  0  0  0  0  0  0  0  0  0  0  0
   10.2479  -14.8561   26.5792 C   0  0  2  0  0  0  0  0  0  0  0  0
    9.1834  -15.8509   26.4302 N   0  0  0  0  0  0  0  0  0  0  0  0
   11.4419  -15.4514   27.2015 C   0  0  0  0  0  0  0  0  0  0  0  0
   11.4290  -16.5715   27.7632 O   0  0  0  0  0  0  0  0  0  0  0  0
    7.2870  -13.1130   27.3922 C   0  0  0  0  0  0  0  0  0  0  0  0
    6.1839  -12.5977   26.7539 C   0  0  0  0  0  0  0  0  0  0  0  0
   12.6677  -14.7827   27.1947 O   0  0  0  0  0  0  0  0  0  0  0  0
  2  3  1  0
  2  1  1  6
  4  3  1  0
  4  5  2  0
  6  5  1  0
  7  6  1  0
  8  7  2  0
  9  8  1  0
 10  9  2  0
 10 11  1  0
 11 12  2  0
 12  7  1  0
 12  4  1  0
 13  2  1  0
 14 13  2  0
 15 13  1  0
 16 27  1  0
 16 15  1  0
 16 17  1  6
 18 17  1  0
 18 26  1  0
 19 20  1  0
 19 18  2  0
 20 21  1  0
 21 22  2  0
 21 26  1  0
 22 23  1  0
 23 24  2  0
 25 24  1  0
 26 25  2  0
 27 36  1  0
 28 27  2  0
 29 30  1  0
 30 40  2  0
 31 30  1  0
 31 32  2  0
 32 33  1  0
 33 39  2  0
 33 34  1  0
 35 34  1  1
 35 37  1  0
 36 35  1  0
 37 38  2  0
 37 41  1  0
 40 39  1  0
M  END
$$$$
