WWY.pdb
     RDKit          3D

 41 45  0  0  1  0  0  0  0  0999 V2000
    8.3721  -18.1761   22.1573 N   0  0  0  0  0  0  0  0  0  0  0  0
    9.6455  -17.6236   21.8309 C   0  0  1  0  0  0  0  0  0  0  0  0
    9.6231  -16.7535   20.5959 C   0  0  0  0  0  0  0  0  0  0  0  0
    8.4325  -15.8764   20.5594 C   0  0  0  0  0  0  0  0  0  0  0  0
    7.1177  -16.2996   20.5646 C   0  0  0  0  0  0  0  0  0  0  0  0
    6.3054  -15.2113   20.5248 N   0  0  0  0  0  0  0  0  0  0  0  0
    7.0475  -14.0913   20.4938 C   0  0  0  0  0  0  0  0  0  0  0  0
    6.7543  -12.7473   20.4488 C   0  0  0  0  0  0  0  0  0  0  0  0
    7.7626  -11.8113   20.4248 C   0  0  0  0  0  0  0  0  0  0  0  0
    9.0748  -12.1874   20.4450 C   0  0  0  0  0  0  0  0  0  0  0  0
    9.3693  -13.5344   20.4902 C   0  0  0  0  0  0  0  0  0  0  0  0
    8.3859  -14.5018   20.5153 C   0  0  0  0  0  0  0  0  0  0  0  0
   10.1635  -16.8775   22.9998 C   0  0  0  0  0  0  0  0  0  0  0  0
   11.1574  -16.1213   22.8862 O   0  0  0  0  0  0  0  0  0  0  0  0
    9.5103  -17.0383   24.2490 N   0  0  0  0  0  0  0  0  0  0  0  0
    9.9280  -16.2528   25.3820 C   0  0  1  0  0  0  0  0  0  0  0  0
    8.8602  -16.0386   26.4079 C   0  0  0  0  0  0  0  0  0  0  0  0
    7.6796  -15.3194   25.9201 C   0  0  0  0  0  0  0  0  0  0  0  0
    6.5207  -15.8980   25.4532 C   0  0  0  0  0  0  0  0  0  0  0  0
    5.6334  -14.9543   25.1066 N   0  0  0  0  0  0  0  0  0  0  0  0
    6.2171  -13.7690   25.3484 C   0  0  0  0  0  0  0  0  0  0  0  0
    5.7393  -12.4952   25.1620 C   0  0  0  0  0  0  0  0  0  0  0  0
    6.5050  -11.3918   25.4692 C   0  0  0  0  0  0  0  0  0  0  0  0
    7.7725  -11.5919   25.9719 C   0  0  0  0  0  0  0  0  0  0  0  0
    8.2615  -12.8863   26.1629 C   0  0  0  0  0  0  0  0  0  0  0  0
    7.4983  -13.9685   25.8575 C   0  0  0  0  0  0  0  0  0  0  0  0
   11.1454  -16.8826   25.9585 C   0  0  0  0  0  0  0  0  0  0  0  0
   11.8409  -16.3033   26.8305 O   0  0  0  0  0  0  0  0  0  0  0  0
    8.3492  -19.6525   30.6605 O   0  0  0  0  0  0  0  0  0  0  0  0
    9.3346  -19.7684   29.6797 C   0  0  0  0  0  0  0  0  0  0  0  0
   10.6074  -19.3480   29.9189 C   0  0  0  0  0  0  0  0  0  0  0  0
   11.5862  -19.4628   28.9452 C   0  0  0  0  0  0  0  0  0  0  0  0
   11.2481  -20.0124   27.7242 C   0  0  0  0  0  0  0  0  0  0  0  0
   12.2225  -20.1623   26.6409 C   0  0  0  0  0  0  0  0  0  0  0  0
   12.7090  -18.8065   26.1782 C   0  0  2  0  0  0  0  0  0  0  0  0
   11.5581  -18.1705   25.5332 N   0  0  0  0  0  0  0  0  0  0  0  0
   13.8584  -18.8702   25.2605 C   0  0  0  0  0  0  0  0  0  0  0  0
   13.7687  -18.6049   24.0391 O   0  0  0  0  0  0  0  0  0  0  0  0
    9.9495  -20.4479   27.4627 C   0  0  0  0  0  0  0  0  0  0  0  0
    9.0149  -20.3121   28.4617 C   0  0  0  0  0  0  0  0  0  0  0  0
   15.1260  -19.2364   25.7173 O   0  0  0  0  0  0  0  0  0  0  0  0
  2  3  1  0
  2  1  1  1
  4  3  1  0
  4  5  2  0
  6  5  1  0
  7  6  1  0
  8  7  2  0
  9  8  1  0
 10  9  2  0
 10 11  1  0
 11 12  2  0
 12  7  1  0
 12  4  1  0
 13  2  1  0
 14 13  2  0
 15 13  1  0
 16 27  1  0
 16 15  1  0
 16 17  1  1
 18 17  1  0
 18 26  1  0
 19 20  1  0
 19 18  2  0
 20 21  1  0
 21 22  2  0
 21 26  1  0
 22 23  1  0
 23 24  2  0
 25 24  1  0
 26 25  2  0
 27 36  1  0
 28 27  2  0
 29 30  1  0
 30 40  2  0
 31 30  1  0
 31 32  2  0
 32 33  1  0
 33 39  2  0
 33 34  1  0
 35 34  1  6
 35 37  1  0
 36 35  1  0
 37 38  2  0
 37 41  1  0
 40 39  1  0
M  END
$$$$
