WWY.pdb
     RDKit          3D

 41 45  0  0  1  0  0  0  0  0999 V2000
    9.7898  -15.4106   17.8738 N   0  0  0  0  0  0  0  0  0  0  0  0
   10.0078  -16.4863   18.7841 C   0  0  1  0  0  0  0  0  0  0  0  0
   11.3191  -17.2034   18.5623 C   0  0  0  0  0  0  0  0  0  0  0  0
   11.2011  -18.6581   18.8033 C   0  0  0  0  0  0  0  0  0  0  0  0
   10.9553  -19.6182   17.8413 C   0  0  0  0  0  0  0  0  0  0  0  0
   10.9166  -20.8383   18.4377 N   0  0  0  0  0  0  0  0  0  0  0  0
   11.1291  -20.7056   19.7581 C   0  0  0  0  0  0  0  0  0  0  0  0
   11.1944  -21.5877   20.8126 C   0  0  0  0  0  0  0  0  0  0  0  0
   11.4337  -21.1353   22.0899 C   0  0  0  0  0  0  0  0  0  0  0  0
   11.6119  -19.8061   22.3455 C   0  0  0  0  0  0  0  0  0  0  0  0
   11.5466  -18.9215   21.2890 C   0  0  0  0  0  0  0  0  0  0  0  0
   11.3087  -19.3374   19.9952 C   0  0  0  0  0  0  0  0  0  0  0  0
    9.9066  -15.9758   20.1699 C   0  0  0  0  0  0  0  0  0  0  0  0
   10.7963  -15.2288   20.6425 O   0  0  0  0  0  0  0  0  0  0  0  0
    8.7819  -16.3511   20.9490 N   0  0  0  0  0  0  0  0  0  0  0  0
    8.6115  -15.8041   22.2708 C   0  0  1  0  0  0  0  0  0  0  0  0
    7.1984  -15.8145   22.7621 C   0  0  0  0  0  0  0  0  0  0  0  0
    7.0174  -15.2770   24.1139 C   0  0  0  0  0  0  0  0  0  0  0  0
    6.7679  -16.0173   25.2476 C   0  0  0  0  0  0  0  0  0  0  0  0
    6.6774  -15.2161   26.3190 N   0  0  0  0  0  0  0  0  0  0  0  0
    6.8675  -13.9613   25.8791 C   0  0  0  0  0  0  0  0  0  0  0  0
    6.8687  -12.7743   26.5697 C   0  0  0  0  0  0  0  0  0  0  0  0
    7.0790  -11.5735   25.9278 C   0  0  0  0  0  0  0  0  0  0  0  0
    7.2901  -11.5855   24.5659 C   0  0  0  0  0  0  0  0  0  0  0  0
    7.2897  -12.7911   23.8606 C   0  0  0  0  0  0  0  0  0  0  0  0
    7.0820  -13.9706   24.5027 C   0  0  0  0  0  0  0  0  0  0  0  0
    9.5336  -16.5210   23.1910 C   0  0  0  0  0  0  0  0  0  0  0  0
    9.8102  -17.7372   23.0362 O   0  0  0  0  0  0  0  0  0  0  0  0
    9.8295  -15.3589   31.0899 O   0  0  0  0  0  0  0  0  0  0  0  0
   10.3423  -15.3981   29.7930 C   0  0  0  0  0  0  0  0  0  0  0  0
   11.0342  -16.4843   29.3509 C   0  0  0  0  0  0  0  0  0  0  0  0
   11.5436  -16.5236   28.0631 C   0  0  0  0  0  0  0  0  0  0  0  0
   11.3372  -15.4394   27.2331 C   0  0  0  0  0  0  0  0  0  0  0  0
   11.8488  -15.4001   25.8612 C   0  0  0  0  0  0  0  0  0  0  0  0
   11.2111  -16.4912   25.0295 C   0  0  2  0  0  0  0  0  0  0  0  0
   10.1327  -15.8411   24.2813 N   0  0  0  0  0  0  0  0  0  0  0  0
   10.6958  -17.6183   25.8241 C   0  0  0  0  0  0  0  0  0  0  0  0
    9.4736  -17.8020   26.0305 O   0  0  0  0  0  0  0  0  0  0  0  0
   10.6309  -14.3192   27.6699 C   0  0  0  0  0  0  0  0  0  0  0  0
   10.1458  -14.3293   28.9562 C   0  0  0  0  0  0  0  0  0  0  0  0
   11.5618  -18.5527   26.3956 O   0  0  0  0  0  0  0  0  0  0  0  0
  2  3  1  0
  2  1  1  6
  4  3  1  0
  4  5  2  0
  6  5  1  0
  7  6  1  0
  8  7  2  0
  9  8  1  0
 10  9  2  0
 10 11  1  0
 11 12  2  0
 12  7  1  0
 12  4  1  0
 13  2  1  0
 14 13  2  0
 15 13  1  0
 16 27  1  0
 16 15  1  0
 16 17  1  1
 18 17  1  0
 18 26  1  0
 19 20  1  0
 19 18  2  0
 20 21  1  0
 21 22  2  0
 21 26  1  0
 22 23  1  0
 23 24  2  0
 25 24  1  0
 26 25  2  0
 27 36  1  0
 28 27  2  0
 29 30  1  0
 30 40  2  0
 31 30  1  0
 31 32  2  0
 32 33  1  0
 33 39  2  0
 33 34  1  0
 35 34  1  1
 35 37  1  0
 36 35  1  0
 37 38  2  0
 37 41  1  0
 40 39  1  0
M  END
$$$$
