WWY.pdb
     RDKit          3D

 41 45  0  0  1  0  0  0  0  0999 V2000
   10.3583  -18.7930   19.7578 N   0  0  0  0  0  0  0  0  0  0  0  0
   10.1049  -17.3998   19.9248 C   0  0  1  0  0  0  0  0  0  0  0  0
    9.1484  -16.8370   18.8995 C   0  0  0  0  0  0  0  0  0  0  0  0
    9.0645  -15.3620   18.9732 C   0  0  0  0  0  0  0  0  0  0  0  0
    9.8526  -14.4725   18.2692 C   0  0  0  0  0  0  0  0  0  0  0  0
    9.4845  -13.2059   18.5950 N   0  0  0  0  0  0  0  0  0  0  0  0
    8.4817  -13.2398   19.4889 C   0  0  0  0  0  0  0  0  0  0  0  0
    7.7466  -12.2773   20.1430 C   0  0  0  0  0  0  0  0  0  0  0  0
    6.7553  -12.6346   21.0278 C   0  0  0  0  0  0  0  0  0  0  0  0
    6.4746  -13.9466   21.2804 C   0  0  0  0  0  0  0  0  0  0  0  0
    7.2110  -14.9117   20.6252 C   0  0  0  0  0  0  0  0  0  0  0  0
    8.2123  -14.5922   19.7315 C   0  0  0  0  0  0  0  0  0  0  0  0
    9.6149  -17.1584   21.3006 C   0  0  0  0  0  0  0  0  0  0  0  0
    8.8556  -17.9832   21.8626 O   0  0  0  0  0  0  0  0  0  0  0  0
   10.0235  -15.9742   21.9666 N   0  0  0  0  0  0  0  0  0  0  0  0
    9.5704  -15.7147   23.3092 C   0  0  1  0  0  0  0  0  0  0  0  0
    8.1393  -15.2888   23.4027 C   0  0  0  0  0  0  0  0  0  0  0  0
    7.6798  -14.9840   24.7611 C   0  0  0  0  0  0  0  0  0  0  0  0
    7.1476  -15.8883   25.6525 C   0  0  0  0  0  0  0  0  0  0  0  0
    6.8514  -15.2833   26.8119 N   0  0  0  0  0  0  0  0  0  0  0  0
    7.1908  -13.9915   26.6703 C   0  0  0  0  0  0  0  0  0  0  0  0
    7.0870  -12.9489   27.5580 C   0  0  0  0  0  0  0  0  0  0  0  0
    7.4896  -11.6762   27.2170 C   0  0  0  0  0  0  0  0  0  0  0  0
    8.0035  -11.4663   25.9556 C   0  0  0  0  0  0  0  0  0  0  0  0
    8.1106  -12.5246   25.0502 C   0  0  0  0  0  0  0  0  0  0  0  0
    7.7114  -13.7767   25.3962 C   0  0  0  0  0  0  0  0  0  0  0  0
    9.8555  -16.9182   24.1347 C   0  0  0  0  0  0  0  0  0  0  0  0
    9.2070  -17.9857   23.9952 O   0  0  0  0  0  0  0  0  0  0  0  0
   16.6156  -15.8905   24.0847 O   0  0  0  0  0  0  0  0  0  0  0  0
   15.4980  -16.6339   24.4651 C   0  0  0  0  0  0  0  0  0  0  0  0
   15.2484  -16.8926   25.7784 C   0  0  0  0  0  0  0  0  0  0  0  0
   14.1388  -17.6307   26.1566 C   0  0  0  0  0  0  0  0  0  0  0  0
   13.2875  -18.1013   25.1763 C   0  0  0  0  0  0  0  0  0  0  0  0
   12.0975  -18.8943   25.4929 C   0  0  0  0  0  0  0  0  0  0  0  0
   11.0072  -18.0079   26.0534 C   0  0  2  0  0  0  0  0  0  0  0  0
   10.8807  -16.8916   25.1137 N   0  0  0  0  0  0  0  0  0  0  0  0
   11.2802  -17.5211   27.4157 C   0  0  0  0  0  0  0  0  0  0  0  0
   12.3640  -17.7315   28.0084 O   0  0  0  0  0  0  0  0  0  0  0  0
   13.5283  -17.8454   23.8268 C   0  0  0  0  0  0  0  0  0  0  0  0
   14.6427  -17.1083   23.5034 C   0  0  0  0  0  0  0  0  0  0  0  0
   10.3256  -16.7885   28.1242 O   0  0  0  0  0  0  0  0  0  0  0  0
  2  3  1  0
  2  1  1  6
  4  3  1  0
  4  5  2  0
  6  5  1  0
  7  6  1  0
  8  7  2  0
  9  8  1  0
 10  9  2  0
 10 11  1  0
 11 12  2  0
 12  7  1  0
 12  4  1  0
 13  2  1  0
 14 13  2  0
 15 13  1  0
 16 27  1  0
 16 15  1  0
 16 17  1  6
 18 17  1  0
 18 26  1  0
 19 20  1  0
 19 18  2  0
 20 21  1  0
 21 22  2  0
 21 26  1  0
 22 23  1  0
 23 24  2  0
 25 24  1  0
 26 25  2  0
 27 36  1  0
 28 27  2  0
 29 30  1  0
 30 40  2  0
 31 30  1  0
 31 32  2  0
 32 33  1  0
 33 39  2  0
 33 34  1  0
 35 34  1  6
 35 37  1  0
 36 35  1  0
 37 38  2  0
 37 41  1  0
 40 39  1  0
M  END
$$$$
