WWY.pdb
     RDKit          3D

 41 45  0  0  1  0  0  0  0  0999 V2000
    8.8000  -16.9328   21.2367 N   0  0  0  0  0  0  0  0  0  0  0  0
    8.8228  -15.5549   21.6025 C   0  0  1  0  0  0  0  0  0  0  0  0
    7.4887  -14.8666   21.4310 C   0  0  0  0  0  0  0  0  0  0  0  0
    7.1294  -14.7052   20.0052 C   0  0  0  0  0  0  0  0  0  0  0  0
    6.4547  -15.6308   19.2331 C   0  0  0  0  0  0  0  0  0  0  0  0
    6.3063  -15.1318   17.9782 N   0  0  0  0  0  0  0  0  0  0  0  0
    6.8623  -13.9104   17.9061 C   0  0  0  0  0  0  0  0  0  0  0  0
    6.9983  -12.9759   16.9048 C   0  0  0  0  0  0  0  0  0  0  0  0
    7.6377  -11.7813   17.1444 C   0  0  0  0  0  0  0  0  0  0  0  0
    8.1524  -11.4911   18.3751 C   0  0  0  0  0  0  0  0  0  0  0  0
    8.0163  -12.4274   19.3791 C   0  0  0  0  0  0  0  0  0  0  0  0
    7.3819  -13.6357   19.1770 C   0  0  0  0  0  0  0  0  0  0  0  0
    9.3117  -15.4316   22.9943 C   0  0  0  0  0  0  0  0  0  0  0  0
    9.5938  -14.3085   23.4756 O   0  0  0  0  0  0  0  0  0  0  0  0
    9.4535  -16.6118   23.7688 N   0  0  0  0  0  0  0  0  0  0  0  0
    9.9697  -16.5298   25.1113 C   0  0  1  0  0  0  0  0  0  0  0  0
    8.9487  -16.7728   26.1776 C   0  0  0  0  0  0  0  0  0  0  0  0
    7.8471  -15.8058   26.2007 C   0  0  0  0  0  0  0  0  0  0  0  0
    6.5153  -16.0984   26.0100 C   0  0  0  0  0  0  0  0  0  0  0  0
    5.7723  -14.9872   26.1166 N   0  0  0  0  0  0  0  0  0  0  0  0
    6.6215  -13.9791   26.3750 C   0  0  0  0  0  0  0  0  0  0  0  0
    6.3727  -12.6422   26.5664 C   0  0  0  0  0  0  0  0  0  0  0  0
    7.3947  -11.7531   26.8172 C   0  0  0  0  0  0  0  0  0  0  0  0
    8.6848  -12.2348   26.8728 C   0  0  0  0  0  0  0  0  0  0  0  0
    8.9414  -13.5940   26.6787 C   0  0  0  0  0  0  0  0  0  0  0  0
    7.9263  -14.4635   26.4326 C   0  0  0  0  0  0  0  0  0  0  0  0
   11.1286  -17.4551   25.2190 C   0  0  0  0  0  0  0  0  0  0  0  0
   11.0827  -18.6288   24.7715 O   0  0  0  0  0  0  0  0  0  0  0  0
   19.2777  -20.2185   26.7987 O   0  0  0  0  0  0  0  0  0  0  0  0
   18.1387  -19.4591   26.5297 C   0  0  0  0  0  0  0  0  0  0  0  0
   17.5997  -19.4320   25.2796 C   0  0  0  0  0  0  0  0  0  0  0  0
   16.4687  -18.6780   25.0120 C   0  0  0  0  0  0  0  0  0  0  0  0
   15.8956  -17.9521   26.0375 C   0  0  0  0  0  0  0  0  0  0  0  0
   14.7037  -17.1252   25.8351 C   0  0  0  0  0  0  0  0  0  0  0  0
   13.4522  -17.9675   25.9492 C   0  0  2  0  0  0  0  0  0  0  0  0
   12.3317  -17.0310   25.8376 N   0  0  0  0  0  0  0  0  0  0  0  0
   13.3697  -18.7410   27.1990 C   0  0  0  0  0  0  0  0  0  0  0  0
   13.9358  -19.8484   27.3519 O   0  0  0  0  0  0  0  0  0  0  0  0
   16.4347  -17.9687   27.3234 C   0  0  0  0  0  0  0  0  0  0  0  0
   17.5575  -18.7326   27.5375 C   0  0  0  0  0  0  0  0  0  0  0  0
   12.6427  -18.2675   28.2931 O   0  0  0  0  0  0  0  0  0  0  0  0
  2  3  1  0
  2  1  1  1
  4  3  1  0
  4  5  2  0
  6  5  1  0
  7  6  1  0
  8  7  2  0
  9  8  1  0
 10  9  2  0
 10 11  1  0
 11 12  2  0
 12  7  1  0
 12  4  1  0
 13  2  1  0
 14 13  2  0
 15 13  1  0
 16 27  1  0
 16 15  1  0
 16 17  1  1
 18 17  1  0
 18 26  1  0
 19 20  1  0
 19 18  2  0
 20 21  1  0
 21 22  2  0
 21 26  1  0
 22 23  1  0
 23 24  2  0
 25 24  1  0
 26 25  2  0
 27 36  1  0
 28 27  2  0
 29 30  1  0
 30 40  2  0
 31 30  1  0
 31 32  2  0
 32 33  1  0
 33 39  2  0
 33 34  1  0
 35 34  1  1
 35 37  1  0
 36 35  1  0
 37 38  2  0
 37 41  1  0
 40 39  1  0
M  END
$$$$
