WWY.pdb
     RDKit          3D

 41 45  0  0  1  0  0  0  0  0999 V2000
    8.8556  -16.1900   21.3976 N   0  0  0  0  0  0  0  0  0  0  0  0
    9.4025  -14.9639   21.8781 C   0  0  1  0  0  0  0  0  0  0  0  0
    8.5886  -13.7514   21.4905 C   0  0  0  0  0  0  0  0  0  0  0  0
    8.4084  -13.6520   20.0257 C   0  0  0  0  0  0  0  0  0  0  0  0
    7.2012  -13.6984   19.3560 C   0  0  0  0  0  0  0  0  0  0  0  0
    7.4329  -13.5744   18.0231 N   0  0  0  0  0  0  0  0  0  0  0  0
    8.7524  -13.4487   17.8009 C   0  0  0  0  0  0  0  0  0  0  0  0
    9.5249  -13.2968   16.6720 C   0  0  0  0  0  0  0  0  0  0  0  0
   10.8935  -13.1926   16.7691 C   0  0  0  0  0  0  0  0  0  0  0  0
   11.5200  -13.2366   17.9813 C   0  0  0  0  0  0  0  0  0  0  0  0
   10.7462  -13.3888   19.1132 C   0  0  0  0  0  0  0  0  0  0  0  0
    9.3719  -13.4966   19.0556 C   0  0  0  0  0  0  0  0  0  0  0  0
    9.5660  -15.0495   23.3468 C   0  0  0  0  0  0  0  0  0  0  0  0
    9.9468  -14.0535   24.0068 O   0  0  0  0  0  0  0  0  0  0  0  0
    9.2825  -16.2827   23.9886 N   0  0  0  0  0  0  0  0  0  0  0  0
    9.4751  -16.4110   25.4105 C   0  0  1  0  0  0  0  0  0  0  0  0
    8.2254  -16.7166   26.1743 C   0  0  0  0  0  0  0  0  0  0  0  0
    7.2466  -15.6257   26.2064 C   0  0  0  0  0  0  0  0  0  0  0  0
    5.8913  -15.7542   26.0009 C   0  0  0  0  0  0  0  0  0  0  0  0
    5.2849  -14.5643   26.1215 N   0  0  0  0  0  0  0  0  0  0  0  0
    6.2456  -13.6691   26.4038 C   0  0  0  0  0  0  0  0  0  0  0  0
    6.1560  -12.3154   26.6169 C   0  0  0  0  0  0  0  0  0  0  0  0
    7.2742  -11.5587   26.8907 C   0  0  0  0  0  0  0  0  0  0  0  0
    8.4972  -12.1916   26.9471 C   0  0  0  0  0  0  0  0  0  0  0  0
    8.5919  -13.5684   26.7311 C   0  0  0  0  0  0  0  0  0  0  0  0
    7.4829  -14.3064   26.4624 C   0  0  0  0  0  0  0  0  0  0  0  0
   10.5400  -17.4221   25.6441 C   0  0  0  0  0  0  0  0  0  0  0  0
   10.5010  -18.5600   25.1117 O   0  0  0  0  0  0  0  0  0  0  0  0
   14.3932  -16.8754   20.9501 O   0  0  0  0  0  0  0  0  0  0  0  0
   14.2679  -17.0455   22.3292 C   0  0  0  0  0  0  0  0  0  0  0  0
   13.6671  -16.0940   23.0959 C   0  0  0  0  0  0  0  0  0  0  0  0
   13.5425  -16.2624   24.4653 C   0  0  0  0  0  0  0  0  0  0  0  0
   14.0394  -17.4150   25.0414 C   0  0  0  0  0  0  0  0  0  0  0  0
   13.9533  -17.6655   26.4820 C   0  0  0  0  0  0  0  0  0  0  0  0
   12.5809  -18.1889   26.8448 C   0  0  2  0  0  0  0  0  0  0  0  0
   11.6419  -17.1240   26.4848 N   0  0  0  0  0  0  0  0  0  0  0  0
   12.4421  -18.5560   28.2637 C   0  0  0  0  0  0  0  0  0  0  0  0
   13.1614  -19.4210   28.8156 O   0  0  0  0  0  0  0  0  0  0  0  0
   14.6574  -18.3993   24.2709 C   0  0  0  0  0  0  0  0  0  0  0  0
   14.7561  -18.1847   22.9166 C   0  0  0  0  0  0  0  0  0  0  0  0
   11.4841  -17.9458   29.0757 O   0  0  0  0  0  0  0  0  0  0  0  0
  2  3  1  0
  2  1  1  1
  4  3  1  0
  4  5  2  0
  6  5  1  0
  7  6  1  0
  8  7  2  0
  9  8  1  0
 10  9  2  0
 10 11  1  0
 11 12  2  0
 12  7  1  0
 12  4  1  0
 13  2  1  0
 14 13  2  0
 15 13  1  0
 16 27  1  0
 16 15  1  0
 16 17  1  1
 18 17  1  0
 18 26  1  0
 19 20  1  0
 19 18  2  0
 20 21  1  0
 21 22  2  0
 21 26  1  0
 22 23  1  0
 23 24  2  0
 25 24  1  0
 26 25  2  0
 27 36  1  0
 28 27  2  0
 29 30  1  0
 30 40  2  0
 31 30  1  0
 31 32  2  0
 32 33  1  0
 33 39  2  0
 33 34  1  0
 35 34  1  1
 35 37  1  0
 36 35  1  0
 37 38  2  0
 37 41  1  0
 40 39  1  0
M  END
$$$$
