WWY.pdb
     RDKit          3D

 41 45  0  0  1  0  0  0  0  0999 V2000
   13.0573  -14.9909   20.3433 N   0  0  0  0  0  0  0  0  0  0  0  0
   11.6488  -14.7760   20.3979 C   0  0  1  0  0  0  0  0  0  0  0  0
   10.8715  -15.6462   19.4380 C   0  0  0  0  0  0  0  0  0  0  0  0
    9.8070  -14.8892   18.7438 C   0  0  0  0  0  0  0  0  0  0  0  0
    9.8810  -14.3855   17.4598 C   0  0  0  0  0  0  0  0  0  0  0  0
    8.7145  -13.7531   17.1678 N   0  0  0  0  0  0  0  0  0  0  0  0
    7.8815  -13.8277   18.2197 C   0  0  0  0  0  0  0  0  0  0  0  0
    6.6064  -13.3727   18.4677 C   0  0  0  0  0  0  0  0  0  0  0  0
    6.0007  -13.6131   19.6796 C   0  0  0  0  0  0  0  0  0  0  0  0
    6.6440  -14.3059   20.6646 C   0  0  0  0  0  0  0  0  0  0  0  0
    7.9221  -14.7621   20.4165 C   0  0  0  0  0  0  0  0  0  0  0  0
    8.5617  -14.5407   19.2144 C   0  0  0  0  0  0  0  0  0  0  0  0
   11.1832  -14.9692   21.7897 C   0  0  0  0  0  0  0  0  0  0  0  0
   11.9133  -15.5402   22.6345 O   0  0  0  0  0  0  0  0  0  0  0  0
    9.8941  -14.4944   22.1443 N   0  0  0  0  0  0  0  0  0  0  0  0
    9.4221  -14.6457   23.4969 C   0  0  1  0  0  0  0  0  0  0  0  0
    8.0749  -14.0454   23.7479 C   0  0  0  0  0  0  0  0  0  0  0  0
    7.5821  -14.2018   25.1197 C   0  0  0  0  0  0  0  0  0  0  0  0
    6.9301  -15.3066   25.6196 C   0  0  0  0  0  0  0  0  0  0  0  0
    6.6358  -15.1295   26.9157 N   0  0  0  0  0  0  0  0  0  0  0  0
    7.0959  -13.9135   27.2527 C   0  0  0  0  0  0  0  0  0  0  0  0
    7.0450  -13.2522   28.4553 C   0  0  0  0  0  0  0  0  0  0  0  0
    7.5755  -11.9890   28.6001 C   0  0  0  0  0  0  0  0  0  0  0  0
    8.1642  -11.3949   27.5047 C   0  0  0  0  0  0  0  0  0  0  0  0
    8.2179  -12.0647   26.2802 C   0  0  0  0  0  0  0  0  0  0  0  0
    7.6923  -13.3109   26.1474 C   0  0  0  0  0  0  0  0  0  0  0  0
    9.4692  -16.0907   23.8447 C   0  0  0  0  0  0  0  0  0  0  0  0
    9.0573  -16.9760   23.0533 O   0  0  0  0  0  0  0  0  0  0  0  0
   16.0757  -17.4467   24.4018 O   0  0  0  0  0  0  0  0  0  0  0  0
   14.7126  -17.7414   24.3598 C   0  0  0  0  0  0  0  0  0  0  0  0
   13.9552  -17.3801   23.2875 C   0  0  0  0  0  0  0  0  0  0  0  0
   12.6017  -17.6725   23.2454 C   0  0  0  0  0  0  0  0  0  0  0  0
   12.0319  -18.3386   24.3126 C   0  0  0  0  0  0  0  0  0  0  0  0
   10.6076  -18.6784   24.3481 C   0  0  0  0  0  0  0  0  0  0  0  0
    9.9143  -17.9278   25.4638 C   0  0  2  0  0  0  0  0  0  0  0  0
    9.9873  -16.5122   25.0952 N   0  0  0  0  0  0  0  0  0  0  0  0
   10.5076  -18.1577   26.7914 C   0  0  0  0  0  0  0  0  0  0  0  0
   10.6191  -19.2983   27.2981 O   0  0  0  0  0  0  0  0  0  0  0  0
   12.7931  -18.7158   25.4184 C   0  0  0  0  0  0  0  0  0  0  0  0
   14.1317  -18.4025   25.4118 C   0  0  0  0  0  0  0  0  0  0  0  0
   10.9827  -17.0948   27.5624 O   0  0  0  0  0  0  0  0  0  0  0  0
  2  3  1  0
  2  1  1  1
  4  3  1  0
  4  5  2  0
  6  5  1  0
  7  6  1  0
  8  7  2  0
  9  8  1  0
 10  9  2  0
 10 11  1  0
 11 12  2  0
 12  7  1  0
 12  4  1  0
 13  2  1  0
 14 13  2  0
 15 13  1  0
 16 27  1  0
 16 15  1  0
 16 17  1  6
 18 17  1  0
 18 26  1  0
 19 20  1  0
 19 18  2  0
 20 21  1  0
 21 22  2  0
 21 26  1  0
 22 23  1  0
 23 24  2  0
 25 24  1  0
 26 25  2  0
 27 36  1  0
 28 27  2  0
 29 30  1  0
 30 40  2  0
 31 30  1  0
 31 32  2  0
 32 33  1  0
 33 39  2  0
 33 34  1  0
 35 34  1  6
 35 37  1  0
 36 35  1  0
 37 38  2  0
 37 41  1  0
 40 39  1  0
M  END
$$$$
