WWY.pdb
     RDKit          3D

 41 45  0  0  1  0  0  0  0  0999 V2000
    8.8593  -17.8362   21.5471 N   0  0  0  0  0  0  0  0  0  0  0  0
    8.2343  -16.5748   21.7739 C   0  0  1  0  0  0  0  0  0  0  0  0
    7.0140  -16.3466   20.9128 C   0  0  0  0  0  0  0  0  0  0  0  0
    7.3256  -15.5334   19.7170 C   0  0  0  0  0  0  0  0  0  0  0  0
    7.3201  -15.9834   18.4111 C   0  0  0  0  0  0  0  0  0  0  0  0
    7.6546  -14.9540   17.5900 N   0  0  0  0  0  0  0  0  0  0  0  0
    7.8785  -13.8465   18.3177 C   0  0  0  0  0  0  0  0  0  0  0  0
    8.2379  -12.5537   18.0113 C   0  0  0  0  0  0  0  0  0  0  0  0
    8.3958  -11.6165   19.0064 C   0  0  0  0  0  0  0  0  0  0  0  0
    8.2014  -11.9409   20.3182 C   0  0  0  0  0  0  0  0  0  0  0  0
    7.8412  -13.2366   20.6259 C   0  0  0  0  0  0  0  0  0  0  0  0
    7.6735  -14.2034   19.6561 C   0  0  0  0  0  0  0  0  0  0  0  0
    7.9038  -16.4499   23.2114 C   0  0  0  0  0  0  0  0  0  0  0  0
    6.8741  -15.8359   23.5796 O   0  0  0  0  0  0  0  0  0  0  0  0
    8.7780  -17.0396   24.1606 N   0  0  0  0  0  0  0  0  0  0  0  0
    9.6032  -16.2012   24.9921 C   0  0  1  0  0  0  0  0  0  0  0  0
    9.0441  -15.9493   26.3567 C   0  0  0  0  0  0  0  0  0  0  0  0
    7.7742  -15.2169   26.3713 C   0  0  0  0  0  0  0  0  0  0  0  0
    6.5194  -15.7805   26.3114 C   0  0  0  0  0  0  0  0  0  0  0  0
    5.5761  -14.8291   26.3676 N   0  0  0  0  0  0  0  0  0  0  0  0
    6.2193  -13.6538   26.4631 C   0  0  0  0  0  0  0  0  0  0  0  0
    5.7189  -12.3776   26.5444 C   0  0  0  0  0  0  0  0  0  0  0  0
    6.5547  -11.2857   26.6305 C   0  0  0  0  0  0  0  0  0  0  0  0
    7.9161  -11.4998   26.6334 C   0  0  0  0  0  0  0  0  0  0  0  0
    8.4284  -12.7967   26.5510 C   0  0  0  0  0  0  0  0  0  0  0  0
    7.5959  -13.8675   26.4672 C   0  0  0  0  0  0  0  0  0  0  0  0
   10.9653  -16.7956   25.0418 C   0  0  0  0  0  0  0  0  0  0  0  0
   11.7422  -16.5909   26.0083 O   0  0  0  0  0  0  0  0  0  0  0  0
    9.6408  -21.3055   28.5819 O   0  0  0  0  0  0  0  0  0  0  0  0
   10.3907  -20.9079   27.4746 C   0  0  0  0  0  0  0  0  0  0  0  0
   11.7167  -20.6243   27.5977 C   0  0  0  0  0  0  0  0  0  0  0  0
   12.4617  -20.2294   26.4985 C   0  0  0  0  0  0  0  0  0  0  0  0
   11.8349  -20.1279   25.2721 C   0  0  0  0  0  0  0  0  0  0  0  0
   12.5501  -19.7109   24.0639 C   0  0  0  0  0  0  0  0  0  0  0  0
   12.7649  -18.2133   24.0690 C   0  0  2  0  0  0  0  0  0  0  0  0
   11.4283  -17.6202   23.9856 N   0  0  0  0  0  0  0  0  0  0  0  0
   13.6234  -17.7334   22.9736 C   0  0  0  0  0  0  0  0  0  0  0  0
   14.8267  -18.0638   22.8581 O   0  0  0  0  0  0  0  0  0  0  0  0
   10.4779  -20.4147   25.1286 C   0  0  0  0  0  0  0  0  0  0  0  0
    9.7829  -20.8024   26.2495 C   0  0  0  0  0  0  0  0  0  0  0  0
   13.1272  -16.8713   21.9937 O   0  0  0  0  0  0  0  0  0  0  0  0
  2  3  1  0
  2  1  1  1
  4  3  1  0
  4  5  2  0
  6  5  1  0
  7  6  1  0
  8  7  2  0
  9  8  1  0
 10  9  2  0
 10 11  1  0
 11 12  2  0
 12  7  1  0
 12  4  1  0
 13  2  1  0
 14 13  2  0
 15 13  1  0
 16 27  1  0
 16 15  1  0
 16 17  1  1
 18 17  1  0
 18 26  1  0
 19 20  1  0
 19 18  2  0
 20 21  1  0
 21 22  2  0
 21 26  1  0
 22 23  1  0
 23 24  2  0
 25 24  1  0
 26 25  2  0
 27 36  1  0
 28 27  2  0
 29 30  1  0
 30 40  2  0
 31 30  1  0
 31 32  2  0
 32 33  1  0
 33 39  2  0
 33 34  1  0
 35 34  1  6
 35 37  1  0
 36 35  1  0
 37 38  2  0
 37 41  1  0
 40 39  1  0
M  END
$$$$
