WWY.pdb
     RDKit          3D

 41 45  0  0  1  0  0  0  0  0999 V2000
    8.2228  -17.7432   22.4144 N   0  0  0  0  0  0  0  0  0  0  0  0
    8.4229  -16.3421   22.2409 C   0  0  1  0  0  0  0  0  0  0  0  0
    7.1861  -15.6133   21.7696 C   0  0  0  0  0  0  0  0  0  0  0  0
    7.2784  -15.2336   20.3429 C   0  0  0  0  0  0  0  0  0  0  0  0
    6.8420  -15.9939   19.2755 C   0  0  0  0  0  0  0  0  0  0  0  0
    7.0934  -15.3193   18.1233 N   0  0  0  0  0  0  0  0  0  0  0  0
    7.6799  -14.1432   18.4041 C   0  0  0  0  0  0  0  0  0  0  0  0
    8.1382  -13.0934   17.6410 C   0  0  0  0  0  0  0  0  0  0  0  0
    8.7093  -11.9922   18.2363 C   0  0  0  0  0  0  0  0  0  0  0  0
    8.8367  -11.9104   19.5931 C   0  0  0  0  0  0  0  0  0  0  0  0
    8.3776  -12.9623   20.3585 C   0  0  0  0  0  0  0  0  0  0  0  0
    7.7994  -14.0825   19.7978 C   0  0  0  0  0  0  0  0  0  0  0  0
    8.9323  -15.7657   23.5056 C   0  0  0  0  0  0  0  0  0  0  0  0
    9.1446  -14.5338   23.6069 O   0  0  0  0  0  0  0  0  0  0  0  0
    9.1746  -16.6381   24.5979 N   0  0  0  0  0  0  0  0  0  0  0  0
   10.0621  -16.2307   25.6569 C   0  0  1  0  0  0  0  0  0  0  0  0
    9.3695  -15.6505   26.8494 C   0  0  0  0  0  0  0  0  0  0  0  0
    8.0991  -14.9817   26.5529 C   0  0  0  0  0  0  0  0  0  0  0  0
    6.9119  -15.6083   26.2471 C   0  0  0  0  0  0  0  0  0  0  0  0
    5.9419  -14.7032   26.0523 N   0  0  0  0  0  0  0  0  0  0  0  0
    6.5005  -13.4949   26.2314 C   0  0  0  0  0  0  0  0  0  0  0  0
    5.9436  -12.2428   26.1426 C   0  0  0  0  0  0  0  0  0  0  0  0
    6.6954  -11.1086   26.3583 C   0  0  0  0  0  0  0  0  0  0  0  0
    8.0303  -11.2551   26.6678 C   0  0  0  0  0  0  0  0  0  0  0  0
    8.5999  -12.5272   26.7591 C   0  0  0  0  0  0  0  0  0  0  0  0
    7.8500  -13.6401   26.5452 C   0  0  0  0  0  0  0  0  0  0  0  0
   10.9212  -17.3909   26.0130 C   0  0  0  0  0  0  0  0  0  0  0  0
   11.0167  -17.8059   27.1955 O   0  0  0  0  0  0  0  0  0  0  0  0
    8.4966  -21.9370   28.5835 O   0  0  0  0  0  0  0  0  0  0  0  0
    9.4991  -21.5084   27.7131 C   0  0  0  0  0  0  0  0  0  0  0  0
    9.1996  -21.1258   26.4411 C   0  0  0  0  0  0  0  0  0  0  0  0
   10.1949  -20.7002   25.5765 C   0  0  0  0  0  0  0  0  0  0  0  0
   11.4997  -20.6704   26.0278 C   0  0  0  0  0  0  0  0  0  0  0  0
   12.6095  -20.2398   25.1743 C   0  0  0  0  0  0  0  0  0  0  0  0
   12.8960  -18.7692   25.3842 C   0  0  2  0  0  0  0  0  0  0  0  0
   11.6647  -18.0679   25.0136 N   0  0  0  0  0  0  0  0  0  0  0  0
   14.0410  -18.2708   24.6045 C   0  0  0  0  0  0  0  0  0  0  0  0
   15.2012  -18.7266   24.7331 O   0  0  0  0  0  0  0  0  0  0  0  0
   11.8237  -21.0586   27.3273 C   0  0  0  0  0  0  0  0  0  0  0  0
   10.8001  -21.4729   28.1462 C   0  0  0  0  0  0  0  0  0  0  0  0
   13.8843  -17.2473   23.6677 O   0  0  0  0  0  0  0  0  0  0  0  0
  2  3  1  0
  2  1  1  1
  4  3  1  0
  4  5  2  0
  6  5  1  0
  7  6  1  0
  8  7  2  0
  9  8  1  0
 10  9  2  0
 10 11  1  0
 11 12  2  0
 12  7  1  0
 12  4  1  0
 13  2  1  0
 14 13  2  0
 15 13  1  0
 16 27  1  0
 16 15  1  0
 16 17  1  1
 18 17  1  0
 18 26  1  0
 19 20  1  0
 19 18  2  0
 20 21  1  0
 21 22  2  0
 21 26  1  0
 22 23  1  0
 23 24  2  0
 25 24  1  0
 26 25  2  0
 27 36  1  0
 28 27  2  0
 29 30  1  0
 30 40  2  0
 31 30  1  0
 31 32  2  0
 32 33  1  0
 33 39  2  0
 33 34  1  0
 35 34  1  6
 35 37  1  0
 36 35  1  0
 37 38  2  0
 37 41  1  0
 40 39  1  0
M  END
$$$$
