DWD.pdb
     RDKit          3D

 31 32  0  0  1  0  0  0  0  0999 V2000
    9.7814  -17.8708   21.2059 N   0  0  0  0  0  0  0  0  0  0  0  0
   10.9520  -17.1495   21.7068 C   0  0  1  0  0  0  0  0  0  0  0  0
   11.1561  -15.9746   20.7753 C   0  0  0  0  0  0  0  0  0  0  0  0
   11.6200  -16.5287   19.4770 C   0  0  0  0  0  0  0  0  0  0  0  0
   12.1672  -17.6786   19.4221 O   0  0  0  0  0  0  0  0  0  0  0  0
   10.7664  -16.7473   23.1048 C   0  0  0  0  0  0  0  0  0  0  0  0
   11.6603  -16.0765   23.6983 O   0  0  0  0  0  0  0  0  0  0  0  0
   11.4885  -15.8456   18.2807 O   0  0  0  0  0  0  0  0  0  0  0  0
    9.6145  -17.0758   23.8472 N   0  0  0  0  0  0  0  0  0  0  0  0
    9.4775  -16.7636   25.2693 C   0  0  1  0  0  0  0  0  0  0  0  0
    7.9962  -16.4730   25.4936 C   0  0  0  0  0  0  0  0  0  0  0  0
    7.5755  -15.1984   24.8598 C   0  0  0  0  0  0  0  0  0  0  0  0
    7.2347  -14.9733   23.5424 C   0  0  0  0  0  0  0  0  0  0  0  0
    6.9097  -13.6889   23.3474 N   0  0  0  0  0  0  0  0  0  0  0  0
    7.0343  -13.0657   24.5293 C   0  0  0  0  0  0  0  0  0  0  0  0
    6.8176  -11.7351   24.8843 C   0  0  0  0  0  0  0  0  0  0  0  0
    7.0175  -11.3385   26.1958 C   0  0  0  0  0  0  0  0  0  0  0  0
    7.4287  -12.2371   27.1627 C   0  0  0  0  0  0  0  0  0  0  0  0
    7.6398  -13.5500   26.7992 C   0  0  0  0  0  0  0  0  0  0  0  0
    7.4433  -13.9631   25.4874 C   0  0  0  0  0  0  0  0  0  0  0  0
    9.9538  -17.8489   26.1244 C   0  0  0  0  0  0  0  0  0  0  0  0
    9.3459  -18.9557   26.1783 O   0  0  0  0  0  0  0  0  0  0  0  0
   11.1051  -17.6913   26.9146 N   0  0  0  0  0  0  0  0  0  0  0  0
   11.5883  -18.7593   27.8022 C   0  0  1  0  0  0  0  0  0  0  0  0
   13.0822  -18.5807   27.8594 C   0  0  0  0  0  0  0  0  0  0  0  0
   13.7783  -18.7143   26.5816 C   0  0  0  0  0  0  0  0  0  0  0  0
   13.4175  -19.6355   25.7899 O   0  0  0  0  0  0  0  0  0  0  0  0
   10.9490  -18.6250   29.1347 C   0  0  0  0  0  0  0  0  0  0  0  0
   10.1460  -17.5004   29.3684 O   0  0  0  0  0  0  0  0  0  0  0  0
   14.8120  -17.9087   26.1613 O   0  0  0  0  0  0  0  0  0  0  0  0
   11.0746  -19.4412   30.0621 O   0  0  0  0  0  0  0  0  0  0  0  0
  2  1  1  6
  2  6  1  0
  2  3  1  0
  3  4  1  0
  4  5  2  0
  4  8  1  0
  6  9  1  0
  6  7  2  0
  9 10  1  0
 10 11  1  6
 11 12  1  0
 12 13  2  0
 14 13  1  0
 15 14  1  0
 16 15  2  0
 17 16  1  0
 18 17  2  0
 18 19  1  0
 19 20  2  0
 20 15  1  0
 20 12  1  0
 21 23  1  0
 21 10  1  0
 22 21  2  0
 24 28  1  0
 24 23  1  0
 24 25  1  1
 26 25  1  0
 27 26  2  0
 28 29  1  0
 30 26  1  0
 31 28  2  0
M  END
$$$$
