DWD.pdb
     RDKit          3D

 31 32  0  0  1  0  0  0  0  0999 V2000
    9.1677  -17.5319   20.3427 N   0  0  0  0  0  0  0  0  0  0  0  0
   10.4700  -17.0064   20.7544 C   0  0  1  0  0  0  0  0  0  0  0  0
   10.7635  -15.8376   19.8394 C   0  0  0  0  0  0  0  0  0  0  0  0
   11.1388  -16.4067   18.5191 C   0  0  0  0  0  0  0  0  0  0  0  0
   11.4058  -17.6475   18.4011 O   0  0  0  0  0  0  0  0  0  0  0  0
   10.4657  -16.6365   22.1735 C   0  0  0  0  0  0  0  0  0  0  0  0
   11.4660  -16.0513   22.6819 O   0  0  0  0  0  0  0  0  0  0  0  0
   11.2185  -15.6420   17.3685 O   0  0  0  0  0  0  0  0  0  0  0  0
    9.3785  -16.9045   23.0290 N   0  0  0  0  0  0  0  0  0  0  0  0
    9.4090  -16.6056   24.4602 C   0  0  1  0  0  0  0  0  0  0  0  0
    7.9603  -16.3496   24.8658 C   0  0  0  0  0  0  0  0  0  0  0  0
    7.5027  -14.9929   24.4743 C   0  0  0  0  0  0  0  0  0  0  0  0
    7.1027  -14.5545   23.2292 C   0  0  0  0  0  0  0  0  0  0  0  0
    6.7600  -13.2605   23.2675 N   0  0  0  0  0  0  0  0  0  0  0  0
    6.9317  -12.8432   24.5313 C   0  0  0  0  0  0  0  0  0  0  0  0
    6.7210  -11.5945   25.1144 C   0  0  0  0  0  0  0  0  0  0  0  0
    6.9753  -11.4213   26.4645 C   0  0  0  0  0  0  0  0  0  0  0  0
    7.4353  -12.4636   27.2478 C   0  0  0  0  0  0  0  0  0  0  0  0
    7.6399  -13.6934   26.6596 C   0  0  0  0  0  0  0  0  0  0  0  0
    7.3890  -13.8828   25.3063 C   0  0  0  0  0  0  0  0  0  0  0  0
   10.0088  -17.6861   25.2404 C   0  0  0  0  0  0  0  0  0  0  0  0
    9.5306  -18.8558   25.2157 O   0  0  0  0  0  0  0  0  0  0  0  0
   11.1381  -17.4536   26.0439 N   0  0  0  0  0  0  0  0  0  0  0  0
   11.7192  -18.5081   26.8879 C   0  0  1  0  0  0  0  0  0  0  0  0
   13.2074  -18.2874   26.8284 C   0  0  0  0  0  0  0  0  0  0  0  0
   14.0230  -19.3654   27.3832 C   0  0  0  0  0  0  0  0  0  0  0  0
   13.4374  -20.3844   27.8568 O   0  0  0  0  0  0  0  0  0  0  0  0
   11.1828  -18.3926   28.2668 C   0  0  0  0  0  0  0  0  0  0  0  0
   11.3292  -19.4920   29.1236 O   0  0  0  0  0  0  0  0  0  0  0  0
   15.3983  -19.3638   27.4357 O   0  0  0  0  0  0  0  0  0  0  0  0
   10.6108  -17.3872   28.7185 O   0  0  0  0  0  0  0  0  0  0  0  0
  2  1  1  6
  2  6  1  0
  2  3  1  0
  3  4  1  0
  4  5  2  0
  4  8  1  0
  6  9  1  0
  6  7  2  0
  9 10  1  0
 10 11  1  1
 11 12  1  0
 12 13  2  0
 14 13  1  0
 15 14  1  0
 16 15  2  0
 17 16  1  0
 18 17  2  0
 18 19  1  0
 19 20  2  0
 20 15  1  0
 20 12  1  0
 21 23  1  0
 21 10  1  0
 22 21  2  0
 24 28  1  0
 24 23  1  0
 24 25  1  1
 26 25  1  0
 27 26  2  0
 28 29  1  0
 30 26  1  0
 31 28  2  0
M  END
$$$$
