DWD.pdb
     RDKit          3D

 31 32  0  0  1  0  0  0  0  0999 V2000
   10.3795  -15.4695   20.3011 N   0  0  0  0  0  0  0  0  0  0  0  0
   10.6205  -16.6353   21.1522 C   0  0  1  0  0  0  0  0  0  0  0  0
   11.9863  -17.1630   20.7709 C   0  0  0  0  0  0  0  0  0  0  0  0
   11.8635  -17.7302   19.4030 C   0  0  0  0  0  0  0  0  0  0  0  0
   10.7944  -17.5678   18.7283 O   0  0  0  0  0  0  0  0  0  0  0  0
   10.5178  -16.2831   22.5721 C   0  0  0  0  0  0  0  0  0  0  0  0
   11.3866  -15.5344   23.1068 O   0  0  0  0  0  0  0  0  0  0  0  0
   12.8776  -18.4503   18.7963 O   0  0  0  0  0  0  0  0  0  0  0  0
    9.4752  -16.7455   23.3998 N   0  0  0  0  0  0  0  0  0  0  0  0
    9.3940  -16.4180   24.8228 C   0  0  1  0  0  0  0  0  0  0  0  0
    7.9081  -16.2582   25.1318 C   0  0  0  0  0  0  0  0  0  0  0  0
    7.3720  -14.9645   24.6398 C   0  0  0  0  0  0  0  0  0  0  0  0
    6.9042  -14.6600   23.3784 C   0  0  0  0  0  0  0  0  0  0  0  0
    6.5022  -13.3842   23.3148 N   0  0  0  0  0  0  0  0  0  0  0  0
    6.7022  -12.8457   24.5275 C   0  0  0  0  0  0  0  0  0  0  0  0
    6.4549  -11.5592   25.0045 C   0  0  0  0  0  0  0  0  0  0  0  0
    6.7523  -11.2518   26.3214 C   0  0  0  0  0  0  0  0  0  0  0  0
    7.2909  -12.1968   27.1750 C   0  0  0  0  0  0  0  0  0  0  0  0
    7.5310  -13.4652   26.6915 C   0  0  0  0  0  0  0  0  0  0  0  0
    7.2377  -13.7888   25.3727 C   0  0  0  0  0  0  0  0  0  0  0  0
   10.0172  -17.4381   25.6637 C   0  0  0  0  0  0  0  0  0  0  0  0
    9.9267  -17.3936   26.9236 O   0  0  0  0  0  0  0  0  0  0  0  0
   10.7381  -18.5007   25.0927 N   0  0  0  0  0  0  0  0  0  0  0  0
   11.3582  -19.5482   25.9174 C   0  0  1  0  0  0  0  0  0  0  0  0
   11.5700  -20.7118   24.9857 C   0  0  0  0  0  0  0  0  0  0  0  0
   12.5420  -20.4898   23.9174 C   0  0  0  0  0  0  0  0  0  0  0  0
   13.1106  -19.3599   23.8426 O   0  0  0  0  0  0  0  0  0  0  0  0
   12.6297  -19.0413   26.4908 C   0  0  0  0  0  0  0  0  0  0  0  0
   13.0726  -17.7735   26.0899 O   0  0  0  0  0  0  0  0  0  0  0  0
   12.8952  -21.4228   22.9693 O   0  0  0  0  0  0  0  0  0  0  0  0
   13.3329  -19.6623   27.3044 O   0  0  0  0  0  0  0  0  0  0  0  0
  2  1  1  6
  2  6  1  0
  2  3  1  0
  3  4  1  0
  4  5  2  0
  4  8  1  0
  6  9  1  0
  6  7  2  0
  9 10  1  0
 10 11  1  1
 11 12  1  0
 12 13  2  0
 14 13  1  0
 15 14  1  0
 16 15  2  0
 17 16  1  0
 18 17  2  0
 18 19  1  0
 19 20  2  0
 20 15  1  0
 20 12  1  0
 21 23  1  0
 21 10  1  0
 22 21  2  0
 24 28  1  0
 24 23  1  0
 24 25  1  6
 26 25  1  0
 27 26  2  0
 28 29  1  0
 30 26  1  0
 31 28  2  0
M  END
$$$$
