DWD.pdb
     RDKit          3D

 31 32  0  0  1  0  0  0  0  0999 V2000
    9.3604  -17.7691   20.4665 N   0  0  0  0  0  0  0  0  0  0  0  0
   10.6251  -17.3587   21.0777 C   0  0  1  0  0  0  0  0  0  0  0  0
   11.1736  -16.2469   20.2103 C   0  0  0  0  0  0  0  0  0  0  0  0
   11.4688  -16.8420   18.8812 C   0  0  0  0  0  0  0  0  0  0  0  0
   11.2883  -18.0867   18.6745 O   0  0  0  0  0  0  0  0  0  0  0  0
   10.4303  -16.9537   22.4737 C   0  0  0  0  0  0  0  0  0  0  0  0
   11.3926  -16.4666   23.1355 O   0  0  0  0  0  0  0  0  0  0  0  0
   11.9453  -16.0982   17.8160 O   0  0  0  0  0  0  0  0  0  0  0  0
    9.1951  -17.0806   23.1401 N   0  0  0  0  0  0  0  0  0  0  0  0
    9.0193  -16.7287   24.5486 C   0  0  1  0  0  0  0  0  0  0  0  0
    7.5682  -16.2782   24.6900 C   0  0  0  0  0  0  0  0  0  0  0  0
    7.3726  -14.8771   24.2404 C   0  0  0  0  0  0  0  0  0  0  0  0
    7.3826  -14.3863   22.9515 C   0  0  0  0  0  0  0  0  0  0  0  0
    7.1701  -13.0641   22.9438 N   0  0  0  0  0  0  0  0  0  0  0  0
    7.0199  -12.6804   24.2209 C   0  0  0  0  0  0  0  0  0  0  0  0
    6.7761  -11.4228   24.7711 C   0  0  0  0  0  0  0  0  0  0  0  0
    6.6568  -11.2913   26.1444 C   0  0  0  0  0  0  0  0  0  0  0  0
    6.7751  -12.3841   26.9831 C   0  0  0  0  0  0  0  0  0  0  0  0
    7.0164  -13.6222   26.4270 C   0  0  0  0  0  0  0  0  0  0  0  0
    7.1382  -13.7701   25.0510 C   0  0  0  0  0  0  0  0  0  0  0  0
    9.3321  -17.8421   25.4423 C   0  0  0  0  0  0  0  0  0  0  0  0
    8.8435  -18.9922   25.2521 O   0  0  0  0  0  0  0  0  0  0  0  0
   10.1874  -17.6642   26.5429 N   0  0  0  0  0  0  0  0  0  0  0  0
   10.7840  -18.8050   27.2534 C   0  0  1  0  0  0  0  0  0  0  0  0
   11.8973  -19.2879   26.3623 C   0  0  0  0  0  0  0  0  0  0  0  0
   12.7191  -20.3631   26.9136 C   0  0  0  0  0  0  0  0  0  0  0  0
   12.1387  -21.3800   27.3980 O   0  0  0  0  0  0  0  0  0  0  0  0
   11.2724  -18.3617   28.5829 C   0  0  0  0  0  0  0  0  0  0  0  0
   11.1310  -17.0082   28.9176 O   0  0  0  0  0  0  0  0  0  0  0  0
   14.0948  -20.3608   26.9516 O   0  0  0  0  0  0  0  0  0  0  0  0
   11.7999  -19.1073   29.4243 O   0  0  0  0  0  0  0  0  0  0  0  0
  2  1  1  6
  2  6  1  0
  2  3  1  0
  3  4  1  0
  4  5  2  0
  4  8  1  0
  6  9  1  0
  6  7  2  0
  9 10  1  0
 10 11  1  6
 11 12  1  0
 12 13  2  0
 14 13  1  0
 15 14  1  0
 16 15  2  0
 17 16  1  0
 18 17  2  0
 18 19  1  0
 19 20  2  0
 20 15  1  0
 20 12  1  0
 21 23  1  0
 21 10  1  0
 22 21  2  0
 24 28  1  0
 24 23  1  0
 24 25  1  6
 26 25  1  0
 27 26  2  0
 28 29  1  0
 30 26  1  0
 31 28  2  0
M  END
$$$$
