DWD.pdb
     RDKit          3D

 31 32  0  0  1  0  0  0  0  0999 V2000
    9.3252  -16.1778   19.7584 N   0  0  0  0  0  0  0  0  0  0  0  0
   10.0410  -17.1876   20.5391 C   0  0  1  0  0  0  0  0  0  0  0  0
   11.3932  -17.3524   19.8803 C   0  0  0  0  0  0  0  0  0  0  0  0
   11.1433  -17.8284   18.4951 C   0  0  0  0  0  0  0  0  0  0  0  0
   11.4107  -17.0832   17.4961 O   0  0  0  0  0  0  0  0  0  0  0  0
   10.1342  -16.7968   21.9495 C   0  0  0  0  0  0  0  0  0  0  0  0
   11.2111  -16.3148   22.4067 O   0  0  0  0  0  0  0  0  0  0  0  0
   10.6186  -19.0779   18.2152 O   0  0  0  0  0  0  0  0  0  0  0  0
    9.0602  -16.9322   22.8518 N   0  0  0  0  0  0  0  0  0  0  0  0
    9.1766  -16.6014   24.2715 C   0  0  1  0  0  0  0  0  0  0  0  0
    7.7640  -16.2646   24.7404 C   0  0  0  0  0  0  0  0  0  0  0  0
    7.3672  -14.8834   24.3690 C   0  0  0  0  0  0  0  0  0  0  0  0
    7.0350  -14.3983   23.1213 C   0  0  0  0  0  0  0  0  0  0  0  0
    6.7326  -13.0951   23.1821 N   0  0  0  0  0  0  0  0  0  0  0  0
    6.8635  -12.7182   24.4633 C   0  0  0  0  0  0  0  0  0  0  0  0
    6.6682  -11.4795   25.0726 C   0  0  0  0  0  0  0  0  0  0  0  0
    6.8700  -11.3515   26.4364 C   0  0  0  0  0  0  0  0  0  0  0  0
    7.2625  -12.4294   27.2083 C   0  0  0  0  0  0  0  0  0  0  0  0
    7.4526  -13.6489   26.5943 C   0  0  0  0  0  0  0  0  0  0  0  0
    7.2538  -13.7931   25.2269 C   0  0  0  0  0  0  0  0  0  0  0  0
    9.7620  -17.6915   25.0493 C   0  0  0  0  0  0  0  0  0  0  0  0
    9.2428  -18.8438   25.0564 O   0  0  0  0  0  0  0  0  0  0  0  0
   10.9226  -17.4879   25.8150 N   0  0  0  0  0  0  0  0  0  0  0  0
   11.5670  -18.5847   26.5525 C   0  0  1  0  0  0  0  0  0  0  0  0
   13.0453  -18.3824   26.3506 C   0  0  0  0  0  0  0  0  0  0  0  0
   13.9062  -19.3755   26.9891 C   0  0  0  0  0  0  0  0  0  0  0  0
   13.5096  -20.5781   27.0371 O   0  0  0  0  0  0  0  0  0  0  0  0
   11.1750  -18.5195   27.9823 C   0  0  0  0  0  0  0  0  0  0  0  0
   10.4545  -17.3984   28.4162 O   0  0  0  0  0  0  0  0  0  0  0  0
   15.1324  -19.1068   27.5533 O   0  0  0  0  0  0  0  0  0  0  0  0
   11.4405  -19.3909   28.8263 O   0  0  0  0  0  0  0  0  0  0  0  0
  2  1  1  6
  2  6  1  0
  2  3  1  0
  3  4  1  0
  4  5  2  0
  4  8  1  0
  6  9  1  0
  6  7  2  0
  9 10  1  0
 10 11  1  1
 11 12  1  0
 12 13  2  0
 14 13  1  0
 15 14  1  0
 16 15  2  0
 17 16  1  0
 18 17  2  0
 18 19  1  0
 19 20  2  0
 20 15  1  0
 20 12  1  0
 21 23  1  0
 21 10  1  0
 22 21  2  0
 24 28  1  0
 24 23  1  0
 24 25  1  1
 26 25  1  0
 27 26  2  0
 28 29  1  0
 30 26  1  0
 31 28  2  0
M  END
$$$$
