DWD.pdb
     RDKit          3D

 31 32  0  0  1  0  0  0  0  0999 V2000
    8.3998  -17.5973   18.8165 N   0  0  0  0  0  0  0  0  0  0  0  0
    9.5110  -16.6578   18.9727 C   0  0  1  0  0  0  0  0  0  0  0  0
    9.3552  -15.6309   17.8724 C   0  0  0  0  0  0  0  0  0  0  0  0
    9.4607  -16.3610   16.5826 C   0  0  0  0  0  0  0  0  0  0  0  0
   10.4382  -17.1488   16.3625 O   0  0  0  0  0  0  0  0  0  0  0  0
    9.5167  -16.0647   20.3139 C   0  0  0  0  0  0  0  0  0  0  0  0
   10.5223  -15.4105   20.7164 O   0  0  0  0  0  0  0  0  0  0  0  0
    8.5270  -16.2316   15.5695 O   0  0  0  0  0  0  0  0  0  0  0  0
    8.4334  -16.1861   21.2070 N   0  0  0  0  0  0  0  0  0  0  0  0
    8.4963  -15.7181   22.5911 C   0  0  1  0  0  0  0  0  0  0  0  0
    7.0498  -15.6286   23.0692 C   0  0  0  0  0  0  0  0  0  0  0  0
    6.9573  -15.2246   24.4945 C   0  0  0  0  0  0  0  0  0  0  0  0
    6.7965  -16.0326   25.6007 C   0  0  0  0  0  0  0  0  0  0  0  0
    6.7555  -15.3018   26.7222 N   0  0  0  0  0  0  0  0  0  0  0  0
    6.8885  -14.0162   26.3614 C   0  0  0  0  0  0  0  0  0  0  0  0
    6.9156  -12.8530   27.1296 C   0  0  0  0  0  0  0  0  0  0  0  0
    7.0701  -11.6271   26.5047 C   0  0  0  0  0  0  0  0  0  0  0  0
    7.1980  -11.5326   25.1312 C   0  0  0  0  0  0  0  0  0  0  0  0
    7.1694  -12.6897   24.3826 C   0  0  0  0  0  0  0  0  0  0  0  0
    7.0154  -13.9271   24.9952 C   0  0  0  0  0  0  0  0  0  0  0  0
    9.2954  -16.6000   23.4395 C   0  0  0  0  0  0  0  0  0  0  0  0
    9.1752  -17.8565   23.3755 O   0  0  0  0  0  0  0  0  0  0  0  0
   10.2227  -16.0733   24.3546 N   0  0  0  0  0  0  0  0  0  0  0  0
   11.1986  -16.9274   25.0476 C   0  0  1  0  0  0  0  0  0  0  0  0
   12.5424  -16.3209   24.7425 C   0  0  0  0  0  0  0  0  0  0  0  0
   13.6939  -17.0588   25.2571 C   0  0  0  0  0  0  0  0  0  0  0  0
   13.4891  -18.1504   25.8671 O   0  0  0  0  0  0  0  0  0  0  0  0
   10.9000  -16.9441   26.5013 C   0  0  0  0  0  0  0  0  0  0  0  0
   11.5236  -17.9208   27.2895 O   0  0  0  0  0  0  0  0  0  0  0  0
   15.0045  -16.6576   25.1325 O   0  0  0  0  0  0  0  0  0  0  0  0
   10.1339  -16.1511   27.0724 O   0  0  0  0  0  0  0  0  0  0  0  0
  2  1  1  1
  2  6  1  0
  2  3  1  0
  3  4  1  0
  4  5  2  0
  4  8  1  0
  6  9  1  0
  6  7  2  0
  9 10  1  0
 10 11  1  1
 11 12  1  0
 12 13  2  0
 14 13  1  0
 15 14  1  0
 16 15  2  0
 17 16  1  0
 18 17  2  0
 18 19  1  0
 19 20  2  0
 20 15  1  0
 20 12  1  0
 21 23  1  0
 21 10  1  0
 22 21  2  0
 24 28  1  0
 24 23  1  0
 24 25  1  1
 26 25  1  0
 27 26  2  0
 28 29  1  0
 30 26  1  0
 31 28  2  0
M  END
$$$$
