DWD.pdb
     RDKit          3D

 31 32  0  0  1  0  0  0  0  0999 V2000
    7.8397  -17.2969   18.6203 N   0  0  0  0  0  0  0  0  0  0  0  0
    9.0322  -16.4618   18.7690 C   0  0  1  0  0  0  0  0  0  0  0  0
    8.9579  -15.4187   17.6755 C   0  0  0  0  0  0  0  0  0  0  0  0
    8.9776  -16.1481   16.3812 C   0  0  0  0  0  0  0  0  0  0  0  0
   10.0019  -16.8222   16.0333 O   0  0  0  0  0  0  0  0  0  0  0  0
    9.1050  -15.8794   20.1130 C   0  0  0  0  0  0  0  0  0  0  0  0
   10.0742  -15.1304   20.4307 O   0  0  0  0  0  0  0  0  0  0  0  0
    7.9114  -16.1385   15.4991 O   0  0  0  0  0  0  0  0  0  0  0  0
    8.1275  -16.1140   21.1007 N   0  0  0  0  0  0  0  0  0  0  0  0
    8.2814  -15.6662   22.4843 C   0  0  1  0  0  0  0  0  0  0  0  0
    6.8687  -15.5733   23.0540 C   0  0  0  0  0  0  0  0  0  0  0  0
    6.8714  -15.2465   24.5019 C   0  0  0  0  0  0  0  0  0  0  0  0
    6.7213  -16.1063   25.5700 C   0  0  0  0  0  0  0  0  0  0  0  0
    6.7786  -15.4392   26.7298 N   0  0  0  0  0  0  0  0  0  0  0  0
    6.9657  -14.1442   26.4323 C   0  0  0  0  0  0  0  0  0  0  0  0
    7.0975  -13.0297   27.2595 C   0  0  0  0  0  0  0  0  0  0  0  0
    7.2894  -11.7803   26.6943 C   0  0  0  0  0  0  0  0  0  0  0  0
    7.3528  -11.6150   25.3230 C   0  0  0  0  0  0  0  0  0  0  0  0
    7.2208  -12.7245   24.5157 C   0  0  0  0  0  0  0  0  0  0  0  0
    7.0282  -13.9846   25.0681 C   0  0  0  0  0  0  0  0  0  0  0  0
    9.1254  -16.5656   23.2683 C   0  0  0  0  0  0  0  0  0  0  0  0
    8.9923  -17.8203   23.1938 O   0  0  0  0  0  0  0  0  0  0  0  0
   10.1118  -16.0585   24.1312 N   0  0  0  0  0  0  0  0  0  0  0  0
   11.1877  -16.9080   24.6630 C   0  0  1  0  0  0  0  0  0  0  0  0
   12.4653  -16.1869   24.3246 C   0  0  0  0  0  0  0  0  0  0  0  0
   13.6896  -16.9642   24.5041 C   0  0  0  0  0  0  0  0  0  0  0  0
   14.7931  -16.4405   24.1672 O   0  0  0  0  0  0  0  0  0  0  0  0
   11.0050  -17.0837   26.1253 C   0  0  0  0  0  0  0  0  0  0  0  0
    9.9571  -16.3894   26.7451 O   0  0  0  0  0  0  0  0  0  0  0  0
   13.7427  -18.2405   25.0162 O   0  0  0  0  0  0  0  0  0  0  0  0
   11.7169  -17.8049   26.8428 O   0  0  0  0  0  0  0  0  0  0  0  0
  2  1  1  1
  2  6  1  0
  2  3  1  0
  3  4  1  0
  4  5  2  0
  4  8  1  0
  6  9  1  0
  6  7  2  0
  9 10  1  0
 10 11  1  1
 11 12  1  0
 12 13  2  0
 14 13  1  0
 15 14  1  0
 16 15  2  0
 17 16  1  0
 18 17  2  0
 18 19  1  0
 19 20  2  0
 20 15  1  0
 20 12  1  0
 21 23  1  0
 21 10  1  0
 22 21  2  0
 24 28  1  0
 24 23  1  0
 24 25  1  1
 26 25  1  0
 27 26  2  0
 28 29  1  0
 30 26  1  0
 31 28  2  0
M  END
$$$$
