DWD.pdb
     RDKit          3D

 31 32  0  0  1  0  0  0  0  0999 V2000
    9.6666  -15.6147   20.9941 N   0  0  0  0  0  0  0  0  0  0  0  0
    9.9513  -16.7826   21.8287 C   0  0  1  0  0  0  0  0  0  0  0  0
   11.1961  -17.4215   21.2527 C   0  0  0  0  0  0  0  0  0  0  0  0
   10.8624  -17.8461   19.8685 C   0  0  0  0  0  0  0  0  0  0  0  0
   11.0733  -17.0656   18.8831 O   0  0  0  0  0  0  0  0  0  0  0  0
   10.1015  -16.4017   23.2369 C   0  0  0  0  0  0  0  0  0  0  0  0
   10.8007  -15.3956   23.5532 O   0  0  0  0  0  0  0  0  0  0  0  0
   10.3164  -19.0833   19.5751 O   0  0  0  0  0  0  0  0  0  0  0  0
    9.4933  -17.1144   24.2896 N   0  0  0  0  0  0  0  0  0  0  0  0
    9.6551  -16.7380   25.6934 C   0  0  1  0  0  0  0  0  0  0  0  0
    8.2478  -16.7019   26.2824 C   0  0  0  0  0  0  0  0  0  0  0  0
    7.4303  -15.6046   25.7073 C   0  0  0  0  0  0  0  0  0  0  0  0
    6.4717  -15.6838   24.7186 C   0  0  0  0  0  0  0  0  0  0  0  0
    5.9484  -14.4774   24.4651 N   0  0  0  0  0  0  0  0  0  0  0  0
    6.5566  -13.6031   25.2814 C   0  0  0  0  0  0  0  0  0  0  0  0
    6.3879  -12.2272   25.4302 C   0  0  0  0  0  0  0  0  0  0  0  0
    7.1500  -11.5441   26.3629 C   0  0  0  0  0  0  0  0  0  0  0  0
    8.0773  -12.2000   27.1512 C   0  0  0  0  0  0  0  0  0  0  0  0
    8.2351  -13.5605   26.9945 C   0  0  0  0  0  0  0  0  0  0  0  0
    7.4776  -14.2597   26.0633 C   0  0  0  0  0  0  0  0  0  0  0  0
   10.5244  -17.6620   26.4193 C   0  0  0  0  0  0  0  0  0  0  0  0
   10.6813  -17.5684   27.6699 O   0  0  0  0  0  0  0  0  0  0  0  0
   11.2134  -18.6838   25.7441 N   0  0  0  0  0  0  0  0  0  0  0  0
   12.0728  -19.6409   26.4565 C   0  0  1  0  0  0  0  0  0  0  0  0
   12.4958  -20.6435   25.4159 C   0  0  0  0  0  0  0  0  0  0  0  0
   11.4048  -21.3324   24.7301 C   0  0  0  0  0  0  0  0  0  0  0  0
   11.5708  -21.6744   23.5213 O   0  0  0  0  0  0  0  0  0  0  0  0
   13.2256  -18.9233   27.0553 C   0  0  0  0  0  0  0  0  0  0  0  0
   13.6572  -17.7415   26.4377 O   0  0  0  0  0  0  0  0  0  0  0  0
   10.1909  -21.6441   25.2988 O   0  0  0  0  0  0  0  0  0  0  0  0
   13.8383  -19.2961   28.0689 O   0  0  0  0  0  0  0  0  0  0  0  0
  2  1  1  6
  2  6  1  0
  2  3  1  0
  3  4  1  0
  4  5  2  0
  4  8  1  0
  6  9  1  0
  6  7  2  0
  9 10  1  0
 10 11  1  1
 11 12  1  0
 12 13  2  0
 14 13  1  0
 15 14  1  0
 16 15  2  0
 17 16  1  0
 18 17  2  0
 18 19  1  0
 19 20  2  0
 20 15  1  0
 20 12  1  0
 21 23  1  0
 21 10  1  0
 22 21  2  0
 24 28  1  0
 24 23  1  0
 24 25  1  6
 26 25  1  0
 27 26  2  0
 28 29  1  0
 30 26  1  0
 31 28  2  0
M  END
$$$$
