DWD.pdb
     RDKit          3D

 31 32  0  0  1  0  0  0  0  0999 V2000
    9.5094  -17.0340   18.7889 N   0  0  0  0  0  0  0  0  0  0  0  0
   10.6851  -17.1179   19.6562 C   0  0  1  0  0  0  0  0  0  0  0  0
   11.8229  -16.4789   18.8903 C   0  0  0  0  0  0  0  0  0  0  0  0
   11.9541  -17.2235   17.6112 C   0  0  0  0  0  0  0  0  0  0  0  0
   11.1489  -18.1699   17.3273 O   0  0  0  0  0  0  0  0  0  0  0  0
   10.4336  -16.4762   20.9507 C   0  0  0  0  0  0  0  0  0  0  0  0
   11.3797  -15.9188   21.5795 O   0  0  0  0  0  0  0  0  0  0  0  0
   12.9340  -16.9401   16.6761 O   0  0  0  0  0  0  0  0  0  0  0  0
    9.1597  -16.4448   21.5525 N   0  0  0  0  0  0  0  0  0  0  0  0
    8.9442  -15.9674   22.9178 C   0  0  1  0  0  0  0  0  0  0  0  0
    7.5060  -15.4591   22.9618 C   0  0  0  0  0  0  0  0  0  0  0  0
    7.0727  -15.1295   24.3427 C   0  0  0  0  0  0  0  0  0  0  0  0
    6.4892  -15.9623   25.2746 C   0  0  0  0  0  0  0  0  0  0  0  0
    6.2384  -15.3020   26.4124 N   0  0  0  0  0  0  0  0  0  0  0  0
    6.6534  -14.0382   26.2358 C   0  0  0  0  0  0  0  0  0  0  0  0
    6.6301  -12.9432   27.0984 C   0  0  0  0  0  0  0  0  0  0  0  0
    7.1318  -11.7263   26.6687 C   0  0  0  0  0  0  0  0  0  0  0  0
    7.6563  -11.5744   25.3985 C   0  0  0  0  0  0  0  0  0  0  0  0
    7.6735  -12.6643   24.5547 C   0  0  0  0  0  0  0  0  0  0  0  0
    7.1741  -13.8919   24.9716 C   0  0  0  0  0  0  0  0  0  0  0  0
    9.1830  -17.0093   23.9145 C   0  0  0  0  0  0  0  0  0  0  0  0
    8.6114  -18.1339   23.8367 O   0  0  0  0  0  0  0  0  0  0  0  0
   10.0576  -16.7887   24.9921 N   0  0  0  0  0  0  0  0  0  0  0  0
   10.3802  -17.8492   25.9582 C   0  0  1  0  0  0  0  0  0  0  0  0
   11.6443  -18.4836   25.4421 C   0  0  0  0  0  0  0  0  0  0  0  0
   12.8119  -17.6061   25.3965 C   0  0  0  0  0  0  0  0  0  0  0  0
   12.9273  -16.8032   24.4230 O   0  0  0  0  0  0  0  0  0  0  0  0
   10.5525  -17.2561   27.3077 C   0  0  0  0  0  0  0  0  0  0  0  0
   10.4612  -15.8629   27.4302 O   0  0  0  0  0  0  0  0  0  0  0  0
   13.8140  -17.5811   26.3396 O   0  0  0  0  0  0  0  0  0  0  0  0
   10.7727  -17.9083   28.3412 O   0  0  0  0  0  0  0  0  0  0  0  0
  2  1  1  6
  2  6  1  0
  2  3  1  0
  3  4  1  0
  4  5  2  0
  4  8  1  0
  6  9  1  0
  6  7  2  0
  9 10  1  0
 10 11  1  6
 11 12  1  0
 12 13  2  0
 14 13  1  0
 15 14  1  0
 16 15  2  0
 17 16  1  0
 18 17  2  0
 18 19  1  0
 19 20  2  0
 20 15  1  0
 20 12  1  0
 21 23  1  0
 21 10  1  0
 22 21  2  0
 24 28  1  0
 24 23  1  0
 24 25  1  6
 26 25  1  0
 27 26  2  0
 28 29  1  0
 30 26  1  0
 31 28  2  0
M  END
$$$$
