DWD.pdb
     RDKit          3D

 31 32  0  0  1  0  0  0  0  0999 V2000
    9.7897  -16.0804   19.1141 N   0  0  0  0  0  0  0  0  0  0  0  0
    9.9262  -17.1394   20.1148 C   0  0  1  0  0  0  0  0  0  0  0  0
   11.1727  -17.9133   19.7452 C   0  0  0  0  0  0  0  0  0  0  0  0
   10.8364  -18.7275   18.5487 C   0  0  0  0  0  0  0  0  0  0  0  0
    9.8151  -19.4901   18.5504 O   0  0  0  0  0  0  0  0  0  0  0  0
    9.9781  -16.5820   21.4702 C   0  0  0  0  0  0  0  0  0  0  0  0
   10.8027  -15.6637   21.7498 O   0  0  0  0  0  0  0  0  0  0  0  0
   11.5936  -18.7062   17.3906 O   0  0  0  0  0  0  0  0  0  0  0  0
    9.1369  -17.0247   22.5106 N   0  0  0  0  0  0  0  0  0  0  0  0
    9.2092  -16.4837   23.8673 C   0  0  1  0  0  0  0  0  0  0  0  0
    7.7832  -16.5206   24.4095 C   0  0  0  0  0  0  0  0  0  0  0  0
    7.1757  -15.1678   24.4742 C   0  0  0  0  0  0  0  0  0  0  0  0
    6.2964  -14.5850   23.5857 C   0  0  0  0  0  0  0  0  0  0  0  0
    5.9692  -13.3482   23.9816 N   0  0  0  0  0  0  0  0  0  0  0  0
    6.6279  -13.1124   25.1267 C   0  0  0  0  0  0  0  0  0  0  0  0
    6.6429  -11.9904   25.9541 C   0  0  0  0  0  0  0  0  0  0  0  0
    7.4176  -12.0003   27.1017 C   0  0  0  0  0  0  0  0  0  0  0  0
    8.1787  -13.1025   27.4445 C   0  0  0  0  0  0  0  0  0  0  0  0
    8.1557  -14.2056   26.6182 C   0  0  0  0  0  0  0  0  0  0  0  0
    7.3832  -14.2109   25.4636 C   0  0  0  0  0  0  0  0  0  0  0  0
   10.1328  -17.2341   24.7158 C   0  0  0  0  0  0  0  0  0  0  0  0
   10.0560  -18.4917   24.8158 O   0  0  0  0  0  0  0  0  0  0  0  0
   11.1354  -16.5757   25.4478 N   0  0  0  0  0  0  0  0  0  0  0  0
   12.0802  -17.3100   26.3024 C   0  0  1  0  0  0  0  0  0  0  0  0
   13.3811  -16.5606   26.1890 C   0  0  0  0  0  0  0  0  0  0  0  0
   13.9968  -16.5717   24.8638 C   0  0  0  0  0  0  0  0  0  0  0  0
   13.8972  -17.6203   24.1596 O   0  0  0  0  0  0  0  0  0  0  0  0
   11.5657  -17.3471   27.6939 C   0  0  0  0  0  0  0  0  0  0  0  0
   12.2913  -18.0785   28.6440 O   0  0  0  0  0  0  0  0  0  0  0  0
   14.6888  -15.5190   24.3095 O   0  0  0  0  0  0  0  0  0  0  0  0
   10.5336  -16.7741   28.0791 O   0  0  0  0  0  0  0  0  0  0  0  0
  2  1  1  6
  2  6  1  0
  2  3  1  0
  3  4  1  0
  4  5  2  0
  4  8  1  0
  6  9  1  0
  6  7  2  0
  9 10  1  0
 10 11  1  1
 11 12  1  0
 12 13  2  0
 14 13  1  0
 15 14  1  0
 16 15  2  0
 17 16  1  0
 18 17  2  0
 18 19  1  0
 19 20  2  0
 20 15  1  0
 20 12  1  0
 21 23  1  0
 21 10  1  0
 22 21  2  0
 24 28  1  0
 24 23  1  0
 24 25  1  1
 26 25  1  0
 27 26  2  0
 28 29  1  0
 30 26  1  0
 31 28  2  0
M  END
$$$$
