DWD.pdb
     RDKit          3D

 31 32  0  0  1  0  0  0  0  0999 V2000
    8.9569  -17.6020   20.4007 N   0  0  0  0  0  0  0  0  0  0  0  0
   10.1144  -16.7513   20.6800 C   0  0  1  0  0  0  0  0  0  0  0  0
    9.9511  -15.5177   19.8193 C   0  0  0  0  0  0  0  0  0  0  0  0
   10.1342  -15.9480   18.4090 C   0  0  0  0  0  0  0  0  0  0  0  0
   11.1540  -16.6324   18.0679 O   0  0  0  0  0  0  0  0  0  0  0  0
   10.2109  -16.4436   22.1107 C   0  0  0  0  0  0  0  0  0  0  0  0
   11.1376  -15.6964   22.5401 O   0  0  0  0  0  0  0  0  0  0  0  0
    9.2305  -15.6388   17.4076 O   0  0  0  0  0  0  0  0  0  0  0  0
    9.3031  -16.9483   23.0631 N   0  0  0  0  0  0  0  0  0  0  0  0
    9.4757  -16.7466   24.5011 C   0  0  1  0  0  0  0  0  0  0  0  0
    8.0681  -16.6480   25.0823 C   0  0  0  0  0  0  0  0  0  0  0  0
    7.4111  -15.3623   24.7381 C   0  0  0  0  0  0  0  0  0  0  0  0
    6.6357  -15.0695   23.6357 C   0  0  0  0  0  0  0  0  0  0  0  0
    6.2173  -13.7979   23.6720 N   0  0  0  0  0  0  0  0  0  0  0  0
    6.7126  -13.2505   24.7925 C   0  0  0  0  0  0  0  0  0  0  0  0
    6.5810  -11.9636   25.3124 C   0  0  0  0  0  0  0  0  0  0  0  0
    7.1993  -11.6459   26.5099 C   0  0  0  0  0  0  0  0  0  0  0  0
    7.9466  -12.5808   27.2021 C   0  0  0  0  0  0  0  0  0  0  0  0
    8.0696  -13.8497   26.6776 C   0  0  0  0  0  0  0  0  0  0  0  0
    7.4548  -14.1836   25.4773 C   0  0  0  0  0  0  0  0  0  0  0  0
   10.2467  -17.8208   25.1239 C   0  0  0  0  0  0  0  0  0  0  0  0
    9.9865  -19.0352   24.8892 O   0  0  0  0  0  0  0  0  0  0  0  0
   11.3024  -17.5323   26.0054 N   0  0  0  0  0  0  0  0  0  0  0  0
   12.0302  -18.5936   26.7167 C   0  0  1  0  0  0  0  0  0  0  0  0
   13.4277  -18.0630   26.8965 C   0  0  0  0  0  0  0  0  0  0  0  0
   14.3583  -18.9655   27.5709 C   0  0  0  0  0  0  0  0  0  0  0  0
   14.4299  -20.1669   27.1744 O   0  0  0  0  0  0  0  0  0  0  0  0
   11.3590  -18.8751   28.0101 C   0  0  0  0  0  0  0  0  0  0  0  0
   11.7395  -20.0273   28.7114 O   0  0  0  0  0  0  0  0  0  0  0  0
   15.1759  -18.6118   28.6199 O   0  0  0  0  0  0  0  0  0  0  0  0
   10.4804  -18.1598   28.5184 O   0  0  0  0  0  0  0  0  0  0  0  0
  2  1  1  1
  2  6  1  0
  2  3  1  0
  3  4  1  0
  4  5  2  0
  4  8  1  0
  6  9  1  0
  6  7  2  0
  9 10  1  0
 10 11  1  1
 11 12  1  0
 12 13  2  0
 14 13  1  0
 15 14  1  0
 16 15  2  0
 17 16  1  0
 18 17  2  0
 18 19  1  0
 19 20  2  0
 20 15  1  0
 20 12  1  0
 21 23  1  0
 21 10  1  0
 22 21  2  0
 24 28  1  0
 24 23  1  0
 24 25  1  1
 26 25  1  0
 27 26  2  0
 28 29  1  0
 30 26  1  0
 31 28  2  0
M  END
$$$$
