DWD.pdb
     RDKit          3D

 31 32  0  0  1  0  0  0  0  0999 V2000
    7.1932  -17.0748   20.7603 N   0  0  0  0  0  0  0  0  0  0  0  0
    8.4639  -16.4628   20.3701 C   0  0  1  0  0  0  0  0  0  0  0  0
    8.1141  -15.2957   19.4728 C   0  0  0  0  0  0  0  0  0  0  0  0
    7.7707  -15.8618   18.1427 C   0  0  0  0  0  0  0  0  0  0  0  0
    7.5687  -17.1126   18.0037 O   0  0  0  0  0  0  0  0  0  0  0  0
    9.2434  -16.0672   21.5476 C   0  0  0  0  0  0  0  0  0  0  0  0
   10.3221  -15.4201   21.4091 O   0  0  0  0  0  0  0  0  0  0  0  0
    7.6528  -15.0834   17.0046 O   0  0  0  0  0  0  0  0  0  0  0  0
    8.8478  -16.3765   22.8643 N   0  0  0  0  0  0  0  0  0  0  0  0
    9.6731  -16.0626   24.0299 C   0  0  1  0  0  0  0  0  0  0  0  0
    8.7960  -16.3325   25.2492 C   0  0  0  0  0  0  0  0  0  0  0  0
    7.6309  -15.4150   25.3126 C   0  0  0  0  0  0  0  0  0  0  0  0
    6.3111  -15.6920   25.0231 C   0  0  0  0  0  0  0  0  0  0  0  0
    5.5475  -14.6057   25.1967 N   0  0  0  0  0  0  0  0  0  0  0  0
    6.3566  -13.6138   25.5992 C   0  0  0  0  0  0  0  0  0  0  0  0
    6.0789  -12.2859   25.9208 C   0  0  0  0  0  0  0  0  0  0  0  0
    7.1094  -11.4514   26.3193 C   0  0  0  0  0  0  0  0  0  0  0  0
    8.4114  -11.9089   26.4047 C   0  0  0  0  0  0  0  0  0  0  0  0
    8.6733  -13.2237   26.0839 C   0  0  0  0  0  0  0  0  0  0  0  0
    7.6498  -14.0733   25.6827 C   0  0  0  0  0  0  0  0  0  0  0  0
   10.9067  -16.8456   24.0640 C   0  0  0  0  0  0  0  0  0  0  0  0
   10.9098  -18.0763   23.7759 O   0  0  0  0  0  0  0  0  0  0  0  0
   12.1286  -16.2500   24.4202 N   0  0  0  0  0  0  0  0  0  0  0  0
   13.3970  -16.9918   24.3678 C   0  0  1  0  0  0  0  0  0  0  0  0
   14.4325  -15.9771   23.9617 C   0  0  0  0  0  0  0  0  0  0  0  0
   15.8065  -16.4715   23.9079 C   0  0  0  0  0  0  0  0  0  0  0  0
   16.0272  -17.5837   23.3422 O   0  0  0  0  0  0  0  0  0  0  0  0
   13.6782  -17.5894   25.6969 C   0  0  0  0  0  0  0  0  0  0  0  0
   12.8881  -17.1833   26.7809 O   0  0  0  0  0  0  0  0  0  0  0  0
   16.8985  -15.8177   24.4315 O   0  0  0  0  0  0  0  0  0  0  0  0
   14.5674  -18.4273   25.9189 O   0  0  0  0  0  0  0  0  0  0  0  0
  2  1  1  1
  2  6  1  0
  2  3  1  0
  3  4  1  0
  4  5  2  0
  4  8  1  0
  6  9  1  0
  6  7  2  0
  9 10  1  0
 10 11  1  1
 11 12  1  0
 12 13  2  0
 14 13  1  0
 15 14  1  0
 16 15  2  0
 17 16  1  0
 18 17  2  0
 18 19  1  0
 19 20  2  0
 20 15  1  0
 20 12  1  0
 21 23  1  0
 21 10  1  0
 22 21  2  0
 24 28  1  0
 24 23  1  0
 24 25  1  1
 26 25  1  0
 27 26  2  0
 28 29  1  0
 30 26  1  0
 31 28  2  0
M  END
$$$$
