DWD.pdb
     RDKit          3D

 31 32  0  0  1  0  0  0  0  0999 V2000
   10.9675  -16.0462   18.4758 N   0  0  0  0  0  0  0  0  0  0  0  0
   10.2804  -16.8944   19.4504 C   0  0  1  0  0  0  0  0  0  0  0  0
   11.1125  -18.1516   19.5788 C   0  0  0  0  0  0  0  0  0  0  0  0
   11.1994  -18.7521   18.2225 C   0  0  0  0  0  0  0  0  0  0  0  0
   12.2224  -19.4304   17.8789 O   0  0  0  0  0  0  0  0  0  0  0  0
   10.0997  -16.1937   20.7260 C   0  0  0  0  0  0  0  0  0  0  0  0
   11.0577  -15.5436   21.2366 O   0  0  0  0  0  0  0  0  0  0  0  0
   10.1994  -18.6137   17.2760 O   0  0  0  0  0  0  0  0  0  0  0  0
    8.8830  -16.2042   21.4370 N   0  0  0  0  0  0  0  0  0  0  0  0
    8.7701  -15.7234   22.8135 C   0  0  1  0  0  0  0  0  0  0  0  0
    7.2749  -15.5987   23.0924 C   0  0  0  0  0  0  0  0  0  0  0  0
    7.0017  -15.1520   24.4813 C   0  0  0  0  0  0  0  0  0  0  0  0
    6.5360  -15.9012   25.5416 C   0  0  0  0  0  0  0  0  0  0  0  0
    6.4135  -15.1461   26.6407 N   0  0  0  0  0  0  0  0  0  0  0  0
    6.7961  -13.9029   26.3110 C   0  0  0  0  0  0  0  0  0  0  0  0
    6.8647  -12.7386   27.0748 C   0  0  0  0  0  0  0  0  0  0  0  0
    7.3045  -11.5638   26.4885 C   0  0  0  0  0  0  0  0  0  0  0  0
    7.6775  -11.5216   25.1578 C   0  0  0  0  0  0  0  0  0  0  0  0
    7.6050  -12.6793   24.4130 C   0  0  0  0  0  0  0  0  0  0  0  0
    7.1661  -13.8657   24.9872 C   0  0  0  0  0  0  0  0  0  0  0  0
    9.4285  -16.6130   23.7681 C   0  0  0  0  0  0  0  0  0  0  0  0
    9.2379  -17.8621   23.7388 O   0  0  0  0  0  0  0  0  0  0  0  0
   10.2947  -16.1023   24.7497 N   0  0  0  0  0  0  0  0  0  0  0  0
   10.9001  -16.9657   25.7745 C   0  0  1  0  0  0  0  0  0  0  0  0
   12.3648  -16.6171   25.7707 C   0  0  0  0  0  0  0  0  0  0  0  0
   13.1364  -17.1665   24.6581 C   0  0  0  0  0  0  0  0  0  0  0  0
   12.5925  -18.0393   23.9177 O   0  0  0  0  0  0  0  0  0  0  0  0
   10.2577  -16.7046   27.0866 C   0  0  0  0  0  0  0  0  0  0  0  0
   10.5918  -17.5410   28.1604 O   0  0  0  0  0  0  0  0  0  0  0  0
   14.4277  -16.8086   24.3441 O   0  0  0  0  0  0  0  0  0  0  0  0
    9.4415  -15.7941   27.3029 O   0  0  0  0  0  0  0  0  0  0  0  0
  2  1  1  6
  2  6  1  0
  2  3  1  0
  3  4  1  0
  4  5  2  0
  4  8  1  0
  6  9  1  0
  6  7  2  0
  9 10  1  0
 10 11  1  1
 11 12  1  0
 12 13  2  0
 14 13  1  0
 15 14  1  0
 16 15  2  0
 17 16  1  0
 18 17  2  0
 18 19  1  0
 19 20  2  0
 20 15  1  0
 20 12  1  0
 21 23  1  0
 21 10  1  0
 22 21  2  0
 24 28  1  0
 24 23  1  0
 24 25  1  1
 26 25  1  0
 27 26  2  0
 28 29  1  0
 30 26  1  0
 31 28  2  0
M  END
$$$$
