DWD.pdb
     RDKit          3D

 31 32  0  0  1  0  0  0  0  0999 V2000
    8.1825  -18.2017   19.0397 N   0  0  0  0  0  0  0  0  0  0  0  0
    9.5987  -17.9612   19.3194 C   0  0  1  0  0  0  0  0  0  0  0  0
   10.2133  -17.4913   18.0191 C   0  0  0  0  0  0  0  0  0  0  0  0
    9.9082  -18.5270   16.9983 C   0  0  0  0  0  0  0  0  0  0  0  0
   10.4560  -19.6764   17.0581 O   0  0  0  0  0  0  0  0  0  0  0  0
    9.7651  -16.9986   20.4132 C   0  0  0  0  0  0  0  0  0  0  0  0
   10.9120  -16.5402   20.6888 O   0  0  0  0  0  0  0  0  0  0  0  0
    9.0329  -18.3100   15.9486 O   0  0  0  0  0  0  0  0  0  0  0  0
    8.6880  -16.5418   21.1987 N   0  0  0  0  0  0  0  0  0  0  0  0
    8.8734  -15.6843   22.3686 C   0  0  1  0  0  0  0  0  0  0  0  0
    7.5773  -14.8925   22.5173 C   0  0  0  0  0  0  0  0  0  0  0  0
    7.6997  -13.8049   23.5200 C   0  0  0  0  0  0  0  0  0  0  0  0
    8.3503  -12.5956   23.3906 C   0  0  0  0  0  0  0  0  0  0  0  0
    8.2429  -11.8746   24.5140 N   0  0  0  0  0  0  0  0  0  0  0  0
    7.5250  -12.6019   25.3835 C   0  0  0  0  0  0  0  0  0  0  0  0
    7.1208  -12.3230   26.6883 C   0  0  0  0  0  0  0  0  0  0  0  0
    6.3698  -13.2558   27.3833 C   0  0  0  0  0  0  0  0  0  0  0  0
    6.0119  -14.4613   26.8085 C   0  0  0  0  0  0  0  0  0  0  0  0
    6.4177  -14.7256   25.5179 C   0  0  0  0  0  0  0  0  0  0  0  0
    7.1713  -13.7994   24.8077 C   0  0  0  0  0  0  0  0  0  0  0  0
    9.1839  -16.4496   23.5744 C   0  0  0  0  0  0  0  0  0  0  0  0
    8.4746  -17.4348   23.9260 O   0  0  0  0  0  0  0  0  0  0  0  0
   10.2837  -16.1095   24.3803 N   0  0  0  0  0  0  0  0  0  0  0  0
   10.6499  -16.8991   25.5655 C   0  0  1  0  0  0  0  0  0  0  0  0
   12.1452  -17.0575   25.4890 C   0  0  0  0  0  0  0  0  0  0  0  0
   12.6667  -17.4572   24.1837 C   0  0  0  0  0  0  0  0  0  0  0  0
   12.2899  -18.5640   23.6952 O   0  0  0  0  0  0  0  0  0  0  0  0
   10.2166  -16.1844   26.7918 C   0  0  0  0  0  0  0  0  0  0  0  0
   10.3914  -16.8280   28.0244 O   0  0  0  0  0  0  0  0  0  0  0  0
   13.5495  -16.7180   23.4298 O   0  0  0  0  0  0  0  0  0  0  0  0
    9.7080  -15.0516   26.8046 O   0  0  0  0  0  0  0  0  0  0  0  0
  2  1  1  6
  2  6  1  0
  2  3  1  0
  3  4  1  0
  4  5  2  0
  4  8  1  0
  6  9  1  0
  6  7  2  0
  9 10  1  0
 10 11  1  1
 11 12  1  0
 12 13  2  0
 14 13  1  0
 15 14  1  0
 16 15  2  0
 17 16  1  0
 18 17  2  0
 18 19  1  0
 19 20  2  0
 20 15  1  0
 20 12  1  0
 21 23  1  0
 21 10  1  0
 22 21  2  0
 24 28  1  0
 24 23  1  0
 24 25  1  1
 26 25  1  0
 27 26  2  0
 28 29  1  0
 30 26  1  0
 31 28  2  0
M  END
$$$$
