GLT.pdb
     RDKit          3D

 20 19  0  0  1  0  0  0  0  0999 V2000
    8.9420  -18.6007   17.1810 N   0  0  0  0  0  0  0  0  0  0  0  0
    8.4698  -18.5087   18.5360 C   0  0  0  0  0  0  0  0  0  0  0  0
    9.1534  -17.3996   19.2550 C   0  0  0  0  0  0  0  0  0  0  0  0
   10.3965  -17.3083   19.1072 O   0  0  0  0  0  0  0  0  0  0  0  0
    6.4792  -12.6865   20.5054 C   0  0  0  0  0  0  0  0  0  0  0  0
    7.5503  -13.6513   20.1184 C   0  0  1  0  0  0  0  0  0  0  0  0
    8.6220  -12.8196   19.3902 C   0  0  0  0  0  0  0  0  0  0  0  0
    8.2397  -14.3335   21.2292 C   0  0  0  0  0  0  0  0  0  0  0  0
    9.1556  -15.4595   20.8765 C   0  0  2  0  0  0  0  0  0  0  0  0
    8.4938  -16.4738   20.0697 N   0  0  0  0  0  0  0  0  0  0  0  0
    9.6960  -16.1310   22.1037 C   0  0  0  0  0  0  0  0  0  0  0  0
    8.9250  -16.5117   23.0228 O   0  0  0  0  0  0  0  0  0  0  0  0
   10.9245  -19.4545   22.7929 C   0  0  0  0  0  0  0  0  0  0  0  0
   12.0281  -18.4883   23.1022 C   0  0  1  0  0  0  0  0  0  0  0  0
   12.9736  -18.4158   22.0806 O   0  0  0  0  0  0  0  0  0  0  0  0
   11.5257  -17.1097   23.4516 C   0  0  2  0  0  0  0  0  0  0  0  0
   11.0800  -16.3702   22.2940 N   0  0  0  0  0  0  0  0  0  0  0  0
   12.6544  -16.3764   24.0624 C   0  0  0  0  0  0  0  0  0  0  0  0
   13.1514  -15.2573   23.4221 O   0  0  0  0  0  0  0  0  0  0  0  0
   13.1923  -16.7194   25.1441 O   0  0  0  0  0  0  0  0  0  0  0  0
  2  1  1  0
  3  2  1  0
  3 10  1  0
  4  3  2  0
  6  5  1  1
  6  7  1  0
  8  6  1  0
  9 10  1  0
  9  8  1  1
 11  9  1  0
 12 11  2  0
 14 13  1  6
 14 16  1  0
 15 14  1  0
 16 17  1  6
 16 18  1  0
 17 11  1  0
 18 19  1  0
 20 18  2  0
M  END
$$$$
