GLT.pdb
     RDKit          3D

 20 19  0  0  1  0  0  0  0  0999 V2000
    8.2250  -15.3002   19.4031 N   0  0  0  0  0  0  0  0  0  0  0  0
    7.3170  -15.5270   20.4947 C   0  0  0  0  0  0  0  0  0  0  0  0
    7.9052  -15.0461   21.7743 C   0  0  0  0  0  0  0  0  0  0  0  0
    9.1479  -15.1624   21.9069 O   0  0  0  0  0  0  0  0  0  0  0  0
    8.2610  -11.9709   26.3855 C   0  0  0  0  0  0  0  0  0  0  0  0
    7.1403  -12.9524   26.2941 C   0  0  1  0  0  0  0  0  0  0  0  0
    5.9239  -12.2626   26.9387 C   0  0  0  0  0  0  0  0  0  0  0  0
    6.7250  -13.3363   24.9322 C   0  0  0  0  0  0  0  0  0  0  0  0
    7.6866  -14.1483   24.1279 C   0  0  2  0  0  0  0  0  0  0  0  0
    7.1582  -14.4830   22.8139 N   0  0  0  0  0  0  0  0  0  0  0  0
    8.0346  -15.4313   24.8220 C   0  0  0  0  0  0  0  0  0  0  0  0
    7.1449  -16.2789   25.0943 O   0  0  0  0  0  0  0  0  0  0  0  0
    9.9689  -18.1405   23.3567 C   0  0  0  0  0  0  0  0  0  0  0  0
   10.6120  -17.8012   24.6675 C   0  0  1  0  0  0  0  0  0  0  0  0
   11.7846  -17.0642   24.5099 O   0  0  0  0  0  0  0  0  0  0  0  0
    9.6762  -17.1014   25.6212 C   0  0  2  0  0  0  0  0  0  0  0  0
    9.3606  -15.7554   25.2034 N   0  0  0  0  0  0  0  0  0  0  0  0
   10.3597  -17.0313   26.9298 C   0  0  0  0  0  0  0  0  0  0  0  0
   10.6899  -15.7935   27.4478 O   0  0  0  0  0  0  0  0  0  0  0  0
   10.6600  -18.0473   27.6040 O   0  0  0  0  0  0  0  0  0  0  0  0
  2  1  1  0
  3  2  1  0
  3 10  1  0
  4  3  2  0
  6  5  1  6
  6  7  1  0
  8  6  1  0
  9 10  1  0
  9  8  1  1
 11  9  1  0
 12 11  2  0
 14 13  1  6
 14 16  1  0
 15 14  1  0
 16 17  1  6
 16 18  1  0
 17 11  1  0
 18 19  1  0
 20 18  2  0
M  END
$$$$
