GLT.pdb
     RDKit          3D

 20 19  0  0  1  0  0  0  0  0999 V2000
    4.8329  -18.8966   23.4370 N   0  0  0  0  0  0  0  0  0  0  0  0
    5.1717  -18.1966   24.6464 C   0  0  0  0  0  0  0  0  0  0  0  0
    6.2037  -17.1582   24.3793 C   0  0  0  0  0  0  0  0  0  0  0  0
    6.6607  -17.0992   23.2118 O   0  0  0  0  0  0  0  0  0  0  0  0
    6.4648  -12.2033   27.1226 C   0  0  0  0  0  0  0  0  0  0  0  0
    6.5747  -13.1955   26.0130 C   0  0  1  0  0  0  0  0  0  0  0  0
    6.8470  -12.3736   24.7397 C   0  0  0  0  0  0  0  0  0  0  0  0
    7.6772  -14.1689   26.1212 C   0  0  0  0  0  0  0  0  0  0  0  0
    7.7174  -15.2706   25.1134 C   0  0  2  0  0  0  0  0  0  0  0  0
    6.6793  -16.2640   25.3438 N   0  0  0  0  0  0  0  0  0  0  0  0
    9.0397  -15.9781   25.1278 C   0  0  0  0  0  0  0  0  0  0  0  0
    9.4500  -16.5566   26.1676 O   0  0  0  0  0  0  0  0  0  0  0  0
   10.1660  -18.8495   22.6771 C   0  0  0  0  0  0  0  0  0  0  0  0
   11.1551  -17.7250   22.7402 C   0  0  1  0  0  0  0  0  0  0  0  0
   11.0961  -16.9008   21.6176 O   0  0  0  0  0  0  0  0  0  0  0  0
   11.0379  -16.9048   24.0006 C   0  0  2  0  0  0  0  0  0  0  0  0
    9.8859  -16.0339   23.9922 N   0  0  0  0  0  0  0  0  0  0  0  0
   12.2515  -16.0657   24.0889 C   0  0  0  0  0  0  0  0  0  0  0  0
   13.4837  -16.6798   24.2074 O   0  0  0  0  0  0  0  0  0  0  0  0
   12.2230  -14.8105   24.0619 O   0  0  0  0  0  0  0  0  0  0  0  0
  2  1  1  0
  3  2  1  0
  3 10  1  0
  4  3  2  0
  6  5  1  1
  6  7  1  0
  8  6  1  0
  9 10  1  0
  9  8  1  1
 11  9  1  0
 12 11  2  0
 14 13  1  6
 14 16  1  0
 15 14  1  0
 16 17  1  6
 16 18  1  0
 17 11  1  0
 18 19  1  0
 20 18  2  0
M  END
$$$$
