GLT.pdb
     RDKit          3D

 20 19  0  0  1  0  0  0  0  0999 V2000
    5.0968  -20.0207   24.0870 N   0  0  0  0  0  0  0  0  0  0  0  0
    5.5852  -19.2592   25.2047 C   0  0  0  0  0  0  0  0  0  0  0  0
    6.1211  -17.9472   24.7508 C   0  0  0  0  0  0  0  0  0  0  0  0
    6.2953  -17.8015   23.5164 O   0  0  0  0  0  0  0  0  0  0  0  0
    6.7214  -12.4036   24.9914 C   0  0  0  0  0  0  0  0  0  0  0  0
    7.5211  -13.2610   25.9151 C   0  0  1  0  0  0  0  0  0  0  0  0
    7.5979  -12.4884   27.2448 C   0  0  0  0  0  0  0  0  0  0  0  0
    6.9454  -14.5803   26.2355 C   0  0  0  0  0  0  0  0  0  0  0  0
    7.0855  -15.6549   25.2076 C   0  0  2  0  0  0  0  0  0  0  0  0
    6.4334  -16.8911   25.6129 N   0  0  0  0  0  0  0  0  0  0  0  0
    8.5266  -15.9658   24.9330 C   0  0  0  0  0  0  0  0  0  0  0  0
    9.2484  -16.5056   25.8115 O   0  0  0  0  0  0  0  0  0  0  0  0
    9.3307  -17.5420   21.2897 C   0  0  0  0  0  0  0  0  0  0  0  0
   10.3975  -16.6215   21.8011 C   0  0  1  0  0  0  0  0  0  0  0  0
   10.4102  -15.3984   21.1326 O   0  0  0  0  0  0  0  0  0  0  0  0
   10.3259  -16.4044   23.2920 C   0  0  2  0  0  0  0  0  0  0  0  0
    9.1454  -15.6746   23.6916 N   0  0  0  0  0  0  0  0  0  0  0  0
   11.5122  -15.6100   23.6742 C   0  0  0  0  0  0  0  0  0  0  0  0
   12.7701  -16.1472   23.4779 O   0  0  0  0  0  0  0  0  0  0  0  0
   11.4381  -14.4601   24.1735 O   0  0  0  0  0  0  0  0  0  0  0  0
  2  1  1  0
  3  2  1  0
  3 10  1  0
  4  3  2  0
  6  5  1  6
  6  7  1  0
  8  6  1  0
  9 10  1  0
  9  8  1  1
 11  9  1  0
 12 11  2  0
 14 13  1  6
 14 16  1  0
 15 14  1  0
 16 17  1  6
 16 18  1  0
 17 11  1  0
 18 19  1  0
 20 18  2  0
M  END
$$$$
