GLT.pdb
     RDKit          3D

 20 19  0  0  1  0  0  0  0  0999 V2000
    5.0535  -18.8816   23.1320 N   0  0  0  0  0  0  0  0  0  0  0  0
    5.2521  -18.2055   24.3854 C   0  0  0  0  0  0  0  0  0  0  0  0
    6.2951  -17.1524   24.2531 C   0  0  0  0  0  0  0  0  0  0  0  0
    6.9040  -17.0909   23.1573 O   0  0  0  0  0  0  0  0  0  0  0  0
    6.1489  -12.2483   27.1161 C   0  0  0  0  0  0  0  0  0  0  0  0
    6.3601  -13.2409   26.0216 C   0  0  1  0  0  0  0  0  0  0  0  0
    6.6524  -12.4147   24.7556 C   0  0  0  0  0  0  0  0  0  0  0  0
    7.5026  -14.1579   26.1905 C   0  0  0  0  0  0  0  0  0  0  0  0
    7.6680  -15.2383   25.1724 C   0  0  2  0  0  0  0  0  0  0  0  0
    6.6235  -16.2472   25.2674 N   0  0  0  0  0  0  0  0  0  0  0  0
    8.9895  -15.9319   25.3194 C   0  0  0  0  0  0  0  0  0  0  0  0
    9.3120  -16.4812   26.4049 O   0  0  0  0  0  0  0  0  0  0  0  0
   10.1845  -18.9176   23.1573 C   0  0  0  0  0  0  0  0  0  0  0  0
   11.1954  -17.8109   23.1745 C   0  0  1  0  0  0  0  0  0  0  0  0
   11.1877  -17.0648   21.9971 O   0  0  0  0  0  0  0  0  0  0  0  0
   11.0583  -16.9040   24.3719 C   0  0  2  0  0  0  0  0  0  0  0  0
    9.9321  -16.0064   24.2636 N   0  0  0  0  0  0  0  0  0  0  0  0
   12.2911  -16.0922   24.4471 C   0  0  0  0  0  0  0  0  0  0  0  0
   13.4814  -16.7105   24.7796 O   0  0  0  0  0  0  0  0  0  0  0  0
   12.3158  -14.8568   24.2227 O   0  0  0  0  0  0  0  0  0  0  0  0
  2  1  1  0
  3  2  1  0
  3 10  1  0
  4  3  2  0
  6  5  1  1
  6  7  1  0
  8  6  1  0
  9 10  1  0
  9  8  1  1
 11  9  1  0
 12 11  2  0
 14 13  1  6
 14 16  1  0
 15 14  1  0
 16 17  1  6
 16 18  1  0
 17 11  1  0
 18 19  1  0
 20 18  2  0
M  END
$$$$
