GLT.pdb
     RDKit          3D

 20 19  0  0  1  0  0  0  0  0999 V2000
    7.3048  -15.2480   20.2579 N   0  0  0  0  0  0  0  0  0  0  0  0
    6.5663  -15.1420   21.4871 C   0  0  0  0  0  0  0  0  0  0  0  0
    7.4920  -15.0135   22.6452 C   0  0  0  0  0  0  0  0  0  0  0  0
    8.7200  -15.1086   22.4036 O   0  0  0  0  0  0  0  0  0  0  0  0
    5.9242  -11.9705   27.0785 C   0  0  0  0  0  0  0  0  0  0  0  0
    6.7045  -12.5835   25.9636 C   0  0  1  0  0  0  0  0  0  0  0  0
    7.8921  -11.6365   25.7114 C   0  0  0  0  0  0  0  0  0  0  0  0
    7.2846  -13.9123   26.2330 C   0  0  0  0  0  0  0  0  0  0  0  0
    7.9610  -14.6060   25.0962 C   0  0  2  0  0  0  0  0  0  0  0  0
    7.0705  -14.7966   23.9610 N   0  0  0  0  0  0  0  0  0  0  0  0
    8.4765  -15.9535   25.5054 C   0  0  0  0  0  0  0  0  0  0  0  0
    7.6886  -16.8532   25.8979 O   0  0  0  0  0  0  0  0  0  0  0  0
   10.5636  -18.3724   23.3455 C   0  0  0  0  0  0  0  0  0  0  0  0
   11.2187  -18.1660   24.6778 C   0  0  1  0  0  0  0  0  0  0  0  0
   12.3479  -17.3530   24.5952 O   0  0  0  0  0  0  0  0  0  0  0  0
   10.2707  -17.6429   25.7278 C   0  0  2  0  0  0  0  0  0  0  0  0
    9.8545  -16.2835   25.4736 N   0  0  0  0  0  0  0  0  0  0  0  0
   10.9903  -17.6726   27.0185 C   0  0  0  0  0  0  0  0  0  0  0  0
   11.3696  -18.8920   27.5464 O   0  0  0  0  0  0  0  0  0  0  0  0
   11.2791  -16.6378   27.6687 O   0  0  0  0  0  0  0  0  0  0  0  0
  2  1  1  0
  3  2  1  0
  3 10  1  0
  4  3  2  0
  6  5  1  1
  6  7  1  0
  8  6  1  0
  9 10  1  0
  9  8  1  1
 11  9  1  0
 12 11  2  0
 14 13  1  6
 14 16  1  0
 15 14  1  0
 16 17  1  6
 16 18  1  0
 17 11  1  0
 18 19  1  0
 20 18  2  0
M  END
$$$$
