GLT.pdb
     RDKit          3D

 20 19  0  0  1  0  0  0  0  0999 V2000
    4.7925  -18.7161   22.9517 N   0  0  0  0  0  0  0  0  0  0  0  0
    5.1623  -18.2358   24.2556 C   0  0  0  0  0  0  0  0  0  0  0  0
    6.1921  -17.1670   24.1477 C   0  0  0  0  0  0  0  0  0  0  0  0
    6.7604  -17.0364   23.0362 O   0  0  0  0  0  0  0  0  0  0  0  0
    6.3052  -12.2910   27.1980 C   0  0  0  0  0  0  0  0  0  0  0  0
    6.4582  -13.2410   26.0570 C   0  0  1  0  0  0  0  0  0  0  0  0
    6.9154  -12.3888   24.8589 C   0  0  0  0  0  0  0  0  0  0  0  0
    7.4735  -14.2972   26.2252 C   0  0  0  0  0  0  0  0  0  0  0  0
    7.5952  -15.3084   25.1326 C   0  0  2  0  0  0  0  0  0  0  0  0
    6.5505  -16.3191   25.2007 N   0  0  0  0  0  0  0  0  0  0  0  0
    8.9181  -16.0128   25.1832 C   0  0  0  0  0  0  0  0  0  0  0  0
    9.2630  -16.6644   26.2033 O   0  0  0  0  0  0  0  0  0  0  0  0
   10.0956  -18.5950   22.4687 C   0  0  0  0  0  0  0  0  0  0  0  0
   11.1500  -17.5712   22.7634 C   0  0  1  0  0  0  0  0  0  0  0  0
   11.2679  -16.6217   21.7498 O   0  0  0  0  0  0  0  0  0  0  0  0
   10.9596  -16.8941   24.0977 C   0  0  2  0  0  0  0  0  0  0  0  0
    9.8375  -15.9850   24.1049 N   0  0  0  0  0  0  0  0  0  0  0  0
   12.1866  -16.1166   24.3708 C   0  0  0  0  0  0  0  0  0  0  0  0
   13.3932  -16.7823   24.4720 O   0  0  0  0  0  0  0  0  0  0  0  0
   12.1919  -14.8694   24.5177 O   0  0  0  0  0  0  0  0  0  0  0  0
  2  1  1  0
  3  2  1  0
  3 10  1  0
  4  3  2  0
  6  5  1  1
  6  7  1  0
  8  6  1  0
  9 10  1  0
  9  8  1  1
 11  9  1  0
 12 11  2  0
 14 13  1  6
 14 16  1  0
 15 14  1  0
 16 17  1  6
 16 18  1  0
 17 11  1  0
 18 19  1  0
 20 18  2  0
M  END
$$$$
