GLT.pdb
     RDKit          3D

 20 19  0  0  1  0  0  0  0  0999 V2000
    5.0362  -18.8269   23.2181 N   0  0  0  0  0  0  0  0  0  0  0  0
    5.2167  -18.1231   24.4589 C   0  0  0  0  0  0  0  0  0  0  0  0
    6.2690  -17.0799   24.3214 C   0  0  0  0  0  0  0  0  0  0  0  0
    6.8727  -17.0241   23.2224 O   0  0  0  0  0  0  0  0  0  0  0  0
    6.2749  -12.2376   27.3120 C   0  0  0  0  0  0  0  0  0  0  0  0
    6.4764  -13.1623   26.1579 C   0  0  1  0  0  0  0  0  0  0  0  0
    6.8470  -12.2667   24.9615 C   0  0  0  0  0  0  0  0  0  0  0  0
    7.5698  -14.1421   26.2960 C   0  0  0  0  0  0  0  0  0  0  0  0
    7.6807  -15.1954   25.2428 C   0  0  2  0  0  0  0  0  0  0  0  0
    6.6114  -16.1782   25.3342 N   0  0  0  0  0  0  0  0  0  0  0  0
    8.9857  -15.9284   25.3364 C   0  0  0  0  0  0  0  0  0  0  0  0
    9.3167  -16.5229   26.3953 O   0  0  0  0  0  0  0  0  0  0  0  0
   10.1123  -18.9239   23.1975 C   0  0  0  0  0  0  0  0  0  0  0  0
   11.1196  -17.8150   23.1474 C   0  0  1  0  0  0  0  0  0  0  0  0
   11.0560  -17.0917   21.9575 O   0  0  0  0  0  0  0  0  0  0  0  0
   11.0347  -16.8854   24.3321 C   0  0  2  0  0  0  0  0  0  0  0  0
    9.9027  -15.9916   24.2576 N   0  0  0  0  0  0  0  0  0  0  0  0
   12.2679  -16.0707   24.3363 C   0  0  0  0  0  0  0  0  0  0  0  0
   13.4691  -16.6749   24.6550 O   0  0  0  0  0  0  0  0  0  0  0  0
   12.2833  -14.8452   24.0627 O   0  0  0  0  0  0  0  0  0  0  0  0
  2  1  1  0
  3  2  1  0
  3 10  1  0
  4  3  2  0
  6  5  1  1
  6  7  1  0
  8  6  1  0
  9 10  1  0
  9  8  1  1
 11  9  1  0
 12 11  2  0
 14 13  1  6
 14 16  1  0
 15 14  1  0
 16 17  1  6
 16 18  1  0
 17 11  1  0
 18 19  1  0
 20 18  2  0
M  END
$$$$
