GLT.pdb
     RDKit          3D

 20 19  0  0  1  0  0  0  0  0999 V2000
    7.9589  -14.6065   20.0645 N   0  0  0  0  0  0  0  0  0  0  0  0
    7.0111  -14.6608   21.1445 C   0  0  0  0  0  0  0  0  0  0  0  0
    7.7105  -14.6271   22.4576 C   0  0  0  0  0  0  0  0  0  0  0  0
    8.9589  -14.7555   22.4393 O   0  0  0  0  0  0  0  0  0  0  0  0
    5.6881  -11.6568   26.7900 C   0  0  0  0  0  0  0  0  0  0  0  0
    6.6293  -12.2857   25.8171 C   0  0  1  0  0  0  0  0  0  0  0  0
    7.9761  -11.5646   26.0091 C   0  0  0  0  0  0  0  0  0  0  0  0
    6.8976  -13.7226   26.0117 C   0  0  0  0  0  0  0  0  0  0  0  0
    7.7272  -14.4092   24.9767 C   0  0  2  0  0  0  0  0  0  0  0  0
    7.0597  -14.4630   23.6847 N   0  0  0  0  0  0  0  0  0  0  0  0
    8.0551  -15.8154   25.3818 C   0  0  0  0  0  0  0  0  0  0  0  0
    7.1463  -16.6753   25.5189 O   0  0  0  0  0  0  0  0  0  0  0  0
    9.8197  -18.5912   23.6793 C   0  0  0  0  0  0  0  0  0  0  0  0
   10.5088  -18.3341   24.9854 C   0  0  1  0  0  0  0  0  0  0  0  0
   11.7141  -17.6524   24.8260 O   0  0  0  0  0  0  0  0  0  0  0  0
    9.6321  -17.6238   25.9863 C   0  0  2  0  0  0  0  0  0  0  0  0
    9.3823  -16.2471   25.6284 N   0  0  0  0  0  0  0  0  0  0  0  0
   10.3447  -17.6431   27.2810 C   0  0  0  0  0  0  0  0  0  0  0  0
   10.6367  -18.8600   27.8671 O   0  0  0  0  0  0  0  0  0  0  0  0
   10.7032  -16.6016   27.8842 O   0  0  0  0  0  0  0  0  0  0  0  0
  2  1  1  0
  3  2  1  0
  3 10  1  0
  4  3  2  0
  6  5  1  1
  6  7  1  0
  8  6  1  0
  9 10  1  0
  9  8  1  1
 11  9  1  0
 12 11  2  0
 14 13  1  6
 14 16  1  0
 15 14  1  0
 16 17  1  6
 16 18  1  0
 17 11  1  0
 18 19  1  0
 20 18  2  0
M  END
$$$$
