GLT.pdb
     RDKit          3D

 20 19  0  0  1  0  0  0  0  0999 V2000
    7.0591  -15.9501   20.5889 N   0  0  0  0  0  0  0  0  0  0  0  0
    7.0303  -14.6755   21.2536 C   0  0  0  0  0  0  0  0  0  0  0  0
    7.5709  -14.7925   22.6351 C   0  0  0  0  0  0  0  0  0  0  0  0
    8.7926  -15.0584   22.7459 O   0  0  0  0  0  0  0  0  0  0  0  0
    5.6970  -11.3738   26.6042 C   0  0  0  0  0  0  0  0  0  0  0  0
    6.5734  -12.2305   25.7524 C   0  0  1  0  0  0  0  0  0  0  0  0
    8.0154  -11.7743   26.0408 C   0  0  0  0  0  0  0  0  0  0  0  0
    6.5333  -13.6779   26.0320 C   0  0  0  0  0  0  0  0  0  0  0  0
    7.3382  -14.5682   25.1429 C   0  0  2  0  0  0  0  0  0  0  0  0
    6.8019  -14.6246   23.7912 N   0  0  0  0  0  0  0  0  0  0  0  0
    7.3907  -15.9698   25.6736 C   0  0  0  0  0  0  0  0  0  0  0  0
    6.3341  -16.5897   25.9628 O   0  0  0  0  0  0  0  0  0  0  0  0
    7.9985  -19.0978   24.0746 C   0  0  0  0  0  0  0  0  0  0  0  0
    9.0155  -18.9810   25.1696 C   0  0  1  0  0  0  0  0  0  0  0  0
   10.2739  -18.6202   24.6909 O   0  0  0  0  0  0  0  0  0  0  0  0
    8.5878  -18.0498   26.2764 C   0  0  2  0  0  0  0  0  0  0  0  0
    8.6106  -16.6624   25.8758 N   0  0  0  0  0  0  0  0  0  0  0  0
    9.5454  -18.2258   27.3884 C   0  0  0  0  0  0  0  0  0  0  0  0
    9.5907  -19.4393   28.0480 O   0  0  0  0  0  0  0  0  0  0  0  0
   10.3289  -17.3220   27.7708 O   0  0  0  0  0  0  0  0  0  0  0  0
  2  1  1  0
  3  2  1  0
  3 10  1  0
  4  3  2  0
  6  5  1  1
  6  7  1  0
  8  6  1  0
  9 10  1  0
  9  8  1  1
 11  9  1  0
 12 11  2  0
 14 13  1  6
 14 16  1  0
 15 14  1  0
 16 17  1  6
 16 18  1  0
 17 11  1  0
 18 19  1  0
 20 18  2  0
M  END
$$$$
