GLT.pdb
     RDKit          3D

 20 19  0  0  1  0  0  0  0  0999 V2000
    7.6828  -14.3041   19.9893 N   0  0  0  0  0  0  0  0  0  0  0  0
    6.8717  -14.6976   21.1094 C   0  0  0  0  0  0  0  0  0  0  0  0
    7.6325  -14.5610   22.3811 C   0  0  0  0  0  0  0  0  0  0  0  0
    8.8848  -14.5645   22.2965 O   0  0  0  0  0  0  0  0  0  0  0  0
    5.6370  -11.8320   26.9253 C   0  0  0  0  0  0  0  0  0  0  0  0
    6.5463  -12.3629   25.8674 C   0  0  1  0  0  0  0  0  0  0  0  0
    7.8482  -11.5494   25.9853 C   0  0  0  0  0  0  0  0  0  0  0  0
    6.9309  -13.7807   25.9956 C   0  0  0  0  0  0  0  0  0  0  0  0
    7.7590  -14.3660   24.8989 C   0  0  2  0  0  0  0  0  0  0  0  0
    7.0343  -14.4316   23.6386 N   0  0  0  0  0  0  0  0  0  0  0  0
    8.2150  -15.7539   25.2378 C   0  0  0  0  0  0  0  0  0  0  0  0
    7.3853  -16.6915   25.3674 O   0  0  0  0  0  0  0  0  0  0  0  0
   10.1817  -18.2352   23.3084 C   0  0  0  0  0  0  0  0  0  0  0  0
   10.8736  -18.0084   24.6187 C   0  0  1  0  0  0  0  0  0  0  0  0
   12.0093  -17.2106   24.4896 O   0  0  0  0  0  0  0  0  0  0  0  0
    9.9590  -17.4522   25.6813 C   0  0  2  0  0  0  0  0  0  0  0  0
    9.5807  -16.0817   25.4277 N   0  0  0  0  0  0  0  0  0  0  0  0
   10.6981  -17.4988   26.9604 C   0  0  0  0  0  0  0  0  0  0  0  0
   11.0273  -18.7278   27.4998 O   0  0  0  0  0  0  0  0  0  0  0  0
   11.0471  -16.4703   27.5908 O   0  0  0  0  0  0  0  0  0  0  0  0
  2  1  1  0
  3  2  1  0
  3 10  1  0
  4  3  2  0
  6  5  1  1
  6  7  1  0
  8  6  1  0
  9 10  1  0
  9  8  1  1
 11  9  1  0
 12 11  2  0
 14 13  1  6
 14 16  1  0
 15 14  1  0
 16 17  1  6
 16 18  1  0
 17 11  1  0
 18 19  1  0
 20 18  2  0
M  END
$$$$
