GLT.pdb
     RDKit          3D

 20 19  0  0  1  0  0  0  0  0999 V2000
    4.9141  -19.8152   23.6106 N   0  0  0  0  0  0  0  0  0  0  0  0
    5.5188  -19.1937   24.7576 C   0  0  0  0  0  0  0  0  0  0  0  0
    6.0837  -17.8651   24.3969 C   0  0  0  0  0  0  0  0  0  0  0  0
    6.4683  -17.7147   23.2116 O   0  0  0  0  0  0  0  0  0  0  0  0
    7.2015  -12.4592   24.7045 C   0  0  0  0  0  0  0  0  0  0  0  0
    7.4860  -13.2747   25.9218 C   0  0  1  0  0  0  0  0  0  0  0  0
    7.0807  -12.3968   27.1199 C   0  0  0  0  0  0  0  0  0  0  0  0
    6.7246  -14.5308   26.0525 C   0  0  0  0  0  0  0  0  0  0  0  0
    7.0220  -15.6157   25.0698 C   0  0  2  0  0  0  0  0  0  0  0  0
    6.2049  -16.7988   25.2938 N   0  0  0  0  0  0  0  0  0  0  0  0
    8.4608  -16.0338   25.1343 C   0  0  0  0  0  0  0  0  0  0  0  0
    8.9359  -16.5499   26.1793 O   0  0  0  0  0  0  0  0  0  0  0  0
    9.9731  -18.6731   22.7868 C   0  0  0  0  0  0  0  0  0  0  0  0
   10.7908  -17.4168   22.7844 C   0  0  1  0  0  0  0  0  0  0  0  0
   10.5696  -16.6401   21.6482 O   0  0  0  0  0  0  0  0  0  0  0  0
   10.6050  -16.5884   24.0311 C   0  0  2  0  0  0  0  0  0  0  0  0
    9.3499  -15.8740   24.0422 N   0  0  0  0  0  0  0  0  0  0  0  0
   11.7014  -15.5977   24.0634 C   0  0  0  0  0  0  0  0  0  0  0  0
   12.9977  -16.0386   24.2495 O   0  0  0  0  0  0  0  0  0  0  0  0
   11.5165  -14.3628   23.9294 O   0  0  0  0  0  0  0  0  0  0  0  0
  2  1  1  0
  3  2  1  0
  3 10  1  0
  4  3  2  0
  6  5  1  6
  6  7  1  0
  8  6  1  0
  9 10  1  0
  9  8  1  1
 11  9  1  0
 12 11  2  0
 14 13  1  1
 14 16  1  0
 15 14  1  0
 16 17  1  6
 16 18  1  0
 17 11  1  0
 18 19  1  0
 20 18  2  0
M  END
$$$$
