GLT.pdb
     RDKit          3D

 20 19  0  0  1  0  0  0  0  0999 V2000
    8.1132  -14.9549   20.3270 N   0  0  0  0  0  0  0  0  0  0  0  0
    7.1149  -14.8274   21.3540 C   0  0  0  0  0  0  0  0  0  0  0  0
    7.7488  -14.7957   22.7000 C   0  0  0  0  0  0  0  0  0  0  0  0
    8.9932  -14.9537   22.7452 O   0  0  0  0  0  0  0  0  0  0  0  0
    5.6991  -11.6693   26.8492 C   0  0  0  0  0  0  0  0  0  0  0  0
    6.6482  -12.3845   25.9462 C   0  0  1  0  0  0  0  0  0  0  0  0
    8.0235  -11.7332   26.1813 C   0  0  0  0  0  0  0  0  0  0  0  0
    6.8238  -13.8262   26.2019 C   0  0  0  0  0  0  0  0  0  0  0  0
    7.6390  -14.6004   25.2185 C   0  0  2  0  0  0  0  0  0  0  0  0
    7.0421  -14.6029   23.8913 N   0  0  0  0  0  0  0  0  0  0  0  0
    7.8060  -16.0274   25.6483 C   0  0  0  0  0  0  0  0  0  0  0  0
    6.8055  -16.7746   25.8058 O   0  0  0  0  0  0  0  0  0  0  0  0
    9.0982  -19.0031   23.9746 C   0  0  0  0  0  0  0  0  0  0  0  0
    9.8864  -18.8285   25.2376 C   0  0  1  0  0  0  0  0  0  0  0  0
   11.1620  -18.3180   25.0026 O   0  0  0  0  0  0  0  0  0  0  0  0
    9.1697  -17.9959   26.2711 C   0  0  2  0  0  0  0  0  0  0  0  0
    9.0766  -16.6041   25.8969 N   0  0  0  0  0  0  0  0  0  0  0  0
    9.9510  -18.0871   27.5224 C   0  0  0  0  0  0  0  0  0  0  0  0
   10.0884  -19.3163   28.1386 O   0  0  0  0  0  0  0  0  0  0  0  0
   10.5031  -17.0966   28.0621 O   0  0  0  0  0  0  0  0  0  0  0  0
  2  1  1  0
  3  2  1  0
  3 10  1  0
  4  3  2  0
  6  5  1  1
  6  7  1  0
  8  6  1  0
  9 10  1  0
  9  8  1  1
 11  9  1  0
 12 11  2  0
 14 13  1  6
 14 16  1  0
 15 14  1  0
 16 17  1  6
 16 18  1  0
 17 11  1  0
 18 19  1  0
 20 18  2  0
M  END
$$$$
