GLT.pdb
     RDKit          3D

 20 19  0  0  1  0  0  0  0  0999 V2000
    6.6187  -15.0842   20.1516 N   0  0  0  0  0  0  0  0  0  0  0  0
    6.1257  -15.3654   21.4728 C   0  0  0  0  0  0  0  0  0  0  0  0
    7.1393  -14.9999   22.4992 C   0  0  0  0  0  0  0  0  0  0  0  0
    8.3320  -14.9210   22.1162 O   0  0  0  0  0  0  0  0  0  0  0  0
    5.9242  -11.7967   26.9741 C   0  0  0  0  0  0  0  0  0  0  0  0
    6.5698  -12.4454   25.7950 C   0  0  1  0  0  0  0  0  0  0  0  0
    7.6919  -11.4890   25.3513 C   0  0  0  0  0  0  0  0  0  0  0  0
    7.2117  -13.7495   26.0441 C   0  0  0  0  0  0  0  0  0  0  0  0
    7.8186  -14.4476   24.8713 C   0  0  2  0  0  0  0  0  0  0  0  0
    6.8355  -14.7456   23.8405 N   0  0  0  0  0  0  0  0  0  0  0  0
    8.4636  -15.7394   25.2763 C   0  0  0  0  0  0  0  0  0  0  0  0
    7.7658  -16.7254   25.6298 O   0  0  0  0  0  0  0  0  0  0  0  0
   12.2820  -18.7609   24.6082 C   0  0  0  0  0  0  0  0  0  0  0  0
   11.5852  -17.4480   24.4135 C   0  0  1  0  0  0  0  0  0  0  0  0
   11.1848  -17.2489   23.0933 O   0  0  0  0  0  0  0  0  0  0  0  0
   10.4199  -17.2528   25.3509 C   0  0  2  0  0  0  0  0  0  0  0  0
    9.8694  -15.9192   25.2836 N   0  0  0  0  0  0  0  0  0  0  0  0
   10.9217  -17.4773   26.7228 C   0  0  0  0  0  0  0  0  0  0  0  0
   11.2117  -16.3846   27.5175 O   0  0  0  0  0  0  0  0  0  0  0  0
   11.1010  -18.6203   27.2110 O   0  0  0  0  0  0  0  0  0  0  0  0
  2  1  1  0
  3  2  1  0
  3 10  1  0
  4  3  2  0
  6  5  1  1
  6  7  1  0
  8  6  1  0
  9 10  1  0
  9  8  1  1
 11  9  1  0
 12 11  2  0
 14 13  1  6
 14 16  1  0
 15 14  1  0
 16 17  1  1
 16 18  1  0
 17 11  1  0
 18 19  1  0
 20 18  2  0
M  END
$$$$
