VMA.pdb
     RDKit          3D

 21 20  0  0  1  0  0  0  0  0999 V2000
    7.5772  -12.9040   20.4936 C   0  0  0  0  0  0  0  0  0  0  0  0
    8.6961  -13.8147   20.0287 C   0  0  2  0  0  0  0  0  0  0  0  0
    8.3936  -14.4330   18.6855 C   0  0  0  0  0  0  0  0  0  0  0  0
    8.9083  -14.9479   21.0136 C   0  0  2  0  0  0  0  0  0  0  0  0
    7.8248  -15.8963   20.9834 N   0  0  0  0  0  0  0  0  0  0  0  0
    9.0408  -14.4379   22.4004 C   0  0  0  0  0  0  0  0  0  0  0  0
    9.9746  -13.6607   22.7138 O   0  0  0  0  0  0  0  0  0  0  0  0
    6.0810  -10.7896   25.4898 C   0  0  0  0  0  0  0  0  0  0  0  0
    5.6968  -12.0044   26.7766 S   0  0  0  0  0  0  0  0  0  0  0  0
    6.7593  -13.4389   26.6444 C   0  0  0  0  0  0  0  0  0  0  0  0
    6.7663  -14.0834   25.3009 C   0  0  0  0  0  0  0  0  0  0  0  0
    8.1615  -14.3195   24.7678 C   0  0  2  0  0  0  0  0  0  0  0  0
    8.1137  -14.8183   23.4037 N   0  0  0  0  0  0  0  0  0  0  0  0
    8.9972  -15.1410   25.6532 C   0  0  0  0  0  0  0  0  0  0  0  0
    9.1022  -16.3855   25.4315 O   0  0  0  0  0  0  0  0  0  0  0  0
   10.9866  -14.5739   28.7894 C   0  0  0  0  0  0  0  0  0  0  0  0
   10.6554  -15.4162   27.5264 C   0  0  2  0  0  0  0  0  0  0  0  0
    9.7161  -14.6256   26.7619 N   0  0  0  0  0  0  0  0  0  0  0  0
   10.1439  -16.6847   28.0285 C   0  0  0  0  0  0  0  0  0  0  0  0
   11.0621  -17.5716   28.5875 O   0  0  0  0  0  0  0  0  0  0  0  0
    8.9481  -17.0498   28.0022 O   0  0  0  0  0  0  0  0  0  0  0  0
  2  1  1  1
  3  2  1  0
  4  2  1  0
  4  6  1  0
  4  5  1  1
  6  7  2  0
  9 10  1  0
  9  8  1  0
 10 11  1  0
 12 11  1  1
 13  6  1  0
 13 12  1  0
 14 12  1  0
 14 18  1  0
 15 14  2  0
 17 18  1  0
 17 16  1  1
 19 17  1  0
 20 19  1  0
 21 19  2  0
M  END
$$$$
