VMA.pdb
     RDKit          3D

 21 20  0  0  1  0  0  0  0  0999 V2000
    8.9042  -12.5456   20.0140 C   0  0  0  0  0  0  0  0  0  0  0  0
    7.8088  -13.5932   20.0013 C   0  0  2  0  0  0  0  0  0  0  0  0
    6.6344  -13.1859   20.8574 C   0  0  0  0  0  0  0  0  0  0  0  0
    8.3253  -14.9145   20.5367 C   0  0  2  0  0  0  0  0  0  0  0  0
    7.3248  -15.9484   20.4727 N   0  0  0  0  0  0  0  0  0  0  0  0
    8.7719  -14.7866   21.9456 C   0  0  0  0  0  0  0  0  0  0  0  0
    9.8590  -14.2276   22.2279 O   0  0  0  0  0  0  0  0  0  0  0  0
    6.6236  -10.6105   26.5340 C   0  0  0  0  0  0  0  0  0  0  0  0
    6.5498  -12.4154   26.6617 S   0  0  0  0  0  0  0  0  0  0  0  0
    7.2684  -13.1921   25.2180 C   0  0  0  0  0  0  0  0  0  0  0  0
    7.3101  -14.6807   25.2710 C   0  0  0  0  0  0  0  0  0  0  0  0
    8.3944  -15.2713   24.3980 C   0  0  2  0  0  0  0  0  0  0  0  0
    7.9785  -15.2942   23.0058 N   0  0  0  0  0  0  0  0  0  0  0  0
    8.8888  -16.5699   24.8736 C   0  0  0  0  0  0  0  0  0  0  0  0
    8.0717  -17.5272   25.0306 O   0  0  0  0  0  0  0  0  0  0  0  0
   12.1944  -18.2303   25.1516 C   0  0  0  0  0  0  0  0  0  0  0  0
   10.7186  -18.1255   25.6262 C   0  0  2  0  0  0  0  0  0  0  0  0
   10.2500  -16.8352   25.1712 N   0  0  0  0  0  0  0  0  0  0  0  0
   10.7617  -18.3025   27.0717 C   0  0  0  0  0  0  0  0  0  0  0  0
   10.3211  -17.2428   27.8623 O   0  0  0  0  0  0  0  0  0  0  0  0
   11.1610  -19.3263   27.6688 O   0  0  0  0  0  0  0  0  0  0  0  0
  2  1  1  1
  3  2  1  0
  4  2  1  0
  4  6  1  0
  4  5  1  1
  6  7  2  0
  9 10  1  0
  9  8  1  0
 10 11  1  0
 12 11  1  1
 13  6  1  0
 13 12  1  0
 14 12  1  0
 14 18  1  0
 15 14  2  0
 17 18  1  0
 17 16  1  1
 19 17  1  0
 20 19  1  0
 21 19  2  0
M  END
$$$$
