VMA.pdb
     RDKit          3D

 21 20  0  0  1  0  0  0  0  0999 V2000
    7.0920  -12.6728   20.7333 C   0  0  0  0  0  0  0  0  0  0  0  0
    8.2254  -13.3420   19.9816 C   0  0  2  0  0  0  0  0  0  0  0  0
    7.8723  -13.5825   18.5340 C   0  0  0  0  0  0  0  0  0  0  0  0
    8.5563  -14.6871   20.5985 C   0  0  2  0  0  0  0  0  0  0  0  0
    7.4782  -15.6293   20.4437 N   0  0  0  0  0  0  0  0  0  0  0  0
    8.8551  -14.5565   22.0457 C   0  0  0  0  0  0  0  0  0  0  0  0
    9.8910  -13.9678   22.4385 O   0  0  0  0  0  0  0  0  0  0  0  0
    6.1540  -10.6850   26.5557 C   0  0  0  0  0  0  0  0  0  0  0  0
    6.6284  -12.4243   26.7265 S   0  0  0  0  0  0  0  0  0  0  0  0
    6.5876  -13.2601   25.1442 C   0  0  0  0  0  0  0  0  0  0  0  0
    6.9474  -14.7052   25.1971 C   0  0  0  0  0  0  0  0  0  0  0  0
    8.2223  -15.0229   24.4487 C   0  0  2  0  0  0  0  0  0  0  0  0
    7.9749  -15.0952   23.0185 N   0  0  0  0  0  0  0  0  0  0  0  0
    8.9329  -16.1973   24.9711 C   0  0  0  0  0  0  0  0  0  0  0  0
    9.0979  -16.3187   26.2228 O   0  0  0  0  0  0  0  0  0  0  0  0
   10.2435  -19.3899   23.4831 C   0  0  0  0  0  0  0  0  0  0  0  0
   10.0573  -18.4316   24.6919 C   0  0  2  0  0  0  0  0  0  0  0  0
    9.4547  -17.2321   24.1535 N   0  0  0  0  0  0  0  0  0  0  0  0
   11.3873  -18.2629   25.2625 C   0  0  0  0  0  0  0  0  0  0  0  0
   11.9921  -19.3853   25.8252 O   0  0  0  0  0  0  0  0  0  0  0  0
   12.0373  -17.1949   25.2920 O   0  0  0  0  0  0  0  0  0  0  0  0
  2  1  1  1
  3  2  1  0
  4  2  1  0
  4  6  1  0
  4  5  1  1
  6  7  2  0
  9 10  1  0
  9  8  1  0
 10 11  1  0
 12 11  1  1
 13  6  1  0
 13 12  1  0
 14 12  1  0
 14 18  1  0
 15 14  2  0
 17 18  1  0
 17 16  1  6
 19 17  1  0
 20 19  1  0
 21 19  2  0
M  END
$$$$
