VMA.pdb
     RDKit          3D

 21 20  0  0  1  0  0  0  0  0999 V2000
    9.3600  -13.0321   19.2702 C   0  0  0  0  0  0  0  0  0  0  0  0
    7.9392  -13.5091   19.4964 C   0  0  2  0  0  0  0  0  0  0  0  0
    7.1441  -12.5282   20.3233 C   0  0  0  0  0  0  0  0  0  0  0  0
    7.9304  -14.8355   20.2311 C   0  0  2  0  0  0  0  0  0  0  0  0
    6.6023  -15.3824   20.3371 N   0  0  0  0  0  0  0  0  0  0  0  0
    8.4862  -14.6965   21.5995 C   0  0  0  0  0  0  0  0  0  0  0  0
    9.7177  -14.5398   21.7811 O   0  0  0  0  0  0  0  0  0  0  0  0
    5.5960  -11.5935   27.0069 C   0  0  0  0  0  0  0  0  0  0  0  0
    7.3154  -12.1440   27.1480 S   0  0  0  0  0  0  0  0  0  0  0  0
    7.5450  -13.7410   26.3728 C   0  0  0  0  0  0  0  0  0  0  0  0
    7.1639  -13.7917   24.9332 C   0  0  0  0  0  0  0  0  0  0  0  0
    8.1187  -14.6162   24.0996 C   0  0  2  0  0  0  0  0  0  0  0  0
    7.6365  -14.7379   22.7341 N   0  0  0  0  0  0  0  0  0  0  0  0
    8.4627  -15.9086   24.7068 C   0  0  0  0  0  0  0  0  0  0  0  0
    7.5392  -16.7359   24.9741 O   0  0  0  0  0  0  0  0  0  0  0  0
   11.3163  -18.1467   24.9357 C   0  0  0  0  0  0  0  0  0  0  0  0
   10.0989  -17.5472   25.6926 C   0  0  2  0  0  0  0  0  0  0  0  0
    9.7882  -16.3067   25.0172 N   0  0  0  0  0  0  0  0  0  0  0  0
   10.5294  -17.4155   27.0784 C   0  0  0  0  0  0  0  0  0  0  0  0
   10.7332  -18.5888   27.8022 O   0  0  0  0  0  0  0  0  0  0  0  0
   10.7332  -16.3374   27.6786 O   0  0  0  0  0  0  0  0  0  0  0  0
  2  1  1  1
  3  2  1  0
  4  2  1  0
  4  6  1  0
  4  5  1  1
  6  7  2  0
  9 10  1  0
  9  8  1  0
 10 11  1  0
 12 11  1  1
 13  6  1  0
 13 12  1  0
 14 12  1  0
 14 18  1  0
 15 14  2  0
 17 18  1  0
 17 16  1  6
 19 17  1  0
 20 19  1  0
 21 19  2  0
M  END
$$$$
