VMA.pdb
     RDKit          3D

 21 20  0  0  1  0  0  0  0  0999 V2000
    7.4981  -12.3999   20.0345 C   0  0  0  0  0  0  0  0  0  0  0  0
    8.2521  -13.4361   19.2250 C   0  0  2  0  0  0  0  0  0  0  0  0
    7.6300  -13.6464   17.8660 C   0  0  0  0  0  0  0  0  0  0  0  0
    8.2528  -14.7749   19.9370 C   0  0  2  0  0  0  0  0  0  0  0  0
    6.9479  -15.3843   19.9373 N   0  0  0  0  0  0  0  0  0  0  0  0
    8.7010  -14.6358   21.3443 C   0  0  0  0  0  0  0  0  0  0  0  0
    9.9060  -14.4175   21.6174 O   0  0  0  0  0  0  0  0  0  0  0  0
    6.9156  -11.8001   28.3619 C   0  0  0  0  0  0  0  0  0  0  0  0
    6.2724  -12.3383   26.7569 S   0  0  0  0  0  0  0  0  0  0  0  0
    7.4359  -13.4156   25.9265 C   0  0  0  0  0  0  0  0  0  0  0  0
    7.0470  -13.7964   24.5394 C   0  0  0  0  0  0  0  0  0  0  0  0
    8.1363  -14.5471   23.8070 C   0  0  2  0  0  0  0  0  0  0  0  0
    7.7760  -14.7468   22.4134 N   0  0  0  0  0  0  0  0  0  0  0  0
    8.5494  -15.7860   24.4790 C   0  0  0  0  0  0  0  0  0  0  0  0
    7.6886  -16.6911   24.6994 O   0  0  0  0  0  0  0  0  0  0  0  0
   11.6970  -17.5930   25.0760 C   0  0  0  0  0  0  0  0  0  0  0  0
   10.2610  -17.2708   25.5744 C   0  0  2  0  0  0  0  0  0  0  0  0
    9.8770  -16.0485   24.9035 N   0  0  0  0  0  0  0  0  0  0  0  0
   10.3636  -17.1838   27.0252 C   0  0  0  0  0  0  0  0  0  0  0  0
   10.7353  -18.3372   27.7133 O   0  0  0  0  0  0  0  0  0  0  0  0
   10.1467  -16.1607   27.7108 O   0  0  0  0  0  0  0  0  0  0  0  0
  2  1  1  1
  3  2  1  0
  4  2  1  0
  4  6  1  0
  4  5  1  1
  6  7  2  0
  9 10  1  0
  9  8  1  0
 10 11  1  0
 12 11  1  1
 13  6  1  0
 13 12  1  0
 14 12  1  0
 14 18  1  0
 15 14  2  0
 17 18  1  0
 17 16  1  6
 19 17  1  0
 20 19  1  0
 21 19  2  0
M  END
$$$$
