VMA.pdb
     RDKit          3D

 21 20  0  0  1  0  0  0  0  0999 V2000
    7.6252  -12.3673   20.1475 C   0  0  0  0  0  0  0  0  0  0  0  0
    8.3459  -13.4155   19.3232 C   0  0  2  0  0  0  0  0  0  0  0  0
    7.7060  -13.6001   17.9688 C   0  0  0  0  0  0  0  0  0  0  0  0
    8.3205  -14.7593   20.0252 C   0  0  2  0  0  0  0  0  0  0  0  0
    7.0100  -15.3560   19.9965 N   0  0  0  0  0  0  0  0  0  0  0  0
    8.7433  -14.6346   21.4417 C   0  0  0  0  0  0  0  0  0  0  0  0
    9.9339  -14.3713   21.7371 O   0  0  0  0  0  0  0  0  0  0  0  0
    7.3175  -12.0926   28.5022 C   0  0  0  0  0  0  0  0  0  0  0  0
    6.8530  -12.2333   26.7576 S   0  0  0  0  0  0  0  0  0  0  0  0
    7.2808  -13.8448   26.1064 C   0  0  0  0  0  0  0  0  0  0  0  0
    6.9937  -14.0231   24.6551 C   0  0  0  0  0  0  0  0  0  0  0  0
    8.1462  -14.6440   23.8984 C   0  0  2  0  0  0  0  0  0  0  0  0
    7.8097  -14.8107   22.4945 N   0  0  0  0  0  0  0  0  0  0  0  0
    8.6615  -15.8721   24.5175 C   0  0  0  0  0  0  0  0  0  0  0  0
    7.8748  -16.8475   24.7136 O   0  0  0  0  0  0  0  0  0  0  0  0
   12.0097  -17.3511   25.1096 C   0  0  0  0  0  0  0  0  0  0  0  0
   10.5061  -17.2782   25.4946 C   0  0  2  0  0  0  0  0  0  0  0  0
   10.0113  -16.0487   24.9158 N   0  0  0  0  0  0  0  0  0  0  0  0
   10.4740  -17.3432   26.9498 C   0  0  0  0  0  0  0  0  0  0  0  0
   10.8967  -18.5280   27.5496 O   0  0  0  0  0  0  0  0  0  0  0  0
   10.0990  -16.4253   27.7120 O   0  0  0  0  0  0  0  0  0  0  0  0
  2  1  1  1
  3  2  1  0
  4  2  1  0
  4  6  1  0
  4  5  1  1
  6  7  2  0
  9 10  1  0
  9  8  1  0
 10 11  1  0
 12 11  1  1
 13  6  1  0
 13 12  1  0
 14 12  1  0
 14 18  1  0
 15 14  2  0
 17 18  1  0
 17 16  1  1
 19 17  1  0
 20 19  1  0
 21 19  2  0
M  END
$$$$
