VMA.pdb
     RDKit          3D

 21 20  0  0  1  0  0  0  0  0999 V2000
    8.8363  -15.5383   19.3705 C   0  0  0  0  0  0  0  0  0  0  0  0
    7.4653  -14.9079   19.5134 C   0  0  2  0  0  0  0  0  0  0  0  0
    6.8100  -14.6827   18.1725 C   0  0  0  0  0  0  0  0  0  0  0  0
    7.5645  -13.5611   20.2031 C   0  0  2  0  0  0  0  0  0  0  0  0
    8.2986  -12.6059   19.4139 N   0  0  0  0  0  0  0  0  0  0  0  0
    8.2287  -13.6807   21.5242 C   0  0  0  0  0  0  0  0  0  0  0  0
    9.4602  -13.4740   21.6464 O   0  0  0  0  0  0  0  0  0  0  0  0
    7.2927  -11.4097   27.8008 C   0  0  0  0  0  0  0  0  0  0  0  0
    6.0128  -11.9524   26.6404 S   0  0  0  0  0  0  0  0  0  0  0  0
    6.7358  -12.5146   25.1025 C   0  0  0  0  0  0  0  0  0  0  0  0
    7.1332  -13.9507   25.0929 C   0  0  0  0  0  0  0  0  0  0  0  0
    8.0928  -14.2891   23.9743 C   0  0  2  0  0  0  0  0  0  0  0  0
    7.4852  -14.0318   22.6795 N   0  0  0  0  0  0  0  0  0  0  0  0
    8.6703  -15.6351   24.0830 C   0  0  0  0  0  0  0  0  0  0  0  0
    7.9292  -16.6471   23.8945 O   0  0  0  0  0  0  0  0  0  0  0  0
   12.1100  -17.0623   24.2076 C   0  0  0  0  0  0  0  0  0  0  0  0
   10.5864  -17.2208   24.4682 C   0  0  2  0  0  0  0  0  0  0  0  0
   10.0327  -15.8873   24.3861 N   0  0  0  0  0  0  0  0  0  0  0  0
   10.4799  -17.8644   25.7711 C   0  0  0  0  0  0  0  0  0  0  0  0
   11.0744  -19.1160   25.9199 O   0  0  0  0  0  0  0  0  0  0  0  0
    9.8995  -17.3907   26.7724 O   0  0  0  0  0  0  0  0  0  0  0  0
  2  1  1  6
  3  2  1  0
  4  2  1  0
  4  6  1  0
  4  5  1  6
  6  7  2  0
  9 10  1  0
  9  8  1  0
 10 11  1  0
 12 11  1  1
 13  6  1  0
 13 12  1  0
 14 12  1  0
 14 18  1  0
 15 14  2  0
 17 18  1  0
 17 16  1  1
 19 17  1  0
 20 19  1  0
 21 19  2  0
M  END
$$$$
