VMA.pdb
     RDKit          3D

 21 20  0  0  1  0  0  0  0  0999 V2000
    8.2723  -18.3917   20.3901 C   0  0  0  0  0  0  0  0  0  0  0  0
    7.1308  -17.4466   20.0721 C   0  0  2  0  0  0  0  0  0  0  0  0
    6.4477  -17.8096   18.7761 C   0  0  0  0  0  0  0  0  0  0  0  0
    7.6360  -16.0234   19.9368 C   0  0  2  0  0  0  0  0  0  0  0  0
    8.6031  -15.8946   18.8775 N   0  0  0  0  0  0  0  0  0  0  0  0
    8.2614  -15.5523   21.1969 C   0  0  0  0  0  0  0  0  0  0  0  0
    9.4848  -15.7278   21.4129 O   0  0  0  0  0  0  0  0  0  0  0  0
    7.1752  -11.4958   27.9707 C   0  0  0  0  0  0  0  0  0  0  0  0
    6.4152  -12.0952   26.4401 S   0  0  0  0  0  0  0  0  0  0  0  0
    7.5287  -13.1784   25.5508 C   0  0  0  0  0  0  0  0  0  0  0  0
    7.0326  -13.6165   24.2157 C   0  0  0  0  0  0  0  0  0  0  0  0
    8.0153  -14.5023   23.4836 C   0  0  2  0  0  0  0  0  0  0  0  0
    7.4891  -14.8924   22.1863 N   0  0  0  0  0  0  0  0  0  0  0  0
    8.4857  -15.6422   24.2814 C   0  0  0  0  0  0  0  0  0  0  0  0
    7.6614  -16.5422   24.6270 O   0  0  0  0  0  0  0  0  0  0  0  0
   11.7365  -17.2510   24.8643 C   0  0  0  0  0  0  0  0  0  0  0  0
   10.2965  -16.9946   25.3888 C   0  0  2  0  0  0  0  0  0  0  0  0
    9.8309  -15.8128   24.6973 N   0  0  0  0  0  0  0  0  0  0  0  0
   10.4269  -16.8644   26.8341 C   0  0  0  0  0  0  0  0  0  0  0  0
   10.0245  -15.6607   27.4097 O   0  0  0  0  0  0  0  0  0  0  0  0
   10.8701  -17.7415   27.6076 O   0  0  0  0  0  0  0  0  0  0  0  0
  2  1  1  6
  3  2  1  0
  4  2  1  0
  4  6  1  0
  4  5  1  6
  6  7  2  0
  9 10  1  0
  9  8  1  0
 10 11  1  0
 12 11  1  1
 13  6  1  0
 13 12  1  0
 14 12  1  0
 14 18  1  0
 15 14  2  0
 17 18  1  0
 17 16  1  6
 19 17  1  0
 20 19  1  0
 21 19  2  0
M  END
$$$$
