VMA.pdb
     RDKit          3D

 21 20  0  0  1  0  0  0  0  0999 V2000
    7.4722  -12.6054   20.0227 C   0  0  0  0  0  0  0  0  0  0  0  0
    8.4212  -13.5543   19.3181 C   0  0  2  0  0  0  0  0  0  0  0  0
    7.9128  -13.9423   17.9510 C   0  0  0  0  0  0  0  0  0  0  0  0
    8.5939  -14.8308   20.1182 C   0  0  2  0  0  0  0  0  0  0  0  0
    7.4066  -15.6454   20.0936 N   0  0  0  0  0  0  0  0  0  0  0  0
    8.9271  -14.5377   21.5338 C   0  0  0  0  0  0  0  0  0  0  0  0
   10.0082  -13.9785   21.8380 O   0  0  0  0  0  0  0  0  0  0  0  0
    7.4141  -11.5059   28.0974 C   0  0  0  0  0  0  0  0  0  0  0  0
    6.4885  -12.5836   26.9743 S   0  0  0  0  0  0  0  0  0  0  0  0
    7.5787  -13.7355   26.1446 C   0  0  0  0  0  0  0  0  0  0  0  0
    7.2885  -13.9299   24.6960 C   0  0  0  0  0  0  0  0  0  0  0  0
    8.3485  -14.7420   23.9864 C   0  0  2  0  0  0  0  0  0  0  0  0
    8.0296  -14.8839   22.5758 N   0  0  0  0  0  0  0  0  0  0  0  0
    8.6444  -16.0223   24.6424 C   0  0  0  0  0  0  0  0  0  0  0  0
    7.7064  -16.8541   24.8350 O   0  0  0  0  0  0  0  0  0  0  0  0
   11.5652  -18.1591   25.0957 C   0  0  0  0  0  0  0  0  0  0  0  0
   10.2142  -17.6827   25.6975 C   0  0  2  0  0  0  0  0  0  0  0  0
    9.9382  -16.4040   25.0807 N   0  0  0  0  0  0  0  0  0  0  0  0
   10.4207  -17.6514   27.1395 C   0  0  0  0  0  0  0  0  0  0  0  0
   10.6745  -18.8634   27.7787 O   0  0  0  0  0  0  0  0  0  0  0  0
   10.3901  -16.6281   27.8578 O   0  0  0  0  0  0  0  0  0  0  0  0
  2  1  1  1
  3  2  1  0
  4  2  1  0
  4  6  1  0
  4  5  1  1
  6  7  2  0
  9 10  1  0
  9  8  1  0
 10 11  1  0
 12 11  1  1
 13  6  1  0
 13 12  1  0
 14 12  1  0
 14 18  1  0
 15 14  2  0
 17 18  1  0
 17 16  1  6
 19 17  1  0
 20 19  1  0
 21 19  2  0
M  END
$$$$
