VMA.pdb
     RDKit          3D

 21 20  0  0  1  0  0  0  0  0999 V2000
    6.8077  -18.8076   21.6633 C   0  0  0  0  0  0  0  0  0  0  0  0
    5.5569  -18.1203   22.1737 C   0  0  2  0  0  0  0  0  0  0  0  0
    4.3121  -18.6588   21.5115 C   0  0  0  0  0  0  0  0  0  0  0  0
    5.6125  -16.6309   21.8944 C   0  0  2  0  0  0  0  0  0  0  0  0
    5.6629  -16.3502   20.4827 N   0  0  0  0  0  0  0  0  0  0  0  0
    6.7965  -16.0072   22.5347 C   0  0  0  0  0  0  0  0  0  0  0  0
    7.8670  -15.8552   21.8984 O   0  0  0  0  0  0  0  0  0  0  0  0
    7.5694  -11.6658   27.7705 C   0  0  0  0  0  0  0  0  0  0  0  0
    6.2528  -11.8114   26.5357 S   0  0  0  0  0  0  0  0  0  0  0  0
    6.6999  -12.9779   25.2537 C   0  0  0  0  0  0  0  0  0  0  0  0
    7.4786  -14.1553   25.7311 C   0  0  0  0  0  0  0  0  0  0  0  0
    7.9023  -15.0759   24.6088 C   0  0  2  0  0  0  0  0  0  0  0  0
    6.7441  -15.5685   23.8823 N   0  0  0  0  0  0  0  0  0  0  0  0
    8.8113  -16.1463   25.0389 C   0  0  0  0  0  0  0  0  0  0  0  0
    8.3531  -17.1184   25.7127 O   0  0  0  0  0  0  0  0  0  0  0  0
   12.4131  -17.0184   24.4206 C   0  0  0  0  0  0  0  0  0  0  0  0
   11.0803  -17.2246   25.1922 C   0  0  2  0  0  0  0  0  0  0  0  0
   10.1978  -16.1714   24.7410 N   0  0  0  0  0  0  0  0  0  0  0  0
   11.4378  -17.1806   26.6040 C   0  0  0  0  0  0  0  0  0  0  0  0
   12.3189  -18.1525   27.0743 O   0  0  0  0  0  0  0  0  0  0  0  0
   11.0220  -16.3438   27.4352 O   0  0  0  0  0  0  0  0  0  0  0  0
  2  1  1  6
  3  2  1  0
  4  2  1  0
  4  6  1  0
  4  5  1  6
  6  7  2  0
  9 10  1  0
  9  8  1  0
 10 11  1  0
 12 11  1  1
 13  6  1  0
 13 12  1  0
 14 12  1  0
 14 18  1  0
 15 14  2  0
 17 18  1  0
 17 16  1  6
 19 17  1  0
 20 19  1  0
 21 19  2  0
M  END
$$$$
