VMA.pdb
     RDKit          3D

 21 20  0  0  1  0  0  0  0  0999 V2000
    7.1908  -16.7960   18.4820 C   0  0  0  0  0  0  0  0  0  0  0  0
    8.1642  -16.1219   19.4283 C   0  0  2  0  0  0  0  0  0  0  0  0
    9.5253  -15.9464   18.8002 C   0  0  0  0  0  0  0  0  0  0  0  0
    8.3470  -16.9483   20.6865 C   0  0  2  0  0  0  0  0  0  0  0  0
    7.1135  -17.5563   21.1141 N   0  0  0  0  0  0  0  0  0  0  0  0
    8.8688  -16.1215   21.8023 C   0  0  0  0  0  0  0  0  0  0  0  0
   10.0069  -15.5975   21.7374 O   0  0  0  0  0  0  0  0  0  0  0  0
    6.8370  -11.5867   27.9590 C   0  0  0  0  0  0  0  0  0  0  0  0
    6.2784  -12.7137   26.6563 S   0  0  0  0  0  0  0  0  0  0  0  0
    7.6670  -13.5158   25.8610 C   0  0  0  0  0  0  0  0  0  0  0  0
    7.3030  -14.3845   24.7063 C   0  0  0  0  0  0  0  0  0  0  0  0
    8.5040  -15.0315   24.0540 C   0  0  2  0  0  0  0  0  0  0  0  0
    8.0916  -15.9052   22.9685 N   0  0  0  0  0  0  0  0  0  0  0  0
    9.4093  -15.6852   25.0081 C   0  0  0  0  0  0  0  0  0  0  0  0
    9.9239  -15.0027   25.9452 O   0  0  0  0  0  0  0  0  0  0  0  0
   12.0163  -17.6181   25.4926 C   0  0  0  0  0  0  0  0  0  0  0  0
   10.5425  -17.7136   25.9754 C   0  0  2  0  0  0  0  0  0  0  0  0
    9.7517  -17.0606   24.9557 N   0  0  0  0  0  0  0  0  0  0  0  0
   10.5213  -17.0791   27.2869 C   0  0  0  0  0  0  0  0  0  0  0  0
   11.2855  -17.6630   28.2955 O   0  0  0  0  0  0  0  0  0  0  0  0
    9.8751  -16.0519   27.5890 O   0  0  0  0  0  0  0  0  0  0  0  0
  2  1  1  6
  3  2  1  0
  4  2  1  0
  4  6  1  0
  4  5  1  1
  6  7  2  0
  9 10  1  0
  9  8  1  0
 10 11  1  0
 12 11  1  1
 13  6  1  0
 13 12  1  0
 14 12  1  0
 14 18  1  0
 15 14  2  0
 17 18  1  0
 17 16  1  6
 19 17  1  0
 20 19  1  0
 21 19  2  0
M  END
$$$$
