VMA.pdb
     RDKit          3D

 21 20  0  0  1  0  0  0  0  0999 V2000
    6.6764  -17.4124   18.6301 C   0  0  0  0  0  0  0  0  0  0  0  0
    7.2147  -16.3377   19.5535 C   0  0  2  0  0  0  0  0  0  0  0  0
    8.3613  -15.5829   18.9260 C   0  0  0  0  0  0  0  0  0  0  0  0
    7.7242  -16.9474   20.8450 C   0  0  2  0  0  0  0  0  0  0  0  0
    6.6941  -17.6774   21.5379 N   0  0  0  0  0  0  0  0  0  0  0  0
    8.2517  -15.9060   21.7604 C   0  0  0  0  0  0  0  0  0  0  0  0
    9.2250  -15.1883   21.4262 O   0  0  0  0  0  0  0  0  0  0  0  0
    6.5670  -10.8235   27.5117 C   0  0  0  0  0  0  0  0  0  0  0  0
    6.0089  -12.2742   26.5826 S   0  0  0  0  0  0  0  0  0  0  0  0
    7.3607  -13.0130   25.6711 C   0  0  0  0  0  0  0  0  0  0  0  0
    6.9598  -14.1171   24.7542 C   0  0  0  0  0  0  0  0  0  0  0  0
    8.1219  -14.6823   23.9690 C   0  0  2  0  0  0  0  0  0  0  0  0
    7.6664  -15.6986   23.0354 N   0  0  0  0  0  0  0  0  0  0  0  0
    9.2370  -15.1323   24.8123 C   0  0  0  0  0  0  0  0  0  0  0  0
    9.6608  -14.3766   25.7387 O   0  0  0  0  0  0  0  0  0  0  0  0
   10.5002  -18.0610   26.2561 C   0  0  0  0  0  0  0  0  0  0  0  0
   10.9937  -16.8017   25.4912 C   0  0  2  0  0  0  0  0  0  0  0  0
    9.8842  -16.3853   24.6622 N   0  0  0  0  0  0  0  0  0  0  0  0
   12.1879  -17.2267   24.7728 C   0  0  0  0  0  0  0  0  0  0  0  0
   12.1195  -17.2700   23.3815 O   0  0  0  0  0  0  0  0  0  0  0  0
   13.2742  -17.5576   25.2967 O   0  0  0  0  0  0  0  0  0  0  0  0
  2  1  1  6
  3  2  1  0
  4  2  1  0
  4  6  1  0
  4  5  1  1
  6  7  2  0
  9 10  1  0
  9  8  1  0
 10 11  1  0
 12 11  1  1
 13  6  1  0
 13 12  1  0
 14 12  1  0
 14 18  1  0
 15 14  2  0
 17 18  1  0
 17 16  1  6
 19 17  1  0
 20 19  1  0
 21 19  2  0
M  END
$$$$
