VMA.pdb
     RDKit          3D

 21 20  0  0  1  0  0  0  0  0999 V2000
    5.3086  -21.8176   23.2277 C   0  0  0  0  0  0  0  0  0  0  0  0
    6.2096  -20.5996   23.1829 C   0  0  2  0  0  0  0  0  0  0  0  0
    7.0471  -20.4763   24.4325 C   0  0  0  0  0  0  0  0  0  0  0  0
    5.3888  -19.3307   23.0585 C   0  0  2  0  0  0  0  0  0  0  0  0
    4.6602  -19.2814   21.8172 N   0  0  0  0  0  0  0  0  0  0  0  0
    6.2476  -18.1239   23.1415 C   0  0  0  0  0  0  0  0  0  0  0  0
    6.9961  -17.7999   22.1882 O   0  0  0  0  0  0  0  0  0  0  0  0
    7.8011  -11.3169   26.9059 C   0  0  0  0  0  0  0  0  0  0  0  0
    6.7411  -12.7826   26.8192 S   0  0  0  0  0  0  0  0  0  0  0  0
    7.4023  -13.9874   25.6724 C   0  0  0  0  0  0  0  0  0  0  0  0
    6.5361  -15.1810   25.4595 C   0  0  0  0  0  0  0  0  0  0  0  0
    7.1315  -16.1755   24.4884 C   0  0  2  0  0  0  0  0  0  0  0  0
    6.2413  -17.3089   24.3020 N   0  0  0  0  0  0  0  0  0  0  0  0
    8.5062  -16.5708   24.8218 C   0  0  0  0  0  0  0  0  0  0  0  0
    8.7180  -17.2740   25.8560 O   0  0  0  0  0  0  0  0  0  0  0  0
   11.8768  -16.1348   23.2006 C   0  0  0  0  0  0  0  0  0  0  0  0
   10.9610  -16.7481   24.2957 C   0  0  2  0  0  0  0  0  0  0  0  0
    9.6394  -16.2166   24.0458 N   0  0  0  0  0  0  0  0  0  0  0  0
   11.5619  -16.3621   25.5657 C   0  0  0  0  0  0  0  0  0  0  0  0
   12.8135  -16.8930   25.8720 O   0  0  0  0  0  0  0  0  0  0  0  0
   11.0514  -15.5928   26.4092 O   0  0  0  0  0  0  0  0  0  0  0  0
  2  1  1  1
  3  2  1  0
  4  2  1  0
  4  6  1  0
  4  5  1  6
  6  7  2  0
  9 10  1  0
  9  8  1  0
 10 11  1  0
 12 11  1  1
 13  6  1  0
 13 12  1  0
 14 12  1  0
 14 18  1  0
 15 14  2  0
 17 18  1  0
 17 16  1  6
 19 17  1  0
 20 19  1  0
 21 19  2  0
M  END
$$$$
