VMA.pdb
     RDKit          3D

 21 20  0  0  1  0  0  0  0  0999 V2000
    9.4416  -18.0936   21.0845 C   0  0  0  0  0  0  0  0  0  0  0  0
    8.1048  -17.4075   20.8854 C   0  0  2  0  0  0  0  0  0  0  0  0
    7.4240  -17.8643   19.6181 C   0  0  0  0  0  0  0  0  0  0  0  0
    8.2833  -15.9048   20.7896 C   0  0  2  0  0  0  0  0  0  0  0  0
    9.2211  -15.5395   19.7595 N   0  0  0  0  0  0  0  0  0  0  0  0
    8.7596  -15.3364   22.0744 C   0  0  0  0  0  0  0  0  0  0  0  0
    9.9713  -15.0598   22.2459 O   0  0  0  0  0  0  0  0  0  0  0  0
    6.4021  -10.5444   26.9411 C   0  0  0  0  0  0  0  0  0  0  0  0
    6.1689  -12.3209   27.2039 S   0  0  0  0  0  0  0  0  0  0  0  0
    7.4730  -13.2634   26.4196 C   0  0  0  0  0  0  0  0  0  0  0  0
    7.1020  -13.8607   25.1058 C   0  0  0  0  0  0  0  0  0  0  0  0
    8.2601  -14.5569   24.4270 C   0  0  2  0  0  0  0  0  0  0  0  0
    7.8545  -15.0930   23.1386 N   0  0  0  0  0  0  0  0  0  0  0  0
    8.9303  -15.5481   25.2788 C   0  0  0  0  0  0  0  0  0  0  0  0
    9.2809  -15.2233   26.4538 O   0  0  0  0  0  0  0  0  0  0  0  0
    9.9029  -19.1679   24.9173 C   0  0  0  0  0  0  0  0  0  0  0  0
    9.8162  -17.8569   25.7467 C   0  0  2  0  0  0  0  0  0  0  0  0
    9.2143  -16.8764   24.8705 N   0  0  0  0  0  0  0  0  0  0  0  0
   11.1825  -17.5698   26.1637 C   0  0  0  0  0  0  0  0  0  0  0  0
   11.7861  -18.4635   27.0463 O   0  0  0  0  0  0  0  0  0  0  0  0
   11.8647  -16.5876   25.7978 O   0  0  0  0  0  0  0  0  0  0  0  0
  2  1  1  6
  3  2  1  0
  4  2  1  0
  4  6  1  0
  4  5  1  6
  6  7  2  0
  9 10  1  0
  9  8  1  0
 10 11  1  0
 12 11  1  1
 13  6  1  0
 13 12  1  0
 14 12  1  0
 14 18  1  0
 15 14  2  0
 17 18  1  0
 17 16  1  6
 19 17  1  0
 20 19  1  0
 21 19  2  0
M  END
$$$$
