KGQ.pdb
     RDKit          3D

 23 22  0  0  1  0  0  0  0  0999 V2000
   14.6431   -6.5782  -10.1633 N   0  0  0  0  0  0  0  0  0  0  0  0
   14.8649   -7.6044   -9.1925 C   0  0  1  0  0  0  0  0  0  0  0  0
   13.6956   -8.5515   -9.0432 C   0  0  0  0  0  0  0  0  0  0  0  0
   12.4626   -7.8320   -8.5320 C   0  0  0  0  0  0  0  0  0  0  0  0
   11.2859   -8.7467   -8.4180 C   0  0  0  0  0  0  0  0  0  0  0  0
   10.0749   -8.0689   -7.8165 C   0  0  0  0  0  0  0  0  0  0  0  0
    8.9274   -8.9183   -7.7323 N   0  0  0  0  0  0  0  0  0  0  0  0
   16.1343   -8.3343   -9.3941 C   0  0  0  0  0  0  0  0  0  0  0  0
   16.4876   -9.1533   -8.5071 O   0  0  0  0  0  0  0  0  0  0  0  0
   16.8883   -8.0769  -10.5720 N   0  0  0  0  0  0  0  0  0  0  0  0
   18.0282   -8.9175  -10.8711 C   0  0  0  0  0  0  0  0  0  0  0  0
   18.5949   -8.4953  -12.1676 C   0  0  0  0  0  0  0  0  0  0  0  0
   18.0240   -7.6318  -12.8669 O   0  0  0  0  0  0  0  0  0  0  0  0
   24.3163  -10.3501  -14.3654 N   0  0  0  0  0  0  0  0  0  0  0  0
   23.8695   -9.4805  -15.4531 C   0  0  0  0  0  0  0  0  0  0  0  0
   24.6480   -9.3148  -16.4040 O   0  0  0  0  0  0  0  0  0  0  0  0
   22.5296   -8.9089  -15.2669 C   0  0  0  0  0  0  0  0  0  0  0  0
   21.7844   -9.2385  -14.0383 C   0  0  0  0  0  0  0  0  0  0  0  0
   20.3993   -8.7050  -13.8934 C   0  0  2  0  0  0  0  0  0  0  0  0
   19.7945   -9.0645  -12.6359 N   0  0  0  0  0  0  0  0  0  0  0  0
   19.5300   -8.8023  -15.0657 C   0  0  0  0  0  0  0  0  0  0  0  0
   18.7919   -9.7967  -15.2154 O   0  0  0  0  0  0  0  0  0  0  0  0
   19.5169   -7.8052  -16.0095 O   0  0  0  0  0  0  0  0  0  0  0  0
  2  1  1  6
  3  2  1  0
  4  3  1  0
  5  4  1  0
  6  5  1  0
  7  6  1  0
  8  2  1  0
  8 10  1  0
  9  8  2  0
 11 10  1  0
 12 11  1  0
 13 12  2  0
 15 14  1  0
 16 15  2  0
 17 15  1  0
 18 17  1  0
 19 18  1  6
 19 20  1  0
 20 12  1  0
 21 23  1  0
 21 19  1  0
 22 21  2  0
M  END
$$$$
