KGQ.pdb
     RDKit          3D

 23 22  0  0  1  0  0  0  0  0999 V2000
   20.0229  -13.3119  -16.2614 N   0  0  0  0  0  0  0  0  0  0  0  0
   19.2736  -12.1895  -16.7344 C   0  0  1  0  0  0  0  0  0  0  0  0
   17.9836  -12.5764  -17.4220 C   0  0  0  0  0  0  0  0  0  0  0  0
   18.1916  -13.7365  -18.3762 C   0  0  0  0  0  0  0  0  0  0  0  0
   16.9316  -14.1103  -19.0881 C   0  0  0  0  0  0  0  0  0  0  0  0
   17.1160  -15.2830  -20.0254 C   0  0  0  0  0  0  0  0  0  0  0  0
   15.9467  -15.5945  -20.7879 N   0  0  0  0  0  0  0  0  0  0  0  0
   19.0506  -11.1583  -15.6992 C   0  0  0  0  0  0  0  0  0  0  0  0
   18.2991  -11.4492  -14.7333 O   0  0  0  0  0  0  0  0  0  0  0  0
   19.6917   -9.8973  -15.8448 N   0  0  0  0  0  0  0  0  0  0  0  0
   19.5077   -8.8956  -14.8160 C   0  0  0  0  0  0  0  0  0  0  0  0
   20.3444   -7.7248  -15.1466 C   0  0  0  0  0  0  0  0  0  0  0  0
   21.1121   -7.7421  -16.1320 O   0  0  0  0  0  0  0  0  0  0  0  0
   17.9925   -2.4422  -14.5204 N   0  0  0  0  0  0  0  0  0  0  0  0
   17.8126   -3.4540  -15.5611 C   0  0  0  0  0  0  0  0  0  0  0  0
   16.7355   -3.4513  -16.1756 O   0  0  0  0  0  0  0  0  0  0  0  0
   18.9576   -4.3559  -15.7404 C   0  0  0  0  0  0  0  0  0  0  0  0
   20.1353   -4.1857  -14.8701 C   0  0  0  0  0  0  0  0  0  0  0  0
   21.0233   -5.3640  -14.6527 C   0  0  2  0  0  0  0  0  0  0  0  0
   20.2876   -6.5653  -14.3498 N   0  0  0  0  0  0  0  0  0  0  0  0
   22.2296   -5.1415  -13.8559 C   0  0  0  0  0  0  0  0  0  0  0  0
   22.4214   -5.8015  -12.8150 O   0  0  0  0  0  0  0  0  0  0  0  0
   23.1594   -4.2083  -14.2430 O   0  0  0  0  0  0  0  0  0  0  0  0
  2  1  1  1
  3  2  1  0
  4  3  1  0
  5  4  1  0
  6  5  1  0
  7  6  1  0
  8  2  1  0
  8 10  1  0
  9  8  2  0
 11 10  1  0
 12 11  1  0
 13 12  2  0
 15 14  1  0
 16 15  2  0
 17 15  1  0
 18 17  1  0
 19 18  1  1
 19 20  1  0
 20 12  1  0
 21 23  1  0
 21 19  1  0
 22 21  2  0
M  END
$$$$
