KGQ.pdb
     RDKit          3D

 23 22  0  0  1  0  0  0  0  0999 V2000
   21.5265  -13.3575  -17.2942 N   0  0  0  0  0  0  0  0  0  0  0  0
   20.2819  -14.0617  -17.3061 C   0  0  1  0  0  0  0  0  0  0  0  0
   20.1922  -15.1386  -16.2484 C   0  0  0  0  0  0  0  0  0  0  0  0
   20.5671  -16.4969  -16.8087 C   0  0  0  0  0  0  0  0  0  0  0  0
   20.5212  -17.5663  -15.7654 C   0  0  0  0  0  0  0  0  0  0  0  0
   20.9967  -18.9065  -16.2809 C   0  0  0  0  0  0  0  0  0  0  0  0
   21.0335  -19.9246  -15.2772 N   0  0  0  0  0  0  0  0  0  0  0  0
   19.1051  -13.1680  -17.2742 C   0  0  0  0  0  0  0  0  0  0  0  0
   17.9651  -13.6965  -17.3326 O   0  0  0  0  0  0  0  0  0  0  0  0
   19.3176  -11.7651  -17.1800 N   0  0  0  0  0  0  0  0  0  0  0  0
   18.1751  -10.8946  -16.9997 C   0  0  0  0  0  0  0  0  0  0  0  0
   18.6587   -9.5045  -16.8810 C   0  0  0  0  0  0  0  0  0  0  0  0
   19.8716   -9.2338  -17.0090 O   0  0  0  0  0  0  0  0  0  0  0  0
   14.4580   -5.5906  -17.4449 N   0  0  0  0  0  0  0  0  0  0  0  0
   15.0337   -6.3692  -18.5410 C   0  0  0  0  0  0  0  0  0  0  0  0
   14.2709   -6.7090  -19.4578 O   0  0  0  0  0  0  0  0  0  0  0  0
   16.4687   -6.6491  -18.4036 C   0  0  0  0  0  0  0  0  0  0  0  0
   17.1729   -6.1610  -17.2038 C   0  0  0  0  0  0  0  0  0  0  0  0
   18.1478   -7.0751  -16.5420 C   0  0  2  0  0  0  0  0  0  0  0  0
   17.7529   -8.4587  -16.6201 N   0  0  0  0  0  0  0  0  0  0  0  0
   18.6869   -6.6415  -15.2532 C   0  0  0  0  0  0  0  0  0  0  0  0
   18.6192   -7.3958  -14.2620 O   0  0  0  0  0  0  0  0  0  0  0  0
   19.2703   -5.4057  -15.1209 O   0  0  0  0  0  0  0  0  0  0  0  0
  2  1  1  1
  3  2  1  0
  4  3  1  0
  5  4  1  0
  6  5  1  0
  7  6  1  0
  8  2  1  0
  8 10  1  0
  9  8  2  0
 11 10  1  0
 12 11  1  0
 13 12  2  0
 15 14  1  0
 16 15  2  0
 17 15  1  0
 18 17  1  0
 19 18  1  1
 19 20  1  0
 20 12  1  0
 21 23  1  0
 21 19  1  0
 22 21  2  0
M  END
$$$$
