KGQ.pdb
     RDKit          3D

 23 22  0  0  1  0  0  0  0  0999 V2000
   23.5254  -17.8036  -17.0112 N   0  0  0  0  0  0  0  0  0  0  0  0
   22.5612  -18.7389  -16.5209 C   0  0  1  0  0  0  0  0  0  0  0  0
   23.1678  -19.8410  -15.6816 C   0  0  0  0  0  0  0  0  0  0  0  0
   24.1401  -20.6794  -16.4885 C   0  0  0  0  0  0  0  0  0  0  0  0
   24.8603  -21.6764  -15.6390 C   0  0  0  0  0  0  0  0  0  0  0  0
   25.8995  -22.4592  -16.4105 C   0  0  0  0  0  0  0  0  0  0  0  0
   26.6684  -23.3471  -15.5945 N   0  0  0  0  0  0  0  0  0  0  0  0
   21.4212  -18.0963  -15.8339 C   0  0  0  0  0  0  0  0  0  0  0  0
   20.5428  -18.8428  -15.3304 O   0  0  0  0  0  0  0  0  0  0  0  0
   21.3735  -16.6762  -15.7762 N   0  0  0  0  0  0  0  0  0  0  0  0
   20.2735  -16.0404  -15.0824 C   0  0  0  0  0  0  0  0  0  0  0  0
   19.9414  -14.7834  -15.7825 C   0  0  0  0  0  0  0  0  0  0  0  0
   20.7308  -14.2823  -16.6109 O   0  0  0  0  0  0  0  0  0  0  0  0
   14.5380  -12.8871  -14.6340 N   0  0  0  0  0  0  0  0  0  0  0  0
   14.7621  -14.0204  -15.5310 C   0  0  0  0  0  0  0  0  0  0  0  0
   13.9176  -14.9285  -15.5205 O   0  0  0  0  0  0  0  0  0  0  0  0
   15.9842  -13.9269  -16.3397 C   0  0  0  0  0  0  0  0  0  0  0  0
   16.8370  -12.7327  -16.1974 C   0  0  0  0  0  0  0  0  0  0  0  0
   18.3162  -12.9225  -16.1994 C   0  0  2  0  0  0  0  0  0  0  0  0
   18.7221  -14.1287  -15.5236 N   0  0  0  0  0  0  0  0  0  0  0  0
   19.1325  -11.7391  -15.9292 C   0  0  0  0  0  0  0  0  0  0  0  0
   19.7312  -11.6284  -14.8405 O   0  0  0  0  0  0  0  0  0  0  0  0
   19.2479  -10.7422  -16.8662 O   0  0  0  0  0  0  0  0  0  0  0  0
  2  1  1  1
  3  2  1  0
  4  3  1  0
  5  4  1  0
  6  5  1  0
  7  6  1  0
  8  2  1  0
  8 10  1  0
  9  8  2  0
 11 10  1  0
 12 11  1  0
 13 12  2  0
 15 14  1  0
 16 15  2  0
 17 15  1  0
 18 17  1  0
 19 18  1  1
 19 20  1  0
 20 12  1  0
 21 23  1  0
 21 19  1  0
 22 21  2  0
M  END
$$$$
