KGQ.pdb
     RDKit          3D

 23 22  0  0  1  0  0  0  0  0999 V2000
   27.4370  -17.6650  -14.8283 N   0  0  0  0  0  0  0  0  0  0  0  0
   27.2268  -17.0179  -16.0860 C   0  0  1  0  0  0  0  0  0  0  0  0
   27.8381  -17.7612  -17.2524 C   0  0  0  0  0  0  0  0  0  0  0  0
   27.8730  -19.2559  -16.9989 C   0  0  0  0  0  0  0  0  0  0  0  0
   28.4804  -20.0047  -18.1411 C   0  0  0  0  0  0  0  0  0  0  0  0
   28.3761  -21.5048  -17.9778 C   0  0  0  0  0  0  0  0  0  0  0  0
   28.9258  -22.2388  -19.0753 N   0  0  0  0  0  0  0  0  0  0  0  0
   25.8105  -16.6789  -16.3387 C   0  0  0  0  0  0  0  0  0  0  0  0
   25.5402  -16.0235  -17.3778 O   0  0  0  0  0  0  0  0  0  0  0  0
   24.8301  -17.1070  -15.4017 N   0  0  0  0  0  0  0  0  0  0  0  0
   23.4425  -16.7677  -15.6363 C   0  0  0  0  0  0  0  0  0  0  0  0
   22.7955  -17.8962  -16.3349 C   0  0  0  0  0  0  0  0  0  0  0  0
   23.4545  -18.8994  -16.6813 O   0  0  0  0  0  0  0  0  0  0  0  0
   17.1448  -20.5097  -16.1958 N   0  0  0  0  0  0  0  0  0  0  0  0
   17.6907  -19.5976  -15.1913 C   0  0  0  0  0  0  0  0  0  0  0  0
   17.1556  -19.5990  -14.0726 O   0  0  0  0  0  0  0  0  0  0  0  0
   18.8232  -18.7857  -15.6547 C   0  0  0  0  0  0  0  0  0  0  0  0
   19.2648  -18.9213  -17.0548 C   0  0  0  0  0  0  0  0  0  0  0  0
   20.7298  -18.9036  -17.3332 C   0  0  2  0  0  0  0  0  0  0  0  0
   21.4176  -17.8561  -16.6218 N   0  0  0  0  0  0  0  0  0  0  0  0
   21.1383  -19.0992  -18.7241 C   0  0  0  0  0  0  0  0  0  0  0  0
   20.8789  -20.1713  -19.3066 O   0  0  0  0  0  0  0  0  0  0  0  0
   21.8086  -18.1100  -19.4003 O   0  0  0  0  0  0  0  0  0  0  0  0
  2  1  1  1
  3  2  1  0
  4  3  1  0
  5  4  1  0
  6  5  1  0
  7  6  1  0
  8  2  1  0
  8 10  1  0
  9  8  2  0
 11 10  1  0
 12 11  1  0
 13 12  2  0
 15 14  1  0
 16 15  2  0
 17 15  1  0
 18 17  1  0
 19 18  1  6
 19 20  1  0
 20 12  1  0
 21 23  1  0
 21 19  1  0
 22 21  2  0
M  END
$$$$
