KGQ.pdb
     RDKit          3D

 23 22  0  0  1  0  0  0  0  0999 V2000
   22.3747  -18.2722  -18.3248 N   0  0  0  0  0  0  0  0  0  0  0  0
   21.1102  -18.7044  -17.8157 C   0  0  1  0  0  0  0  0  0  0  0  0
   20.2979  -19.4928  -18.8183 C   0  0  0  0  0  0  0  0  0  0  0  0
   19.1516  -18.6688  -19.3720 C   0  0  0  0  0  0  0  0  0  0  0  0
   17.9131  -18.8041  -18.5461 C   0  0  0  0  0  0  0  0  0  0  0  0
   16.7482  -18.0191  -19.1070 C   0  0  0  0  0  0  0  0  0  0  0  0
   15.5358  -18.1886  -18.3673 N   0  0  0  0  0  0  0  0  0  0  0  0
   21.2126  -19.4113  -16.5217 C   0  0  0  0  0  0  0  0  0  0  0  0
   20.1497  -19.8334  -15.9978 O   0  0  0  0  0  0  0  0  0  0  0  0
   22.4979  -19.5784  -15.9367 N   0  0  0  0  0  0  0  0  0  0  0  0
   22.6043  -20.2586  -14.6632 C   0  0  0  0  0  0  0  0  0  0  0  0
   24.0282  -20.3069  -14.2750 C   0  0  0  0  0  0  0  0  0  0  0  0
   24.9172  -19.8786  -15.0410 O   0  0  0  0  0  0  0  0  0  0  0  0
   25.5792  -21.0734   -8.1660 N   0  0  0  0  0  0  0  0  0  0  0  0
   26.8745  -20.6766   -8.7172 C   0  0  0  0  0  0  0  0  0  0  0  0
   27.8063  -20.5123   -7.9156 O   0  0  0  0  0  0  0  0  0  0  0  0
   26.8956  -20.5229  -10.1775 C   0  0  0  0  0  0  0  0  0  0  0  0
   25.6611  -20.7966  -10.9355 C   0  0  0  0  0  0  0  0  0  0  0  0
   25.6801  -20.5764  -12.4104 C   0  0  2  0  0  0  0  0  0  0  0  0
   24.4050  -20.8402  -13.0277 N   0  0  0  0  0  0  0  0  0  0  0  0
   26.8499  -21.0719  -13.1354 C   0  0  0  0  0  0  0  0  0  0  0  0
   26.8445  -22.2217  -13.6190 O   0  0  0  0  0  0  0  0  0  0  0  0
   27.9613  -20.2808  -13.2906 O   0  0  0  0  0  0  0  0  0  0  0  0
  2  1  1  6
  3  2  1  0
  4  3  1  0
  5  4  1  0
  6  5  1  0
  7  6  1  0
  8  2  1  0
  8 10  1  0
  9  8  2  0
 11 10  1  0
 12 11  1  0
 13 12  2  0
 15 14  1  0
 16 15  2  0
 17 15  1  0
 18 17  1  0
 19 18  1  1
 19 20  1  0
 20 12  1  0
 21 23  1  0
 21 19  1  0
 22 21  2  0
M  END
$$$$
