KGQ.pdb
     RDKit          3D

 23 22  0  0  1  0  0  0  0  0999 V2000
   21.8417  -20.2337  -16.7285 N   0  0  0  0  0  0  0  0  0  0  0  0
   22.5449  -19.8897  -15.5319 C   0  0  1  0  0  0  0  0  0  0  0  0
   23.2612  -18.5607  -15.6183 C   0  0  0  0  0  0  0  0  0  0  0  0
   24.6643  -18.7234  -16.1701 C   0  0  0  0  0  0  0  0  0  0  0  0
   24.6967  -18.6177  -17.6607 C   0  0  0  0  0  0  0  0  0  0  0  0
   26.0607  -18.9231  -18.2386 C   0  0  0  0  0  0  0  0  0  0  0  0
   26.0712  -19.0049  -19.6665 N   0  0  0  0  0  0  0  0  0  0  0  0
   21.7080  -19.9790  -14.3168 C   0  0  0  0  0  0  0  0  0  0  0  0
   20.5380  -19.5206  -14.3750 O   0  0  0  0  0  0  0  0  0  0  0  0
   22.2623  -20.5741  -13.1503 N   0  0  0  0  0  0  0  0  0  0  0  0
   21.4626  -20.6286  -11.9448 C   0  0  0  0  0  0  0  0  0  0  0  0
   20.5866  -21.8152  -12.0165 C   0  0  0  0  0  0  0  0  0  0  0  0
   20.7219  -22.6587  -12.9280 O   0  0  0  0  0  0  0  0  0  0  0  0
   17.7430  -24.5281   -7.1288 N   0  0  0  0  0  0  0  0  0  0  0  0
   19.1618  -24.5698   -7.4814 C   0  0  0  0  0  0  0  0  0  0  0  0
   19.9462  -25.0102   -6.6279 O   0  0  0  0  0  0  0  0  0  0  0  0
   19.4713  -24.0731   -8.8282 C   0  0  0  0  0  0  0  0  0  0  0  0
   18.3610  -23.6314   -9.6918 C   0  0  0  0  0  0  0  0  0  0  0  0
   18.6892  -23.1449  -11.0628 C   0  0  2  0  0  0  0  0  0  0  0  0
   19.5804  -22.0127  -11.0517 N   0  0  0  0  0  0  0  0  0  0  0  0
   17.5838  -23.0722  -12.0181 C   0  0  0  0  0  0  0  0  0  0  0  0
   17.1702  -24.1087  -12.5751 O   0  0  0  0  0  0  0  0  0  0  0  0
   16.9925  -21.8680  -12.3106 O   0  0  0  0  0  0  0  0  0  0  0  0
  2  1  1  6
  3  2  1  0
  4  3  1  0
  5  4  1  0
  6  5  1  0
  7  6  1  0
  8  2  1  0
  8 10  1  0
  9  8  2  0
 11 10  1  0
 12 11  1  0
 13 12  2  0
 15 14  1  0
 16 15  2  0
 17 15  1  0
 18 17  1  0
 19 18  1  1
 19 20  1  0
 20 12  1  0
 21 23  1  0
 21 19  1  0
 22 21  2  0
M  END
$$$$
