KGQ.pdb
     RDKit          3D

 23 22  0  0  1  0  0  0  0  0999 V2000
   24.2334  -20.7350  -16.1044 N   0  0  0  0  0  0  0  0  0  0  0  0
   23.1095  -19.8536  -16.0353 C   0  0  1  0  0  0  0  0  0  0  0  0
   22.0604  -20.1360  -17.0872 C   0  0  0  0  0  0  0  0  0  0  0  0
   21.8657  -21.6264  -17.2882 C   0  0  0  0  0  0  0  0  0  0  0  0
   20.8960  -21.9224  -18.3865 C   0  0  0  0  0  0  0  0  0  0  0  0
   20.6188  -23.4016  -18.5382 C   0  0  0  0  0  0  0  0  0  0  0  0
   19.6862  -23.7044  -19.5795 N   0  0  0  0  0  0  0  0  0  0  0  0
   22.5165  -19.7685  -14.6842 C   0  0  0  0  0  0  0  0  0  0  0  0
   21.6958  -18.8417  -14.4607 O   0  0  0  0  0  0  0  0  0  0  0  0
   22.8998  -20.7312  -13.7103 N   0  0  0  0  0  0  0  0  0  0  0  0
   22.2299  -20.7336  -12.4269 C   0  0  0  0  0  0  0  0  0  0  0  0
   21.1600  -21.7508  -12.4583 C   0  0  0  0  0  0  0  0  0  0  0  0
   21.0231  -22.5081  -13.4424 O   0  0  0  0  0  0  0  0  0  0  0  0
   19.1132  -24.5062   -7.2959 N   0  0  0  0  0  0  0  0  0  0  0  0
   18.3234  -25.2337   -8.2889 C   0  0  0  0  0  0  0  0  0  0  0  0
   17.7035  -26.2344   -7.8991 O   0  0  0  0  0  0  0  0  0  0  0  0
   18.3733  -24.6675   -9.6430 C   0  0  0  0  0  0  0  0  0  0  0  0
   19.1357  -23.4249   -9.8625 C   0  0  0  0  0  0  0  0  0  0  0  0
   19.3104  -22.9472  -11.2644 C   0  0  2  0  0  0  0  0  0  0  0  0
   20.2740  -21.8813  -11.3720 N   0  0  0  0  0  0  0  0  0  0  0  0
   18.0945  -22.7853  -12.0614 C   0  0  0  0  0  0  0  0  0  0  0  0
   17.4511  -21.7180  -12.0097 O   0  0  0  0  0  0  0  0  0  0  0  0
   17.6504  -23.8014  -12.8710 O   0  0  0  0  0  0  0  0  0  0  0  0
  2  1  1  1
  3  2  1  0
  4  3  1  0
  5  4  1  0
  6  5  1  0
  7  6  1  0
  8  2  1  0
  8 10  1  0
  9  8  2  0
 11 10  1  0
 12 11  1  0
 13 12  2  0
 15 14  1  0
 16 15  2  0
 17 15  1  0
 18 17  1  0
 19 18  1  1
 19 20  1  0
 20 12  1  0
 21 23  1  0
 21 19  1  0
 22 21  2  0
M  END
$$$$
