KGQ.pdb
     RDKit          3D

 23 22  0  0  1  0  0  0  0  0999 V2000
   25.0147  -22.7242  -14.7167 N   0  0  0  0  0  0  0  0  0  0  0  0
   25.1145  -21.3328  -14.4024 C   0  0  1  0  0  0  0  0  0  0  0  0
   25.3177  -20.4565  -15.6179 C   0  0  0  0  0  0  0  0  0  0  0  0
   24.5259  -20.9667  -16.8063 C   0  0  0  0  0  0  0  0  0  0  0  0
   24.7708  -20.1518  -18.0352 C   0  0  0  0  0  0  0  0  0  0  0  0
   24.0451  -20.6908  -19.2480 C   0  0  0  0  0  0  0  0  0  0  0  0
   24.3177  -19.9619  -20.4479 N   0  0  0  0  0  0  0  0  0  0  0  0
   24.0040  -20.8438  -13.5584 C   0  0  0  0  0  0  0  0  0  0  0  0
   24.0393  -19.6451  -13.1786 O   0  0  0  0  0  0  0  0  0  0  0  0
   22.9580  -21.7456  -13.2194 N   0  0  0  0  0  0  0  0  0  0  0  0
   21.8047  -21.2426  -12.5036 C   0  0  0  0  0  0  0  0  0  0  0  0
   20.8423  -22.3487  -12.3287 C   0  0  0  0  0  0  0  0  0  0  0  0
   20.7170  -23.2344  -13.2007 O   0  0  0  0  0  0  0  0  0  0  0  0
   18.8053  -24.3926   -6.7332 N   0  0  0  0  0  0  0  0  0  0  0  0
   18.0732  -25.2918   -7.6246 C   0  0  0  0  0  0  0  0  0  0  0  0
   17.4054  -26.1941   -7.0977 O   0  0  0  0  0  0  0  0  0  0  0  0
   18.2324  -24.9973   -9.0545 C   0  0  0  0  0  0  0  0  0  0  0  0
   19.0206  -23.8159   -9.4499 C   0  0  0  0  0  0  0  0  0  0  0  0
   19.1351  -23.5033  -10.9036 C   0  0  2  0  0  0  0  0  0  0  0  0
   20.0477  -22.4201  -11.1685 N   0  0  0  0  0  0  0  0  0  0  0  0
   17.8916  -23.4872  -11.6738 C   0  0  0  0  0  0  0  0  0  0  0  0
   17.1978  -22.4515  -11.7188 O   0  0  0  0  0  0  0  0  0  0  0  0
   17.4764  -24.6064  -12.3522 O   0  0  0  0  0  0  0  0  0  0  0  0
  2  1  1  6
  3  2  1  0
  4  3  1  0
  5  4  1  0
  6  5  1  0
  7  6  1  0
  8  2  1  0
  8 10  1  0
  9  8  2  0
 11 10  1  0
 12 11  1  0
 13 12  2  0
 15 14  1  0
 16 15  2  0
 17 15  1  0
 18 17  1  0
 19 18  1  1
 19 20  1  0
 20 12  1  0
 21 23  1  0
 21 19  1  0
 22 21  2  0
M  END
$$$$
