KGQ.pdb
     RDKit          3D

 23 22  0  0  1  0  0  0  0  0999 V2000
   25.1045  -20.3130  -17.8090 N   0  0  0  0  0  0  0  0  0  0  0  0
   25.4703  -20.2493  -16.4281 C   0  0  1  0  0  0  0  0  0  0  0  0
   26.7856  -19.5427  -16.1882 C   0  0  0  0  0  0  0  0  0  0  0  0
   27.8879  -20.1152  -17.0580 C   0  0  0  0  0  0  0  0  0  0  0  0
   28.4052  -21.4129  -16.5264 C   0  0  0  0  0  0  0  0  0  0  0  0
   29.5678  -21.9517  -17.3300 C   0  0  0  0  0  0  0  0  0  0  0  0
   30.1554  -23.1279  -16.7672 N   0  0  0  0  0  0  0  0  0  0  0  0
   24.3982  -19.7118  -15.5642 C   0  0  0  0  0  0  0  0  0  0  0  0
   23.9742  -18.5527  -15.8074 O   0  0  0  0  0  0  0  0  0  0  0  0
   23.9022  -20.5252  -14.5085 N   0  0  0  0  0  0  0  0  0  0  0  0
   22.7975  -20.0383  -13.7095 C   0  0  0  0  0  0  0  0  0  0  0  0
   21.6586  -20.9642  -13.8705 C   0  0  0  0  0  0  0  0  0  0  0  0
   21.7165  -21.9195  -14.6734 O   0  0  0  0  0  0  0  0  0  0  0  0
   19.2023  -24.6278  -10.0764 N   0  0  0  0  0  0  0  0  0  0  0  0
   18.0949  -23.6724  -10.0856 C   0  0  0  0  0  0  0  0  0  0  0  0
   17.2093  -23.8215   -9.2305 O   0  0  0  0  0  0  0  0  0  0  0  0
   18.1843  -22.6438  -11.1299 C   0  0  0  0  0  0  0  0  0  0  0  0
   19.3505  -22.6510  -12.0319 C   0  0  0  0  0  0  0  0  0  0  0  0
   19.3640  -21.6860  -13.1689 C   0  0  2  0  0  0  0  0  0  0  0  0
   20.4841  -20.7811  -13.1158 N   0  0  0  0  0  0  0  0  0  0  0  0
   18.0821  -21.0869  -13.5396 C   0  0  0  0  0  0  0  0  0  0  0  0
   17.2050  -21.7803  -14.0927 O   0  0  0  0  0  0  0  0  0  0  0  0
   17.8315  -19.7613  -13.2842 O   0  0  0  0  0  0  0  0  0  0  0  0
  2  1  1  6
  3  2  1  0
  4  3  1  0
  5  4  1  0
  6  5  1  0
  7  6  1  0
  8  2  1  0
  8 10  1  0
  9  8  2  0
 11 10  1  0
 12 11  1  0
 13 12  2  0
 15 14  1  0
 16 15  2  0
 17 15  1  0
 18 17  1  0
 19 18  1  1
 19 20  1  0
 20 12  1  0
 21 23  1  0
 21 19  1  0
 22 21  2  0
M  END
$$$$
