KGQ.pdb
     RDKit          3D

 23 22  0  0  1  0  0  0  0  0999 V2000
   25.9871  -20.0169  -16.0030 N   0  0  0  0  0  0  0  0  0  0  0  0
   27.3247  -19.5197  -16.0946 C   0  0  1  0  0  0  0  0  0  0  0  0
   27.4564  -18.3158  -17.0000 C   0  0  0  0  0  0  0  0  0  0  0  0
   26.6718  -18.5010  -18.2843 C   0  0  0  0  0  0  0  0  0  0  0  0
   27.3075  -17.7931  -19.4372 C   0  0  0  0  0  0  0  0  0  0  0  0
   27.4790  -18.6841  -20.6474 C   0  0  0  0  0  0  0  0  0  0  0  0
   28.0539  -18.0149  -21.7730 N   0  0  0  0  0  0  0  0  0  0  0  0
   27.9503  -19.2808  -14.7769 C   0  0  0  0  0  0  0  0  0  0  0  0
   27.7685  -18.1600  -14.2354 O   0  0  0  0  0  0  0  0  0  0  0  0
   28.7211  -20.3218  -14.1901 N   0  0  0  0  0  0  0  0  0  0  0  0
   29.2845  -20.1180  -12.8723 C   0  0  0  0  0  0  0  0  0  0  0  0
   28.2298  -20.3630  -11.8683 C   0  0  0  0  0  0  0  0  0  0  0  0
   28.5139  -20.5020  -10.6598 O   0  0  0  0  0  0  0  0  0  0  0  0
   22.2167  -20.9618  -12.7564 N   0  0  0  0  0  0  0  0  0  0  0  0
   22.1538  -20.5485  -11.3549 C   0  0  0  0  0  0  0  0  0  0  0  0
   21.0836  -20.7327  -10.7561 O   0  0  0  0  0  0  0  0  0  0  0  0
   23.3942  -19.9580  -10.8359 C   0  0  0  0  0  0  0  0  0  0  0  0
   24.5673  -19.8812  -11.7255 C   0  0  0  0  0  0  0  0  0  0  0  0
   25.7967  -20.6277  -11.3314 C   0  0  2  0  0  0  0  0  0  0  0  0
   26.8807  -20.4436  -12.2628 N   0  0  0  0  0  0  0  0  0  0  0  0
   25.6093  -21.9921  -10.8385 C   0  0  0  0  0  0  0  0  0  0  0  0
   25.5424  -22.9433  -11.6427 O   0  0  0  0  0  0  0  0  0  0  0  0
   25.5054  -22.2395   -9.4920 O   0  0  0  0  0  0  0  0  0  0  0  0
  2  1  1  1
  3  2  1  0
  4  3  1  0
  5  4  1  0
  6  5  1  0
  7  6  1  0
  8  2  1  0
  8 10  1  0
  9  8  2  0
 11 10  1  0
 12 11  1  0
 13 12  2  0
 15 14  1  0
 16 15  2  0
 17 15  1  0
 18 17  1  0
 19 18  1  6
 19 20  1  0
 20 12  1  0
 21 23  1  0
 21 19  1  0
 22 21  2  0
M  END
$$$$
