KGQ.pdb
     RDKit          3D

 23 22  0  0  1  0  0  0  0  0999 V2000
   20.7919  -11.5954  -18.7318 N   0  0  0  0  0  0  0  0  0  0  0  0
   19.6402  -11.9407  -17.9576 C   0  0  1  0  0  0  0  0  0  0  0  0
   19.5458  -13.4181  -17.6494 C   0  0  0  0  0  0  0  0  0  0  0  0
   19.6144  -14.2525  -18.9137 C   0  0  0  0  0  0  0  0  0  0  0  0
   19.5986  -15.7181  -18.6203 C   0  0  0  0  0  0  0  0  0  0  0  0
   19.5632  -16.5645  -19.8733 C   0  0  0  0  0  0  0  0  0  0  0  0
   19.6655  -17.9681  -19.6180 N   0  0  0  0  0  0  0  0  0  0  0  0
   19.4889  -11.1194  -16.7381 C   0  0  0  0  0  0  0  0  0  0  0  0
   18.5487  -11.4036  -15.9521 O   0  0  0  0  0  0  0  0  0  0  0  0
   20.4065  -10.0563  -16.5147 N   0  0  0  0  0  0  0  0  0  0  0  0
   20.3710   -9.3555  -15.2485 C   0  0  0  0  0  0  0  0  0  0  0  0
   21.4187   -8.3150  -15.2589 C   0  0  0  0  0  0  0  0  0  0  0  0
   22.2759   -8.2763  -16.1669 O   0  0  0  0  0  0  0  0  0  0  0  0
   19.9723   -4.1266  -18.1165 N   0  0  0  0  0  0  0  0  0  0  0  0
   21.2685   -4.3263  -17.4694 C   0  0  0  0  0  0  0  0  0  0  0  0
   22.2727   -3.9179  -18.0716 O   0  0  0  0  0  0  0  0  0  0  0  0
   21.2031   -4.9988  -16.1655 C   0  0  0  0  0  0  0  0  0  0  0  0
   22.4393   -5.5715  -15.6022 C   0  0  0  0  0  0  0  0  0  0  0  0
   22.3645   -6.2201  -14.2614 C   0  0  2  0  0  0  0  0  0  0  0  0
   21.4656   -7.3460  -14.2385 N   0  0  0  0  0  0  0  0  0  0  0  0
   22.2958   -5.3305  -13.1023 C   0  0  0  0  0  0  0  0  0  0  0  0
   23.1939   -4.4869  -12.9080 O   0  0  0  0  0  0  0  0  0  0  0  0
   21.2473   -5.4139  -12.2197 O   0  0  0  0  0  0  0  0  0  0  0  0
  2  1  1  1
  3  2  1  0
  4  3  1  0
  5  4  1  0
  6  5  1  0
  7  6  1  0
  8  2  1  0
  8 10  1  0
  9  8  2  0
 11 10  1  0
 12 11  1  0
 13 12  2  0
 15 14  1  0
 16 15  2  0
 17 15  1  0
 18 17  1  0
 19 18  1  6
 19 20  1  0
 20 12  1  0
 21 23  1  0
 21 19  1  0
 22 21  2  0
M  END
$$$$
