KGQ.pdb
     RDKit          3D

 23 22  0  0  1  0  0  0  0  0999 V2000
   25.2732  -21.1331  -15.1615 N   0  0  0  0  0  0  0  0  0  0  0  0
   25.9732  -19.9004  -15.3496 C   0  0  1  0  0  0  0  0  0  0  0  0
   25.1006  -18.6802  -15.1590 C   0  0  0  0  0  0  0  0  0  0  0  0
   23.8871  -18.7205  -16.0674 C   0  0  0  0  0  0  0  0  0  0  0  0
   23.4684  -17.3541  -16.5054 C   0  0  0  0  0  0  0  0  0  0  0  0
   22.3035  -17.3809  -17.4698 C   0  0  0  0  0  0  0  0  0  0  0  0
   21.8301  -16.0804  -17.8305 N   0  0  0  0  0  0  0  0  0  0  0  0
   27.2176  -19.8089  -14.5573 C   0  0  0  0  0  0  0  0  0  0  0  0
   27.8796  -18.7414  -14.6255 O   0  0  0  0  0  0  0  0  0  0  0  0
   27.6026  -20.9236  -13.7627 N   0  0  0  0  0  0  0  0  0  0  0  0
   28.2849  -20.6866  -12.5082 C   0  0  0  0  0  0  0  0  0  0  0  0
   27.4840  -21.2807  -11.4192 C   0  0  0  0  0  0  0  0  0  0  0  0
   27.0034  -22.4286  -11.5286 O   0  0  0  0  0  0  0  0  0  0  0  0
   28.8410  -20.5005   -5.5412 N   0  0  0  0  0  0  0  0  0  0  0  0
   27.9038  -19.4271   -5.8708 C   0  0  0  0  0  0  0  0  0  0  0  0
   27.8894  -18.4368   -5.1245 O   0  0  0  0  0  0  0  0  0  0  0  0
   27.0889  -19.6739   -7.0672 C   0  0  0  0  0  0  0  0  0  0  0  0
   27.3010  -20.9221   -7.8225 C   0  0  0  0  0  0  0  0  0  0  0  0
   26.5529  -21.1052   -9.0996 C   0  0  2  0  0  0  0  0  0  0  0  0
   27.2497  -20.5560  -10.2350 N   0  0  0  0  0  0  0  0  0  0  0  0
   25.1117  -20.8579   -9.0600 C   0  0  0  0  0  0  0  0  0  0  0  0
   24.6007  -20.0175   -9.8272 O   0  0  0  0  0  0  0  0  0  0  0  0
   24.3097  -21.5446   -8.1823 O   0  0  0  0  0  0  0  0  0  0  0  0
  2  1  1  1
  3  2  1  0
  4  3  1  0
  5  4  1  0
  6  5  1  0
  7  6  1  0
  8  2  1  0
  8 10  1  0
  9  8  2  0
 11 10  1  0
 12 11  1  0
 13 12  2  0
 15 14  1  0
 16 15  2  0
 17 15  1  0
 18 17  1  0
 19 18  1  1
 19 20  1  0
 20 12  1  0
 21 23  1  0
 21 19  1  0
 22 21  2  0
M  END
$$$$
