KGQ.pdb
     RDKit          3D

 23 22  0  0  1  0  0  0  0  0999 V2000
   27.3845  -24.6289  -15.7943 N   0  0  0  0  0  0  0  0  0  0  0  0
   28.1910  -23.6987  -16.5216 C   0  0  1  0  0  0  0  0  0  0  0  0
   28.3584  -24.0622  -17.9799 C   0  0  0  0  0  0  0  0  0  0  0  0
   28.2112  -25.5555  -18.1983 C   0  0  0  0  0  0  0  0  0  0  0  0
   29.4595  -26.2994  -17.8483 C   0  0  0  0  0  0  0  0  0  0  0  0
   29.4167  -27.7485  -18.2801 C   0  0  0  0  0  0  0  0  0  0  0  0
   30.6223  -28.4646  -17.9984 N   0  0  0  0  0  0  0  0  0  0  0  0
   27.7565  -22.2956  -16.3568 C   0  0  0  0  0  0  0  0  0  0  0  0
   28.3391  -21.4163  -17.0422 O   0  0  0  0  0  0  0  0  0  0  0  0
   26.7089  -22.0105  -15.4383 N   0  0  0  0  0  0  0  0  0  0  0  0
   26.2391  -20.6469  -15.3137 C   0  0  0  0  0  0  0  0  0  0  0  0
   24.8742  -20.5683  -15.8715 C   0  0  0  0  0  0  0  0  0  0  0  0
   24.5467  -21.2510  -16.8653 O   0  0  0  0  0  0  0  0  0  0  0  0
   20.0381  -22.0449  -13.1059 N   0  0  0  0  0  0  0  0  0  0  0  0
   20.1362  -20.6273  -12.7597 C   0  0  0  0  0  0  0  0  0  0  0  0
   19.5027  -20.2403  -11.7664 O   0  0  0  0  0  0  0  0  0  0  0  0
   20.9904  -19.8374  -13.6558 C   0  0  0  0  0  0  0  0  0  0  0  0
   21.6723  -20.5225  -14.7690 C   0  0  0  0  0  0  0  0  0  0  0  0
   22.5299  -19.7059  -15.6755 C   0  0  2  0  0  0  0  0  0  0  0  0
   23.9173  -19.7171  -15.2866 N   0  0  0  0  0  0  0  0  0  0  0  0
   21.9989  -18.4082  -16.0924 C   0  0  0  0  0  0  0  0  0  0  0  0
   22.6128  -17.3608  -15.8061 O   0  0  0  0  0  0  0  0  0  0  0  0
   20.8248  -18.3293  -16.7998 O   0  0  0  0  0  0  0  0  0  0  0  0
  2  1  1  6
  3  2  1  0
  4  3  1  0
  5  4  1  0
  6  5  1  0
  7  6  1  0
  8  2  1  0
  8 10  1  0
  9  8  2  0
 11 10  1  0
 12 11  1  0
 13 12  2  0
 15 14  1  0
 16 15  2  0
 17 15  1  0
 18 17  1  0
 19 18  1  1
 19 20  1  0
 20 12  1  0
 21 23  1  0
 21 19  1  0
 22 21  2  0
M  END
$$$$
