IYA.pdb
     RDKit          3D

 26 26  0  0  1  0  0  0  0  0999 V2000
    7.6972  -16.4112   17.1535 C   0  0  0  0  0  0  0  0  0  0  0  0
    7.2125  -15.3667   18.1574 C   0  0  0  0  0  0  0  0  0  0  0  0
    8.0010  -15.5214   19.4217 C   0  0  2  0  0  0  0  0  0  0  0  0
    8.0255  -16.9679   19.8081 C   0  0  0  0  0  0  0  0  0  0  0  0
    7.5411  -14.6145   20.5267 C   0  0  2  0  0  0  0  0  0  0  0  0
    7.4820  -13.2429   20.0622 N   0  0  0  0  0  0  0  0  0  0  0  0
    8.3301  -14.6836   21.7515 C   0  0  0  0  0  0  0  0  0  0  0  0
    9.4266  -14.0871   21.8988 O   0  0  0  0  0  0  0  0  0  0  0  0
    6.6436  -10.3172   27.0409 O   0  0  0  0  0  0  0  0  0  0  0  0
    6.9293  -11.6225   26.6117 C   0  0  0  0  0  0  0  0  0  0  0  0
    8.2288  -12.0756   26.5292 C   0  0  0  0  0  0  0  0  0  0  0  0
    8.5100  -13.3683   26.1040 C   0  0  0  0  0  0  0  0  0  0  0  0
    7.5138  -14.2492   25.7484 C   0  0  0  0  0  0  0  0  0  0  0  0
    7.7711  -15.6308   25.2915 C   0  0  0  0  0  0  0  0  0  0  0  0
    8.6200  -15.6916   24.0520 C   0  0  2  0  0  0  0  0  0  0  0  0
    7.8634  -15.4547   22.8494 N   0  0  0  0  0  0  0  0  0  0  0  0
    9.4669  -16.8988   23.9618 C   0  0  0  0  0  0  0  0  0  0  0  0
    8.9324  -18.0263   23.8033 O   0  0  0  0  0  0  0  0  0  0  0  0
    6.2265  -13.7691   25.8407 C   0  0  0  0  0  0  0  0  0  0  0  0
    5.9284  -12.4953   26.2586 C   0  0  0  0  0  0  0  0  0  0  0  0
   13.1564  -17.3548   23.6296 C   0  0  0  0  0  0  0  0  0  0  0  0
   11.7690  -17.9218   23.9624 C   0  0  2  0  0  0  0  0  0  0  0  0
   10.8802  -16.8064   24.0509 N   0  0  0  0  0  0  0  0  0  0  0  0
   11.9253  -18.6872   25.2034 C   0  0  0  0  0  0  0  0  0  0  0  0
   12.5999  -19.7258   25.3171 O   0  0  0  0  0  0  0  0  0  0  0  0
   11.2734  -18.2211   26.3373 O   0  0  0  0  0  0  0  0  0  0  0  0
  2  1  1  0
  2  3  1  0
  3  5  1  0
  3  4  1  1
  5  6  1  6
  7  5  1  0
  7  8  2  0
  9 10  1  0
 10 20  2  0
 11 10  1  0
 11 12  2  0
 12 13  1  0
 13 19  2  0
 13 14  1  0
 15 14  1  1
 15 16  1  0
 16  7  1  0
 17 15  1  0
 18 17  2  0
 20 19  1  0
 22 23  1  0
 22 21  1  1
 23 17  1  0
 24 22  1  0
 25 24  2  0
 26 24  1  0
M  END
$$$$
