IYA.pdb
     RDKit          3D

 26 26  0  0  1  0  0  0  0  0999 V2000
    6.5046  -12.3755   18.8981 C   0  0  0  0  0  0  0  0  0  0  0  0
    7.0340  -13.7821   19.1715 C   0  0  0  0  0  0  0  0  0  0  0  0
    7.9810  -13.7162   20.3304 C   0  0  2  0  0  0  0  0  0  0  0  0
    9.0897  -12.7649   20.0017 C   0  0  0  0  0  0  0  0  0  0  0  0
    8.4635  -15.0639   20.7843 C   0  0  2  0  0  0  0  0  0  0  0  0
    7.3440  -15.9666   20.9636 N   0  0  0  0  0  0  0  0  0  0  0  0
    9.2823  -15.0526   21.9913 C   0  0  0  0  0  0  0  0  0  0  0  0
   10.4741  -14.6537   22.0112 O   0  0  0  0  0  0  0  0  0  0  0  0
   11.1698  -15.1037   30.6788 O   0  0  0  0  0  0  0  0  0  0  0  0
   10.5106  -15.1346   29.4402 C   0  0  0  0  0  0  0  0  0  0  0  0
   10.3093  -13.9808   28.7128 C   0  0  0  0  0  0  0  0  0  0  0  0
    9.6565  -14.0131   27.4865 C   0  0  0  0  0  0  0  0  0  0  0  0
    9.1845  -15.1874   26.9452 C   0  0  0  0  0  0  0  0  0  0  0  0
    8.4858  -15.2637   25.6453 C   0  0  0  0  0  0  0  0  0  0  0  0
    9.4228  -15.4498   24.4843 C   0  0  2  0  0  0  0  0  0  0  0  0
    8.7349  -15.5087   23.2201 N   0  0  0  0  0  0  0  0  0  0  0  0
   10.3849  -16.5572   24.6595 C   0  0  0  0  0  0  0  0  0  0  0  0
   11.1898  -16.5382   25.6259 O   0  0  0  0  0  0  0  0  0  0  0  0
    9.3998  -16.3228   27.6938 C   0  0  0  0  0  0  0  0  0  0  0  0
   10.0426  -16.3115   28.9073 C   0  0  0  0  0  0  0  0  0  0  0  0
   11.8971  -18.9726   22.4447 C   0  0  0  0  0  0  0  0  0  0  0  0
   11.3149  -18.7533   23.8483 C   0  0  2  0  0  0  0  0  0  0  0  0
   10.4155  -17.6472   23.7513 N   0  0  0  0  0  0  0  0  0  0  0  0
   12.4603  -18.5420   24.7392 C   0  0  0  0  0  0  0  0  0  0  0  0
   13.3119  -17.6462   24.6011 O   0  0  0  0  0  0  0  0  0  0  0  0
   12.6083  -19.4039   25.8178 O   0  0  0  0  0  0  0  0  0  0  0  0
  2  1  1  0
  2  3  1  0
  3  5  1  0
  3  4  1  6
  5  6  1  1
  7  5  1  0
  7  8  2  0
  9 10  1  0
 10 20  2  0
 11 10  1  0
 11 12  2  0
 12 13  1  0
 13 19  2  0
 13 14  1  0
 15 14  1  1
 15 16  1  0
 16  7  1  0
 17 15  1  0
 18 17  2  0
 20 19  1  0
 22 23  1  0
 22 21  1  6
 23 17  1  0
 24 22  1  0
 25 24  2  0
 26 24  1  0
M  END
$$$$
