IYA.pdb
     RDKit          3D

 26 26  0  0  1  0  0  0  0  0999 V2000
   11.3398  -21.5232   19.4102 C   0  0  0  0  0  0  0  0  0  0  0  0
   10.4714  -20.2862   19.1880 C   0  0  0  0  0  0  0  0  0  0  0  0
   10.7274  -19.3195   20.3034 C   0  0  2  0  0  0  0  0  0  0  0  0
   10.4810  -20.0062   21.6110 C   0  0  0  0  0  0  0  0  0  0  0  0
    9.9786  -18.0262   20.1560 C   0  0  2  0  0  0  0  0  0  0  0  0
   10.1261  -17.5082   18.8106 N   0  0  0  0  0  0  0  0  0  0  0  0
   10.3354  -16.9924   21.1211 C   0  0  0  0  0  0  0  0  0  0  0  0
   11.4764  -16.4684   21.1787 O   0  0  0  0  0  0  0  0  0  0  0  0
    7.4983  -12.8315   17.3991 O   0  0  0  0  0  0  0  0  0  0  0  0
    7.7527  -13.2068   18.7273 C   0  0  0  0  0  0  0  0  0  0  0  0
    8.9986  -13.0293   19.2903 C   0  0  0  0  0  0  0  0  0  0  0  0
    9.2488  -13.4015   20.6055 C   0  0  0  0  0  0  0  0  0  0  0  0
    8.2738  -13.9597   21.4009 C   0  0  0  0  0  0  0  0  0  0  0  0
    8.4997  -14.3685   22.8029 C   0  0  0  0  0  0  0  0  0  0  0  0
    9.5662  -15.4188   22.9445 C   0  0  2  0  0  0  0  0  0  0  0  0
    9.3680  -16.5341   22.0548 N   0  0  0  0  0  0  0  0  0  0  0  0
    9.8131  -15.8410   24.3386 C   0  0  0  0  0  0  0  0  0  0  0  0
   10.0543  -14.9764   25.2196 O   0  0  0  0  0  0  0  0  0  0  0  0
    7.0402  -14.1247   20.8120 C   0  0  0  0  0  0  0  0  0  0  0  0
    6.7733  -13.7634   19.5142 C   0  0  0  0  0  0  0  0  0  0  0  0
    9.1894  -19.0206   26.1294 C   0  0  0  0  0  0  0  0  0  0  0  0
    9.9657  -17.6996   26.0322 C   0  0  2  0  0  0  0  0  0  0  0  0
    9.7820  -17.2126   24.7014 N   0  0  0  0  0  0  0  0  0  0  0  0
   11.3531  -18.0116   26.3899 C   0  0  0  0  0  0  0  0  0  0  0  0
   11.7359  -18.3464   27.5249 O   0  0  0  0  0  0  0  0  0  0  0  0
   12.3132  -17.9281   25.3903 O   0  0  0  0  0  0  0  0  0  0  0  0
  2  1  1  0
  2  3  1  0
  3  5  1  0
  3  4  1  1
  5  6  1  6
  7  5  1  0
  7  8  2  0
  9 10  1  0
 10 20  2  0
 11 10  1  0
 11 12  2  0
 12 13  1  0
 13 19  2  0
 13 14  1  0
 15 14  1  1
 15 16  1  0
 16  7  1  0
 17 15  1  0
 18 17  2  0
 20 19  1  0
 22 23  1  0
 22 21  1  6
 23 17  1  0
 24 22  1  0
 25 24  2  0
 26 24  1  0
M  END
$$$$
