IYA.pdb
     RDKit          3D

 26 26  0  0  1  0  0  0  0  0999 V2000
    8.9174  -21.1865   18.8326 C   0  0  0  0  0  0  0  0  0  0  0  0
    8.7902  -19.6919   18.5435 C   0  0  0  0  0  0  0  0  0  0  0  0
    9.0436  -18.9393   19.8137 C   0  0  2  0  0  0  0  0  0  0  0  0
    8.1745  -19.5010   20.8960 C   0  0  0  0  0  0  0  0  0  0  0  0
    8.9211  -17.4505   19.6600 C   0  0  2  0  0  0  0  0  0  0  0  0
    9.7928  -16.9790   18.6025 N   0  0  0  0  0  0  0  0  0  0  0  0
    9.1648  -16.6818   20.8754 C   0  0  0  0  0  0  0  0  0  0  0  0
   10.3063  -16.5363   21.3809 O   0  0  0  0  0  0  0  0  0  0  0  0
    7.1614  -11.9135   28.1530 O   0  0  0  0  0  0  0  0  0  0  0  0
    7.1613  -12.4953   26.8758 C   0  0  0  0  0  0  0  0  0  0  0  0
    8.0464  -12.0784   25.9043 C   0  0  0  0  0  0  0  0  0  0  0  0
    8.0450  -12.6555   24.6403 C   0  0  0  0  0  0  0  0  0  0  0  0
    7.1682  -13.6612   24.3014 C   0  0  0  0  0  0  0  0  0  0  0  0
    7.1349  -14.3002   22.9694 C   0  0  0  0  0  0  0  0  0  0  0  0
    8.1971  -15.3498   22.7942 C   0  0  2  0  0  0  0  0  0  0  0  0
    8.0794  -16.0549   21.5437 N   0  0  0  0  0  0  0  0  0  0  0  0
    8.3386  -16.2607   23.9488 C   0  0  0  0  0  0  0  0  0  0  0  0
    7.3763  -16.9976   24.2846 O   0  0  0  0  0  0  0  0  0  0  0  0
    6.2966  -14.0566   25.2914 C   0  0  0  0  0  0  0  0  0  0  0  0
    6.2824  -13.4989   26.5462 C   0  0  0  0  0  0  0  0  0  0  0  0
   11.0102  -18.0404   25.4344 C   0  0  0  0  0  0  0  0  0  0  0  0
    9.7788  -17.1961   25.7919 C   0  0  2  0  0  0  0  0  0  0  0  0
    9.5486  -16.3182   24.6882 N   0  0  0  0  0  0  0  0  0  0  0  0
   10.0934  -16.5272   27.0583 C   0  0  0  0  0  0  0  0  0  0  0  0
   10.2208  -15.2982   27.1999 O   0  0  0  0  0  0  0  0  0  0  0  0
   10.2624  -17.3214   28.1847 O   0  0  0  0  0  0  0  0  0  0  0  0
  2  1  1  0
  2  3  1  0
  3  5  1  0
  3  4  1  1
  5  6  1  6
  7  5  1  0
  7  8  2  0
  9 10  1  0
 10 20  2  0
 11 10  1  0
 11 12  2  0
 12 13  1  0
 13 19  2  0
 13 14  1  0
 15 14  1  1
 15 16  1  0
 16  7  1  0
 17 15  1  0
 18 17  2  0
 20 19  1  0
 22 23  1  0
 22 21  1  6
 23 17  1  0
 24 22  1  0
 25 24  2  0
 26 24  1  0
M  END
$$$$
