IYA.pdb
     RDKit          3D

 26 26  0  0  1  0  0  0  0  0999 V2000
    7.1584  -12.4894   19.1765 C   0  0  0  0  0  0  0  0  0  0  0  0
    7.3197  -13.9497   19.5948 C   0  0  0  0  0  0  0  0  0  0  0  0
    8.1539  -13.9982   20.8382 C   0  0  2  0  0  0  0  0  0  0  0  0
    9.4451  -13.2823   20.5883 C   0  0  0  0  0  0  0  0  0  0  0  0
    8.3346  -15.3862   21.3819 C   0  0  2  0  0  0  0  0  0  0  0  0
    7.0863  -16.1197   21.3183 N   0  0  0  0  0  0  0  0  0  0  0  0
    8.8745  -15.4542   22.7352 C   0  0  0  0  0  0  0  0  0  0  0  0
    9.9718  -14.9377   23.0655 O   0  0  0  0  0  0  0  0  0  0  0  0
    6.3538  -10.3790   26.4056 O   0  0  0  0  0  0  0  0  0  0  0  0
    6.6560  -11.7479   26.3390 C   0  0  0  0  0  0  0  0  0  0  0  0
    7.8800  -12.2270   26.7549 C   0  0  0  0  0  0  0  0  0  0  0  0
    8.1776  -13.5827   26.6883 C   0  0  0  0  0  0  0  0  0  0  0  0
    7.2730  -14.5026   26.2084 C   0  0  0  0  0  0  0  0  0  0  0  0
    7.5509  -15.9514   26.1214 C   0  0  0  0  0  0  0  0  0  0  0  0
    8.6092  -16.2871   25.1076 C   0  0  2  0  0  0  0  0  0  0  0  0
    8.1485  -16.1301   23.7519 N   0  0  0  0  0  0  0  0  0  0  0  0
    9.2693  -17.5890   25.3360 C   0  0  0  0  0  0  0  0  0  0  0  0
    8.5773  -18.6373   25.4009 O   0  0  0  0  0  0  0  0  0  0  0  0
    6.0597  -13.9952   25.8005 C   0  0  0  0  0  0  0  0  0  0  0  0
    5.7468  -12.6593   25.8585 C   0  0  0  0  0  0  0  0  0  0  0  0
   12.8720  -18.5938   25.4174 C   0  0  0  0  0  0  0  0  0  0  0  0
   11.3929  -18.8949   25.6980 C   0  0  2  0  0  0  0  0  0  0  0  0
   10.6781  -17.6764   25.4835 N   0  0  0  0  0  0  0  0  0  0  0  0
   11.3325  -19.4136   27.0683 C   0  0  0  0  0  0  0  0  0  0  0  0
   10.7633  -18.8471   28.0178 O   0  0  0  0  0  0  0  0  0  0  0  0
   11.9559  -20.6268   27.3286 O   0  0  0  0  0  0  0  0  0  0  0  0
  2  1  1  0
  2  3  1  0
  3  5  1  0
  3  4  1  6
  5  6  1  1
  7  5  1  0
  7  8  2  0
  9 10  1  0
 10 20  2  0
 11 10  1  0
 11 12  2  0
 12 13  1  0
 13 19  2  0
 13 14  1  0
 15 14  1  1
 15 16  1  0
 16  7  1  0
 17 15  1  0
 18 17  2  0
 20 19  1  0
 22 23  1  0
 22 21  1  1
 23 17  1  0
 24 22  1  0
 25 24  2  0
 26 24  1  0
M  END
$$$$
