IYA.pdb
     RDKit          3D

 26 26  0  0  1  0  0  0  0  0999 V2000
   10.2286  -21.9803   17.6274 C   0  0  0  0  0  0  0  0  0  0  0  0
    9.5118  -20.6323   17.6806 C   0  0  0  0  0  0  0  0  0  0  0  0
    9.8895  -19.9436   18.9562 C   0  0  2  0  0  0  0  0  0  0  0  0
    9.6167  -20.8624   20.1066 C   0  0  0  0  0  0  0  0  0  0  0  0
    9.2622  -18.5880   19.1110 C   0  0  2  0  0  0  0  0  0  0  0  0
    9.5003  -17.7838   17.9291 N   0  0  0  0  0  0  0  0  0  0  0  0
    9.6747  -17.8483   20.2985 C   0  0  0  0  0  0  0  0  0  0  0  0
   10.8169  -17.3408   20.4313 O   0  0  0  0  0  0  0  0  0  0  0  0
    7.8768  -12.0082   18.5637 O   0  0  0  0  0  0  0  0  0  0  0  0
    7.9312  -12.9408   19.6110 C   0  0  0  0  0  0  0  0  0  0  0  0
    8.9409  -12.8990   20.5488 C   0  0  0  0  0  0  0  0  0  0  0  0
    8.9933  -13.8232   21.5852 C   0  0  0  0  0  0  0  0  0  0  0  0
    8.0485  -14.8148   21.7231 C   0  0  0  0  0  0  0  0  0  0  0  0
    8.0689  -15.8158   22.8101 C   0  0  0  0  0  0  0  0  0  0  0  0
    9.0546  -16.9252   22.5691 C   0  0  2  0  0  0  0  0  0  0  0  0
    8.7639  -17.6760   21.3747 N   0  0  0  0  0  0  0  0  0  0  0  0
    9.2832  -17.7921   23.7435 C   0  0  0  0  0  0  0  0  0  0  0  0
    8.3663  -18.5533   24.1457 O   0  0  0  0  0  0  0  0  0  0  0  0
    7.0527  -14.8318   20.7723 C   0  0  0  0  0  0  0  0  0  0  0  0
    6.9837  -13.9275   19.7410 C   0  0  0  0  0  0  0  0  0  0  0  0
   12.3867  -18.9038   25.3950 C   0  0  0  0  0  0  0  0  0  0  0  0
   10.8719  -18.6724   25.4890 C   0  0  2  0  0  0  0  0  0  0  0  0
   10.5264  -17.7801   24.4278 N   0  0  0  0  0  0  0  0  0  0  0  0
   10.6186  -18.1558   26.8378 C   0  0  0  0  0  0  0  0  0  0  0  0
   10.2896  -16.9855   27.1000 O   0  0  0  0  0  0  0  0  0  0  0  0
   10.7553  -19.0354   27.9035 O   0  0  0  0  0  0  0  0  0  0  0  0
  2  1  1  0
  2  3  1  0
  3  5  1  0
  3  4  1  1
  5  6  1  6
  7  5  1  0
  7  8  2  0
  9 10  1  0
 10 20  2  0
 11 10  1  0
 11 12  2  0
 12 13  1  0
 13 19  2  0
 13 14  1  0
 15 14  1  1
 15 16  1  0
 16  7  1  0
 17 15  1  0
 18 17  2  0
 20 19  1  0
 22 23  1  0
 22 21  1  1
 23 17  1  0
 24 22  1  0
 25 24  2  0
 26 24  1  0
M  END
$$$$
