IYA.pdb
     RDKit          3D

 26 26  0  0  1  0  0  0  0  0999 V2000
    6.8517  -12.0996   18.8781 C   0  0  0  0  0  0  0  0  0  0  0  0
    7.6454  -13.3993   18.9986 C   0  0  0  0  0  0  0  0  0  0  0  0
    7.8599  -13.6916   20.4521 C   0  0  2  0  0  0  0  0  0  0  0  0
    8.5590  -12.5292   21.0862 C   0  0  0  0  0  0  0  0  0  0  0  0
    8.5388  -15.0075   20.7024 C   0  0  2  0  0  0  0  0  0  0  0  0
    7.8612  -16.0693   19.9857 N   0  0  0  0  0  0  0  0  0  0  0  0
    8.6761  -15.3745   22.1074 C   0  0  0  0  0  0  0  0  0  0  0  0
    9.3891  -14.7333   22.9200 O   0  0  0  0  0  0  0  0  0  0  0  0
    7.5776  -20.9108   29.0504 O   0  0  0  0  0  0  0  0  0  0  0  0
    7.3864  -20.1144   27.9107 C   0  0  0  0  0  0  0  0  0  0  0  0
    7.2406  -18.7474   28.0146 C   0  0  0  0  0  0  0  0  0  0  0  0
    7.0514  -17.9603   26.8852 C   0  0  0  0  0  0  0  0  0  0  0  0
    7.0010  -18.5031   25.6212 C   0  0  0  0  0  0  0  0  0  0  0  0
    6.8016  -17.7010   24.3962 C   0  0  0  0  0  0  0  0  0  0  0  0
    8.0314  -16.9399   23.9852 C   0  0  2  0  0  0  0  0  0  0  0  0
    7.9828  -16.5067   22.6123 N   0  0  0  0  0  0  0  0  0  0  0  0
    9.2995  -17.6192   24.3219 C   0  0  0  0  0  0  0  0  0  0  0  0
    9.5756  -17.8663   25.5239 O   0  0  0  0  0  0  0  0  0  0  0  0
    7.1496  -19.8701   25.5485 C   0  0  0  0  0  0  0  0  0  0  0  0
    7.3374  -20.6648   26.6526 C   0  0  0  0  0  0  0  0  0  0  0  0
   11.8181  -19.3507   22.1824 C   0  0  0  0  0  0  0  0  0  0  0  0
   11.4067  -18.7538   23.5358 C   0  0  2  0  0  0  0  0  0  0  0  0
   10.2150  -17.9995   23.3065 N   0  0  0  0  0  0  0  0  0  0  0  0
   12.5539  -17.9696   24.0041 C   0  0  0  0  0  0  0  0  0  0  0  0
   13.6667  -18.4428   24.2946 O   0  0  0  0  0  0  0  0  0  0  0  0
   12.3892  -16.5970   24.1341 O   0  0  0  0  0  0  0  0  0  0  0  0
  2  1  1  0
  2  3  1  0
  3  5  1  0
  3  4  1  6
  5  6  1  6
  7  5  1  0
  7  8  2  0
  9 10  1  0
 10 20  2  0
 11 10  1  0
 11 12  2  0
 12 13  1  0
 13 19  2  0
 13 14  1  0
 15 14  1  6
 15 16  1  0
 16  7  1  0
 17 15  1  0
 18 17  2  0
 20 19  1  0
 22 23  1  0
 22 21  1  6
 23 17  1  0
 24 22  1  0
 25 24  2  0
 26 24  1  0
M  END
$$$$
