IYA.pdb
     RDKit          3D

 26 26  0  0  1  0  0  0  0  0999 V2000
    5.3875  -22.4284   20.7411 C   0  0  0  0  0  0  0  0  0  0  0  0
    5.2557  -20.9457   20.3975 C   0  0  0  0  0  0  0  0  0  0  0  0
    6.4154  -20.2137   21.0003 C   0  0  2  0  0  0  0  0  0  0  0  0
    6.4191  -20.4391   22.4807 C   0  0  0  0  0  0  0  0  0  0  0  0
    6.4707  -18.7632   20.6156 C   0  0  2  0  0  0  0  0  0  0  0  0
    6.3834  -18.6192   19.1762 N   0  0  0  0  0  0  0  0  0  0  0  0
    7.6343  -18.0365   21.1112 C   0  0  0  0  0  0  0  0  0  0  0  0
    8.8105  -18.2902   20.7481 O   0  0  0  0  0  0  0  0  0  0  0  0
    7.6636  -12.4446   17.4995 O   0  0  0  0  0  0  0  0  0  0  0  0
    7.8229  -13.0139   18.7723 C   0  0  0  0  0  0  0  0  0  0  0  0
    9.0771  -13.2514   19.2933 C   0  0  0  0  0  0  0  0  0  0  0  0
    9.2331  -13.8152   20.5537 C   0  0  0  0  0  0  0  0  0  0  0  0
    8.1530  -14.1600   21.3344 C   0  0  0  0  0  0  0  0  0  0  0  0
    8.2766  -14.7612   22.6787 C   0  0  0  0  0  0  0  0  0  0  0  0
    8.5458  -16.2399   22.6388 C   0  0  2  0  0  0  0  0  0  0  0  0
    7.4625  -16.9853   22.0510 N   0  0  0  0  0  0  0  0  0  0  0  0
    8.9898  -16.8053   23.9296 C   0  0  0  0  0  0  0  0  0  0  0  0
    8.2577  -16.6916   24.9460 O   0  0  0  0  0  0  0  0  0  0  0  0
    6.9137  -13.9114   20.7882 C   0  0  0  0  0  0  0  0  0  0  0  0
    6.7389  -13.3551   19.5448 C   0  0  0  0  0  0  0  0  0  0  0  0
   11.4077  -19.4082   24.7877 C   0  0  0  0  0  0  0  0  0  0  0  0
   10.7009  -18.1191   25.2303 C   0  0  2  0  0  0  0  0  0  0  0  0
   10.2343  -17.4780   24.0416 N   0  0  0  0  0  0  0  0  0  0  0  0
   11.6875  -17.3533   25.9988 C   0  0  0  0  0  0  0  0  0  0  0  0
   12.1858  -17.7184   27.0781 O   0  0  0  0  0  0  0  0  0  0  0  0
   12.0978  -16.1296   25.4867 O   0  0  0  0  0  0  0  0  0  0  0  0
  2  1  1  0
  2  3  1  0
  3  5  1  0
  3  4  1  1
  5  6  1  6
  7  5  1  0
  7  8  2  0
  9 10  1  0
 10 20  2  0
 11 10  1  0
 11 12  2  0
 12 13  1  0
 13 19  2  0
 13 14  1  0
 15 14  1  1
 15 16  1  0
 16  7  1  0
 17 15  1  0
 18 17  2  0
 20 19  1  0
 22 23  1  0
 22 21  1  6
 23 17  1  0
 24 22  1  0
 25 24  2  0
 26 24  1  0
M  END
$$$$
