IYA.pdb
     RDKit          3D

 26 26  0  0  1  0  0  0  0  0999 V2000
    6.6713  -12.5622   18.6025 C   0  0  0  0  0  0  0  0  0  0  0  0
    6.9584  -13.9737   19.1112 C   0  0  0  0  0  0  0  0  0  0  0  0
    7.9438  -13.8819   20.2358 C   0  0  2  0  0  0  0  0  0  0  0  0
    9.1659  -13.1612   19.7568 C   0  0  0  0  0  0  0  0  0  0  0  0
    8.2429  -15.2065   20.8769 C   0  0  2  0  0  0  0  0  0  0  0  0
    7.0157  -15.9382   21.1198 N   0  0  0  0  0  0  0  0  0  0  0  0
    9.0229  -15.1353   22.1073 C   0  0  0  0  0  0  0  0  0  0  0  0
   10.2508  -14.8679   22.1297 O   0  0  0  0  0  0  0  0  0  0  0  0
   10.9898  -15.2819   30.7688 O   0  0  0  0  0  0  0  0  0  0  0  0
   10.3290  -15.1764   29.5352 C   0  0  0  0  0  0  0  0  0  0  0  0
   10.3937  -14.0178   28.7905 C   0  0  0  0  0  0  0  0  0  0  0  0
    9.7389  -13.9150   27.5692 C   0  0  0  0  0  0  0  0  0  0  0  0
    9.0015  -14.9550   27.0501 C   0  0  0  0  0  0  0  0  0  0  0  0
    8.2910  -14.8854   25.7563 C   0  0  0  0  0  0  0  0  0  0  0  0
    9.0911  -15.4496   24.6151 C   0  0  2  0  0  0  0  0  0  0  0  0
    8.3927  -15.3749   23.3576 N   0  0  0  0  0  0  0  0  0  0  0  0
    9.6475  -16.7929   24.8771 C   0  0  0  0  0  0  0  0  0  0  0  0
    8.8721  -17.7721   25.0253 O   0  0  0  0  0  0  0  0  0  0  0  0
    8.9549  -16.0987   27.8156 C   0  0  0  0  0  0  0  0  0  0  0  0
    9.5951  -16.2198   29.0245 C   0  0  0  0  0  0  0  0  0  0  0  0
   12.8433  -18.3141   24.1234 C   0  0  0  0  0  0  0  0  0  0  0  0
   11.6704  -18.2755   25.1133 C   0  0  2  0  0  0  0  0  0  0  0  0
   11.0492  -16.9974   24.9640 N   0  0  0  0  0  0  0  0  0  0  0  0
   12.2431  -18.5332   26.4384 C   0  0  0  0  0  0  0  0  0  0  0  0
   12.2272  -17.7297   27.3875 O   0  0  0  0  0  0  0  0  0  0  0  0
   12.8488  -19.7641   26.6530 O   0  0  0  0  0  0  0  0  0  0  0  0
  2  1  1  0
  2  3  1  0
  3  5  1  0
  3  4  1  6
  5  6  1  1
  7  5  1  0
  7  8  2  0
  9 10  1  0
 10 20  2  0
 11 10  1  0
 11 12  2  0
 12 13  1  0
 13 19  2  0
 13 14  1  0
 15 14  1  1
 15 16  1  0
 16  7  1  0
 17 15  1  0
 18 17  2  0
 20 19  1  0
 22 23  1  0
 22 21  1  6
 23 17  1  0
 24 22  1  0
 25 24  2  0
 26 24  1  0
M  END
$$$$
