IYA.pdb
     RDKit          3D

 26 26  0  0  1  0  0  0  0  0999 V2000
    7.0139  -12.0921   18.4225 C   0  0  0  0  0  0  0  0  0  0  0  0
    6.8466  -13.4378   19.1258 C   0  0  0  0  0  0  0  0  0  0  0  0
    8.1935  -14.0830   19.2432 C   0  0  2  0  0  0  0  0  0  0  0  0
    8.7785  -14.2450   17.8744 C   0  0  0  0  0  0  0  0  0  0  0  0
    8.1786  -15.3545   20.0421 C   0  0  2  0  0  0  0  0  0  0  0  0
    6.8374  -15.9010   20.0959 N   0  0  0  0  0  0  0  0  0  0  0  0
    8.7165  -15.2417   21.3931 C   0  0  0  0  0  0  0  0  0  0  0  0
    9.9450  -15.1402   21.6389 O   0  0  0  0  0  0  0  0  0  0  0  0
    8.8909  -13.4543   30.0824 O   0  0  0  0  0  0  0  0  0  0  0  0
    8.4628  -13.7374   28.7761 C   0  0  0  0  0  0  0  0  0  0  0  0
    8.1258  -15.0205   28.4006 C   0  0  0  0  0  0  0  0  0  0  0  0
    7.7021  -15.2991   27.1068 C   0  0  0  0  0  0  0  0  0  0  0  0
    7.6000  -14.3166   26.1481 C   0  0  0  0  0  0  0  0  0  0  0  0
    7.1540  -14.5719   24.7626 C   0  0  0  0  0  0  0  0  0  0  0  0
    8.2564  -15.0771   23.8738 C   0  0  2  0  0  0  0  0  0  0  0  0
    7.8346  -15.2436   22.5066 N   0  0  0  0  0  0  0  0  0  0  0  0
    8.9565  -16.2665   24.4011 C   0  0  0  0  0  0  0  0  0  0  0  0
    8.3532  -17.3682   24.4669 O   0  0  0  0  0  0  0  0  0  0  0  0
    7.9430  -13.0457   26.5519 C   0  0  0  0  0  0  0  0  0  0  0  0
    8.3638  -12.7503   27.8254 C   0  0  0  0  0  0  0  0  0  0  0  0
   12.4645  -17.1767   24.7196 C   0  0  0  0  0  0  0  0  0  0  0  0
   11.0609  -17.2930   25.3306 C   0  0  2  0  0  0  0  0  0  0  0  0
   10.3049  -16.1858   24.8361 N   0  0  0  0  0  0  0  0  0  0  0  0
   11.2469  -17.3138   26.7850 C   0  0  0  0  0  0  0  0  0  0  0  0
   10.7980  -16.4607   27.5708 O   0  0  0  0  0  0  0  0  0  0  0  0
   11.9777  -18.3619   27.3286 O   0  0  0  0  0  0  0  0  0  0  0  0
  2  1  1  0
  2  3  1  0
  3  5  1  0
  3  4  1  6
  5  6  1  1
  7  5  1  0
  7  8  2  0
  9 10  1  0
 10 20  2  0
 11 10  1  0
 11 12  2  0
 12 13  1  0
 13 19  2  0
 13 14  1  0
 15 14  1  1
 15 16  1  0
 16  7  1  0
 17 15  1  0
 18 17  2  0
 20 19  1  0
 22 23  1  0
 22 21  1  6
 23 17  1  0
 24 22  1  0
 25 24  2  0
 26 24  1  0
M  END
$$$$
