IYA.pdb
     RDKit          3D

 26 26  0  0  1  0  0  0  0  0999 V2000
    6.4054  -12.6494   19.2301 C   0  0  0  0  0  0  0  0  0  0  0  0
    7.6697  -13.0436   18.4686 C   0  0  0  0  0  0  0  0  0  0  0  0
    8.5212  -13.8878   19.3667 C   0  0  2  0  0  0  0  0  0  0  0  0
    8.7339  -13.1639   20.6601 C   0  0  0  0  0  0  0  0  0  0  0  0
    9.7968  -14.3471   18.7211 C   0  0  2  0  0  0  0  0  0  0  0  0
    9.5311  -14.8753   17.3979 N   0  0  0  0  0  0  0  0  0  0  0  0
   10.5642  -15.3191   19.4918 C   0  0  0  0  0  0  0  0  0  0  0  0
   10.4888  -16.5598   19.3053 O   0  0  0  0  0  0  0  0  0  0  0  0
   16.5248  -14.9798   16.4408 O   0  0  0  0  0  0  0  0  0  0  0  0
   15.8303  -15.0214   17.6597 C   0  0  0  0  0  0  0  0  0  0  0  0
   15.1737  -13.9093   18.1424 C   0  0  0  0  0  0  0  0  0  0  0  0
   14.4865  -13.9522   19.3494 C   0  0  0  0  0  0  0  0  0  0  0  0
   14.4295  -15.0961   20.1130 C   0  0  0  0  0  0  0  0  0  0  0  0
   13.7100  -15.1824   21.4009 C   0  0  0  0  0  0  0  0  0  0  0  0
   12.3202  -15.7389   21.2617 C   0  0  2  0  0  0  0  0  0  0  0  0
   11.4485  -14.8730   20.5099 N   0  0  0  0  0  0  0  0  0  0  0  0
   11.7193  -16.1818   22.5367 C   0  0  0  0  0  0  0  0  0  0  0  0
   11.4859  -15.3410   23.4425 O   0  0  0  0  0  0  0  0  0  0  0  0
   15.0942  -16.1902   19.6059 C   0  0  0  0  0  0  0  0  0  0  0  0
   15.7786  -16.1678   18.4156 C   0  0  0  0  0  0  0  0  0  0  0  0
   10.3730  -19.4978   23.6508 C   0  0  0  0  0  0  0  0  0  0  0  0
   10.7939  -18.0517   23.9485 C   0  0  2  0  0  0  0  0  0  0  0  0
   11.3993  -17.5468   22.7567 N   0  0  0  0  0  0  0  0  0  0  0  0
   11.6817  -18.1143   25.1138 C   0  0  0  0  0  0  0  0  0  0  0  0
   12.9076  -17.9069   25.0848 O   0  0  0  0  0  0  0  0  0  0  0  0
   11.1154  -18.4281   26.3422 O   0  0  0  0  0  0  0  0  0  0  0  0
  2  1  1  0
  2  3  1  0
  3  5  1  0
  3  4  1  1
  5  6  1  6
  7  5  1  0
  7  8  2  0
  9 10  1  0
 10 20  2  0
 11 10  1  0
 11 12  2  0
 12 13  1  0
 13 19  2  0
 13 14  1  0
 15 14  1  1
 15 16  1  0
 16  7  1  0
 17 15  1  0
 18 17  2  0
 20 19  1  0
 22 23  1  0
 22 21  1  6
 23 17  1  0
 24 22  1  0
 25 24  2  0
 26 24  1  0
M  END
$$$$
