IYA.pdb
     RDKit          3D

 26 26  0  0  1  0  0  0  0  0999 V2000
    9.1920  -19.1055   29.6420 C   0  0  0  0  0  0  0  0  0  0  0  0
    7.9076  -18.8598   28.8523 C   0  0  0  0  0  0  0  0  0  0  0  0
    8.2766  -18.4923   27.4477 C   0  0  2  0  0  0  0  0  0  0  0  0
    9.2510  -17.3557   27.4801 C   0  0  0  0  0  0  0  0  0  0  0  0
    7.0884  -18.2371   26.5657 C   0  0  2  0  0  0  0  0  0  0  0  0
    6.2146  -19.3932   26.5490 N   0  0  0  0  0  0  0  0  0  0  0  0
    7.4075  -17.8441   25.1977 C   0  0  0  0  0  0  0  0  0  0  0  0
    7.7326  -18.6653   24.3034 O   0  0  0  0  0  0  0  0  0  0  0  0
    8.3798  -12.6989   18.0082 O   0  0  0  0  0  0  0  0  0  0  0  0
    8.0494  -13.1883   19.2813 C   0  0  0  0  0  0  0  0  0  0  0  0
    7.1211  -14.1956   19.4371 C   0  0  0  0  0  0  0  0  0  0  0  0
    6.7951  -14.6792   20.6984 C   0  0  0  0  0  0  0  0  0  0  0  0
    7.3781  -14.1800   21.8411 C   0  0  0  0  0  0  0  0  0  0  0  0
    7.0589  -14.6667   23.1994 C   0  0  0  0  0  0  0  0  0  0  0  0
    7.7277  -15.9725   23.5283 C   0  0  2  0  0  0  0  0  0  0  0  0
    7.3574  -16.4738   24.8269 N   0  0  0  0  0  0  0  0  0  0  0  0
    9.1898  -15.9695   23.3162 C   0  0  0  0  0  0  0  0  0  0  0  0
    9.9221  -15.2318   24.0244 O   0  0  0  0  0  0  0  0  0  0  0  0
    8.3010  -13.1752   21.6546 C   0  0  0  0  0  0  0  0  0  0  0  0
    8.6365  -12.6841   20.4168 C   0  0  0  0  0  0  0  0  0  0  0  0
   11.8151  -18.0023   22.5748 C   0  0  0  0  0  0  0  0  0  0  0  0
   11.1672  -16.7509   21.9653 C   0  0  2  0  0  0  0  0  0  0  0  0
    9.7841  -16.7896   22.3222 N   0  0  0  0  0  0  0  0  0  0  0  0
   11.4356  -16.8101   20.5248 C   0  0  0  0  0  0  0  0  0  0  0  0
   10.5685  -16.9633   19.6465 O   0  0  0  0  0  0  0  0  0  0  0  0
   12.7540  -16.6864   20.1070 O   0  0  0  0  0  0  0  0  0  0  0  0
  2  1  1  0
  2  3  1  0
  3  5  1  0
  3  4  1  1
  5  6  1  6
  7  5  1  0
  7  8  2  0
  9 10  1  0
 10 20  2  0
 11 10  1  0
 11 12  2  0
 12 13  1  0
 13 19  2  0
 13 14  1  0
 15 14  1  1
 15 16  1  0
 16  7  1  0
 17 15  1  0
 18 17  2  0
 20 19  1  0
 22 23  1  0
 22 21  1  1
 23 17  1  0
 24 22  1  0
 25 24  2  0
 26 24  1  0
M  END
$$$$
