IYA.pdb
     RDKit          3D

 26 26  0  0  1  0  0  0  0  0999 V2000
    7.2123  -13.6532   16.8194 C   0  0  0  0  0  0  0  0  0  0  0  0
    8.0696  -14.7041   17.5226 C   0  0  0  0  0  0  0  0  0  0  0  0
    8.4736  -14.1685   18.8620 C   0  0  2  0  0  0  0  0  0  0  0  0
    9.3355  -12.9599   18.6651 C   0  0  0  0  0  0  0  0  0  0  0  0
    9.0905  -15.2041   19.7576 C   0  0  2  0  0  0  0  0  0  0  0  0
    8.3498  -16.4471   19.6766 N   0  0  0  0  0  0  0  0  0  0  0  0
    9.2321  -14.8079   21.1542 C   0  0  0  0  0  0  0  0  0  0  0  0
   10.2594  -14.2449   21.6095 O   0  0  0  0  0  0  0  0  0  0  0  0
    6.7869  -11.9583   29.1593 O   0  0  0  0  0  0  0  0  0  0  0  0
    6.7970  -12.4869   27.8593 C   0  0  0  0  0  0  0  0  0  0  0  0
    7.3930  -11.8057   26.8193 C   0  0  0  0  0  0  0  0  0  0  0  0
    7.4023  -12.3305   25.5326 C   0  0  0  0  0  0  0  0  0  0  0  0
    6.8223  -13.5437   25.2384 C   0  0  0  0  0  0  0  0  0  0  0  0
    6.8108  -14.1356   23.8844 C   0  0  0  0  0  0  0  0  0  0  0  0
    8.1663  -14.6090   23.4383 C   0  0  2  0  0  0  0  0  0  0  0  0
    8.1747  -15.0570   22.0693 N   0  0  0  0  0  0  0  0  0  0  0  0
    8.7971  -15.5787   24.3572 C   0  0  0  0  0  0  0  0  0  0  0  0
    8.8678  -15.3198   25.5860 O   0  0  0  0  0  0  0  0  0  0  0  0
    6.2350  -14.2008   26.2964 C   0  0  0  0  0  0  0  0  0  0  0  0
    6.2155  -13.6989   27.5746 C   0  0  0  0  0  0  0  0  0  0  0  0
    9.7299  -19.1472   23.9310 C   0  0  0  0  0  0  0  0  0  0  0  0
    9.8758  -17.8287   24.7038 C   0  0  2  0  0  0  0  0  0  0  0  0
    9.3266  -16.8034   23.8737 N   0  0  0  0  0  0  0  0  0  0  0  0
   11.3043  -17.6835   25.0016 C   0  0  0  0  0  0  0  0  0  0  0  0
   12.0575  -16.8444   24.4770 O   0  0  0  0  0  0  0  0  0  0  0  0
   11.8605  -18.5448   25.9380 O   0  0  0  0  0  0  0  0  0  0  0  0
  2  1  1  0
  2  3  1  0
  3  5  1  0
  3  4  1  6
  5  6  1  1
  7  5  1  0
  7  8  2  0
  9 10  1  0
 10 20  2  0
 11 10  1  0
 11 12  2  0
 12 13  1  0
 13 19  2  0
 13 14  1  0
 15 14  1  1
 15 16  1  0
 16  7  1  0
 17 15  1  0
 18 17  2  0
 20 19  1  0
 22 23  1  0
 22 21  1  6
 23 17  1  0
 24 22  1  0
 25 24  2  0
 26 24  1  0
M  END
$$$$
