IYA.pdb
     RDKit          3D

 26 26  0  0  1  0  0  0  0  0999 V2000
   10.2382  -21.7814   17.4531 C   0  0  0  0  0  0  0  0  0  0  0  0
    9.4701  -20.4663   17.5716 C   0  0  0  0  0  0  0  0  0  0  0  0
    9.9879  -19.7195   18.7625 C   0  0  2  0  0  0  0  0  0  0  0  0
    9.9729  -20.6277   19.9529 C   0  0  0  0  0  0  0  0  0  0  0  0
    9.2875  -18.4122   18.9981 C   0  0  2  0  0  0  0  0  0  0  0  0
    9.2593  -17.6280   17.7796 N   0  0  0  0  0  0  0  0  0  0  0  0
    9.8309  -17.6075   20.0864 C   0  0  0  0  0  0  0  0  0  0  0  0
   10.9381  -17.0164   20.0194 O   0  0  0  0  0  0  0  0  0  0  0  0
    7.4181  -12.2573   18.1857 O   0  0  0  0  0  0  0  0  0  0  0  0
    7.7065  -13.0606   19.2998 C   0  0  0  0  0  0  0  0  0  0  0  0
    8.8820  -12.9054   20.0033 C   0  0  0  0  0  0  0  0  0  0  0  0
    9.1660  -13.7016   21.1062 C   0  0  0  0  0  0  0  0  0  0  0  0
    8.2955  -14.6737   21.5443 C   0  0  0  0  0  0  0  0  0  0  0  0
    8.5604  -15.5403   22.7116 C   0  0  0  0  0  0  0  0  0  0  0  0
    9.5202  -16.6573   22.4087 C   0  0  2  0  0  0  0  0  0  0  0  0
    9.0969  -17.4656   21.2942 N   0  0  0  0  0  0  0  0  0  0  0  0
    9.8932  -17.4659   23.5877 C   0  0  0  0  0  0  0  0  0  0  0  0
    9.0253  -18.1751   24.1585 O   0  0  0  0  0  0  0  0  0  0  0  0
    7.1303  -14.8057   20.8225 C   0  0  0  0  0  0  0  0  0  0  0  0
    6.8315  -14.0288   19.7302 C   0  0  0  0  0  0  0  0  0  0  0  0
   13.2090  -18.1043   25.2227 C   0  0  0  0  0  0  0  0  0  0  0  0
   11.6845  -18.2757   25.1629 C   0  0  2  0  0  0  0  0  0  0  0  0
   11.2210  -17.4557   24.0884 N   0  0  0  0  0  0  0  0  0  0  0  0
   11.1774  -17.9032   26.4875 C   0  0  0  0  0  0  0  0  0  0  0  0
   11.3965  -18.5359   27.5356 O   0  0  0  0  0  0  0  0  0  0  0  0
   10.3945  -16.7604   26.5824 O   0  0  0  0  0  0  0  0  0  0  0  0
  2  1  1  0
  2  3  1  0
  3  5  1  0
  3  4  1  1
  5  6  1  6
  7  5  1  0
  7  8  2  0
  9 10  1  0
 10 20  2  0
 11 10  1  0
 11 12  2  0
 12 13  1  0
 13 19  2  0
 13 14  1  0
 15 14  1  1
 15 16  1  0
 16  7  1  0
 17 15  1  0
 18 17  2  0
 20 19  1  0
 22 23  1  0
 22 21  1  1
 23 17  1  0
 24 22  1  0
 25 24  2  0
 26 24  1  0
M  END
$$$$
