IYA.pdb
     RDKit          3D

 26 26  0  0  1  0  0  0  0  0999 V2000
   13.6430  -20.1364   20.7086 C   0  0  0  0  0  0  0  0  0  0  0  0
   12.5313  -19.2193   20.2019 C   0  0  0  0  0  0  0  0  0  0  0  0
   12.2097  -18.2250   21.2752 C   0  0  2  0  0  0  0  0  0  0  0  0
   11.9947  -18.9524   22.5663 C   0  0  0  0  0  0  0  0  0  0  0  0
   11.0828  -17.3005   20.9142 C   0  0  2  0  0  0  0  0  0  0  0  0
   11.3384  -16.6687   19.6352 N   0  0  0  0  0  0  0  0  0  0  0  0
   10.7759  -16.2815   21.9117 C   0  0  0  0  0  0  0  0  0  0  0  0
   11.5023  -15.2761   22.1150 O   0  0  0  0  0  0  0  0  0  0  0  0
    6.1801  -11.2758   27.5684 O   0  0  0  0  0  0  0  0  0  0  0  0
    6.5633  -12.2195   26.6027 C   0  0  0  0  0  0  0  0  0  0  0  0
    6.2766  -13.5584   26.7637 C   0  0  0  0  0  0  0  0  0  0  0  0
    6.6567  -14.4914   25.8067 C   0  0  0  0  0  0  0  0  0  0  0  0
    7.3311  -14.1265   24.6635 C   0  0  0  0  0  0  0  0  0  0  0  0
    7.7524  -15.0873   23.6229 C   0  0  0  0  0  0  0  0  0  0  0  0
    9.2085  -15.4508   23.7133 C   0  0  2  0  0  0  0  0  0  0  0  0
    9.6061  -16.4030   22.7082 N   0  0  0  0  0  0  0  0  0  0  0  0
    9.6483  -15.8392   25.0693 C   0  0  0  0  0  0  0  0  0  0  0  0
    9.5153  -17.0299   25.4519 O   0  0  0  0  0  0  0  0  0  0  0  0
    7.6035  -12.7833   24.5301 C   0  0  0  0  0  0  0  0  0  0  0  0
    7.2363  -11.8462   25.4644 C   0  0  0  0  0  0  0  0  0  0  0  0
   10.9222  -13.8465   27.9726 C   0  0  0  0  0  0  0  0  0  0  0  0
   10.7125  -15.1891   27.2581 C   0  0  2  0  0  0  0  0  0  0  0  0
   10.2214  -14.8861   25.9509 N   0  0  0  0  0  0  0  0  0  0  0  0
    9.7937  -15.9627   28.0994 C   0  0  0  0  0  0  0  0  0  0  0  0
    8.5966  -16.1734   27.8362 O   0  0  0  0  0  0  0  0  0  0  0  0
   10.2937  -16.5011   29.2776 O   0  0  0  0  0  0  0  0  0  0  0  0
  2  1  1  0
  2  3  1  0
  3  5  1  0
  3  4  1  1
  5  6  1  6
  7  5  1  0
  7  8  2  0
  9 10  1  0
 10 20  2  0
 11 10  1  0
 11 12  2  0
 12 13  1  0
 13 19  2  0
 13 14  1  0
 15 14  1  1
 15 16  1  0
 16  7  1  0
 17 15  1  0
 18 17  2  0
 20 19  1  0
 22 23  1  0
 22 21  1  1
 23 17  1  0
 24 22  1  0
 25 24  2  0
 26 24  1  0
M  END
$$$$
