AMG.pdb
     RDKit          3D

 18 17  0  0  1  0  0  0  0  0999 V2000
   20.2053  -11.5913  -19.2780 C   0  0  0  0  0  0  0  0  0  0  0  0
   21.2966  -12.4273  -18.6943 C   0  0  2  0  0  0  0  0  0  0  0  0
   20.8520  -13.7655  -18.4627 N   0  0  0  0  0  0  0  0  0  0  0  0
   21.9186  -11.8409  -17.4896 C   0  0  0  0  0  0  0  0  0  0  0  0
   21.4078  -12.0834  -16.3663 O   0  0  0  0  0  0  0  0  0  0  0  0
   27.6969  -12.5670  -15.3308 C   0  0  0  0  0  0  0  0  0  0  0  0
   27.7316  -10.7589  -15.6165 S   0  0  0  0  0  0  0  0  0  0  0  0
   26.0405  -10.1136  -15.4677 C   0  0  0  0  0  0  0  0  0  0  0  0
   25.1424  -10.7164  -16.4838 C   0  0  0  0  0  0  0  0  0  0  0  0
   23.6796  -10.3930  -16.3653 C   0  0  2  0  0  0  0  0  0  0  0  0
   23.0675  -11.0162  -17.5483 N   0  0  0  0  0  0  0  0  0  0  0  0
   23.3817   -8.9359  -16.3756 C   0  0  0  0  0  0  0  0  0  0  0  0
   23.5400   -8.2697  -17.4594 O   0  0  0  0  0  0  0  0  0  0  0  0
   22.9234   -8.1958  -15.2665 N   0  0  0  0  0  0  0  0  0  0  0  0
   22.7413   -6.7465  -15.3700 C   0  0  0  0  0  0  0  0  0  0  0  0
   21.3260   -6.3960  -15.5862 C   0  0  0  0  0  0  0  0  0  0  0  0
   20.3760   -7.3691  -15.8388 O   0  0  0  0  0  0  0  0  0  0  0  0
   20.9622   -5.1991  -15.5436 O   0  0  0  0  0  0  0  0  0  0  0  0
  2  1  1  1
  2  4  1  0
  2  3  1  0
  4  5  2  0
  7  6  1  0
  7  8  1  0
  8  9  1  0
 10  9  1  6
 11  4  1  0
 11 10  1  0
 12 10  1  0
 12 14  1  0
 13 12  2  0
 15 14  1  0
 15 16  1  0
 16 17  1  0
 18 16  2  0
M  END
$$$$
