AMG.pdb
     RDKit          3D

 18 17  0  0  1  0  0  0  0  0999 V2000
   21.6605  -11.5755  -19.4916 C   0  0  0  0  0  0  0  0  0  0  0  0
   22.7467  -12.3421  -18.8110 C   0  0  2  0  0  0  0  0  0  0  0  0
   22.4220  -13.7312  -18.7279 N   0  0  0  0  0  0  0  0  0  0  0  0
   23.1330  -11.7906  -17.4961 C   0  0  0  0  0  0  0  0  0  0  0  0
   22.5178  -12.1824  -16.4717 O   0  0  0  0  0  0  0  0  0  0  0  0
   29.1928  -13.1897  -15.5620 C   0  0  0  0  0  0  0  0  0  0  0  0
   28.4917  -11.5445  -15.9540 S   0  0  0  0  0  0  0  0  0  0  0  0
   26.6889  -11.6157  -15.7464 C   0  0  0  0  0  0  0  0  0  0  0  0
   26.0594  -10.3065  -16.0499 C   0  0  0  0  0  0  0  0  0  0  0  0
   24.5572  -10.2651  -16.0450 C   0  0  2  0  0  0  0  0  0  0  0  0
   24.1685  -10.8379  -17.3424 N   0  0  0  0  0  0  0  0  0  0  0  0
   23.9924   -8.8938  -15.9314 C   0  0  0  0  0  0  0  0  0  0  0  0
   24.2167   -8.2076  -14.8720 O   0  0  0  0  0  0  0  0  0  0  0  0
   23.2091   -8.2573  -16.9157 N   0  0  0  0  0  0  0  0  0  0  0  0
   22.7984   -6.8622  -16.7444 C   0  0  0  0  0  0  0  0  0  0  0  0
   21.5128   -6.7634  -16.0302 C   0  0  0  0  0  0  0  0  0  0  0  0
   20.9448   -5.5358  -15.7410 O   0  0  0  0  0  0  0  0  0  0  0  0
   20.9123   -7.8016  -15.6720 O   0  0  0  0  0  0  0  0  0  0  0  0
  2  1  1  1
  2  4  1  0
  2  3  1  0
  4  5  2  0
  7  6  1  0
  7  8  1  0
  8  9  1  0
 10  9  1  6
 11  4  1  0
 11 10  1  0
 12 10  1  0
 12 14  1  0
 13 12  2  0
 15 14  1  0
 15 16  1  0
 16 17  1  0
 18 16  2  0
M  END
$$$$
