AMG.pdb
     RDKit          3D

 18 17  0  0  1  0  0  0  0  0999 V2000
   25.7736  -32.9401    3.5124 C   0  0  0  0  0  0  0  0  0  0  0  0
   25.5857  -31.4833    3.7829 C   0  0  2  0  0  0  0  0  0  0  0  0
   25.3164  -30.7663    2.5765 N   0  0  0  0  0  0  0  0  0  0  0  0
   26.6904  -30.8708    4.5488 C   0  0  0  0  0  0  0  0  0  0  0  0
   27.8436  -30.8654    4.0473 O   0  0  0  0  0  0  0  0  0  0  0  0
   28.1080  -25.0164    9.5159 C   0  0  0  0  0  0  0  0  0  0  0  0
   26.9942  -25.9907    8.4379 S   0  0  0  0  0  0  0  0  0  0  0  0
   27.8380  -27.5285    7.9675 C   0  0  0  0  0  0  0  0  0  0  0  0
   26.9816  -28.3670    7.0924 C   0  0  0  0  0  0  0  0  0  0  0  0
   27.5836  -29.6497    6.5914 C   0  0  2  0  0  0  0  0  0  0  0  0
   26.5033  -30.2893    5.8257 N   0  0  0  0  0  0  0  0  0  0  0  0
   28.0236  -30.5716    7.6725 C   0  0  0  0  0  0  0  0  0  0  0  0
   27.1491  -31.2709    8.2966 O   0  0  0  0  0  0  0  0  0  0  0  0
   29.3590  -30.7548    8.0858 N   0  0  0  0  0  0  0  0  0  0  0  0
   29.6853  -31.7502    9.1092 C   0  0  0  0  0  0  0  0  0  0  0  0
   29.4358  -31.2295   10.4654 C   0  0  0  0  0  0  0  0  0  0  0  0
   28.8067  -30.0136   10.6630 O   0  0  0  0  0  0  0  0  0  0  0  0
   29.7948  -31.8891   11.4668 O   0  0  0  0  0  0  0  0  0  0  0  0
  2  1  1  6
  2  4  1  0
  2  3  1  0
  4  5  2  0
  7  6  1  0
  7  8  1  0
  8  9  1  0
 10  9  1  1
 11  4  1  0
 11 10  1  0
 12 10  1  0
 12 14  1  0
 13 12  2  0
 15 14  1  0
 15 16  1  0
 16 17  1  0
 18 16  2  0
M  END
$$$$
