AMG.pdb
     RDKit          3D

 18 17  0  0  1  0  0  0  0  0999 V2000
   22.0995  -22.1645  -13.4403 C   0  0  0  0  0  0  0  0  0  0  0  0
   22.0246  -21.0906  -12.4050 C   0  0  2  0  0  0  0  0  0  0  0  0
   21.0520  -20.1042  -12.7560 N   0  0  0  0  0  0  0  0  0  0  0  0
   23.3307  -20.4808  -12.0816 C   0  0  0  0  0  0  0  0  0  0  0  0
   23.7098  -19.4788  -12.7403 O   0  0  0  0  0  0  0  0  0  0  0  0
   26.2218  -20.2486   -5.9478 C   0  0  0  0  0  0  0  0  0  0  0  0
   26.9309  -19.3147   -7.3538 S   0  0  0  0  0  0  0  0  0  0  0  0
   27.0849  -20.4329   -8.7766 C   0  0  0  0  0  0  0  0  0  0  0  0
   25.7542  -20.7878   -9.3294 C   0  0  0  0  0  0  0  0  0  0  0  0
   25.5060  -20.4297  -10.7677 C   0  0  2  0  0  0  0  0  0  0  0  0
   24.1736  -20.9791  -11.0595 N   0  0  0  0  0  0  0  0  0  0  0  0
   26.4913  -21.0179  -11.7140 C   0  0  0  0  0  0  0  0  0  0  0  0
   26.5257  -22.2892  -11.8756 O   0  0  0  0  0  0  0  0  0  0  0  0
   27.4200  -20.2810  -12.4768 N   0  0  0  0  0  0  0  0  0  0  0  0
   28.3741  -20.9713  -13.3472 C   0  0  0  0  0  0  0  0  0  0  0  0
   27.8275  -21.1588  -14.7033 C   0  0  0  0  0  0  0  0  0  0  0  0
   28.5566  -20.8098  -15.8256 O   0  0  0  0  0  0  0  0  0  0  0  0
   26.6829  -21.6415  -14.8575 O   0  0  0  0  0  0  0  0  0  0  0  0
  2  1  1  6
  2  4  1  0
  2  3  1  0
  4  5  2  0
  7  6  1  0
  7  8  1  0
  8  9  1  0
 10  9  1  1
 11  4  1  0
 11 10  1  0
 12 10  1  0
 12 14  1  0
 13 12  2  0
 15 14  1  0
 15 16  1  0
 16 17  1  0
 18 16  2  0
M  END
$$$$
