AMG.pdb
     RDKit          3D

 18 17  0  0  1  0  0  0  0  0999 V2000
   26.8514  -23.1839  -16.0626 C   0  0  0  0  0  0  0  0  0  0  0  0
   25.8184  -22.1068  -16.0022 C   0  0  2  0  0  0  0  0  0  0  0  0
   26.4205  -20.8123  -16.0641 N   0  0  0  0  0  0  0  0  0  0  0  0
   24.8964  -22.2274  -14.8544 C   0  0  0  0  0  0  0  0  0  0  0  0
   24.2447  -23.2934  -14.7117 O   0  0  0  0  0  0  0  0  0  0  0  0
   25.6567  -19.8953   -8.8790 C   0  0  0  0  0  0  0  0  0  0  0  0
   26.6720  -21.0787   -9.8386 S   0  0  0  0  0  0  0  0  0  0  0  0
   25.6386  -21.8094  -11.1411 C   0  0  0  0  0  0  0  0  0  0  0  0
   24.5815  -20.8662  -11.5829 C   0  0  0  0  0  0  0  0  0  0  0  0
   23.7736  -21.2749  -12.7823 C   0  0  2  0  0  0  0  0  0  0  0  0
   24.7164  -21.1906  -13.9077 N   0  0  0  0  0  0  0  0  0  0  0  0
   22.6108  -20.3890  -13.0562 C   0  0  0  0  0  0  0  0  0  0  0  0
   21.7223  -20.2194  -12.1477 O   0  0  0  0  0  0  0  0  0  0  0  0
   22.3898  -19.6935  -14.2625 N   0  0  0  0  0  0  0  0  0  0  0  0
   21.2232  -18.8206  -14.4087 C   0  0  0  0  0  0  0  0  0  0  0  0
   20.0722  -19.5501  -14.9707 C   0  0  0  0  0  0  0  0  0  0  0  0
   20.1492  -20.9010  -15.2575 O   0  0  0  0  0  0  0  0  0  0  0  0
   18.9983  -18.9486  -15.1982 O   0  0  0  0  0  0  0  0  0  0  0  0
  2  1  1  1
  2  4  1  0
  2  3  1  0
  4  5  2  0
  7  6  1  0
  7  8  1  0
  8  9  1  0
 10  9  1  1
 11  4  1  0
 11 10  1  0
 12 10  1  0
 12 14  1  0
 13 12  2  0
 15 14  1  0
 15 16  1  0
 16 17  1  0
 18 16  2  0
M  END
$$$$
