AMG.pdb
     RDKit          3D

 18 17  0  0  1  0  0  0  0  0999 V2000
   25.9163  -19.8493  -13.9223 C   0  0  0  0  0  0  0  0  0  0  0  0
   26.8977  -20.7124  -13.1992 C   0  0  2  0  0  0  0  0  0  0  0  0
   27.2784  -21.8366  -13.9949 N   0  0  0  0  0  0  0  0  0  0  0  0
   26.4536  -21.1212  -11.8510 C   0  0  0  0  0  0  0  0  0  0  0  0
   25.7936  -22.1846  -11.7283 O   0  0  0  0  0  0  0  0  0  0  0  0
   27.5366  -19.9960   -4.1610 C   0  0  0  0  0  0  0  0  0  0  0  0
   28.0809  -19.8063   -5.8987 S   0  0  0  0  0  0  0  0  0  0  0  0
   26.6249  -19.9114   -6.9793 C   0  0  0  0  0  0  0  0  0  0  0  0
   27.0113  -19.8541   -8.4110 C   0  0  0  0  0  0  0  0  0  0  0  0
   26.1827  -20.6681   -9.3645 C   0  0  2  0  0  0  0  0  0  0  0  0
   26.7410  -20.3636  -10.6904 N   0  0  0  0  0  0  0  0  0  0  0  0
   24.7367  -20.3198   -9.3553 C   0  0  0  0  0  0  0  0  0  0  0  0
   24.3403  -19.2659   -9.9681 O   0  0  0  0  0  0  0  0  0  0  0  0
   23.7281  -21.0687   -8.7152 N   0  0  0  0  0  0  0  0  0  0  0  0
   22.3538  -20.5658   -8.6657 C   0  0  0  0  0  0  0  0  0  0  0  0
   21.6307  -20.8513   -9.9181 C   0  0  0  0  0  0  0  0  0  0  0  0
   20.3180  -20.4533  -10.0957 O   0  0  0  0  0  0  0  0  0  0  0  0
   22.2025  -21.4652  -10.8470 O   0  0  0  0  0  0  0  0  0  0  0  0
  2  1  1  6
  2  4  1  0
  2  3  1  0
  4  5  2  0
  7  6  1  0
  7  8  1  0
  8  9  1  0
 10  9  1  1
 11  4  1  0
 11 10  1  0
 12 10  1  0
 12 14  1  0
 13 12  2  0
 15 14  1  0
 15 16  1  0
 16 17  1  0
 18 16  2  0
M  END
$$$$
