AMG.pdb
     RDKit          3D

 18 17  0  0  1  0  0  0  0  0999 V2000
   21.7822  -22.1151  -12.3837 C   0  0  0  0  0  0  0  0  0  0  0  0
   22.2878  -21.0526  -13.3037 C   0  0  2  0  0  0  0  0  0  0  0  0
   22.7550  -21.6147  -14.5316 N   0  0  0  0  0  0  0  0  0  0  0  0
   23.2946  -20.1619  -12.6912 C   0  0  0  0  0  0  0  0  0  0  0  0
   23.1334  -19.7971  -11.4986 O   0  0  0  0  0  0  0  0  0  0  0  0
   24.4175  -20.7438   -9.3070 C   0  0  0  0  0  0  0  0  0  0  0  0
   26.0409  -20.4529  -10.1019 S   0  0  0  0  0  0  0  0  0  0  0  0
   26.3333  -21.7634  -11.3248 C   0  0  0  0  0  0  0  0  0  0  0  0
   26.0121  -21.3006  -12.6977 C   0  0  0  0  0  0  0  0  0  0  0  0
   25.8067  -19.8229  -12.8787 C   0  0  2  0  0  0  0  0  0  0  0  0
   24.4344  -19.7019  -13.3931 N   0  0  0  0  0  0  0  0  0  0  0  0
   26.7453  -19.1983  -13.8489 C   0  0  0  0  0  0  0  0  0  0  0  0
   28.0082  -19.2854  -13.6466 O   0  0  0  0  0  0  0  0  0  0  0  0
   26.3608  -18.4981  -15.0106 N   0  0  0  0  0  0  0  0  0  0  0  0
   26.8536  -18.9190  -16.3237 C   0  0  0  0  0  0  0  0  0  0  0  0
   27.5254  -17.8113  -17.0269 C   0  0  0  0  0  0  0  0  0  0  0  0
   28.8256  -17.9340  -17.4824 O   0  0  0  0  0  0  0  0  0  0  0  0
   26.9203  -16.7332  -17.2224 O   0  0  0  0  0  0  0  0  0  0  0  0
  2  1  1  1
  2  4  1  0
  2  3  1  0
  4  5  2  0
  7  6  1  0
  7  8  1  0
  8  9  1  0
 10  9  1  6
 11  4  1  0
 11 10  1  0
 12 10  1  0
 12 14  1  0
 13 12  2  0
 15 14  1  0
 15 16  1  0
 16 17  1  0
 18 16  2  0
M  END
$$$$
