AMG.pdb
     RDKit          3D

 18 17  0  0  1  0  0  0  0  0999 V2000
   27.8866  -22.3189  -15.8891 C   0  0  0  0  0  0  0  0  0  0  0  0
   27.0275  -21.2388  -15.3182 C   0  0  2  0  0  0  0  0  0  0  0  0
   27.7589  -20.0191  -15.1785 N   0  0  0  0  0  0  0  0  0  0  0  0
   26.3488  -21.6170  -14.0618 C   0  0  0  0  0  0  0  0  0  0  0  0
   25.6398  -22.6555  -14.0465 O   0  0  0  0  0  0  0  0  0  0  0  0
   26.2885  -19.9314   -6.3125 C   0  0  0  0  0  0  0  0  0  0  0  0
   27.0901  -19.8821   -7.9578 S   0  0  0  0  0  0  0  0  0  0  0  0
   25.9592  -20.6102   -9.1782 C   0  0  0  0  0  0  0  0  0  0  0  0
   26.5532  -20.5974  -10.5381 C   0  0  0  0  0  0  0  0  0  0  0  0
   25.7026  -21.1460  -11.6489 C   0  0  2  0  0  0  0  0  0  0  0  0
   26.4642  -20.8570  -12.8732 N   0  0  0  0  0  0  0  0  0  0  0  0
   24.3613  -20.5115  -11.7507 C   0  0  0  0  0  0  0  0  0  0  0  0
   24.2665  -19.3082  -12.1827 O   0  0  0  0  0  0  0  0  0  0  0  0
   23.1438  -21.1335  -11.4066 N   0  0  0  0  0  0  0  0  0  0  0  0
   21.8810  -20.4016  -11.5256 C   0  0  0  0  0  0  0  0  0  0  0  0
   21.1036  -20.8558  -12.6927 C   0  0  0  0  0  0  0  0  0  0  0  0
   19.7744  -20.5066  -12.8497 O   0  0  0  0  0  0  0  0  0  0  0  0
   21.6430  -21.5719  -13.5661 O   0  0  0  0  0  0  0  0  0  0  0  0
  2  1  1  1
  2  4  1  0
  2  3  1  0
  4  5  2  0
  7  6  1  0
  7  8  1  0
  8  9  1  0
 10  9  1  1
 11  4  1  0
 11 10  1  0
 12 10  1  0
 12 14  1  0
 13 12  2  0
 15 14  1  0
 15 16  1  0
 16 17  1  0
 18 16  2  0
M  END
$$$$
