AMG.pdb
     RDKit          3D

 18 17  0  0  1  0  0  0  0  0999 V2000
   19.3586  -11.2992  -19.4496 C   0  0  0  0  0  0  0  0  0  0  0  0
   20.1012  -10.0159  -19.2696 C   0  0  2  0  0  0  0  0  0  0  0  0
   21.3345  -10.0293  -19.9913 N   0  0  0  0  0  0  0  0  0  0  0  0
   20.2978   -9.6329  -17.8565 C   0  0  0  0  0  0  0  0  0  0  0  0
   19.2915   -9.5492  -17.1071 O   0  0  0  0  0  0  0  0  0  0  0  0
   23.3099  -14.1959  -14.7169 C   0  0  0  0  0  0  0  0  0  0  0  0
   23.8839  -12.4640  -14.8691 S   0  0  0  0  0  0  0  0  0  0  0  0
   22.4610  -11.4134  -15.2813 C   0  0  0  0  0  0  0  0  0  0  0  0
   22.8695   -9.9976  -15.4567 C   0  0  0  0  0  0  0  0  0  0  0  0
   21.7988   -9.0376  -15.8933 C   0  0  2  0  0  0  0  0  0  0  0  0
   21.5744   -9.3560  -17.3114 N   0  0  0  0  0  0  0  0  0  0  0  0
   22.1864   -7.6068  -15.7728 C   0  0  0  0  0  0  0  0  0  0  0  0
   23.0491   -7.1188  -16.5859 O   0  0  0  0  0  0  0  0  0  0  0  0
   21.6732   -6.7073  -14.8162 N   0  0  0  0  0  0  0  0  0  0  0  0
   22.1454   -5.3217  -14.7773 C   0  0  0  0  0  0  0  0  0  0  0  0
   21.3730   -4.5166  -13.8140 C   0  0  0  0  0  0  0  0  0  0  0  0
   21.7325   -3.2148  -13.5153 O   0  0  0  0  0  0  0  0  0  0  0  0
   20.3704   -5.0072  -13.2475 O   0  0  0  0  0  0  0  0  0  0  0  0
  2  1  1  1
  2  4  1  0
  2  3  1  0
  4  5  2  0
  7  6  1  0
  7  8  1  0
  8  9  1  0
 10  9  1  6
 11  4  1  0
 11 10  1  0
 12 10  1  0
 12 14  1  0
 13 12  2  0
 15 14  1  0
 15 16  1  0
 16 17  1  0
 18 16  2  0
M  END
$$$$
