YKL.pdb
     RDKit          3D

 30 30  0  0  1  0  0  0  0  0999 V2000
   30.7550  -16.1585  -19.4781 O   0  0  0  0  0  0  0  0  0  0  0  0
   29.8827  -16.4708  -18.4325 C   0  0  0  0  0  0  0  0  0  0  0  0
   28.7169  -15.7618  -18.2456 C   0  0  0  0  0  0  0  0  0  0  0  0
   27.8420  -16.0521  -17.2214 C   0  0  0  0  0  0  0  0  0  0  0  0
   28.1038  -17.0789  -16.3309 C   0  0  0  0  0  0  0  0  0  0  0  0
   27.1184  -17.3450  -15.2441 C   0  0  0  0  0  0  0  0  0  0  0  0
   26.4537  -18.7151  -15.4298 C   0  0  2  0  0  0  0  0  0  0  0  0
   25.7030  -18.6570  -16.6492 N   0  0  0  0  0  0  0  0  0  0  0  0
   25.5398  -19.0447  -14.3113 C   0  0  0  0  0  0  0  0  0  0  0  0
   24.4508  -18.4147  -14.1258 O   0  0  0  0  0  0  0  0  0  0  0  0
   29.2629  -17.8028  -16.4963 C   0  0  0  0  0  0  0  0  0  0  0  0
   30.1371  -17.4918  -17.5421 C   0  0  0  0  0  0  0  0  0  0  0  0
   25.7995  -20.0822  -13.3628 N   0  0  0  0  0  0  0  0  0  0  0  0
   24.8503  -20.4764  -12.3573 C   0  0  1  0  0  0  0  0  0  0  0  0
   23.9659  -21.6161  -12.8304 C   0  0  0  0  0  0  0  0  0  0  0  0
   23.0039  -21.1847  -13.9040 C   0  0  0  0  0  0  0  0  0  0  0  0
   22.1413  -22.4114  -14.2209 C   0  0  0  0  0  0  0  0  0  0  0  0
   21.1406  -22.0938  -15.3110 C   0  0  0  0  0  0  0  0  0  0  0  0
   20.3947  -23.3167  -15.5606 N   0  0  0  0  0  0  0  0  0  0  0  0
   25.5705  -21.0028  -11.1554 C   0  0  0  0  0  0  0  0  0  0  0  0
   26.1914  -22.0908  -11.2546 O   0  0  0  0  0  0  0  0  0  0  0  0
   28.7655  -20.6565   -8.6747 C   0  0  0  0  0  0  0  0  0  0  0  0
   27.7544  -19.5514   -8.3455 C   0  0  2  0  0  0  0  0  0  0  0  0
   28.4201  -18.5028   -7.5197 C   0  0  0  0  0  0  0  0  0  0  0  0
   26.5302  -20.1309   -7.6991 C   0  0  0  0  0  0  0  0  0  0  0  0
   25.7551  -20.9754   -8.6326 C   0  0  2  0  0  0  0  0  0  0  0  0
   25.5559  -20.2885   -9.9209 N   0  0  0  0  0  0  0  0  0  0  0  0
   24.4843  -21.4197   -8.0761 C   0  0  0  0  0  0  0  0  0  0  0  0
   23.4202  -21.0323   -8.6715 O   0  0  0  0  0  0  0  0  0  0  0  0
   24.2652  -22.2180   -6.9774 O   0  0  0  0  0  0  0  0  0  0  0  0
  1  2  1  0
  2  3  2  0
  3  4  1  0
  5  4  2  0
  5  6  1  0
  7  6  1  0
  7  8  1  6
  9  7  1  0
 10  9  2  0
 11  5  1  0
 12  2  1  0
 12 11  2  0
 13  9  1  0
 14 13  1  0
 15 16  1  0
 14 15  1  6
 17 16  1  0
 18 17  1  0
 19 18  1  0
 20 21  2  0
 20 14  1  0
 23 22  1  1
 23 25  1  0
 24 23  1  0
 26 25  1  1
 26 27  1  0
 27 20  1  0
 28 30  1  0
 28 26  1  0
 29 28  2  0
M  END
$$$$
