YKL.pdb
     RDKit          3D

 30 30  0  0  1  0  0  0  0  0999 V2000
   15.7279  -12.4306  -19.3791 O   0  0  0  0  0  0  0  0  0  0  0  0
   15.8506  -13.8027  -19.1471 C   0  0  0  0  0  0  0  0  0  0  0  0
   15.0386  -14.4439  -18.2379 C   0  0  0  0  0  0  0  0  0  0  0  0
   15.1419  -15.7959  -17.9930 C   0  0  0  0  0  0  0  0  0  0  0  0
   16.0760  -16.5708  -18.6585 C   0  0  0  0  0  0  0  0  0  0  0  0
   16.1386  -18.0283  -18.3509 C   0  0  0  0  0  0  0  0  0  0  0  0
   16.7050  -18.2684  -16.9455 C   0  0  2  0  0  0  0  0  0  0  0  0
   18.0934  -17.9156  -16.9853 N   0  0  0  0  0  0  0  0  0  0  0  0
   16.5747  -19.6844  -16.5293 C   0  0  0  0  0  0  0  0  0  0  0  0
   17.3394  -20.5918  -16.9864 O   0  0  0  0  0  0  0  0  0  0  0  0
   16.8998  -15.9535  -19.5726 C   0  0  0  0  0  0  0  0  0  0  0  0
   16.7785  -14.5804  -19.8062 C   0  0  0  0  0  0  0  0  0  0  0  0
   15.5960  -20.1423  -15.5934 N   0  0  0  0  0  0  0  0  0  0  0  0
   15.4949  -21.5153  -15.1784 C   0  0  1  0  0  0  0  0  0  0  0  0
   14.5883  -21.6757  -13.9712 C   0  0  0  0  0  0  0  0  0  0  0  0
   14.6301  -23.0700  -13.4069 C   0  0  0  0  0  0  0  0  0  0  0  0
   13.7435  -23.0502  -12.1567 C   0  0  0  0  0  0  0  0  0  0  0  0
   13.7509  -24.4013  -11.4750 C   0  0  0  0  0  0  0  0  0  0  0  0
   12.8115  -24.3145  -10.3686 N   0  0  0  0  0  0  0  0  0  0  0  0
   14.8627  -22.3300  -16.2633 C   0  0  0  0  0  0  0  0  0  0  0  0
   13.8356  -21.8815  -16.8317 O   0  0  0  0  0  0  0  0  0  0  0  0
   16.2031  -26.5966  -20.2914 C   0  0  0  0  0  0  0  0  0  0  0  0
   15.1503  -25.5737  -19.8472 C   0  0  2  0  0  0  0  0  0  0  0  0
   14.6083  -24.8706  -21.0458 C   0  0  0  0  0  0  0  0  0  0  0  0
   15.7198  -24.6428  -18.8170 C   0  0  0  0  0  0  0  0  0  0  0  0
   14.7831  -24.4128  -17.6967 C   0  0  2  0  0  0  0  0  0  0  0  0
   15.4104  -23.5896  -16.6478 N   0  0  0  0  0  0  0  0  0  0  0  0
   14.2479  -25.6481  -17.1401 C   0  0  0  0  0  0  0  0  0  0  0  0
   14.6931  -26.0134  -15.9976 O   0  0  0  0  0  0  0  0  0  0  0  0
   13.3075  -26.4927  -17.6828 O   0  0  0  0  0  0  0  0  0  0  0  0
  1  2  1  0
  2  3  2  0
  3  4  1  0
  5  4  2  0
  5  6  1  0
  7  6  1  0
  7  8  1  6
  9  7  1  0
 10  9  2  0
 11  5  1  0
 12  2  1  0
 12 11  2  0
 13  9  1  0
 14 13  1  0
 15 16  1  0
 14 15  1  1
 17 16  1  0
 18 17  1  0
 19 18  1  0
 20 21  2  0
 20 14  1  0
 23 22  1  6
 23 25  1  0
 24 23  1  0
 26 25  1  6
 26 27  1  0
 27 20  1  0
 28 30  1  0
 28 26  1  0
 29 28  2  0
M  END
$$$$
