YKL.pdb
     RDKit          3D

 30 30  0  0  1  0  0  0  0  0999 V2000
   26.8317  -16.2084  -16.1206 O   0  0  0  0  0  0  0  0  0  0  0  0
   25.9953  -15.0958  -16.2392 C   0  0  0  0  0  0  0  0  0  0  0  0
   25.8422  -14.4487  -17.4452 C   0  0  0  0  0  0  0  0  0  0  0  0
   25.0228  -13.3497  -17.5854 C   0  0  0  0  0  0  0  0  0  0  0  0
   24.3140  -12.8480  -16.5076 C   0  0  0  0  0  0  0  0  0  0  0  0
   23.4432  -11.6570  -16.7225 C   0  0  0  0  0  0  0  0  0  0  0  0
   21.9849  -12.0769  -16.9467 C   0  0  2  0  0  0  0  0  0  0  0  0
   21.9391  -12.7937  -18.1868 N   0  0  0  0  0  0  0  0  0  0  0  0
   21.0770  -10.9088  -17.0264 C   0  0  0  0  0  0  0  0  0  0  0  0
   21.0243  -10.1685  -18.0591 O   0  0  0  0  0  0  0  0  0  0  0  0
   24.4498  -13.4773  -15.2908 C   0  0  0  0  0  0  0  0  0  0  0  0
   25.2864  -14.5909  -15.1701 C   0  0  0  0  0  0  0  0  0  0  0  0
   20.1974  -10.5225  -15.9679 N   0  0  0  0  0  0  0  0  0  0  0  0
   19.2632   -9.4359  -16.0865 C   0  0  1  0  0  0  0  0  0  0  0  0
   17.9068   -9.7903  -15.5038 C   0  0  0  0  0  0  0  0  0  0  0  0
   16.9369   -8.6421  -15.5748 C   0  0  0  0  0  0  0  0  0  0  0  0
   15.6021   -9.1787  -15.0460 C   0  0  0  0  0  0  0  0  0  0  0  0
   14.5074   -8.1473  -15.2140 C   0  0  0  0  0  0  0  0  0  0  0  0
   13.2674   -8.7855  -14.8025 N   0  0  0  0  0  0  0  0  0  0  0  0
   19.7441   -8.2617  -15.2924 C   0  0  0  0  0  0  0  0  0  0  0  0
   20.2959   -8.4711  -14.1830 O   0  0  0  0  0  0  0  0  0  0  0  0
   22.6458   -3.0903  -15.7884 C   0  0  0  0  0  0  0  0  0  0  0  0
   21.6460   -3.8846  -14.9389 C   0  0  2  0  0  0  0  0  0  0  0  0
   22.2483   -4.1690  -13.6044 C   0  0  0  0  0  0  0  0  0  0  0  0
   21.1986   -5.1189  -15.6660 C   0  0  0  0  0  0  0  0  0  0  0  0
   20.0456   -5.7666  -15.0052 C   0  0  2  0  0  0  0  0  0  0  0  0
   19.5821   -6.9312  -15.7799 N   0  0  0  0  0  0  0  0  0  0  0  0
   18.9489   -4.8445  -14.7426 C   0  0  0  0  0  0  0  0  0  0  0  0
   18.0734   -4.7027  -15.6647 O   0  0  0  0  0  0  0  0  0  0  0  0
   18.7173   -4.0914  -13.6150 O   0  0  0  0  0  0  0  0  0  0  0  0
  1  2  1  0
  2  3  2  0
  3  4  1  0
  5  4  2  0
  5  6  1  0
  7  6  1  0
  7  8  1  6
  9  7  1  0
 10  9  2  0
 11  5  1  0
 12  2  1  0
 12 11  2  0
 13  9  1  0
 14 13  1  0
 15 16  1  0
 14 15  1  1
 17 16  1  0
 18 17  1  0
 19 18  1  0
 20 21  2  0
 20 14  1  0
 23 22  1  6
 23 25  1  0
 24 23  1  0
 26 25  1  6
 26 27  1  0
 27 20  1  0
 28 30  1  0
 28 26  1  0
 29 28  2  0
M  END
$$$$
