YKL.pdb
     RDKit          3D

 30 30  0  0  1  0  0  0  0  0999 V2000
   20.4056  -17.0752  -16.2676 O   0  0  0  0  0  0  0  0  0  0  0  0
   20.9773  -17.7468  -15.1843 C   0  0  0  0  0  0  0  0  0  0  0  0
   22.3248  -17.6459  -14.9180 C   0  0  0  0  0  0  0  0  0  0  0  0
   22.9100  -18.2994  -13.8554 C   0  0  0  0  0  0  0  0  0  0  0  0
   22.1581  -19.0913  -13.0049 C   0  0  0  0  0  0  0  0  0  0  0  0
   22.8485  -19.7720  -11.8723 C   0  0  0  0  0  0  0  0  0  0  0  0
   23.8295  -20.8336  -12.3863 C   0  0  2  0  0  0  0  0  0  0  0  0
   23.0481  -21.9538  -12.8202 N   0  0  0  0  0  0  0  0  0  0  0  0
   24.7706  -21.2766  -11.3312 C   0  0  0  0  0  0  0  0  0  0  0  0
   24.3845  -21.9600  -10.3306 O   0  0  0  0  0  0  0  0  0  0  0  0
   20.8085  -19.2085  -13.2497 C   0  0  0  0  0  0  0  0  0  0  0  0
   20.2345  -18.5370  -14.3333 C   0  0  0  0  0  0  0  0  0  0  0  0
   26.1688  -20.9798  -11.3491 N   0  0  0  0  0  0  0  0  0  0  0  0
   27.0823  -21.4626  -10.3492 C   0  0  1  0  0  0  0  0  0  0  0  0
   28.5054  -21.5386  -10.8729 C   0  0  0  0  0  0  0  0  0  0  0  0
   29.4751  -22.0129   -9.8247 C   0  0  0  0  0  0  0  0  0  0  0  0
   30.8636  -21.9534  -10.4710 C   0  0  0  0  0  0  0  0  0  0  0  0
   31.9251  -22.4263   -9.5014 C   0  0  0  0  0  0  0  0  0  0  0  0
   33.1915  -22.3772  -10.2141 N   0  0  0  0  0  0  0  0  0  0  0  0
   27.1310  -20.5058   -9.1992 C   0  0  0  0  0  0  0  0  0  0  0  0
   26.9429  -19.2839   -9.4247 O   0  0  0  0  0  0  0  0  0  0  0  0
   28.8780  -18.9961   -4.4731 C   0  0  0  0  0  0  0  0  0  0  0  0
   27.5907  -19.8084   -4.2862 C   0  0  2  0  0  0  0  0  0  0  0  0
   27.6414  -20.5199   -2.9763 C   0  0  0  0  0  0  0  0  0  0  0  0
   27.3703  -20.7249   -5.4540 C   0  0  0  0  0  0  0  0  0  0  0  0
   27.5265  -20.0258   -6.7471 C   0  0  2  0  0  0  0  0  0  0  0  0
   27.3849  -20.9657   -7.8732 N   0  0  0  0  0  0  0  0  0  0  0  0
   28.7743  -19.2803   -6.8434 C   0  0  0  0  0  0  0  0  0  0  0  0
   29.8104  -19.9254   -7.2272 O   0  0  0  0  0  0  0  0  0  0  0  0
   28.9971  -17.9493   -6.5765 O   0  0  0  0  0  0  0  0  0  0  0  0
  1  2  1  0
  2  3  2  0
  3  4  1  0
  5  4  2  0
  5  6  1  0
  7  6  1  0
  7  8  1  1
  9  7  1  0
 10  9  2  0
 11  5  1  0
 12  2  1  0
 12 11  2  0
 13  9  1  0
 14 13  1  0
 15 16  1  0
 14 15  1  6
 17 16  1  0
 18 17  1  0
 19 18  1  0
 20 21  2  0
 20 14  1  0
 23 22  1  6
 23 25  1  0
 24 23  1  0
 26 25  1  1
 26 27  1  0
 27 20  1  0
 28 30  1  0
 28 26  1  0
 29 28  2  0
M  END
$$$$
