YKL.pdb
     RDKit          3D

 30 30  0  0  1  0  0  0  0  0999 V2000
   14.5640  -19.9293  -12.5758 O   0  0  0  0  0  0  0  0  0  0  0  0
   15.9231  -20.2441  -12.6478 C   0  0  0  0  0  0  0  0  0  0  0  0
   16.5072  -21.0820  -11.7238 C   0  0  0  0  0  0  0  0  0  0  0  0
   17.8454  -21.4062  -11.7753 C   0  0  0  0  0  0  0  0  0  0  0  0
   18.6638  -20.8968  -12.7686 C   0  0  0  0  0  0  0  0  0  0  0  0
   20.1032  -21.2851  -12.7717 C   0  0  0  0  0  0  0  0  0  0  0  0
   20.4397  -22.1340  -14.0044 C   0  0  2  0  0  0  0  0  0  0  0  0
   19.8516  -23.4248  -13.7999 N   0  0  0  0  0  0  0  0  0  0  0  0
   21.9016  -22.2893  -14.1889 C   0  0  0  0  0  0  0  0  0  0  0  0
   22.6100  -22.9787  -13.3887 O   0  0  0  0  0  0  0  0  0  0  0  0
   18.1039  -20.0567  -13.7045 C   0  0  0  0  0  0  0  0  0  0  0  0
   16.7439  -19.7405  -13.6342 C   0  0  0  0  0  0  0  0  0  0  0  0
   22.6269  -21.6890  -15.2645 N   0  0  0  0  0  0  0  0  0  0  0  0
   24.0511  -21.8184  -15.4140 C   0  0  1  0  0  0  0  0  0  0  0  0
   24.5110  -21.4295  -16.8076 C   0  0  0  0  0  0  0  0  0  0  0  0
   26.0101  -21.4340  -16.9363 C   0  0  0  0  0  0  0  0  0  0  0  0
   26.4325  -22.9073  -16.9447 C   0  0  0  0  0  0  0  0  0  0  0  0
   26.2354  -23.5119  -18.3180 C   0  0  0  0  0  0  0  0  0  0  0  0
   26.6800  -24.8936  -18.2323 N   0  0  0  0  0  0  0  0  0  0  0  0
   24.7485  -20.8738  -14.4856 C   0  0  0  0  0  0  0  0  0  0  0  0
   24.4731  -19.6496  -14.5542 O   0  0  0  0  0  0  0  0  0  0  0  0
   24.9990  -19.9578  -10.2682 C   0  0  0  0  0  0  0  0  0  0  0  0
   25.7300  -21.2728  -10.5659 C   0  0  2  0  0  0  0  0  0  0  0  0
   26.0821  -21.9439   -9.2814 C   0  0  0  0  0  0  0  0  0  0  0  0
   26.9141  -21.0293  -11.4553 C   0  0  0  0  0  0  0  0  0  0  0  0
   26.5255  -20.4178  -12.7439 C   0  0  2  0  0  0  0  0  0  0  0  0
   25.7063  -21.3478  -13.5410 N   0  0  0  0  0  0  0  0  0  0  0  0
   27.6661  -19.9372  -13.5121 C   0  0  0  0  0  0  0  0  0  0  0  0
   28.0899  -20.6878  -14.4575 O   0  0  0  0  0  0  0  0  0  0  0  0
   28.3635  -18.7611  -13.3609 O   0  0  0  0  0  0  0  0  0  0  0  0
  1  2  1  0
  2  3  2  0
  3  4  1  0
  5  4  2  0
  5  6  1  0
  7  6  1  0
  7  8  1  1
  9  7  1  0
 10  9  2  0
 11  5  1  0
 12  2  1  0
 12 11  2  0
 13  9  1  0
 14 13  1  0
 15 16  1  0
 14 15  1  6
 17 16  1  0
 18 17  1  0
 19 18  1  0
 20 21  2  0
 20 14  1  0
 23 22  1  1
 23 25  1  0
 24 23  1  0
 26 25  1  1
 26 27  1  0
 27 20  1  0
 28 30  1  0
 28 26  1  0
 29 28  2  0
M  END
$$$$
