YKL.pdb
     RDKit          3D

 30 30  0  0  1  0  0  0  0  0999 V2000
   14.3295  -14.6368  -22.5204 O   0  0  0  0  0  0  0  0  0  0  0  0
   15.2278  -13.9237  -21.7227 C   0  0  0  0  0  0  0  0  0  0  0  0
   16.3804  -14.5126  -21.2519 C   0  0  0  0  0  0  0  0  0  0  0  0
   17.2804  -13.8287  -20.4639 C   0  0  0  0  0  0  0  0  0  0  0  0
   17.0586  -12.5088  -20.1110 C   0  0  0  0  0  0  0  0  0  0  0  0
   18.0697  -11.8224  -19.2570 C   0  0  0  0  0  0  0  0  0  0  0  0
   18.9437  -10.8784  -20.0927 C   0  0  2  0  0  0  0  0  0  0  0  0
   19.8256  -11.6986  -20.8695 N   0  0  0  0  0  0  0  0  0  0  0  0
   19.7475   -9.9688  -19.2433 C   0  0  0  0  0  0  0  0  0  0  0  0
   20.9015  -10.2921  -18.8178 O   0  0  0  0  0  0  0  0  0  0  0  0
   15.9135  -11.8973  -20.5691 C   0  0  0  0  0  0  0  0  0  0  0  0
   15.0133  -12.6092  -21.3675 C   0  0  0  0  0  0  0  0  0  0  0  0
   19.3022   -8.6723  -18.8382 N   0  0  0  0  0  0  0  0  0  0  0  0
   20.1060   -7.7838  -18.0432 C   0  0  1  0  0  0  0  0  0  0  0  0
   19.5742   -6.3620  -18.0720 C   0  0  0  0  0  0  0  0  0  0  0  0
   19.8687   -5.6684  -19.3744 C   0  0  0  0  0  0  0  0  0  0  0  0
   19.3562   -4.2324  -19.2176 C   0  0  0  0  0  0  0  0  0  0  0  0
   19.4743   -3.4773  -20.5239 C   0  0  0  0  0  0  0  0  0  0  0  0
   19.0262   -2.1191  -20.2616 N   0  0  0  0  0  0  0  0  0  0  0  0
   20.0555   -8.1996  -16.6062 C   0  0  0  0  0  0  0  0  0  0  0  0
   18.9434   -8.5049  -16.1069 O   0  0  0  0  0  0  0  0  0  0  0  0
   21.7159  -11.6060  -14.7685 C   0  0  0  0  0  0  0  0  0  0  0  0
   22.8165  -10.5466  -14.9044 C   0  0  2  0  0  0  0  0  0  0  0  0
   24.1382  -11.1651  -14.5959 C   0  0  0  0  0  0  0  0  0  0  0  0
   22.5056   -9.3498  -14.0540 C   0  0  0  0  0  0  0  0  0  0  0  0
   21.2166   -8.7261  -14.4213 C   0  0  2  0  0  0  0  0  0  0  0  0
   21.2415   -8.2501  -15.8156 N   0  0  0  0  0  0  0  0  0  0  0  0
   20.8221   -7.6583  -13.5124 C   0  0  0  0  0  0  0  0  0  0  0  0
   21.0005   -6.4564  -13.9130 O   0  0  0  0  0  0  0  0  0  0  0  0
   20.2691   -7.7653  -12.2574 O   0  0  0  0  0  0  0  0  0  0  0  0
  1  2  1  0
  2  3  2  0
  3  4  1  0
  5  4  2  0
  5  6  1  0
  7  6  1  0
  7  8  1  1
  9  7  1  0
 10  9  2  0
 11  5  1  0
 12  2  1  0
 12 11  2  0
 13  9  1  0
 14 13  1  0
 15 16  1  0
 14 15  1  1
 17 16  1  0
 18 17  1  0
 19 18  1  0
 20 21  2  0
 20 14  1  0
 23 22  1  1
 23 25  1  0
 24 23  1  0
 26 25  1  1
 26 27  1  0
 27 20  1  0
 28 30  1  0
 28 26  1  0
 29 28  2  0
M  END
$$$$
