YKL.pdb
     RDKit          3D

 30 30  0  0  1  0  0  0  0  0999 V2000
   15.5851  -22.0935  -23.5023 O   0  0  0  0  0  0  0  0  0  0  0  0
   16.3281  -21.0526  -22.9399 C   0  0  0  0  0  0  0  0  0  0  0  0
   17.5480  -20.6877  -23.4649 C   0  0  0  0  0  0  0  0  0  0  0  0
   18.2979  -19.6646  -22.9267 C   0  0  0  0  0  0  0  0  0  0  0  0
   17.8493  -18.9561  -21.8255 C   0  0  0  0  0  0  0  0  0  0  0  0
   18.7055  -17.8594  -21.2895 C   0  0  0  0  0  0  0  0  0  0  0  0
   19.9447  -18.4257  -20.5846 C   0  0  2  0  0  0  0  0  0  0  0  0
   19.4929  -19.0514  -19.3770 N   0  0  0  0  0  0  0  0  0  0  0  0
   20.9235  -17.3661  -20.2465 C   0  0  0  0  0  0  0  0  0  0  0  0
   20.7631  -16.5983  -19.2455 O   0  0  0  0  0  0  0  0  0  0  0  0
   16.6326  -19.3016  -21.2820 C   0  0  0  0  0  0  0  0  0  0  0  0
   15.8875  -20.3429  -21.8434 C   0  0  0  0  0  0  0  0  0  0  0  0
   22.1116  -17.1222  -21.0031 N   0  0  0  0  0  0  0  0  0  0  0  0
   23.0345  -16.0655  -20.6884 C   0  0  1  0  0  0  0  0  0  0  0  0
   24.2228  -16.0526  -21.6333 C   0  0  0  0  0  0  0  0  0  0  0  0
   25.1362  -14.8826  -21.3864 C   0  0  0  0  0  0  0  0  0  0  0  0
   26.2873  -15.4152  -20.5259 C   0  0  0  0  0  0  0  0  0  0  0  0
   27.2355  -14.2969  -20.1504 C   0  0  0  0  0  0  0  0  0  0  0  0
   28.2483  -14.8822  -19.2868 N   0  0  0  0  0  0  0  0  0  0  0  0
   22.3682  -14.7372  -20.8671 C   0  0  0  0  0  0  0  0  0  0  0  0
   21.4614  -14.6303  -21.7304 O   0  0  0  0  0  0  0  0  0  0  0  0
   18.6475  -11.1025  -19.1418 C   0  0  0  0  0  0  0  0  0  0  0  0
   19.9235  -11.1120  -19.9924 C   0  0  2  0  0  0  0  0  0  0  0  0
   19.5784  -10.7773  -21.4043 C   0  0  0  0  0  0  0  0  0  0  0  0
   20.6441  -12.4207  -19.8493 C   0  0  0  0  0  0  0  0  0  0  0  0
   22.0730  -12.3116  -20.2124 C   0  0  2  0  0  0  0  0  0  0  0  0
   22.7505  -13.6131  -20.0767 N   0  0  0  0  0  0  0  0  0  0  0  0
   22.7732  -11.2781  -19.4617 C   0  0  0  0  0  0  0  0  0  0  0  0
   23.5418  -11.6651  -18.5150 O   0  0  0  0  0  0  0  0  0  0  0  0
   22.7241   -9.9144  -19.6356 O   0  0  0  0  0  0  0  0  0  0  0  0
  1  2  1  0
  2  3  2  0
  3  4  1  0
  5  4  2  0
  5  6  1  0
  7  6  1  0
  7  8  1  1
  9  7  1  0
 10  9  2  0
 11  5  1  0
 12  2  1  0
 12 11  2  0
 13  9  1  0
 14 13  1  0
 15 16  1  0
 14 15  1  6
 17 16  1  0
 18 17  1  0
 19 18  1  0
 20 21  2  0
 20 14  1  0
 23 22  1  1
 23 25  1  0
 24 23  1  0
 26 25  1  1
 26 27  1  0
 27 20  1  0
 28 30  1  0
 28 26  1  0
 29 28  2  0
M  END
$$$$
