YKL.pdb
     RDKit          3D

 30 30  0  0  1  0  0  0  0  0999 V2000
   14.0534  -25.0874    9.9111 O   0  0  0  0  0  0  0  0  0  0  0  0
   15.0906  -24.1816    9.6757 C   0  0  0  0  0  0  0  0  0  0  0  0
   14.8759  -22.8230    9.7474 C   0  0  0  0  0  0  0  0  0  0  0  0
   15.8836  -21.9115    9.5192 C   0  0  0  0  0  0  0  0  0  0  0  0
   17.1651  -22.3304    9.2055 C   0  0  0  0  0  0  0  0  0  0  0  0
   18.2129  -21.2962    8.9704 C   0  0  0  0  0  0  0  0  0  0  0  0
   17.8249  -20.3773    7.8048 C   0  0  2  0  0  0  0  0  0  0  0  0
   17.8660  -21.1705    6.6119 N   0  0  0  0  0  0  0  0  0  0  0  0
   18.7595  -19.2365    7.6628 C   0  0  0  0  0  0  0  0  0  0  0  0
   19.9032  -19.3685    7.1228 O   0  0  0  0  0  0  0  0  0  0  0  0
   17.4056  -23.6837    9.1278 C   0  0  0  0  0  0  0  0  0  0  0  0
   16.3689  -24.5917    9.3630 C   0  0  0  0  0  0  0  0  0  0  0  0
   18.4591  -17.9129    8.1116 N   0  0  0  0  0  0  0  0  0  0  0  0
   19.3917  -16.8233    8.0093 C   0  0  1  0  0  0  0  0  0  0  0  0
   18.6979  -15.5147    7.6756 C   0  0  0  0  0  0  0  0  0  0  0  0
   19.6724  -14.3845    7.4834 C   0  0  0  0  0  0  0  0  0  0  0  0
   18.8333  -13.1577    7.1092 C   0  0  0  0  0  0  0  0  0  0  0  0
   19.7221  -11.9589    6.8576 C   0  0  0  0  0  0  0  0  0  0  0  0
   18.8425  -10.8532    6.5140 N   0  0  0  0  0  0  0  0  0  0  0  0
   20.0571  -16.5966    9.3307 C   0  0  0  0  0  0  0  0  0  0  0  0
   19.3959  -16.7994   10.3799 O   0  0  0  0  0  0  0  0  0  0  0  0
   22.9993  -18.3778   11.9429 C   0  0  0  0  0  0  0  0  0  0  0  0
   23.6506  -17.7823   10.6886 C   0  0  2  0  0  0  0  0  0  0  0  0
   25.0736  -18.2227   10.6144 C   0  0  0  0  0  0  0  0  0  0  0  0
   23.4865  -16.2907   10.6656 C   0  0  0  0  0  0  0  0  0  0  0  0
   22.0646  -15.8870   10.6965 C   0  0  2  0  0  0  0  0  0  0  0  0
   21.4128  -16.1595    9.4034 N   0  0  0  0  0  0  0  0  0  0  0  0
   21.8764  -14.4981   11.0933 C   0  0  0  0  0  0  0  0  0  0  0  0
   21.5615  -13.6667   10.1732 O   0  0  0  0  0  0  0  0  0  0  0  0
   21.9893  -13.9451   12.3478 O   0  0  0  0  0  0  0  0  0  0  0  0
  1  2  1  0
  2  3  2  0
  3  4  1  0
  5  4  2  0
  5  6  1  0
  7  6  1  0
  7  8  1  6
  9  7  1  0
 10  9  2  0
 11  5  1  0
 12  2  1  0
 12 11  2  0
 13  9  1  0
 14 13  1  0
 15 16  1  0
 14 15  1  1
 17 16  1  0
 18 17  1  0
 19 18  1  0
 20 21  2  0
 20 14  1  0
 23 22  1  1
 23 25  1  0
 24 23  1  0
 26 25  1  6
 26 27  1  0
 27 20  1  0
 28 30  1  0
 28 26  1  0
 29 28  2  0
M  END
$$$$
