YKL.pdb
     RDKit          3D

 30 30  0  0  1  0  0  0  0  0999 V2000
   19.3629  -23.2178   -6.5423 O   0  0  0  0  0  0  0  0  0  0  0  0
   20.1375  -22.5050   -7.4608 C   0  0  0  0  0  0  0  0  0  0  0  0
   20.3230  -22.9697   -8.7440 C   0  0  0  0  0  0  0  0  0  0  0  0
   21.0827  -22.2836   -9.6663 C   0  0  0  0  0  0  0  0  0  0  0  0
   21.6956  -21.0875   -9.3355 C   0  0  0  0  0  0  0  0  0  0  0  0
   22.5040  -20.3916  -10.3772 C   0  0  0  0  0  0  0  0  0  0  0  0
   23.8065  -21.1514  -10.6590 C   0  0  2  0  0  0  0  0  0  0  0  0
   24.6698  -20.9382   -9.5352 N   0  0  0  0  0  0  0  0  0  0  0  0
   24.4778  -20.6654  -11.8871 C   0  0  0  0  0  0  0  0  0  0  0  0
   24.8906  -19.4676  -11.9977 O   0  0  0  0  0  0  0  0  0  0  0  0
   21.5255  -20.6015   -8.0588 C   0  0  0  0  0  0  0  0  0  0  0  0
   20.7507  -21.3133   -7.1382 C   0  0  0  0  0  0  0  0  0  0  0  0
   24.7158  -21.4880  -13.0317 N   0  0  0  0  0  0  0  0  0  0  0  0
   25.2316  -20.9718  -14.2706 C   0  0  1  0  0  0  0  0  0  0  0  0
   26.1727  -21.9544  -14.9444 C   0  0  0  0  0  0  0  0  0  0  0  0
   26.7499  -21.4080  -16.2220 C   0  0  0  0  0  0  0  0  0  0  0  0
   27.7317  -22.4681  -16.7334 C   0  0  0  0  0  0  0  0  0  0  0  0
   28.4599  -21.9725  -17.9641 C   0  0  0  0  0  0  0  0  0  0  0  0
   29.4311  -22.9966  -18.3138 N   0  0  0  0  0  0  0  0  0  0  0  0
   24.1114  -20.7627  -15.2411 C   0  0  0  0  0  0  0  0  0  0  0  0
   22.9971  -21.2895  -14.9963 O   0  0  0  0  0  0  0  0  0  0  0  0
   20.4882  -18.1358  -16.7900 C   0  0  0  0  0  0  0  0  0  0  0  0
   21.6913  -17.2542  -16.4332 C   0  0  2  0  0  0  0  0  0  0  0  0
   22.0342  -16.3907  -17.6000 C   0  0  0  0  0  0  0  0  0  0  0  0
   22.8394  -18.0950  -15.9564 C   0  0  0  0  0  0  0  0  0  0  0  0
   23.2294  -19.1185  -16.9492 C   0  0  2  0  0  0  0  0  0  0  0  0
   24.2993  -19.9828  -16.4204 N   0  0  0  0  0  0  0  0  0  0  0  0
   23.6070  -18.5484  -18.2354 C   0  0  0  0  0  0  0  0  0  0  0  0
   24.7696  -18.0209  -18.3203 O   0  0  0  0  0  0  0  0  0  0  0  0
   22.8724  -18.5005  -19.3975 O   0  0  0  0  0  0  0  0  0  0  0  0
  1  2  1  0
  2  3  2  0
  3  4  1  0
  5  4  2  0
  5  6  1  0
  7  6  1  0
  7  8  1  1
  9  7  1  0
 10  9  2  0
 11  5  1  0
 12  2  1  0
 12 11  2  0
 13  9  1  0
 14 13  1  0
 15 16  1  0
 14 15  1  6
 17 16  1  0
 18 17  1  0
 19 18  1  0
 20 21  2  0
 20 14  1  0
 23 22  1  6
 23 25  1  0
 24 23  1  0
 26 25  1  1
 26 27  1  0
 27 20  1  0
 28 30  1  0
 28 26  1  0
 29 28  2  0
M  END
$$$$
