YKL.pdb
     RDKit          3D

 30 30  0  0  1  0  0  0  0  0999 V2000
   15.4582  -15.3895  -16.5311 O   0  0  0  0  0  0  0  0  0  0  0  0
   16.3582  -16.3175  -16.0013 C   0  0  0  0  0  0  0  0  0  0  0  0
   15.9238  -17.3474  -15.1967 C   0  0  0  0  0  0  0  0  0  0  0  0
   16.7932  -18.2738  -14.6634 C   0  0  0  0  0  0  0  0  0  0  0  0
   18.1519  -18.2046  -14.9185 C   0  0  0  0  0  0  0  0  0  0  0  0
   19.0416  -19.2368  -14.3135 C   0  0  0  0  0  0  0  0  0  0  0  0
   19.2900  -20.3899  -15.2943 C   0  0  2  0  0  0  0  0  0  0  0  0
   18.1723  -21.2805  -15.1887 N   0  0  0  0  0  0  0  0  0  0  0  0
   20.5335  -21.1302  -14.9769 C   0  0  0  0  0  0  0  0  0  0  0  0
   20.6282  -21.8751  -13.9505 O   0  0  0  0  0  0  0  0  0  0  0  0
   18.6114  -17.1842  -15.7202 C   0  0  0  0  0  0  0  0  0  0  0  0
   17.7123  -16.2546  -16.2512 C   0  0  0  0  0  0  0  0  0  0  0  0
   21.7115  -21.0722  -15.7845 N   0  0  0  0  0  0  0  0  0  0  0  0
   22.9390  -21.7281  -15.4232 C   0  0  1  0  0  0  0  0  0  0  0  0
   23.8185  -21.9882  -16.6331 C   0  0  0  0  0  0  0  0  0  0  0  0
   24.7561  -23.1455  -16.4194 C   0  0  0  0  0  0  0  0  0  0  0  0
   25.5119  -23.3307  -17.7398 C   0  0  0  0  0  0  0  0  0  0  0  0
   26.4320  -24.5300  -17.6652 C   0  0  0  0  0  0  0  0  0  0  0  0
   25.5828  -25.6953  -17.4783 N   0  0  0  0  0  0  0  0  0  0  0  0
   23.7456  -20.8414  -14.5268 C   0  0  0  0  0  0  0  0  0  0  0  0
   23.1503  -19.9576  -13.8607 O   0  0  0  0  0  0  0  0  0  0  0  0
   25.5713  -21.8468   -9.6077 C   0  0  0  0  0  0  0  0  0  0  0  0
   25.9007  -20.8531  -10.7285 C   0  0  2  0  0  0  0  0  0  0  0  0
   25.5284  -19.4760  -10.2930 C   0  0  0  0  0  0  0  0  0  0  0  0
   25.2454  -21.2694  -12.0129 C   0  0  0  0  0  0  0  0  0  0  0  0
   25.8851  -20.6465  -13.1912 C   0  0  2  0  0  0  0  0  0  0  0  0
   25.1604  -20.9921  -14.4267 N   0  0  0  0  0  0  0  0  0  0  0  0
   27.3003  -20.9712  -13.3081 C   0  0  0  0  0  0  0  0  0  0  0  0
   28.0844  -20.4876  -12.4203 O   0  0  0  0  0  0  0  0  0  0  0  0
   27.9235  -21.7453  -14.2593 O   0  0  0  0  0  0  0  0  0  0  0  0
  1  2  1  0
  2  3  2  0
  3  4  1  0
  5  4  2  0
  5  6  1  0
  7  6  1  0
  7  8  1  1
  9  7  1  0
 10  9  2  0
 11  5  1  0
 12  2  1  0
 12 11  2  0
 13  9  1  0
 14 13  1  0
 15 16  1  0
 14 15  1  6
 17 16  1  0
 18 17  1  0
 19 18  1  0
 20 21  2  0
 20 14  1  0
 23 22  1  1
 23 25  1  0
 24 23  1  0
 26 25  1  1
 26 27  1  0
 27 20  1  0
 28 30  1  0
 28 26  1  0
 29 28  2  0
M  END
$$$$
