YKL.pdb
     RDKit          3D

 30 30  0  0  1  0  0  0  0  0999 V2000
   18.2631  -13.4128  -18.1534 O   0  0  0  0  0  0  0  0  0  0  0  0
   18.8783  -14.3818  -17.3570 C   0  0  0  0  0  0  0  0  0  0  0  0
   18.5351  -14.5332  -16.0317 C   0  0  0  0  0  0  0  0  0  0  0  0
   19.1285  -15.4818  -15.2276 C   0  0  0  0  0  0  0  0  0  0  0  0
   20.1033  -16.3288  -15.7260 C   0  0  0  0  0  0  0  0  0  0  0  0
   20.7074  -17.3353  -14.8067 C   0  0  0  0  0  0  0  0  0  0  0  0
   20.2511  -18.7540  -15.1706 C   0  0  2  0  0  0  0  0  0  0  0  0
   18.9603  -18.9460  -14.5784 N   0  0  0  0  0  0  0  0  0  0  0  0
   21.1811  -19.7855  -14.6546 C   0  0  0  0  0  0  0  0  0  0  0  0
   21.1120  -20.2146  -13.4594 O   0  0  0  0  0  0  0  0  0  0  0  0
   20.4641  -16.1976  -17.0480 C   0  0  0  0  0  0  0  0  0  0  0  0
   19.8496  -15.2286  -17.8466 C   0  0  0  0  0  0  0  0  0  0  0  0
   22.2164  -20.3767  -15.4434 N   0  0  0  0  0  0  0  0  0  0  0  0
   23.1209  -21.3684  -14.9280 C   0  0  1  0  0  0  0  0  0  0  0  0
   23.5973  -22.3176  -16.0130 C   0  0  0  0  0  0  0  0  0  0  0  0
   24.5738  -23.3368  -15.4917 C   0  0  0  0  0  0  0  0  0  0  0  0
   24.3873  -24.5873  -16.3581 C   0  0  0  0  0  0  0  0  0  0  0  0
   25.2346  -25.7286  -15.8386 C   0  0  0  0  0  0  0  0  0  0  0  0
   25.0338  -26.8443  -16.7492 N   0  0  0  0  0  0  0  0  0  0  0  0
   24.3577  -20.7071  -14.4050 C   0  0  0  0  0  0  0  0  0  0  0  0
   24.7827  -19.6787  -14.9888 O   0  0  0  0  0  0  0  0  0  0  0  0
   25.1323  -19.5037  -10.2840 C   0  0  0  0  0  0  0  0  0  0  0  0
   25.5147  -20.9814  -10.4328 C   0  0  2  0  0  0  0  0  0  0  0  0
   25.8339  -21.5466   -9.0899 C   0  0  0  0  0  0  0  0  0  0  0  0
   26.6278  -21.1415  -11.4266 C   0  0  0  0  0  0  0  0  0  0  0  0
   26.2711  -20.5971  -12.7540 C   0  0  2  0  0  0  0  0  0  0  0  0
   25.0433  -21.2289  -13.2684 N   0  0  0  0  0  0  0  0  0  0  0  0
   27.3555  -20.7000  -13.7211 C   0  0  0  0  0  0  0  0  0  0  0  0
   27.2094  -21.5423  -14.6730 O   0  0  0  0  0  0  0  0  0  0  0  0
   28.5390  -19.9997  -13.7554 O   0  0  0  0  0  0  0  0  0  0  0  0
  1  2  1  0
  2  3  2  0
  3  4  1  0
  5  4  2  0
  5  6  1  0
  7  6  1  0
  7  8  1  1
  9  7  1  0
 10  9  2  0
 11  5  1  0
 12  2  1  0
 12 11  2  0
 13  9  1  0
 14 13  1  0
 15 16  1  0
 14 15  1  6
 17 16  1  0
 18 17  1  0
 19 18  1  0
 20 21  2  0
 20 14  1  0
 23 22  1  1
 23 25  1  0
 24 23  1  0
 26 25  1  1
 26 27  1  0
 27 20  1  0
 28 30  1  0
 28 26  1  0
 29 28  2  0
M  END
$$$$
