YKL.pdb
     RDKit          3D

 30 30  0  0  1  0  0  0  0  0999 V2000
   28.3336  -19.8039   -3.9383 O   0  0  0  0  0  0  0  0  0  0  0  0
   27.8226  -19.7431   -5.2371 C   0  0  0  0  0  0  0  0  0  0  0  0
   28.3836  -18.9130   -6.1821 C   0  0  0  0  0  0  0  0  0  0  0  0
   27.8964  -18.8368   -7.4687 C   0  0  0  0  0  0  0  0  0  0  0  0
   26.8122  -19.6002   -7.8658 C   0  0  0  0  0  0  0  0  0  0  0  0
   26.3317  -19.4744   -9.2716 C   0  0  0  0  0  0  0  0  0  0  0  0
   26.5778  -20.7711  -10.0535 C   0  0  2  0  0  0  0  0  0  0  0  0
   27.9953  -20.8997  -10.2200 N   0  0  0  0  0  0  0  0  0  0  0  0
   25.9318  -20.7464  -11.3866 C   0  0  0  0  0  0  0  0  0  0  0  0
   26.3399  -19.9810  -12.3165 O   0  0  0  0  0  0  0  0  0  0  0  0
   26.2334  -20.4383   -6.9397 C   0  0  0  0  0  0  0  0  0  0  0  0
   26.7433  -20.5004   -5.6394 C   0  0  0  0  0  0  0  0  0  0  0  0
   24.8150  -21.5679  -11.7349 N   0  0  0  0  0  0  0  0  0  0  0  0
   24.1776  -21.5140  -13.0227 C   0  0  1  0  0  0  0  0  0  0  0  0
   23.8236  -22.8980  -13.5367 C   0  0  0  0  0  0  0  0  0  0  0  0
   24.9571  -23.5324  -14.2961 C   0  0  0  0  0  0  0  0  0  0  0  0
   24.3938  -24.8221  -14.9033 C   0  0  0  0  0  0  0  0  0  0  0  0
   25.4495  -25.5324  -15.7228 C   0  0  0  0  0  0  0  0  0  0  0  0
   24.8396  -26.7567  -16.2162 N   0  0  0  0  0  0  0  0  0  0  0  0
   22.8760  -20.7828  -12.9166 C   0  0  0  0  0  0  0  0  0  0  0  0
   22.2257  -20.8643  -11.8444 O   0  0  0  0  0  0  0  0  0  0  0  0
   22.3745  -17.3247  -16.7923 C   0  0  0  0  0  0  0  0  0  0  0  0
   21.3832  -18.3183  -16.1741 C   0  0  2  0  0  0  0  0  0  0  0  0
   20.1195  -18.3129  -16.9664 C   0  0  0  0  0  0  0  0  0  0  0  0
   21.1749  -18.0199  -14.7181 C   0  0  0  0  0  0  0  0  0  0  0  0
   21.1201  -19.2503  -13.9004 C   0  0  2  0  0  0  0  0  0  0  0  0
   22.3794  -20.0082  -14.0064 N   0  0  0  0  0  0  0  0  0  0  0  0
   19.9753  -20.0934  -14.2175 C   0  0  0  0  0  0  0  0  0  0  0  0
   20.2057  -21.1646  -14.8780 O   0  0  0  0  0  0  0  0  0  0  0  0
   18.6528  -19.8948  -13.8953 O   0  0  0  0  0  0  0  0  0  0  0  0
  1  2  1  0
  2  3  2  0
  3  4  1  0
  5  4  2  0
  5  6  1  0
  7  6  1  0
  7  8  1  6
  9  7  1  0
 10  9  2  0
 11  5  1  0
 12  2  1  0
 12 11  2  0
 13  9  1  0
 14 13  1  0
 15 16  1  0
 14 15  1  1
 17 16  1  0
 18 17  1  0
 19 18  1  0
 20 21  2  0
 20 14  1  0
 23 22  1  6
 23 25  1  0
 24 23  1  0
 26 25  1  6
 26 27  1  0
 27 20  1  0
 28 30  1  0
 28 26  1  0
 29 28  2  0
M  END
$$$$
