YKL.pdb
     RDKit          3D

 30 30  0  0  1  0  0  0  0  0999 V2000
   22.8342  -17.8670  -15.9343 O   0  0  0  0  0  0  0  0  0  0  0  0
   22.2035  -18.9726  -15.3585 C   0  0  0  0  0  0  0  0  0  0  0  0
   20.8537  -19.1875  -15.5283 C   0  0  0  0  0  0  0  0  0  0  0  0
   20.2108  -20.2707  -14.9699 C   0  0  0  0  0  0  0  0  0  0  0  0
   20.9043  -21.1953  -14.2082 C   0  0  0  0  0  0  0  0  0  0  0  0
   20.1531  -22.3468  -13.6313 C   0  0  0  0  0  0  0  0  0  0  0  0
   20.5548  -23.6608  -14.3135 C   0  0  2  0  0  0  0  0  0  0  0  0
   20.0808  -23.5958  -15.6644 N   0  0  0  0  0  0  0  0  0  0  0  0
   19.9558  -24.8391  -13.6442 C   0  0  0  0  0  0  0  0  0  0  0  0
   18.7364  -25.1588  -13.8116 O   0  0  0  0  0  0  0  0  0  0  0  0
   22.2549  -21.0031  -14.0235 C   0  0  0  0  0  0  0  0  0  0  0  0
   22.8878  -19.8972  -14.5989 C   0  0  0  0  0  0  0  0  0  0  0  0
   20.6859  -25.7026  -12.7697 N   0  0  0  0  0  0  0  0  0  0  0  0
   20.1121  -26.8805  -12.1774 C   0  0  1  0  0  0  0  0  0  0  0  0
   21.1704  -27.7725  -11.5533 C   0  0  0  0  0  0  0  0  0  0  0  0
   20.5892  -29.0424  -10.9933 C   0  0  0  0  0  0  0  0  0  0  0  0
   21.7693  -29.8334  -10.4180 C   0  0  0  0  0  0  0  0  0  0  0  0
   21.2989  -31.1514   -9.8418 C   0  0  0  0  0  0  0  0  0  0  0  0
   22.4898  -31.8671   -9.4132 N   0  0  0  0  0  0  0  0  0  0  0  0
   19.2026  -26.4940  -11.0533 C   0  0  0  0  0  0  0  0  0  0  0  0
   19.3922  -25.3934  -10.4772 O   0  0  0  0  0  0  0  0  0  0  0  0
   14.5884  -25.6516   -9.6355 C   0  0  0  0  0  0  0  0  0  0  0  0
   14.9861  -25.3318  -11.0817 C   0  0  2  0  0  0  0  0  0  0  0  0
   13.8652  -25.6985  -11.9948 C   0  0  0  0  0  0  0  0  0  0  0  0
   16.2835  -25.9994  -11.4328 C   0  0  0  0  0  0  0  0  0  0  0  0
   16.8037  -26.8236  -10.3212 C   0  0  2  0  0  0  0  0  0  0  0  0
   18.1413  -27.3529  -10.6407 N   0  0  0  0  0  0  0  0  0  0  0  0
   15.8965  -27.8961   -9.9356 C   0  0  0  0  0  0  0  0  0  0  0  0
   14.8787  -27.5732   -9.2309 O   0  0  0  0  0  0  0  0  0  0  0  0
   15.9826  -29.2363  -10.2333 O   0  0  0  0  0  0  0  0  0  0  0  0
  1  2  1  0
  2  3  2  0
  3  4  1  0
  5  4  2  0
  5  6  1  0
  7  6  1  0
  7  8  1  6
  9  7  1  0
 10  9  2  0
 11  5  1  0
 12  2  1  0
 12 11  2  0
 13  9  1  0
 14 13  1  0
 15 16  1  0
 14 15  1  1
 17 16  1  0
 18 17  1  0
 19 18  1  0
 20 21  2  0
 20 14  1  0
 23 22  1  1
 23 25  1  0
 24 23  1  0
 26 25  1  6
 26 27  1  0
 27 20  1  0
 28 30  1  0
 28 26  1  0
 29 28  2  0
M  END
$$$$
