QPK.pdb
     RDKit          3D

 26 26  0  0  1  0  0  0  0  0999 V2000
   22.9168  -23.2709  -12.7438 N   0  0  0  0  0  0  0  0  0  0  0  0
   22.5161  -22.0230  -13.2691 C   0  0  0  0  0  0  0  0  0  0  0  0
   21.8729  -22.0315  -14.3502 O   0  0  0  0  0  0  0  0  0  0  0  0
   22.8229  -20.7376  -12.6017 C   0  0  0  0  0  0  0  0  0  0  0  0
   23.5848  -21.0057  -11.3064 C   0  0  0  0  0  0  0  0  0  0  0  0
   25.0116  -21.4022  -11.6206 C   0  0  2  0  0  0  0  0  0  0  0  0
   25.6556  -21.5791  -10.3145 N   0  0  0  0  0  0  0  0  0  0  0  0
   25.7278  -20.3660  -12.3808 C   0  0  0  0  0  0  0  0  0  0  0  0
   25.8824  -19.2352  -11.8520 O   0  0  0  0  0  0  0  0  0  0  0  0
   26.2570  -20.5668  -13.6800 N   0  0  0  0  0  0  0  0  0  0  0  0
   26.1191  -21.7255  -14.5504 C   0  0  0  0  0  0  0  0  0  0  0  0
   27.5675  -21.8950  -15.0311 C   0  0  0  0  0  0  0  0  0  0  0  0
   27.8729  -20.4415  -15.4176 C   0  0  0  0  0  0  0  0  0  0  0  0
   27.0734  -19.6323  -14.4301 C   0  0  1  0  0  0  0  0  0  0  0  0
   26.1997  -18.7048  -15.2041 C   0  0  0  0  0  0  0  0  0  0  0  0
   25.0828  -19.0422  -15.6716 O   0  0  0  0  0  0  0  0  0  0  0  0
   26.6279  -17.3758  -15.4359 N   0  0  0  0  0  0  0  0  0  0  0  0
   25.7803  -16.4144  -16.1614 C   0  0  1  0  0  0  0  0  0  0  0  0
   25.9323  -15.0430  -15.5850 C   0  0  0  0  0  0  0  0  0  0  0  0
   25.3037  -13.9318  -16.3307 C   0  0  0  0  0  0  0  0  0  0  0  0
   25.3924  -12.5707  -15.7479 C   0  0  0  0  0  0  0  0  0  0  0  0
   24.7086  -11.5193  -16.6127 C   0  0  0  0  0  0  0  0  0  0  0  0
   23.2914  -11.6124  -16.3976 N   0  0  0  0  0  0  0  0  0  0  0  0
   26.0214  -16.5758  -17.5890 C   0  0  0  0  0  0  0  0  0  0  0  0
   25.1555  -16.3805  -18.4696 O   0  0  0  0  0  0  0  0  0  0  0  0
   27.2794  -16.9733  -18.0595 O   0  0  0  0  0  0  0  0  0  0  0  0
  2  1  1  0
  3  2  2  0
  4  2  1  0
  5  4  1  0
  6  8  1  0
  6  5  1  0
  6  7  1  1
  8  9  2  0
  8 10  1  0
 10 14  1  0
 10 11  1  0
 12 11  1  0
 13 14  1  0
 13 12  1  0
 15 17  1  0
 14 15  1  6
 16 15  2  0
 18 17  1  0
 18 19  1  1
 20 19  1  0
 21 20  1  0
 22 21  1  0
 23 22  1  0
 24 18  1  0
 25 24  2  0
 26 24  1  0
M  END
$$$$
