QPK.pdb
     RDKit          3D

 26 26  0  0  1  0  0  0  0  0999 V2000
   28.4673  -18.0951  -14.9720 N   0  0  0  0  0  0  0  0  0  0  0  0
   28.7429  -18.2944  -16.3424 C   0  0  0  0  0  0  0  0  0  0  0  0
   29.7577  -17.7216  -16.8165 O   0  0  0  0  0  0  0  0  0  0  0  0
   27.8941  -19.1363  -17.2156 C   0  0  0  0  0  0  0  0  0  0  0  0
   26.7010  -19.6561  -16.4177 C   0  0  0  0  0  0  0  0  0  0  0  0
   27.1310  -20.8157  -15.5445 C   0  0  2  0  0  0  0  0  0  0  0  0
   27.5172  -21.8766  -16.4811 N   0  0  0  0  0  0  0  0  0  0  0  0
   26.0440  -21.3007  -14.6799 C   0  0  0  0  0  0  0  0  0  0  0  0
   25.1508  -22.0244  -15.1904 O   0  0  0  0  0  0  0  0  0  0  0  0
   25.9425  -20.9998  -13.2988 N   0  0  0  0  0  0  0  0  0  0  0  0
   26.8717  -20.2597  -12.4573 C   0  0  0  0  0  0  0  0  0  0  0  0
   26.9265  -21.1712  -11.2229 C   0  0  0  0  0  0  0  0  0  0  0  0
   25.4231  -21.3984  -11.0146 C   0  0  0  0  0  0  0  0  0  0  0  0
   24.8611  -21.3832  -12.4121 C   0  0  1  0  0  0  0  0  0  0  0  0
   23.7816  -20.3560  -12.4568 C   0  0  0  0  0  0  0  0  0  0  0  0
   23.9847  -19.1590  -12.7824 O   0  0  0  0  0  0  0  0  0  0  0  0
   22.4567  -20.7233  -12.1203 N   0  0  0  0  0  0  0  0  0  0  0  0
   21.3131  -20.3062  -12.9494 C   0  0  1  0  0  0  0  0  0  0  0  0
   21.5881  -20.5749  -14.3944 C   0  0  0  0  0  0  0  0  0  0  0  0
   21.9279  -19.4090  -15.2376 C   0  0  0  0  0  0  0  0  0  0  0  0
   20.9477  -18.9937  -16.2706 C   0  0  0  0  0  0  0  0  0  0  0  0
   21.4240  -17.7935  -17.0790 C   0  0  0  0  0  0  0  0  0  0  0  0
   20.4380  -17.5082  -18.0838 N   0  0  0  0  0  0  0  0  0  0  0  0
   20.0998  -20.8744  -12.3773 C   0  0  0  0  0  0  0  0  0  0  0  0
   19.0502  -20.2243  -12.1803 O   0  0  0  0  0  0  0  0  0  0  0  0
   20.0505  -22.2241  -12.0062 O   0  0  0  0  0  0  0  0  0  0  0  0
  2  1  1  0
  3  2  2  0
  4  2  1  0
  5  4  1  0
  6  8  1  0
  6  5  1  0
  6  7  1  6
  8  9  2  0
  8 10  1  0
 10 14  1  0
 10 11  1  0
 12 11  1  0
 13 14  1  0
 13 12  1  0
 15 17  1  0
 14 15  1  1
 16 15  2  0
 18 17  1  0
 18 19  1  6
 20 19  1  0
 21 20  1  0
 22 21  1  0
 23 22  1  0
 24 18  1  0
 25 24  2  0
 26 24  1  0
M  END
$$$$
