QPK.pdb
     RDKit          3D

 26 26  0  0  1  0  0  0  0  0999 V2000
   15.2579  -20.5246    4.0618 N   0  0  0  0  0  0  0  0  0  0  0  0
   14.5606  -19.9378    2.9832 C   0  0  0  0  0  0  0  0  0  0  0  0
   13.6853  -20.6382    2.4123 O   0  0  0  0  0  0  0  0  0  0  0  0
   14.8229  -18.5576    2.5164 C   0  0  0  0  0  0  0  0  0  0  0  0
   15.8054  -17.8771    3.4660 C   0  0  0  0  0  0  0  0  0  0  0  0
   16.9942  -17.3532    2.6886 C   0  0  2  0  0  0  0  0  0  0  0  0
   17.6652  -18.5480    2.1652 N   0  0  0  0  0  0  0  0  0  0  0  0
   17.9314  -16.5998    3.5362 C   0  0  0  0  0  0  0  0  0  0  0  0
   18.9573  -17.1887    3.9641 O   0  0  0  0  0  0  0  0  0  0  0  0
   17.7467  -15.2430    3.9012 N   0  0  0  0  0  0  0  0  0  0  0  0
   16.6665  -14.3396    3.5324 C   0  0  0  0  0  0  0  0  0  0  0  0
   17.4624  -13.0807    3.1594 C   0  0  0  0  0  0  0  0  0  0  0  0
   18.3953  -13.0068    4.3757 C   0  0  0  0  0  0  0  0  0  0  0  0
   18.6255  -14.4504    4.7393 C   0  0  1  0  0  0  0  0  0  0  0  0
   18.2510  -14.6237    6.1718 C   0  0  0  0  0  0  0  0  0  0  0  0
   17.1049  -14.9810    6.5443 O   0  0  0  0  0  0  0  0  0  0  0  0
   19.2161  -14.3798    7.1781 N   0  0  0  0  0  0  0  0  0  0  0  0
   18.8882  -14.5330    8.6058 C   0  0  1  0  0  0  0  0  0  0  0  0
   20.1253  -14.8029    9.4013 C   0  0  0  0  0  0  0  0  0  0  0  0
   20.9392  -15.9686    8.9953 C   0  0  0  0  0  0  0  0  0  0  0  0
   22.2162  -16.2035    9.7124 C   0  0  0  0  0  0  0  0  0  0  0  0
   22.9342  -17.4580    9.2311 C   0  0  0  0  0  0  0  0  0  0  0  0
   24.2084  -17.5279    9.8907 N   0  0  0  0  0  0  0  0  0  0  0  0
   18.0599  -13.4050    9.0102 C   0  0  0  0  0  0  0  0  0  0  0  0
   18.0277  -12.3106    8.4063 O   0  0  0  0  0  0  0  0  0  0  0  0
   17.2317  -13.4956   10.1362 O   0  0  0  0  0  0  0  0  0  0  0  0
  2  1  1  0
  3  2  2  0
  4  2  1  0
  5  4  1  0
  6  8  1  0
  6  5  1  0
  6  7  1  1
  8  9  2  0
  8 10  1  0
 10 14  1  0
 10 11  1  0
 12 11  1  0
 13 14  1  0
 13 12  1  0
 15 17  1  0
 14 15  1  1
 16 15  2  0
 18 17  1  0
 18 19  1  1
 20 19  1  0
 21 20  1  0
 22 21  1  0
 23 22  1  0
 24 18  1  0
 25 24  2  0
 26 24  1  0
M  END
$$$$
