QPK.pdb
     RDKit          3D

 26 26  0  0  1  0  0  0  0  0999 V2000
   27.6026  -25.4525  -16.8978 N   0  0  0  0  0  0  0  0  0  0  0  0
   28.3561  -25.0353  -18.0167 C   0  0  0  0  0  0  0  0  0  0  0  0
   28.9151  -25.9298  -18.7022 O   0  0  0  0  0  0  0  0  0  0  0  0
   28.5036  -23.6122  -18.3970 C   0  0  0  0  0  0  0  0  0  0  0  0
   27.4469  -22.7801  -17.6751 C   0  0  0  0  0  0  0  0  0  0  0  0
   28.0233  -22.2138  -16.3948 C   0  0  2  0  0  0  0  0  0  0  0  0
   28.2612  -23.3783  -15.5349 N   0  0  0  0  0  0  0  0  0  0  0  0
   27.0958  -21.2918  -15.7211 C   0  0  0  0  0  0  0  0  0  0  0  0
   26.3135  -21.7579  -14.8533 O   0  0  0  0  0  0  0  0  0  0  0  0
   27.0307  -19.9025  -15.9926 N   0  0  0  0  0  0  0  0  0  0  0  0
   27.7842  -19.1290  -16.9689 C   0  0  0  0  0  0  0  0  0  0  0  0
   28.1938  -17.9180  -16.1185 C   0  0  0  0  0  0  0  0  0  0  0  0
   26.8360  -17.5897  -15.4830 C   0  0  0  0  0  0  0  0  0  0  0  0
   26.1770  -18.9356  -15.3300 C   0  0  1  0  0  0  0  0  0  0  0  0
   24.8544  -18.8746  -16.0152 C   0  0  0  0  0  0  0  0  0  0  0  0
   24.7074  -19.0848  -17.2457 O   0  0  0  0  0  0  0  0  0  0  0  0
   23.6947  -18.5670  -15.2642 N   0  0  0  0  0  0  0  0  0  0  0  0
   22.3599  -18.5594  -15.8864 C   0  0  1  0  0  0  0  0  0  0  0  0
   21.3051  -18.8505  -14.8673 C   0  0  0  0  0  0  0  0  0  0  0  0
   19.9051  -18.8710  -15.3422 C   0  0  0  0  0  0  0  0  0  0  0  0
   18.8359  -19.0705  -14.3337 C   0  0  0  0  0  0  0  0  0  0  0  0
   17.4398  -18.9237  -14.9257 C   0  0  0  0  0  0  0  0  0  0  0  0
   16.4848  -19.0363  -13.8586 N   0  0  0  0  0  0  0  0  0  0  0  0
   22.2239  -17.3366  -16.6665 C   0  0  0  0  0  0  0  0  0  0  0  0
   21.5423  -17.2470  -17.7108 O   0  0  0  0  0  0  0  0  0  0  0  0
   22.8751  -16.1615  -16.2700 O   0  0  0  0  0  0  0  0  0  0  0  0
  2  1  1  0
  3  2  2  0
  4  2  1  0
  5  4  1  0
  6  8  1  0
  6  5  1  0
  6  7  1  1
  8  9  2  0
  8 10  1  0
 10 14  1  0
 10 11  1  0
 12 11  1  0
 13 14  1  0
 13 12  1  0
 15 17  1  0
 14 15  1  6
 16 15  2  0
 18 17  1  0
 18 19  1  1
 20 19  1  0
 21 20  1  0
 22 21  1  0
 23 22  1  0
 24 18  1  0
 25 24  2  0
 26 24  1  0
M  END
$$$$
