QPK.pdb
     RDKit          3D

 26 26  0  0  1  0  0  0  0  0999 V2000
   15.7167   -7.6383  -17.4969 N   0  0  0  0  0  0  0  0  0  0  0  0
   16.7759   -8.2534  -18.1994 C   0  0  0  0  0  0  0  0  0  0  0  0
   16.7118   -8.2540  -19.4558 O   0  0  0  0  0  0  0  0  0  0  0  0
   17.9304   -8.8816  -17.5180 C   0  0  0  0  0  0  0  0  0  0  0  0
   17.7377   -8.7955  -16.0062 C   0  0  0  0  0  0  0  0  0  0  0  0
   18.8757   -9.5020  -15.3008 C   0  0  2  0  0  0  0  0  0  0  0  0
   18.7076  -10.9214  -15.6310 N   0  0  0  0  0  0  0  0  0  0  0  0
   18.8231   -9.3318  -13.8404 C   0  0  0  0  0  0  0  0  0  0  0  0
   18.2164  -10.1974  -13.1584 O   0  0  0  0  0  0  0  0  0  0  0  0
   19.4183   -8.2453  -13.1523 N   0  0  0  0  0  0  0  0  0  0  0  0
   20.1353   -7.1031  -13.7004 C   0  0  0  0  0  0  0  0  0  0  0  0
   21.3491   -7.0511  -12.7615 C   0  0  0  0  0  0  0  0  0  0  0  0
   20.6256   -7.1665  -11.4130 C   0  0  0  0  0  0  0  0  0  0  0  0
   19.4398   -8.0446  -11.7163 C   0  0  1  0  0  0  0  0  0  0  0  0
   18.2124   -7.3145  -11.2888 C   0  0  0  0  0  0  0  0  0  0  0  0
   17.7165   -6.3620  -11.9421 O   0  0  0  0  0  0  0  0  0  0  0  0
   17.5570   -7.6947  -10.0932 N   0  0  0  0  0  0  0  0  0  0  0  0
   16.3007   -7.0520   -9.6716 C   0  0  1  0  0  0  0  0  0  0  0  0
   15.3501   -8.0685   -9.1249 C   0  0  0  0  0  0  0  0  0  0  0  0
   14.0749   -7.5621   -8.5742 C   0  0  0  0  0  0  0  0  0  0  0  0
   13.0717   -8.5581   -8.1250 C   0  0  0  0  0  0  0  0  0  0  0  0
   11.8467   -7.9093   -7.4931 C   0  0  0  0  0  0  0  0  0  0  0  0
   10.9504   -8.9517   -7.0765 N   0  0  0  0  0  0  0  0  0  0  0  0
   16.6294   -5.9129   -8.8250 C   0  0  0  0  0  0  0  0  0  0  0  0
   17.5866   -5.8941   -8.0208 O   0  0  0  0  0  0  0  0  0  0  0  0
   15.8600   -4.7434   -8.8724 O   0  0  0  0  0  0  0  0  0  0  0  0
  2  1  1  0
  3  2  2  0
  4  2  1  0
  5  4  1  0
  6  8  1  0
  6  5  1  0
  6  7  1  1
  8  9  2  0
  8 10  1  0
 10 14  1  0
 10 11  1  0
 12 11  1  0
 13 14  1  0
 13 12  1  0
 15 17  1  0
 14 15  1  6
 16 15  2  0
 18 17  1  0
 18 19  1  1
 20 19  1  0
 21 20  1  0
 22 21  1  0
 23 22  1  0
 24 18  1  0
 25 24  2  0
 26 24  1  0
M  END
$$$$
