QPK.pdb
     RDKit          3D

 26 26  0  0  1  0  0  0  0  0999 V2000
   25.9193  -16.1666  -17.2238 N   0  0  0  0  0  0  0  0  0  0  0  0
   26.4317  -16.4197  -18.5150 C   0  0  0  0  0  0  0  0  0  0  0  0
   26.8763  -15.4371  -19.1625 O   0  0  0  0  0  0  0  0  0  0  0  0
   26.4604  -17.7734  -19.1138 C   0  0  0  0  0  0  0  0  0  0  0  0
   25.9188  -18.7863  -18.1084 C   0  0  0  0  0  0  0  0  0  0  0  0
   27.0293  -19.7134  -17.6621 C   0  0  2  0  0  0  0  0  0  0  0  0
   27.2399  -20.6280  -18.7895 N   0  0  0  0  0  0  0  0  0  0  0  0
   26.6663  -20.4894  -16.4662 C   0  0  0  0  0  0  0  0  0  0  0  0
   26.0726  -21.5873  -16.6226 O   0  0  0  0  0  0  0  0  0  0  0  0
   26.9471  -20.0719  -15.1414 N   0  0  0  0  0  0  0  0  0  0  0  0
   27.6228  -18.8637  -14.6912 C   0  0  0  0  0  0  0  0  0  0  0  0
   28.5720  -19.4451  -13.6335 C   0  0  0  0  0  0  0  0  0  0  0  0
   27.5779  -20.3258  -12.8645 C   0  0  0  0  0  0  0  0  0  0  0  0
   26.6126  -20.7870  -13.9250 C   0  0  1  0  0  0  0  0  0  0  0  0
   25.2386  -20.4160  -13.4813 C   0  0  0  0  0  0  0  0  0  0  0  0
   24.7305  -19.2855  -13.6904 O   0  0  0  0  0  0  0  0  0  0  0  0
   24.4500  -21.3663  -12.7895 N   0  0  0  0  0  0  0  0  0  0  0  0
   23.0816  -21.0486  -12.3474 C   0  0  1  0  0  0  0  0  0  0  0  0
   22.1163  -22.0716  -12.8551 C   0  0  0  0  0  0  0  0  0  0  0  0
   20.6941  -21.8833  -12.4973 C   0  0  0  0  0  0  0  0  0  0  0  0
   19.7484  -22.9785  -12.8234 C   0  0  0  0  0  0  0  0  0  0  0  0
   18.3325  -22.6910  -12.3401 C   0  0  0  0  0  0  0  0  0  0  0  0
   17.5170  -23.8374  -12.6298 N   0  0  0  0  0  0  0  0  0  0  0  0
   23.1085  -20.8014  -10.9120 C   0  0  0  0  0  0  0  0  0  0  0  0
   23.9502  -21.3003  -10.1336 O   0  0  0  0  0  0  0  0  0  0  0  0
   22.1577  -19.9644  -10.3143 O   0  0  0  0  0  0  0  0  0  0  0  0
  2  1  1  0
  3  2  2  0
  4  2  1  0
  5  4  1  0
  6  8  1  0
  6  5  1  0
  6  7  1  6
  8  9  2  0
  8 10  1  0
 10 14  1  0
 10 11  1  0
 12 11  1  0
 13 14  1  0
 13 12  1  0
 15 17  1  0
 14 15  1  1
 16 15  2  0
 18 17  1  0
 18 19  1  1
 20 19  1  0
 21 20  1  0
 22 21  1  0
 23 22  1  0
 24 18  1  0
 25 24  2  0
 26 24  1  0
M  END
$$$$
