QPK.pdb
     RDKit          3D

 26 26  0  0  1  0  0  0  0  0999 V2000
   24.9994  -18.0529  -19.0142 N   0  0  0  0  0  0  0  0  0  0  0  0
   24.8719  -17.0990  -17.9809 C   0  0  0  0  0  0  0  0  0  0  0  0
   24.4564  -15.9551  -18.2994 O   0  0  0  0  0  0  0  0  0  0  0  0
   25.2043  -17.3980  -16.5697 C   0  0  0  0  0  0  0  0  0  0  0  0
   24.6296  -18.7599  -16.1889 C   0  0  0  0  0  0  0  0  0  0  0  0
   25.7169  -19.8119  -16.2450 C   0  0  2  0  0  0  0  0  0  0  0  0
   25.3041  -20.7317  -17.3106 N   0  0  0  0  0  0  0  0  0  0  0  0
   25.8447  -20.5552  -14.9819 C   0  0  0  0  0  0  0  0  0  0  0  0
   25.0282  -21.4832  -14.7483 O   0  0  0  0  0  0  0  0  0  0  0  0
   26.8380  -20.2870  -14.0074 N   0  0  0  0  0  0  0  0  0  0  0  0
   27.8912  -19.2824  -14.0331 C   0  0  0  0  0  0  0  0  0  0  0  0
   29.0925  -20.1166  -13.5657 C   0  0  0  0  0  0  0  0  0  0  0  0
   28.4591  -20.8048  -12.3490 C   0  0  0  0  0  0  0  0  0  0  0  0
   27.0175  -20.9829  -12.7479 C   0  0  1  0  0  0  0  0  0  0  0  0
   26.1729  -20.3497  -11.6951 C   0  0  0  0  0  0  0  0  0  0  0  0
   25.8900  -19.1251  -11.6851 O   0  0  0  0  0  0  0  0  0  0  0  0
   25.6538  -21.1464  -10.6466 N   0  0  0  0  0  0  0  0  0  0  0  0
   24.9473  -20.5422   -9.5043 C   0  0  1  0  0  0  0  0  0  0  0  0
   24.1162  -21.5670   -8.8008 C   0  0  0  0  0  0  0  0  0  0  0  0
   22.7555  -21.1576   -8.3924 C   0  0  0  0  0  0  0  0  0  0  0  0
   21.8588  -22.1987   -7.8337 C   0  0  0  0  0  0  0  0  0  0  0  0
   20.4528  -21.6766   -7.5665 C   0  0  0  0  0  0  0  0  0  0  0  0
   19.6368  -22.7796   -7.1410 N   0  0  0  0  0  0  0  0  0  0  0  0
   25.9137  -19.7967   -8.7090 C   0  0  0  0  0  0  0  0  0  0  0  0
   27.1033  -20.1464   -8.5481 O   0  0  0  0  0  0  0  0  0  0  0  0
   25.5421  -18.6112   -8.0621 O   0  0  0  0  0  0  0  0  0  0  0  0
  2  1  1  0
  3  2  2  0
  4  2  1  0
  5  4  1  0
  6  8  1  0
  6  5  1  0
  6  7  1  6
  8  9  2  0
  8 10  1  0
 10 14  1  0
 10 11  1  0
 12 11  1  0
 13 14  1  0
 13 12  1  0
 15 17  1  0
 14 15  1  1
 16 15  2  0
 18 17  1  0
 18 19  1  1
 20 19  1  0
 21 20  1  0
 22 21  1  0
 23 22  1  0
 24 18  1  0
 25 24  2  0
 26 24  1  0
M  END
$$$$
