QPK.pdb
     RDKit          3D

 26 26  0  0  1  0  0  0  0  0999 V2000
   21.0942  -22.7481  -14.0229 N   0  0  0  0  0  0  0  0  0  0  0  0
   21.0950  -21.8443  -12.9381 C   0  0  0  0  0  0  0  0  0  0  0  0
   20.0773  -21.8290  -12.1988 O   0  0  0  0  0  0  0  0  0  0  0  0
   22.2296  -20.9373  -12.6525 C   0  0  0  0  0  0  0  0  0  0  0  0
   23.3742  -21.2342  -13.6180 C   0  0  0  0  0  0  0  0  0  0  0  0
   23.5947  -20.0500  -14.5351 C   0  0  2  0  0  0  0  0  0  0  0  0
   22.3602  -19.9392  -15.3197 N   0  0  0  0  0  0  0  0  0  0  0  0
   24.7340  -20.2487  -15.4445 C   0  0  0  0  0  0  0  0  0  0  0  0
   24.5136  -20.7394  -16.5816 O   0  0  0  0  0  0  0  0  0  0  0  0
   26.0720  -19.9186  -15.1143 N   0  0  0  0  0  0  0  0  0  0  0  0
   26.6043  -19.4313  -13.8501 C   0  0  0  0  0  0  0  0  0  0  0  0
   27.5097  -18.2929  -14.3418 C   0  0  0  0  0  0  0  0  0  0  0  0
   28.2475  -19.0303  -15.4675 C   0  0  0  0  0  0  0  0  0  0  0  0
   27.2200  -19.9964  -15.9968 C   0  0  1  0  0  0  0  0  0  0  0  0
   27.8103  -21.3641  -15.9401 C   0  0  0  0  0  0  0  0  0  0  0  0
   28.0162  -21.9799  -14.8638 O   0  0  0  0  0  0  0  0  0  0  0  0
   28.1635  -22.0204  -17.1434 N   0  0  0  0  0  0  0  0  0  0  0  0
   28.6920  -23.3951  -17.1385 C   0  0  1  0  0  0  0  0  0  0  0  0
   27.7374  -24.3257  -17.8159 C   0  0  0  0  0  0  0  0  0  0  0  0
   28.1729  -25.7296  -17.9751 C   0  0  0  0  0  0  0  0  0  0  0  0
   27.7896  -26.6964  -16.9175 C   0  0  0  0  0  0  0  0  0  0  0  0
   28.3336  -28.0951  -17.1797 C   0  0  0  0  0  0  0  0  0  0  0  0
   27.9289  -28.9456  -16.0951 N   0  0  0  0  0  0  0  0  0  0  0  0
   30.0632  -23.3616  -17.6294 C   0  0  0  0  0  0  0  0  0  0  0  0
   30.5031  -22.4921  -18.4128 O   0  0  0  0  0  0  0  0  0  0  0  0
   30.9864  -24.3380  -17.2340 O   0  0  0  0  0  0  0  0  0  0  0  0
  2  1  1  0
  3  2  2  0
  4  2  1  0
  5  4  1  0
  6  8  1  0
  6  5  1  0
  6  7  1  6
  8  9  2  0
  8 10  1  0
 10 14  1  0
 10 11  1  0
 12 11  1  0
 13 14  1  0
 13 12  1  0
 15 17  1  0
 14 15  1  1
 16 15  2  0
 18 17  1  0
 18 19  1  6
 20 19  1  0
 21 20  1  0
 22 21  1  0
 23 22  1  0
 24 18  1  0
 25 24  2  0
 26 24  1  0
M  END
$$$$
