QPK.pdb
     RDKit          3D

 26 26  0  0  1  0  0  0  0  0999 V2000
   23.9238  -24.9304  -14.0894 N   0  0  0  0  0  0  0  0  0  0  0  0
   22.5712  -25.1289  -14.4428 C   0  0  0  0  0  0  0  0  0  0  0  0
   22.1390  -26.3103  -14.4316 O   0  0  0  0  0  0  0  0  0  0  0  0
   21.6697  -24.0157  -14.8168 C   0  0  0  0  0  0  0  0  0  0  0  0
   22.4485  -22.7028  -14.8010 C   0  0  0  0  0  0  0  0  0  0  0  0
   22.4435  -22.1177  -13.4048 C   0  0  2  0  0  0  0  0  0  0  0  0
   21.0692  -21.6515  -13.1906 N   0  0  0  0  0  0  0  0  0  0  0  0
   23.3699  -20.9830  -13.2683 C   0  0  0  0  0  0  0  0  0  0  0  0
   22.8996  -19.8173  -13.3157 O   0  0  0  0  0  0  0  0  0  0  0  0
   24.7680  -21.1254  -13.0854 N   0  0  0  0  0  0  0  0  0  0  0  0
   25.5503  -22.3467  -12.9601 C   0  0  0  0  0  0  0  0  0  0  0  0
   26.4503  -21.9878  -11.7690 C   0  0  0  0  0  0  0  0  0  0  0  0
   26.9171  -20.5971  -12.2201 C   0  0  0  0  0  0  0  0  0  0  0  0
   25.7353  -20.0505  -12.9777 C   0  0  1  0  0  0  0  0  0  0  0  0
   26.2083  -19.6573  -14.3356 C   0  0  0  0  0  0  0  0  0  0  0  0
   26.1979  -20.4386  -15.3202 O   0  0  0  0  0  0  0  0  0  0  0  0
   26.6969  -18.3462  -14.5501 N   0  0  0  0  0  0  0  0  0  0  0  0
   27.0544  -17.8739  -15.8985 C   0  0  1  0  0  0  0  0  0  0  0  0
   27.0304  -16.3798  -15.9536 C   0  0  0  0  0  0  0  0  0  0  0  0
   25.7373  -15.7217  -15.6694 C   0  0  0  0  0  0  0  0  0  0  0  0
   25.6984  -14.2390  -15.6830 C   0  0  0  0  0  0  0  0  0  0  0  0
   24.3463  -13.6861  -15.2507 C   0  0  0  0  0  0  0  0  0  0  0  0
   24.4228  -12.2517  -15.2613 N   0  0  0  0  0  0  0  0  0  0  0  0
   28.2811  -18.5437  -16.3093 C   0  0  0  0  0  0  0  0  0  0  0  0
   28.6578  -18.6431  -17.4974 O   0  0  0  0  0  0  0  0  0  0  0  0
   29.1261  -19.1306  -15.3588 O   0  0  0  0  0  0  0  0  0  0  0  0
  2  1  1  0
  3  2  2  0
  4  2  1  0
  5  4  1  0
  6  8  1  0
  6  5  1  0
  6  7  1  6
  8  9  2  0
  8 10  1  0
 10 14  1  0
 10 11  1  0
 12 11  1  0
 13 14  1  0
 13 12  1  0
 15 17  1  0
 14 15  1  6
 16 15  2  0
 18 17  1  0
 18 19  1  1
 20 19  1  0
 21 20  1  0
 22 21  1  0
 23 22  1  0
 24 18  1  0
 25 24  2  0
 26 24  1  0
M  END
$$$$
