QPK.pdb
     RDKit          3D

 26 26  0  0  1  0  0  0  0  0999 V2000
   27.4174  -15.3144  -14.5717 N   0  0  0  0  0  0  0  0  0  0  0  0
   26.5254  -15.9675  -15.4501 C   0  0  0  0  0  0  0  0  0  0  0  0
   25.6825  -15.2539  -16.0525 O   0  0  0  0  0  0  0  0  0  0  0  0
   26.5523  -17.4302  -15.6771 C   0  0  0  0  0  0  0  0  0  0  0  0
   27.6416  -18.0595  -14.8124 C   0  0  0  0  0  0  0  0  0  0  0  0
   27.6955  -19.5524  -15.0575 C   0  0  2  0  0  0  0  0  0  0  0  0
   27.9602  -19.6947  -16.4933 N   0  0  0  0  0  0  0  0  0  0  0  0
   26.4278  -20.2218  -14.7270 C   0  0  0  0  0  0  0  0  0  0  0  0
   25.6882  -20.6025  -15.6706 O   0  0  0  0  0  0  0  0  0  0  0  0
   25.9877  -20.4648  -13.4020 N   0  0  0  0  0  0  0  0  0  0  0  0
   26.5183  -19.9345  -12.1545 C   0  0  0  0  0  0  0  0  0  0  0  0
   26.5611  -21.2084  -11.2984 C   0  0  0  0  0  0  0  0  0  0  0  0
   25.1529  -21.7475  -11.5843 C   0  0  0  0  0  0  0  0  0  0  0  0
   24.8874  -21.3217  -13.0046 C   0  0  1  0  0  0  0  0  0  0  0  0
   23.6133  -20.5477  -13.0165 C   0  0  0  0  0  0  0  0  0  0  0  0
   23.5440  -19.3328  -12.7016 O   0  0  0  0  0  0  0  0  0  0  0  0
   22.4114  -21.1912  -13.3972 N   0  0  0  0  0  0  0  0  0  0  0  0
   21.1518  -20.4403  -13.5343 C   0  0  1  0  0  0  0  0  0  0  0  0
   20.7387  -20.3679  -14.9696 C   0  0  0  0  0  0  0  0  0  0  0  0
   19.4334  -19.7361  -15.2577 C   0  0  0  0  0  0  0  0  0  0  0  0
   19.4310  -18.3109  -15.6686 C   0  0  0  0  0  0  0  0  0  0  0  0
   18.0275  -17.7832  -15.9385 C   0  0  0  0  0  0  0  0  0  0  0  0
   18.1309  -16.3986  -16.3069 N   0  0  0  0  0  0  0  0  0  0  0  0
   20.1898  -20.9799  -12.5826 C   0  0  0  0  0  0  0  0  0  0  0  0
   20.0778  -22.1966  -12.3172 O   0  0  0  0  0  0  0  0  0  0  0  0
   19.3122  -20.1309  -11.8965 O   0  0  0  0  0  0  0  0  0  0  0  0
  2  1  1  0
  3  2  2  0
  4  2  1  0
  5  4  1  0
  6  8  1  0
  6  5  1  0
  6  7  1  6
  8  9  2  0
  8 10  1  0
 10 14  1  0
 10 11  1  0
 12 11  1  0
 13 14  1  0
 13 12  1  0
 15 17  1  0
 14 15  1  1
 16 15  2  0
 18 17  1  0
 18 19  1  6
 20 19  1  0
 21 20  1  0
 22 21  1  0
 23 22  1  0
 24 18  1  0
 25 24  2  0
 26 24  1  0
M  END
$$$$
