QPK.pdb
     RDKit          3D

 26 26  0  0  1  0  0  0  0  0999 V2000
   21.1384  -20.8544  -15.7237 N   0  0  0  0  0  0  0  0  0  0  0  0
   20.2203  -21.5131  -14.8769 C   0  0  0  0  0  0  0  0  0  0  0  0
   18.9997  -21.4226  -15.1674 O   0  0  0  0  0  0  0  0  0  0  0  0
   20.6414  -22.2873  -13.6874 C   0  0  0  0  0  0  0  0  0  0  0  0
   22.1623  -22.4182  -13.6776 C   0  0  0  0  0  0  0  0  0  0  0  0
   22.7453  -21.5685  -12.5685 C   0  0  2  0  0  0  0  0  0  0  0  0
   21.6202  -20.7736  -12.0644 N   0  0  0  0  0  0  0  0  0  0  0  0
   23.8029  -20.6660  -13.0496 C   0  0  0  0  0  0  0  0  0  0  0  0
   23.4881  -19.4897  -13.3651 O   0  0  0  0  0  0  0  0  0  0  0  0
   25.1623  -21.0445  -13.1792 N   0  0  0  0  0  0  0  0  0  0  0  0
   25.7977  -22.3000  -12.8063 C   0  0  0  0  0  0  0  0  0  0  0  0
   27.0576  -21.7825  -12.0975 C   0  0  0  0  0  0  0  0  0  0  0  0
   27.5198  -20.7498  -13.1343 C   0  0  0  0  0  0  0  0  0  0  0  0
   26.2334  -20.2319  -13.7226 C   0  0  1  0  0  0  0  0  0  0  0  0
   26.3049  -20.4114  -15.2009 C   0  0  0  0  0  0  0  0  0  0  0  0
   25.9547  -21.4691  -15.7826 O   0  0  0  0  0  0  0  0  0  0  0  0
   26.7872  -19.3535  -16.0081 N   0  0  0  0  0  0  0  0  0  0  0  0
   26.7881  -19.4515  -17.4776 C   0  0  1  0  0  0  0  0  0  0  0  0
   26.5251  -18.1139  -18.0921 C   0  0  0  0  0  0  0  0  0  0  0  0
   26.4807  -18.0544  -19.5687 C   0  0  0  0  0  0  0  0  0  0  0  0
   26.2868  -16.7270  -20.2015 C   0  0  0  0  0  0  0  0  0  0  0  0
   26.2990  -16.7979  -21.7233 C   0  0  0  0  0  0  0  0  0  0  0  0
   26.0490  -15.4799  -22.2369 N   0  0  0  0  0  0  0  0  0  0  0  0
   27.9941  -20.1570  -17.8899 C   0  0  0  0  0  0  0  0  0  0  0  0
   29.0839  -20.0914  -17.2806 O   0  0  0  0  0  0  0  0  0  0  0  0
   27.9902  -20.9702  -19.0304 O   0  0  0  0  0  0  0  0  0  0  0  0
  2  1  1  0
  3  2  2  0
  4  2  1  0
  5  4  1  0
  6  8  1  0
  6  5  1  0
  6  7  1  6
  8  9  2  0
  8 10  1  0
 10 14  1  0
 10 11  1  0
 12 11  1  0
 13 14  1  0
 13 12  1  0
 15 17  1  0
 14 15  1  6
 16 15  2  0
 18 17  1  0
 18 19  1  6
 20 19  1  0
 21 20  1  0
 22 21  1  0
 23 22  1  0
 24 18  1  0
 25 24  2  0
 26 24  1  0
M  END
$$$$
