QPK.pdb
     RDKit          3D

 26 26  0  0  1  0  0  0  0  0999 V2000
   26.3796  -22.1302  -20.8991 N   0  0  0  0  0  0  0  0  0  0  0  0
   27.7872  -22.1851  -20.8031 C   0  0  0  0  0  0  0  0  0  0  0  0
   28.4389  -22.2047  -21.8790 O   0  0  0  0  0  0  0  0  0  0  0  0
   28.5006  -22.2196  -19.5063 C   0  0  0  0  0  0  0  0  0  0  0  0
   27.4888  -22.1340  -18.3664 C   0  0  0  0  0  0  0  0  0  0  0  0
   28.2083  -22.1738  -17.0350 C   0  0  2  0  0  0  0  0  0  0  0  0
   28.6429  -23.5660  -16.8769 N   0  0  0  0  0  0  0  0  0  0  0  0
   27.3319  -21.8063  -15.9120 C   0  0  0  0  0  0  0  0  0  0  0  0
   26.8745  -22.7248  -15.1844 O   0  0  0  0  0  0  0  0  0  0  0  0
   26.9704  -20.4723  -15.5991 N   0  0  0  0  0  0  0  0  0  0  0  0
   27.2991  -19.2479  -16.3148 C   0  0  0  0  0  0  0  0  0  0  0  0
   27.7169  -18.3399  -15.1493 C   0  0  0  0  0  0  0  0  0  0  0  0
   26.5433  -18.6027  -14.1961 C   0  0  0  0  0  0  0  0  0  0  0  0
   26.1782  -20.0393  -14.4643 C   0  0  1  0  0  0  0  0  0  0  0  0
   24.7293  -20.0828  -14.8124 C   0  0  0  0  0  0  0  0  0  0  0  0
   24.2972  -19.9087  -15.9798 O   0  0  0  0  0  0  0  0  0  0  0  0
   23.7762  -20.3305  -13.7956 N   0  0  0  0  0  0  0  0  0  0  0  0
   22.3729  -20.6373  -14.1207 C   0  0  1  0  0  0  0  0  0  0  0  0
   21.7625  -21.4898  -13.0545 C   0  0  0  0  0  0  0  0  0  0  0  0
   20.3791  -21.9580  -13.2843 C   0  0  0  0  0  0  0  0  0  0  0  0
   19.7314  -22.7532  -12.2127 C   0  0  0  0  0  0  0  0  0  0  0  0
   18.3367  -23.2286  -12.5998 C   0  0  0  0  0  0  0  0  0  0  0  0
   17.7732  -23.9287  -11.4792 N   0  0  0  0  0  0  0  0  0  0  0  0
   21.6966  -19.3916  -14.4568 C   0  0  0  0  0  0  0  0  0  0  0  0
   21.9728  -18.2864  -13.9416 O   0  0  0  0  0  0  0  0  0  0  0  0
   20.6668  -19.3727  -15.4060 O   0  0  0  0  0  0  0  0  0  0  0  0
  2  1  1  0
  3  2  2  0
  4  2  1  0
  5  4  1  0
  6  8  1  0
  6  5  1  0
  6  7  1  1
  8  9  2  0
  8 10  1  0
 10 14  1  0
 10 11  1  0
 12 11  1  0
 13 14  1  0
 13 12  1  0
 15 17  1  0
 14 15  1  6
 16 15  2  0
 18 17  1  0
 18 19  1  1
 20 19  1  0
 21 20  1  0
 22 21  1  0
 23 22  1  0
 24 18  1  0
 25 24  2  0
 26 24  1  0
M  END
$$$$
