QPK.pdb
     RDKit          3D

 26 26  0  0  1  0  0  0  0  0999 V2000
   27.4119  -18.6206  -18.0961 N   0  0  0  0  0  0  0  0  0  0  0  0
   28.5282  -18.2236  -17.3281 C   0  0  0  0  0  0  0  0  0  0  0  0
   29.4497  -17.6085  -17.9241 O   0  0  0  0  0  0  0  0  0  0  0  0
   28.6431  -18.5028  -15.8787 C   0  0  0  0  0  0  0  0  0  0  0  0
   27.3267  -19.0810  -15.3658 C   0  0  0  0  0  0  0  0  0  0  0  0
   27.5664  -20.4458  -14.7561 C   0  0  2  0  0  0  0  0  0  0  0  0
   28.0134  -21.2890  -15.8702 N   0  0  0  0  0  0  0  0  0  0  0  0
   26.3461  -21.0206  -14.1690 C   0  0  0  0  0  0  0  0  0  0  0  0
   25.6313  -21.7673  -14.8859 O   0  0  0  0  0  0  0  0  0  0  0  0
   25.9254  -20.7823  -12.8369 N   0  0  0  0  0  0  0  0  0  0  0  0
   26.5505  -19.9494  -11.8197 C   0  0  0  0  0  0  0  0  0  0  0  0
   26.4827  -20.8848  -10.6040 C   0  0  0  0  0  0  0  0  0  0  0  0
   25.0159  -21.3238  -10.7094 C   0  0  0  0  0  0  0  0  0  0  0  0
   24.7522  -21.3401  -12.1925 C   0  0  1  0  0  0  0  0  0  0  0  0
   23.5697  -20.4706  -12.4535 C   0  0  0  0  0  0  0  0  0  0  0  0
   23.6417  -19.2183  -12.5340 O   0  0  0  0  0  0  0  0  0  0  0  0
   22.2947  -21.0616  -12.6221 N   0  0  0  0  0  0  0  0  0  0  0  0
   21.1653  -20.2983  -13.1798 C   0  0  1  0  0  0  0  0  0  0  0  0
   21.2377  -20.2716  -14.6731 C   0  0  0  0  0  0  0  0  0  0  0  0
   20.1203  -19.6146  -15.3843 C   0  0  0  0  0  0  0  0  0  0  0  0
   20.0765  -18.1320  -15.3829 C   0  0  0  0  0  0  0  0  0  0  0  0
   18.8405  -17.5834  -16.0846 C   0  0  0  0  0  0  0  0  0  0  0  0
   18.8120  -16.1594  -15.8975 N   0  0  0  0  0  0  0  0  0  0  0  0
   19.9351  -20.7896  -12.5735 C   0  0  0  0  0  0  0  0  0  0  0  0
   19.7004  -21.9974  -12.3514 O   0  0  0  0  0  0  0  0  0  0  0  0
   18.9200  -19.9003  -12.1987 O   0  0  0  0  0  0  0  0  0  0  0  0
  2  1  1  0
  3  2  2  0
  4  2  1  0
  5  4  1  0
  6  8  1  0
  6  5  1  0
  6  7  1  6
  8  9  2  0
  8 10  1  0
 10 14  1  0
 10 11  1  0
 12 11  1  0
 13 14  1  0
 13 12  1  0
 15 17  1  0
 14 15  1  1
 16 15  2  0
 18 17  1  0
 18 19  1  6
 20 19  1  0
 21 20  1  0
 22 21  1  0
 23 22  1  0
 24 18  1  0
 25 24  2  0
 26 24  1  0
M  END
$$$$
