KNL.pdb
     RDKit          3D

 26 25  0  0  1  0  0  0  0  0999 V2000
   12.6728  -21.9802    3.2669 N   0  0  0  0  0  0  0  0  0  0  0  0
   13.9897  -21.5962    3.6311 C   0  0  1  0  0  0  0  0  0  0  0  0
   15.0981  -22.1200    2.7380 C   0  0  0  0  0  0  0  0  0  0  0  0
   15.0532  -23.5735    2.4428 C   0  0  0  0  0  0  0  0  0  0  0  0
   16.2406  -24.0834    1.7124 C   0  0  0  0  0  0  0  0  0  0  0  0
   16.1710  -25.5320    1.3994 C   0  0  0  0  0  0  0  0  0  0  0  0
   17.2242  -26.0861    0.6130 N   0  0  0  0  0  0  0  0  0  0  0  0
   14.1003  -20.1073    3.5591 C   0  0  0  0  0  0  0  0  0  0  0  0
   13.6873  -19.5359    2.5318 O   0  0  0  0  0  0  0  0  0  0  0  0
   12.6416  -16.0864    7.6220 N   0  0  0  0  0  0  0  0  0  0  0  0
   13.0910  -16.4900    6.3192 C   0  0  0  0  0  0  0  0  0  0  0  0
   13.1507  -15.6535    5.3865 O   0  0  0  0  0  0  0  0  0  0  0  0
   13.4693  -17.9224    6.1662 C   0  0  0  0  0  0  0  0  0  0  0  0
   14.3501  -18.0386    4.9344 C   0  0  2  0  0  0  0  0  0  0  0  0
   14.6702  -19.4373    4.6675 N   0  0  0  0  0  0  0  0  0  0  0  0
   15.6384  -17.3664    5.2424 C   0  0  0  0  0  0  0  0  0  0  0  0
   16.2012  -17.5341    6.3749 O   0  0  0  0  0  0  0  0  0  0  0  0
   19.1184  -13.3956    2.1526 C   0  0  0  0  0  0  0  0  0  0  0  0
   18.8613  -13.8930    3.5410 C   0  0  1  0  0  0  0  0  0  0  0  0
   18.7640  -12.6987    4.4965 C   0  0  0  0  0  0  0  0  0  0  0  0
   17.7231  -14.8024    3.6533 C   0  0  0  0  0  0  0  0  0  0  0  0
   17.5192  -15.7179    4.7918 C   0  0  2  0  0  0  0  0  0  0  0  0
   16.3231  -16.5276    4.3586 N   0  0  0  0  0  0  0  0  0  0  0  0
   17.2508  -15.1300    6.0813 C   0  0  0  0  0  0  0  0  0  0  0  0
   18.2874  -15.1542    7.0667 O   0  0  0  0  0  0  0  0  0  0  0  0
   16.2051  -14.5770    6.4923 O   0  0  0  0  0  0  0  0  0  0  0  0
  2  1  1  6
  2  3  1  0
  3  4  1  0
  5  6  1  0
  5  4  1  0
  7  6  1  0
  8  2  1  0
  9  8  2  0
 10 11  1  0
 11 13  1  0
 12 11  2  0
 14 13  1  1
 14 15  1  0
 15  8  1  0
 16 14  1  0
 16 17  2  0
 19 21  1  0
 19 18  1  6
 20 19  1  0
 22 21  1  6
 22 23  1  0
 23 16  1  0
 24 22  1  0
 25 24  1  0
 26 24  2  0
M  END
$$$$
