KNL.pdb
     RDKit          3D

 26 25  0  0  1  0  0  0  0  0999 V2000
   15.8836  -13.0780  -17.9707 N   0  0  0  0  0  0  0  0  0  0  0  0
   15.7205  -11.7693  -17.4465 C   0  0  1  0  0  0  0  0  0  0  0  0
   15.3695  -11.6902  -15.9730 C   0  0  0  0  0  0  0  0  0  0  0  0
   14.2058  -12.5051  -15.5447 C   0  0  0  0  0  0  0  0  0  0  0  0
   13.6781  -12.1544  -14.2022 C   0  0  0  0  0  0  0  0  0  0  0  0
   12.5401  -13.0022  -13.7693 C   0  0  0  0  0  0  0  0  0  0  0  0
   11.3933  -13.0461  -14.6166 N   0  0  0  0  0  0  0  0  0  0  0  0
   17.0105  -11.0263  -17.5815 C   0  0  0  0  0  0  0  0  0  0  0  0
   18.0705  -11.6810  -17.5684 O   0  0  0  0  0  0  0  0  0  0  0  0
   20.1897   -7.5611  -19.0010 N   0  0  0  0  0  0  0  0  0  0  0  0
   18.9795   -6.7893  -19.0469 C   0  0  0  0  0  0  0  0  0  0  0  0
   19.0071   -5.5974  -19.4366 O   0  0  0  0  0  0  0  0  0  0  0  0
   17.7358   -7.4861  -18.6158 C   0  0  0  0  0  0  0  0  0  0  0  0
   18.1321   -8.8540  -18.0879 C   0  0  2  0  0  0  0  0  0  0  0  0
   16.9462   -9.6192  -17.7161 N   0  0  0  0  0  0  0  0  0  0  0  0
   18.9028   -8.6426  -16.8359 C   0  0  0  0  0  0  0  0  0  0  0  0
   18.3080   -8.3042  -15.7593 O   0  0  0  0  0  0  0  0  0  0  0  0
   22.6422  -10.2530  -13.2042 C   0  0  0  0  0  0  0  0  0  0  0  0
   23.1629   -9.7244  -14.5044 C   0  0  1  0  0  0  0  0  0  0  0  0
   24.3368  -10.5927  -14.9699 C   0  0  0  0  0  0  0  0  0  0  0  0
   22.1422   -9.5515  -15.5356 C   0  0  0  0  0  0  0  0  0  0  0  0
   21.0080   -8.6165  -15.4127 C   0  0  2  0  0  0  0  0  0  0  0  0
   20.2883   -8.7905  -16.7263 N   0  0  0  0  0  0  0  0  0  0  0  0
   21.3122   -7.2196  -15.2212 C   0  0  0  0  0  0  0  0  0  0  0  0
   21.2658   -6.6912  -13.8928 O   0  0  0  0  0  0  0  0  0  0  0  0
   21.6245   -6.3577  -16.0743 O   0  0  0  0  0  0  0  0  0  0  0  0
  2  1  1  1
  2  3  1  0
  3  4  1  0
  5  6  1  0
  5  4  1  0
  7  6  1  0
  8  2  1  0
  9  8  2  0
 10 11  1  0
 11 13  1  0
 12 11  2  0
 14 13  1  1
 14 15  1  0
 15  8  1  0
 16 14  1  0
 16 17  2  0
 19 21  1  0
 19 18  1  1
 20 19  1  0
 22 21  1  6
 22 23  1  0
 23 16  1  0
 24 22  1  0
 25 24  1  0
 26 24  2  0
M  END
$$$$
