KNL.pdb
     RDKit          3D

 26 25  0  0  1  0  0  0  0  0999 V2000
   22.9024  -21.2403  -10.5110 N   0  0  0  0  0  0  0  0  0  0  0  0
   24.1424  -20.5514  -10.5561 C   0  0  1  0  0  0  0  0  0  0  0  0
   25.1942  -21.0253   -9.5713 C   0  0  0  0  0  0  0  0  0  0  0  0
   24.8423  -20.8830   -8.1368 C   0  0  0  0  0  0  0  0  0  0  0  0
   23.5143  -21.4407   -7.7775 C   0  0  0  0  0  0  0  0  0  0  0  0
   23.1578  -21.2574   -6.3490 C   0  0  0  0  0  0  0  0  0  0  0  0
   21.8776  -21.7230   -5.9259 N   0  0  0  0  0  0  0  0  0  0  0  0
   24.7565  -20.7417  -11.9055 C   0  0  0  0  0  0  0  0  0  0  0  0
   25.4470  -21.7606  -12.0991 O   0  0  0  0  0  0  0  0  0  0  0  0
   23.6102  -21.0314  -16.6129 N   0  0  0  0  0  0  0  0  0  0  0  0
   22.5643  -21.2856  -15.6623 C   0  0  0  0  0  0  0  0  0  0  0  0
   21.5316  -21.9052  -16.0128 O   0  0  0  0  0  0  0  0  0  0  0  0
   22.7916  -20.7794  -14.2801 C   0  0  0  0  0  0  0  0  0  0  0  0
   24.1596  -20.1203  -14.2488 C   0  0  2  0  0  0  0  0  0  0  0  0
   24.5139  -19.7477  -12.8829 N   0  0  0  0  0  0  0  0  0  0  0  0
   24.0612  -18.8522  -15.0159 C   0  0  0  0  0  0  0  0  0  0  0  0
   23.1281  -18.0178  -14.7698 O   0  0  0  0  0  0  0  0  0  0  0  0
   28.5887  -16.5337  -17.2541 C   0  0  0  0  0  0  0  0  0  0  0  0
   27.3131  -16.7017  -16.4887 C   0  0  1  0  0  0  0  0  0  0  0  0
   27.1329  -15.5129  -15.5385 C   0  0  0  0  0  0  0  0  0  0  0  0
   26.1381  -16.9432  -17.3230 C   0  0  0  0  0  0  0  0  0  0  0  0
   24.7857  -17.1734  -16.7809 C   0  0  2  0  0  0  0  0  0  0  0  0
   24.9435  -18.4722  -16.0311 N   0  0  0  0  0  0  0  0  0  0  0  0
   23.7012  -17.2999  -17.7235 C   0  0  0  0  0  0  0  0  0  0  0  0
   22.9953  -16.1168  -18.1079 O   0  0  0  0  0  0  0  0  0  0  0  0
   23.2607  -18.3299  -18.2832 O   0  0  0  0  0  0  0  0  0  0  0  0
  2  1  1  6
  2  3  1  0
  3  4  1  0
  5  6  1  0
  5  4  1  0
  7  6  1  0
  8  2  1  0
  9  8  2  0
 10 11  1  0
 11 13  1  0
 12 11  2  0
 14 13  1  1
 14 15  1  0
 15  8  1  0
 16 14  1  0
 16 17  2  0
 19 21  1  0
 19 18  1  6
 20 19  1  0
 22 21  1  6
 22 23  1  0
 23 16  1  0
 24 22  1  0
 25 24  1  0
 26 24  2  0
M  END
$$$$
