KNL.pdb
     RDKit          3D

 26 25  0  0  1  0  0  0  0  0999 V2000
   26.2786  -19.9987  -15.2160 N   0  0  0  0  0  0  0  0  0  0  0  0
   27.2306  -19.8004  -14.1823 C   0  0  1  0  0  0  0  0  0  0  0  0
   28.1890  -18.6423  -14.3844 C   0  0  0  0  0  0  0  0  0  0  0  0
   28.8440  -18.5743  -15.7141 C   0  0  0  0  0  0  0  0  0  0  0  0
   27.9030  -18.3931  -16.8478 C   0  0  0  0  0  0  0  0  0  0  0  0
   28.5738  -18.2724  -18.1656 C   0  0  0  0  0  0  0  0  0  0  0  0
   29.8106  -18.9616  -18.3393 N   0  0  0  0  0  0  0  0  0  0  0  0
   26.5103  -19.4940  -12.9089 C   0  0  0  0  0  0  0  0  0  0  0  0
   26.5668  -18.3307  -12.4664 O   0  0  0  0  0  0  0  0  0  0  0  0
   23.3009  -19.1810  -12.6864 N   0  0  0  0  0  0  0  0  0  0  0  0
   22.7897  -20.3782  -12.0798 C   0  0  0  0  0  0  0  0  0  0  0  0
   21.6296  -20.7734  -12.3466 O   0  0  0  0  0  0  0  0  0  0  0  0
   23.7079  -21.0893  -11.1474 C   0  0  0  0  0  0  0  0  0  0  0  0
   25.0058  -20.3027  -11.0879 C   0  0  2  0  0  0  0  0  0  0  0  0
   25.8061  -20.5498  -12.2831 N   0  0  0  0  0  0  0  0  0  0  0  0
   25.7927  -20.8268   -9.9422 C   0  0  0  0  0  0  0  0  0  0  0  0
   26.3588  -21.9677  -10.0140 O   0  0  0  0  0  0  0  0  0  0  0  0
   28.9104  -18.6104   -5.3747 C   0  0  0  0  0  0  0  0  0  0  0  0
   28.5402  -19.7798   -6.2329 C   0  0  1  0  0  0  0  0  0  0  0  0
   28.7981  -21.0772   -5.4589 C   0  0  0  0  0  0  0  0  0  0  0  0
   27.1922  -19.7126   -6.7926 C   0  0  0  0  0  0  0  0  0  0  0  0
   26.5530  -20.8272   -7.5173 C   0  0  2  0  0  0  0  0  0  0  0  0
   25.9788  -20.1476   -8.7349 N   0  0  0  0  0  0  0  0  0  0  0  0
   25.5044  -21.5497   -6.8400 C   0  0  0  0  0  0  0  0  0  0  0  0
   25.8720  -22.4703   -5.8087 O   0  0  0  0  0  0  0  0  0  0  0  0
   24.2666  -21.4952   -7.0216 O   0  0  0  0  0  0  0  0  0  0  0  0
  2  1  1  6
  2  3  1  0
  3  4  1  0
  5  6  1  0
  5  4  1  0
  7  6  1  0
  8  2  1  0
  9  8  2  0
 10 11  1  0
 11 13  1  0
 12 11  2  0
 14 13  1  6
 14 15  1  0
 15  8  1  0
 16 14  1  0
 16 17  2  0
 19 21  1  0
 19 18  1  1
 20 19  1  0
 22 21  1  1
 22 23  1  0
 23 16  1  0
 24 22  1  0
 25 24  1  0
 26 24  2  0
M  END
$$$$
