KNL.pdb
     RDKit          3D

 26 25  0  0  1  0  0  0  0  0999 V2000
   27.4897  -22.7970  -16.8189 N   0  0  0  0  0  0  0  0  0  0  0  0
   26.9665  -22.0852  -15.7082 C   0  0  1  0  0  0  0  0  0  0  0  0
   27.3788  -20.6290  -15.6069 C   0  0  0  0  0  0  0  0  0  0  0  0
   27.9155  -20.0248  -16.8513 C   0  0  0  0  0  0  0  0  0  0  0  0
   27.3253  -18.7059  -17.1914 C   0  0  0  0  0  0  0  0  0  0  0  0
   27.9653  -18.0497  -18.3581 C   0  0  0  0  0  0  0  0  0  0  0  0
   27.5000  -16.7503  -18.7186 N   0  0  0  0  0  0  0  0  0  0  0  0
   25.4748  -22.0634  -15.8026 C   0  0  0  0  0  0  0  0  0  0  0  0
   24.9505  -22.3476  -16.8966 O   0  0  0  0  0  0  0  0  0  0  0  0
   20.7825  -23.5968  -14.0491 N   0  0  0  0  0  0  0  0  0  0  0  0
   21.3286  -22.4682  -13.3487 C   0  0  0  0  0  0  0  0  0  0  0  0
   20.5648  -21.6241  -12.8221 O   0  0  0  0  0  0  0  0  0  0  0  0
   22.8145  -22.3812  -13.2947 C   0  0  0  0  0  0  0  0  0  0  0  0
   23.2920  -21.8084  -14.6178 C   0  0  2  0  0  0  0  0  0  0  0  0
   24.7486  -21.7195  -14.6379 N   0  0  0  0  0  0  0  0  0  0  0  0
   22.7869  -20.4145  -14.7086 C   0  0  0  0  0  0  0  0  0  0  0  0
   23.1706  -19.5314  -13.8718 O   0  0  0  0  0  0  0  0  0  0  0  0
   22.9938  -17.4484  -19.0016 C   0  0  0  0  0  0  0  0  0  0  0  0
   22.9274  -17.7025  -17.5277 C   0  0  1  0  0  0  0  0  0  0  0  0
   23.4997  -16.4935  -16.7796 C   0  0  0  0  0  0  0  0  0  0  0  0
   21.6056  -18.0943  -17.0436 C   0  0  0  0  0  0  0  0  0  0  0  0
   21.3442  -18.5548  -15.6668 C   0  0  2  0  0  0  0  0  0  0  0  0
   21.8865  -19.9618  -15.6770 N   0  0  0  0  0  0  0  0  0  0  0  0
   19.9729  -18.5794  -15.2202 C   0  0  0  0  0  0  0  0  0  0  0  0
   19.4257  -17.3897  -14.6445 O   0  0  0  0  0  0  0  0  0  0  0  0
   19.1490  -19.5217  -15.2588 O   0  0  0  0  0  0  0  0  0  0  0  0
  2  1  1  6
  2  3  1  0
  3  4  1  0
  5  6  1  0
  5  4  1  0
  7  6  1  0
  8  2  1  0
  9  8  2  0
 10 11  1  0
 11 13  1  0
 12 11  2  0
 14 13  1  1
 14 15  1  0
 15  8  1  0
 16 14  1  0
 16 17  2  0
 19 21  1  0
 19 18  1  6
 20 19  1  0
 22 21  1  6
 22 23  1  0
 23 16  1  0
 24 22  1  0
 25 24  1  0
 26 24  2  0
M  END
$$$$
