KNL.pdb
     RDKit          3D

 26 25  0  0  1  0  0  0  0  0999 V2000
   22.4654  -18.3187  -14.3559 N   0  0  0  0  0  0  0  0  0  0  0  0
   22.0212  -19.6541  -14.1726 C   0  0  1  0  0  0  0  0  0  0  0  0
   21.0635  -20.1789  -15.2251 C   0  0  0  0  0  0  0  0  0  0  0  0
   19.7639  -19.4695  -15.3227 C   0  0  0  0  0  0  0  0  0  0  0  0
   18.9150  -19.5844  -14.1105 C   0  0  0  0  0  0  0  0  0  0  0  0
   17.5054  -19.9443  -14.4020 C   0  0  0  0  0  0  0  0  0  0  0  0
   16.9962  -21.1388  -13.8114 N   0  0  0  0  0  0  0  0  0  0  0  0
   23.2005  -20.5711  -14.2251 C   0  0  0  0  0  0  0  0  0  0  0  0
   22.9943  -21.7835  -14.4248 O   0  0  0  0  0  0  0  0  0  0  0  0
   27.6910  -22.3057  -14.8065 N   0  0  0  0  0  0  0  0  0  0  0  0
   28.0237  -20.9119  -14.7115 C   0  0  0  0  0  0  0  0  0  0  0  0
   29.1986  -20.5288  -14.9261 O   0  0  0  0  0  0  0  0  0  0  0  0
   26.9092  -19.9904  -14.3552 C   0  0  0  0  0  0  0  0  0  0  0  0
   25.6788  -20.8377  -14.0814 C   0  0  2  0  0  0  0  0  0  0  0  0
   24.4831  -20.0016  -14.0437 N   0  0  0  0  0  0  0  0  0  0  0  0
   25.8285  -21.4148  -12.7210 C   0  0  0  0  0  0  0  0  0  0  0  0
   25.4773  -22.6185  -12.4865 O   0  0  0  0  0  0  0  0  0  0  0  0
   28.8446  -20.2795   -7.5862 C   0  0  0  0  0  0  0  0  0  0  0  0
   27.4879  -20.6950   -8.0634 C   0  0  1  0  0  0  0  0  0  0  0  0
   26.4248  -19.8203   -7.3901 C   0  0  0  0  0  0  0  0  0  0  0  0
   27.3484  -20.7378   -9.5173 C   0  0  0  0  0  0  0  0  0  0  0  0
   26.1274  -21.1957  -10.2068 C   0  0  2  0  0  0  0  0  0  0  0  0
   26.3467  -20.7237  -11.6222 N   0  0  0  0  0  0  0  0  0  0  0  0
   24.8627  -20.6915   -9.7304 C   0  0  0  0  0  0  0  0  0  0  0  0
   24.1154  -21.4939   -8.8118 O   0  0  0  0  0  0  0  0  0  0  0  0
   24.2904  -19.6128  -10.0077 O   0  0  0  0  0  0  0  0  0  0  0  0
  2  1  1  6
  2  3  1  0
  3  4  1  0
  5  6  1  0
  5  4  1  0
  7  6  1  0
  8  2  1  0
  9  8  2  0
 10 11  1  0
 11 13  1  0
 12 11  2  0
 14 13  1  1
 14 15  1  0
 15  8  1  0
 16 14  1  0
 16 17  2  0
 19 21  1  0
 19 18  1  6
 20 19  1  0
 22 21  1  1
 22 23  1  0
 23 16  1  0
 24 22  1  0
 25 24  1  0
 26 24  2  0
M  END
$$$$
