KNL.pdb
     RDKit          3D

 26 25  0  0  1  0  0  0  0  0999 V2000
   28.2492  -20.5298  -14.8557 N   0  0  0  0  0  0  0  0  0  0  0  0
   27.4621  -19.4775  -14.3196 C   0  0  1  0  0  0  0  0  0  0  0  0
   27.1873  -18.3181  -15.2582 C   0  0  0  0  0  0  0  0  0  0  0  0
   27.4629  -18.5737  -16.6936 C   0  0  0  0  0  0  0  0  0  0  0  0
   28.8678  -18.3173  -17.0989 C   0  0  0  0  0  0  0  0  0  0  0  0
   28.9955  -17.6606  -18.4231 C   0  0  0  0  0  0  0  0  0  0  0  0
   29.1871  -18.5024  -19.5587 N   0  0  0  0  0  0  0  0  0  0  0  0
   26.1151  -20.0135  -13.9557 C   0  0  0  0  0  0  0  0  0  0  0  0
   25.1849  -19.2018  -13.7872 O   0  0  0  0  0  0  0  0  0  0  0  0
   25.1352  -24.5569  -16.1184 N   0  0  0  0  0  0  0  0  0  0  0  0
   24.4607  -23.5035  -15.4129 C   0  0  0  0  0  0  0  0  0  0  0  0
   23.7537  -22.6782  -16.0392 O   0  0  0  0  0  0  0  0  0  0  0  0
   24.6547  -23.4685  -13.9367 C   0  0  0  0  0  0  0  0  0  0  0  0
   24.6859  -22.0114  -13.5092 C   0  0  2  0  0  0  0  0  0  0  0  0
   25.9805  -21.4160  -13.8246 N   0  0  0  0  0  0  0  0  0  0  0  0
   24.5597  -21.9780  -12.0296 C   0  0  0  0  0  0  0  0  0  0  0  0
   23.4800  -22.3537  -11.4636 O   0  0  0  0  0  0  0  0  0  0  0  0
   26.5752  -19.3900   -7.6362 C   0  0  0  0  0  0  0  0  0  0  0  0
   27.2731  -20.0195   -8.8015 C   0  0  1  0  0  0  0  0  0  0  0  0
   28.7843  -20.0189   -8.5468 C   0  0  0  0  0  0  0  0  0  0  0  0
   26.7611  -21.3378   -9.1690 C   0  0  0  0  0  0  0  0  0  0  0  0
   25.3910  -21.5726   -9.6626 C   0  0  2  0  0  0  0  0  0  0  0  0
   25.5680  -21.5529  -11.1600 N   0  0  0  0  0  0  0  0  0  0  0  0
   24.3755  -20.6170   -9.2935 C   0  0  0  0  0  0  0  0  0  0  0  0
   24.0955  -19.5426  -10.1953 O   0  0  0  0  0  0  0  0  0  0  0  0
   23.6687  -20.5786   -8.2604 O   0  0  0  0  0  0  0  0  0  0  0  0
  2  1  1  6
  2  3  1  0
  3  4  1  0
  5  6  1  0
  5  4  1  0
  7  6  1  0
  8  2  1  0
  9  8  2  0
 10 11  1  0
 11 13  1  0
 12 11  2  0
 14 13  1  1
 14 15  1  0
 15  8  1  0
 16 14  1  0
 16 17  2  0
 19 21  1  0
 19 18  1  1
 20 19  1  0
 22 21  1  1
 22 23  1  0
 23 16  1  0
 24 22  1  0
 25 24  1  0
 26 24  2  0
M  END
$$$$
