KNL.pdb
     RDKit          3D

 26 25  0  0  1  0  0  0  0  0999 V2000
   18.1054  -14.9691  -19.2014 N   0  0  0  0  0  0  0  0  0  0  0  0
   18.2764  -13.9559  -18.2224 C   0  0  1  0  0  0  0  0  0  0  0  0
   18.7478  -14.4299  -16.8609 C   0  0  0  0  0  0  0  0  0  0  0  0
   17.9210  -15.4859  -16.2260 C   0  0  0  0  0  0  0  0  0  0  0  0
   16.8337  -14.9683  -15.3581 C   0  0  0  0  0  0  0  0  0  0  0  0
   16.0409  -16.0337  -14.6967 C   0  0  0  0  0  0  0  0  0  0  0  0
   16.7596  -17.0857  -14.0551 N   0  0  0  0  0  0  0  0  0  0  0  0
   19.3269  -13.0003  -18.6888 C   0  0  0  0  0  0  0  0  0  0  0  0
   19.6532  -13.0257  -19.8910 O   0  0  0  0  0  0  0  0  0  0  0  0
   21.4363   -9.0283  -20.5634 N   0  0  0  0  0  0  0  0  0  0  0  0
   20.6111   -8.8650  -19.3994 C   0  0  0  0  0  0  0  0  0  0  0  0
   20.6125   -7.7779  -18.7739 O   0  0  0  0  0  0  0  0  0  0  0  0
   19.7826  -10.0392  -19.0081 C   0  0  0  0  0  0  0  0  0  0  0  0
   20.6466  -10.9497  -18.1529 C   0  0  2  0  0  0  0  0  0  0  0  0
   19.8875  -12.1226  -17.7308 N   0  0  0  0  0  0  0  0  0  0  0  0
   20.9887  -10.2051  -16.9140 C   0  0  0  0  0  0  0  0  0  0  0  0
   20.0967   -9.9709  -16.0326 O   0  0  0  0  0  0  0  0  0  0  0  0
   26.1756  -10.4772  -15.0121 C   0  0  0  0  0  0  0  0  0  0  0  0
   24.6795  -10.5281  -15.0016 C   0  0  1  0  0  0  0  0  0  0  0  0
   24.2070  -11.2647  -13.7435 C   0  0  0  0  0  0  0  0  0  0  0  0
   24.0320   -9.2296  -15.1745 C   0  0  0  0  0  0  0  0  0  0  0  0
   22.5720   -9.0550  -15.2928 C   0  0  2  0  0  0  0  0  0  0  0  0
   22.2629   -9.7164  -16.6123 N   0  0  0  0  0  0  0  0  0  0  0  0
   22.0600   -7.7066  -15.3078 C   0  0  0  0  0  0  0  0  0  0  0  0
   21.8227   -7.0573  -14.0556 O   0  0  0  0  0  0  0  0  0  0  0  0
   21.7777   -6.9826  -16.2897 O   0  0  0  0  0  0  0  0  0  0  0  0
  2  1  1  6
  2  3  1  0
  3  4  1  0
  5  6  1  0
  5  4  1  0
  7  6  1  0
  8  2  1  0
  9  8  2  0
 10 11  1  0
 11 13  1  0
 12 11  2  0
 14 13  1  6
 14 15  1  0
 15  8  1  0
 16 14  1  0
 16 17  2  0
 19 21  1  0
 19 18  1  1
 20 19  1  0
 22 21  1  6
 22 23  1  0
 23 16  1  0
 24 22  1  0
 25 24  1  0
 26 24  2  0
M  END
$$$$
