KNL.pdb
     RDKit          3D

 26 25  0  0  1  0  0  0  0  0999 V2000
   27.8356  -21.9346  -15.6202 N   0  0  0  0  0  0  0  0  0  0  0  0
   28.1756  -20.5576  -15.5685 C   0  0  1  0  0  0  0  0  0  0  0  0
   28.1197  -19.8165  -16.8907 C   0  0  0  0  0  0  0  0  0  0  0  0
   28.3962  -20.6337  -18.0980 C   0  0  0  0  0  0  0  0  0  0  0  0
   29.6917  -21.3573  -18.0598 C   0  0  0  0  0  0  0  0  0  0  0  0
   30.0136  -22.0698  -19.3207 C   0  0  0  0  0  0  0  0  0  0  0  0
   31.2441  -22.7895  -19.3735 N   0  0  0  0  0  0  0  0  0  0  0  0
   27.2032  -19.8488  -14.6817 C   0  0  0  0  0  0  0  0  0  0  0  0
   26.7945  -18.7263  -15.0356 O   0  0  0  0  0  0  0  0  0  0  0  0
   23.4779  -19.1680  -11.6023 N   0  0  0  0  0  0  0  0  0  0  0  0
   23.1868  -19.9712  -12.7566 C   0  0  0  0  0  0  0  0  0  0  0  0
   21.9970  -20.2099  -13.0739 O   0  0  0  0  0  0  0  0  0  0  0  0
   24.3604  -20.4777  -13.5210 C   0  0  0  0  0  0  0  0  0  0  0  0
   25.6141  -20.0669  -12.7684 C   0  0  2  0  0  0  0  0  0  0  0  0
   26.8062  -20.5006  -13.4901 N   0  0  0  0  0  0  0  0  0  0  0  0
   25.6184  -20.7990  -11.4760 C   0  0  0  0  0  0  0  0  0  0  0  0
   25.6941  -22.0722  -11.4538 O   0  0  0  0  0  0  0  0  0  0  0  0
   28.0450  -18.7488   -7.1330 C   0  0  0  0  0  0  0  0  0  0  0  0
   27.5721  -19.7592   -8.1312 C   0  0  1  0  0  0  0  0  0  0  0  0
   28.5261  -20.9587   -8.1280 C   0  0  0  0  0  0  0  0  0  0  0  0
   26.1722  -20.1485   -7.9764 C   0  0  0  0  0  0  0  0  0  0  0  0
   25.4466  -20.9889   -8.9476 C   0  0  2  0  0  0  0  0  0  0  0  0
   25.5454  -20.1875  -10.2213 N   0  0  0  0  0  0  0  0  0  0  0  0
   24.0596  -21.2769   -8.6761 C   0  0  0  0  0  0  0  0  0  0  0  0
   23.7513  -22.2007   -7.6285 O   0  0  0  0  0  0  0  0  0  0  0  0
   23.0367  -20.8247   -9.2394 O   0  0  0  0  0  0  0  0  0  0  0  0
  2  1  1  6
  2  3  1  0
  3  4  1  0
  5  6  1  0
  5  4  1  0
  7  6  1  0
  8  2  1  0
  9  8  2  0
 10 11  1  0
 11 13  1  0
 12 11  2  0
 14 13  1  6
 14 15  1  0
 15  8  1  0
 16 14  1  0
 16 17  2  0
 19 21  1  0
 19 18  1  1
 20 19  1  0
 22 21  1  1
 22 23  1  0
 23 16  1  0
 24 22  1  0
 25 24  1  0
 26 24  2  0
M  END
$$$$
