KNL.pdb
     RDKit          3D

 26 25  0  0  1  0  0  0  0  0999 V2000
   27.4809  -20.8641  -14.7337 N   0  0  0  0  0  0  0  0  0  0  0  0
   26.4526  -21.2320  -15.6400 C   0  0  1  0  0  0  0  0  0  0  0  0
   26.6268  -22.5755  -16.3221 C   0  0  0  0  0  0  0  0  0  0  0  0
   27.6240  -22.6144  -17.4202 C   0  0  0  0  0  0  0  0  0  0  0  0
   28.9412  -23.1744  -17.0269 C   0  0  0  0  0  0  0  0  0  0  0  0
   29.9668  -23.0925  -18.0959 C   0  0  0  0  0  0  0  0  0  0  0  0
   31.3147  -23.3924  -17.7383 N   0  0  0  0  0  0  0  0  0  0  0  0
   25.1610  -21.3365  -14.8948 C   0  0  0  0  0  0  0  0  0  0  0  0
   24.1872  -21.8533  -15.4753 O   0  0  0  0  0  0  0  0  0  0  0  0
   25.4981  -21.1106   -9.3399 N   0  0  0  0  0  0  0  0  0  0  0  0
   25.0497  -21.4661  -10.6571 C   0  0  0  0  0  0  0  0  0  0  0  0
   25.3941  -22.5597  -11.1657 O   0  0  0  0  0  0  0  0  0  0  0  0
   24.1755  -20.4764  -11.3459 C   0  0  0  0  0  0  0  0  0  0  0  0
   23.9238  -20.9844  -12.7550 C   0  0  2  0  0  0  0  0  0  0  0  0
   25.1255  -20.8394  -13.5705 N   0  0  0  0  0  0  0  0  0  0  0  0
   22.8942  -20.1067  -13.3680 C   0  0  0  0  0  0  0  0  0  0  0  0
   22.9579  -18.8402  -13.2298 O   0  0  0  0  0  0  0  0  0  0  0  0
   20.4985  -17.4463  -16.9549 C   0  0  0  0  0  0  0  0  0  0  0  0
   20.1819  -18.9057  -17.0593 C   0  0  1  0  0  0  0  0  0  0  0  0
   20.3696  -19.3618  -18.5103 C   0  0  0  0  0  0  0  0  0  0  0  0
   20.8993  -19.7469  -16.1039 C   0  0  0  0  0  0  0  0  0  0  0  0
   20.7462  -19.6336  -14.6411 C   0  0  2  0  0  0  0  0  0  0  0  0
   21.8104  -20.5670  -14.1211 N   0  0  0  0  0  0  0  0  0  0  0  0
   19.4733  -20.0036  -14.0725 C   0  0  0  0  0  0  0  0  0  0  0  0
   18.5186  -18.9696  -13.8167 O   0  0  0  0  0  0  0  0  0  0  0  0
   19.0540  -21.1394  -13.7528 O   0  0  0  0  0  0  0  0  0  0  0  0
  2  1  1  1
  2  3  1  0
  3  4  1  0
  5  6  1  0
  5  4  1  0
  7  6  1  0
  8  2  1  0
  9  8  2  0
 10 11  1  0
 11 13  1  0
 12 11  2  0
 14 13  1  1
 14 15  1  0
 15  8  1  0
 16 14  1  0
 16 17  2  0
 19 21  1  0
 19 18  1  6
 20 19  1  0
 22 21  1  6
 22 23  1  0
 23 16  1  0
 24 22  1  0
 25 24  1  0
 26 24  2  0
M  END
$$$$
