KNL.pdb
     RDKit          3D

 26 25  0  0  1  0  0  0  0  0999 V2000
   18.8317  -22.3445  -14.8228 N   0  0  0  0  0  0  0  0  0  0  0  0
   18.7294  -23.7204  -14.4901 C   0  0  1  0  0  0  0  0  0  0  0  0
   17.8896  -24.5636  -15.4305 C   0  0  0  0  0  0  0  0  0  0  0  0
   17.7294  -24.0278  -16.8048 C   0  0  0  0  0  0  0  0  0  0  0  0
   18.6546  -22.9153  -17.1363 C   0  0  0  0  0  0  0  0  0  0  0  0
   18.5499  -22.4519  -18.5418 C   0  0  0  0  0  0  0  0  0  0  0  0
   19.3321  -23.1354  -19.5195 N   0  0  0  0  0  0  0  0  0  0  0  0
   20.0923  -24.3331  -14.5273 C   0  0  0  0  0  0  0  0  0  0  0  0
   20.1992  -25.5461  -14.2635 O   0  0  0  0  0  0  0  0  0  0  0  0
   25.0165  -24.7779  -14.6424 N   0  0  0  0  0  0  0  0  0  0  0  0
   24.6581  -24.2964  -15.9471 C   0  0  0  0  0  0  0  0  0  0  0  0
   25.5027  -24.3022  -16.8744 O   0  0  0  0  0  0  0  0  0  0  0  0
   23.2596  -23.8109  -16.1100 C   0  0  0  0  0  0  0  0  0  0  0  0
   22.5519  -23.9852  -14.7775 C   0  0  2  0  0  0  0  0  0  0  0  0
   21.1806  -23.4927  -14.8612 N   0  0  0  0  0  0  0  0  0  0  0  0
   23.2463  -23.1224  -13.7877 C   0  0  0  0  0  0  0  0  0  0  0  0
   24.4872  -23.2881  -13.5427 O   0  0  0  0  0  0  0  0  0  0  0  0
   26.6075  -21.3935  -10.7663 C   0  0  0  0  0  0  0  0  0  0  0  0
   25.1797  -21.5939  -10.3638 C   0  0  1  0  0  0  0  0  0  0  0  0
   24.6661  -20.3263   -9.6723 C   0  0  0  0  0  0  0  0  0  0  0  0
   24.3065  -22.0419  -11.4464 C   0  0  0  0  0  0  0  0  0  0  0  0
   23.4221  -21.1397  -12.2078 C   0  0  2  0  0  0  0  0  0  0  0  0
   22.6320  -22.0942  -13.0673 N   0  0  0  0  0  0  0  0  0  0  0  0
   24.0452  -20.1488  -13.0507 C   0  0  0  0  0  0  0  0  0  0  0  0
   24.0288  -18.7849  -12.6199 O   0  0  0  0  0  0  0  0  0  0  0  0
   24.6243  -20.3022  -14.1504 O   0  0  0  0  0  0  0  0  0  0  0  0
  2  1  1  6
  2  3  1  0
  3  4  1  0
  5  6  1  0
  5  4  1  0
  7  6  1  0
  8  2  1  0
  9  8  2  0
 10 11  1  0
 11 13  1  0
 12 11  2  0
 14 13  1  6
 14 15  1  0
 15  8  1  0
 16 14  1  0
 16 17  2  0
 19 21  1  0
 19 18  1  6
 20 19  1  0
 22 21  1  6
 22 23  1  0
 23 16  1  0
 24 22  1  0
 25 24  1  0
 26 24  2  0
M  END
$$$$
