FGR.pdb
     RDKit          3D

 27 27  0  0  1  0  0  0  0  0999 V2000
    8.1874  -14.4143   23.2711 N   0  0  0  0  0  0  0  0  0  0  0  0
    8.5195  -14.9928   24.5588 C   0  0  1  0  0  0  0  0  0  0  0  0
    7.3921  -14.8160   25.5510 C   0  0  0  0  0  0  0  0  0  0  0  0
    7.1127  -13.3793   25.8458 C   0  0  0  0  0  0  0  0  0  0  0  0
    5.8157  -12.9341   25.9411 C   0  0  0  0  0  0  0  0  0  0  0  0
    5.5338  -11.6135   26.2132 C   0  0  0  0  0  0  0  0  0  0  0  0
    6.5436  -10.6724   26.4036 C   0  0  0  0  0  0  0  0  0  0  0  0
    7.8270  -11.1609   26.2995 C   0  0  0  0  0  0  0  0  0  0  0  0
    8.1273  -12.4740   26.0289 C   0  0  0  0  0  0  0  0  0  0  0  0
    8.6876  -16.4550   24.3542 C   0  0  0  0  0  0  0  0  0  0  0  0
    8.1870  -17.2069   25.2468 O   0  0  0  0  0  0  0  0  0  0  0  0
    9.3561  -17.0349   23.2498 N   0  0  0  0  0  0  0  0  0  0  0  0
    9.7497  -18.3955   23.1560 C   0  0  0  0  0  0  0  0  0  0  0  0
   10.2162  -19.0166   24.4177 C   0  0  0  0  0  0  0  0  0  0  0  0
   10.9567  -18.3425   25.2208 O   0  0  0  0  0  0  0  0  0  0  0  0
    6.9407  -23.4780   28.6505 N   0  0  0  0  0  0  0  0  0  0  0  0
    5.8456  -22.8966   27.9721 C   0  0  0  0  0  0  0  0  0  0  0  0
    4.6844  -22.7833   28.5677 N   0  0  0  0  0  0  0  0  0  0  0  0
    6.0648  -22.4530   26.6395 N   0  0  0  0  0  0  0  0  0  0  0  0
    7.3790  -22.5509   26.0784 C   0  0  0  0  0  0  0  0  0  0  0  0
    8.3855  -21.9423   27.0562 C   0  0  0  0  0  0  0  0  0  0  0  0
    9.7346  -22.1407   26.4575 C   0  0  0  0  0  0  0  0  0  0  0  0
   10.4631  -20.8837   26.0895 C   0  0  2  0  0  0  0  0  0  0  0  0
    9.9104  -20.3315   24.8402 N   0  0  0  0  0  0  0  0  0  0  0  0
   11.9301  -21.0479   25.9665 C   0  0  0  0  0  0  0  0  0  0  0  0
   12.4601  -21.1595   24.8084 O   0  0  0  0  0  0  0  0  0  0  0  0
   12.8133  -21.0928   27.0285 O   0  0  0  0  0  0  0  0  0  0  0  0
  2  1  1  6
  3  2  1  0
  4  3  1  0
  5  4  2  0
  6  5  1  0
  7  6  2  0
  7  8  1  0
  8  9  2  0
  9  4  1  0
 10  2  1  0
 10 12  1  0
 11 10  2  0
 13 12  1  0
 14 13  1  0
 15 14  2  0
 16 17  1  0
 17 19  1  0
 17 18  2  0
 19 20  1  0
 20 21  1  0
 21 22  1  0
 23 22  1  6
 23 25  1  0
 23 24  1  0
 24 14  1  0
 25 27  1  0
 26 25  2  0
M  END
$$$$
