FGR.pdb
     RDKit          3D

 27 27  0  0  1  0  0  0  0  0999 V2000
    6.7179  -13.6836   21.8533 N   0  0  0  0  0  0  0  0  0  0  0  0
    7.7507  -14.5356   22.4108 C   0  0  1  0  0  0  0  0  0  0  0  0
    7.4602  -14.8838   23.8534 C   0  0  0  0  0  0  0  0  0  0  0  0
    7.2794  -13.6720   24.7066 C   0  0  0  0  0  0  0  0  0  0  0  0
    6.2072  -13.5844   25.5623 C   0  0  0  0  0  0  0  0  0  0  0  0
    6.0204  -12.4768   26.3597 C   0  0  0  0  0  0  0  0  0  0  0  0
    6.9040  -11.3996   26.3369 C   0  0  0  0  0  0  0  0  0  0  0  0
    7.9632  -11.5289   25.4662 C   0  0  0  0  0  0  0  0  0  0  0  0
    8.1656  -12.6255   24.6636 C   0  0  0  0  0  0  0  0  0  0  0  0
    7.7291  -15.8104   21.6475 C   0  0  0  0  0  0  0  0  0  0  0  0
    6.7321  -15.9877   20.8812 O   0  0  0  0  0  0  0  0  0  0  0  0
    8.7316  -16.8061   21.7280 N   0  0  0  0  0  0  0  0  0  0  0  0
    9.9465  -16.8029   20.9938 C   0  0  0  0  0  0  0  0  0  0  0  0
   11.1806  -16.6372   21.7969 C   0  0  0  0  0  0  0  0  0  0  0  0
   11.9868  -15.6748   21.5299 O   0  0  0  0  0  0  0  0  0  0  0  0
   12.7629  -16.9768   29.5003 N   0  0  0  0  0  0  0  0  0  0  0  0
   11.4567  -16.4671   29.6780 C   0  0  0  0  0  0  0  0  0  0  0  0
   10.7625  -16.7855   30.7423 N   0  0  0  0  0  0  0  0  0  0  0  0
   10.9468  -15.6118   28.6635 N   0  0  0  0  0  0  0  0  0  0  0  0
   10.5157  -16.1811   27.4219 C   0  0  0  0  0  0  0  0  0  0  0  0
   11.7134  -16.2791   26.4756 C   0  0  0  0  0  0  0  0  0  0  0  0
   11.1950  -16.8144   25.1862 C   0  0  0  0  0  0  0  0  0  0  0  0
   12.2032  -16.9125   24.0817 C   0  0  2  0  0  0  0  0  0  0  0  0
   11.5701  -17.4687   22.8730 N   0  0  0  0  0  0  0  0  0  0  0  0
   13.4092  -17.6988   24.4306 C   0  0  0  0  0  0  0  0  0  0  0  0
   14.2152  -17.2608   25.3211 O   0  0  0  0  0  0  0  0  0  0  0  0
   13.7569  -18.9090   23.8611 O   0  0  0  0  0  0  0  0  0  0  0  0
  2  1  1  6
  3  2  1  0
  4  3  1  0
  5  4  2  0
  6  5  1  0
  7  6  2  0
  7  8  1  0
  8  9  2  0
  9  4  1  0
 10  2  1  0
 10 12  1  0
 11 10  2  0
 13 12  1  0
 14 13  1  0
 15 14  2  0
 16 17  1  0
 17 19  1  0
 17 18  2  0
 19 20  1  0
 20 21  1  0
 21 22  1  0
 23 22  1  1
 23 25  1  0
 23 24  1  0
 24 14  1  0
 25 27  1  0
 26 25  2  0
M  END
$$$$
