FGR.pdb
     RDKit          3D

 27 27  0  0  1  0  0  0  0  0999 V2000
    6.6519  -13.5476   22.3004 N   0  0  0  0  0  0  0  0  0  0  0  0
    7.6965  -14.4030   22.8301 C   0  0  1  0  0  0  0  0  0  0  0  0
    8.5820  -13.6563   23.8022 C   0  0  0  0  0  0  0  0  0  0  0  0
    7.8198  -13.1131   24.9654 C   0  0  0  0  0  0  0  0  0  0  0  0
    7.2907  -11.8455   24.9125 C   0  0  0  0  0  0  0  0  0  0  0  0
    6.5831  -11.3238   25.9729 C   0  0  0  0  0  0  0  0  0  0  0  0
    6.3714  -12.0517   27.1421 C   0  0  0  0  0  0  0  0  0  0  0  0
    6.9181  -13.3157   27.1525 C   0  0  0  0  0  0  0  0  0  0  0  0
    7.6266  -13.8525   26.1049 C   0  0  0  0  0  0  0  0  0  0  0  0
    7.0305  -15.4862   23.5991 C   0  0  0  0  0  0  0  0  0  0  0  0
    5.7627  -15.5207   23.5351 O   0  0  0  0  0  0  0  0  0  0  0  0
    7.7153  -16.4516   24.3750 N   0  0  0  0  0  0  0  0  0  0  0  0
    7.0956  -17.4819   25.1295 C   0  0  0  0  0  0  0  0  0  0  0  0
    8.0083  -18.3176   25.9443 C   0  0  0  0  0  0  0  0  0  0  0  0
    7.5255  -19.2507   26.6818 O   0  0  0  0  0  0  0  0  0  0  0  0
   11.0531  -18.2612   20.9799 N   0  0  0  0  0  0  0  0  0  0  0  0
   12.2271  -18.8747   21.4728 C   0  0  0  0  0  0  0  0  0  0  0  0
   12.6114  -20.0364   21.0052 N   0  0  0  0  0  0  0  0  0  0  0  0
   12.9514  -18.1816   22.4807 N   0  0  0  0  0  0  0  0  0  0  0  0
   12.9535  -18.6959   23.8174 C   0  0  0  0  0  0  0  0  0  0  0  0
   11.5339  -18.6227   24.3824 C   0  0  0  0  0  0  0  0  0  0  0  0
   11.5742  -19.2734   25.7213 C   0  0  0  0  0  0  0  0  0  0  0  0
   10.2766  -19.2764   26.4712 C   0  0  2  0  0  0  0  0  0  0  0  0
    9.4157  -18.1825   25.9877 N   0  0  0  0  0  0  0  0  0  0  0  0
   10.4271  -19.1914   27.9424 C   0  0  0  0  0  0  0  0  0  0  0  0
   11.0043  -20.1400   28.5760 O   0  0  0  0  0  0  0  0  0  0  0  0
    9.9847  -18.1409   28.7237 O   0  0  0  0  0  0  0  0  0  0  0  0
  2  1  1  1
  3  2  1  0
  4  3  1  0
  5  4  2  0
  6  5  1  0
  7  6  2  0
  7  8  1  0
  8  9  2  0
  9  4  1  0
 10  2  1  0
 10 12  1  0
 11 10  2  0
 13 12  1  0
 14 13  1  0
 15 14  2  0
 16 17  1  0
 17 19  1  0
 17 18  2  0
 19 20  1  0
 20 21  1  0
 21 22  1  0
 23 22  1  6
 23 25  1  0
 23 24  1  0
 24 14  1  0
 25 27  1  0
 26 25  2  0
M  END
$$$$
