FGR.pdb
     RDKit          3D

 27 27  0  0  1  0  0  0  0  0999 V2000
    7.8705  -15.6263   23.2512 N   0  0  0  0  0  0  0  0  0  0  0  0
    8.7367  -15.4575   24.4020 C   0  0  1  0  0  0  0  0  0  0  0  0
    7.9378  -15.2484   25.6688 C   0  0  0  0  0  0  0  0  0  0  0  0
    7.3877  -13.8643   25.7734 C   0  0  0  0  0  0  0  0  0  0  0  0
    8.2384  -12.7904   25.8857 C   0  0  0  0  0  0  0  0  0  0  0  0
    7.7539  -11.5046   25.9825 C   0  0  0  0  0  0  0  0  0  0  0  0
    6.3872  -11.2333   25.9714 C   0  0  0  0  0  0  0  0  0  0  0  0
    5.5717  -12.3372   25.8574 C   0  0  0  0  0  0  0  0  0  0  0  0
    6.0366  -13.6263   25.7598 C   0  0  0  0  0  0  0  0  0  0  0  0
    9.4923  -16.7254   24.5739 C   0  0  0  0  0  0  0  0  0  0  0  0
    8.8000  -17.7894   24.6116 O   0  0  0  0  0  0  0  0  0  0  0  0
   10.9001  -16.8058   24.6939 N   0  0  0  0  0  0  0  0  0  0  0  0
   11.6295  -17.9910   24.9732 C   0  0  0  0  0  0  0  0  0  0  0  0
   11.2858  -18.6711   26.2440 C   0  0  0  0  0  0  0  0  0  0  0  0
   10.4878  -18.1018   27.0726 O   0  0  0  0  0  0  0  0  0  0  0  0
   13.0125  -24.2877   30.6995 N   0  0  0  0  0  0  0  0  0  0  0  0
   11.7516  -24.7630   31.1256 C   0  0  0  0  0  0  0  0  0  0  0  0
   11.6636  -25.5759   32.1491 N   0  0  0  0  0  0  0  0  0  0  0  0
   10.6101  -24.3242   30.4009 N   0  0  0  0  0  0  0  0  0  0  0  0
   10.7947  -23.5626   29.2020 C   0  0  0  0  0  0  0  0  0  0  0  0
   11.8666  -22.4992   29.4465 C   0  0  0  0  0  0  0  0  0  0  0  0
   12.1089  -21.8298   28.1385 C   0  0  0  0  0  0  0  0  0  0  0  0
   11.5266  -20.4553   28.0048 C   0  0  2  0  0  0  0  0  0  0  0  0
   11.7695  -19.9380   26.6466 N   0  0  0  0  0  0  0  0  0  0  0  0
   12.0199  -19.4879   29.0122 C   0  0  0  0  0  0  0  0  0  0  0  0
   11.4646  -19.4326   30.1625 O   0  0  0  0  0  0  0  0  0  0  0  0
   13.0656  -18.6058   28.8166 O   0  0  0  0  0  0  0  0  0  0  0  0
  2  1  1  6
  3  2  1  0
  4  3  1  0
  5  4  2  0
  6  5  1  0
  7  6  2  0
  7  8  1  0
  8  9  2  0
  9  4  1  0
 10  2  1  0
 10 12  1  0
 11 10  2  0
 13 12  1  0
 14 13  1  0
 15 14  2  0
 16 17  1  0
 17 19  1  0
 17 18  2  0
 19 20  1  0
 20 21  1  0
 21 22  1  0
 23 22  1  6
 23 25  1  0
 23 24  1  0
 24 14  1  0
 25 27  1  0
 26 25  2  0
M  END
$$$$
