FGR.pdb
     RDKit          3D

 27 27  0  0  1  0  0  0  0  0999 V2000
    3.9745  -20.6825   22.5561 N   0  0  0  0  0  0  0  0  0  0  0  0
    4.1336  -19.2826   22.2124 C   0  0  1  0  0  0  0  0  0  0  0  0
    2.8389  -18.5207   22.3857 C   0  0  0  0  0  0  0  0  0  0  0  0
    1.7427  -19.0572   21.5256 C   0  0  0  0  0  0  0  0  0  0  0  0
    1.8877  -19.0826   20.1589 C   0  0  0  0  0  0  0  0  0  0  0  0
    0.8904  -19.5738   19.3455 C   0  0  0  0  0  0  0  0  0  0  0  0
   -0.3050  -20.0652   19.8663 C   0  0  0  0  0  0  0  0  0  0  0  0
   -0.4081  -20.0211   21.2389 C   0  0  0  0  0  0  0  0  0  0  0  0
    0.5755  -19.5350   22.0658 C   0  0  0  0  0  0  0  0  0  0  0  0
    5.1070  -18.7015   23.1731 C   0  0  0  0  0  0  0  0  0  0  0  0
    5.2862  -17.4465   23.0989 O   0  0  0  0  0  0  0  0  0  0  0  0
    5.8224  -19.4515   24.1367 N   0  0  0  0  0  0  0  0  0  0  0  0
    6.8993  -18.9593   24.9196 C   0  0  0  0  0  0  0  0  0  0  0  0
    8.1871  -18.7924   24.2060 C   0  0  0  0  0  0  0  0  0  0  0  0
    8.3990  -19.4417   23.1192 O   0  0  0  0  0  0  0  0  0  0  0  0
    8.3259  -14.6832   18.9217 N   0  0  0  0  0  0  0  0  0  0  0  0
    8.2662  -13.4594   19.6260 C   0  0  0  0  0  0  0  0  0  0  0  0
    8.1628  -12.3272   18.9753 N   0  0  0  0  0  0  0  0  0  0  0  0
    8.3247  -13.5199   21.0451 N   0  0  0  0  0  0  0  0  0  0  0  0
    8.1767  -14.7869   21.6965 C   0  0  0  0  0  0  0  0  0  0  0  0
    8.2261  -14.5780   23.2109 C   0  0  0  0  0  0  0  0  0  0  0  0
    8.1482  -15.9301   23.8303 C   0  0  0  0  0  0  0  0  0  0  0  0
    9.4616  -16.6294   24.0091 C   0  0  2  0  0  0  0  0  0  0  0  0
    9.2460  -17.9519   24.6221 N   0  0  0  0  0  0  0  0  0  0  0  0
   10.4546  -15.8613   24.7953 C   0  0  0  0  0  0  0  0  0  0  0  0
   11.5563  -15.5074   24.2516 O   0  0  0  0  0  0  0  0  0  0  0  0
   10.2942  -15.4764   26.1129 O   0  0  0  0  0  0  0  0  0  0  0  0
  2  1  1  1
  3  2  1  0
  4  3  1  0
  5  4  2  0
  6  5  1  0
  7  6  2  0
  7  8  1  0
  8  9  2  0
  9  4  1  0
 10  2  1  0
 10 12  1  0
 11 10  2  0
 13 12  1  0
 14 13  1  0
 15 14  2  0
 16 17  1  0
 17 19  1  0
 17 18  2  0
 19 20  1  0
 20 21  1  0
 21 22  1  0
 23 22  1  1
 23 25  1  0
 23 24  1  0
 24 14  1  0
 25 27  1  0
 26 25  2  0
M  END
$$$$
