FGR.pdb
     RDKit          3D

 27 27  0  0  1  0  0  0  0  0999 V2000
    7.4412  -16.0783   25.7097 N   0  0  0  0  0  0  0  0  0  0  0  0
    7.4429  -15.3615   24.4490 C   0  0  1  0  0  0  0  0  0  0  0  0
    8.1295  -14.0202   24.5772 C   0  0  0  0  0  0  0  0  0  0  0  0
    7.4180  -13.1035   25.5166 C   0  0  0  0  0  0  0  0  0  0  0  0
    7.9727  -12.8002   26.7372 C   0  0  0  0  0  0  0  0  0  0  0  0
    7.3351  -11.9562   27.6197 C   0  0  0  0  0  0  0  0  0  0  0  0
    6.1056  -11.3737   27.3187 C   0  0  0  0  0  0  0  0  0  0  0  0
    5.5865  -11.7043   26.0867 C   0  0  0  0  0  0  0  0  0  0  0  0
    6.2076  -12.5438   25.1940 C   0  0  0  0  0  0  0  0  0  0  0  0
    8.2424  -16.1642   23.4874 C   0  0  0  0  0  0  0  0  0  0  0  0
    8.0418  -15.9261   22.2562 O   0  0  0  0  0  0  0  0  0  0  0  0
    9.1865  -17.1499   23.8615 N   0  0  0  0  0  0  0  0  0  0  0  0
   10.5962  -16.9936   23.8045 C   0  0  0  0  0  0  0  0  0  0  0  0
   11.2595  -17.5842   22.6185 C   0  0  0  0  0  0  0  0  0  0  0  0
   11.7745  -18.7572   22.6979 O   0  0  0  0  0  0  0  0  0  0  0  0
    8.1793  -12.9032   17.8297 N   0  0  0  0  0  0  0  0  0  0  0  0
    7.8830  -13.9397   18.7437 C   0  0  0  0  0  0  0  0  0  0  0  0
    7.0556  -13.7280   19.7369 N   0  0  0  0  0  0  0  0  0  0  0  0
    8.5168  -15.1949   18.5344 N   0  0  0  0  0  0  0  0  0  0  0  0
    9.8827  -15.3620   18.9313 C   0  0  0  0  0  0  0  0  0  0  0  0
   10.3428  -16.7714   18.5549 C   0  0  0  0  0  0  0  0  0  0  0  0
   11.7730  -16.8743   18.9568 C   0  0  0  0  0  0  0  0  0  0  0  0
   12.0298  -17.6366   20.2214 C   0  0  2  0  0  0  0  0  0  0  0  0
   11.3826  -16.9561   21.3570 N   0  0  0  0  0  0  0  0  0  0  0  0
   13.4648  -17.8590   20.5138 C   0  0  0  0  0  0  0  0  0  0  0  0
   14.0995  -17.0228   21.2435 O   0  0  0  0  0  0  0  0  0  0  0  0
   14.2098  -18.9280   20.0536 O   0  0  0  0  0  0  0  0  0  0  0  0
  2  1  1  1
  3  2  1  0
  4  3  1  0
  5  4  2  0
  6  5  1  0
  7  6  2  0
  7  8  1  0
  8  9  2  0
  9  4  1  0
 10  2  1  0
 10 12  1  0
 11 10  2  0
 13 12  1  0
 14 13  1  0
 15 14  2  0
 16 17  1  0
 17 19  1  0
 17 18  2  0
 19 20  1  0
 20 21  1  0
 21 22  1  0
 23 22  1  6
 23 25  1  0
 23 24  1  0
 24 14  1  0
 25 27  1  0
 26 25  2  0
M  END
$$$$
