FGR.pdb
     RDKit          3D

 27 27  0  0  1  0  0  0  0  0999 V2000
    7.2870  -16.3535   26.6492 N   0  0  0  0  0  0  0  0  0  0  0  0
    6.5961  -15.8240   25.4892 C   0  0  1  0  0  0  0  0  0  0  0  0
    7.1208  -14.4575   25.1099 C   0  0  0  0  0  0  0  0  0  0  0  0
    6.9877  -13.4678   26.2198 C   0  0  0  0  0  0  0  0  0  0  0  0
    8.1048  -13.0266   26.8884 C   0  0  0  0  0  0  0  0  0  0  0  0
    8.0065  -12.1132   27.9148 C   0  0  0  0  0  0  0  0  0  0  0  0
    6.7780  -11.5965   28.3214 C   0  0  0  0  0  0  0  0  0  0  0  0
    5.6860  -12.0651   27.6252 C   0  0  0  0  0  0  0  0  0  0  0  0
    5.7646  -12.9755   26.5993 C   0  0  0  0  0  0  0  0  0  0  0  0
    6.8915  -16.7304   24.3493 C   0  0  0  0  0  0  0  0  0  0  0  0
    6.3968  -16.3994   23.2276 O   0  0  0  0  0  0  0  0  0  0  0  0
    7.6718  -17.9071   24.4465 N   0  0  0  0  0  0  0  0  0  0  0  0
    8.0926  -18.7009   23.3476 C   0  0  0  0  0  0  0  0  0  0  0  0
    9.1040  -18.0818   22.4593 C   0  0  0  0  0  0  0  0  0  0  0  0
    9.5170  -18.7210   21.4257 O   0  0  0  0  0  0  0  0  0  0  0  0
    8.9030  -12.7642   17.8292 N   0  0  0  0  0  0  0  0  0  0  0  0
    8.3249  -14.0088   17.4911 C   0  0  0  0  0  0  0  0  0  0  0  0
    8.3064  -14.4117   16.2448 N   0  0  0  0  0  0  0  0  0  0  0  0
    7.7757  -14.7820   18.5500 N   0  0  0  0  0  0  0  0  0  0  0  0
    8.3470  -14.6782   19.8594 C   0  0  0  0  0  0  0  0  0  0  0  0
    9.8331  -15.0325   19.7847 C   0  0  0  0  0  0  0  0  0  0  0  0
   10.3534  -14.9832   21.1792 C   0  0  0  0  0  0  0  0  0  0  0  0
   10.7482  -16.3060   21.7626 C   0  0  2  0  0  0  0  0  0  0  0  0
    9.6792  -16.8030   22.6466 N   0  0  0  0  0  0  0  0  0  0  0  0
   12.0392  -16.2866   22.4888 C   0  0  0  0  0  0  0  0  0  0  0  0
   12.0486  -16.3476   23.7658 O   0  0  0  0  0  0  0  0  0  0  0  0
   13.2824  -16.2062   21.8907 O   0  0  0  0  0  0  0  0  0  0  0  0
  2  1  1  1
  3  2  1  0
  4  3  1  0
  5  4  2  0
  6  5  1  0
  7  6  2  0
  7  8  1  0
  8  9  2  0
  9  4  1  0
 10  2  1  0
 10 12  1  0
 11 10  2  0
 13 12  1  0
 14 13  1  0
 15 14  2  0
 16 17  1  0
 17 19  1  0
 17 18  2  0
 19 20  1  0
 20 21  1  0
 21 22  1  0
 23 22  1  1
 23 25  1  0
 23 24  1  0
 24 14  1  0
 25 27  1  0
 26 25  2  0
M  END
$$$$
