FGR.pdb
     RDKit          3D

 27 27  0  0  1  0  0  0  0  0999 V2000
    8.1856  -16.5359   27.1280 N   0  0  0  0  0  0  0  0  0  0  0  0
    7.1238  -16.4257   26.1463 C   0  0  1  0  0  0  0  0  0  0  0  0
    7.2951  -15.1958   25.2833 C   0  0  0  0  0  0  0  0  0  0  0  0
    7.0805  -13.9303   26.0459 C   0  0  0  0  0  0  0  0  0  0  0  0
    8.1255  -13.0600   26.2464 C   0  0  0  0  0  0  0  0  0  0  0  0
    7.9510  -11.8862   26.9460 C   0  0  0  0  0  0  0  0  0  0  0  0
    6.7149  -11.5277   27.4799 C   0  0  0  0  0  0  0  0  0  0  0  0
    5.6966  -12.4275   27.2557 C   0  0  0  0  0  0  0  0  0  0  0  0
    5.8518  -13.6025   26.5608 C   0  0  0  0  0  0  0  0  0  0  0  0
    7.2334  -17.6024   25.2455 C   0  0  0  0  0  0  0  0  0  0  0  0
    8.3448  -18.2166   25.2589 O   0  0  0  0  0  0  0  0  0  0  0  0
    6.1949  -18.0598   24.3998 N   0  0  0  0  0  0  0  0  0  0  0  0
    6.3832  -18.6691   23.1316 C   0  0  0  0  0  0  0  0  0  0  0  0
    7.4701  -18.0992   22.3014 C   0  0  0  0  0  0  0  0  0  0  0  0
    8.0388  -18.8296   21.4122 O   0  0  0  0  0  0  0  0  0  0  0  0
    7.4061  -14.9766   17.0308 N   0  0  0  0  0  0  0  0  0  0  0  0
    8.1236  -13.7964   16.7313 C   0  0  0  0  0  0  0  0  0  0  0  0
    8.5445  -13.5709   15.5114 N   0  0  0  0  0  0  0  0  0  0  0  0
    8.3608  -12.8884   17.7991 N   0  0  0  0  0  0  0  0  0  0  0  0
    7.9017  -13.2220   19.1141 C   0  0  0  0  0  0  0  0  0  0  0  0
    8.8764  -14.2176   19.7452 C   0  0  0  0  0  0  0  0  0  0  0  0
    8.1180  -14.9465   20.7995 C   0  0  0  0  0  0  0  0  0  0  0  0
    8.7812  -16.1827   21.3267 C   0  0  2  0  0  0  0  0  0  0  0  0
    7.9590  -16.7752   22.3964 N   0  0  0  0  0  0  0  0  0  0  0  0
   10.1650  -15.9684   21.8099 C   0  0  0  0  0  0  0  0  0  0  0  0
   10.4007  -15.9449   23.0663 O   0  0  0  0  0  0  0  0  0  0  0  0
   11.2675  -15.7851   20.9971 O   0  0  0  0  0  0  0  0  0  0  0  0
  2  1  1  1
  3  2  1  0
  4  3  1  0
  5  4  2  0
  6  5  1  0
  7  6  2  0
  7  8  1  0
  8  9  2  0
  9  4  1  0
 10  2  1  0
 10 12  1  0
 11 10  2  0
 13 12  1  0
 14 13  1  0
 15 14  2  0
 16 17  1  0
 17 19  1  0
 17 18  2  0
 19 20  1  0
 20 21  1  0
 21 22  1  0
 23 22  1  1
 23 25  1  0
 23 24  1  0
 24 14  1  0
 25 27  1  0
 26 25  2  0
M  END
$$$$
