FGR.pdb
     RDKit          3D

 27 27  0  0  1  0  0  0  0  0999 V2000
    7.0346  -18.1161   19.6135 N   0  0  0  0  0  0  0  0  0  0  0  0
    7.6799  -16.8210   19.7118 C   0  0  1  0  0  0  0  0  0  0  0  0
    6.7471  -15.7817   20.2916 C   0  0  0  0  0  0  0  0  0  0  0  0
    7.3784  -14.4311   20.3720 C   0  0  0  0  0  0  0  0  0  0  0  0
    7.5516  -13.8220   21.5921 C   0  0  0  0  0  0  0  0  0  0  0  0
    8.1325  -12.5768   21.6909 C   0  0  0  0  0  0  0  0  0  0  0  0
    8.5692  -11.8802   20.5659 C   0  0  0  0  0  0  0  0  0  0  0  0
    8.3766  -12.5266   19.3652 C   0  0  0  0  0  0  0  0  0  0  0  0
    7.7994  -13.7677   19.2473 C   0  0  0  0  0  0  0  0  0  0  0  0
    8.8110  -16.9641   20.6649 C   0  0  0  0  0  0  0  0  0  0  0  0
    9.0954  -18.1488   21.0230 O   0  0  0  0  0  0  0  0  0  0  0  0
    9.5642  -15.8815   21.1781 N   0  0  0  0  0  0  0  0  0  0  0  0
   10.8753  -15.5296   20.7633 C   0  0  0  0  0  0  0  0  0  0  0  0
   11.9379  -16.5061   21.0991 C   0  0  0  0  0  0  0  0  0  0  0  0
   12.0372  -17.5931   20.4239 O   0  0  0  0  0  0  0  0  0  0  0  0
   17.0087  -12.3565   17.7383 N   0  0  0  0  0  0  0  0  0  0  0  0
   16.5233  -13.6726   17.5659 C   0  0  0  0  0  0  0  0  0  0  0  0
   16.9139  -14.3920   16.5432 N   0  0  0  0  0  0  0  0  0  0  0  0
   15.6085  -14.1630   18.5373 N   0  0  0  0  0  0  0  0  0  0  0  0
   15.1181  -15.5035   18.4203 C   0  0  0  0  0  0  0  0  0  0  0  0
   14.0917  -15.7575   19.5256 C   0  0  0  0  0  0  0  0  0  0  0  0
   14.8297  -15.6851   20.8171 C   0  0  0  0  0  0  0  0  0  0  0  0
   14.3256  -16.5964   21.8948 C   0  0  2  0  0  0  0  0  0  0  0  0
   12.8924  -16.3485   22.1312 N   0  0  0  0  0  0  0  0  0  0  0  0
   15.0744  -16.4996   23.1692 C   0  0  0  0  0  0  0  0  0  0  0  0
   15.2966  -17.5555   23.8551 O   0  0  0  0  0  0  0  0  0  0  0  0
   15.5749  -15.3287   23.7060 O   0  0  0  0  0  0  0  0  0  0  0  0
  2  1  1  1
  3  2  1  0
  4  3  1  0
  5  4  2  0
  6  5  1  0
  7  6  2  0
  7  8  1  0
  8  9  2  0
  9  4  1  0
 10  2  1  0
 10 12  1  0
 11 10  2  0
 13 12  1  0
 14 13  1  0
 15 14  2  0
 16 17  1  0
 17 19  1  0
 17 18  2  0
 19 20  1  0
 20 21  1  0
 21 22  1  0
 23 22  1  6
 23 25  1  0
 23 24  1  0
 24 14  1  0
 25 27  1  0
 26 25  2  0
M  END
$$$$
