FGR.pdb
     RDKit          3D

 27 27  0  0  1  0  0  0  0  0999 V2000
    6.7472  -15.8877   26.0611 N   0  0  0  0  0  0  0  0  0  0  0  0
    7.0151  -15.7203   24.6456 C   0  0  1  0  0  0  0  0  0  0  0  0
    7.4145  -14.2979   24.3235 C   0  0  0  0  0  0  0  0  0  0  0  0
    7.2019  -13.3718   25.4751 C   0  0  0  0  0  0  0  0  0  0  0  0
    5.9270  -13.0336   25.8623 C   0  0  0  0  0  0  0  0  0  0  0  0
    5.7065  -12.1820   26.9223 C   0  0  0  0  0  0  0  0  0  0  0  0
    6.7585  -11.6265   27.6477 C   0  0  0  0  0  0  0  0  0  0  0  0
    8.0178  -11.9917   27.2264 C   0  0  0  0  0  0  0  0  0  0  0  0
    8.2570  -12.8393   26.1719 C   0  0  0  0  0  0  0  0  0  0  0  0
    8.1804  -16.5805   24.3135 C   0  0  0  0  0  0  0  0  0  0  0  0
    8.6350  -17.2971   25.2582 O   0  0  0  0  0  0  0  0  0  0  0  0
    8.7907  -16.6404   23.0381 N   0  0  0  0  0  0  0  0  0  0  0  0
   10.0345  -16.0463   22.6993 C   0  0  0  0  0  0  0  0  0  0  0  0
   10.4321  -16.1578   21.2763 C   0  0  0  0  0  0  0  0  0  0  0  0
   10.1625  -17.2302   20.6244 O   0  0  0  0  0  0  0  0  0  0  0  0
   17.2499  -13.0309   18.2514 N   0  0  0  0  0  0  0  0  0  0  0  0
   16.7341  -14.0505   17.4196 C   0  0  0  0  0  0  0  0  0  0  0  0
   17.4352  -15.1329   17.1894 N   0  0  0  0  0  0  0  0  0  0  0  0
   15.4450  -13.8439   16.8574 N   0  0  0  0  0  0  0  0  0  0  0  0
   14.2992  -14.3954   17.5167 C   0  0  0  0  0  0  0  0  0  0  0  0
   14.4571  -14.2134   19.0272 C   0  0  0  0  0  0  0  0  0  0  0  0
   13.0823  -14.1035   19.5891 C   0  0  0  0  0  0  0  0  0  0  0  0
   12.4249  -15.4057   19.9326 C   0  0  2  0  0  0  0  0  0  0  0  0
   11.1044  -15.1563   20.5374 N   0  0  0  0  0  0  0  0  0  0  0  0
   13.2322  -16.2769   20.8179 C   0  0  0  0  0  0  0  0  0  0  0  0
   14.4641  -16.4866   20.5478 O   0  0  0  0  0  0  0  0  0  0  0  0
   12.7591  -16.9078   21.9527 O   0  0  0  0  0  0  0  0  0  0  0  0
  2  1  1  1
  3  2  1  0
  4  3  1  0
  5  4  2  0
  6  5  1  0
  7  6  2  0
  7  8  1  0
  8  9  2  0
  9  4  1  0
 10  2  1  0
 10 12  1  0
 11 10  2  0
 13 12  1  0
 14 13  1  0
 15 14  2  0
 16 17  1  0
 17 19  1  0
 17 18  2  0
 19 20  1  0
 20 21  1  0
 21 22  1  0
 23 22  1  1
 23 25  1  0
 23 24  1  0
 24 14  1  0
 25 27  1  0
 26 25  2  0
M  END
$$$$
