FGR.pdb
     RDKit          3D

 27 27  0  0  1  0  0  0  0  0999 V2000
    7.2449  -16.2822   26.5318 N   0  0  0  0  0  0  0  0  0  0  0  0
    6.6796  -15.6919   25.3338 C   0  0  1  0  0  0  0  0  0  0  0  0
    7.3768  -14.3995   24.9730 C   0  0  0  0  0  0  0  0  0  0  0  0
    7.0136  -13.2804   25.8922 C   0  0  0  0  0  0  0  0  0  0  0  0
    7.9977  -12.5044   26.4570 C   0  0  0  0  0  0  0  0  0  0  0  0
    7.6865  -11.4661   27.3070 C   0  0  0  0  0  0  0  0  0  0  0  0
    6.3678  -11.1552   27.6325 C   0  0  0  0  0  0  0  0  0  0  0  0
    5.4146  -11.9571   27.0452 C   0  0  0  0  0  0  0  0  0  0  0  0
    5.7060  -12.9966   26.1954 C   0  0  0  0  0  0  0  0  0  0  0  0
    6.9265  -16.6407   24.2170 C   0  0  0  0  0  0  0  0  0  0  0  0
    6.5832  -16.2455   23.0600 O   0  0  0  0  0  0  0  0  0  0  0  0
    7.5066  -17.9222   24.3718 N   0  0  0  0  0  0  0  0  0  0  0  0
    7.8538  -18.7953   23.3078 C   0  0  0  0  0  0  0  0  0  0  0  0
    8.8716  -18.2805   22.3620 C   0  0  0  0  0  0  0  0  0  0  0  0
    9.2025  -18.9845   21.3410 O   0  0  0  0  0  0  0  0  0  0  0  0
    6.9434  -14.1614   16.0969 N   0  0  0  0  0  0  0  0  0  0  0  0
    7.8262  -13.6777   17.0889 C   0  0  0  0  0  0  0  0  0  0  0  0
    8.8417  -12.9198   16.7567 N   0  0  0  0  0  0  0  0  0  0  0  0
    7.5615  -14.0497   18.4352 N   0  0  0  0  0  0  0  0  0  0  0  0
    8.6223  -13.9952   19.3960 C   0  0  0  0  0  0  0  0  0  0  0  0
    8.9553  -15.4166   19.8526 C   0  0  0  0  0  0  0  0  0  0  0  0
   10.0469  -15.2963   20.8585 C   0  0  0  0  0  0  0  0  0  0  0  0
   10.5060  -16.5885   21.4631 C   0  0  2  0  0  0  0  0  0  0  0  0
    9.5381  -17.0383   22.4791 N   0  0  0  0  0  0  0  0  0  0  0  0
   11.8664  -16.5345   22.0468 C   0  0  0  0  0  0  0  0  0  0  0  0
   12.0122  -16.5596   23.3167 O   0  0  0  0  0  0  0  0  0  0  0  0
   13.0378  -16.4569   21.3178 O   0  0  0  0  0  0  0  0  0  0  0  0
  2  1  1  1
  3  2  1  0
  4  3  1  0
  5  4  2  0
  6  5  1  0
  7  6  2  0
  7  8  1  0
  8  9  2  0
  9  4  1  0
 10  2  1  0
 10 12  1  0
 11 10  2  0
 13 12  1  0
 14 13  1  0
 15 14  2  0
 16 17  1  0
 17 19  1  0
 17 18  2  0
 19 20  1  0
 20 21  1  0
 21 22  1  0
 23 22  1  1
 23 25  1  0
 23 24  1  0
 24 14  1  0
 25 27  1  0
 26 25  2  0
M  END
$$$$
