FGR.pdb
     RDKit          3D

 27 27  0  0  1  0  0  0  0  0999 V2000
    8.2256  -18.2614   20.1731 N   0  0  0  0  0  0  0  0  0  0  0  0
    8.3865  -17.0639   20.9751 C   0  0  1  0  0  0  0  0  0  0  0  0
    7.1811  -16.1577   20.8626 C   0  0  0  0  0  0  0  0  0  0  0  0
    7.5550  -14.7125   20.8395 C   0  0  0  0  0  0  0  0  0  0  0  0
    7.4758  -13.9609   21.9877 C   0  0  0  0  0  0  0  0  0  0  0  0
    7.8165  -12.6262   21.9906 C   0  0  0  0  0  0  0  0  0  0  0  0
    8.2548  -11.9789   20.8371 C   0  0  0  0  0  0  0  0  0  0  0  0
    8.3192  -12.7685   19.7106 C   0  0  0  0  0  0  0  0  0  0  0  0
    7.9836  -14.1006   19.6887 C   0  0  0  0  0  0  0  0  0  0  0  0
    8.4712  -17.4933   22.3952 C   0  0  0  0  0  0  0  0  0  0  0  0
    7.7530  -18.4878   22.7235 O   0  0  0  0  0  0  0  0  0  0  0  0
    9.2861  -16.8703   23.3703 N   0  0  0  0  0  0  0  0  0  0  0  0
    9.4353  -17.3100   24.7116 C   0  0  0  0  0  0  0  0  0  0  0  0
   10.8170  -17.6496   25.1253 C   0  0  0  0  0  0  0  0  0  0  0  0
   11.7706  -16.8230   24.8911 O   0  0  0  0  0  0  0  0  0  0  0  0
    9.8845  -20.5301   30.5442 N   0  0  0  0  0  0  0  0  0  0  0  0
   10.9719  -20.4149   31.4397 C   0  0  0  0  0  0  0  0  0  0  0  0
   10.7664  -20.0747   32.6879 N   0  0  0  0  0  0  0  0  0  0  0  0
   12.2707  -20.6798   30.9262 N   0  0  0  0  0  0  0  0  0  0  0  0
   12.4184  -21.0198   29.5427 C   0  0  0  0  0  0  0  0  0  0  0  0
   12.3724  -19.7398   28.7067 C   0  0  0  0  0  0  0  0  0  0  0  0
   12.5929  -20.1472   27.2913 C   0  0  0  0  0  0  0  0  0  0  0  0
   12.5702  -19.0303   26.2923 C   0  0  2  0  0  0  0  0  0  0  0  0
   11.2010  -18.8427   25.7811 N   0  0  0  0  0  0  0  0  0  0  0  0
   13.5134  -19.2076   25.1640 C   0  0  0  0  0  0  0  0  0  0  0  0
   13.1281  -19.8120   24.1054 O   0  0  0  0  0  0  0  0  0  0  0  0
   14.8217  -18.7627   25.1488 O   0  0  0  0  0  0  0  0  0  0  0  0
  2  1  1  6
  3  2  1  0
  4  3  1  0
  5  4  2  0
  6  5  1  0
  7  6  2  0
  7  8  1  0
  8  9  2  0
  9  4  1  0
 10  2  1  0
 10 12  1  0
 11 10  2  0
 13 12  1  0
 14 13  1  0
 15 14  2  0
 16 17  1  0
 17 19  1  0
 17 18  2  0
 19 20  1  0
 20 21  1  0
 21 22  1  0
 23 22  1  1
 23 25  1  0
 23 24  1  0
 24 14  1  0
 25 27  1  0
 26 25  2  0
M  END
$$$$
