FGR.pdb
     RDKit          3D

 27 27  0  0  1  0  0  0  0  0999 V2000
    7.0729  -15.3755   23.8026 N   0  0  0  0  0  0  0  0  0  0  0  0
    8.4084  -14.8317   23.6478 C   0  0  1  0  0  0  0  0  0  0  0  0
    8.8147  -14.0136   24.8530 C   0  0  0  0  0  0  0  0  0  0  0  0
    7.7126  -13.1328   25.3414 C   0  0  0  0  0  0  0  0  0  0  0  0
    7.7065  -11.7952   25.0245 C   0  0  0  0  0  0  0  0  0  0  0  0
    6.6997  -10.9636   25.4630 C   0  0  0  0  0  0  0  0  0  0  0  0
    5.6465  -11.4359   26.2436 C   0  0  0  0  0  0  0  0  0  0  0  0
    5.6919  -12.7806   26.5373 C   0  0  0  0  0  0  0  0  0  0  0  0
    6.6875  -13.6250   26.1090 C   0  0  0  0  0  0  0  0  0  0  0  0
    9.3461  -15.9821   23.5724 C   0  0  0  0  0  0  0  0  0  0  0  0
   10.5591  -15.7007   23.3233 O   0  0  0  0  0  0  0  0  0  0  0  0
    8.9684  -17.3332   23.7582 N   0  0  0  0  0  0  0  0  0  0  0  0
    9.8676  -18.4102   23.9734 C   0  0  0  0  0  0  0  0  0  0  0  0
   10.0743  -18.8003   25.3878 C   0  0  0  0  0  0  0  0  0  0  0  0
   10.3932  -17.9067   26.2523 O   0  0  0  0  0  0  0  0  0  0  0  0
    5.2801  -23.6399   28.8067 N   0  0  0  0  0  0  0  0  0  0  0  0
    5.6100  -22.9799   27.6013 C   0  0  0  0  0  0  0  0  0  0  0  0
    5.5438  -23.6183   26.4593 N   0  0  0  0  0  0  0  0  0  0  0  0
    6.0099  -21.6187   27.6911 N   0  0  0  0  0  0  0  0  0  0  0  0
    7.3609  -21.3105   28.0531 C   0  0  0  0  0  0  0  0  0  0  0  0
    8.3108  -22.1474   27.1947 C   0  0  0  0  0  0  0  0  0  0  0  0
    9.6930  -21.8036   27.6295 C   0  0  0  0  0  0  0  0  0  0  0  0
   10.1278  -20.4007   27.3316 C   0  0  2  0  0  0  0  0  0  0  0  0
    9.9468  -20.1137   25.8976 N   0  0  0  0  0  0  0  0  0  0  0  0
   11.5200  -20.0989   27.7378 C   0  0  0  0  0  0  0  0  0  0  0  0
   11.8312  -20.0943   28.9778 O   0  0  0  0  0  0  0  0  0  0  0  0
   12.5537  -19.8112   26.8669 O   0  0  0  0  0  0  0  0  0  0  0  0
  2  1  1  1
  3  2  1  0
  4  3  1  0
  5  4  2  0
  6  5  1  0
  7  6  2  0
  7  8  1  0
  8  9  2  0
  9  4  1  0
 10  2  1  0
 10 12  1  0
 11 10  2  0
 13 12  1  0
 14 13  1  0
 15 14  2  0
 16 17  1  0
 17 19  1  0
 17 18  2  0
 19 20  1  0
 20 21  1  0
 21 22  1  0
 23 22  1  6
 23 25  1  0
 23 24  1  0
 24 14  1  0
 25 27  1  0
 26 25  2  0
M  END
$$$$
