NKI.pdb
     RDKit          3D

 26 25  0  0  1  0  0  0  0  0999 V2000
   21.8104  -18.8678  -14.6288 N   0  0  0  0  0  0  0  0  0  0  0  0
   22.4471  -18.7221  -15.8836 C   0  0  0  0  0  0  0  0  0  0  0  0
   23.1171  -19.6819  -16.3290 O   0  0  0  0  0  0  0  0  0  0  0  0
   22.3069  -17.4547  -16.6287 C   0  0  0  0  0  0  0  0  0  0  0  0
   21.4259  -16.5289  -15.8641 C   0  0  2  0  0  0  0  0  0  0  0  0
   20.1350  -17.1125  -15.5844 N   0  0  0  0  0  0  0  0  0  0  0  0
   21.2643  -15.2012  -16.4343 C   0  0  0  0  0  0  0  0  0  0  0  0
   22.2955  -14.5616  -16.7646 O   0  0  0  0  0  0  0  0  0  0  0  0
   19.9769  -14.5812  -16.6398 N   0  0  0  0  0  0  0  0  0  0  0  0
   19.8398  -13.2569  -17.2018 C   0  0  1  0  0  0  0  0  0  0  0  0
   18.4063  -12.9713  -17.6166 C   0  0  0  0  0  0  0  0  0  0  0  0
   18.0114  -13.8583  -18.8003 C   0  0  0  0  0  0  0  0  0  0  0  0
   16.5887  -13.5192  -19.2418 C   0  0  0  0  0  0  0  0  0  0  0  0
   16.1649  -14.3907  -20.4022 C   0  0  0  0  0  0  0  0  0  0  0  0
   14.8967  -13.9245  -20.8775 N   0  0  0  0  0  0  0  0  0  0  0  0
   20.1838  -12.2388  -16.1664 C   0  0  0  0  0  0  0  0  0  0  0  0
   19.5261  -12.2771  -15.0873 O   0  0  0  0  0  0  0  0  0  0  0  0
   23.3679  -10.2560  -12.2414 C   0  0  0  0  0  0  0  0  0  0  0  0
   23.3123   -9.7475  -13.6399 C   0  0  0  0  0  0  0  0  0  0  0  0
   22.8079  -10.6656  -14.6718 C   0  0  2  0  0  0  0  0  0  0  0  0
   23.8098  -11.0656  -15.7349 C   0  0  0  0  0  0  0  0  0  0  0  0
   21.4801  -10.3414  -15.2309 C   0  0  2  0  0  0  0  0  0  0  0  0
   21.1796  -11.2737  -16.3467 N   0  0  0  0  0  0  0  0  0  0  0  0
   21.2500   -9.0072  -15.7669 C   0  0  0  0  0  0  0  0  0  0  0  0
   21.0323   -8.0290  -15.0262 O   0  0  0  0  0  0  0  0  0  0  0  0
   21.2593   -8.7436  -17.1339 O   0  0  0  0  0  0  0  0  0  0  0  0
  2  1  1  0
  2  3  2  0
  4  2  1  0
  5  4  1  0
  5  6  1  6
  7  5  1  0
  7  8  2  0
  9  7  1  0
 10  9  1  0
 10 11  1  1
 11 12  1  0
 13 12  1  0
 13 14  1  0
 15 14  1  0
 16 10  1  0
 17 16  2  0
 18 19  1  0
 19 20  1  0
 20 21  1  6
 22 20  1  0
 22 23  1  6
 23 16  1  0
 24 22  1  0
 25 24  2  0
 26 24  1  0
M  END
$$$$
