NKI.pdb
     RDKit          3D

 26 25  0  0  1  0  0  0  0  0999 V2000
   20.1784  -22.1960  -11.6130 N   0  0  0  0  0  0  0  0  0  0  0  0
   20.1408  -20.7918  -11.7800 C   0  0  0  0  0  0  0  0  0  0  0  0
   19.0298  -20.2149  -11.7427 O   0  0  0  0  0  0  0  0  0  0  0  0
   21.3999  -20.0496  -11.9918 C   0  0  0  0  0  0  0  0  0  0  0  0
   22.5415  -21.0059  -11.9898 C   0  0  2  0  0  0  0  0  0  0  0  0
   22.8696  -21.4592  -10.6586 N   0  0  0  0  0  0  0  0  0  0  0  0
   23.7407  -20.5540  -12.6767 C   0  0  0  0  0  0  0  0  0  0  0  0
   24.5221  -19.7779  -12.0698 O   0  0  0  0  0  0  0  0  0  0  0  0
   24.0778  -20.9534  -14.0224 N   0  0  0  0  0  0  0  0  0  0  0  0
   25.3166  -20.5617  -14.6553 C   0  0  1  0  0  0  0  0  0  0  0  0
   25.9578  -21.7235  -15.3954 C   0  0  0  0  0  0  0  0  0  0  0  0
   27.3409  -21.3214  -15.9144 C   0  0  0  0  0  0  0  0  0  0  0  0
   27.9432  -22.4756  -16.7137 C   0  0  0  0  0  0  0  0  0  0  0  0
   29.3676  -22.1653  -17.1141 C   0  0  0  0  0  0  0  0  0  0  0  0
   29.8875  -23.2864  -17.8382 N   0  0  0  0  0  0  0  0  0  0  0  0
   25.0414  -19.5152  -15.6829 C   0  0  0  0  0  0  0  0  0  0  0  0
   23.9552  -19.6146  -16.3224 O   0  0  0  0  0  0  0  0  0  0  0  0
   26.0839  -14.4373  -14.5900 C   0  0  0  0  0  0  0  0  0  0  0  0
   25.4199  -15.6072  -15.2287 C   0  0  0  0  0  0  0  0  0  0  0  0
   25.9977  -16.1079  -16.4848 C   0  0  2  0  0  0  0  0  0  0  0  0
   26.0859  -15.0980  -17.6101 C   0  0  0  0  0  0  0  0  0  0  0  0
   25.5129  -17.4273  -16.9375 C   0  0  2  0  0  0  0  0  0  0  0  0
   25.9197  -18.4609  -15.9521 N   0  0  0  0  0  0  0  0  0  0  0  0
   25.9508  -17.9307  -18.2317 C   0  0  0  0  0  0  0  0  0  0  0  0
   27.0605  -18.4768  -18.3842 O   0  0  0  0  0  0  0  0  0  0  0  0
   25.1599  -17.8334  -19.3734 O   0  0  0  0  0  0  0  0  0  0  0  0
  2  1  1  0
  2  3  2  0
  4  2  1  0
  5  4  1  0
  5  6  1  1
  7  5  1  0
  7  8  2  0
  9  7  1  0
 10  9  1  0
 10 11  1  6
 11 12  1  0
 13 12  1  0
 13 14  1  0
 15 14  1  0
 16 10  1  0
 17 16  2  0
 18 19  1  0
 19 20  1  0
 20 21  1  6
 22 20  1  0
 22 23  1  1
 23 16  1  0
 24 22  1  0
 25 24  2  0
 26 24  1  0
M  END
$$$$
