NKI.pdb
     RDKit          3D

 26 25  0  0  1  0  0  0  0  0999 V2000
   29.1675  -22.8261  -17.1635 N   0  0  0  0  0  0  0  0  0  0  0  0
   29.7737  -22.7377  -15.8885 C   0  0  0  0  0  0  0  0  0  0  0  0
   30.8151  -23.3998  -15.6745 O   0  0  0  0  0  0  0  0  0  0  0  0
   29.1693  -21.8757  -14.8528 C   0  0  0  0  0  0  0  0  0  0  0  0
   27.9234  -21.2611  -15.3894 C   0  0  2  0  0  0  0  0  0  0  0  0
   28.1906  -20.3495  -16.4768 N   0  0  0  0  0  0  0  0  0  0  0  0
   27.0600  -20.6296  -14.4046 C   0  0  0  0  0  0  0  0  0  0  0  0
   27.3296  -19.4581  -14.0351 O   0  0  0  0  0  0  0  0  0  0  0  0
   25.9077  -21.2824  -13.8302 N   0  0  0  0  0  0  0  0  0  0  0  0
   25.0111  -20.6051  -12.9214 C   0  0  1  0  0  0  0  0  0  0  0  0
   23.5564  -20.8489  -13.2861 C   0  0  0  0  0  0  0  0  0  0  0  0
   22.6356  -20.1135  -12.3087 C   0  0  0  0  0  0  0  0  0  0  0  0
   21.1779  -20.4060  -12.6602 C   0  0  0  0  0  0  0  0  0  0  0  0
   20.2429  -19.6516  -11.7425 C   0  0  0  0  0  0  0  0  0  0  0  0
   18.8980  -20.0309  -12.0570 N   0  0  0  0  0  0  0  0  0  0  0  0
   25.1917  -21.1514  -11.5445 C   0  0  0  0  0  0  0  0  0  0  0  0
   25.2565  -22.4091  -11.4332 O   0  0  0  0  0  0  0  0  0  0  0  0
   28.7036  -19.2546   -8.0780 C   0  0  0  0  0  0  0  0  0  0  0  0
   27.7560  -20.1738   -8.7670 C   0  0  0  0  0  0  0  0  0  0  0  0
   26.3775  -20.2269   -8.2578 C   0  0  2  0  0  0  0  0  0  0  0  0
   26.2400  -20.5129   -6.7768 C   0  0  0  0  0  0  0  0  0  0  0  0
   25.4151  -20.9887   -9.0789 C   0  0  2  0  0  0  0  0  0  0  0  0
   25.2885  -20.3410  -10.4090 N   0  0  0  0  0  0  0  0  0  0  0  0
   24.0515  -21.1506   -8.5943 C   0  0  0  0  0  0  0  0  0  0  0  0
   23.7578  -21.9939   -7.7252 O   0  0  0  0  0  0  0  0  0  0  0  0
   22.9968  -20.3764   -9.0702 O   0  0  0  0  0  0  0  0  0  0  0  0
  2  1  1  0
  2  3  2  0
  4  2  1  0
  5  4  1  0
  5  6  1  6
  7  5  1  0
  7  8  2  0
  9  7  1  0
 10  9  1  0
 10 11  1  6
 11 12  1  0
 13 12  1  0
 13 14  1  0
 15 14  1  0
 16 10  1  0
 17 16  2  0
 18 19  1  0
 19 20  1  0
 20 21  1  1
 22 20  1  0
 22 23  1  6
 23 16  1  0
 24 22  1  0
 25 24  2  0
 26 24  1  0
M  END
$$$$
