NKI.pdb
     RDKit          3D

 26 25  0  0  1  0  0  0  0  0999 V2000
   28.5113  -21.4063  -17.2608 N   0  0  0  0  0  0  0  0  0  0  0  0
   28.2972  -20.0097  -17.1920 C   0  0  0  0  0  0  0  0  0  0  0  0
   29.0054  -19.2605  -17.9032 O   0  0  0  0  0  0  0  0  0  0  0  0
   27.2545  -19.4761  -16.2923 C   0  0  0  0  0  0  0  0  0  0  0  0
   26.6704  -20.5928  -15.4988 C   0  0  2  0  0  0  0  0  0  0  0  0
   25.7577  -21.3955  -16.2784 N   0  0  0  0  0  0  0  0  0  0  0  0
   26.0541  -20.2122  -14.2381 C   0  0  0  0  0  0  0  0  0  0  0  0
   26.6786  -19.4281  -13.4787 O   0  0  0  0  0  0  0  0  0  0  0  0
   24.7594  -20.6911  -13.8156 N   0  0  0  0  0  0  0  0  0  0  0  0
   24.0603  -20.1266  -12.6838 C   0  0  1  0  0  0  0  0  0  0  0  0
   22.5727  -20.4312  -12.7370 C   0  0  0  0  0  0  0  0  0  0  0  0
   21.8964  -19.5787  -13.8140 C   0  0  0  0  0  0  0  0  0  0  0  0
   21.3514  -20.4848  -14.9167 C   0  0  0  0  0  0  0  0  0  0  0  0
   19.9533  -20.0672  -15.3122 C   0  0  0  0  0  0  0  0  0  0  0  0
   20.0274  -19.3641  -16.5579 N   0  0  0  0  0  0  0  0  0  0  0  0
   24.5672  -20.7480  -11.4253 C   0  0  0  0  0  0  0  0  0  0  0  0
   24.9005  -21.9662  -11.4840 O   0  0  0  0  0  0  0  0  0  0  0  0
   27.9444  -18.4839   -7.9297 C   0  0  0  0  0  0  0  0  0  0  0  0
   27.1048  -19.3979   -8.7525 C   0  0  0  0  0  0  0  0  0  0  0  0
   25.8851  -19.9354   -8.1314 C   0  0  2  0  0  0  0  0  0  0  0  0
   26.0567  -20.4938   -6.7339 C   0  0  0  0  0  0  0  0  0  0  0  0
   25.0479  -20.7954   -8.9917 C   0  0  2  0  0  0  0  0  0  0  0  0
   24.6814  -20.0471  -10.2207 N   0  0  0  0  0  0  0  0  0  0  0  0
   23.7931  -21.3106   -8.4620 C   0  0  0  0  0  0  0  0  0  0  0  0
   22.6989  -20.7751   -8.7241 O   0  0  0  0  0  0  0  0  0  0  0  0
   23.7393  -22.4284   -7.6337 O   0  0  0  0  0  0  0  0  0  0  0  0
  2  1  1  0
  2  3  2  0
  4  2  1  0
  5  4  1  0
  5  6  1  6
  7  5  1  0
  7  8  2  0
  9  7  1  0
 10  9  1  0
 10 11  1  6
 11 12  1  0
 13 12  1  0
 13 14  1  0
 15 14  1  0
 16 10  1  0
 17 16  2  0
 18 19  1  0
 19 20  1  0
 20 21  1  1
 22 20  1  0
 22 23  1  6
 23 16  1  0
 24 22  1  0
 25 24  2  0
 26 24  1  0
M  END
$$$$
