NKI.pdb
     RDKit          3D

 26 25  0  0  1  0  0  0  0  0999 V2000
   20.5957  -19.7644  -12.6084 N   0  0  0  0  0  0  0  0  0  0  0  0
   20.4857  -19.6249  -11.2050 C   0  0  0  0  0  0  0  0  0  0  0  0
   19.4242  -19.1578  -10.7321 O   0  0  0  0  0  0  0  0  0  0  0  0
   21.6139  -20.0295  -10.3422 C   0  0  0  0  0  0  0  0  0  0  0  0
   22.7706  -20.4201  -11.1950 C   0  0  2  0  0  0  0  0  0  0  0  0
   22.3983  -21.3727  -12.2143 N   0  0  0  0  0  0  0  0  0  0  0  0
   23.9496  -20.8829  -10.4809 C   0  0  0  0  0  0  0  0  0  0  0  0
   23.8362  -21.8761   -9.7179 O   0  0  0  0  0  0  0  0  0  0  0  0
   25.2446  -20.2573  -10.6055 N   0  0  0  0  0  0  0  0  0  0  0  0
   26.4358  -20.8271  -10.0182 C   0  0  1  0  0  0  0  0  0  0  0  0
   27.6234  -20.7339  -10.9614 C   0  0  0  0  0  0  0  0  0  0  0  0
   27.3403  -21.5149  -12.2474 C   0  0  0  0  0  0  0  0  0  0  0  0
   28.5091  -21.3461  -13.2166 C   0  0  0  0  0  0  0  0  0  0  0  0
   28.2394  -22.0733  -14.5143 C   0  0  0  0  0  0  0  0  0  0  0  0
   29.3411  -21.8409  -15.3996 N   0  0  0  0  0  0  0  0  0  0  0  0
   26.8104  -20.0509   -8.8000 C   0  0  0  0  0  0  0  0  0  0  0  0
   26.4710  -18.8333   -8.7719 O   0  0  0  0  0  0  0  0  0  0  0  0
   26.9907  -22.1387   -3.6869 C   0  0  0  0  0  0  0  0  0  0  0  0
   26.8338  -21.2425   -4.8657 C   0  0  0  0  0  0  0  0  0  0  0  0
   28.0423  -20.5730   -5.3695 C   0  0  2  0  0  0  0  0  0  0  0  0
   28.9043  -19.9057   -4.3180 C   0  0  0  0  0  0  0  0  0  0  0  0
   27.8631  -19.7391   -6.5751 C   0  0  2  0  0  0  0  0  0  0  0  0
   27.5033  -20.6107   -7.7221 N   0  0  0  0  0  0  0  0  0  0  0  0
   28.9785  -18.9265   -7.0396 C   0  0  0  0  0  0  0  0  0  0  0  0
   29.1894  -17.7821   -6.5939 O   0  0  0  0  0  0  0  0  0  0  0  0
   29.8741  -19.3764   -8.0060 O   0  0  0  0  0  0  0  0  0  0  0  0
  2  1  1  0
  2  3  2  0
  4  2  1  0
  5  4  1  0
  5  6  1  6
  7  5  1  0
  7  8  2  0
  9  7  1  0
 10  9  1  0
 10 11  1  6
 11 12  1  0
 13 12  1  0
 13 14  1  0
 15 14  1  0
 16 10  1  0
 17 16  2  0
 18 19  1  0
 19 20  1  0
 20 21  1  1
 22 20  1  0
 22 23  1  6
 23 16  1  0
 24 22  1  0
 25 24  2  0
 26 24  1  0
M  END
$$$$
