NKI.pdb
     RDKit          3D

 26 25  0  0  1  0  0  0  0  0999 V2000
   29.2116  -23.0244  -17.9879 N   0  0  0  0  0  0  0  0  0  0  0  0
   29.2413  -23.1396  -16.5784 C   0  0  0  0  0  0  0  0  0  0  0  0
   30.0005  -23.9927  -16.0642 O   0  0  0  0  0  0  0  0  0  0  0  0
   28.3849  -22.2599  -15.7575 C   0  0  0  0  0  0  0  0  0  0  0  0
   27.5212  -21.4398  -16.6515 C   0  0  2  0  0  0  0  0  0  0  0  0
   28.2944  -20.5855  -17.5218 N   0  0  0  0  0  0  0  0  0  0  0  0
   26.4806  -20.6714  -15.9877 C   0  0  0  0  0  0  0  0  0  0  0  0
   26.8133  -19.6431  -15.3446 O   0  0  0  0  0  0  0  0  0  0  0  0
   25.0834  -21.0317  -16.0310 N   0  0  0  0  0  0  0  0  0  0  0  0
   24.0681  -20.2660  -15.3445 C   0  0  1  0  0  0  0  0  0  0  0  0
   22.7467  -20.2911  -16.0942 C   0  0  0  0  0  0  0  0  0  0  0  0
   22.8142  -19.3710  -17.3160 C   0  0  0  0  0  0  0  0  0  0  0  0
   21.8851  -18.1761  -17.1088 C   0  0  0  0  0  0  0  0  0  0  0  0
   21.8161  -17.3271  -18.3578 C   0  0  0  0  0  0  0  0  0  0  0  0
   20.9810  -16.1950  -18.0888 N   0  0  0  0  0  0  0  0  0  0  0  0
   23.8006  -20.8778  -14.0100 C   0  0  0  0  0  0  0  0  0  0  0  0
   23.4313  -22.0870  -13.9998 O   0  0  0  0  0  0  0  0  0  0  0  0
   27.2603  -20.7834  -10.2063 C   0  0  0  0  0  0  0  0  0  0  0  0
   26.0697  -21.2019  -10.9969 C   0  0  0  0  0  0  0  0  0  0  0  0
   24.7652  -20.6584  -10.5906 C   0  0  2  0  0  0  0  0  0  0  0  0
   24.3736  -20.9115   -9.1495 C   0  0  0  0  0  0  0  0  0  0  0  0
   23.6508  -20.8820  -11.5334 C   0  0  2  0  0  0  0  0  0  0  0  0
   23.9412  -20.1774  -12.8078 N   0  0  0  0  0  0  0  0  0  0  0  0
   22.3113  -20.4577  -11.1515 C   0  0  0  0  0  0  0  0  0  0  0  0
   21.5742  -21.1670  -10.4400 O   0  0  0  0  0  0  0  0  0  0  0  0
   21.7742  -19.2385  -11.5559 O   0  0  0  0  0  0  0  0  0  0  0  0
  2  1  1  0
  2  3  2  0
  4  2  1  0
  5  4  1  0
  5  6  1  1
  7  5  1  0
  7  8  2  0
  9  7  1  0
 10  9  1  0
 10 11  1  6
 11 12  1  0
 13 12  1  0
 13 14  1  0
 15 14  1  0
 16 10  1  0
 17 16  2  0
 18 19  1  0
 19 20  1  0
 20 21  1  1
 22 20  1  0
 22 23  1  6
 23 16  1  0
 24 22  1  0
 25 24  2  0
 26 24  1  0
M  END
$$$$
