NKI.pdb
     RDKit          3D

 26 25  0  0  1  0  0  0  0  0999 V2000
   29.6288  -17.9340  -17.4264 N   0  0  0  0  0  0  0  0  0  0  0  0
   28.2845  -18.3744  -17.4212 C   0  0  0  0  0  0  0  0  0  0  0  0
   27.8304  -18.9206  -18.4527 O   0  0  0  0  0  0  0  0  0  0  0  0
   27.4593  -18.1807  -16.2118 C   0  0  0  0  0  0  0  0  0  0  0  0
   27.4331  -19.4454  -15.4259 C   0  0  2  0  0  0  0  0  0  0  0  0
   26.8935  -20.5479  -16.1864 N   0  0  0  0  0  0  0  0  0  0  0  0
   26.7837  -19.3648  -14.1275 C   0  0  0  0  0  0  0  0  0  0  0  0
   27.0913  -18.4159  -13.3617 O   0  0  0  0  0  0  0  0  0  0  0  0
   25.8023  -20.3218  -13.6746 N   0  0  0  0  0  0  0  0  0  0  0  0
   24.9341  -20.0617  -12.5490 C   0  0  1  0  0  0  0  0  0  0  0  0
   23.5746  -20.7159  -12.7287 C   0  0  0  0  0  0  0  0  0  0  0  0
   22.7157  -19.8945  -13.6939 C   0  0  0  0  0  0  0  0  0  0  0  0
   21.3868  -20.6098  -13.9319 C   0  0  0  0  0  0  0  0  0  0  0  0
   20.5328  -19.8419  -14.9151 C   0  0  0  0  0  0  0  0  0  0  0  0
   19.2611  -20.4935  -15.0137 N   0  0  0  0  0  0  0  0  0  0  0  0
   25.5242  -20.6610  -11.3163 C   0  0  0  0  0  0  0  0  0  0  0  0
   25.9750  -21.8383  -11.4133 O   0  0  0  0  0  0  0  0  0  0  0  0
   28.6399  -19.6624   -6.2218 C   0  0  0  0  0  0  0  0  0  0  0  0
   27.6974  -20.5020   -7.0120 C   0  0  0  0  0  0  0  0  0  0  0  0
   27.0405  -19.8731   -8.1676 C   0  0  2  0  0  0  0  0  0  0  0  0
   26.5373  -18.4622   -7.9435 C   0  0  0  0  0  0  0  0  0  0  0  0
   26.0721  -20.7162   -8.8971 C   0  0  2  0  0  0  0  0  0  0  0  0
   25.5921  -19.9825  -10.0954 N   0  0  0  0  0  0  0  0  0  0  0  0
   24.8698  -21.1628   -8.2076 C   0  0  0  0  0  0  0  0  0  0  0  0
   24.9216  -21.9080   -7.2102 O   0  0  0  0  0  0  0  0  0  0  0  0
   23.5941  -20.7861   -8.6186 O   0  0  0  0  0  0  0  0  0  0  0  0
  2  1  1  0
  2  3  2  0
  4  2  1  0
  5  4  1  0
  5  6  1  6
  7  5  1  0
  7  8  2  0
  9  7  1  0
 10  9  1  0
 10 11  1  6
 11 12  1  0
 13 12  1  0
 13 14  1  0
 15 14  1  0
 16 10  1  0
 17 16  2  0
 18 19  1  0
 19 20  1  0
 20 21  1  1
 22 20  1  0
 22 23  1  6
 23 16  1  0
 24 22  1  0
 25 24  2  0
 26 24  1  0
M  END
$$$$
