NKI.pdb
     RDKit          3D

 26 25  0  0  1  0  0  0  0  0999 V2000
   17.5239  -13.9826  -20.6742 N   0  0  0  0  0  0  0  0  0  0  0  0
   17.0068  -12.7901  -20.1160 C   0  0  0  0  0  0  0  0  0  0  0  0
   16.1994  -12.1138  -20.7939 O   0  0  0  0  0  0  0  0  0  0  0  0
   17.4278  -12.3773  -18.7620 C   0  0  0  0  0  0  0  0  0  0  0  0
   18.4017  -13.3682  -18.2257 C   0  0  2  0  0  0  0  0  0  0  0  0
   17.7460  -14.5039  -17.6213 N   0  0  0  0  0  0  0  0  0  0  0  0
   19.4112  -12.8333  -17.3264 C   0  0  0  0  0  0  0  0  0  0  0  0
   19.0912  -12.6119  -16.1305 O   0  0  0  0  0  0  0  0  0  0  0  0
   20.7637  -12.5439  -17.7399 N   0  0  0  0  0  0  0  0  0  0  0  0
   21.7455  -11.9925  -16.8341 C   0  0  1  0  0  0  0  0  0  0  0  0
   23.1619  -12.2899  -17.2966 C   0  0  0  0  0  0  0  0  0  0  0  0
   24.1741  -11.7448  -16.2854 C   0  0  0  0  0  0  0  0  0  0  0  0
   25.5922  -11.9842  -16.8009 C   0  0  0  0  0  0  0  0  0  0  0  0
   26.6160  -11.5231  -15.7886 C   0  0  0  0  0  0  0  0  0  0  0  0
   27.9202  -11.6925  -16.3560 N   0  0  0  0  0  0  0  0  0  0  0  0
   21.6199  -10.5058  -16.8088 C   0  0  0  0  0  0  0  0  0  0  0  0
   21.6414   -9.9119  -17.9247 O   0  0  0  0  0  0  0  0  0  0  0  0
   18.3503   -6.1868  -16.9412 C   0  0  0  0  0  0  0  0  0  0  0  0
   19.6782   -6.5459  -16.3708 C   0  0  0  0  0  0  0  0  0  0  0  0
   20.0057   -7.9761  -16.2727 C   0  0  2  0  0  0  0  0  0  0  0  0
   18.9080   -8.8597  -15.7174 C   0  0  0  0  0  0  0  0  0  0  0  0
   21.3349   -8.2971  -15.7150 C   0  0  2  0  0  0  0  0  0  0  0  0
   21.4835   -9.7718  -15.6263 N   0  0  0  0  0  0  0  0  0  0  0  0
   21.6840   -7.7913  -14.3949 C   0  0  0  0  0  0  0  0  0  0  0  0
   21.8231   -6.5732  -14.1726 O   0  0  0  0  0  0  0  0  0  0  0  0
   21.8827   -8.6342  -13.3048 O   0  0  0  0  0  0  0  0  0  0  0  0
  2  1  1  0
  2  3  2  0
  4  2  1  0
  5  4  1  0
  5  6  1  1
  7  5  1  0
  7  8  2  0
  9  7  1  0
 10  9  1  0
 10 11  1  6
 11 12  1  0
 13 12  1  0
 13 14  1  0
 15 14  1  0
 16 10  1  0
 17 16  2  0
 18 19  1  0
 19 20  1  0
 20 21  1  1
 22 20  1  0
 22 23  1  1
 23 16  1  0
 24 22  1  0
 25 24  2  0
 26 24  1  0
M  END
$$$$
