NKI.pdb
     RDKit          3D

 26 25  0  0  1  0  0  0  0  0999 V2000
   29.5782  -24.3886  -17.5138 N   0  0  0  0  0  0  0  0  0  0  0  0
   30.1719  -23.1159  -17.6837 C   0  0  0  0  0  0  0  0  0  0  0  0
   31.3588  -23.0579  -18.0791 O   0  0  0  0  0  0  0  0  0  0  0  0
   29.3848  -21.9004  -17.3935 C   0  0  0  0  0  0  0  0  0  0  0  0
   28.0418  -22.2935  -16.8839 C   0  0  2  0  0  0  0  0  0  0  0  0
   27.1359  -22.6456  -17.9518 N   0  0  0  0  0  0  0  0  0  0  0  0
   27.4101  -21.3448  -15.9812 C   0  0  0  0  0  0  0  0  0  0  0  0
   27.9736  -21.0945  -14.8851 O   0  0  0  0  0  0  0  0  0  0  0  0
   26.1667  -20.6759  -16.2823 N   0  0  0  0  0  0  0  0  0  0  0  0
   25.5731  -19.7114  -15.3846 C   0  0  1  0  0  0  0  0  0  0  0  0
   24.4925  -18.8964  -16.0750 C   0  0  0  0  0  0  0  0  0  0  0  0
   25.0571  -17.5485  -16.5316 C   0  0  0  0  0  0  0  0  0  0  0  0
   24.8327  -17.3820  -18.0336 C   0  0  0  0  0  0  0  0  0  0  0  0
   25.3565  -16.0460  -18.5095 C   0  0  0  0  0  0  0  0  0  0  0  0
   25.0744  -15.9227  -19.9083 N   0  0  0  0  0  0  0  0  0  0  0  0
   24.9004  -20.4260  -14.2604 C   0  0  0  0  0  0  0  0  0  0  0  0
   24.3249  -21.5165  -14.5399 O   0  0  0  0  0  0  0  0  0  0  0  0
   27.2541  -20.5858   -9.4940 C   0  0  0  0  0  0  0  0  0  0  0  0
   26.3806  -21.0610  -10.6025 C   0  0  0  0  0  0  0  0  0  0  0  0
   24.9922  -20.5771  -10.6219 C   0  0  2  0  0  0  0  0  0  0  0  0
   24.1624  -20.9278   -9.4043 C   0  0  0  0  0  0  0  0  0  0  0  0
   24.2586  -20.7712  -11.8887 C   0  0  2  0  0  0  0  0  0  0  0  0
   24.8871  -19.9424  -12.9483 N   0  0  0  0  0  0  0  0  0  0  0  0
   22.8391  -20.4502  -11.9352 C   0  0  0  0  0  0  0  0  0  0  0  0
   22.4327  -19.2976  -12.1783 O   0  0  0  0  0  0  0  0  0  0  0  0
   21.8530  -21.4073  -11.7119 O   0  0  0  0  0  0  0  0  0  0  0  0
  2  1  1  0
  2  3  2  0
  4  2  1  0
  5  4  1  0
  5  6  1  6
  7  5  1  0
  7  8  2  0
  9  7  1  0
 10  9  1  0
 10 11  1  6
 11 12  1  0
 13 12  1  0
 13 14  1  0
 15 14  1  0
 16 10  1  0
 17 16  2  0
 18 19  1  0
 19 20  1  0
 20 21  1  1
 22 20  1  0
 22 23  1  6
 23 16  1  0
 24 22  1  0
 25 24  2  0
 26 24  1  0
M  END
$$$$
