NKI.pdb
     RDKit          3D

 26 25  0  0  1  0  0  0  0  0999 V2000
   15.6434  -13.6025  -17.2583 N   0  0  0  0  0  0  0  0  0  0  0  0
   16.1758  -13.3126  -15.9802 C   0  0  0  0  0  0  0  0  0  0  0  0
   15.5009  -13.6138  -14.9691 O   0  0  0  0  0  0  0  0  0  0  0  0
   17.5006  -12.6688  -15.8720 C   0  0  0  0  0  0  0  0  0  0  0  0
   18.0173  -12.3732  -17.2371 C   0  0  2  0  0  0  0  0  0  0  0  0
   18.7937  -13.4659  -17.7738 N   0  0  0  0  0  0  0  0  0  0  0  0
   18.7465  -11.1229  -17.3755 C   0  0  0  0  0  0  0  0  0  0  0  0
   20.0008  -11.1482  -17.2882 O   0  0  0  0  0  0  0  0  0  0  0  0
   18.1001   -9.8533  -17.6084 N   0  0  0  0  0  0  0  0  0  0  0  0
   18.8478   -8.6359  -17.8262 C   0  0  1  0  0  0  0  0  0  0  0  0
   17.9714   -7.5374  -18.4039 C   0  0  0  0  0  0  0  0  0  0  0  0
   18.7795   -6.2474  -18.5683 C   0  0  0  0  0  0  0  0  0  0  0  0
   19.4682   -6.2452  -19.9320 C   0  0  0  0  0  0  0  0  0  0  0  0
   20.2985   -4.9946  -20.1117 C   0  0  0  0  0  0  0  0  0  0  0  0
   20.8851   -5.0259  -21.4180 N   0  0  0  0  0  0  0  0  0  0  0  0
   19.3525   -8.1212  -16.5195 C   0  0  0  0  0  0  0  0  0  0  0  0
   18.5631   -8.1925  -15.5345 O   0  0  0  0  0  0  0  0  0  0  0  0
   23.1320  -10.2768  -14.1420 C   0  0  0  0  0  0  0  0  0  0  0  0
   22.0019   -9.4212  -14.5984 C   0  0  0  0  0  0  0  0  0  0  0  0
   22.2019   -7.9648  -14.5637 C   0  0  2  0  0  0  0  0  0  0  0  0
   22.8641   -7.4271  -13.3121 C   0  0  0  0  0  0  0  0  0  0  0  0
   21.0537   -7.1451  -15.0001 C   0  0  2  0  0  0  0  0  0  0  0  0
   20.6312   -7.5795  -16.3556 N   0  0  0  0  0  0  0  0  0  0  0  0
   21.2144   -5.7005  -15.0876 C   0  0  0  0  0  0  0  0  0  0  0  0
   21.6063   -5.1440  -16.1314 O   0  0  0  0  0  0  0  0  0  0  0  0
   20.9411   -4.8559  -14.0150 O   0  0  0  0  0  0  0  0  0  0  0  0
  2  1  1  0
  2  3  2  0
  4  2  1  0
  5  4  1  0
  5  6  1  1
  7  5  1  0
  7  8  2  0
  9  7  1  0
 10  9  1  0
 10 11  1  1
 11 12  1  0
 13 12  1  0
 13 14  1  0
 15 14  1  0
 16 10  1  0
 17 16  2  0
 18 19  1  0
 19 20  1  0
 20 21  1  1
 22 20  1  0
 22 23  1  6
 23 16  1  0
 24 22  1  0
 25 24  2  0
 26 24  1  0
M  END
$$$$
