NKI.pdb
     RDKit          3D

 26 25  0  0  1  0  0  0  0  0999 V2000
   18.3378  -16.7839  -16.6938 N   0  0  0  0  0  0  0  0  0  0  0  0
   19.3802  -16.2506  -15.8999 C   0  0  0  0  0  0  0  0  0  0  0  0
   19.8984  -16.9811  -15.0245 O   0  0  0  0  0  0  0  0  0  0  0  0
   19.8260  -14.8602  -16.1215 C   0  0  0  0  0  0  0  0  0  0  0  0
   18.9711  -14.2294  -17.1650 C   0  0  2  0  0  0  0  0  0  0  0  0
   19.2879  -14.7069  -18.4904 N   0  0  0  0  0  0  0  0  0  0  0  0
   18.9317  -12.7760  -17.1505 C   0  0  0  0  0  0  0  0  0  0  0  0
   19.8387  -12.1461  -17.7522 O   0  0  0  0  0  0  0  0  0  0  0  0
   17.9013  -12.0206  -16.4785 N   0  0  0  0  0  0  0  0  0  0  0  0
   17.8779  -10.5756  -16.4824 C   0  0  1  0  0  0  0  0  0  0  0  0
   16.5095  -10.0376  -16.0994 C   0  0  0  0  0  0  0  0  0  0  0  0
   15.4370  -10.6082  -17.0311 C   0  0  0  0  0  0  0  0  0  0  0  0
   14.0661  -10.0719  -16.6226 C   0  0  0  0  0  0  0  0  0  0  0  0
   12.9765  -10.6763  -17.4789 C   0  0  0  0  0  0  0  0  0  0  0  0
   11.7092  -10.2596  -16.9576 N   0  0  0  0  0  0  0  0  0  0  0  0
   18.8298  -10.0596  -15.4556 C   0  0  0  0  0  0  0  0  0  0  0  0
   18.6947  -10.5011  -14.2786 O   0  0  0  0  0  0  0  0  0  0  0  0
   23.6984  -10.9935  -15.1714 C   0  0  0  0  0  0  0  0  0  0  0  0
   22.3000  -10.5223  -14.9715 C   0  0  0  0  0  0  0  0  0  0  0  0
   22.0850   -9.0710  -14.8726 C   0  0  2  0  0  0  0  0  0  0  0  0
   23.0839   -8.3208  -14.0161 C   0  0  0  0  0  0  0  0  0  0  0  0
   20.6925   -8.6394  -14.6374 C   0  0  2  0  0  0  0  0  0  0  0  0
   19.8354   -9.1320  -15.7453 N   0  0  0  0  0  0  0  0  0  0  0  0
   20.4068   -7.2157  -14.5288 C   0  0  0  0  0  0  0  0  0  0  0  0
   20.5987   -6.5848  -13.4715 O   0  0  0  0  0  0  0  0  0  0  0  0
   19.9042   -6.4751  -15.5952 O   0  0  0  0  0  0  0  0  0  0  0  0
  2  1  1  0
  2  3  2  0
  4  2  1  0
  5  4  1  0
  5  6  1  6
  7  5  1  0
  7  8  2  0
  9  7  1  0
 10  9  1  0
 10 11  1  1
 11 12  1  0
 13 12  1  0
 13 14  1  0
 15 14  1  0
 16 10  1  0
 17 16  2  0
 18 19  1  0
 19 20  1  0
 20 21  1  1
 22 20  1  0
 22 23  1  6
 23 16  1  0
 24 22  1  0
 25 24  2  0
 26 24  1  0
M  END
$$$$
