NKI.pdb
     RDKit          3D

 26 25  0  0  1  0  0  0  0  0999 V2000
   28.8152  -23.1907  -17.7605 N   0  0  0  0  0  0  0  0  0  0  0  0
   29.5987  -22.1061  -17.3016 C   0  0  0  0  0  0  0  0  0  0  0  0
   30.7776  -22.0044  -17.7120 O   0  0  0  0  0  0  0  0  0  0  0  0
   29.0125  -21.1312  -16.3597 C   0  0  0  0  0  0  0  0  0  0  0  0
   27.5994  -21.5076  -16.0777 C   0  0  2  0  0  0  0  0  0  0  0  0
   26.7590  -21.3817  -17.2451 N   0  0  0  0  0  0  0  0  0  0  0  0
   26.9858  -20.8383  -14.9420 C   0  0  0  0  0  0  0  0  0  0  0  0
   27.2989  -19.6425  -14.7107 O   0  0  0  0  0  0  0  0  0  0  0  0
   26.0342  -21.4803  -14.0667 N   0  0  0  0  0  0  0  0  0  0  0  0
   25.1860  -20.7312  -13.1679 C   0  0  1  0  0  0  0  0  0  0  0  0
   23.7144  -20.9441  -13.4805 C   0  0  0  0  0  0  0  0  0  0  0  0
   22.8456  -20.1416  -12.5083 C   0  0  0  0  0  0  0  0  0  0  0  0
   21.3715  -20.3350  -12.8598 C   0  0  0  0  0  0  0  0  0  0  0  0
   20.4917  -19.4880  -11.9687 C   0  0  0  0  0  0  0  0  0  0  0  0
   20.5267  -20.0371  -10.6462 N   0  0  0  0  0  0  0  0  0  0  0  0
   25.3889  -21.2168  -11.7715 C   0  0  0  0  0  0  0  0  0  0  0  0
   25.3597  -22.4679  -11.5921 O   0  0  0  0  0  0  0  0  0  0  0  0
   28.0968  -19.8319   -6.4571 C   0  0  0  0  0  0  0  0  0  0  0  0
   27.1489  -20.6511   -7.2621 C   0  0  0  0  0  0  0  0  0  0  0  0
   26.7901  -20.1498   -8.5972 C   0  0  2  0  0  0  0  0  0  0  0  0
   26.5365  -18.6593   -8.6876 C   0  0  0  0  0  0  0  0  0  0  0  0
   25.7909  -20.9456   -9.3383 C   0  0  2  0  0  0  0  0  0  0  0  0
   25.6036  -20.3580  -10.6889 N   0  0  0  0  0  0  0  0  0  0  0  0
   24.4510  -21.0826   -8.7850 C   0  0  0  0  0  0  0  0  0  0  0  0
   23.4803  -20.4536   -9.2484 O   0  0  0  0  0  0  0  0  0  0  0  0
   24.1734  -21.9214   -7.7091 O   0  0  0  0  0  0  0  0  0  0  0  0
  2  1  1  0
  2  3  2  0
  4  2  1  0
  5  4  1  0
  5  6  1  6
  7  5  1  0
  7  8  2  0
  9  7  1  0
 10  9  1  0
 10 11  1  6
 11 12  1  0
 13 12  1  0
 13 14  1  0
 15 14  1  0
 16 10  1  0
 17 16  2  0
 18 19  1  0
 19 20  1  0
 20 21  1  1
 22 20  1  0
 22 23  1  6
 23 16  1  0
 24 22  1  0
 25 24  2  0
 26 24  1  0
M  END
$$$$
