MFM.pdb
     RDKit          3D

 28 28  0  0  1  0  0  0  0  0999 V2000
    8.4168  -12.5604   16.8596 C   0  0  0  0  0  0  0  0  0  0  0  0
    8.3502  -14.1918   16.1648 S   0  0  0  0  0  0  0  0  0  0  0  0
    8.3682  -15.5676   17.2802 C   0  0  0  0  0  0  0  0  0  0  0  0
    9.2060  -15.4433   18.4746 C   0  0  0  0  0  0  0  0  0  0  0  0
    9.2320  -16.4653   19.5257 C   0  0  2  0  0  0  0  0  0  0  0  0
    8.1948  -17.4093   19.6077 N   0  0  0  0  0  0  0  0  0  0  0  0
    9.4033  -15.8226   20.8822 C   0  0  0  0  0  0  0  0  0  0  0  0
   10.3705  -15.0544   21.0594 O   0  0  0  0  0  0  0  0  0  0  0  0
    8.5235  -16.0563   21.9370 N   0  0  0  0  0  0  0  0  0  0  0  0
    8.5934  -15.3043   23.2320 C   0  0  1  0  0  0  0  0  0  0  0  0
    7.2035  -15.3163   23.7260 C   0  0  0  0  0  0  0  0  0  0  0  0
    6.9573  -14.4752   24.8782 C   0  0  0  0  0  0  0  0  0  0  0  0
    6.2985  -14.8575   26.0068 C   0  0  0  0  0  0  0  0  0  0  0  0
    6.1110  -13.9696   27.0403 C   0  0  0  0  0  0  0  0  0  0  0  0
    6.5660  -12.6798   26.9946 C   0  0  0  0  0  0  0  0  0  0  0  0
    7.2335  -12.2680   25.8695 C   0  0  0  0  0  0  0  0  0  0  0  0
    7.4243  -13.1526   24.8309 C   0  0  0  0  0  0  0  0  0  0  0  0
    9.6694  -15.8224   24.0258 C   0  0  0  0  0  0  0  0  0  0  0  0
   10.8148  -15.2344   23.9392 O   0  0  0  0  0  0  0  0  0  0  0  0
   11.1337  -12.9383   28.5421 C   0  0  0  0  0  0  0  0  0  0  0  0
   11.8268  -14.5517   28.7797 S   0  0  0  0  0  0  0  0  0  0  0  0
   10.7949  -15.9398   28.3635 C   0  0  0  0  0  0  0  0  0  0  0  0
   10.1098  -15.8891   27.0513 C   0  0  0  0  0  0  0  0  0  0  0  0
   10.4633  -17.0033   26.0861 C   0  0  2  0  0  0  0  0  0  0  0  0
    9.5951  -16.9081   24.8995 N   0  0  0  0  0  0  0  0  0  0  0  0
   10.2213  -18.3207   26.6993 C   0  0  0  0  0  0  0  0  0  0  0  0
   11.1548  -19.0187   27.4637 O   0  0  0  0  0  0  0  0  0  0  0  0
    9.1011  -18.9179   26.5607 O   0  0  0  0  0  0  0  0  0  0  0  0
  1  2  1  0
  3  2  1  0
  4  3  1  0
  5  4  1  0
  5  6  1  1
  7  5  1  0
  8  7  2  0
  9  7  1  0
 10  9  1  0
 10 11  1  1
 11 12  1  0
 12 17  2  0
 13 12  1  0
 13 14  2  0
 14 15  1  0
 15 16  2  0
 17 16  1  0
 18 19  2  0
 18 10  1  0
 20 21  1  0
 22 21  1  0
 24 23  1  1
 23 22  1  0
 24 25  1  0
 25 18  1  0
 26 24  1  0
 27 26  1  0
 28 26  2  0
M  END
$$$$
