MFM.pdb
     RDKit          3D

 28 28  0  0  1  0  0  0  0  0999 V2000
    9.8249  -20.8197   22.6861 C   0  0  0  0  0  0  0  0  0  0  0  0
   11.1798  -20.7259   21.5440 S   0  0  0  0  0  0  0  0  0  0  0  0
   10.9364  -19.8152   20.0445 C   0  0  0  0  0  0  0  0  0  0  0  0
    9.8431  -18.8413   20.0290 C   0  0  0  0  0  0  0  0  0  0  0  0
   10.0504  -17.4332   19.6762 C   0  0  2  0  0  0  0  0  0  0  0  0
   11.1837  -17.0584   18.9354 N   0  0  0  0  0  0  0  0  0  0  0  0
    9.9752  -16.5639   20.9095 C   0  0  0  0  0  0  0  0  0  0  0  0
   10.9856  -15.9106   21.2401 O   0  0  0  0  0  0  0  0  0  0  0  0
    8.8230  -16.4665   21.6869 N   0  0  0  0  0  0  0  0  0  0  0  0
    8.7087  -15.5305   22.8523 C   0  0  1  0  0  0  0  0  0  0  0  0
    7.2973  -15.1024   22.8279 C   0  0  0  0  0  0  0  0  0  0  0  0
    6.9360  -14.1305   23.8381 C   0  0  0  0  0  0  0  0  0  0  0  0
    7.2992  -12.8183   23.8350 C   0  0  0  0  0  0  0  0  0  0  0  0
    6.9075  -11.9830   24.8551 C   0  0  0  0  0  0  0  0  0  0  0  0
    6.1468  -12.4134   25.9080 C   0  0  0  0  0  0  0  0  0  0  0  0
    5.7664  -13.7308   25.9364 C   0  0  0  0  0  0  0  0  0  0  0  0
    6.1557  -14.5724   24.9176 C   0  0  0  0  0  0  0  0  0  0  0  0
    9.2792  -16.1461   24.0150 C   0  0  0  0  0  0  0  0  0  0  0  0
    9.4002  -17.4309   24.0142 O   0  0  0  0  0  0  0  0  0  0  0  0
    9.9699  -13.6440   30.2773 C   0  0  0  0  0  0  0  0  0  0  0  0
   11.2528  -14.8533   30.0993 S   0  0  0  0  0  0  0  0  0  0  0  0
   11.2186  -15.8516   28.6272 C   0  0  0  0  0  0  0  0  0  0  0  0
   10.5034  -15.2889   27.4586 C   0  0  0  0  0  0  0  0  0  0  0  0
   10.3982  -16.2034   26.2542 C   0  0  2  0  0  0  0  0  0  0  0  0
    9.7293  -15.4824   25.1571 N   0  0  0  0  0  0  0  0  0  0  0  0
    9.5747  -17.3842   26.5664 C   0  0  0  0  0  0  0  0  0  0  0  0
   10.0703  -18.5737   27.0977 O   0  0  0  0  0  0  0  0  0  0  0  0
    8.3142  -17.3832   26.3613 O   0  0  0  0  0  0  0  0  0  0  0  0
  1  2  1  0
  3  2  1  0
  4  3  1  0
  5  4  1  0
  5  6  1  1
  7  5  1  0
  8  7  2  0
  9  7  1  0
 10  9  1  0
 10 11  1  1
 11 12  1  0
 12 17  2  0
 13 12  1  0
 13 14  2  0
 14 15  1  0
 15 16  2  0
 17 16  1  0
 18 19  2  0
 18 10  1  0
 20 21  1  0
 22 21  1  0
 24 23  1  1
 23 22  1  0
 24 25  1  0
 25 18  1  0
 26 24  1  0
 27 26  1  0
 28 26  2  0
M  END
$$$$
