MFM.pdb
     RDKit          3D

 28 28  0  0  1  0  0  0  0  0999 V2000
    8.9227  -12.0682   19.4124 C   0  0  0  0  0  0  0  0  0  0  0  0
    7.8162  -13.1370   18.5280 S   0  0  0  0  0  0  0  0  0  0  0  0
    8.4519  -14.6820   17.9396 C   0  0  0  0  0  0  0  0  0  0  0  0
    9.6497  -15.2027   18.6015 C   0  0  0  0  0  0  0  0  0  0  0  0
    9.6055  -16.3431   19.5221 C   0  0  2  0  0  0  0  0  0  0  0  0
    8.5553  -17.2720   19.4333 N   0  0  0  0  0  0  0  0  0  0  0  0
    9.7067  -15.8699   20.9534 C   0  0  0  0  0  0  0  0  0  0  0  0
   10.6425  -15.1046   21.2628 O   0  0  0  0  0  0  0  0  0  0  0  0
    8.7966  -16.2561   21.9350 N   0  0  0  0  0  0  0  0  0  0  0  0
    8.7875  -15.6606   23.3107 C   0  0  1  0  0  0  0  0  0  0  0  0
    7.3776  -15.2845   23.5266 C   0  0  0  0  0  0  0  0  0  0  0  0
    7.1242  -14.5329   24.7375 C   0  0  0  0  0  0  0  0  0  0  0  0
    6.5729  -15.0356   25.8765 C   0  0  0  0  0  0  0  0  0  0  0  0
    6.3663  -14.2257   26.9687 C   0  0  0  0  0  0  0  0  0  0  0  0
    6.6962  -12.8976   26.9732 C   0  0  0  0  0  0  0  0  0  0  0  0
    7.2536  -12.3648   25.8390 C   0  0  0  0  0  0  0  0  0  0  0  0
    7.4628  -13.1710   24.7417 C   0  0  0  0  0  0  0  0  0  0  0  0
    9.4693  -16.5406   24.2148 C   0  0  0  0  0  0  0  0  0  0  0  0
    9.4413  -17.8045   23.9558 O   0  0  0  0  0  0  0  0  0  0  0  0
   10.0529  -13.1372   29.4789 C   0  0  0  0  0  0  0  0  0  0  0  0
   11.0217  -13.9449   28.2343 S   0  0  0  0  0  0  0  0  0  0  0  0
   11.0476  -15.7235   28.2634 C   0  0  0  0  0  0  0  0  0  0  0  0
   11.7850  -16.3957   27.1688 C   0  0  0  0  0  0  0  0  0  0  0  0
   10.9274  -17.1358   26.1613 C   0  0  2  0  0  0  0  0  0  0  0  0
   10.1754  -16.1577   25.3559 N   0  0  0  0  0  0  0  0  0  0  0  0
    9.9403  -17.9897   26.8443 C   0  0  0  0  0  0  0  0  0  0  0  0
    8.5608  -17.7969   26.7934 O   0  0  0  0  0  0  0  0  0  0  0  0
   10.3070  -18.9918   27.5458 O   0  0  0  0  0  0  0  0  0  0  0  0
  1  2  1  0
  3  2  1  0
  4  3  1  0
  5  4  1  0
  5  6  1  1
  7  5  1  0
  8  7  2  0
  9  7  1  0
 10  9  1  0
 10 11  1  1
 11 12  1  0
 12 17  2  0
 13 12  1  0
 13 14  2  0
 14 15  1  0
 15 16  2  0
 17 16  1  0
 18 19  2  0
 18 10  1  0
 20 21  1  0
 22 21  1  0
 24 23  1  1
 23 22  1  0
 24 25  1  0
 25 18  1  0
 26 24  1  0
 27 26  1  0
 28 26  2  0
M  END
$$$$
