MFM.pdb
     RDKit          3D

 28 28  0  0  1  0  0  0  0  0999 V2000
    8.2424  -12.5169   17.1256 C   0  0  0  0  0  0  0  0  0  0  0  0
    7.8252  -14.0859   16.4094 S   0  0  0  0  0  0  0  0  0  0  0  0
    7.9498  -15.5236   17.4364 C   0  0  0  0  0  0  0  0  0  0  0  0
    9.1069  -15.6030   18.3302 C   0  0  0  0  0  0  0  0  0  0  0  0
    9.2218  -16.6226   19.3777 C   0  0  2  0  0  0  0  0  0  0  0  0
    8.2338  -17.6140   19.4988 N   0  0  0  0  0  0  0  0  0  0  0  0
    9.4160  -15.9725   20.7276 C   0  0  0  0  0  0  0  0  0  0  0  0
   10.4429  -15.2894   20.9173 O   0  0  0  0  0  0  0  0  0  0  0  0
    8.4935  -16.1082   21.7628 N   0  0  0  0  0  0  0  0  0  0  0  0
    8.5636  -15.2975   23.0219 C   0  0  1  0  0  0  0  0  0  0  0  0
    7.1795  -15.3113   23.5317 C   0  0  0  0  0  0  0  0  0  0  0  0
    6.9390  -14.4501   24.6702 C   0  0  0  0  0  0  0  0  0  0  0  0
    6.4651  -14.8569   25.8800 C   0  0  0  0  0  0  0  0  0  0  0  0
    6.2631  -13.9479   26.8923 C   0  0  0  0  0  0  0  0  0  0  0  0
    6.5216  -12.6123   26.7447 C   0  0  0  0  0  0  0  0  0  0  0  0
    7.0004  -12.1749   25.5362 C   0  0  0  0  0  0  0  0  0  0  0  0
    7.2045  -13.0804   24.5184 C   0  0  0  0  0  0  0  0  0  0  0  0
    9.6570  -15.7606   23.8259 C   0  0  0  0  0  0  0  0  0  0  0  0
   10.7668  -15.1052   23.7625 O   0  0  0  0  0  0  0  0  0  0  0  0
   10.6757  -12.9284   28.5084 C   0  0  0  0  0  0  0  0  0  0  0  0
   10.9454  -14.5504   29.1690 S   0  0  0  0  0  0  0  0  0  0  0  0
   11.2003  -15.8642   27.9968 C   0  0  0  0  0  0  0  0  0  0  0  0
   10.3445  -15.8521   26.7880 C   0  0  0  0  0  0  0  0  0  0  0  0
   10.5856  -16.9809   25.8053 C   0  0  2  0  0  0  0  0  0  0  0  0
    9.6346  -16.8589   24.6866 N   0  0  0  0  0  0  0  0  0  0  0  0
   10.3448  -18.2872   26.4423 C   0  0  0  0  0  0  0  0  0  0  0  0
   11.2530  -18.9381   27.2755 O   0  0  0  0  0  0  0  0  0  0  0  0
    9.2496  -18.9184   26.2610 O   0  0  0  0  0  0  0  0  0  0  0  0
  1  2  1  0
  3  2  1  0
  4  3  1  0
  5  4  1  0
  5  6  1  1
  7  5  1  0
  8  7  2  0
  9  7  1  0
 10  9  1  0
 10 11  1  1
 11 12  1  0
 12 17  2  0
 13 12  1  0
 13 14  2  0
 14 15  1  0
 15 16  2  0
 17 16  1  0
 18 19  2  0
 18 10  1  0
 20 21  1  0
 22 21  1  0
 24 23  1  1
 23 22  1  0
 24 25  1  0
 25 18  1  0
 26 24  1  0
 27 26  1  0
 28 26  2  0
M  END
$$$$
