MFM.pdb
     RDKit          3D

 28 28  0  0  1  0  0  0  0  0999 V2000
   11.7843  -21.3448   21.8360 C   0  0  0  0  0  0  0  0  0  0  0  0
   10.6770  -21.7792   20.5192 S   0  0  0  0  0  0  0  0  0  0  0  0
   10.1102  -20.4832   19.4532 C   0  0  0  0  0  0  0  0  0  0  0  0
   10.1906  -19.1155   19.9699 C   0  0  0  0  0  0  0  0  0  0  0  0
    9.1732  -18.1023   19.6723 C   0  0  2  0  0  0  0  0  0  0  0  0
    9.0690  -17.5779   18.3732 N   0  0  0  0  0  0  0  0  0  0  0  0
    9.2736  -16.9520   20.6466 C   0  0  0  0  0  0  0  0  0  0  0  0
   10.0271  -15.9979   20.3660 O   0  0  0  0  0  0  0  0  0  0  0  0
    8.5579  -16.9194   21.8416 N   0  0  0  0  0  0  0  0  0  0  0  0
    8.7085  -15.8169   22.8462 C   0  0  1  0  0  0  0  0  0  0  0  0
    7.3410  -15.2854   22.9992 C   0  0  0  0  0  0  0  0  0  0  0  0
    7.1793  -14.3098   24.0564 C   0  0  0  0  0  0  0  0  0  0  0  0
    7.6137  -13.0202   24.0119 C   0  0  0  0  0  0  0  0  0  0  0  0
    7.4154  -12.1794   25.0822 C   0  0  0  0  0  0  0  0  0  0  0  0
    6.7838  -12.5819   26.2275 C   0  0  0  0  0  0  0  0  0  0  0  0
    6.3356  -13.8761   26.2993 C   0  0  0  0  0  0  0  0  0  0  0  0
    6.5314  -14.7231   25.2307 C   0  0  0  0  0  0  0  0  0  0  0  0
    9.4494  -16.2997   23.9751 C   0  0  0  0  0  0  0  0  0  0  0  0
    8.8877  -17.1866   24.7255 O   0  0  0  0  0  0  0  0  0  0  0  0
    9.0863  -12.9501   29.5270 C   0  0  0  0  0  0  0  0  0  0  0  0
   10.5874  -13.6878   28.9420 S   0  0  0  0  0  0  0  0  0  0  0  0
   10.4370  -15.2235   28.0564 C   0  0  0  0  0  0  0  0  0  0  0  0
   10.2291  -15.1295   26.5930 C   0  0  0  0  0  0  0  0  0  0  0  0
   11.1858  -15.9425   25.7434 C   0  0  2  0  0  0  0  0  0  0  0  0
   10.7372  -15.9052   24.3405 N   0  0  0  0  0  0  0  0  0  0  0  0
   11.1860  -17.3542   26.1641 C   0  0  0  0  0  0  0  0  0  0  0  0
   12.3346  -18.0998   26.4242 O   0  0  0  0  0  0  0  0  0  0  0  0
   10.0936  -17.9967   26.3210 O   0  0  0  0  0  0  0  0  0  0  0  0
  1  2  1  0
  3  2  1  0
  4  3  1  0
  5  4  1  0
  5  6  1  6
  7  5  1  0
  8  7  2  0
  9  7  1  0
 10  9  1  0
 10 11  1  1
 11 12  1  0
 12 17  2  0
 13 12  1  0
 13 14  2  0
 14 15  1  0
 15 16  2  0
 17 16  1  0
 18 19  2  0
 18 10  1  0
 20 21  1  0
 22 21  1  0
 24 23  1  1
 23 22  1  0
 24 25  1  0
 25 18  1  0
 26 24  1  0
 27 26  1  0
 28 26  2  0
M  END
$$$$
