MFM.pdb
     RDKit          3D

 28 28  0  0  1  0  0  0  0  0999 V2000
    7.3161  -12.6310   25.6952 C   0  0  0  0  0  0  0  0  0  0  0  0
    6.3257  -13.5907   26.8117 S   0  0  0  0  0  0  0  0  0  0  0  0
    5.9460  -15.2596   26.3555 C   0  0  0  0  0  0  0  0  0  0  0  0
    6.8640  -15.9187   25.4245 C   0  0  0  0  0  0  0  0  0  0  0  0
    6.6823  -17.3085   24.9939 C   0  0  2  0  0  0  0  0  0  0  0  0
    6.4889  -18.3171   25.9526 N   0  0  0  0  0  0  0  0  0  0  0  0
    7.8077  -17.7282   24.0774 C   0  0  0  0  0  0  0  0  0  0  0  0
    8.8324  -18.2293   24.5835 O   0  0  0  0  0  0  0  0  0  0  0  0
    7.7420  -17.5761   22.6941 N   0  0  0  0  0  0  0  0  0  0  0  0
    8.4069  -16.4436   21.9711 C   0  0  1  0  0  0  0  0  0  0  0  0
    7.3626  -15.4042   21.9007 C   0  0  0  0  0  0  0  0  0  0  0  0
    7.7301  -14.2183   21.1563 C   0  0  0  0  0  0  0  0  0  0  0  0
    8.0054  -14.1781   19.8235 C   0  0  0  0  0  0  0  0  0  0  0  0
    8.3560  -12.9938   19.2183 C   0  0  0  0  0  0  0  0  0  0  0  0
    8.4458  -11.8141   19.9059 C   0  0  0  0  0  0  0  0  0  0  0  0
    8.1733  -11.8255   21.2500 C   0  0  0  0  0  0  0  0  0  0  0  0
    7.8219  -13.0087   21.8619 C   0  0  0  0  0  0  0  0  0  0  0  0
    9.6814  -16.1780   22.5724 C   0  0  0  0  0  0  0  0  0  0  0  0
   10.4463  -15.3123   21.9973 O   0  0  0  0  0  0  0  0  0  0  0  0
   10.1296  -12.6384   27.8719 C   0  0  0  0  0  0  0  0  0  0  0  0
   11.0862  -14.1084   28.1248 S   0  0  0  0  0  0  0  0  0  0  0  0
   11.7161  -14.9182   26.6714 C   0  0  0  0  0  0  0  0  0  0  0  0
   10.7147  -15.4924   25.7435 C   0  0  0  0  0  0  0  0  0  0  0  0
   11.2783  -16.1528   24.5008 C   0  0  2  0  0  0  0  0  0  0  0  0
   10.1770  -16.7652   23.7373 N   0  0  0  0  0  0  0  0  0  0  0  0
   12.2122  -17.2332   24.8624 C   0  0  0  0  0  0  0  0  0  0  0  0
   11.8304  -18.4525   25.4195 O   0  0  0  0  0  0  0  0  0  0  0  0
   13.4696  -17.1086   24.6777 O   0  0  0  0  0  0  0  0  0  0  0  0
  1  2  1  0
  3  2  1  0
  4  3  1  0
  5  4  1  0
  5  6  1  1
  7  5  1  0
  8  7  2  0
  9  7  1  0
 10  9  1  0
 10 11  1  1
 11 12  1  0
 12 17  2  0
 13 12  1  0
 13 14  2  0
 14 15  1  0
 15 16  2  0
 17 16  1  0
 18 19  2  0
 18 10  1  0
 20 21  1  0
 22 21  1  0
 24 23  1  1
 23 22  1  0
 24 25  1  0
 25 18  1  0
 26 24  1  0
 27 26  1  0
 28 26  2  0
M  END
$$$$
