MFM.pdb
     RDKit          3D

 28 28  0  0  1  0  0  0  0  0999 V2000
   14.0054  -19.5393   18.9763 C   0  0  0  0  0  0  0  0  0  0  0  0
   12.8195  -19.8822   17.7017 S   0  0  0  0  0  0  0  0  0  0  0  0
   11.1240  -19.4796   18.0190 C   0  0  0  0  0  0  0  0  0  0  0  0
   10.8621  -18.4743   19.0508 C   0  0  0  0  0  0  0  0  0  0  0  0
    9.5059  -18.1463   19.5016 C   0  0  2  0  0  0  0  0  0  0  0  0
    8.5093  -17.8473   18.5577 N   0  0  0  0  0  0  0  0  0  0  0  0
    9.5445  -17.0360   20.5255 C   0  0  0  0  0  0  0  0  0  0  0  0
   10.1047  -15.9636   20.2202 O   0  0  0  0  0  0  0  0  0  0  0  0
    8.9794  -17.1667   21.7923 N   0  0  0  0  0  0  0  0  0  0  0  0
    8.9650  -16.0499   22.7922 C   0  0  1  0  0  0  0  0  0  0  0  0
    7.5448  -15.6590   22.8689 C   0  0  0  0  0  0  0  0  0  0  0  0
    7.2455  -14.6316   23.8439 C   0  0  0  0  0  0  0  0  0  0  0  0
    6.5919  -14.8293   25.0218 C   0  0  0  0  0  0  0  0  0  0  0  0
    6.3505  -13.7753   25.8718 C   0  0  0  0  0  0  0  0  0  0  0  0
    6.7452  -12.4959   25.5887 C   0  0  0  0  0  0  0  0  0  0  0  0
    7.4061  -12.2682   24.4087 C   0  0  0  0  0  0  0  0  0  0  0  0
    7.6506  -13.3198   23.5531 C   0  0  0  0  0  0  0  0  0  0  0  0
    9.6907  -16.4496   23.9627 C   0  0  0  0  0  0  0  0  0  0  0  0
    9.5567  -17.6689   24.3633 O   0  0  0  0  0  0  0  0  0  0  0  0
    9.1353  -13.1339   29.3133 C   0  0  0  0  0  0  0  0  0  0  0  0
    9.9526  -14.6323   29.7893 S   0  0  0  0  0  0  0  0  0  0  0  0
   10.7711  -15.5464   28.5010 C   0  0  0  0  0  0  0  0  0  0  0  0
   10.3975  -15.2110   27.1076 C   0  0  0  0  0  0  0  0  0  0  0  0
   11.0435  -16.0648   26.0343 C   0  0  2  0  0  0  0  0  0  0  0  0
   10.5443  -15.6410   24.7144 N   0  0  0  0  0  0  0  0  0  0  0  0
   10.6778  -17.4816   26.2048 C   0  0  0  0  0  0  0  0  0  0  0  0
    9.4092  -18.0041   25.9590 O   0  0  0  0  0  0  0  0  0  0  0  0
   11.5347  -18.3417   26.6006 O   0  0  0  0  0  0  0  0  0  0  0  0
  1  2  1  0
  3  2  1  0
  4  3  1  0
  5  4  1  0
  5  6  1  6
  7  5  1  0
  8  7  2  0
  9  7  1  0
 10  9  1  0
 10 11  1  1
 11 12  1  0
 12 17  2  0
 13 12  1  0
 13 14  2  0
 14 15  1  0
 15 16  2  0
 17 16  1  0
 18 19  2  0
 18 10  1  0
 20 21  1  0
 22 21  1  0
 24 23  1  1
 23 22  1  0
 24 25  1  0
 25 18  1  0
 26 24  1  0
 27 26  1  0
 28 26  2  0
M  END
$$$$
