MFM.pdb
     RDKit          3D

 28 28  0  0  1  0  0  0  0  0999 V2000
    8.9631  -12.0279   18.9663 C   0  0  0  0  0  0  0  0  0  0  0  0
    7.6615  -13.1704   18.5797 S   0  0  0  0  0  0  0  0  0  0  0  0
    8.1151  -14.7445   17.9060 C   0  0  0  0  0  0  0  0  0  0  0  0
    9.4369  -15.2636   18.2629 C   0  0  0  0  0  0  0  0  0  0  0  0
    9.6230  -16.3124   19.2705 C   0  0  2  0  0  0  0  0  0  0  0  0
    8.7238  -17.3901   19.3312 N   0  0  0  0  0  0  0  0  0  0  0  0
    9.7367  -15.7052   20.6492 C   0  0  0  0  0  0  0  0  0  0  0  0
   10.5922  -14.8171   20.8401 O   0  0  0  0  0  0  0  0  0  0  0  0
    8.9239  -16.1000   21.7098 N   0  0  0  0  0  0  0  0  0  0  0  0
    8.8822  -15.3651   23.0157 C   0  0  1  0  0  0  0  0  0  0  0  0
    7.4420  -15.1731   23.2703 C   0  0  0  0  0  0  0  0  0  0  0  0
    7.1277  -14.2223   24.3157 C   0  0  0  0  0  0  0  0  0  0  0  0
    7.4257  -12.8940   24.2887 C   0  0  0  0  0  0  0  0  0  0  0  0
    7.0886  -12.0812   25.3457 C   0  0  0  0  0  0  0  0  0  0  0  0
    6.4482  -12.5506   26.4603 C   0  0  0  0  0  0  0  0  0  0  0  0
    6.1355  -13.8849   26.5139 C   0  0  0  0  0  0  0  0  0  0  0  0
    6.4707  -14.7041   25.4584 C   0  0  0  0  0  0  0  0  0  0  0  0
    9.7226  -16.0344   23.9656 C   0  0  0  0  0  0  0  0  0  0  0  0
    9.9435  -17.2932   23.7875 O   0  0  0  0  0  0  0  0  0  0  0  0
   10.5186  -13.7694   30.1973 C   0  0  0  0  0  0  0  0  0  0  0  0
   11.4531  -15.2744   30.1581 S   0  0  0  0  0  0  0  0  0  0  0  0
   11.4713  -16.1701   28.6210 C   0  0  0  0  0  0  0  0  0  0  0  0
   10.9112  -15.4745   27.4395 C   0  0  0  0  0  0  0  0  0  0  0  0
   10.9334  -16.2635   26.1452 C   0  0  2  0  0  0  0  0  0  0  0  0
   10.3387  -15.4480   25.0719 N   0  0  0  0  0  0  0  0  0  0  0  0
   10.1203  -17.4860   26.2659 C   0  0  0  0  0  0  0  0  0  0  0  0
   10.6425  -18.7680   26.4291 O   0  0  0  0  0  0  0  0  0  0  0  0
    8.8448  -17.4372   26.2275 O   0  0  0  0  0  0  0  0  0  0  0  0
  1  2  1  0
  3  2  1  0
  4  3  1  0
  5  4  1  0
  5  6  1  1
  7  5  1  0
  8  7  2  0
  9  7  1  0
 10  9  1  0
 10 11  1  1
 11 12  1  0
 12 17  2  0
 13 12  1  0
 13 14  2  0
 14 15  1  0
 15 16  2  0
 17 16  1  0
 18 19  2  0
 18 10  1  0
 20 21  1  0
 22 21  1  0
 24 23  1  1
 23 22  1  0
 24 25  1  0
 25 18  1  0
 26 24  1  0
 27 26  1  0
 28 26  2  0
M  END
$$$$
