MFM.pdb
     RDKit          3D

 28 28  0  0  1  0  0  0  0  0999 V2000
    6.1920  -19.7838   16.8673 C   0  0  0  0  0  0  0  0  0  0  0  0
    7.3094  -19.1952   18.1137 S   0  0  0  0  0  0  0  0  0  0  0  0
    8.5058  -17.9765   17.6438 C   0  0  0  0  0  0  0  0  0  0  0  0
    9.4671  -17.5606   18.6669 C   0  0  0  0  0  0  0  0  0  0  0  0
    9.3292  -17.9425   20.0759 C   0  0  2  0  0  0  0  0  0  0  0  0
    8.2476  -18.7428   20.4799 N   0  0  0  0  0  0  0  0  0  0  0  0
    9.3770  -16.7192   20.9611 C   0  0  0  0  0  0  0  0  0  0  0  0
   10.2189  -15.8336   20.7082 O   0  0  0  0  0  0  0  0  0  0  0  0
    8.5183  -16.5460   22.0446 N   0  0  0  0  0  0  0  0  0  0  0  0
    8.6536  -15.4086   23.0118 C   0  0  1  0  0  0  0  0  0  0  0  0
    7.2649  -15.1168   23.4147 C   0  0  0  0  0  0  0  0  0  0  0  0
    7.1268  -14.1138   24.4493 C   0  0  0  0  0  0  0  0  0  0  0  0
    7.6713  -12.8663   24.4154 C   0  0  0  0  0  0  0  0  0  0  0  0
    7.4846  -11.9943   25.4625 C   0  0  0  0  0  0  0  0  0  0  0  0
    6.7564  -12.3232   26.5735 C   0  0  0  0  0  0  0  0  0  0  0  0
    6.1961  -13.5735   26.6339 C   0  0  0  0  0  0  0  0  0  0  0  0
    6.3798  -14.4515   25.5884 C   0  0  0  0  0  0  0  0  0  0  0  0
    9.6587  -15.7273   23.9837 C   0  0  0  0  0  0  0  0  0  0  0  0
   10.7047  -14.9733   24.0330 O   0  0  0  0  0  0  0  0  0  0  0  0
    9.9153  -13.1259   28.9705 C   0  0  0  0  0  0  0  0  0  0  0  0
   11.3105  -14.2109   29.0986 S   0  0  0  0  0  0  0  0  0  0  0  0
   11.2525  -15.7117   28.1451 C   0  0  0  0  0  0  0  0  0  0  0  0
   10.4304  -15.6857   26.9134 C   0  0  0  0  0  0  0  0  0  0  0  0
   10.5805  -16.8876   26.0019 C   0  0  2  0  0  0  0  0  0  0  0  0
    9.6109  -16.7807   24.8978 N   0  0  0  0  0  0  0  0  0  0  0  0
   10.2794  -18.1335   26.7281 C   0  0  0  0  0  0  0  0  0  0  0  0
    9.1726  -18.9435   26.4799 O   0  0  0  0  0  0  0  0  0  0  0  0
   11.0445  -18.5568   27.6587 O   0  0  0  0  0  0  0  0  0  0  0  0
  1  2  1  0
  3  2  1  0
  4  3  1  0
  5  4  1  0
  5  6  1  6
  7  5  1  0
  8  7  2  0
  9  7  1  0
 10  9  1  0
 10 11  1  1
 11 12  1  0
 12 17  2  0
 13 12  1  0
 13 14  2  0
 14 15  1  0
 15 16  2  0
 17 16  1  0
 18 19  2  0
 18 10  1  0
 20 21  1  0
 22 21  1  0
 24 23  1  1
 23 22  1  0
 24 25  1  0
 25 18  1  0
 26 24  1  0
 27 26  1  0
 28 26  2  0
M  END
$$$$
