MFM.pdb
     RDKit          3D

 28 28  0  0  1  0  0  0  0  0999 V2000
    8.3424  -12.0642   18.5046 C   0  0  0  0  0  0  0  0  0  0  0  0
    7.8243  -13.3860   17.4401 S   0  0  0  0  0  0  0  0  0  0  0  0
    8.3668  -15.0257   17.8327 C   0  0  0  0  0  0  0  0  0  0  0  0
    9.5036  -15.1479   18.7473 C   0  0  0  0  0  0  0  0  0  0  0  0
    9.5844  -16.2017   19.7637 C   0  0  2  0  0  0  0  0  0  0  0  0
    8.5820  -17.1836   19.8328 N   0  0  0  0  0  0  0  0  0  0  0  0
    9.7585  -15.5974   21.1374 C   0  0  0  0  0  0  0  0  0  0  0  0
   10.7423  -14.8577   21.3422 O   0  0  0  0  0  0  0  0  0  0  0  0
    8.8637  -15.8359   22.1784 N   0  0  0  0  0  0  0  0  0  0  0  0
    8.9083  -15.0825   23.4736 C   0  0  1  0  0  0  0  0  0  0  0  0
    7.4881  -14.8781   23.8157 C   0  0  0  0  0  0  0  0  0  0  0  0
    7.2448  -13.9049   24.8594 C   0  0  0  0  0  0  0  0  0  0  0  0
    7.7216  -12.6297   24.8747 C   0  0  0  0  0  0  0  0  0  0  0  0
    7.4364  -11.7902   25.9261 C   0  0  0  0  0  0  0  0  0  0  0  0
    6.6735  -12.1798   26.9933 C   0  0  0  0  0  0  0  0  0  0  0  0
    6.1798  -13.4593   27.0037 C   0  0  0  0  0  0  0  0  0  0  0  0
    6.4622  -14.3050   25.9535 C   0  0  0  0  0  0  0  0  0  0  0  0
    9.8035  -15.7434   24.3782 C   0  0  0  0  0  0  0  0  0  0  0  0
   11.0702  -15.6143   24.1686 O   0  0  0  0  0  0  0  0  0  0  0  0
   10.3423  -13.3504   28.6759 C   0  0  0  0  0  0  0  0  0  0  0  0
    9.0086  -14.4601   29.0356 S   0  0  0  0  0  0  0  0  0  0  0  0
    8.8322  -15.8768   27.9740 C   0  0  0  0  0  0  0  0  0  0  0  0
   10.0173  -16.7541   27.8337 C   0  0  0  0  0  0  0  0  0  0  0  0
   10.4375  -17.0621   26.4101 C   0  0  2  0  0  0  0  0  0  0  0  0
    9.4336  -16.5147   25.4809 N   0  0  0  0  0  0  0  0  0  0  0  0
   10.4922  -18.5170   26.1858 C   0  0  0  0  0  0  0  0  0  0  0  0
    9.5992  -19.2259   25.3841 O   0  0  0  0  0  0  0  0  0  0  0  0
   11.3950  -19.2360   26.7326 O   0  0  0  0  0  0  0  0  0  0  0  0
  1  2  1  0
  3  2  1  0
  4  3  1  0
  5  4  1  0
  5  6  1  1
  7  5  1  0
  8  7  2  0
  9  7  1  0
 10  9  1  0
 10 11  1  1
 11 12  1  0
 12 17  2  0
 13 12  1  0
 13 14  2  0
 14 15  1  0
 15 16  2  0
 17 16  1  0
 18 19  2  0
 18 10  1  0
 20 21  1  0
 22 21  1  0
 24 23  1  1
 23 22  1  0
 24 25  1  0
 25 18  1  0
 26 24  1  0
 27 26  1  0
 28 26  2  0
M  END
$$$$
