MFM.pdb
     RDKit          3D

 28 28  0  0  1  0  0  0  0  0999 V2000
    8.5929  -12.0890   16.7204 C   0  0  0  0  0  0  0  0  0  0  0  0
    8.3057  -13.6617   15.9505 S   0  0  0  0  0  0  0  0  0  0  0  0
    8.2118  -15.0894   16.9946 C   0  0  0  0  0  0  0  0  0  0  0  0
    8.6580  -14.9294   18.3800 C   0  0  0  0  0  0  0  0  0  0  0  0
    8.9894  -16.0732   19.2356 C   0  0  2  0  0  0  0  0  0  0  0  0
    8.1487  -17.1986   19.2535 N   0  0  0  0  0  0  0  0  0  0  0  0
    9.2131  -15.6196   20.6592 C   0  0  0  0  0  0  0  0  0  0  0  0
   10.1568  -14.8378   20.8938 O   0  0  0  0  0  0  0  0  0  0  0  0
    8.4067  -16.0416   21.7141 N   0  0  0  0  0  0  0  0  0  0  0  0
    8.6220  -15.5930   23.1282 C   0  0  1  0  0  0  0  0  0  0  0  0
    7.2569  -15.3933   23.6502 C   0  0  0  0  0  0  0  0  0  0  0  0
    7.1064  -14.2737   24.5554 C   0  0  0  0  0  0  0  0  0  0  0  0
    7.6882  -13.0523   24.4019 C   0  0  0  0  0  0  0  0  0  0  0  0
    7.4849  -12.0602   25.3325 C   0  0  0  0  0  0  0  0  0  0  0  0
    6.7031  -12.2398   26.4412 C   0  0  0  0  0  0  0  0  0  0  0  0
    6.1045  -13.4606   26.6207 C   0  0  0  0  0  0  0  0  0  0  0  0
    6.3045  -14.4584   25.6922 C   0  0  0  0  0  0  0  0  0  0  0  0
    9.5428  -16.4822   23.7747 C   0  0  0  0  0  0  0  0  0  0  0  0
   10.4499  -17.0392   23.0453 O   0  0  0  0  0  0  0  0  0  0  0  0
   10.3151  -13.0120   28.8773 C   0  0  0  0  0  0  0  0  0  0  0  0
   10.6786  -14.6578   29.4241 S   0  0  0  0  0  0  0  0  0  0  0  0
   10.4549  -15.9667   28.2400 C   0  0  0  0  0  0  0  0  0  0  0  0
   10.8792  -15.6848   26.8493 C   0  0  0  0  0  0  0  0  0  0  0  0
   10.8177  -16.8618   25.8960 C   0  0  2  0  0  0  0  0  0  0  0  0
    9.5586  -16.8007   25.1333 N   0  0  0  0  0  0  0  0  0  0  0  0
   10.8171  -18.1344   26.6382 C   0  0  0  0  0  0  0  0  0  0  0  0
    9.6924  -18.9348   26.8308 O   0  0  0  0  0  0  0  0  0  0  0  0
   11.8866  -18.5924   27.1646 O   0  0  0  0  0  0  0  0  0  0  0  0
  1  2  1  0
  3  2  1  0
  4  3  1  0
  5  4  1  0
  5  6  1  1
  7  5  1  0
  8  7  2  0
  9  7  1  0
 10  9  1  0
 10 11  1  1
 11 12  1  0
 12 17  2  0
 13 12  1  0
 13 14  2  0
 14 15  1  0
 15 16  2  0
 17 16  1  0
 18 19  2  0
 18 10  1  0
 20 21  1  0
 22 21  1  0
 24 23  1  1
 23 22  1  0
 24 25  1  0
 25 18  1  0
 26 24  1  0
 27 26  1  0
 28 26  2  0
M  END
$$$$
