MFM.pdb
     RDKit          3D

 28 28  0  0  1  0  0  0  0  0999 V2000
    2.3665  -19.5306   20.3309 C   0  0  0  0  0  0  0  0  0  0  0  0
    3.3041  -18.2601   21.1404 S   0  0  0  0  0  0  0  0  0  0  0  0
    4.2959  -17.1939   20.1320 C   0  0  0  0  0  0  0  0  0  0  0  0
    5.6689  -17.6245   19.8607 C   0  0  0  0  0  0  0  0  0  0  0  0
    6.5778  -18.0669   20.9229 C   0  0  2  0  0  0  0  0  0  0  0  0
    6.1173  -18.9509   21.9128 N   0  0  0  0  0  0  0  0  0  0  0  0
    7.2143  -16.8768   21.6020 C   0  0  0  0  0  0  0  0  0  0  0  0
    8.0598  -16.2120   20.9694 O   0  0  0  0  0  0  0  0  0  0  0  0
    6.8920  -16.4974   22.9033 N   0  0  0  0  0  0  0  0  0  0  0  0
    7.6604  -15.4538   23.6567 C   0  0  1  0  0  0  0  0  0  0  0  0
    6.8780  -15.2580   24.8918 C   0  0  0  0  0  0  0  0  0  0  0  0
    6.9096  -13.9139   25.4286 C   0  0  0  0  0  0  0  0  0  0  0  0
    6.1106  -13.4447   26.4262 C   0  0  0  0  0  0  0  0  0  0  0  0
    6.2188  -12.1416   26.8527 C   0  0  0  0  0  0  0  0  0  0  0  0
    7.1160  -11.2617   26.3111 C   0  0  0  0  0  0  0  0  0  0  0  0
    7.9338  -11.7080   25.3045 C   0  0  0  0  0  0  0  0  0  0  0  0
    7.8301  -13.0120   24.8728 C   0  0  0  0  0  0  0  0  0  0  0  0
    9.0450  -15.8239   23.7042 C   0  0  0  0  0  0  0  0  0  0  0  0
    9.8456  -15.2577   22.8653 O   0  0  0  0  0  0  0  0  0  0  0  0
   11.2341  -13.8339   29.6061 C   0  0  0  0  0  0  0  0  0  0  0  0
    9.8352  -14.5637   28.7996 S   0  0  0  0  0  0  0  0  0  0  0  0
   10.1710  -15.8291   27.5950 C   0  0  0  0  0  0  0  0  0  0  0  0
   10.7039  -15.3787   26.2885 C   0  0  0  0  0  0  0  0  0  0  0  0
   10.9035  -16.4682   25.2535 C   0  0  2  0  0  0  0  0  0  0  0  0
    9.6190  -16.7412   24.5855 N   0  0  0  0  0  0  0  0  0  0  0  0
   11.3378  -17.7221   25.8934 C   0  0  0  0  0  0  0  0  0  0  0  0
   10.5411  -18.8582   26.0242 O   0  0  0  0  0  0  0  0  0  0  0  0
   12.5120  -17.8426   26.3807 O   0  0  0  0  0  0  0  0  0  0  0  0
  1  2  1  0
  3  2  1  0
  4  3  1  0
  5  4  1  0
  5  6  1  1
  7  5  1  0
  8  7  2  0
  9  7  1  0
 10  9  1  0
 10 11  1  1
 11 12  1  0
 12 17  2  0
 13 12  1  0
 13 14  2  0
 14 15  1  0
 15 16  2  0
 17 16  1  0
 18 19  2  0
 18 10  1  0
 20 21  1  0
 22 21  1  0
 24 23  1  1
 23 22  1  0
 24 25  1  0
 25 18  1  0
 26 24  1  0
 27 26  1  0
 28 26  2  0
M  END
$$$$
