MFM.pdb
     RDKit          3D

 28 28  0  0  1  0  0  0  0  0999 V2000
    8.4403  -11.8309   19.3384 C   0  0  0  0  0  0  0  0  0  0  0  0
    7.4538  -13.0250   18.4726 S   0  0  0  0  0  0  0  0  0  0  0  0
    8.0669  -14.6833   18.3652 C   0  0  0  0  0  0  0  0  0  0  0  0
    9.3536  -14.9585   19.0075 C   0  0  0  0  0  0  0  0  0  0  0  0
    9.5598  -16.1097   19.8919 C   0  0  2  0  0  0  0  0  0  0  0  0
    8.7315  -17.2383   19.7738 N   0  0  0  0  0  0  0  0  0  0  0  0
    9.5669  -15.6699   21.3373 C   0  0  0  0  0  0  0  0  0  0  0  0
   10.4444  -14.8651   21.7106 O   0  0  0  0  0  0  0  0  0  0  0  0
    8.6327  -16.1290   22.2634 N   0  0  0  0  0  0  0  0  0  0  0  0
    8.5836  -15.6345   23.6778 C   0  0  1  0  0  0  0  0  0  0  0  0
    7.1898  -15.1828   23.8488 C   0  0  0  0  0  0  0  0  0  0  0  0
    6.9811  -14.2396   24.9269 C   0  0  0  0  0  0  0  0  0  0  0  0
    6.5753  -12.9486   24.7772 C   0  0  0  0  0  0  0  0  0  0  0  0
    6.4190  -12.1341   25.8745 C   0  0  0  0  0  0  0  0  0  0  0  0
    6.6566  -12.5654   27.1512 C   0  0  0  0  0  0  0  0  0  0  0  0
    7.0661  -13.8619   27.3312 C   0  0  0  0  0  0  0  0  0  0  0  0
    7.2248  -14.6824   26.2361 C   0  0  0  0  0  0  0  0  0  0  0  0
    9.1579  -16.6202   24.5468 C   0  0  0  0  0  0  0  0  0  0  0  0
    9.4718  -17.7616   24.0333 O   0  0  0  0  0  0  0  0  0  0  0  0
    9.7106  -14.0083   30.1786 C   0  0  0  0  0  0  0  0  0  0  0  0
   11.2676  -14.3499   29.4046 S   0  0  0  0  0  0  0  0  0  0  0  0
   11.2229  -15.2489   27.8700 C   0  0  0  0  0  0  0  0  0  0  0  0
   10.7573  -16.6533   27.9355 C   0  0  0  0  0  0  0  0  0  0  0  0
   10.4185  -17.2923   26.6032 C   0  0  2  0  0  0  0  0  0  0  0  0
    9.4211  -16.4600   25.9079 N   0  0  0  0  0  0  0  0  0  0  0  0
    9.8158  -18.6219   26.8009 C   0  0  0  0  0  0  0  0  0  0  0  0
   10.5405  -19.7915   27.0235 O   0  0  0  0  0  0  0  0  0  0  0  0
    8.5491  -18.7825   26.7798 O   0  0  0  0  0  0  0  0  0  0  0  0
  1  2  1  0
  3  2  1  0
  4  3  1  0
  5  4  1  0
  5  6  1  1
  7  5  1  0
  8  7  2  0
  9  7  1  0
 10  9  1  0
 10 11  1  1
 11 12  1  0
 12 17  2  0
 13 12  1  0
 13 14  2  0
 14 15  1  0
 15 16  2  0
 17 16  1  0
 18 19  2  0
 18 10  1  0
 20 21  1  0
 22 21  1  0
 24 23  1  1
 23 22  1  0
 24 25  1  0
 25 18  1  0
 26 24  1  0
 27 26  1  0
 28 26  2  0
M  END
$$$$
