EEV.pdb
     RDKit          3D

 26 25  0  0  1  0  0  0  0  0999 V2000
    7.0640  -15.7626   18.9737 N   0  0  0  0  0  0  0  0  0  0  0  0
    8.1264  -15.0488   19.6598 C   0  0  1  0  0  0  0  0  0  0  0  0
    7.9256  -13.5656   19.4048 C   0  0  0  0  0  0  0  0  0  0  0  0
    8.9879  -12.7321   20.0453 C   0  0  0  0  0  0  0  0  0  0  0  0
   10.3132  -12.9094   19.4235 C   0  0  0  0  0  0  0  0  0  0  0  0
   10.5484  -12.3889   18.3106 O   0  0  0  0  0  0  0  0  0  0  0  0
    8.0195  -15.3620   21.1065 C   0  0  0  0  0  0  0  0  0  0  0  0
    6.9193  -15.1565   21.6731 O   0  0  0  0  0  0  0  0  0  0  0  0
   11.2958  -13.6403   20.0511 O   0  0  0  0  0  0  0  0  0  0  0  0
    9.0719  -15.8734   21.8810 N   0  0  0  0  0  0  0  0  0  0  0  0
    8.8272  -16.3602   23.2239 C   0  0  1  0  0  0  0  0  0  0  0  0
    9.7611  -17.4240   23.6376 C   0  0  0  0  0  0  0  0  0  0  0  0
    9.4865  -17.8892   25.0364 C   0  0  0  0  0  0  0  0  0  0  0  0
   10.4667  -18.9758   25.4254 C   0  0  0  0  0  0  0  0  0  0  0  0
   10.7529  -19.8523   24.5870 O   0  0  0  0  0  0  0  0  0  0  0  0
    8.9871  -15.1849   24.1215 C   0  0  0  0  0  0  0  0  0  0  0  0
    9.9771  -14.4213   24.1535 O   0  0  0  0  0  0  0  0  0  0  0  0
   11.0343  -19.0014   26.6778 O   0  0  0  0  0  0  0  0  0  0  0  0
    6.3155  -12.4407   24.9125 C   0  0  0  0  0  0  0  0  0  0  0  0
    6.7995  -13.0430   26.1920 C   0  0  2  0  0  0  0  0  0  0  0  0
    6.8829  -11.9839   27.2687 C   0  0  0  0  0  0  0  0  0  0  0  0
    8.1146  -13.7854   26.0417 C   0  0  2  0  0  0  0  0  0  0  0  0
    7.9580  -14.8187   25.0728 N   0  0  0  0  0  0  0  0  0  0  0  0
    8.6928  -14.2172   27.3129 C   0  0  0  0  0  0  0  0  0  0  0  0
    8.7604  -15.5745   27.5945 O   0  0  0  0  0  0  0  0  0  0  0  0
    9.1487  -13.4370   28.2009 O   0  0  0  0  0  0  0  0  0  0  0  0
  2  7  1  0
  2  1  1  6
  3  2  1  0
  4  5  1  0
  4  3  1  0
  5  6  2  0
  7 10  1  0
  8  7  2  0
  9  5  1  0
 10 11  1  0
 11 12  1  1
 12 13  1  0
 13 14  1  0
 14 15  2  0
 14 18  1  0
 16 17  2  0
 16 11  1  0
 20 19  1  6
 20 22  1  0
 21 20  1  0
 22 24  1  0
 22 23  1  6
 23 16  1  0
 24 25  1  0
 26 24  2  0
M  END
$$$$
