EEV.pdb
     RDKit          3D

 26 25  0  0  1  0  0  0  0  0999 V2000
    9.3278  -15.6376   19.8336 N   0  0  0  0  0  0  0  0  0  0  0  0
    7.9969  -15.5354   20.4060 C   0  0  1  0  0  0  0  0  0  0  0  0
    7.0848  -16.4618   19.6219 C   0  0  0  0  0  0  0  0  0  0  0  0
    7.8304  -17.2618   18.6033 C   0  0  0  0  0  0  0  0  0  0  0  0
    6.9491  -18.1046   17.7741 C   0  0  0  0  0  0  0  0  0  0  0  0
    5.7224  -18.1415   18.0162 O   0  0  0  0  0  0  0  0  0  0  0  0
    8.0844  -15.9490   21.8285 C   0  0  0  0  0  0  0  0  0  0  0  0
    7.0403  -15.8955   22.5219 O   0  0  0  0  0  0  0  0  0  0  0  0
    7.4580  -18.8519   16.7367 O   0  0  0  0  0  0  0  0  0  0  0  0
    9.2618  -16.3961   22.4472 N   0  0  0  0  0  0  0  0  0  0  0  0
    9.2551  -16.7907   23.8417 C   0  0  1  0  0  0  0  0  0  0  0  0
   10.3566  -17.7060   24.1937 C   0  0  0  0  0  0  0  0  0  0  0  0
   10.3560  -18.0369   25.6563 C   0  0  0  0  0  0  0  0  0  0  0  0
   11.5150  -18.9552   25.9827 C   0  0  0  0  0  0  0  0  0  0  0  0
   12.6408  -18.4550   26.1706 O   0  0  0  0  0  0  0  0  0  0  0  0
    9.3879  -15.5328   24.6244 C   0  0  0  0  0  0  0  0  0  0  0  0
   10.3864  -14.7797   24.6302 O   0  0  0  0  0  0  0  0  0  0  0  0
   11.3362  -20.3159   26.0717 O   0  0  0  0  0  0  0  0  0  0  0  0
    6.7768  -12.6827   24.8947 C   0  0  0  0  0  0  0  0  0  0  0  0
    7.1350  -13.1344   26.2737 C   0  0  2  0  0  0  0  0  0  0  0  0
    7.1668  -11.9533   27.2181 C   0  0  0  0  0  0  0  0  0  0  0  0
    8.4321  -13.9206   26.3257 C   0  0  2  0  0  0  0  0  0  0  0  0
    8.3185  -15.0627   25.4809 N   0  0  0  0  0  0  0  0  0  0  0  0
    8.8920  -14.2040   27.6840 C   0  0  0  0  0  0  0  0  0  0  0  0
    9.5052  -13.1931   28.4110 O   0  0  0  0  0  0  0  0  0  0  0  0
    8.7749  -15.3223   28.2675 O   0  0  0  0  0  0  0  0  0  0  0  0
  2  7  1  0
  2  1  1  6
  3  2  1  0
  4  5  1  0
  4  3  1  0
  5  6  2  0
  7 10  1  0
  8  7  2  0
  9  5  1  0
 10 11  1  0
 11 12  1  6
 12 13  1  0
 13 14  1  0
 14 15  2  0
 14 18  1  0
 16 17  2  0
 16 11  1  0
 20 19  1  6
 20 22  1  0
 21 20  1  0
 22 24  1  0
 22 23  1  6
 23 16  1  0
 24 25  1  0
 26 24  2  0
M  END
$$$$
