EEV.pdb
     RDKit          3D

 26 25  0  0  1  0  0  0  0  0999 V2000
    6.4022  -15.5659   19.7890 N   0  0  0  0  0  0  0  0  0  0  0  0
    7.5893  -14.9548   20.3604 C   0  0  1  0  0  0  0  0  0  0  0  0
    7.4108  -13.4486   20.2939 C   0  0  0  0  0  0  0  0  0  0  0  0
    7.4825  -12.9312   18.8936 C   0  0  0  0  0  0  0  0  0  0  0  0
    8.6797  -13.3948   18.1682 C   0  0  0  0  0  0  0  0  0  0  0  0
    8.7322  -14.5731   17.7515 O   0  0  0  0  0  0  0  0  0  0  0  0
    7.7037  -15.4183   21.7655 C   0  0  0  0  0  0  0  0  0  0  0  0
    6.7238  -15.2350   22.5270 O   0  0  0  0  0  0  0  0  0  0  0  0
    9.7411  -12.5483   17.9430 O   0  0  0  0  0  0  0  0  0  0  0  0
    8.8395  -16.0485   22.2965 N   0  0  0  0  0  0  0  0  0  0  0  0
    8.8227  -16.5791   23.6450 C   0  0  1  0  0  0  0  0  0  0  0  0
    9.8324  -17.6302   23.8704 C   0  0  0  0  0  0  0  0  0  0  0  0
    9.8337  -18.1009   25.2941 C   0  0  0  0  0  0  0  0  0  0  0  0
   10.8748  -19.1842   25.4832 C   0  0  0  0  0  0  0  0  0  0  0  0
   11.2671  -19.4428   26.6374 O   0  0  0  0  0  0  0  0  0  0  0  0
    9.1002  -15.4259   24.5427 C   0  0  0  0  0  0  0  0  0  0  0  0
   10.0509  -14.6220   24.4242 O   0  0  0  0  0  0  0  0  0  0  0  0
   11.3821  -19.8736   24.4068 O   0  0  0  0  0  0  0  0  0  0  0  0
    6.7964  -12.6636   25.3985 C   0  0  0  0  0  0  0  0  0  0  0  0
    7.2549  -13.2120   26.7112 C   0  0  2  0  0  0  0  0  0  0  0  0
    7.4499  -12.0897   27.7063 C   0  0  0  0  0  0  0  0  0  0  0  0
    8.4994  -14.0730   26.5958 C   0  0  2  0  0  0  0  0  0  0  0  0
    8.2487  -15.1333   25.6773 N   0  0  0  0  0  0  0  0  0  0  0  0
    9.0434  -14.4930   27.8860 C   0  0  0  0  0  0  0  0  0  0  0  0
    9.6991  -13.5588   28.6757 O   0  0  0  0  0  0  0  0  0  0  0  0
    8.9645  -15.6672   28.3551 O   0  0  0  0  0  0  0  0  0  0  0  0
  2  7  1  0
  2  1  1  1
  3  2  1  0
  4  5  1  0
  4  3  1  0
  5  6  2  0
  7 10  1  0
  8  7  2  0
  9  5  1  0
 10 11  1  0
 11 12  1  6
 12 13  1  0
 13 14  1  0
 14 15  2  0
 14 18  1  0
 16 17  2  0
 16 11  1  0
 20 19  1  6
 20 22  1  0
 21 20  1  0
 22 24  1  0
 22 23  1  6
 23 16  1  0
 24 25  1  0
 26 24  2  0
M  END
$$$$
