EEV.pdb
     RDKit          3D

 26 25  0  0  1  0  0  0  0  0999 V2000
    8.3412  -14.2393   18.8202 N   0  0  0  0  0  0  0  0  0  0  0  0
    9.1425  -15.1004   19.6721 C   0  0  1  0  0  0  0  0  0  0  0  0
   10.4768  -14.4125   19.8993 C   0  0  0  0  0  0  0  0  0  0  0  0
   11.4835  -14.7704   18.8544 C   0  0  0  0  0  0  0  0  0  0  0  0
   12.7960  -14.1360   19.0769 C   0  0  0  0  0  0  0  0  0  0  0  0
   13.0577  -13.6317   20.1914 O   0  0  0  0  0  0  0  0  0  0  0  0
    8.4091  -15.2802   20.9496 C   0  0  0  0  0  0  0  0  0  0  0  0
    7.6817  -14.3390   21.3478 O   0  0  0  0  0  0  0  0  0  0  0  0
   13.7379  -14.0910   18.0747 O   0  0  0  0  0  0  0  0  0  0  0  0
    8.4782  -16.4371   21.7407 N   0  0  0  0  0  0  0  0  0  0  0  0
    7.6569  -16.5659   22.9278 C   0  0  1  0  0  0  0  0  0  0  0  0
    7.5500  -17.9538   23.4149 C   0  0  0  0  0  0  0  0  0  0  0  0
    6.7015  -18.0445   24.6479 C   0  0  0  0  0  0  0  0  0  0  0  0
    6.6997  -19.4639   25.1754 C   0  0  0  0  0  0  0  0  0  0  0  0
    7.4131  -20.3142   24.6087 O   0  0  0  0  0  0  0  0  0  0  0  0
    8.3061  -15.7249   23.9689 C   0  0  0  0  0  0  0  0  0  0  0  0
    9.5376  -15.6283   24.1645 O   0  0  0  0  0  0  0  0  0  0  0  0
    5.9285  -19.8153   26.2585 O   0  0  0  0  0  0  0  0  0  0  0  0
    6.4488  -12.3066   25.1709 C   0  0  0  0  0  0  0  0  0  0  0  0
    7.0635  -13.0495   26.3130 C   0  0  2  0  0  0  0  0  0  0  0  0
    7.6407  -12.0775   27.3179 C   0  0  0  0  0  0  0  0  0  0  0  0
    8.0963  -14.0708   25.8733 C   0  0  2  0  0  0  0  0  0  0  0  0
    7.5225  -14.9151   24.8789 N   0  0  0  0  0  0  0  0  0  0  0  0
    8.7345  -14.7751   26.9840 C   0  0  0  0  0  0  0  0  0  0  0  0
    9.9231  -14.2788   27.5010 O   0  0  0  0  0  0  0  0  0  0  0  0
    8.2822  -15.8262   27.5277 O   0  0  0  0  0  0  0  0  0  0  0  0
  2  7  1  0
  2  1  1  6
  3  2  1  0
  4  5  1  0
  4  3  1  0
  5  6  2  0
  7 10  1  0
  8  7  2  0
  9  5  1  0
 10 11  1  0
 11 12  1  1
 12 13  1  0
 13 14  1  0
 14 15  2  0
 14 18  1  0
 16 17  2  0
 16 11  1  0
 20 19  1  6
 20 22  1  0
 21 20  1  0
 22 24  1  0
 22 23  1  6
 23 16  1  0
 24 25  1  0
 26 24  2  0
M  END
$$$$
