EEV.pdb
     RDKit          3D

 26 25  0  0  1  0  0  0  0  0999 V2000
   10.0088  -17.0435   19.7187 N   0  0  0  0  0  0  0  0  0  0  0  0
    8.8686  -16.2095   20.0556 C   0  0  1  0  0  0  0  0  0  0  0  0
    7.6941  -16.6702   19.2111 C   0  0  0  0  0  0  0  0  0  0  0  0
    8.1109  -17.0742   17.8339 C   0  0  0  0  0  0  0  0  0  0  0  0
    6.9941  -17.5922   17.0221 C   0  0  0  0  0  0  0  0  0  0  0  0
    6.6566  -16.9894   15.9792 O   0  0  0  0  0  0  0  0  0  0  0  0
    8.5900  -16.3888   21.5022 C   0  0  0  0  0  0  0  0  0  0  0  0
    7.3981  -16.3108   21.8858 O   0  0  0  0  0  0  0  0  0  0  0  0
    6.3173  -18.7305   17.3961 O   0  0  0  0  0  0  0  0  0  0  0  0
    9.5760  -16.6398   22.4685 N   0  0  0  0  0  0  0  0  0  0  0  0
    9.2124  -16.8232   23.8593 C   0  0  1  0  0  0  0  0  0  0  0  0
   10.1097  -17.7456   24.5797 C   0  0  0  0  0  0  0  0  0  0  0  0
   10.1511  -19.0973   23.9317 C   0  0  0  0  0  0  0  0  0  0  0  0
   11.1288  -19.9945   24.6612 C   0  0  0  0  0  0  0  0  0  0  0  0
   12.1676  -20.3516   24.0727 O   0  0  0  0  0  0  0  0  0  0  0  0
    9.2846  -15.4748   24.4833 C   0  0  0  0  0  0  0  0  0  0  0  0
   10.1648  -14.6147   24.2607 O   0  0  0  0  0  0  0  0  0  0  0  0
   10.8819  -20.4112   25.9483 O   0  0  0  0  0  0  0  0  0  0  0  0
    6.6197  -12.8311   24.5878 C   0  0  0  0  0  0  0  0  0  0  0  0
    7.0236  -13.0804   26.0052 C   0  0  2  0  0  0  0  0  0  0  0  0
    7.0094  -11.7859   26.7874 C   0  0  0  0  0  0  0  0  0  0  0  0
    8.3605  -13.7880   26.1287 C   0  0  2  0  0  0  0  0  0  0  0  0
    8.2924  -15.0352   25.4426 N   0  0  0  0  0  0  0  0  0  0  0  0
    8.8572  -13.8677   27.5012 C   0  0  0  0  0  0  0  0  0  0  0  0
    9.3656  -12.7234   28.1000 O   0  0  0  0  0  0  0  0  0  0  0  0
    8.8625  -14.9195   28.2073 O   0  0  0  0  0  0  0  0  0  0  0  0
  2  7  1  0
  2  1  1  6
  3  2  1  0
  4  5  1  0
  4  3  1  0
  5  6  2  0
  7 10  1  0
  8  7  2  0
  9  5  1  0
 10 11  1  0
 11 12  1  1
 12 13  1  0
 13 14  1  0
 14 15  2  0
 14 18  1  0
 16 17  2  0
 16 11  1  0
 20 19  1  6
 20 22  1  0
 21 20  1  0
 22 24  1  0
 22 23  1  1
 23 16  1  0
 24 25  1  0
 26 24  2  0
M  END
$$$$
