EEV.pdb
     RDKit          3D

 26 25  0  0  1  0  0  0  0  0999 V2000
    9.9407  -16.0672   19.5948 N   0  0  0  0  0  0  0  0  0  0  0  0
    8.6866  -15.3928   19.8806 C   0  0  1  0  0  0  0  0  0  0  0  0
    7.6482  -15.9160   18.9043 C   0  0  0  0  0  0  0  0  0  0  0  0
    8.0360  -17.2348   18.3181 C   0  0  0  0  0  0  0  0  0  0  0  0
    7.0160  -17.7821   17.4044 C   0  0  0  0  0  0  0  0  0  0  0  0
    6.0561  -18.4354   17.8698 O   0  0  0  0  0  0  0  0  0  0  0  0
    8.3121  -15.7106   21.2810 C   0  0  0  0  0  0  0  0  0  0  0  0
    7.2259  -15.2585   21.7164 O   0  0  0  0  0  0  0  0  0  0  0  0
    7.1055  -17.5838   16.0456 O   0  0  0  0  0  0  0  0  0  0  0  0
    9.0967  -16.4849   22.1492 N   0  0  0  0  0  0  0  0  0  0  0  0
    8.6238  -16.8014   23.4821 C   0  0  1  0  0  0  0  0  0  0  0  0
    9.2618  -18.0001   24.0575 C   0  0  0  0  0  0  0  0  0  0  0  0
    8.7901  -18.2611   25.4568 C   0  0  0  0  0  0  0  0  0  0  0  0
    9.4723  -19.4924   26.0149 C   0  0  0  0  0  0  0  0  0  0  0  0
   10.3435  -20.0581   25.3266 O   0  0  0  0  0  0  0  0  0  0  0  0
    8.9459  -15.6176   24.3232 C   0  0  0  0  0  0  0  0  0  0  0  0
   10.0514  -15.0347   24.3689 O   0  0  0  0  0  0  0  0  0  0  0  0
    9.1422  -19.9825   27.2568 O   0  0  0  0  0  0  0  0  0  0  0  0
    6.7133  -12.4572   24.6087 C   0  0  0  0  0  0  0  0  0  0  0  0
    7.0175  -12.9605   25.9828 C   0  0  2  0  0  0  0  0  0  0  0  0
    7.1870  -11.8001   26.9381 C   0  0  0  0  0  0  0  0  0  0  0  0
    8.2144  -13.8927   26.0251 C   0  0  2  0  0  0  0  0  0  0  0  0
    7.9547  -15.0220   25.1956 N   0  0  0  0  0  0  0  0  0  0  0  0
    8.6594  -14.2144   27.3799 C   0  0  0  0  0  0  0  0  0  0  0  0
    9.3895  -13.2713   28.0897 O   0  0  0  0  0  0  0  0  0  0  0  0
    8.4287  -15.3088   27.9749 O   0  0  0  0  0  0  0  0  0  0  0  0
  2  7  1  0
  2  1  1  6
  3  2  1  0
  4  5  1  0
  4  3  1  0
  5  6  2  0
  7 10  1  0
  8  7  2  0
  9  5  1  0
 10 11  1  0
 11 12  1  1
 12 13  1  0
 13 14  1  0
 14 15  2  0
 14 18  1  0
 16 17  2  0
 16 11  1  0
 20 19  1  6
 20 22  1  0
 21 20  1  0
 22 24  1  0
 22 23  1  1
 23 16  1  0
 24 25  1  0
 26 24  2  0
M  END
$$$$
