EEV.pdb
     RDKit          3D

 26 25  0  0  1  0  0  0  0  0999 V2000
    5.2772  -19.5809   21.2361 N   0  0  0  0  0  0  0  0  0  0  0  0
    6.5000  -18.8567   21.5353 C   0  0  1  0  0  0  0  0  0  0  0  0
    6.8242  -17.9831   20.3366 C   0  0  0  0  0  0  0  0  0  0  0  0
    8.0446  -17.1492   20.5573 C   0  0  0  0  0  0  0  0  0  0  0  0
    8.3663  -16.2826   19.4083 C   0  0  0  0  0  0  0  0  0  0  0  0
    9.5327  -15.8537   19.2652 O   0  0  0  0  0  0  0  0  0  0  0  0
    6.2528  -18.0340   22.7454 C   0  0  0  0  0  0  0  0  0  0  0  0
    5.1502  -17.4432   22.8398 O   0  0  0  0  0  0  0  0  0  0  0  0
    7.4004  -15.9387   18.4906 O   0  0  0  0  0  0  0  0  0  0  0  0
    7.1751  -17.8749   23.7909 N   0  0  0  0  0  0  0  0  0  0  0  0
    6.7774  -17.2402   25.0316 C   0  0  1  0  0  0  0  0  0  0  0  0
    6.9131  -18.1212   26.2066 C   0  0  0  0  0  0  0  0  0  0  0  0
    8.2731  -18.7494   26.2739 C   0  0  0  0  0  0  0  0  0  0  0  0
    8.3359  -19.7325   27.4240 C   0  0  0  0  0  0  0  0  0  0  0  0
    8.2371  -20.9500   27.1771 O   0  0  0  0  0  0  0  0  0  0  0  0
    7.6686  -16.0602   25.1925 C   0  0  0  0  0  0  0  0  0  0  0  0
    8.8289  -15.9555   24.7377 O   0  0  0  0  0  0  0  0  0  0  0  0
    8.4987  -19.2976   28.7184 O   0  0  0  0  0  0  0  0  0  0  0  0
    6.2304  -12.5665   27.3840 C   0  0  0  0  0  0  0  0  0  0  0  0
    7.2483  -12.5170   26.2906 C   0  0  2  0  0  0  0  0  0  0  0  0
    6.5809  -12.2036   24.9699 C   0  0  0  0  0  0  0  0  0  0  0  0
    8.0894  -13.7772   26.2013 C   0  0  2  0  0  0  0  0  0  0  0  0
    7.2386  -14.8863   25.9240 N   0  0  0  0  0  0  0  0  0  0  0  0
    8.9904  -13.9624   27.3373 C   0  0  0  0  0  0  0  0  0  0  0  0
   10.0112  -13.0447   27.5427 O   0  0  0  0  0  0  0  0  0  0  0  0
    8.9158  -14.9138   28.1706 O   0  0  0  0  0  0  0  0  0  0  0  0
  2  7  1  0
  2  1  1  6
  3  2  1  0
  4  5  1  0
  4  3  1  0
  5  6  2  0
  7 10  1  0
  8  7  2  0
  9  5  1  0
 10 11  1  0
 11 12  1  1
 12 13  1  0
 13 14  1  0
 14 15  2  0
 14 18  1  0
 16 17  2  0
 16 11  1  0
 20 19  1  1
 20 22  1  0
 21 20  1  0
 22 24  1  0
 22 23  1  1
 23 16  1  0
 24 25  1  0
 26 24  2  0
M  END
$$$$
