EEV.pdb
     RDKit          3D

 26 25  0  0  1  0  0  0  0  0999 V2000
   10.4619  -16.1348   19.7204 N   0  0  0  0  0  0  0  0  0  0  0  0
   10.6280  -17.0790   20.8113 C   0  0  1  0  0  0  0  0  0  0  0  0
   12.0367  -16.9151   21.3533 C   0  0  0  0  0  0  0  0  0  0  0  0
   12.4655  -15.4840   21.3921 C   0  0  0  0  0  0  0  0  0  0  0  0
   13.8110  -15.3005   21.9671 C   0  0  0  0  0  0  0  0  0  0  0  0
   14.0201  -15.6094   23.1611 O   0  0  0  0  0  0  0  0  0  0  0  0
    9.6155  -16.7550   21.8468 C   0  0  0  0  0  0  0  0  0  0  0  0
    8.9077  -15.7331   21.6780 O   0  0  0  0  0  0  0  0  0  0  0  0
   14.8406  -14.7936   21.2078 O   0  0  0  0  0  0  0  0  0  0  0  0
    9.4000  -17.5196   23.0035 N   0  0  0  0  0  0  0  0  0  0  0  0
    8.2770  -17.2349   23.8742 C   0  0  1  0  0  0  0  0  0  0  0  0
    7.8904  -18.3794   24.7200 C   0  0  0  0  0  0  0  0  0  0  0  0
    7.3215  -19.5029   23.9058 C   0  0  0  0  0  0  0  0  0  0  0  0
    6.9727  -20.6715   24.8033 C   0  0  0  0  0  0  0  0  0  0  0  0
    7.6781  -21.6975   24.7518 O   0  0  0  0  0  0  0  0  0  0  0  0
    8.7056  -16.1031   24.7391 C   0  0  0  0  0  0  0  0  0  0  0  0
    9.8824  -15.8499   25.0785 O   0  0  0  0  0  0  0  0  0  0  0  0
    5.8998  -20.6091   25.6613 O   0  0  0  0  0  0  0  0  0  0  0  0
    6.3483  -12.7038   24.9812 C   0  0  0  0  0  0  0  0  0  0  0  0
    6.9078  -13.1573   26.2910 C   0  0  2  0  0  0  0  0  0  0  0  0
    7.2423  -11.9633   27.1572 C   0  0  0  0  0  0  0  0  0  0  0  0
    8.0997  -14.0848   26.1413 C   0  0  2  0  0  0  0  0  0  0  0  0
    7.7452  -15.1634   25.2800 N   0  0  0  0  0  0  0  0  0  0  0  0
    8.6946  -14.4853   27.4151 C   0  0  0  0  0  0  0  0  0  0  0  0
    9.6045  -13.6359   28.0290 O   0  0  0  0  0  0  0  0  0  0  0  0
    8.4429  -15.5693   28.0205 O   0  0  0  0  0  0  0  0  0  0  0  0
  2  7  1  0
  2  1  1  6
  3  2  1  0
  4  5  1  0
  4  3  1  0
  5  6  2  0
  7 10  1  0
  8  7  2  0
  9  5  1  0
 10 11  1  0
 11 12  1  1
 12 13  1  0
 13 14  1  0
 14 15  2  0
 14 18  1  0
 16 17  2  0
 16 11  1  0
 20 19  1  6
 20 22  1  0
 21 20  1  0
 22 24  1  0
 22 23  1  1
 23 16  1  0
 24 25  1  0
 26 24  2  0
M  END
$$$$
