EEV.pdb
     RDKit          3D

 26 25  0  0  1  0  0  0  0  0999 V2000
    8.3418  -13.0524   18.7497 N   0  0  0  0  0  0  0  0  0  0  0  0
    8.6067  -14.4023   19.2152 C   0  0  1  0  0  0  0  0  0  0  0  0
   10.1125  -14.5690   19.3148 C   0  0  0  0  0  0  0  0  0  0  0  0
   10.7605  -13.4373   20.0446 C   0  0  0  0  0  0  0  0  0  0  0  0
   12.2002  -13.6522   20.2805 C   0  0  0  0  0  0  0  0  0  0  0  0
   12.6359  -13.6880   21.4526 O   0  0  0  0  0  0  0  0  0  0  0  0
    7.9626  -14.5563   20.5433 C   0  0  0  0  0  0  0  0  0  0  0  0
    7.3645  -13.5647   21.0255 O   0  0  0  0  0  0  0  0  0  0  0  0
   13.0720  -13.8140   19.2282 O   0  0  0  0  0  0  0  0  0  0  0  0
    7.9807  -15.7416   21.2941 N   0  0  0  0  0  0  0  0  0  0  0  0
    7.1726  -15.8661   22.4906 C   0  0  1  0  0  0  0  0  0  0  0  0
    6.8303  -17.2622   22.8202 C   0  0  0  0  0  0  0  0  0  0  0  0
    6.0944  -17.9319   21.6983 C   0  0  0  0  0  0  0  0  0  0  0  0
    5.8523  -19.3892   22.0312 C   0  0  0  0  0  0  0  0  0  0  0  0
    6.7537  -20.2158   21.7921 O   0  0  0  0  0  0  0  0  0  0  0  0
    7.9809  -15.2814   23.5939 C   0  0  0  0  0  0  0  0  0  0  0  0
    9.2300  -15.2689   23.6551 O   0  0  0  0  0  0  0  0  0  0  0  0
    4.6633  -19.7999   22.5870 O   0  0  0  0  0  0  0  0  0  0  0  0
    7.0035  -11.8903   25.3557 C   0  0  0  0  0  0  0  0  0  0  0  0
    7.3231  -12.9184   26.3925 C   0  0  2  0  0  0  0  0  0  0  0  0
    8.0664  -12.2828   27.5463 C   0  0  0  0  0  0  0  0  0  0  0  0
    8.0786  -14.1114   25.8364 C   0  0  2  0  0  0  0  0  0  0  0  0
    7.3513  -14.6517   24.7364 N   0  0  0  0  0  0  0  0  0  0  0  0
    8.4673  -15.0857   26.8544 C   0  0  0  0  0  0  0  0  0  0  0  0
    9.6392  -14.8804   27.5692 O   0  0  0  0  0  0  0  0  0  0  0  0
    7.8079  -16.1273   27.1462 O   0  0  0  0  0  0  0  0  0  0  0  0
  2  7  1  0
  2  1  1  1
  3  2  1  0
  4  5  1  0
  4  3  1  0
  5  6  2  0
  7 10  1  0
  8  7  2  0
  9  5  1  0
 10 11  1  0
 11 12  1  1
 12 13  1  0
 13 14  1  0
 14 15  2  0
 14 18  1  0
 16 17  2  0
 16 11  1  0
 20 19  1  6
 20 22  1  0
 21 20  1  0
 22 24  1  0
 22 23  1  6
 23 16  1  0
 24 25  1  0
 26 24  2  0
M  END
$$$$
