EEV.pdb
     RDKit          3D

 26 25  0  0  1  0  0  0  0  0999 V2000
    4.8679  -17.7117   20.7385 N   0  0  0  0  0  0  0  0  0  0  0  0
    6.1637  -18.0998   21.2671 C   0  0  1  0  0  0  0  0  0  0  0  0
    7.2284  -17.4261   20.4200 C   0  0  0  0  0  0  0  0  0  0  0  0
    7.0947  -15.9376   20.4209 C   0  0  0  0  0  0  0  0  0  0  0  0
    8.1658  -15.2620   19.6652 C   0  0  0  0  0  0  0  0  0  0  0  0
    7.8848  -14.6406   18.6165 O   0  0  0  0  0  0  0  0  0  0  0  0
    6.2321  -17.6406   22.6766 C   0  0  0  0  0  0  0  0  0  0  0  0
    5.4572  -16.7210   23.0339 O   0  0  0  0  0  0  0  0  0  0  0  0
    9.4713  -15.3057   20.0981 O   0  0  0  0  0  0  0  0  0  0  0  0
    7.1093  -18.1702   23.6353 N   0  0  0  0  0  0  0  0  0  0  0  0
    7.0035  -17.7758   25.0258 C   0  0  1  0  0  0  0  0  0  0  0  0
    7.6334  -18.7342   25.9531 C   0  0  0  0  0  0  0  0  0  0  0  0
    7.4496  -18.3235   27.3835 C   0  0  0  0  0  0  0  0  0  0  0  0
    8.0835  -19.3453   28.3039 C   0  0  0  0  0  0  0  0  0  0  0  0
    7.4976  -20.4295   28.4889 O   0  0  0  0  0  0  0  0  0  0  0  0
    7.6898  -16.4604   25.1323 C   0  0  0  0  0  0  0  0  0  0  0  0
    8.7522  -16.1435   24.5535 O   0  0  0  0  0  0  0  0  0  0  0  0
    9.2824  -19.0889   28.9270 O   0  0  0  0  0  0  0  0  0  0  0  0
    5.6887  -12.9266   25.8578 C   0  0  0  0  0  0  0  0  0  0  0  0
    6.8607  -13.1554   26.7567 C   0  0  2  0  0  0  0  0  0  0  0  0
    7.5438  -11.8423   27.0683 C   0  0  0  0  0  0  0  0  0  0  0  0
    7.8426  -14.1747   26.2088 C   0  0  2  0  0  0  0  0  0  0  0  0
    7.1532  -15.3958   25.9549 N   0  0  0  0  0  0  0  0  0  0  0  0
    9.0568  -14.3097   27.0115 C   0  0  0  0  0  0  0  0  0  0  0  0
   10.0049  -13.2969   26.9725 O   0  0  0  0  0  0  0  0  0  0  0  0
    9.3226  -15.2979   27.7583 O   0  0  0  0  0  0  0  0  0  0  0  0
  2  7  1  0
  2  1  1  6
  3  2  1  0
  4  5  1  0
  4  3  1  0
  5  6  2  0
  7 10  1  0
  8  7  2  0
  9  5  1  0
 10 11  1  0
 11 12  1  1
 12 13  1  0
 13 14  1  0
 14 15  2  0
 14 18  1  0
 16 17  2  0
 16 11  1  0
 20 19  1  6
 20 22  1  0
 21 20  1  0
 22 24  1  0
 22 23  1  1
 23 16  1  0
 24 25  1  0
 26 24  2  0
M  END
$$$$
