EEV.pdb
     RDKit          3D

 26 25  0  0  1  0  0  0  0  0999 V2000
    6.5635  -16.8539   19.6603 N   0  0  0  0  0  0  0  0  0  0  0  0
    7.6708  -16.3825   20.4733 C   0  0  1  0  0  0  0  0  0  0  0  0
    8.0974  -15.0295   19.9324 C   0  0  0  0  0  0  0  0  0  0  0  0
    7.6749  -14.8283   18.5131 C   0  0  0  0  0  0  0  0  0  0  0  0
    8.6145  -15.4194   17.5424 C   0  0  0  0  0  0  0  0  0  0  0  0
    8.3924  -15.3019   16.3170 O   0  0  0  0  0  0  0  0  0  0  0  0
    7.1882  -16.2712   21.8723 C   0  0  0  0  0  0  0  0  0  0  0  0
    6.1696  -15.5719   22.0892 O   0  0  0  0  0  0  0  0  0  0  0  0
    9.7334  -16.0992   17.9662 O   0  0  0  0  0  0  0  0  0  0  0  0
    7.7999  -16.8989   22.9681 N   0  0  0  0  0  0  0  0  0  0  0  0
    7.2144  -16.8040   24.2904 C   0  0  1  0  0  0  0  0  0  0  0  0
    7.4099  -18.0190   25.1031 C   0  0  0  0  0  0  0  0  0  0  0  0
    6.6281  -19.1789   24.5625 C   0  0  0  0  0  0  0  0  0  0  0  0
    6.9026  -20.4203   25.3850 C   0  0  0  0  0  0  0  0  0  0  0  0
    6.3937  -21.5001   25.0275 O   0  0  0  0  0  0  0  0  0  0  0  0
    7.8835  -15.6526   24.9533 C   0  0  0  0  0  0  0  0  0  0  0  0
    9.0906  -15.3463   24.8388 O   0  0  0  0  0  0  0  0  0  0  0  0
    7.6972  -20.3648   26.5061 O   0  0  0  0  0  0  0  0  0  0  0  0
    5.9818  -12.1478   25.7067 C   0  0  0  0  0  0  0  0  0  0  0  0
    6.7137  -12.6610   26.9046 C   0  0  2  0  0  0  0  0  0  0  0  0
    7.3102  -11.5105   27.6845 C   0  0  0  0  0  0  0  0  0  0  0  0
    7.7640  -13.7014   26.5612 C   0  0  2  0  0  0  0  0  0  0  0  0
    7.1514  -14.7560   25.8240 N   0  0  0  0  0  0  0  0  0  0  0  0
    8.5576  -14.1347   27.7098 C   0  0  0  0  0  0  0  0  0  0  0  0
    9.6155  -13.3424   28.1337 O   0  0  0  0  0  0  0  0  0  0  0  0
    8.3557  -15.1988   28.3670 O   0  0  0  0  0  0  0  0  0  0  0  0
  2  7  1  0
  2  1  1  6
  3  2  1  0
  4  5  1  0
  4  3  1  0
  5  6  2  0
  7 10  1  0
  8  7  2  0
  9  5  1  0
 10 11  1  0
 11 12  1  1
 12 13  1  0
 13 14  1  0
 14 15  2  0
 14 18  1  0
 16 17  2  0
 16 11  1  0
 20 19  1  6
 20 22  1  0
 21 20  1  0
 22 24  1  0
 22 23  1  1
 23 16  1  0
 24 25  1  0
 26 24  2  0
M  END
$$$$
