EEV.pdb
     RDKit          3D

 26 25  0  0  1  0  0  0  0  0999 V2000
    7.6603  -14.4178   18.8530 N   0  0  0  0  0  0  0  0  0  0  0  0
    8.6845  -14.8861   19.7700 C   0  0  1  0  0  0  0  0  0  0  0  0
    9.7728  -13.8289   19.8256 C   0  0  0  0  0  0  0  0  0  0  0  0
   11.0184  -14.2609   19.1219 C   0  0  0  0  0  0  0  0  0  0  0  0
   12.2256  -14.1408   19.9604 C   0  0  0  0  0  0  0  0  0  0  0  0
   12.8335  -15.1732   20.3199 O   0  0  0  0  0  0  0  0  0  0  0  0
    8.0503  -15.0710   21.0989 C   0  0  0  0  0  0  0  0  0  0  0  0
    7.0810  -14.3321   21.3960 O   0  0  0  0  0  0  0  0  0  0  0  0
   12.6929  -12.9076   20.3532 O   0  0  0  0  0  0  0  0  0  0  0  0
    8.4666  -16.0205   22.0445 N   0  0  0  0  0  0  0  0  0  0  0  0
    7.7217  -16.2097   23.2731 C   0  0  1  0  0  0  0  0  0  0  0  0
    7.6885  -17.6134   23.7244 C   0  0  0  0  0  0  0  0  0  0  0  0
    7.0056  -17.7525   25.0521 C   0  0  0  0  0  0  0  0  0  0  0  0
    6.9241  -19.2127   25.4450 C   0  0  0  0  0  0  0  0  0  0  0  0
    7.9271  -19.7542   25.9485 O   0  0  0  0  0  0  0  0  0  0  0  0
    8.4044  -15.3764   24.2989 C   0  0  0  0  0  0  0  0  0  0  0  0
    9.6369  -15.3426   24.5085 O   0  0  0  0  0  0  0  0  0  0  0  0
    5.7688  -19.9336   25.2529 O   0  0  0  0  0  0  0  0  0  0  0  0
    6.0506  -12.7501   26.9261 C   0  0  0  0  0  0  0  0  0  0  0  0
    7.4459  -12.4854   26.4599 C   0  0  2  0  0  0  0  0  0  0  0  0
    7.4268  -11.6158   25.2224 C   0  0  0  0  0  0  0  0  0  0  0  0
    8.2500  -13.7527   26.2345 C   0  0  2  0  0  0  0  0  0  0  0  0
    7.6563  -14.4986   25.1753 N   0  0  0  0  0  0  0  0  0  0  0  0
    8.5001  -14.5137   27.4573 C   0  0  0  0  0  0  0  0  0  0  0  0
    9.3332  -13.9735   28.4271 O   0  0  0  0  0  0  0  0  0  0  0  0
    8.0081  -15.6529   27.7122 O   0  0  0  0  0  0  0  0  0  0  0  0
  2  7  1  0
  2  1  1  6
  3  2  1  0
  4  5  1  0
  4  3  1  0
  5  6  2  0
  7 10  1  0
  8  7  2  0
  9  5  1  0
 10 11  1  0
 11 12  1  1
 12 13  1  0
 13 14  1  0
 14 15  2  0
 14 18  1  0
 16 17  2  0
 16 11  1  0
 20 19  1  6
 20 22  1  0
 21 20  1  0
 22 24  1  0
 22 23  1  6
 23 16  1  0
 24 25  1  0
 26 24  2  0
M  END
$$$$
