EEV.pdb
     RDKit          3D

 26 25  0  0  1  0  0  0  0  0999 V2000
    6.8729  -18.2770   20.3306 N   0  0  0  0  0  0  0  0  0  0  0  0
    8.0012  -17.8368   21.1321 C   0  0  1  0  0  0  0  0  0  0  0  0
    8.6916  -16.7134   20.3796 C   0  0  0  0  0  0  0  0  0  0  0  0
    9.8167  -16.1161   21.1611 C   0  0  0  0  0  0  0  0  0  0  0  0
   11.1277  -16.7008   20.8233 C   0  0  0  0  0  0  0  0  0  0  0  0
   11.6616  -17.5157   21.6080 O   0  0  0  0  0  0  0  0  0  0  0  0
    7.4717  -17.3618   22.4345 C   0  0  0  0  0  0  0  0  0  0  0  0
    6.5200  -16.5447   22.4197 O   0  0  0  0  0  0  0  0  0  0  0  0
   11.7726  -16.3620   19.6559 O   0  0  0  0  0  0  0  0  0  0  0  0
    7.9689  -17.7688   23.6819 N   0  0  0  0  0  0  0  0  0  0  0  0
    7.3349  -17.3235   24.9067 C   0  0  1  0  0  0  0  0  0  0  0  0
    7.5180  -18.2596   26.0315 C   0  0  0  0  0  0  0  0  0  0  0  0
    7.1356  -19.6598   25.6551 C   0  0  0  0  0  0  0  0  0  0  0  0
    7.4458  -20.6082   26.7940 C   0  0  0  0  0  0  0  0  0  0  0  0
    6.5199  -20.9577   27.5513 O   0  0  0  0  0  0  0  0  0  0  0  0
    7.9633  -16.0178   25.2424 C   0  0  0  0  0  0  0  0  0  0  0  0
    9.1766  -15.7399   25.1207 O   0  0  0  0  0  0  0  0  0  0  0  0
    8.7223  -21.0789   26.9950 O   0  0  0  0  0  0  0  0  0  0  0  0
    5.8626  -12.4204   25.2751 C   0  0  0  0  0  0  0  0  0  0  0  0
    6.6548  -12.7002   26.5113 C   0  0  2  0  0  0  0  0  0  0  0  0
    7.2067  -11.4120   27.0804 C   0  0  0  0  0  0  0  0  0  0  0  0
    7.7521  -13.7264   26.2969 C   0  0  2  0  0  0  0  0  0  0  0  0
    7.1789  -14.9161   25.7612 N   0  0  0  0  0  0  0  0  0  0  0  0
    8.6036  -13.9276   27.4679 C   0  0  0  0  0  0  0  0  0  0  0  0
    9.6061  -13.0062   27.7369 O   0  0  0  0  0  0  0  0  0  0  0  0
    8.5006  -14.8963   28.2778 O   0  0  0  0  0  0  0  0  0  0  0  0
  2  7  1  0
  2  1  1  6
  3  2  1  0
  4  5  1  0
  4  3  1  0
  5  6  2  0
  7 10  1  0
  8  7  2  0
  9  5  1  0
 10 11  1  0
 11 12  1  1
 12 13  1  0
 13 14  1  0
 14 15  2  0
 14 18  1  0
 16 17  2  0
 16 11  1  0
 20 19  1  6
 20 22  1  0
 21 20  1  0
 22 24  1  0
 22 23  1  1
 23 16  1  0
 24 25  1  0
 26 24  2  0
M  END
$$$$
