EEV.pdb
     RDKit          3D

 26 25  0  0  1  0  0  0  0  0999 V2000
    8.4895  -13.1633   19.0032 N   0  0  0  0  0  0  0  0  0  0  0  0
    8.5980  -14.5735   19.3330 C   0  0  1  0  0  0  0  0  0  0  0  0
   10.0622  -14.9609   19.2277 C   0  0  0  0  0  0  0  0  0  0  0  0
   10.9639  -13.9386   19.8402 C   0  0  0  0  0  0  0  0  0  0  0  0
   12.3860  -14.3265   19.8011 C   0  0  0  0  0  0  0  0  0  0  0  0
   13.2189  -13.5676   19.2577 O   0  0  0  0  0  0  0  0  0  0  0  0
    8.0954  -14.7532   20.7177 C   0  0  0  0  0  0  0  0  0  0  0  0
    7.5010  -13.7893   21.2574 O   0  0  0  0  0  0  0  0  0  0  0  0
   12.8101  -15.5129   20.3545 O   0  0  0  0  0  0  0  0  0  0  0  0
    8.2435  -15.9336   21.4618 N   0  0  0  0  0  0  0  0  0  0  0  0
    7.4629  -16.1474   22.6640 C   0  0  1  0  0  0  0  0  0  0  0  0
    7.3900  -17.5641   23.0674 C   0  0  0  0  0  0  0  0  0  0  0  0
    6.5640  -17.7458   24.3056 C   0  0  0  0  0  0  0  0  0  0  0  0
    6.4277  -19.2189   24.6289 C   0  0  0  0  0  0  0  0  0  0  0  0
    7.0225  -20.0468   23.9122 O   0  0  0  0  0  0  0  0  0  0  0  0
    8.1346  -15.3623   23.7341 C   0  0  0  0  0  0  0  0  0  0  0  0
    9.3699  -15.2187   23.8667 O   0  0  0  0  0  0  0  0  0  0  0  0
    5.6641  -19.6423   25.6914 O   0  0  0  0  0  0  0  0  0  0  0  0
    6.1923  -12.2208   25.5940 C   0  0  0  0  0  0  0  0  0  0  0  0
    6.9105  -13.1344   26.5341 C   0  0  2  0  0  0  0  0  0  0  0  0
    7.4964  -12.3450   27.6837 C   0  0  0  0  0  0  0  0  0  0  0  0
    7.9659  -13.9840   25.8504 C   0  0  2  0  0  0  0  0  0  0  0  0
    7.3711  -14.6715   24.7529 N   0  0  0  0  0  0  0  0  0  0  0  0
    8.7222  -14.8321   26.7700 C   0  0  0  0  0  0  0  0  0  0  0  0
    9.8321  -14.3033   27.4140 O   0  0  0  0  0  0  0  0  0  0  0  0
    8.4424  -16.0389   27.0350 O   0  0  0  0  0  0  0  0  0  0  0  0
  2  7  1  0
  2  1  1  1
  3  2  1  0
  4  5  1  0
  4  3  1  0
  5  6  2  0
  7 10  1  0
  8  7  2  0
  9  5  1  0
 10 11  1  0
 11 12  1  1
 12 13  1  0
 13 14  1  0
 14 15  2  0
 14 18  1  0
 16 17  2  0
 16 11  1  0
 20 19  1  6
 20 22  1  0
 21 20  1  0
 22 24  1  0
 22 23  1  6
 23 16  1  0
 24 25  1  0
 26 24  2  0
M  END
$$$$
