EEV.pdb
     RDKit          3D

 26 25  0  0  1  0  0  0  0  0999 V2000
    8.9364  -18.1314   19.4806 N   0  0  0  0  0  0  0  0  0  0  0  0
    9.2185  -16.8091   20.0109 C   0  0  1  0  0  0  0  0  0  0  0  0
    8.4029  -15.8079   19.2125 C   0  0  0  0  0  0  0  0  0  0  0  0
    8.6113  -14.4047   19.6825 C   0  0  0  0  0  0  0  0  0  0  0  0
    7.8109  -13.4200   18.9312 C   0  0  0  0  0  0  0  0  0  0  0  0
    7.8074  -13.4516   17.6806 O   0  0  0  0  0  0  0  0  0  0  0  0
    8.8222  -16.8024   21.4410 C   0  0  0  0  0  0  0  0  0  0  0  0
    7.6319  -17.0807   21.7229 O   0  0  0  0  0  0  0  0  0  0  0  0
    7.0673  -12.4660   19.5872 O   0  0  0  0  0  0  0  0  0  0  0  0
    9.6952  -16.5040   22.4983 N   0  0  0  0  0  0  0  0  0  0  0  0
    9.2662  -16.6644   23.8733 C   0  0  1  0  0  0  0  0  0  0  0  0
   10.1060  -17.6034   24.6401 C   0  0  0  0  0  0  0  0  0  0  0  0
   10.3285  -18.8846   23.8933 C   0  0  0  0  0  0  0  0  0  0  0  0
   11.2865  -19.7734   24.6583 C   0  0  0  0  0  0  0  0  0  0  0  0
   10.9279  -20.2317   25.7602 O   0  0  0  0  0  0  0  0  0  0  0  0
    9.3473  -15.3125   24.4884 C   0  0  0  0  0  0  0  0  0  0  0  0
   10.2936  -14.5059   24.3538 O   0  0  0  0  0  0  0  0  0  0  0  0
   12.5299  -20.0734   24.1531 O   0  0  0  0  0  0  0  0  0  0  0  0
    5.9396  -13.3481   26.3888 C   0  0  0  0  0  0  0  0  0  0  0  0
    7.2349  -12.7410   25.9557 C   0  0  2  0  0  0  0  0  0  0  0  0
    7.1413  -12.2819   24.5175 C   0  0  0  0  0  0  0  0  0  0  0  0
    8.4245  -13.6592   26.1682 C   0  0  2  0  0  0  0  0  0  0  0  0
    8.2846  -14.8039   25.3310 N   0  0  0  0  0  0  0  0  0  0  0  0
    8.6931  -13.9550   27.5743 C   0  0  0  0  0  0  0  0  0  0  0  0
    8.6301  -15.2717   28.0085 O   0  0  0  0  0  0  0  0  0  0  0  0
    8.9859  -13.0889   28.4513 O   0  0  0  0  0  0  0  0  0  0  0  0
  2  7  1  0
  2  1  1  6
  3  2  1  0
  4  5  1  0
  4  3  1  0
  5  6  2  0
  7 10  1  0
  8  7  2  0
  9  5  1  0
 10 11  1  0
 11 12  1  1
 12 13  1  0
 13 14  1  0
 14 15  2  0
 14 18  1  0
 16 17  2  0
 16 11  1  0
 20 19  1  6
 20 22  1  0
 21 20  1  0
 22 24  1  0
 22 23  1  6
 23 16  1  0
 24 25  1  0
 26 24  2  0
M  END
$$$$
