NYI.pdb
     RDKit          3D

 29 29  0  0  1  0  0  0  0  0999 V2000
   14.3294  -17.9548   18.6622 N   0  0  0  0  0  0  0  0  0  0  0  0
   12.9521  -17.7165   18.4180 C   0  0  0  0  0  0  0  0  0  0  0  0
   12.4218  -18.3503   17.4724 O   0  0  0  0  0  0  0  0  0  0  0  0
   12.1598  -16.7561   19.2446 C   0  0  0  0  0  0  0  0  0  0  0  0
   11.3820  -17.5324   20.3143 C   0  0  2  0  0  0  0  0  0  0  0  0
   10.3697  -18.3214   19.6889 N   0  0  0  0  0  0  0  0  0  0  0  0
   10.8627  -16.5777   21.3268 C   0  0  0  0  0  0  0  0  0  0  0  0
   11.5997  -15.6496   21.7066 O   0  0  0  0  0  0  0  0  0  0  0  0
    5.8369  -11.6822   26.6638 O   0  0  0  0  0  0  0  0  0  0  0  0
    6.2737  -12.6314   25.7321 C   0  0  0  0  0  0  0  0  0  0  0  0
    6.1477  -13.9802   25.9877 C   0  0  0  0  0  0  0  0  0  0  0  0
    6.5792  -14.9279   25.0674 C   0  0  0  0  0  0  0  0  0  0  0  0
    7.1493  -14.5646   23.8647 C   0  0  0  0  0  0  0  0  0  0  0  0
    7.6047  -15.5606   22.8933 C   0  0  0  0  0  0  0  0  0  0  0  0
    9.1214  -15.7528   22.8993 C   0  0  2  0  0  0  0  0  0  0  0  0
    9.5504  -16.6698   21.8923 N   0  0  0  0  0  0  0  0  0  0  0  0
    9.6036  -16.0997   24.2591 C   0  0  0  0  0  0  0  0  0  0  0  0
    9.7567  -17.3250   24.5137 O   0  0  0  0  0  0  0  0  0  0  0  0
    7.2720  -13.2108   23.6159 C   0  0  0  0  0  0  0  0  0  0  0  0
    6.8422  -12.2595   24.5327 C   0  0  0  0  0  0  0  0  0  0  0  0
   10.5758  -13.7734   29.9568 C   0  0  0  0  0  0  0  0  0  0  0  0
   10.8167  -14.8721   28.9400 C   0  0  0  0  0  0  0  0  0  0  0  0
   10.2871  -14.4853   27.5780 C   0  0  2  0  0  0  0  0  0  0  0  0
    8.8879  -13.9940   27.7338 C   0  0  0  0  0  0  0  0  0  0  0  0
   10.4577  -15.5817   26.5514 C   0  0  2  0  0  0  0  0  0  0  0  0
    9.8959  -15.1739   25.2637 N   0  0  0  0  0  0  0  0  0  0  0  0
    9.7991  -16.8492   26.9516 C   0  0  0  0  0  0  0  0  0  0  0  0
   10.4170  -17.7583   27.6027 O   0  0  0  0  0  0  0  0  0  0  0  0
    8.4761  -17.1379   26.6518 O   0  0  0  0  0  0  0  0  0  0  0  0
  2  1  1  0
  3  2  2  0
  4  5  1  0
  4  2  1  0
  5  6  1  6
  7  5  1  0
  7  8  2  0
  9 10  1  0
 10 11  2  0
 11 12  1  0
 13 12  2  0
 13 14  1  0
 15 14  1  1
 15 16  1  0
 16  7  1  0
 17 18  2  0
 17 15  1  0
 19 13  1  0
 20 10  1  0
 20 19  2  0
 22 21  1  0
 23 22  1  0
 23 24  1  1
 25 26  1  6
 25 23  1  0
 26 17  1  0
 27 25  1  0
 28 27  2  0
 29 27  1  0
M  END
$$$$
