NYI.pdb
     RDKit          3D

 29 29  0  0  1  0  0  0  0  0999 V2000
   11.9462  -18.3614   16.7284 N   0  0  0  0  0  0  0  0  0  0  0  0
   12.5199  -17.6425   17.8090 C   0  0  0  0  0  0  0  0  0  0  0  0
   13.7671  -17.7083   17.9405 O   0  0  0  0  0  0  0  0  0  0  0  0
   11.6848  -16.8398   18.7532 C   0  0  0  0  0  0  0  0  0  0  0  0
   11.8817  -17.3709   20.1783 C   0  0  2  0  0  0  0  0  0  0  0  0
   11.3372  -18.6871   20.2758 N   0  0  0  0  0  0  0  0  0  0  0  0
   11.2979  -16.4039   21.1428 C   0  0  0  0  0  0  0  0  0  0  0  0
   11.7973  -15.2670   21.2257 O   0  0  0  0  0  0  0  0  0  0  0  0
    6.8561  -13.2544   17.7143 O   0  0  0  0  0  0  0  0  0  0  0  0
    7.1833  -13.8142   18.9550 C   0  0  0  0  0  0  0  0  0  0  0  0
    7.7410  -13.0423   19.9518 C   0  0  0  0  0  0  0  0  0  0  0  0
    8.0682  -13.5915   21.1858 C   0  0  0  0  0  0  0  0  0  0  0  0
    7.8516  -14.9246   21.4673 C   0  0  0  0  0  0  0  0  0  0  0  0
    8.1952  -15.5059   22.7662 C   0  0  0  0  0  0  0  0  0  0  0  0
    9.6938  -15.7598   22.9308 C   0  0  2  0  0  0  0  0  0  0  0  0
   10.1838  -16.7131   21.9874 N   0  0  0  0  0  0  0  0  0  0  0  0
   10.0195  -16.0993   24.3381 C   0  0  0  0  0  0  0  0  0  0  0  0
   10.6421  -17.1780   24.5343 O   0  0  0  0  0  0  0  0  0  0  0  0
    7.2923  -15.6916   20.4630 C   0  0  0  0  0  0  0  0  0  0  0  0
    6.9633  -15.1473   19.2278 C   0  0  0  0  0  0  0  0  0  0  0  0
   10.2915  -13.4652   29.9929 C   0  0  0  0  0  0  0  0  0  0  0  0
   10.5748  -14.6437   29.0819 C   0  0  0  0  0  0  0  0  0  0  0  0
   10.0016  -14.4204   27.7010 C   0  0  2  0  0  0  0  0  0  0  0  0
    8.5789  -13.9960   27.8396 C   0  0  0  0  0  0  0  0  0  0  0  0
   10.2191  -15.5991   26.7800 C   0  0  2  0  0  0  0  0  0  0  0  0
    9.6882  -15.3160   25.4465 N   0  0  0  0  0  0  0  0  0  0  0  0
    9.5696  -16.8385   27.2722 C   0  0  0  0  0  0  0  0  0  0  0  0
   10.0126  -17.4805   28.2840 O   0  0  0  0  0  0  0  0  0  0  0  0
    8.4435  -17.3865   26.6762 O   0  0  0  0  0  0  0  0  0  0  0  0
  2  1  1  0
  3  2  2  0
  4  5  1  0
  4  2  1  0
  5  6  1  6
  7  5  1  0
  7  8  2  0
  9 10  1  0
 10 11  2  0
 11 12  1  0
 13 12  2  0
 13 14  1  0
 15 14  1  1
 15 16  1  0
 16  7  1  0
 17 18  2  0
 17 15  1  0
 19 13  1  0
 20 10  1  0
 20 19  2  0
 22 21  1  0
 23 22  1  0
 23 24  1  1
 25 26  1  6
 25 23  1  0
 26 17  1  0
 27 25  1  0
 28 27  2  0
 29 27  1  0
M  END
$$$$
