NYI.pdb
     RDKit          3D

 29 29  0  0  1  0  0  0  0  0999 V2000
   13.6566  -18.7702   19.1995 N   0  0  0  0  0  0  0  0  0  0  0  0
   13.0707  -17.5667   18.7286 C   0  0  0  0  0  0  0  0  0  0  0  0
   13.5555  -17.0662   17.6838 O   0  0  0  0  0  0  0  0  0  0  0  0
   11.9271  -16.9167   19.4378 C   0  0  0  0  0  0  0  0  0  0  0  0
   11.6462  -17.6727   20.7421 C   0  0  2  0  0  0  0  0  0  0  0  0
   10.7276  -18.7358   20.4884 N   0  0  0  0  0  0  0  0  0  0  0  0
   11.1831  -16.7088   21.7730 C   0  0  0  0  0  0  0  0  0  0  0  0
   11.9341  -15.7695   22.0932 O   0  0  0  0  0  0  0  0  0  0  0  0
    6.8441  -12.9751   18.3426 O   0  0  0  0  0  0  0  0  0  0  0  0
    7.1473  -13.5799   19.5683 C   0  0  0  0  0  0  0  0  0  0  0  0
    6.8283  -14.9007   19.8007 C   0  0  0  0  0  0  0  0  0  0  0  0
    7.1262  -15.5075   21.0150 C   0  0  0  0  0  0  0  0  0  0  0  0
    7.7502  -14.8204   22.0358 C   0  0  0  0  0  0  0  0  0  0  0  0
    8.0654  -15.4568   23.3159 C   0  0  0  0  0  0  0  0  0  0  0  0
    9.5326  -15.8705   23.4337 C   0  0  2  0  0  0  0  0  0  0  0  0
    9.9102  -16.8043   22.4216 N   0  0  0  0  0  0  0  0  0  0  0  0
    9.8412  -16.3326   24.8095 C   0  0  0  0  0  0  0  0  0  0  0  0
   10.1555  -17.5461   24.9457 O   0  0  0  0  0  0  0  0  0  0  0  0
    8.0668  -13.4970   21.7950 C   0  0  0  0  0  0  0  0  0  0  0  0
    7.7710  -12.8859   20.5828 C   0  0  0  0  0  0  0  0  0  0  0  0
   10.1800  -12.4609   28.7561 C   0  0  0  0  0  0  0  0  0  0  0  0
   10.4162  -13.5415   27.7191 C   0  0  0  0  0  0  0  0  0  0  0  0
   10.1632  -14.9172   28.2921 C   0  0  2  0  0  0  0  0  0  0  0  0
   11.0455  -15.1076   29.4790 C   0  0  0  0  0  0  0  0  0  0  0  0
   10.2625  -16.0107   27.2532 C   0  0  2  0  0  0  0  0  0  0  0  0
    9.8081  -15.5261   25.9498 N   0  0  0  0  0  0  0  0  0  0  0  0
    9.4538  -17.2051   27.5992 C   0  0  0  0  0  0  0  0  0  0  0  0
    8.2197  -17.3032   27.2836 O   0  0  0  0  0  0  0  0  0  0  0  0
    9.9730  -18.2937   28.2841 O   0  0  0  0  0  0  0  0  0  0  0  0
  2  1  1  0
  3  2  2  0
  4  5  1  0
  4  2  1  0
  5  6  1  6
  7  5  1  0
  7  8  2  0
  9 10  1  0
 10 11  2  0
 11 12  1  0
 13 12  2  0
 13 14  1  0
 15 14  1  1
 15 16  1  0
 16  7  1  0
 17 18  2  0
 17 15  1  0
 19 13  1  0
 20 10  1  0
 20 19  2  0
 22 21  1  0
 23 22  1  0
 23 24  1  1
 25 26  1  6
 25 23  1  0
 26 17  1  0
 27 25  1  0
 28 27  2  0
 29 27  1  0
M  END
$$$$
