NYI.pdb
     RDKit          3D

 29 29  0  0  1  0  0  0  0  0999 V2000
   12.5852  -18.8917   18.3532 N   0  0  0  0  0  0  0  0  0  0  0  0
   12.5929  -17.4748   18.2772 C   0  0  0  0  0  0  0  0  0  0  0  0
   13.2375  -16.9572   17.3318 O   0  0  0  0  0  0  0  0  0  0  0  0
   11.8687  -16.6282   19.2732 C   0  0  0  0  0  0  0  0  0  0  0  0
   11.4102  -17.5062   20.4440 C   0  0  2  0  0  0  0  0  0  0  0  0
   10.4645  -18.4682   19.9764 N   0  0  0  0  0  0  0  0  0  0  0  0
   10.8969  -16.6359   21.5328 C   0  0  0  0  0  0  0  0  0  0  0  0
   11.6776  -15.8313   22.0729 O   0  0  0  0  0  0  0  0  0  0  0  0
    5.8323  -12.0685   27.1422 O   0  0  0  0  0  0  0  0  0  0  0  0
    6.2670  -12.9301   26.1280 C   0  0  0  0  0  0  0  0  0  0  0  0
    6.9997  -12.4521   25.0626 C   0  0  0  0  0  0  0  0  0  0  0  0
    7.4344  -13.3016   24.0524 C   0  0  0  0  0  0  0  0  0  0  0  0
    7.1543  -14.6524   24.0695 C   0  0  0  0  0  0  0  0  0  0  0  0
    7.6109  -15.5498   23.0069 C   0  0  0  0  0  0  0  0  0  0  0  0
    9.1117  -15.8352   23.0678 C   0  0  2  0  0  0  0  0  0  0  0  0
    9.5427  -16.6746   21.9962 N   0  0  0  0  0  0  0  0  0  0  0  0
    9.4980  -16.3418   24.4080 C   0  0  0  0  0  0  0  0  0  0  0  0
    9.6730  -17.5856   24.5179 O   0  0  0  0  0  0  0  0  0  0  0  0
    6.4194  -15.1239   25.1407 C   0  0  0  0  0  0  0  0  0  0  0  0
    5.9826  -14.2786   26.1531 C   0  0  0  0  0  0  0  0  0  0  0  0
   10.6005  -12.6079   28.4173 C   0  0  0  0  0  0  0  0  0  0  0  0
   10.6726  -13.6640   27.3318 C   0  0  0  0  0  0  0  0  0  0  0  0
   10.2641  -15.0210   27.8581 C   0  0  2  0  0  0  0  0  0  0  0  0
   11.1179  -15.3513   29.0351 C   0  0  0  0  0  0  0  0  0  0  0  0
   10.2394  -16.0823   26.7819 C   0  0  2  0  0  0  0  0  0  0  0  0
    9.6790  -15.5457   25.5417 N   0  0  0  0  0  0  0  0  0  0  0  0
    9.4361  -17.2689   27.1656 C   0  0  0  0  0  0  0  0  0  0  0  0
    8.1704  -17.3139   26.9983 O   0  0  0  0  0  0  0  0  0  0  0  0
    9.9948  -18.4067   27.7285 O   0  0  0  0  0  0  0  0  0  0  0  0
  2  1  1  0
  3  2  2  0
  4  5  1  0
  4  2  1  0
  5  6  1  6
  7  5  1  0
  7  8  2  0
  9 10  1  0
 10 11  2  0
 11 12  1  0
 13 12  2  0
 13 14  1  0
 15 14  1  1
 15 16  1  0
 16  7  1  0
 17 18  2  0
 17 15  1  0
 19 13  1  0
 20 10  1  0
 20 19  2  0
 22 21  1  0
 23 22  1  0
 23 24  1  1
 25 26  1  6
 25 23  1  0
 26 17  1  0
 27 25  1  0
 28 27  2  0
 29 27  1  0
M  END
$$$$
