NYI.pdb
     RDKit          3D

 29 29  0  0  1  0  0  0  0  0999 V2000
    4.6031  -23.8816   20.4185 N   0  0  0  0  0  0  0  0  0  0  0  0
    4.9620  -23.0782   21.5317 C   0  0  0  0  0  0  0  0  0  0  0  0
    4.5216  -23.4285   22.6544 O   0  0  0  0  0  0  0  0  0  0  0  0
    5.8255  -21.8675   21.3841 C   0  0  0  0  0  0  0  0  0  0  0  0
    5.3714  -20.7981   22.3852 C   0  0  2  0  0  0  0  0  0  0  0  0
    3.9678  -20.5783   22.2436 N   0  0  0  0  0  0  0  0  0  0  0  0
    6.1950  -19.5761   22.1985 C   0  0  0  0  0  0  0  0  0  0  0  0
    7.4322  -19.6934   22.1336 O   0  0  0  0  0  0  0  0  0  0  0  0
    9.3377  -11.8606   19.5861 O   0  0  0  0  0  0  0  0  0  0  0  0
    8.4607  -12.8663   20.0096 C   0  0  0  0  0  0  0  0  0  0  0  0
    7.6915  -12.7004   21.1415 C   0  0  0  0  0  0  0  0  0  0  0  0
    6.8189  -13.6945   21.5676 C   0  0  0  0  0  0  0  0  0  0  0  0
    6.6838  -14.8843   20.8823 C   0  0  0  0  0  0  0  0  0  0  0  0
    5.7655  -15.9333   21.3287 C   0  0  0  0  0  0  0  0  0  0  0  0
    6.4799  -17.1148   21.9853 C   0  0  2  0  0  0  0  0  0  0  0  0
    5.6365  -18.2623   22.0887 N   0  0  0  0  0  0  0  0  0  0  0  0
    7.0896  -16.7108   23.2764 C   0  0  0  0  0  0  0  0  0  0  0  0
    6.3283  -16.1632   24.1192 O   0  0  0  0  0  0  0  0  0  0  0  0
    7.4583  -15.0429   19.7488 C   0  0  0  0  0  0  0  0  0  0  0  0
    8.3320  -14.0521   19.3187 C   0  0  0  0  0  0  0  0  0  0  0  0
    7.5016  -18.9108   27.3651 C   0  0  0  0  0  0  0  0  0  0  0  0
    7.5186  -17.8135   26.3189 C   0  0  0  0  0  0  0  0  0  0  0  0
    8.9331  -17.4264   25.9522 C   0  0  2  0  0  0  0  0  0  0  0  0
    9.6672  -17.0697   27.2001 C   0  0  0  0  0  0  0  0  0  0  0  0
    8.9891  -16.3750   24.8677 C   0  0  2  0  0  0  0  0  0  0  0  0
    8.4319  -16.8932   23.6182 N   0  0  0  0  0  0  0  0  0  0  0  0
   10.3705  -15.9114   24.5895 C   0  0  0  0  0  0  0  0  0  0  0  0
   11.0144  -16.2836   23.5508 O   0  0  0  0  0  0  0  0  0  0  0  0
   11.0583  -15.0474   25.4286 O   0  0  0  0  0  0  0  0  0  0  0  0
  2  1  1  0
  3  2  2  0
  4  5  1  0
  4  2  1  0
  5  6  1  6
  7  5  1  0
  7  8  2  0
  9 10  1  0
 10 11  2  0
 11 12  1  0
 13 12  2  0
 13 14  1  0
 15 14  1  1
 15 16  1  0
 16  7  1  0
 17 18  2  0
 17 15  1  0
 19 13  1  0
 20 10  1  0
 20 19  2  0
 22 21  1  0
 23 22  1  0
 23 24  1  1
 25 26  1  6
 25 23  1  0
 26 17  1  0
 27 25  1  0
 28 27  2  0
 29 27  1  0
M  END
$$$$
