NYI.pdb
     RDKit          3D

 29 29  0  0  1  0  0  0  0  0999 V2000
   12.0311  -18.9987   18.1133 N   0  0  0  0  0  0  0  0  0  0  0  0
   12.1680  -17.5866   18.0866 C   0  0  0  0  0  0  0  0  0  0  0  0
   12.6720  -17.0813   17.0532 O   0  0  0  0  0  0  0  0  0  0  0  0
   11.7343  -16.7309   19.2323 C   0  0  0  0  0  0  0  0  0  0  0  0
   11.3378  -17.6281   20.4112 C   0  0  2  0  0  0  0  0  0  0  0  0
   10.3820  -18.5945   19.9741 N   0  0  0  0  0  0  0  0  0  0  0  0
   10.8650  -16.7769   21.5328 C   0  0  0  0  0  0  0  0  0  0  0  0
   11.6408  -15.9268   22.0062 O   0  0  0  0  0  0  0  0  0  0  0  0
    5.8265  -11.9493   26.9132 O   0  0  0  0  0  0  0  0  0  0  0  0
    6.2620  -12.9183   26.0015 C   0  0  0  0  0  0  0  0  0  0  0  0
    6.8635  -12.5517   24.8165 C   0  0  0  0  0  0  0  0  0  0  0  0
    7.2982  -13.5083   23.9070 C   0  0  0  0  0  0  0  0  0  0  0  0
    7.1486  -14.8587   24.1468 C   0  0  0  0  0  0  0  0  0  0  0  0
    7.6055  -15.8686   23.1906 C   0  0  0  0  0  0  0  0  0  0  0  0
    9.1284  -15.9894   23.1294 C   0  0  2  0  0  0  0  0  0  0  0  0
    9.5553  -16.8839   22.1015 N   0  0  0  0  0  0  0  0  0  0  0  0
    9.6856  -16.3150   24.4656 C   0  0  0  0  0  0  0  0  0  0  0  0
    9.8934  -17.5334   24.7145 O   0  0  0  0  0  0  0  0  0  0  0  0
    6.5448  -15.2180   25.3368 C   0  0  0  0  0  0  0  0  0  0  0  0
    6.1086  -14.2656   26.2493 C   0  0  0  0  0  0  0  0  0  0  0  0
   10.1508  -12.2774   28.3655 C   0  0  0  0  0  0  0  0  0  0  0  0
   10.5223  -13.3200   27.3292 C   0  0  0  0  0  0  0  0  0  0  0  0
   10.1720  -14.7126   27.8015 C   0  0  2  0  0  0  0  0  0  0  0  0
   10.8025  -14.9355   29.1342 C   0  0  0  0  0  0  0  0  0  0  0  0
   10.4848  -15.7750   26.7726 C   0  0  2  0  0  0  0  0  0  0  0  0
    9.9920  -15.3765   25.4541 N   0  0  0  0  0  0  0  0  0  0  0  0
    9.8810  -17.0888   27.1036 C   0  0  0  0  0  0  0  0  0  0  0  0
   10.5758  -18.0588   27.5601 O   0  0  0  0  0  0  0  0  0  0  0  0
    8.5299  -17.3585   26.9438 O   0  0  0  0  0  0  0  0  0  0  0  0
  2  1  1  0
  3  2  2  0
  4  5  1  0
  4  2  1  0
  5  6  1  6
  7  5  1  0
  7  8  2  0
  9 10  1  0
 10 11  2  0
 11 12  1  0
 13 12  2  0
 13 14  1  0
 15 14  1  1
 15 16  1  0
 16  7  1  0
 17 18  2  0
 17 15  1  0
 19 13  1  0
 20 10  1  0
 20 19  2  0
 22 21  1  0
 23 22  1  0
 23 24  1  1
 25 26  1  6
 25 23  1  0
 26 17  1  0
 27 25  1  0
 28 27  2  0
 29 27  1  0
M  END
$$$$
