NYI.pdb
     RDKit          3D

 29 29  0  0  1  0  0  0  0  0999 V2000
    6.9203  -18.2715   16.4071 N   0  0  0  0  0  0  0  0  0  0  0  0
    7.0996  -17.1094   17.2013 C   0  0  0  0  0  0  0  0  0  0  0  0
    7.6014  -16.1050   16.6386 O   0  0  0  0  0  0  0  0  0  0  0  0
    6.7113  -17.0730   18.6439 C   0  0  0  0  0  0  0  0  0  0  0  0
    7.8663  -16.4843   19.4632 C   0  0  2  0  0  0  0  0  0  0  0  0
    9.0940  -17.0924   19.0615 N   0  0  0  0  0  0  0  0  0  0  0  0
    7.5633  -16.6357   20.9095 C   0  0  0  0  0  0  0  0  0  0  0  0
    6.5259  -16.1169   21.3603 O   0  0  0  0  0  0  0  0  0  0  0  0
    7.9777  -19.1053   29.4316 O   0  0  0  0  0  0  0  0  0  0  0  0
    8.0823  -19.0419   28.0369 C   0  0  0  0  0  0  0  0  0  0  0  0
    6.9557  -19.0739   27.2432 C   0  0  0  0  0  0  0  0  0  0  0  0
    7.0522  -19.0114   25.8582 C   0  0  0  0  0  0  0  0  0  0  0  0
    8.2712  -18.9152   25.2193 C   0  0  0  0  0  0  0  0  0  0  0  0
    8.3760  -18.8492   23.7606 C   0  0  0  0  0  0  0  0  0  0  0  0
    8.0694  -17.4599   23.2007 C   0  0  2  0  0  0  0  0  0  0  0  0
    8.4076  -17.3517   21.8176 N   0  0  0  0  0  0  0  0  0  0  0  0
    8.6831  -16.4043   24.0439 C   0  0  0  0  0  0  0  0  0  0  0  0
    9.9283  -16.2400   23.9340 O   0  0  0  0  0  0  0  0  0  0  0  0
    9.3957  -18.8836   26.0219 C   0  0  0  0  0  0  0  0  0  0  0  0
    9.3045  -18.9458   27.4068 C   0  0  0  0  0  0  0  0  0  0  0  0
    5.8940  -12.0838   26.6983 C   0  0  0  0  0  0  0  0  0  0  0  0
    6.5554  -13.4350   26.5097 C   0  0  0  0  0  0  0  0  0  0  0  0
    7.8824  -13.3023   25.7979 C   0  0  2  0  0  0  0  0  0  0  0  0
    7.6443  -12.6936   24.4577 C   0  0  0  0  0  0  0  0  0  0  0  0
    8.6635  -14.5961   25.7709 C   0  0  2  0  0  0  0  0  0  0  0  0
    7.9851  -15.5905   24.9395 N   0  0  0  0  0  0  0  0  0  0  0  0
    8.8464  -15.1834   27.1207 C   0  0  0  0  0  0  0  0  0  0  0  0
    8.2165  -16.2296   27.4962 O   0  0  0  0  0  0  0  0  0  0  0  0
    9.7072  -14.6455   28.0659 O   0  0  0  0  0  0  0  0  0  0  0  0
  2  1  1  0
  3  2  2  0
  4  5  1  0
  4  2  1  0
  5  6  1  1
  7  5  1  0
  7  8  2  0
  9 10  1  0
 10 11  2  0
 11 12  1  0
 13 12  2  0
 13 14  1  0
 15 14  1  1
 15 16  1  0
 16  7  1  0
 17 18  2  0
 17 15  1  0
 19 13  1  0
 20 10  1  0
 20 19  2  0
 22 21  1  0
 23 22  1  0
 23 24  1  6
 25 26  1  6
 25 23  1  0
 26 17  1  0
 27 25  1  0
 28 27  2  0
 29 27  1  0
M  END
$$$$
