NYI.pdb
     RDKit          3D

 29 29  0  0  1  0  0  0  0  0999 V2000
    8.3364  -19.3520   18.7956 N   0  0  0  0  0  0  0  0  0  0  0  0
    7.8975  -18.0029   18.7756 C   0  0  0  0  0  0  0  0  0  0  0  0
    8.4056  -17.2498   17.9084 O   0  0  0  0  0  0  0  0  0  0  0  0
    6.8761  -17.4920   19.7395 C   0  0  0  0  0  0  0  0  0  0  0  0
    6.4734  -18.6221   20.6948 C   0  0  2  0  0  0  0  0  0  0  0  0
    5.4442  -19.4091   20.0950 N   0  0  0  0  0  0  0  0  0  0  0  0
    6.0981  -18.0383   22.0081 C   0  0  0  0  0  0  0  0  0  0  0  0
    5.2157  -17.1613   22.0420 O   0  0  0  0  0  0  0  0  0  0  0  0
   10.3444  -20.3958   28.7972 O   0  0  0  0  0  0  0  0  0  0  0  0
    9.2611  -20.0283   27.9901 C   0  0  0  0  0  0  0  0  0  0  0  0
    8.5288  -18.8936   28.2666 C   0  0  0  0  0  0  0  0  0  0  0  0
    7.4523  -18.5229   27.4697 C   0  0  0  0  0  0  0  0  0  0  0  0
    7.0702  -19.2684   26.3736 C   0  0  0  0  0  0  0  0  0  0  0  0
    5.9367  -18.8804   25.5323 C   0  0  0  0  0  0  0  0  0  0  0  0
    6.3035  -17.8354   24.4782 C   0  0  2  0  0  0  0  0  0  0  0  0
    6.7020  -18.4340   23.2445 N   0  0  0  0  0  0  0  0  0  0  0  0
    7.2951  -16.8707   25.0149 C   0  0  0  0  0  0  0  0  0  0  0  0
    8.5075  -17.0935   24.7499 O   0  0  0  0  0  0  0  0  0  0  0  0
    7.8092  -20.4043   26.1030 C   0  0  0  0  0  0  0  0  0  0  0  0
    8.8862  -20.7791   26.8966 C   0  0  0  0  0  0  0  0  0  0  0  0
    5.4764  -11.6817   25.9221 C   0  0  0  0  0  0  0  0  0  0  0  0
    6.3221  -12.8118   25.3684 C   0  0  0  0  0  0  0  0  0  0  0  0
    7.2171  -13.4010   26.4347 C   0  0  2  0  0  0  0  0  0  0  0  0
    8.1151  -12.3272   26.9485 C   0  0  0  0  0  0  0  0  0  0  0  0
    7.9316  -14.6507   25.9734 C   0  0  2  0  0  0  0  0  0  0  0  0
    6.9818  -15.7470   25.7836 N   0  0  0  0  0  0  0  0  0  0  0  0
    8.9647  -15.1080   26.9346 C   0  0  0  0  0  0  0  0  0  0  0  0
   10.1074  -14.5434   27.0217 O   0  0  0  0  0  0  0  0  0  0  0  0
    8.7680  -16.1722   27.8021 O   0  0  0  0  0  0  0  0  0  0  0  0
  2  1  1  0
  3  2  2  0
  4  5  1  0
  4  2  1  0
  5  6  1  6
  7  5  1  0
  7  8  2  0
  9 10  1  0
 10 11  2  0
 11 12  1  0
 13 12  2  0
 13 14  1  0
 15 14  1  1
 15 16  1  0
 16  7  1  0
 17 18  2  0
 17 15  1  0
 19 13  1  0
 20 10  1  0
 20 19  2  0
 22 21  1  0
 23 22  1  0
 23 24  1  6
 25 26  1  1
 25 23  1  0
 26 17  1  0
 27 25  1  0
 28 27  2  0
 29 27  1  0
M  END
$$$$
