NYI.pdb
     RDKit          3D

 29 29  0  0  1  0  0  0  0  0999 V2000
    9.7971  -18.8182   17.4745 N   0  0  0  0  0  0  0  0  0  0  0  0
   10.7877  -17.8338   17.7257 C   0  0  0  0  0  0  0  0  0  0  0  0
   11.6791  -17.6852   16.8537 O   0  0  0  0  0  0  0  0  0  0  0  0
   10.7783  -17.0059   18.9698 C   0  0  0  0  0  0  0  0  0  0  0  0
    9.6626  -17.5014   19.8979 C   0  0  2  0  0  0  0  0  0  0  0  0
    8.4257  -17.5258   19.1853 N   0  0  0  0  0  0  0  0  0  0  0  0
    9.6373  -16.6590   21.1210 C   0  0  0  0  0  0  0  0  0  0  0  0
   10.6879  -16.5213   21.7737 O   0  0  0  0  0  0  0  0  0  0  0  0
    7.0652  -11.5891   27.9230 O   0  0  0  0  0  0  0  0  0  0  0  0
    7.1161  -12.2609   26.6958 C   0  0  0  0  0  0  0  0  0  0  0  0
    7.8248  -11.7384   25.6349 C   0  0  0  0  0  0  0  0  0  0  0  0
    7.8796  -12.3998   24.4140 C   0  0  0  0  0  0  0  0  0  0  0  0
    7.2319  -13.6007   24.2093 C   0  0  0  0  0  0  0  0  0  0  0  0
    7.2879  -14.2997   22.9244 C   0  0  0  0  0  0  0  0  0  0  0  0
    8.4756  -15.2563   22.8144 C   0  0  2  0  0  0  0  0  0  0  0  0
    8.4603  -15.9930   21.5913 N   0  0  0  0  0  0  0  0  0  0  0  0
    8.5745  -16.1148   24.0207 C   0  0  0  0  0  0  0  0  0  0  0  0
    7.6822  -16.9930   24.1694 O   0  0  0  0  0  0  0  0  0  0  0  0
    6.5238  -14.1178   25.2775 C   0  0  0  0  0  0  0  0  0  0  0  0
    6.4660  -13.4604   26.5001 C   0  0  0  0  0  0  0  0  0  0  0  0
   12.2104  -20.1057   25.8848 C   0  0  0  0  0  0  0  0  0  0  0  0
   11.1933  -19.1338   26.4505 C   0  0  0  0  0  0  0  0  0  0  0  0
   10.9014  -18.0156   25.4761 C   0  0  2  0  0  0  0  0  0  0  0  0
   12.1850  -17.3422   25.1267 C   0  0  0  0  0  0  0  0  0  0  0  0
    9.8152  -17.0842   25.9633 C   0  0  2  0  0  0  0  0  0  0  0  0
    9.5756  -16.0182   24.9904 N   0  0  0  0  0  0  0  0  0  0  0  0
   10.1464  -16.4466   27.2610 C   0  0  0  0  0  0  0  0  0  0  0  0
   10.4830  -15.2171   27.3462 O   0  0  0  0  0  0  0  0  0  0  0  0
   10.1150  -17.1316   28.4666 O   0  0  0  0  0  0  0  0  0  0  0  0
  2  1  1  0
  3  2  2  0
  4  5  1  0
  4  2  1  0
  5  6  1  6
  7  5  1  0
  7  8  2  0
  9 10  1  0
 10 11  2  0
 11 12  1  0
 13 12  2  0
 13 14  1  0
 15 14  1  1
 15 16  1  0
 16  7  1  0
 17 18  2  0
 17 15  1  0
 19 13  1  0
 20 10  1  0
 20 19  2  0
 22 21  1  0
 23 22  1  0
 23 24  1  1
 25 26  1  6
 25 23  1  0
 26 17  1  0
 27 25  1  0
 28 27  2  0
 29 27  1  0
M  END
$$$$
