NYI.pdb
     RDKit          3D

 29 29  0  0  1  0  0  0  0  0999 V2000
    6.4887  -18.5964   18.1072 N   0  0  0  0  0  0  0  0  0  0  0  0
    6.7766  -17.2917   18.5847 C   0  0  0  0  0  0  0  0  0  0  0  0
    7.3046  -16.4906   17.7744 O   0  0  0  0  0  0  0  0  0  0  0  0
    6.4685  -16.8802   19.9880 C   0  0  0  0  0  0  0  0  0  0  0  0
    5.9477  -18.0939   20.7674 C   0  0  2  0  0  0  0  0  0  0  0  0
    4.5788  -18.3235   20.4330 N   0  0  0  0  0  0  0  0  0  0  0  0
    6.1863  -17.8795   22.2177 C   0  0  0  0  0  0  0  0  0  0  0  0
    5.4215  -17.1233   22.8438 O   0  0  0  0  0  0  0  0  0  0  0  0
    8.7519  -18.7829   30.6288 O   0  0  0  0  0  0  0  0  0  0  0  0
    8.5862  -18.9606   29.2501 C   0  0  0  0  0  0  0  0  0  0  0  0
    7.3393  -19.2054   28.7156 C   0  0  0  0  0  0  0  0  0  0  0  0
    7.1675  -19.3828   27.3480 C   0  0  0  0  0  0  0  0  0  0  0  0
    8.2294  -19.3225   26.4693 C   0  0  0  0  0  0  0  0  0  0  0  0
    8.0516  -19.5089   25.0283 C   0  0  0  0  0  0  0  0  0  0  0  0
    7.4036  -18.3048   24.3443 C   0  0  2  0  0  0  0  0  0  0  0  0
    7.2567  -18.5010   22.9376 N   0  0  0  0  0  0  0  0  0  0  0  0
    8.1172  -17.0520   24.6952 C   0  0  0  0  0  0  0  0  0  0  0  0
    9.1679  -16.7945   24.0477 O   0  0  0  0  0  0  0  0  0  0  0  0
    9.4760  -19.0767   27.0129 C   0  0  0  0  0  0  0  0  0  0  0  0
    9.6529  -18.8987   28.3793 C   0  0  0  0  0  0  0  0  0  0  0  0
    5.4631  -12.5799   26.6715 C   0  0  0  0  0  0  0  0  0  0  0  0
    6.4125  -13.4295   25.8495 C   0  0  0  0  0  0  0  0  0  0  0  0
    7.5710  -13.9236   26.6855 C   0  0  2  0  0  0  0  0  0  0  0  0
    8.2983  -12.7436   27.2350 C   0  0  0  0  0  0  0  0  0  0  0  0
    8.4443  -14.9128   25.9481 C   0  0  2  0  0  0  0  0  0  0  0  0
    7.7101  -16.1496   25.6810 N   0  0  0  0  0  0  0  0  0  0  0  0
    9.6709  -15.2684   26.7028 C   0  0  0  0  0  0  0  0  0  0  0  0
    9.6527  -16.0975   27.6746 O   0  0  0  0  0  0  0  0  0  0  0  0
   10.9165  -14.7325   26.4114 O   0  0  0  0  0  0  0  0  0  0  0  0
  2  1  1  0
  3  2  2  0
  4  5  1  0
  4  2  1  0
  5  6  1  1
  7  5  1  0
  7  8  2  0
  9 10  1  0
 10 11  2  0
 11 12  1  0
 13 12  2  0
 13 14  1  0
 15 14  1  6
 15 16  1  0
 16  7  1  0
 17 18  2  0
 17 15  1  0
 19 13  1  0
 20 10  1  0
 20 19  2  0
 22 21  1  0
 23 22  1  0
 23 24  1  6
 25 26  1  1
 25 23  1  0
 26 17  1  0
 27 25  1  0
 28 27  2  0
 29 27  1  0
M  END
$$$$
