NYI.pdb
     RDKit          3D

 29 29  0  0  1  0  0  0  0  0999 V2000
   14.0128  -20.6717   20.6104 N   0  0  0  0  0  0  0  0  0  0  0  0
   12.7992  -19.9568   20.7820 C   0  0  0  0  0  0  0  0  0  0  0  0
   11.7410  -20.5363   20.4336 O   0  0  0  0  0  0  0  0  0  0  0  0
   12.7720  -18.5754   21.3514 C   0  0  0  0  0  0  0  0  0  0  0  0
   11.6008  -17.7989   20.7373 C   0  0  2  0  0  0  0  0  0  0  0  0
   12.0033  -17.2399   19.4867 N   0  0  0  0  0  0  0  0  0  0  0  0
   11.1152  -16.7948   21.7183 C   0  0  0  0  0  0  0  0  0  0  0  0
   11.7882  -15.7641   21.9013 O   0  0  0  0  0  0  0  0  0  0  0  0
    6.9020  -13.0935   18.2833 O   0  0  0  0  0  0  0  0  0  0  0  0
    7.1839  -13.7000   19.5132 C   0  0  0  0  0  0  0  0  0  0  0  0
    6.8346  -15.0126   19.7485 C   0  0  0  0  0  0  0  0  0  0  0  0
    7.1114  -15.6209   20.9670 C   0  0  0  0  0  0  0  0  0  0  0  0
    7.7438  -14.9437   21.9892 C   0  0  0  0  0  0  0  0  0  0  0  0
    8.0367  -15.5818   23.2737 C   0  0  0  0  0  0  0  0  0  0  0  0
    9.5072  -15.9711   23.4273 C   0  0  2  0  0  0  0  0  0  0  0  0
    9.9061  -16.9516   22.4690 N   0  0  0  0  0  0  0  0  0  0  0  0
    9.8068  -16.3573   24.8283 C   0  0  0  0  0  0  0  0  0  0  0  0
   10.1310  -17.5588   25.0309 O   0  0  0  0  0  0  0  0  0  0  0  0
    8.0907  -13.6284   21.7454 C   0  0  0  0  0  0  0  0  0  0  0  0
    7.8162  -13.0158   20.5291 C   0  0  0  0  0  0  0  0  0  0  0  0
    9.9522  -12.3086   28.5790 C   0  0  0  0  0  0  0  0  0  0  0  0
   10.4618  -13.4508   27.7219 C   0  0  0  0  0  0  0  0  0  0  0  0
    9.9959  -14.7868   28.2539 C   0  0  2  0  0  0  0  0  0  0  0  0
   10.6360  -15.0199   29.5803 C   0  0  0  0  0  0  0  0  0  0  0  0
   10.1831  -15.9097   27.2595 C   0  0  2  0  0  0  0  0  0  0  0  0
    9.7552  -15.4924   25.9242 N   0  0  0  0  0  0  0  0  0  0  0  0
    9.4176  -17.1281   27.6200 C   0  0  0  0  0  0  0  0  0  0  0  0
    9.9225  -18.0598   28.3337 O   0  0  0  0  0  0  0  0  0  0  0  0
    8.1093  -17.3436   27.2132 O   0  0  0  0  0  0  0  0  0  0  0  0
  2  1  1  0
  3  2  2  0
  4  5  1  0
  4  2  1  0
  5  6  1  6
  7  5  1  0
  7  8  2  0
  9 10  1  0
 10 11  2  0
 11 12  1  0
 13 12  2  0
 13 14  1  0
 15 14  1  1
 15 16  1  0
 16  7  1  0
 17 18  2  0
 17 15  1  0
 19 13  1  0
 20 10  1  0
 20 19  2  0
 22 21  1  0
 23 22  1  0
 23 24  1  1
 25 26  1  6
 25 23  1  0
 26 17  1  0
 27 25  1  0
 28 27  2  0
 29 27  1  0
M  END
$$$$
