NYI.pdb
     RDKit          3D

 29 29  0  0  1  0  0  0  0  0999 V2000
   10.7478  -18.7068   18.5844 N   0  0  0  0  0  0  0  0  0  0  0  0
   10.9231  -17.4320   19.1822 C   0  0  0  0  0  0  0  0  0  0  0  0
   11.8280  -16.6998   18.7108 O   0  0  0  0  0  0  0  0  0  0  0  0
   10.0733  -16.9726   20.3224 C   0  0  0  0  0  0  0  0  0  0  0  0
    9.1843  -18.1319   20.7889 C   0  0  2  0  0  0  0  0  0  0  0  0
    8.2725  -18.4821   19.7476 N   0  0  0  0  0  0  0  0  0  0  0  0
    8.5256  -17.7563   22.0661 C   0  0  0  0  0  0  0  0  0  0  0  0
    7.5388  -16.9990   22.0295 O   0  0  0  0  0  0  0  0  0  0  0  0
    5.4587  -23.5347   23.9467 O   0  0  0  0  0  0  0  0  0  0  0  0
    6.1629  -22.3947   24.3524 C   0  0  0  0  0  0  0  0  0  0  0  0
    5.5450  -21.4118   25.0958 C   0  0  0  0  0  0  0  0  0  0  0  0
    6.2379  -20.2777   25.5019 C   0  0  0  0  0  0  0  0  0  0  0  0
    7.5660  -20.0851   25.1818 C   0  0  0  0  0  0  0  0  0  0  0  0
    8.2985  -18.8915   25.6081 C   0  0  0  0  0  0  0  0  0  0  0  0
    8.3246  -17.7934   24.5447 C   0  0  2  0  0  0  0  0  0  0  0  0
    8.9693  -18.2227   23.3451 N   0  0  0  0  0  0  0  0  0  0  0  0
    8.8839  -16.5357   25.0991 C   0  0  0  0  0  0  0  0  0  0  0  0
   10.1405  -16.4450   25.1497 O   0  0  0  0  0  0  0  0  0  0  0  0
    8.1781  -21.0748   24.4364 C   0  0  0  0  0  0  0  0  0  0  0  0
    7.4898  -22.2105   24.0281 C   0  0  0  0  0  0  0  0  0  0  0  0
    6.0113  -11.8475   25.0707 C   0  0  0  0  0  0  0  0  0  0  0  0
    7.1645  -12.8225   24.9357 C   0  0  0  0  0  0  0  0  0  0  0  0
    7.7684  -13.1485   26.2825 C   0  0  2  0  0  0  0  0  0  0  0  0
    8.3324  -11.8977   26.8662 C   0  0  0  0  0  0  0  0  0  0  0  0
    8.7373  -14.3073   26.2238 C   0  0  2  0  0  0  0  0  0  0  0  0
    8.1239  -15.4591   25.5627 N   0  0  0  0  0  0  0  0  0  0  0  0
    9.1901  -14.7444   27.5671 C   0  0  0  0  0  0  0  0  0  0  0  0
    8.5133  -15.5621   28.2780 O   0  0  0  0  0  0  0  0  0  0  0  0
   10.3709  -14.3022   28.1448 O   0  0  0  0  0  0  0  0  0  0  0  0
  2  1  1  0
  3  2  2  0
  4  5  1  0
  4  2  1  0
  5  6  1  6
  7  5  1  0
  7  8  2  0
  9 10  1  0
 10 11  2  0
 11 12  1  0
 13 12  2  0
 13 14  1  0
 15 14  1  1
 15 16  1  0
 16  7  1  0
 17 18  2  0
 17 15  1  0
 19 13  1  0
 20 10  1  0
 20 19  2  0
 22 21  1  0
 23 22  1  0
 23 24  1  6
 25 26  1  1
 25 23  1  0
 26 17  1  0
 27 25  1  0
 28 27  2  0
 29 27  1  0
M  END
$$$$
