GTI.pdb
     RDKit          3D

 20 19  0  0  1  0  0  0  0  0999 V2000
    8.1492  -12.9871   17.6469 N   0  0  0  0  0  0  0  0  0  0  0  0
    8.9042  -13.5079   18.7490 C   0  0  0  0  0  0  0  0  0  0  0  0
    8.0103  -14.0713   19.8188 C   0  0  0  0  0  0  0  0  0  0  0  0
    6.7735  -13.8986   19.7987 O   0  0  0  0  0  0  0  0  0  0  0  0
    7.3836  -17.3749   20.4800 C   0  0  0  0  0  0  0  0  0  0  0  0
    7.9837  -16.9220   21.7956 C   0  0  1  0  0  0  0  0  0  0  0  0
    9.3305  -17.2748   21.8161 O   0  0  0  0  0  0  0  0  0  0  0  0
    7.8418  -15.4046   21.9569 C   0  0  2  0  0  0  0  0  0  0  0  0
    8.5778  -14.8116   20.8696 N   0  0  0  0  0  0  0  0  0  0  0  0
    8.4910  -15.0208   23.2283 C   0  0  0  0  0  0  0  0  0  0  0  0
    9.7127  -14.7408   23.2073 O   0  0  0  0  0  0  0  0  0  0  0  0
    5.8204  -11.7726   26.3434 C   0  0  0  0  0  0  0  0  0  0  0  0
    6.9547  -12.4414   25.5939 C   0  0  0  0  0  0  0  0  0  0  0  0
    7.4396  -13.5852   26.4457 C   0  0  2  0  0  0  0  0  0  0  0  0
    8.1947  -13.0093   27.6188 C   0  0  0  0  0  0  0  0  0  0  0  0
    8.3785  -14.5085   25.7105 C   0  0  2  0  0  0  0  0  0  0  0  0
    7.7969  -14.9558   24.4630 N   0  0  0  0  0  0  0  0  0  0  0  0
    8.8339  -15.6381   26.5442 C   0  0  0  0  0  0  0  0  0  0  0  0
    8.1980  -16.7226   26.5409 O   0  0  0  0  0  0  0  0  0  0  0  0
    9.9569  -15.5735   27.3571 O   0  0  0  0  0  0  0  0  0  0  0  0
  2  1  1  0
  3  4  2  0
  3  2  1  0
  6  5  1  6
  6  8  1  0
  7  6  1  0
  8  9  1  6
  9  3  1  0
 10  8  1  0
 10 17  1  0
 11 10  2  0
 12 13  1  0
 13 14  1  0
 14 16  1  0
 14 15  1  1
 16 17  1  6
 16 18  1  0
 18 19  2  0
 18 20  1  0
M  END
$$$$
