GTI.pdb
     RDKit          3D

 20 19  0  0  1  0  0  0  0  0999 V2000
    8.3678  -13.5311   16.8317 N   0  0  0  0  0  0  0  0  0  0  0  0
    8.8085  -13.3172   18.1793 C   0  0  0  0  0  0  0  0  0  0  0  0
    7.9128  -14.0036   19.1730 C   0  0  0  0  0  0  0  0  0  0  0  0
    6.8052  -14.4760   18.8413 O   0  0  0  0  0  0  0  0  0  0  0  0
    7.4224  -16.6624   19.6861 C   0  0  0  0  0  0  0  0  0  0  0  0
    7.9843  -16.4055   21.0697 C   0  0  1  0  0  0  0  0  0  0  0  0
    9.3568  -16.6382   21.0437 O   0  0  0  0  0  0  0  0  0  0  0  0
    7.7105  -14.9607   21.5012 C   0  0  2  0  0  0  0  0  0  0  0  0
    8.3296  -14.1183   20.5099 N   0  0  0  0  0  0  0  0  0  0  0  0
    8.3875  -14.7379   22.7963 C   0  0  0  0  0  0  0  0  0  0  0  0
    9.5870  -14.3739   22.7814 O   0  0  0  0  0  0  0  0  0  0  0  0
    6.8517  -11.3462   27.2254 C   0  0  0  0  0  0  0  0  0  0  0  0
    7.7450  -12.5493   27.0011 C   0  0  0  0  0  0  0  0  0  0  0  0
    7.2871  -13.2147   25.7297 C   0  0  2  0  0  0  0  0  0  0  0  0
    5.9200  -13.8052   25.9751 C   0  0  0  0  0  0  0  0  0  0  0  0
    8.1951  -14.3374   25.2941 C   0  0  2  0  0  0  0  0  0  0  0  0
    7.7440  -14.9168   24.0470 N   0  0  0  0  0  0  0  0  0  0  0  0
    8.3799  -15.3590   26.3432 C   0  0  0  0  0  0  0  0  0  0  0  0
    7.8076  -16.4742   26.2469 O   0  0  0  0  0  0  0  0  0  0  0  0
    9.1719  -15.1567   27.4646 O   0  0  0  0  0  0  0  0  0  0  0  0
  2  1  1  0
  3  4  2  0
  3  2  1  0
  6  5  1  6
  6  8  1  0
  7  6  1  0
  8  9  1  6
  9  3  1  0
 10  8  1  0
 10 17  1  0
 11 10  2  0
 12 13  1  0
 13 14  1  0
 14 16  1  0
 14 15  1  1
 16 17  1  6
 16 18  1  0
 18 19  2  0
 18 20  1  0
M  END
$$$$
