GTI.pdb
     RDKit          3D

 20 19  0  0  1  0  0  0  0  0999 V2000
    8.1359  -13.0914   17.4406 N   0  0  0  0  0  0  0  0  0  0  0  0
    8.8765  -13.4765   18.6064 C   0  0  0  0  0  0  0  0  0  0  0  0
    7.9760  -14.0078   19.6871 C   0  0  0  0  0  0  0  0  0  0  0  0
    6.7466  -13.7882   19.6836 O   0  0  0  0  0  0  0  0  0  0  0  0
    7.2744  -17.3204   20.3532 C   0  0  0  0  0  0  0  0  0  0  0  0
    7.9026  -16.8715   21.6570 C   0  0  1  0  0  0  0  0  0  0  0  0
    9.2449  -17.2415   21.6557 O   0  0  0  0  0  0  0  0  0  0  0  0
    7.7829  -15.3520   21.8162 C   0  0  2  0  0  0  0  0  0  0  0  0
    8.5288  -14.7713   20.7290 N   0  0  0  0  0  0  0  0  0  0  0  0
    8.4361  -14.9761   23.0879 C   0  0  0  0  0  0  0  0  0  0  0  0
    9.6512  -14.6694   23.0601 O   0  0  0  0  0  0  0  0  0  0  0  0
    5.8209  -11.7066   26.2376 C   0  0  0  0  0  0  0  0  0  0  0  0
    6.9033  -12.4233   25.4563 C   0  0  0  0  0  0  0  0  0  0  0  0
    7.3820  -13.5711   26.3063 C   0  0  2  0  0  0  0  0  0  0  0  0
    8.1240  -13.0006   27.4903 C   0  0  0  0  0  0  0  0  0  0  0  0
    8.3301  -14.4882   25.5753 C   0  0  2  0  0  0  0  0  0  0  0  0
    7.7530  -14.9473   24.3301 N   0  0  0  0  0  0  0  0  0  0  0  0
    8.7973  -15.6091   26.4142 C   0  0  0  0  0  0  0  0  0  0  0  0
    8.1347  -16.6761   26.4693 O   0  0  0  0  0  0  0  0  0  0  0  0
    9.9602  -15.5549   27.1697 O   0  0  0  0  0  0  0  0  0  0  0  0
  2  1  1  0
  3  4  2  0
  3  2  1  0
  6  5  1  6
  6  8  1  0
  7  6  1  0
  8  9  1  6
  9  3  1  0
 10  8  1  0
 10 17  1  0
 11 10  2  0
 12 13  1  0
 13 14  1  0
 14 16  1  0
 14 15  1  1
 16 17  1  6
 16 18  1  0
 18 19  2  0
 18 20  1  0
M  END
$$$$
