GTI.pdb
     RDKit          3D

 20 19  0  0  1  0  0  0  0  0999 V2000
   12.0630  -17.0314   19.0134 N   0  0  0  0  0  0  0  0  0  0  0  0
   11.4758  -17.2712   20.2994 C   0  0  0  0  0  0  0  0  0  0  0  0
   10.6184  -16.1183   20.7430 C   0  0  0  0  0  0  0  0  0  0  0  0
   10.8463  -14.9489   20.3686 O   0  0  0  0  0  0  0  0  0  0  0  0
    6.9574  -15.5937   20.3891 C   0  0  0  0  0  0  0  0  0  0  0  0
    7.2471  -15.7502   21.8682 C   0  0  1  0  0  0  0  0  0  0  0  0
    7.0458  -17.0813   22.2235 O   0  0  0  0  0  0  0  0  0  0  0  0
    8.6914  -15.3425   22.1789 C   0  0  2  0  0  0  0  0  0  0  0  0
    9.5322  -16.3596   21.6010 N   0  0  0  0  0  0  0  0  0  0  0  0
    8.8643  -15.3681   23.6468 C   0  0  0  0  0  0  0  0  0  0  0  0
    9.6361  -16.2261   24.1362 O   0  0  0  0  0  0  0  0  0  0  0  0
    5.4209  -12.2207   26.9488 C   0  0  0  0  0  0  0  0  0  0  0  0
    6.0935  -13.3358   26.1742 C   0  0  0  0  0  0  0  0  0  0  0  0
    7.5430  -13.3527   26.5835 C   0  0  2  0  0  0  0  0  0  0  0  0
    8.1771  -12.0646   26.1180 C   0  0  0  0  0  0  0  0  0  0  0  0
    8.3157  -14.4894   25.9627 C   0  0  2  0  0  0  0  0  0  0  0  0
    8.1996  -14.4705   24.5203 N   0  0  0  0  0  0  0  0  0  0  0  0
    7.9496  -15.8022   26.5293 C   0  0  0  0  0  0  0  0  0  0  0  0
    8.3485  -16.1289   27.6759 O   0  0  0  0  0  0  0  0  0  0  0  0
    7.1673  -16.7267   25.8518 O   0  0  0  0  0  0  0  0  0  0  0  0
  2  1  1  0
  3  4  2  0
  3  2  1  0
  6  5  1  6
  6  8  1  0
  7  6  1  0
  8  9  1  6
  9  3  1  0
 10  8  1  0
 10 17  1  0
 11 10  2  0
 12 13  1  0
 13 14  1  0
 14 16  1  0
 14 15  1  6
 16 17  1  6
 16 18  1  0
 18 19  2  0
 18 20  1  0
M  END
$$$$
