GTI.pdb
     RDKit          3D

 20 19  0  0  1  0  0  0  0  0999 V2000
   12.4349  -16.8692   18.8957 N   0  0  0  0  0  0  0  0  0  0  0  0
   12.6248  -17.5448   20.1460 C   0  0  0  0  0  0  0  0  0  0  0  0
   11.4054  -17.4490   21.0207 C   0  0  0  0  0  0  0  0  0  0  0  0
   10.2535  -17.5853   20.5579 O   0  0  0  0  0  0  0  0  0  0  0  0
    9.7849  -19.3739   22.1305 C   0  0  0  0  0  0  0  0  0  0  0  0
   10.2151  -18.8344   23.4795 C   0  0  1  0  0  0  0  0  0  0  0  0
   11.3498  -19.5260   23.8951 O   0  0  0  0  0  0  0  0  0  0  0  0
   10.5254  -17.3366   23.3851 C   0  0  2  0  0  0  0  0  0  0  0  0
   11.5627  -17.2000   22.3946 N   0  0  0  0  0  0  0  0  0  0  0  0
   11.0630  -16.9013   24.6916 C   0  0  0  0  0  0  0  0  0  0  0  0
   12.3059  -16.7905   24.8120 O   0  0  0  0  0  0  0  0  0  0  0  0
    9.7431  -12.6253   28.5650 C   0  0  0  0  0  0  0  0  0  0  0  0
   10.4009  -13.9900   28.5371 C   0  0  0  0  0  0  0  0  0  0  0  0
   10.0524  -14.6268   27.2172 C   0  0  2  0  0  0  0  0  0  0  0  0
    8.5578  -14.8324   27.1755 C   0  0  0  0  0  0  0  0  0  0  0  0
   10.7017  -15.9744   27.0254 C   0  0  2  0  0  0  0  0  0  0  0  0
   10.2400  -16.6054   25.8075 N   0  0  0  0  0  0  0  0  0  0  0  0
   10.5416  -16.8551   28.1990 C   0  0  0  0  0  0  0  0  0  0  0  0
    9.6753  -17.7660   28.1919 O   0  0  0  0  0  0  0  0  0  0  0  0
   11.3138  -16.7346   29.3458 O   0  0  0  0  0  0  0  0  0  0  0  0
  2  1  1  0
  3  4  2  0
  3  2  1  0
  6  5  1  6
  6  8  1  0
  7  6  1  0
  8  9  1  6
  9  3  1  0
 10  8  1  0
 10 17  1  0
 11 10  2  0
 12 13  1  0
 13 14  1  0
 14 16  1  0
 14 15  1  1
 16 17  1  6
 16 18  1  0
 18 19  2  0
 18 20  1  0
M  END
$$$$
