GTI.pdb
     RDKit          3D

 20 19  0  0  1  0  0  0  0  0999 V2000
    7.2498  -18.2649   18.4724 N   0  0  0  0  0  0  0  0  0  0  0  0
    7.7634  -17.3045   19.4050 C   0  0  0  0  0  0  0  0  0  0  0  0
    6.9627  -17.2815   20.6775 C   0  0  0  0  0  0  0  0  0  0  0  0
    5.7915  -17.7128   20.7238 O   0  0  0  0  0  0  0  0  0  0  0  0
    8.0512  -18.9872   23.4372 C   0  0  0  0  0  0  0  0  0  0  0  0
    6.7372  -18.2383   23.5300 C   0  0  1  0  0  0  0  0  0  0  0  0
    6.2631  -18.3300   24.8359 O   0  0  0  0  0  0  0  0  0  0  0  0
    6.9297  -16.7662   23.1495 C   0  0  2  0  0  0  0  0  0  0  0  0
    7.5442  -16.7622   21.8465 N   0  0  0  0  0  0  0  0  0  0  0  0
    7.8742  -16.1674   24.1163 C   0  0  0  0  0  0  0  0  0  0  0  0
    9.1020  -16.2772   23.8886 O   0  0  0  0  0  0  0  0  0  0  0  0
    5.7992  -11.8923   26.5211 C   0  0  0  0  0  0  0  0  0  0  0  0
    6.8440  -12.6848   25.7622 C   0  0  0  0  0  0  0  0  0  0  0  0
    7.5653  -13.5474   26.7645 C   0  0  2  0  0  0  0  0  0  0  0  0
    8.5680  -12.6845   27.4909 C   0  0  0  0  0  0  0  0  0  0  0  0
    8.3232  -14.6835   26.1245 C   0  0  2  0  0  0  0  0  0  0  0  0
    7.4551  -15.4786   25.2827 N   0  0  0  0  0  0  0  0  0  0  0  0
    9.0468  -15.5107   27.1096 C   0  0  0  0  0  0  0  0  0  0  0  0
   10.0791  -15.0652   27.6721 O   0  0  0  0  0  0  0  0  0  0  0  0
    8.6440  -16.7907   27.4637 O   0  0  0  0  0  0  0  0  0  0  0  0
  2  1  1  0
  3  4  2  0
  3  2  1  0
  6  5  1  1
  6  8  1  0
  7  6  1  0
  8  9  1  6
  9  3  1  0
 10  8  1  0
 10 17  1  0
 11 10  2  0
 12 13  1  0
 13 14  1  0
 14 16  1  0
 14 15  1  6
 16 17  1  1
 16 18  1  0
 18 19  2  0
 18 20  1  0
M  END
$$$$
