GTI.pdb
     RDKit          3D

 20 19  0  0  1  0  0  0  0  0999 V2000
    3.0504  -19.6343   21.7702 N   0  0  0  0  0  0  0  0  0  0  0  0
    3.9182  -18.4959   21.8526 C   0  0  0  0  0  0  0  0  0  0  0  0
    4.8832  -18.6140   22.9997 C   0  0  0  0  0  0  0  0  0  0  0  0
    4.6352  -19.3262   23.9952 O   0  0  0  0  0  0  0  0  0  0  0  0
    7.9225  -20.0824   22.9166 C   0  0  0  0  0  0  0  0  0  0  0  0
    8.3145  -18.6794   23.3336 C   0  0  1  0  0  0  0  0  0  0  0  0
    8.7485  -17.9845   22.2078 O   0  0  0  0  0  0  0  0  0  0  0  0
    7.1215  -17.9531   23.9644 C   0  0  2  0  0  0  0  0  0  0  0  0
    6.0961  -17.9060   22.9535 N   0  0  0  0  0  0  0  0  0  0  0  0
    7.5429  -16.5697   24.2710 C   0  0  0  0  0  0  0  0  0  0  0  0
    7.5886  -15.7434   23.3295 O   0  0  0  0  0  0  0  0  0  0  0  0
    5.6855  -12.6323   26.7617 C   0  0  0  0  0  0  0  0  0  0  0  0
    6.5544  -13.4549   25.8322 C   0  0  0  0  0  0  0  0  0  0  0  0
    7.7243  -13.9537   26.6393 C   0  0  2  0  0  0  0  0  0  0  0  0
    8.5730  -12.7650   27.0195 C   0  0  0  0  0  0  0  0  0  0  0  0
    8.6017  -14.9113   25.8725 C   0  0  2  0  0  0  0  0  0  0  0  0
    7.8955  -16.1390   25.5750 N   0  0  0  0  0  0  0  0  0  0  0  0
    9.8908  -15.1644   26.5451 C   0  0  0  0  0  0  0  0  0  0  0  0
    9.9745  -16.0426   27.4408 O   0  0  0  0  0  0  0  0  0  0  0  0
   11.0527  -14.4699   26.2390 O   0  0  0  0  0  0  0  0  0  0  0  0
  2  1  1  0
  3  4  2  0
  3  2  1  0
  6  5  1  6
  6  8  1  0
  7  6  1  0
  8  9  1  6
  9  3  1  0
 10  8  1  0
 10 17  1  0
 11 10  2  0
 12 13  1  0
 13 14  1  0
 14 16  1  0
 14 15  1  6
 16 17  1  1
 16 18  1  0
 18 19  2  0
 18 20  1  0
M  END
$$$$
