GTI.pdb
     RDKit          3D

 20 19  0  0  1  0  0  0  0  0999 V2000
    8.3743  -13.0328   17.4965 N   0  0  0  0  0  0  0  0  0  0  0  0
    9.0718  -13.5674   18.6294 C   0  0  0  0  0  0  0  0  0  0  0  0
    8.1228  -14.0122   19.7077 C   0  0  0  0  0  0  0  0  0  0  0  0
    6.9117  -13.7087   19.6820 O   0  0  0  0  0  0  0  0  0  0  0  0
    7.3896  -17.3245   20.3727 C   0  0  0  0  0  0  0  0  0  0  0  0
    7.9072  -16.8581   21.7183 C   0  0  1  0  0  0  0  0  0  0  0  0
    9.2372  -17.2502   21.8446 O   0  0  0  0  0  0  0  0  0  0  0  0
    7.8018  -15.3337   21.8356 C   0  0  2  0  0  0  0  0  0  0  0  0
    8.6081  -14.7895   20.7729 N   0  0  0  0  0  0  0  0  0  0  0  0
    8.3978  -14.9358   23.1286 C   0  0  0  0  0  0  0  0  0  0  0  0
    9.5930  -14.5579   23.1371 O   0  0  0  0  0  0  0  0  0  0  0  0
    5.6165  -11.7905   26.2768 C   0  0  0  0  0  0  0  0  0  0  0  0
    6.7301  -12.4712   25.5072 C   0  0  0  0  0  0  0  0  0  0  0  0
    7.2000  -13.6362   26.3385 C   0  0  2  0  0  0  0  0  0  0  0  0
    7.8722  -13.0900   27.5744 C   0  0  0  0  0  0  0  0  0  0  0  0
    8.2041  -14.5030   25.6209 C   0  0  2  0  0  0  0  0  0  0  0  0
    7.6816  -14.9626   24.3520 N   0  0  0  0  0  0  0  0  0  0  0  0
    8.6909  -15.6192   26.4549 C   0  0  0  0  0  0  0  0  0  0  0  0
    8.0994  -16.7283   26.4340 O   0  0  0  0  0  0  0  0  0  0  0  0
    9.7966  -15.5152   27.2870 O   0  0  0  0  0  0  0  0  0  0  0  0
  2  1  1  0
  3  4  2  0
  3  2  1  0
  6  5  1  6
  6  8  1  0
  7  6  1  0
  8  9  1  6
  9  3  1  0
 10  8  1  0
 10 17  1  0
 11 10  2  0
 12 13  1  0
 13 14  1  0
 14 16  1  0
 14 15  1  1
 16 17  1  6
 16 18  1  0
 18 19  2  0
 18 20  1  0
M  END
$$$$
