GTI.pdb
     RDKit          3D

 20 19  0  0  1  0  0  0  0  0999 V2000
   12.4547  -16.9920   19.6512 N   0  0  0  0  0  0  0  0  0  0  0  0
   11.2273  -17.2879   20.3307 C   0  0  0  0  0  0  0  0  0  0  0  0
   10.5703  -16.0432   20.8598 C   0  0  0  0  0  0  0  0  0  0  0  0
   11.1752  -14.9516   20.9077 O   0  0  0  0  0  0  0  0  0  0  0  0
    7.0034  -14.8508   19.8819 C   0  0  0  0  0  0  0  0  0  0  0  0
    7.0681  -15.1388   21.3682 C   0  0  1  0  0  0  0  0  0  0  0  0
    6.6066  -16.4332   21.5920 O   0  0  0  0  0  0  0  0  0  0  0  0
    8.5066  -15.0046   21.8794 C   0  0  2  0  0  0  0  0  0  0  0  0
    9.2417  -16.1064   21.3128 N   0  0  0  0  0  0  0  0  0  0  0  0
    8.4823  -15.1621   23.3491 C   0  0  0  0  0  0  0  0  0  0  0  0
    9.1402  -16.1024   23.8537 O   0  0  0  0  0  0  0  0  0  0  0  0
    6.1986  -10.9819   26.1502 C   0  0  0  0  0  0  0  0  0  0  0  0
    7.3284  -11.9369   25.8228 C   0  0  0  0  0  0  0  0  0  0  0  0
    6.8932  -13.3107   26.2613 C   0  0  2  0  0  0  0  0  0  0  0  0
    7.0542  -13.3981   27.7594 C   0  0  0  0  0  0  0  0  0  0  0  0
    7.7222  -14.4126   25.6505 C   0  0  2  0  0  0  0  0  0  0  0  0
    7.7524  -14.3019   24.2079 N   0  0  0  0  0  0  0  0  0  0  0  0
    7.2981  -15.7553   26.0930 C   0  0  0  0  0  0  0  0  0  0  0  0
    6.2583  -16.2780   25.6176 O   0  0  0  0  0  0  0  0  0  0  0  0
    7.9996  -16.4990   27.0314 O   0  0  0  0  0  0  0  0  0  0  0  0
  2  1  1  0
  3  4  2  0
  3  2  1  0
  6  5  1  6
  6  8  1  0
  7  6  1  0
  8  9  1  6
  9  3  1  0
 10  8  1  0
 10 17  1  0
 11 10  2  0
 12 13  1  0
 13 14  1  0
 14 16  1  0
 14 15  1  1
 16 17  1  6
 16 18  1  0
 18 19  2  0
 18 20  1  0
M  END
$$$$
