GTI.pdb
     RDKit          3D

 20 19  0  0  1  0  0  0  0  0999 V2000
    8.7469  -16.7606   17.5649 N   0  0  0  0  0  0  0  0  0  0  0  0
    9.2458  -16.8922   18.9027 C   0  0  0  0  0  0  0  0  0  0  0  0
    8.2213  -16.4763   19.9218 C   0  0  0  0  0  0  0  0  0  0  0  0
    7.1812  -15.8668   19.5956 O   0  0  0  0  0  0  0  0  0  0  0  0
    6.2787  -18.5660   21.9228 C   0  0  0  0  0  0  0  0  0  0  0  0
    7.0662  -17.7757   22.9481 C   0  0  1  0  0  0  0  0  0  0  0  0
    8.1653  -18.5323   23.3459 O   0  0  0  0  0  0  0  0  0  0  0  0
    7.5397  -16.4451   22.3532 C   0  0  2  0  0  0  0  0  0  0  0  0
    8.4368  -16.7797   21.2767 N   0  0  0  0  0  0  0  0  0  0  0  0
    8.3037  -15.7281   23.3960 C   0  0  0  0  0  0  0  0  0  0  0  0
    9.5534  -15.8263   23.3858 O   0  0  0  0  0  0  0  0  0  0  0  0
    5.8100  -11.8803   26.9355 C   0  0  0  0  0  0  0  0  0  0  0  0
    6.3201  -13.2033   26.4014 C   0  0  0  0  0  0  0  0  0  0  0  0
    7.6820  -12.9506   25.8095 C   0  0  2  0  0  0  0  0  0  0  0  0
    7.5029  -12.1398   24.5492 C   0  0  0  0  0  0  0  0  0  0  0  0
    8.4042  -14.2203   25.4338 C   0  0  2  0  0  0  0  0  0  0  0  0
    7.6892  -14.9390   24.4010 N   0  0  0  0  0  0  0  0  0  0  0  0
    8.6960  -15.0752   26.6010 C   0  0  0  0  0  0  0  0  0  0  0  0
    9.4773  -14.6724   27.4997 O   0  0  0  0  0  0  0  0  0  0  0  0
    8.1427  -16.3364   26.7718 O   0  0  0  0  0  0  0  0  0  0  0  0
  2  1  1  0
  3  4  2  0
  3  2  1  0
  6  5  1  6
  6  8  1  0
  7  6  1  0
  8  9  1  6
  9  3  1  0
 10  8  1  0
 10 17  1  0
 11 10  2  0
 12 13  1  0
 13 14  1  0
 14 16  1  0
 14 15  1  6
 16 17  1  6
 16 18  1  0
 18 19  2  0
 18 20  1  0
M  END
$$$$
