GTI.pdb
     RDKit          3D

 20 19  0  0  1  0  0  0  0  0999 V2000
    5.4300  -18.9927   19.1963 N   0  0  0  0  0  0  0  0  0  0  0  0
    6.4028  -18.2415   19.9346 C   0  0  0  0  0  0  0  0  0  0  0  0
    5.9513  -17.9813   21.3451 C   0  0  0  0  0  0  0  0  0  0  0  0
    4.7494  -18.0617   21.6747 O   0  0  0  0  0  0  0  0  0  0  0  0
    6.0711  -19.8178   23.9754 C   0  0  0  0  0  0  0  0  0  0  0  0
    6.9484  -18.6809   24.4590 C   0  0  1  0  0  0  0  0  0  0  0  0
    8.2806  -19.0219   24.2410 O   0  0  0  0  0  0  0  0  0  0  0  0
    6.6140  -17.3873   23.7084 C   0  0  2  0  0  0  0  0  0  0  0  0
    6.9037  -17.6388   22.3198 N   0  0  0  0  0  0  0  0  0  0  0  0
    7.5269  -16.3313   24.1951 C   0  0  0  0  0  0  0  0  0  0  0  0
    8.5016  -16.0139   23.4735 O   0  0  0  0  0  0  0  0  0  0  0  0
    5.5480  -12.0256   26.6942 C   0  0  0  0  0  0  0  0  0  0  0  0
    6.4180  -12.8783   25.7932 C   0  0  0  0  0  0  0  0  0  0  0  0
    7.4293  -13.5677   26.6712 C   0  0  2  0  0  0  0  0  0  0  0  0
    8.4077  -12.5298   27.1644 C   0  0  0  0  0  0  0  0  0  0  0  0
    8.2187  -14.6247   25.9402 C   0  0  2  0  0  0  0  0  0  0  0  0
    7.3498  -15.6658   25.4345 N   0  0  0  0  0  0  0  0  0  0  0  0
    9.3232  -15.1725   26.7516 C   0  0  0  0  0  0  0  0  0  0  0  0
    9.1352  -16.1839   27.4741 O   0  0  0  0  0  0  0  0  0  0  0  0
   10.5967  -14.6213   26.7657 O   0  0  0  0  0  0  0  0  0  0  0  0
  2  1  1  0
  3  4  2  0
  3  2  1  0
  6  5  1  6
  6  8  1  0
  7  6  1  0
  8  9  1  6
  9  3  1  0
 10  8  1  0
 10 17  1  0
 11 10  2  0
 12 13  1  0
 13 14  1  0
 14 16  1  0
 14 15  1  6
 16 17  1  1
 16 18  1  0
 18 19  2  0
 18 20  1  0
M  END
$$$$
