GTI.pdb
     RDKit          3D

 20 19  0  0  1  0  0  0  0  0999 V2000
   12.2318  -17.3632   19.3385 N   0  0  0  0  0  0  0  0  0  0  0  0
   11.2222  -17.5891   20.3313 C   0  0  0  0  0  0  0  0  0  0  0  0
   10.5914  -16.3020   20.7860 C   0  0  0  0  0  0  0  0  0  0  0  0
   11.2065  -15.2162   20.7358 O   0  0  0  0  0  0  0  0  0  0  0  0
    6.8751  -15.3741   19.9261 C   0  0  0  0  0  0  0  0  0  0  0  0
    7.0849  -15.4013   21.4266 C   0  0  1  0  0  0  0  0  0  0  0  0
    6.6807  -16.6425   21.9109 O   0  0  0  0  0  0  0  0  0  0  0  0
    8.5605  -15.1663   21.7672 C   0  0  2  0  0  0  0  0  0  0  0  0
    9.2764  -16.3179   21.2805 N   0  0  0  0  0  0  0  0  0  0  0  0
    8.6851  -15.1232   23.2396 C   0  0  0  0  0  0  0  0  0  0  0  0
    9.4514  -15.9471   23.7923 O   0  0  0  0  0  0  0  0  0  0  0  0
    6.8699  -11.4117   27.8798 C   0  0  0  0  0  0  0  0  0  0  0  0
    7.5189  -12.7295   27.5084 C   0  0  0  0  0  0  0  0  0  0  0  0
    7.3828  -12.8896   26.0168 C   0  0  2  0  0  0  0  0  0  0  0  0
    5.9167  -13.0441   25.6933 C   0  0  0  0  0  0  0  0  0  0  0  0
    8.0952  -14.1097   25.4892 C   0  0  2  0  0  0  0  0  0  0  0  0
    7.9803  -14.1969   24.0492 N   0  0  0  0  0  0  0  0  0  0  0  0
    7.6613  -15.3537   26.1545 C   0  0  0  0  0  0  0  0  0  0  0  0
    6.6589  -15.9815   25.7286 O   0  0  0  0  0  0  0  0  0  0  0  0
    8.3134  -15.8891   27.2564 O   0  0  0  0  0  0  0  0  0  0  0  0
  2  1  1  0
  3  4  2  0
  3  2  1  0
  6  5  1  6
  6  8  1  0
  7  6  1  0
  8  9  1  1
  9  3  1  0
 10  8  1  0
 10 17  1  0
 11 10  2  0
 12 13  1  0
 13 14  1  0
 14 16  1  0
 14 15  1  1
 16 17  1  6
 16 18  1  0
 18 19  2  0
 18 20  1  0
M  END
$$$$
