ENI.pdb
     RDKit          3D

 26 25  0  0  1  0  0  0  0  0999 V2000
    7.9514  -18.3891   21.2789 N   0  0  0  0  0  0  0  0  0  0  0  0
    9.3172  -18.3018   20.8524 C   0  0  1  0  0  0  0  0  0  0  0  0
    9.5072  -18.7437   19.4198 C   0  0  0  0  0  0  0  0  0  0  0  0
   10.1548  -20.0863   19.3224 C   0  0  0  0  0  0  0  0  0  0  0  0
   10.7854  -20.2517   17.9914 C   0  0  0  0  0  0  0  0  0  0  0  0
   10.3970  -21.1668   17.2391 O   0  0  0  0  0  0  0  0  0  0  0  0
    9.7713  -16.9004   20.9775 C   0  0  0  0  0  0  0  0  0  0  0  0
   10.9348  -16.5639   20.6657 O   0  0  0  0  0  0  0  0  0  0  0  0
   11.8138  -19.3751   17.5926 O   0  0  0  0  0  0  0  0  0  0  0  0
    6.3814  -12.6910   20.1655 N   0  0  0  0  0  0  0  0  0  0  0  0
    7.1729  -13.7230   20.7641 C   0  0  0  0  0  0  0  0  0  0  0  0
    6.5831  -14.6923   21.2902 O   0  0  0  0  0  0  0  0  0  0  0  0
    8.6437  -13.5776   20.7226 C   0  0  0  0  0  0  0  0  0  0  0  0
    9.3192  -14.5513   21.6242 C   0  0  2  0  0  0  0  0  0  0  0  0
    8.8776  -15.9177   21.4583 N   0  0  0  0  0  0  0  0  0  0  0  0
    9.0468  -14.1138   23.0340 C   0  0  0  0  0  0  0  0  0  0  0  0
    9.3396  -12.9453   23.3903 O   0  0  0  0  0  0  0  0  0  0  0  0
    6.2579  -11.8590   25.5966 C   0  0  0  0  0  0  0  0  0  0  0  0
    7.4796  -12.6310   25.1076 C   0  0  0  0  0  0  0  0  0  0  0  0
    7.5399  -13.9188   25.8721 C   0  0  2  0  0  0  0  0  0  0  0  0
    7.6410  -13.6697   27.3678 C   0  0  0  0  0  0  0  0  0  0  0  0
    8.6537  -14.7775   25.3702 C   0  0  2  0  0  0  0  0  0  0  0  0
    8.4659  -15.0198   23.9405 N   0  0  0  0  0  0  0  0  0  0  0  0
    8.7674  -16.0506   26.0986 C   0  0  0  0  0  0  0  0  0  0  0  0
    9.3828  -16.2590   27.3072 O   0  0  0  0  0  0  0  0  0  0  0  0
    8.2434  -17.0907   25.5639 O   0  0  0  0  0  0  0  0  0  0  0  0
  2  7  1  0
  2  1  1  6
  3  2  1  0
  4  3  1  0
  5  4  1  0
  5  6  2  0
  7  8  2  0
  9  5  1  0
 10 11  1  0
 11 13  1  0
 12 11  2  0
 14 13  1  6
 15 14  1  0
 15  7  1  0
 16 17  2  0
 16 14  1  0
 19 18  1  0
 19 20  1  0
 20 22  1  0
 20 21  1  1
 22 24  1  0
 22 23  1  6
 23 16  1  0
 24 25  1  0
 26 24  2  0
M  END
$$$$
