ENI.pdb
     RDKit          3D

 26 25  0  0  1  0  0  0  0  0999 V2000
    8.1819  -13.5199   20.9252 N   0  0  0  0  0  0  0  0  0  0  0  0
    7.2062  -14.5480   20.7117 C   0  0  1  0  0  0  0  0  0  0  0  0
    7.2259  -15.0825   19.2983 C   0  0  0  0  0  0  0  0  0  0  0  0
    8.6014  -15.4601   18.8547 C   0  0  0  0  0  0  0  0  0  0  0  0
    8.5567  -16.0279   17.4864 C   0  0  0  0  0  0  0  0  0  0  0  0
    7.9681  -17.1093   17.2909 O   0  0  0  0  0  0  0  0  0  0  0  0
    7.4738  -15.6655   21.6420 C   0  0  0  0  0  0  0  0  0  0  0  0
    6.7325  -16.6722   21.6789 O   0  0  0  0  0  0  0  0  0  0  0  0
    9.1785  -15.3407   16.4251 O   0  0  0  0  0  0  0  0  0  0  0  0
    8.5210  -19.2570   22.0368 N   0  0  0  0  0  0  0  0  0  0  0  0
    9.6921  -18.4456   21.8967 C   0  0  0  0  0  0  0  0  0  0  0  0
   10.3637  -18.5506   20.8469 O   0  0  0  0  0  0  0  0  0  0  0  0
   10.0358  -17.5306   23.0063 C   0  0  0  0  0  0  0  0  0  0  0  0
    8.8726  -16.6936   23.4104 C   0  0  2  0  0  0  0  0  0  0  0  0
    8.5873  -15.6003   22.5087 N   0  0  0  0  0  0  0  0  0  0  0  0
    9.1749  -16.1416   24.7731 C   0  0  0  0  0  0  0  0  0  0  0  0
    9.5550  -16.9148   25.6872 O   0  0  0  0  0  0  0  0  0  0  0  0
    6.0549  -12.1964   26.2173 C   0  0  0  0  0  0  0  0  0  0  0  0
    7.3346  -12.8404   25.6926 C   0  0  0  0  0  0  0  0  0  0  0  0
    7.9627  -13.5935   26.8262 C   0  0  2  0  0  0  0  0  0  0  0  0
    8.2054  -12.6894   28.0233 C   0  0  0  0  0  0  0  0  0  0  0  0
    9.2124  -14.2760   26.3766 C   0  0  2  0  0  0  0  0  0  0  0  0
    9.0284  -14.7622   25.0099 N   0  0  0  0  0  0  0  0  0  0  0  0
    9.6147  -15.3767   27.2660 C   0  0  0  0  0  0  0  0  0  0  0  0
    9.1138  -16.6541   27.2785 O   0  0  0  0  0  0  0  0  0  0  0  0
   10.5294  -15.1382   28.1313 O   0  0  0  0  0  0  0  0  0  0  0  0
  2  7  1  0
  2  1  1  6
  3  2  1  0
  4  3  1  0
  5  4  1  0
  5  6  2  0
  7  8  2  0
  9  5  1  0
 10 11  1  0
 11 13  1  0
 12 11  2  0
 14 13  1  6
 15 14  1  0
 15  7  1  0
 16 17  2  0
 16 14  1  0
 19 18  1  0
 19 20  1  0
 20 22  1  0
 20 21  1  1
 22 24  1  0
 22 23  1  6
 23 16  1  0
 24 25  1  0
 26 24  2  0
M  END
$$$$
