ENI.pdb
     RDKit          3D

 26 25  0  0  1  0  0  0  0  0999 V2000
    9.3710  -12.8286   19.3640 N   0  0  0  0  0  0  0  0  0  0  0  0
    7.9936  -13.2257   19.3734 C   0  0  1  0  0  0  0  0  0  0  0  0
    7.5326  -13.7534   18.0345 C   0  0  0  0  0  0  0  0  0  0  0  0
    8.6262  -14.4507   17.2934 C   0  0  0  0  0  0  0  0  0  0  0  0
    8.1091  -14.9923   16.0144 C   0  0  0  0  0  0  0  0  0  0  0  0
    7.2547  -15.8999   16.0344 O   0  0  0  0  0  0  0  0  0  0  0  0
    7.8055  -14.2847   20.3876 C   0  0  0  0  0  0  0  0  0  0  0  0
    6.6835  -14.7990   20.5899 O   0  0  0  0  0  0  0  0  0  0  0  0
    8.5878  -14.4765   14.7938 O   0  0  0  0  0  0  0  0  0  0  0  0
   10.0832  -17.8774   19.6803 N   0  0  0  0  0  0  0  0  0  0  0  0
    9.1125  -17.6885   20.7155 C   0  0  0  0  0  0  0  0  0  0  0  0
    7.9580  -18.1337   20.5336 O   0  0  0  0  0  0  0  0  0  0  0  0
    9.5372  -16.9760   21.9395 C   0  0  0  0  0  0  0  0  0  0  0  0
    8.7368  -15.7406   22.1636 C   0  0  2  0  0  0  0  0  0  0  0  0
    8.9113  -14.7286   21.1463 N   0  0  0  0  0  0  0  0  0  0  0  0
    9.1500  -15.1788   23.4927 C   0  0  0  0  0  0  0  0  0  0  0  0
   10.2369  -14.5573   23.5946 O   0  0  0  0  0  0  0  0  0  0  0  0
    6.4763  -11.8910   26.0641 C   0  0  0  0  0  0  0  0  0  0  0  0
    7.5188  -12.8236   25.4547 C   0  0  0  0  0  0  0  0  0  0  0  0
    7.8119  -13.8965   26.4594 C   0  0  2  0  0  0  0  0  0  0  0  0
    8.2795  -13.3054   27.7791 C   0  0  0  0  0  0  0  0  0  0  0  0
    8.7900  -14.8811   25.9083 C   0  0  2  0  0  0  0  0  0  0  0  0
    8.3130  -15.3557   24.6101 N   0  0  0  0  0  0  0  0  0  0  0  0
    9.0332  -16.0144   26.8144 C   0  0  0  0  0  0  0  0  0  0  0  0
   10.0042  -16.1071   27.7793 O   0  0  0  0  0  0  0  0  0  0  0  0
    8.2680  -17.0367   26.7068 O   0  0  0  0  0  0  0  0  0  0  0  0
  2  7  1  0
  2  1  1  6
  3  2  1  0
  4  3  1  0
  5  4  1  0
  5  6  2  0
  7  8  2  0
  9  5  1  0
 10 11  1  0
 11 13  1  0
 12 11  2  0
 14 13  1  6
 15 14  1  0
 15  7  1  0
 16 17  2  0
 16 14  1  0
 19 18  1  0
 19 20  1  0
 20 22  1  0
 20 21  1  1
 22 24  1  0
 22 23  1  6
 23 16  1  0
 24 25  1  0
 26 24  2  0
M  END
$$$$
