ENI.pdb
     RDKit          3D

 26 25  0  0  1  0  0  0  0  0999 V2000
    5.6404  -17.9596   19.7242 N   0  0  0  0  0  0  0  0  0  0  0  0
    6.7418  -17.3651   20.4230 C   0  0  1  0  0  0  0  0  0  0  0  0
    7.0354  -15.9586   19.9544 C   0  0  0  0  0  0  0  0  0  0  0  0
    7.5955  -15.9282   18.5699 C   0  0  0  0  0  0  0  0  0  0  0  0
    9.0006  -16.3994   18.5791 C   0  0  0  0  0  0  0  0  0  0  0  0
    9.5588  -16.6401   19.6675 O   0  0  0  0  0  0  0  0  0  0  0  0
    6.4294  -17.3251   21.8674 C   0  0  0  0  0  0  0  0  0  0  0  0
    5.2606  -17.1461   22.2749 O   0  0  0  0  0  0  0  0  0  0  0  0
    9.6876  -16.5693   17.3607 O   0  0  0  0  0  0  0  0  0  0  0  0
    8.1761  -19.2922   27.1366 N   0  0  0  0  0  0  0  0  0  0  0  0
    7.1024  -18.8537   26.2973 C   0  0  0  0  0  0  0  0  0  0  0  0
    6.0461  -18.4637   26.8416 O   0  0  0  0  0  0  0  0  0  0  0  0
    7.3103  -18.8895   24.8338 C   0  0  0  0  0  0  0  0  0  0  0  0
    7.1664  -17.5389   24.2237 C   0  0  2  0  0  0  0  0  0  0  0  0
    7.4677  -17.4917   22.8107 N   0  0  0  0  0  0  0  0  0  0  0  0
    8.0988  -16.6190   24.9567 C   0  0  0  0  0  0  0  0  0  0  0  0
    9.3335  -16.6771   24.7330 O   0  0  0  0  0  0  0  0  0  0  0  0
    5.7956  -12.0591   26.7314 C   0  0  0  0  0  0  0  0  0  0  0  0
    6.7446  -13.0108   26.0092 C   0  0  0  0  0  0  0  0  0  0  0  0
    7.6786  -13.5844   27.0315 C   0  0  2  0  0  0  0  0  0  0  0  0
    8.5579  -12.5065   27.6434 C   0  0  0  0  0  0  0  0  0  0  0  0
    8.4826  -14.6974   26.4445 C   0  0  2  0  0  0  0  0  0  0  0  0
    7.5770  -15.7011   25.8871 N   0  0  0  0  0  0  0  0  0  0  0  0
    9.4010  -15.3133   27.4149 C   0  0  0  0  0  0  0  0  0  0  0  0
   10.7257  -15.0111   27.6057 O   0  0  0  0  0  0  0  0  0  0  0  0
    8.9344  -16.2352   28.1730 O   0  0  0  0  0  0  0  0  0  0  0  0
  2  7  1  0
  2  1  1  6
  3  2  1  0
  4  3  1  0
  5  4  1  0
  5  6  2  0
  7  8  2  0
  9  5  1  0
 10 11  1  0
 11 13  1  0
 12 11  2  0
 14 13  1  1
 15 14  1  0
 15  7  1  0
 16 17  2  0
 16 14  1  0
 19 18  1  0
 19 20  1  0
 20 22  1  0
 20 21  1  6
 22 24  1  0
 22 23  1  1
 23 16  1  0
 24 25  1  0
 26 24  2  0
M  END
$$$$
