ENI.pdb
     RDKit          3D

 26 25  0  0  1  0  0  0  0  0999 V2000
    8.9359  -18.1742   20.9801 N   0  0  0  0  0  0  0  0  0  0  0  0
   10.2524  -17.6242   21.1179 C   0  0  1  0  0  0  0  0  0  0  0  0
   11.1212  -17.8881   19.9099 C   0  0  0  0  0  0  0  0  0  0  0  0
   10.3169  -18.2147   18.6942 C   0  0  0  0  0  0  0  0  0  0  0  0
   11.2148  -18.4627   17.5415 C   0  0  0  0  0  0  0  0  0  0  0  0
   10.7242  -18.6277   16.4074 O   0  0  0  0  0  0  0  0  0  0  0  0
   10.1449  -16.1624   21.3109 C   0  0  0  0  0  0  0  0  0  0  0  0
   11.1577  -15.4286   21.2963 O   0  0  0  0  0  0  0  0  0  0  0  0
   12.6089  -18.5090   17.7403 O   0  0  0  0  0  0  0  0  0  0  0  0
    8.0101  -12.4724   18.9921 N   0  0  0  0  0  0  0  0  0  0  0  0
    7.5170  -13.6038   19.7174 C   0  0  0  0  0  0  0  0  0  0  0  0
    7.1003  -14.5883   19.0682 O   0  0  0  0  0  0  0  0  0  0  0  0
    7.5311  -13.5376   21.1945 C   0  0  0  0  0  0  0  0  0  0  0  0
    8.7603  -14.1573   21.7620 C   0  0  2  0  0  0  0  0  0  0  0  0
    8.8758  -15.5772   21.5163 N   0  0  0  0  0  0  0  0  0  0  0  0
    8.7368  -13.9144   23.2430 C   0  0  0  0  0  0  0  0  0  0  0  0
    8.8608  -12.7446   23.6836 O   0  0  0  0  0  0  0  0  0  0  0  0
    6.1013  -11.9081   25.8658 C   0  0  0  0  0  0  0  0  0  0  0  0
    7.3506  -12.6224   25.3590 C   0  0  0  0  0  0  0  0  0  0  0  0
    7.3514  -14.0044   25.9390 C   0  0  2  0  0  0  0  0  0  0  0  0
    7.1462  -13.9723   27.4445 C   0  0  0  0  0  0  0  0  0  0  0  0
    8.5970  -14.7346   25.5584 C   0  0  2  0  0  0  0  0  0  0  0  0
    8.5759  -15.0023   24.1210 N   0  0  0  0  0  0  0  0  0  0  0  0
    8.7811  -15.9839   26.3132 C   0  0  0  0  0  0  0  0  0  0  0  0
    9.3836  -16.1285   27.5374 O   0  0  0  0  0  0  0  0  0  0  0  0
    8.3399  -17.0665   25.7882 O   0  0  0  0  0  0  0  0  0  0  0  0
  2  7  1  0
  2  1  1  6
  3  2  1  0
  4  3  1  0
  5  4  1  0
  5  6  2  0
  7  8  2  0
  9  5  1  0
 10 11  1  0
 11 13  1  0
 12 11  2  0
 14 13  1  6
 15 14  1  0
 15  7  1  0
 16 17  2  0
 16 14  1  0
 19 18  1  0
 19 20  1  0
 20 22  1  0
 20 21  1  1
 22 24  1  0
 22 23  1  6
 23 16  1  0
 24 25  1  0
 26 24  2  0
M  END
$$$$
