ENI.pdb
     RDKit          3D

 26 25  0  0  1  0  0  0  0  0999 V2000
    9.7228  -12.9409   19.3330 N   0  0  0  0  0  0  0  0  0  0  0  0
    8.3281  -13.2656   19.2673 C   0  0  1  0  0  0  0  0  0  0  0  0
    7.9191  -13.7974   17.9132 C   0  0  0  0  0  0  0  0  0  0  0  0
    9.0730  -14.3712   17.1579 C   0  0  0  0  0  0  0  0  0  0  0  0
    8.6078  -14.9329   15.8677 C   0  0  0  0  0  0  0  0  0  0  0  0
    9.3608  -15.6872   15.2210 O   0  0  0  0  0  0  0  0  0  0  0  0
    8.0248  -14.2913   20.2879 C   0  0  0  0  0  0  0  0  0  0  0  0
    6.8682  -14.7463   20.4284 O   0  0  0  0  0  0  0  0  0  0  0  0
    7.3233  -14.6086   15.3880 O   0  0  0  0  0  0  0  0  0  0  0  0
   11.9700  -17.7102   22.1551 N   0  0  0  0  0  0  0  0  0  0  0  0
   11.0121  -16.7177   21.7717 C   0  0  0  0  0  0  0  0  0  0  0  0
   11.4315  -15.6535   21.2660 O   0  0  0  0  0  0  0  0  0  0  0  0
    9.5814  -17.0140   21.9984 C   0  0  0  0  0  0  0  0  0  0  0  0
    8.7750  -15.7692   22.1301 C   0  0  2  0  0  0  0  0  0  0  0  0
    9.0577  -14.7707   21.1238 N   0  0  0  0  0  0  0  0  0  0  0  0
    9.0624  -15.1955   23.4870 C   0  0  0  0  0  0  0  0  0  0  0  0
   10.1533  -14.6088   23.6961 O   0  0  0  0  0  0  0  0  0  0  0  0
    6.0162  -11.8755   25.5772 C   0  0  0  0  0  0  0  0  0  0  0  0
    7.1955  -12.7527   25.1675 C   0  0  0  0  0  0  0  0  0  0  0  0
    7.3736  -13.7988   26.2260 C   0  0  2  0  0  0  0  0  0  0  0  0
    7.6594  -13.1717   27.5805 C   0  0  0  0  0  0  0  0  0  0  0  0
    8.4288  -14.7771   25.8272 C   0  0  2  0  0  0  0  0  0  0  0  0
    8.1043  -15.3224   24.5099 N   0  0  0  0  0  0  0  0  0  0  0  0
    8.6027  -15.8617   26.8060 C   0  0  0  0  0  0  0  0  0  0  0  0
    8.1234  -17.1440   26.7121 O   0  0  0  0  0  0  0  0  0  0  0  0
    9.2692  -15.6022   27.8692 O   0  0  0  0  0  0  0  0  0  0  0  0
  2  7  1  0
  2  1  1  6
  3  2  1  0
  4  3  1  0
  5  4  1  0
  5  6  2  0
  7  8  2  0
  9  5  1  0
 10 11  1  0
 11 13  1  0
 12 11  2  0
 14 13  1  6
 15 14  1  0
 15  7  1  0
 16 17  2  0
 16 14  1  0
 19 18  1  0
 19 20  1  0
 20 22  1  0
 20 21  1  1
 22 24  1  0
 22 23  1  6
 23 16  1  0
 24 25  1  0
 26 24  2  0
M  END
$$$$
