ENI.pdb
     RDKit          3D

 26 25  0  0  1  0  0  0  0  0999 V2000
    9.8289  -13.6250   19.3798 N   0  0  0  0  0  0  0  0  0  0  0  0
    8.4649  -13.4212   19.7709 C   0  0  1  0  0  0  0  0  0  0  0  0
    7.4925  -13.6849   18.6445 C   0  0  0  0  0  0  0  0  0  0  0  0
    8.1083  -13.4647   17.3015 C   0  0  0  0  0  0  0  0  0  0  0  0
    8.4041  -14.7665   16.6578 C   0  0  0  0  0  0  0  0  0  0  0  0
    9.5498  -14.9862   16.2182 O   0  0  0  0  0  0  0  0  0  0  0  0
    8.1454  -14.3305   20.8920 C   0  0  0  0  0  0  0  0  0  0  0  0
    6.9978  -14.3728   21.3876 O   0  0  0  0  0  0  0  0  0  0  0  0
    7.3896  -15.7384   16.5503 O   0  0  0  0  0  0  0  0  0  0  0  0
   11.4610  -17.2796   20.8141 N   0  0  0  0  0  0  0  0  0  0  0  0
   11.0208  -17.1734   22.1722 C   0  0  0  0  0  0  0  0  0  0  0  0
   11.8724  -16.9234   23.0534 O   0  0  0  0  0  0  0  0  0  0  0  0
    9.5813  -17.3667   22.4492 C   0  0  0  0  0  0  0  0  0  0  0  0
    8.8528  -16.0695   22.5095 C   0  0  2  0  0  0  0  0  0  0  0  0
    9.1521  -15.1703   21.4179 N   0  0  0  0  0  0  0  0  0  0  0  0
    9.2253  -15.4109   23.8058 C   0  0  0  0  0  0  0  0  0  0  0  0
   10.3772  -14.9312   23.9514 O   0  0  0  0  0  0  0  0  0  0  0  0
    6.0075  -11.9975   25.6740 C   0  0  0  0  0  0  0  0  0  0  0  0
    7.1912  -12.8661   25.2588 C   0  0  0  0  0  0  0  0  0  0  0  0
    7.5999  -13.6780   26.4505 C   0  0  2  0  0  0  0  0  0  0  0  0
    8.0236  -12.7877   27.6070 C   0  0  0  0  0  0  0  0  0  0  0  0
    8.6625  -14.6593   26.0799 C   0  0  2  0  0  0  0  0  0  0  0  0
    8.2778  -15.3390   24.8437 N   0  0  0  0  0  0  0  0  0  0  0  0
    8.9335  -15.6384   27.1441 C   0  0  0  0  0  0  0  0  0  0  0  0
    8.5885  -16.9664   27.1524 O   0  0  0  0  0  0  0  0  0  0  0  0
    9.5565  -15.2274   28.1858 O   0  0  0  0  0  0  0  0  0  0  0  0
  2  7  1  0
  2  1  1  6
  3  2  1  0
  4  3  1  0
  5  4  1  0
  5  6  2  0
  7  8  2  0
  9  5  1  0
 10 11  1  0
 11 13  1  0
 12 11  2  0
 14 13  1  6
 15 14  1  0
 15  7  1  0
 16 17  2  0
 16 14  1  0
 19 18  1  0
 19 20  1  0
 20 22  1  0
 20 21  1  1
 22 24  1  0
 22 23  1  6
 23 16  1  0
 24 25  1  0
 26 24  2  0
M  END
$$$$
