ENI.pdb
     RDKit          3D

 26 25  0  0  1  0  0  0  0  0999 V2000
    8.6278  -13.0657   18.7010 N   0  0  0  0  0  0  0  0  0  0  0  0
    8.9070  -14.4264   19.0549 C   0  0  1  0  0  0  0  0  0  0  0  0
   10.3872  -14.7303   19.0699 C   0  0  0  0  0  0  0  0  0  0  0  0
   11.2077  -13.5328   19.4221 C   0  0  0  0  0  0  0  0  0  0  0  0
   12.6478  -13.8832   19.4167 C   0  0  0  0  0  0  0  0  0  0  0  0
   13.3148  -13.7168   18.3767 O   0  0  0  0  0  0  0  0  0  0  0  0
    8.3568  -14.6958   20.4004 C   0  0  0  0  0  0  0  0  0  0  0  0
    7.7014  -13.8293   21.0200 O   0  0  0  0  0  0  0  0  0  0  0  0
   13.2448  -14.3990   20.5841 O   0  0  0  0  0  0  0  0  0  0  0  0
    7.8283  -19.3688   20.4871 N   0  0  0  0  0  0  0  0  0  0  0  0
    7.0593  -18.4679   21.2913 C   0  0  0  0  0  0  0  0  0  0  0  0
    5.8544  -18.2970   21.0026 O   0  0  0  0  0  0  0  0  0  0  0  0
    7.7402  -17.7933   22.4171 C   0  0  0  0  0  0  0  0  0  0  0  0
    7.8457  -16.3245   22.1968 C   0  0  2  0  0  0  0  0  0  0  0  0
    8.5726  -15.9550   21.0032 N   0  0  0  0  0  0  0  0  0  0  0  0
    8.5393  -15.7445   23.3948 C   0  0  0  0  0  0  0  0  0  0  0  0
    9.7946  -15.7274   23.4392 O   0  0  0  0  0  0  0  0  0  0  0  0
    6.0015  -11.8721   26.1686 C   0  0  0  0  0  0  0  0  0  0  0  0
    6.9839  -12.7343   25.3816 C   0  0  0  0  0  0  0  0  0  0  0  0
    7.5784  -13.7292   26.3319 C   0  0  2  0  0  0  0  0  0  0  0  0
    8.2830  -13.0375   27.4872 C   0  0  0  0  0  0  0  0  0  0  0  0
    8.4815  -14.6734   25.6090 C   0  0  2  0  0  0  0  0  0  0  0  0
    7.7732  -15.2262   24.4553 N   0  0  0  0  0  0  0  0  0  0  0  0
    8.9872  -15.7538   26.4701 C   0  0  0  0  0  0  0  0  0  0  0  0
   10.1863  -15.7867   27.1361 O   0  0  0  0  0  0  0  0  0  0  0  0
    8.2441  -16.7859   26.6276 O   0  0  0  0  0  0  0  0  0  0  0  0
  2  7  1  0
  2  1  1  1
  3  2  1  0
  4  3  1  0
  5  4  1  0
  5  6  2  0
  7  8  2  0
  9  5  1  0
 10 11  1  0
 11 13  1  0
 12 11  2  0
 14 13  1  1
 15 14  1  0
 15  7  1  0
 16 17  2  0
 16 14  1  0
 19 18  1  0
 19 20  1  0
 20 22  1  0
 20 21  1  1
 22 24  1  0
 22 23  1  6
 23 16  1  0
 24 25  1  0
 26 24  2  0
M  END
$$$$
