ENI.pdb
     RDKit          3D

 26 25  0  0  1  0  0  0  0  0999 V2000
    9.2569  -18.8084   19.3447 N   0  0  0  0  0  0  0  0  0  0  0  0
    9.0023  -17.3979   19.3704 C   0  0  1  0  0  0  0  0  0  0  0  0
    8.4544  -16.8829   18.0596 C   0  0  0  0  0  0  0  0  0  0  0  0
    9.1508  -17.4804   16.8808 C   0  0  0  0  0  0  0  0  0  0  0  0
    8.4723  -17.0718   15.6281 C   0  0  0  0  0  0  0  0  0  0  0  0
    7.2620  -17.3284   15.4753 O   0  0  0  0  0  0  0  0  0  0  0  0
    8.0224  -17.1058   20.4382 C   0  0  0  0  0  0  0  0  0  0  0  0
    6.8357  -16.8161   20.1698 O   0  0  0  0  0  0  0  0  0  0  0  0
    9.2011  -16.3997   14.6270 O   0  0  0  0  0  0  0  0  0  0  0  0
    8.4410  -19.8945   23.2200 N   0  0  0  0  0  0  0  0  0  0  0  0
    7.8845  -18.8940   24.0796 C   0  0  0  0  0  0  0  0  0  0  0  0
    8.2819  -18.8428   25.2644 O   0  0  0  0  0  0  0  0  0  0  0  0
    6.8708  -17.9801   23.5107 C   0  0  0  0  0  0  0  0  0  0  0  0
    7.4995  -16.8076   22.8421 C   0  0  2  0  0  0  0  0  0  0  0  0
    8.4289  -17.1531   21.7902 N   0  0  0  0  0  0  0  0  0  0  0  0
    8.2225  -16.0275   23.9011 C   0  0  0  0  0  0  0  0  0  0  0  0
    9.4769  -16.0670   23.9555 O   0  0  0  0  0  0  0  0  0  0  0  0
    5.5641  -11.7318   25.9432 C   0  0  0  0  0  0  0  0  0  0  0  0
    6.5799  -12.6506   25.2711 C   0  0  0  0  0  0  0  0  0  0  0  0
    7.2908  -13.4096   26.3506 C   0  0  2  0  0  0  0  0  0  0  0  0
    8.0001  -12.4701   27.3117 C   0  0  0  0  0  0  0  0  0  0  0  0
    8.2224  -14.4163   25.7604 C   0  0  2  0  0  0  0  0  0  0  0  0
    7.4847  -15.2603   24.8216 N   0  0  0  0  0  0  0  0  0  0  0  0
    8.8932  -15.2405   26.7779 C   0  0  0  0  0  0  0  0  0  0  0  0
   10.1152  -15.0067   27.3564 O   0  0  0  0  0  0  0  0  0  0  0  0
    8.2893  -16.2966   27.1804 O   0  0  0  0  0  0  0  0  0  0  0  0
  2  7  1  0
  2  1  1  6
  3  2  1  0
  4  3  1  0
  5  4  1  0
  5  6  2  0
  7  8  2  0
  9  5  1  0
 10 11  1  0
 11 13  1  0
 12 11  2  0
 14 13  1  1
 15 14  1  0
 15  7  1  0
 16 17  2  0
 16 14  1  0
 19 18  1  0
 19 20  1  0
 20 22  1  0
 20 21  1  6
 22 24  1  0
 22 23  1  6
 23 16  1  0
 24 25  1  0
 26 24  2  0
M  END
$$$$
