ENI.pdb
     RDKit          3D

 26 25  0  0  1  0  0  0  0  0999 V2000
    8.7836  -18.2376   19.0287 N   0  0  0  0  0  0  0  0  0  0  0  0
    9.0480  -18.8160   20.3134 C   0  0  1  0  0  0  0  0  0  0  0  0
   10.5041  -18.7182   20.7055 C   0  0  0  0  0  0  0  0  0  0  0  0
   11.1719  -17.5220   20.1102 C   0  0  0  0  0  0  0  0  0  0  0  0
   12.5846  -17.4547   20.5533 C   0  0  0  0  0  0  0  0  0  0  0  0
   13.4547  -18.0877   19.9238 O   0  0  0  0  0  0  0  0  0  0  0  0
    8.2374  -18.1153   21.3321 C   0  0  0  0  0  0  0  0  0  0  0  0
    7.4443  -17.2013   21.0156 O   0  0  0  0  0  0  0  0  0  0  0  0
   12.9270  -16.6781   21.6780 O   0  0  0  0  0  0  0  0  0  0  0  0
    5.8078  -19.9015   22.8272 N   0  0  0  0  0  0  0  0  0  0  0  0
    6.1564  -19.9483   24.2150 C   0  0  0  0  0  0  0  0  0  0  0  0
    5.6897  -20.8757   24.9123 O   0  0  0  0  0  0  0  0  0  0  0  0
    7.0499  -18.8931   24.7391 C   0  0  0  0  0  0  0  0  0  0  0  0
    7.4508  -17.9320   23.6748 C   0  0  2  0  0  0  0  0  0  0  0  0
    8.3569  -18.4809   22.6913 N   0  0  0  0  0  0  0  0  0  0  0  0
    8.1089  -16.7665   24.3541 C   0  0  0  0  0  0  0  0  0  0  0  0
    9.3621  -16.7122   24.4213 O   0  0  0  0  0  0  0  0  0  0  0  0
    6.6101  -11.1755   26.3598 C   0  0  0  0  0  0  0  0  0  0  0  0
    7.6659  -12.2713   26.2480 C   0  0  0  0  0  0  0  0  0  0  0  0
    6.9971  -13.4924   25.6929 C   0  0  2  0  0  0  0  0  0  0  0  0
    5.8240  -13.9219   26.5583 C   0  0  0  0  0  0  0  0  0  0  0  0
    7.9867  -14.5943   25.5028 C   0  0  2  0  0  0  0  0  0  0  0  0
    7.3123  -15.7474   24.9081 N   0  0  0  0  0  0  0  0  0  0  0  0
    8.6614  -14.9791   26.7523 C   0  0  0  0  0  0  0  0  0  0  0  0
    9.7505  -14.3714   27.3242 O   0  0  0  0  0  0  0  0  0  0  0  0
    8.1994  -15.9895   27.3909 O   0  0  0  0  0  0  0  0  0  0  0  0
  2  7  1  0
  2  1  1  6
  3  2  1  0
  4  3  1  0
  5  4  1  0
  5  6  2  0
  7  8  2  0
  9  5  1  0
 10 11  1  0
 11 13  1  0
 12 11  2  0
 14 13  1  1
 15 14  1  0
 15  7  1  0
 16 17  2  0
 16 14  1  0
 19 18  1  0
 19 20  1  0
 20 22  1  0
 20 21  1  1
 22 24  1  0
 22 23  1  1
 23 16  1  0
 24 25  1  0
 26 24  2  0
M  END
$$$$
