ENI.pdb
     RDKit          3D

 26 25  0  0  1  0  0  0  0  0999 V2000
    9.9172  -16.8819   19.3965 N   0  0  0  0  0  0  0  0  0  0  0  0
    8.7165  -16.1016   19.3318 C   0  0  1  0  0  0  0  0  0  0  0  0
    7.8203  -16.5095   18.1854 C   0  0  0  0  0  0  0  0  0  0  0  0
    8.5435  -17.3237   17.1630 C   0  0  0  0  0  0  0  0  0  0  0  0
    7.6107  -17.7350   16.0872 C   0  0  0  0  0  0  0  0  0  0  0  0
    7.5851  -17.0916   15.0197 O   0  0  0  0  0  0  0  0  0  0  0  0
    7.9682  -16.2651   20.5963 C   0  0  0  0  0  0  0  0  0  0  0  0
    6.8453  -15.7389   20.7597 O   0  0  0  0  0  0  0  0  0  0  0  0
    6.7659  -18.8454   16.2830 O   0  0  0  0  0  0  0  0  0  0  0  0
    5.9387  -18.6497   25.0419 N   0  0  0  0  0  0  0  0  0  0  0  0
    7.3542  -18.4841   24.9058 C   0  0  0  0  0  0  0  0  0  0  0  0
    8.0377  -18.3501   25.9446 O   0  0  0  0  0  0  0  0  0  0  0  0
    7.9217  -18.4817   23.5405 C   0  0  0  0  0  0  0  0  0  0  0  0
    7.8447  -17.1331   22.9141 C   0  0  2  0  0  0  0  0  0  0  0  0
    8.5276  -17.0295   21.6443 N   0  0  0  0  0  0  0  0  0  0  0  0
    8.4527  -16.1592   23.8808 C   0  0  0  0  0  0  0  0  0  0  0  0
    9.6987  -16.0008   23.9035 O   0  0  0  0  0  0  0  0  0  0  0  0
    6.7779  -11.1499   26.8518 C   0  0  0  0  0  0  0  0  0  0  0  0
    7.8598  -12.1966   26.6036 C   0  0  0  0  0  0  0  0  0  0  0  0
    7.2204  -13.3529   25.8960 C   0  0  2  0  0  0  0  0  0  0  0  0
    6.0380  -13.8961   26.6811 C   0  0  0  0  0  0  0  0  0  0  0  0
    8.2302  -14.4119   25.5986 C   0  0  2  0  0  0  0  0  0  0  0  0
    7.6178  -15.4343   24.7513 N   0  0  0  0  0  0  0  0  0  0  0  0
    8.7964  -15.0197   26.8129 C   0  0  0  0  0  0  0  0  0  0  0  0
    9.8397  -14.5431   27.5660 O   0  0  0  0  0  0  0  0  0  0  0  0
    8.2750  -16.1138   27.2291 O   0  0  0  0  0  0  0  0  0  0  0  0
  2  7  1  0
  2  1  1  1
  3  2  1  0
  4  3  1  0
  5  4  1  0
  5  6  2  0
  7  8  2  0
  9  5  1  0
 10 11  1  0
 11 13  1  0
 12 11  2  0
 14 13  1  1
 15 14  1  0
 15  7  1  0
 16 17  2  0
 16 14  1  0
 19 18  1  0
 19 20  1  0
 20 22  1  0
 20 21  1  1
 22 24  1  0
 22 23  1  6
 23 16  1  0
 24 25  1  0
 26 24  2  0
M  END
$$$$
