HGM.pdb
     RDKit          3D

 23 23  0  0  1  0  0  0  0  0999 V2000
    3.9153  -17.5697   22.6278 N   0  0  0  0  0  0  0  0  0  0  0  0
    4.6221  -18.4876   21.7896 C   0  0  1  0  0  0  0  0  0  0  0  0
    3.7180  -18.9049   20.6551 C   0  0  0  0  0  0  0  0  0  0  0  0
    2.4645  -19.5282   21.1119 C   0  0  0  0  0  0  0  0  0  0  0  0
    1.9811  -19.6001   22.3855 C   0  0  0  0  0  0  0  0  0  0  0  0
    0.8099  -20.2534   22.3504 N   0  0  0  0  0  0  0  0  0  0  0  0
    0.5705  -20.5808   21.0808 C   0  0  0  0  0  0  0  0  0  0  0  0
    1.5778  -20.1410   20.3162 N   0  0  0  0  0  0  0  0  0  0  0  0
    5.8813  -17.8624   21.2766 C   0  0  0  0  0  0  0  0  0  0  0  0
    6.7527  -18.5766   20.7081 O   0  0  0  0  0  0  0  0  0  0  0  0
    6.0706  -16.4636   21.4424 N   0  0  0  0  0  0  0  0  0  0  0  0
    7.2694  -15.8115   21.0246 C   0  0  0  0  0  0  0  0  0  0  0  0
    8.2101  -15.5408   22.1353 C   0  0  0  0  0  0  0  0  0  0  0  0
    9.3141  -14.9571   22.0106 O   0  0  0  0  0  0  0  0  0  0  0  0
    6.5192  -10.9678   27.6615 C   0  0  0  0  0  0  0  0  0  0  0  0
    5.9952  -12.4397   26.7760 S   0  0  0  0  0  0  0  0  0  0  0  0
    7.3733  -13.5166   26.3491 C   0  0  0  0  0  0  0  0  0  0  0  0
    7.1175  -14.2671   25.1014 C   0  0  0  0  0  0  0  0  0  0  0  0
    8.1627  -15.2118   24.6285 C   0  0  2  0  0  0  0  0  0  0  0  0
    7.8433  -15.9708   23.4459 N   0  0  0  0  0  0  0  0  0  0  0  0
    8.4671  -16.1434   25.7457 C   0  0  0  0  0  0  0  0  0  0  0  0
    7.9936  -17.2998   25.7162 O   0  0  0  0  0  0  0  0  0  0  0  0
    9.2639  -15.7672   26.8248 O   0  0  0  0  0  0  0  0  0  0  0  0
  2  1  1  1
  2  9  1  0
  3  2  1  0
  4  3  1  0
  5  4  2  0
  6  7  1  0
  6  5  1  0
  7  8  2  0
  8  4  1  0
  9 10  2  0
 11  9  1  0
 11 12  1  0
 12 13  1  0
 13 14  2  0
 16 15  1  0
 17 16  1  0
 18 17  1  0
 19 18  1  1
 20 19  1  0
 20 13  1  0
 21 19  1  0
 22 21  2  0
 23 21  1  0
M  END
$$$$
