HGM.pdb
     RDKit          3D

 23 23  0  0  1  0  0  0  0  0999 V2000
    7.3116  -17.5408   20.4490 N   0  0  0  0  0  0  0  0  0  0  0  0
    8.5160  -18.0333   19.8560 C   0  0  1  0  0  0  0  0  0  0  0  0
    8.4106  -17.8962   18.3564 C   0  0  0  0  0  0  0  0  0  0  0  0
    7.3083  -18.6830   17.7783 C   0  0  0  0  0  0  0  0  0  0  0  0
    6.4408  -19.5114   18.4280 C   0  0  0  0  0  0  0  0  0  0  0  0
    5.5970  -20.0256   17.5206 N   0  0  0  0  0  0  0  0  0  0  0  0
    5.9334  -19.5268   16.3313 C   0  0  0  0  0  0  0  0  0  0  0  0
    6.9795  -18.7044   16.4797 N   0  0  0  0  0  0  0  0  0  0  0  0
    9.7010  -17.2885   20.3859 C   0  0  0  0  0  0  0  0  0  0  0  0
   10.8629  -17.6007   20.0048 O   0  0  0  0  0  0  0  0  0  0  0  0
    9.4902  -16.2350   21.3163 N   0  0  0  0  0  0  0  0  0  0  0  0
   10.5765  -15.5067   21.8875 C   0  0  0  0  0  0  0  0  0  0  0  0
   10.4989  -15.3935   23.3616 C   0  0  0  0  0  0  0  0  0  0  0  0
   11.3544  -14.8222   24.0805 O   0  0  0  0  0  0  0  0  0  0  0  0
    6.6563  -11.1066   26.8048 C   0  0  0  0  0  0  0  0  0  0  0  0
    6.5130  -12.8742   26.5216 S   0  0  0  0  0  0  0  0  0  0  0  0
    8.0858  -13.6339   26.0853 C   0  0  0  0  0  0  0  0  0  0  0  0
    7.9476  -15.0871   25.8522 C   0  0  0  0  0  0  0  0  0  0  0  0
    9.1571  -15.8460   25.4404 C   0  0  2  0  0  0  0  0  0  0  0  0
    9.3736  -15.9729   24.0214 N   0  0  0  0  0  0  0  0  0  0  0  0
    9.0695  -17.1989   26.0492 C   0  0  0  0  0  0  0  0  0  0  0  0
    8.9339  -18.1918   25.3021 O   0  0  0  0  0  0  0  0  0  0  0  0
    9.1337  -17.3944   27.4270 O   0  0  0  0  0  0  0  0  0  0  0  0
  2  1  1  1
  2  9  1  0
  3  2  1  0
  4  3  1  0
  5  4  2  0
  6  7  1  0
  6  5  1  0
  7  8  2  0
  8  4  1  0
  9 10  2  0
 11  9  1  0
 11 12  1  0
 12 13  1  0
 13 14  2  0
 16 15  1  0
 17 16  1  0
 18 17  1  0
 19 18  1  6
 20 19  1  0
 20 13  1  0
 21 19  1  0
 22 21  2  0
 23 21  1  0
M  END
$$$$
