HGM.pdb
     RDKit          3D

 23 23  0  0  1  0  0  0  0  0999 V2000
    6.6922  -16.1097   20.1688 N   0  0  0  0  0  0  0  0  0  0  0  0
    7.5447  -17.0665   19.5345 C   0  0  1  0  0  0  0  0  0  0  0  0
    7.9020  -16.5615   18.1575 C   0  0  0  0  0  0  0  0  0  0  0  0
    8.2487  -15.1305   18.1366 C   0  0  0  0  0  0  0  0  0  0  0  0
    9.4754  -14.5638   18.3236 C   0  0  0  0  0  0  0  0  0  0  0  0
    9.3394  -13.2331   18.2219 N   0  0  0  0  0  0  0  0  0  0  0  0
    8.0544  -12.9782   17.9768 C   0  0  0  0  0  0  0  0  0  0  0  0
    7.3798  -14.1334   17.9229 N   0  0  0  0  0  0  0  0  0  0  0  0
    8.7707  -17.3013   20.3601 C   0  0  0  0  0  0  0  0  0  0  0  0
    9.6013  -18.1870   20.0162 O   0  0  0  0  0  0  0  0  0  0  0  0
    8.9752  -16.5137   21.5254 N   0  0  0  0  0  0  0  0  0  0  0  0
   10.1411  -16.6573   22.3358 C   0  0  0  0  0  0  0  0  0  0  0  0
   10.1341  -15.7908   23.5362 C   0  0  0  0  0  0  0  0  0  0  0  0
   10.2477  -14.5411   23.5162 O   0  0  0  0  0  0  0  0  0  0  0  0
    6.1275  -12.2473   27.9437 C   0  0  0  0  0  0  0  0  0  0  0  0
    6.9378  -13.0510   26.5570 S   0  0  0  0  0  0  0  0  0  0  0  0
    7.1220  -14.8255   26.7981 C   0  0  0  0  0  0  0  0  0  0  0  0
    7.8706  -15.4553   25.6899 C   0  0  0  0  0  0  0  0  0  0  0  0
    9.3045  -15.7775   25.9106 C   0  0  2  0  0  0  0  0  0  0  0  0
    9.9882  -16.4127   24.8126 N   0  0  0  0  0  0  0  0  0  0  0  0
    9.3914  -16.6450   27.1143 C   0  0  0  0  0  0  0  0  0  0  0  0
    9.5557  -17.8750   26.9639 O   0  0  0  0  0  0  0  0  0  0  0  0
    9.2955  -16.1293   28.4049 O   0  0  0  0  0  0  0  0  0  0  0  0
  2  1  1  1
  2  9  1  0
  3  2  1  0
  4  3  1  0
  5  4  2  0
  6  7  1  0
  6  5  1  0
  7  8  2  0
  8  4  1  0
  9 10  2  0
 11  9  1  0
 11 12  1  0
 12 13  1  0
 13 14  2  0
 16 15  1  0
 17 16  1  0
 18 17  1  0
 19 18  1  6
 20 19  1  0
 20 13  1  0
 21 19  1  0
 22 21  2  0
 23 21  1  0
M  END
$$$$
