HGM.pdb
     RDKit          3D

 23 23  0  0  1  0  0  0  0  0999 V2000
    6.3178  -16.7850   20.6922 N   0  0  0  0  0  0  0  0  0  0  0  0
    7.6943  -16.9716   20.3530 C   0  0  1  0  0  0  0  0  0  0  0  0
    7.8645  -16.7444   18.8704 C   0  0  0  0  0  0  0  0  0  0  0  0
    7.1085  -17.7025   18.0464 C   0  0  0  0  0  0  0  0  0  0  0  0
    6.3446  -18.7503   18.4700 C   0  0  0  0  0  0  0  0  0  0  0  0
    5.8371  -19.3600   17.3881 N   0  0  0  0  0  0  0  0  0  0  0  0
    6.2768  -18.7044   16.3143 C   0  0  0  0  0  0  0  0  0  0  0  0
    7.0554  -17.6887   16.7078 N   0  0  0  0  0  0  0  0  0  0  0  0
    8.5578  -16.0415   21.1460 C   0  0  0  0  0  0  0  0  0  0  0  0
    8.1301  -14.8953   21.4558 O   0  0  0  0  0  0  0  0  0  0  0  0
    9.8542  -16.4734   21.5370 N   0  0  0  0  0  0  0  0  0  0  0  0
   10.7869  -15.5890   22.1572 C   0  0  0  0  0  0  0  0  0  0  0  0
   10.5587  -15.4168   23.6098 C   0  0  0  0  0  0  0  0  0  0  0  0
   11.3407  -14.8217   24.3905 O   0  0  0  0  0  0  0  0  0  0  0  0
    6.4732  -11.1866   26.5993 C   0  0  0  0  0  0  0  0  0  0  0  0
    6.3769  -12.9735   26.4477 S   0  0  0  0  0  0  0  0  0  0  0  0
    7.9562  -13.7154   26.0042 C   0  0  0  0  0  0  0  0  0  0  0  0
    7.8915  -15.1922   26.0159 C   0  0  0  0  0  0  0  0  0  0  0  0
    9.0978  -15.9470   25.5874 C   0  0  2  0  0  0  0  0  0  0  0  0
    9.3660  -15.9636   24.1717 N   0  0  0  0  0  0  0  0  0  0  0  0
    8.9548  -17.3422   26.0790 C   0  0  0  0  0  0  0  0  0  0  0  0
    8.8115  -18.2654   25.2486 O   0  0  0  0  0  0  0  0  0  0  0  0
    8.9756  -17.6526   27.4370 O   0  0  0  0  0  0  0  0  0  0  0  0
  2  1  1  1
  2  9  1  0
  3  2  1  0
  4  3  1  0
  5  4  2  0
  6  7  1  0
  6  5  1  0
  7  8  2  0
  8  4  1  0
  9 10  2  0
 11  9  1  0
 11 12  1  0
 12 13  1  0
 13 14  2  0
 16 15  1  0
 17 16  1  0
 18 17  1  0
 19 18  1  6
 20 19  1  0
 20 13  1  0
 21 19  1  0
 22 21  2  0
 23 21  1  0
M  END
$$$$
