HGM.pdb
     RDKit          3D

 23 23  0  0  1  0  0  0  0  0999 V2000
    9.4476  -15.6687   18.5481 N   0  0  0  0  0  0  0  0  0  0  0  0
    8.4511  -14.8046   19.1005 C   0  0  1  0  0  0  0  0  0  0  0  0
    7.2682  -14.7658   18.1635 C   0  0  0  0  0  0  0  0  0  0  0  0
    7.6176  -14.3121   16.8069 C   0  0  0  0  0  0  0  0  0  0  0  0
    8.0035  -13.0636   16.4155 C   0  0  0  0  0  0  0  0  0  0  0  0
    8.2243  -13.0914   15.0925 N   0  0  0  0  0  0  0  0  0  0  0  0
    7.9806  -14.3319   14.6707 C   0  0  0  0  0  0  0  0  0  0  0  0
    7.6089  -15.0855   15.7130 N   0  0  0  0  0  0  0  0  0  0  0  0
    8.0480  -15.2766   20.4623 C   0  0  0  0  0  0  0  0  0  0  0  0
    7.2154  -14.6114   21.1383 O   0  0  0  0  0  0  0  0  0  0  0  0
    8.6173  -16.4758   20.9700 N   0  0  0  0  0  0  0  0  0  0  0  0
    8.3070  -16.9625   22.2752 C   0  0  0  0  0  0  0  0  0  0  0  0
    9.0098  -16.2362   23.3569 C   0  0  0  0  0  0  0  0  0  0  0  0
   10.1668  -15.7589   23.2629 O   0  0  0  0  0  0  0  0  0  0  0  0
    6.1402  -10.7060   26.3758 C   0  0  0  0  0  0  0  0  0  0  0  0
    6.5543  -12.3286   27.0247 S   0  0  0  0  0  0  0  0  0  0  0  0
    7.6927  -13.2289   25.9595 C   0  0  0  0  0  0  0  0  0  0  0  0
    8.0739  -14.5333   26.5415 C   0  0  0  0  0  0  0  0  0  0  0  0
    8.9472  -15.4276   25.7378 C   0  0  2  0  0  0  0  0  0  0  0  0
    8.3305  -16.0613   24.6000 N   0  0  0  0  0  0  0  0  0  0  0  0
    9.4874  -16.4691   26.6502 C   0  0  0  0  0  0  0  0  0  0  0  0
    9.0973  -17.6495   26.5203 O   0  0  0  0  0  0  0  0  0  0  0  0
   10.4150  -16.1700   27.6455 O   0  0  0  0  0  0  0  0  0  0  0  0
  2  1  1  6
  2  9  1  0
  3  2  1  0
  4  3  1  0
  5  4  2  0
  6  7  1  0
  6  5  1  0
  7  8  2  0
  8  4  1  0
  9 10  2  0
 11  9  1  0
 11 12  1  0
 12 13  1  0
 13 14  2  0
 16 15  1  0
 17 16  1  0
 18 17  1  0
 19 18  1  1
 20 19  1  0
 20 13  1  0
 21 19  1  0
 22 21  2  0
 23 21  1  0
M  END
$$$$
