HGM.pdb
     RDKit          3D

 23 23  0  0  1  0  0  0  0  0999 V2000
    9.4956  -20.2109   21.0518 N   0  0  0  0  0  0  0  0  0  0  0  0
    8.3918  -19.4484   20.5571 C   0  0  1  0  0  0  0  0  0  0  0  0
    7.3171  -20.3983   20.0866 C   0  0  0  0  0  0  0  0  0  0  0  0
    7.7591  -21.2769   18.9907 C   0  0  0  0  0  0  0  0  0  0  0  0
    8.2854  -22.5319   19.0846 C   0  0  0  0  0  0  0  0  0  0  0  0
    8.5486  -22.9673   17.8433 N   0  0  0  0  0  0  0  0  0  0  0  0
    8.1929  -22.0024   16.9954 C   0  0  0  0  0  0  0  0  0  0  0  0
    7.7088  -20.9645   17.6888 N   0  0  0  0  0  0  0  0  0  0  0  0
    7.8750  -18.5291   21.6190 C   0  0  0  0  0  0  0  0  0  0  0  0
    7.7296  -18.9499   22.7999 O   0  0  0  0  0  0  0  0  0  0  0  0
    7.5558  -17.1886   21.2712 N   0  0  0  0  0  0  0  0  0  0  0  0
    7.1266  -16.2397   22.2469 C   0  0  0  0  0  0  0  0  0  0  0  0
    8.1802  -15.8816   23.2233 C   0  0  0  0  0  0  0  0  0  0  0  0
    9.4133  -15.9328   22.9951 O   0  0  0  0  0  0  0  0  0  0  0  0
    6.3931  -10.1826   26.1044 C   0  0  0  0  0  0  0  0  0  0  0  0
    6.4503  -11.9557   26.3835 S   0  0  0  0  0  0  0  0  0  0  0  0
    8.1214  -12.6178   26.2811 C   0  0  0  0  0  0  0  0  0  0  0  0
    8.1540  -14.0704   26.5535 C   0  0  0  0  0  0  0  0  0  0  0  0
    8.7097  -14.9647   25.5049 C   0  0  2  0  0  0  0  0  0  0  0  0
    7.7739  -15.4458   24.5203 N   0  0  0  0  0  0  0  0  0  0  0  0
    9.3445  -16.1214   26.1889 C   0  0  0  0  0  0  0  0  0  0  0  0
    8.7582  -17.2253   26.1825 O   0  0  0  0  0  0  0  0  0  0  0  0
   10.5729  -16.0130   26.8370 O   0  0  0  0  0  0  0  0  0  0  0  0
  2  1  1  1
  2  9  1  0
  3  2  1  0
  4  3  1  0
  5  4  2  0
  6  7  1  0
  6  5  1  0
  7  8  2  0
  8  4  1  0
  9 10  2  0
 11  9  1  0
 11 12  1  0
 12 13  1  0
 13 14  2  0
 16 15  1  0
 17 16  1  0
 18 17  1  0
 19 18  1  1
 20 19  1  0
 20 13  1  0
 21 19  1  0
 22 21  2  0
 23 21  1  0
M  END
$$$$
