HGM.pdb
     RDKit          3D

 23 23  0  0  1  0  0  0  0  0999 V2000
    9.7624  -14.6412   19.2143 N   0  0  0  0  0  0  0  0  0  0  0  0
    8.5168  -15.1857   19.6578 C   0  0  1  0  0  0  0  0  0  0  0  0
    7.8293  -15.8434   18.4858 C   0  0  0  0  0  0  0  0  0  0  0  0
    7.7004  -14.9569   17.3171 C   0  0  0  0  0  0  0  0  0  0  0  0
    7.5474  -13.6014   17.3076 C   0  0  0  0  0  0  0  0  0  0  0  0
    7.4704  -13.1997   16.0300 N   0  0  0  0  0  0  0  0  0  0  0  0
    7.5734  -14.2836   15.2613 C   0  0  0  0  0  0  0  0  0  0  0  0
    7.7144  -15.3632   16.0405 N   0  0  0  0  0  0  0  0  0  0  0  0
    8.7403  -16.1604   20.7712 C   0  0  0  0  0  0  0  0  0  0  0  0
    7.7674  -16.8111   21.2432 O   0  0  0  0  0  0  0  0  0  0  0  0
   10.0567  -16.3341   21.2781 N   0  0  0  0  0  0  0  0  0  0  0  0
   10.3331  -17.2103   22.3701 C   0  0  0  0  0  0  0  0  0  0  0  0
   10.1329  -16.5809   23.6951 C   0  0  0  0  0  0  0  0  0  0  0  0
   10.7668  -16.8860   24.7344 O   0  0  0  0  0  0  0  0  0  0  0  0
    6.1844  -10.6390   27.3208 C   0  0  0  0  0  0  0  0  0  0  0  0
    6.2305  -11.8615   26.0061 S   0  0  0  0  0  0  0  0  0  0  0  0
    7.5218  -13.0918   26.2514 C   0  0  0  0  0  0  0  0  0  0  0  0
    7.8580  -13.7930   24.9942 C   0  0  0  0  0  0  0  0  0  0  0  0
    8.8980  -14.8534   25.0432 C   0  0  2  0  0  0  0  0  0  0  0  0
    9.1500  -15.5521   23.8083 N   0  0  0  0  0  0  0  0  0  0  0  0
    8.4974  -15.8297   26.0897 C   0  0  0  0  0  0  0  0  0  0  0  0
    8.7438  -15.5693   27.2872 O   0  0  0  0  0  0  0  0  0  0  0  0
    7.8557  -17.0260   25.7770 O   0  0  0  0  0  0  0  0  0  0  0  0
  2  1  1  6
  2  9  1  0
  3  2  1  0
  4  3  1  0
  5  4  2  0
  6  7  1  0
  6  5  1  0
  7  8  2  0
  8  4  1  0
  9 10  2  0
 11  9  1  0
 11 12  1  0
 12 13  1  0
 13 14  2  0
 16 15  1  0
 17 16  1  0
 18 17  1  0
 19 18  1  6
 20 19  1  0
 20 13  1  0
 21 19  1  0
 22 21  2  0
 23 21  1  0
M  END
$$$$
