HGM.pdb
     RDKit          3D

 23 23  0  0  1  0  0  0  0  0999 V2000
    9.8904  -15.3001   20.5261 N   0  0  0  0  0  0  0  0  0  0  0  0
    8.7333  -14.7403   21.1524 C   0  0  1  0  0  0  0  0  0  0  0  0
    7.5302  -15.0129   20.2824 C   0  0  0  0  0  0  0  0  0  0  0  0
    7.6413  -14.4229   18.9377 C   0  0  0  0  0  0  0  0  0  0  0  0
    8.2534  -13.2564   18.5836 C   0  0  0  0  0  0  0  0  0  0  0  0
    8.1178  -13.1004   17.2581 N   0  0  0  0  0  0  0  0  0  0  0  0
    7.4352  -14.1487   16.7981 C   0  0  0  0  0  0  0  0  0  0  0  0
    7.1397  -14.9629   17.8190 N   0  0  0  0  0  0  0  0  0  0  0  0
    8.5521  -15.3146   22.5224 C   0  0  0  0  0  0  0  0  0  0  0  0
    7.6081  -14.9092   23.2554 O   0  0  0  0  0  0  0  0  0  0  0  0
    9.4561  -16.3144   22.9731 N   0  0  0  0  0  0  0  0  0  0  0  0
    9.3196  -16.9307   24.2531 C   0  0  0  0  0  0  0  0  0  0  0  0
   10.0794  -16.2432   25.3216 C   0  0  0  0  0  0  0  0  0  0  0  0
   11.3278  -16.1156   25.3421 O   0  0  0  0  0  0  0  0  0  0  0  0
    6.2591  -11.3470   26.2081 C   0  0  0  0  0  0  0  0  0  0  0  0
    6.9126  -12.6897   27.2058 S   0  0  0  0  0  0  0  0  0  0  0  0
    8.7058  -12.8150   27.1064 C   0  0  0  0  0  0  0  0  0  0  0  0
    9.2391  -13.8193   28.0510 C   0  0  0  0  0  0  0  0  0  0  0  0
    9.9874  -14.9751   27.4919 C   0  0  2  0  0  0  0  0  0  0  0  0
    9.3479  -15.6819   26.4111 N   0  0  0  0  0  0  0  0  0  0  0  0
   10.2579  -15.9192   28.6073 C   0  0  0  0  0  0  0  0  0  0  0  0
    9.7776  -17.0721   28.5551 O   0  0  0  0  0  0  0  0  0  0  0  0
   11.0302  -15.5588   29.7093 O   0  0  0  0  0  0  0  0  0  0  0  0
  2  1  1  6
  2  9  1  0
  3  2  1  0
  4  3  1  0
  5  4  2  0
  6  7  1  0
  6  5  1  0
  7  8  2  0
  8  4  1  0
  9 10  2  0
 11  9  1  0
 11 12  1  0
 12 13  1  0
 13 14  2  0
 16 15  1  0
 17 16  1  0
 18 17  1  0
 19 18  1  1
 20 19  1  0
 20 13  1  0
 21 19  1  0
 22 21  2  0
 23 21  1  0
M  END
$$$$
