HGM.pdb
     RDKit          3D

 23 23  0  0  1  0  0  0  0  0999 V2000
    9.6096  -15.4108   19.4864 N   0  0  0  0  0  0  0  0  0  0  0  0
    8.4152  -14.8809   20.0671 C   0  0  1  0  0  0  0  0  0  0  0  0
    7.2463  -15.2304   19.1780 C   0  0  0  0  0  0  0  0  0  0  0  0
    7.3498  -14.6491   17.8290 C   0  0  0  0  0  0  0  0  0  0  0  0
    7.9420  -13.4748   17.4669 C   0  0  0  0  0  0  0  0  0  0  0  0
    7.8062  -13.3316   16.1399 N   0  0  0  0  0  0  0  0  0  0  0  0
    7.1431  -14.3953   15.6869 C   0  0  0  0  0  0  0  0  0  0  0  0
    6.8599  -15.2066   16.7136 N   0  0  0  0  0  0  0  0  0  0  0  0
    8.2237  -15.4199   21.4500 C   0  0  0  0  0  0  0  0  0  0  0  0
    7.2649  -15.0076   22.1594 O   0  0  0  0  0  0  0  0  0  0  0  0
    9.1352  -16.3944   21.9396 N   0  0  0  0  0  0  0  0  0  0  0  0
    8.9545  -17.0241   23.2075 C   0  0  0  0  0  0  0  0  0  0  0  0
    9.5699  -16.2781   24.3284 C   0  0  0  0  0  0  0  0  0  0  0  0
   10.7700  -15.9134   24.3708 O   0  0  0  0  0  0  0  0  0  0  0  0
    6.2370  -10.6384   25.9223 C   0  0  0  0  0  0  0  0  0  0  0  0
    6.7376  -11.9857   26.9991 S   0  0  0  0  0  0  0  0  0  0  0  0
    7.8947  -13.1126   26.2038 C   0  0  0  0  0  0  0  0  0  0  0  0
    8.3653  -14.1620   27.1325 C   0  0  0  0  0  0  0  0  0  0  0  0
    9.2474  -15.2285   26.5913 C   0  0  2  0  0  0  0  0  0  0  0  0
    8.7466  -15.9452   25.4459 N   0  0  0  0  0  0  0  0  0  0  0  0
    9.5222  -16.1881   27.6924 C   0  0  0  0  0  0  0  0  0  0  0  0
   10.1629  -15.7962   28.6916 O   0  0  0  0  0  0  0  0  0  0  0  0
    9.0876  -17.5108   27.6451 O   0  0  0  0  0  0  0  0  0  0  0  0
  2  1  1  6
  2  9  1  0
  3  2  1  0
  4  3  1  0
  5  4  2  0
  6  7  1  0
  6  5  1  0
  7  8  2  0
  8  4  1  0
  9 10  2  0
 11  9  1  0
 11 12  1  0
 12 13  1  0
 13 14  2  0
 16 15  1  0
 17 16  1  0
 18 17  1  0
 19 18  1  1
 20 19  1  0
 20 13  1  0
 21 19  1  0
 22 21  2  0
 23 21  1  0
M  END
$$$$
