HGM.pdb
     RDKit          3D

 23 23  0  0  1  0  0  0  0  0999 V2000
    6.3321  -15.6555   21.0539 N   0  0  0  0  0  0  0  0  0  0  0  0
    7.0886  -16.7061   20.4468 C   0  0  1  0  0  0  0  0  0  0  0  0
    7.0962  -16.4981   18.9517 C   0  0  0  0  0  0  0  0  0  0  0  0
    7.7250  -15.2299   18.5459 C   0  0  0  0  0  0  0  0  0  0  0  0
    7.5169  -13.9875   19.0694 C   0  0  0  0  0  0  0  0  0  0  0  0
    8.2940  -13.1196   18.4041 N   0  0  0  0  0  0  0  0  0  0  0  0
    8.9710  -13.8088   17.4859 C   0  0  0  0  0  0  0  0  0  0  0  0
    8.6290  -15.1008   17.5656 N   0  0  0  0  0  0  0  0  0  0  0  0
    8.4802  -16.7323   20.9969 C   0  0  0  0  0  0  0  0  0  0  0  0
    9.2021  -17.7546   20.8351 O   0  0  0  0  0  0  0  0  0  0  0  0
    8.9635  -15.5936   21.6968 N   0  0  0  0  0  0  0  0  0  0  0  0
   10.2203  -15.6032   22.3730 C   0  0  0  0  0  0  0  0  0  0  0  0
   10.0958  -15.5625   23.8476 C   0  0  0  0  0  0  0  0  0  0  0  0
   10.8334  -14.8906   24.6089 O   0  0  0  0  0  0  0  0  0  0  0  0
    6.3555  -11.4342   27.7656 C   0  0  0  0  0  0  0  0  0  0  0  0
    7.3244  -12.2908   26.5195 S   0  0  0  0  0  0  0  0  0  0  0  0
    6.6128  -13.8804   26.0632 C   0  0  0  0  0  0  0  0  0  0  0  0
    7.4225  -14.5698   25.0363 C   0  0  0  0  0  0  0  0  0  0  0  0
    8.1601  -15.7962   25.4367 C   0  0  2  0  0  0  0  0  0  0  0  0
    9.0653  -16.3403   24.4564 N   0  0  0  0  0  0  0  0  0  0  0  0
    7.1547  -16.8267   25.8057 C   0  0  0  0  0  0  0  0  0  0  0  0
    6.4418  -16.6430   26.8159 O   0  0  0  0  0  0  0  0  0  0  0  0
    6.9825  -17.9909   25.0603 O   0  0  0  0  0  0  0  0  0  0  0  0
  2  1  1  1
  2  9  1  0
  3  2  1  0
  4  3  1  0
  5  4  2  0
  6  7  1  0
  6  5  1  0
  7  8  2  0
  8  4  1  0
  9 10  2  0
 11  9  1  0
 11 12  1  0
 12 13  1  0
 13 14  2  0
 16 15  1  0
 17 16  1  0
 18 17  1  0
 19 18  1  6
 20 19  1  0
 20 13  1  0
 21 19  1  0
 22 21  2  0
 23 21  1  0
M  END
$$$$
