HGM.pdb
     RDKit          3D

 23 23  0  0  1  0  0  0  0  0999 V2000
    8.2267  -15.0899   20.1591 N   0  0  0  0  0  0  0  0  0  0  0  0
    9.2816  -15.9897   19.8097 C   0  0  1  0  0  0  0  0  0  0  0  0
   10.0309  -15.4243   18.6275 C   0  0  0  0  0  0  0  0  0  0  0  0
    9.1450  -14.8591   17.5959 C   0  0  0  0  0  0  0  0  0  0  0  0
    7.7939  -14.6817   17.6588 C   0  0  0  0  0  0  0  0  0  0  0  0
    7.3910  -14.1365   16.5011 N   0  0  0  0  0  0  0  0  0  0  0  0
    8.4699  -13.9783   15.7347 C   0  0  0  0  0  0  0  0  0  0  0  0
    9.5475  -14.4178   16.3967 N   0  0  0  0  0  0  0  0  0  0  0  0
   10.1935  -16.2033   20.9769 C   0  0  0  0  0  0  0  0  0  0  0  0
   11.0726  -17.1076   20.9321 O   0  0  0  0  0  0  0  0  0  0  0  0
   10.0484  -15.3746   22.1225 N   0  0  0  0  0  0  0  0  0  0  0  0
   10.8519  -15.5544   23.2881 C   0  0  0  0  0  0  0  0  0  0  0  0
   10.0618  -15.6886   24.5329 C   0  0  0  0  0  0  0  0  0  0  0  0
   10.5507  -15.7395   25.6877 O   0  0  0  0  0  0  0  0  0  0  0  0
    7.0179  -10.8396   27.2848 C   0  0  0  0  0  0  0  0  0  0  0  0
    6.3489  -12.4929   27.0740 S   0  0  0  0  0  0  0  0  0  0  0  0
    7.3037  -13.4815   25.9111 C   0  0  0  0  0  0  0  0  0  0  0  0
    6.8008  -14.8692   25.8281 C   0  0  0  0  0  0  0  0  0  0  0  0
    7.7829  -15.9528   25.5641 C   0  0  2  0  0  0  0  0  0  0  0  0
    8.6410  -15.7665   24.4214 N   0  0  0  0  0  0  0  0  0  0  0  0
    7.0240  -17.2212   25.4099 C   0  0  0  0  0  0  0  0  0  0  0  0
    6.9687  -17.7609   24.2837 O   0  0  0  0  0  0  0  0  0  0  0  0
    6.3726  -17.8272   26.4818 O   0  0  0  0  0  0  0  0  0  0  0  0
  2  1  1  1
  2  9  1  0
  3  2  1  0
  4  3  1  0
  5  4  2  0
  6  7  1  0
  6  5  1  0
  7  8  2  0
  8  4  1  0
  9 10  2  0
 11  9  1  0
 11 12  1  0
 12 13  1  0
 13 14  2  0
 16 15  1  0
 17 16  1  0
 18 17  1  0
 19 18  1  6
 20 19  1  0
 20 13  1  0
 21 19  1  0
 22 21  2  0
 23 21  1  0
M  END
$$$$
