HGM.pdb
     RDKit          3D

 23 23  0  0  1  0  0  0  0  0999 V2000
    9.3913  -16.0876   18.3520 N   0  0  0  0  0  0  0  0  0  0  0  0
    8.6275  -15.0894   19.0338 C   0  0  1  0  0  0  0  0  0  0  0  0
    7.3488  -14.8491   18.2683 C   0  0  0  0  0  0  0  0  0  0  0  0
    7.5761  -14.4793   16.8612 C   0  0  0  0  0  0  0  0  0  0  0  0
    8.1340  -13.3325   16.3769 C   0  0  0  0  0  0  0  0  0  0  0  0
    8.1485  -13.4096   15.0376 N   0  0  0  0  0  0  0  0  0  0  0  0
    7.6105  -14.5804   14.6968 C   0  0  0  0  0  0  0  0  0  0  0  0
    7.2575  -15.2414   15.8064 N   0  0  0  0  0  0  0  0  0  0  0  0
    8.3447  -15.5183   20.4394 C   0  0  0  0  0  0  0  0  0  0  0  0
    7.6446  -14.7865   21.1923 O   0  0  0  0  0  0  0  0  0  0  0  0
    8.8761  -16.7532   20.9007 N   0  0  0  0  0  0  0  0  0  0  0  0
    8.6488  -17.2207   22.2298 C   0  0  0  0  0  0  0  0  0  0  0  0
    9.0946  -16.2693   23.2729 C   0  0  0  0  0  0  0  0  0  0  0  0
   10.2603  -15.8156   23.3752 O   0  0  0  0  0  0  0  0  0  0  0  0
    6.3992  -10.6759   28.2399 C   0  0  0  0  0  0  0  0  0  0  0  0
    6.0730  -11.9952   27.0658 S   0  0  0  0  0  0  0  0  0  0  0  0
    7.5183  -13.0257   26.7652 C   0  0  0  0  0  0  0  0  0  0  0  0
    7.3028  -13.9582   25.6385 C   0  0  0  0  0  0  0  0  0  0  0  0
    8.4356  -14.8267   25.2250 C   0  0  2  0  0  0  0  0  0  0  0  0
    8.1366  -15.8311   24.2359 N   0  0  0  0  0  0  0  0  0  0  0  0
    8.9711  -15.4814   26.4470 C   0  0  0  0  0  0  0  0  0  0  0  0
    9.4715  -14.7707   27.3453 O   0  0  0  0  0  0  0  0  0  0  0  0
    8.9324  -16.8629   26.6220 O   0  0  0  0  0  0  0  0  0  0  0  0
  2  1  1  6
  2  9  1  0
  3  2  1  0
  4  3  1  0
  5  4  2  0
  6  7  1  0
  6  5  1  0
  7  8  2  0
  8  4  1  0
  9 10  2  0
 11  9  1  0
 11 12  1  0
 12 13  1  0
 13 14  2  0
 16 15  1  0
 17 16  1  0
 18 17  1  0
 19 18  1  1
 20 19  1  0
 20 13  1  0
 21 19  1  0
 22 21  2  0
 23 21  1  0
M  END
$$$$
