NQG.pdb
     RDKit          3D

 22 21  0  0  1  0  0  0  0  0999 V2000
    7.4624  -13.5157   15.0536 N   0  0  0  0  0  0  0  0  0  0  0  0
    8.8121  -13.8224   15.3594 C   0  0  0  0  0  0  0  0  0  0  0  0
    9.5130  -14.4543   14.5423 O   0  0  0  0  0  0  0  0  0  0  0  0
    9.3815  -13.3876   16.6532 C   0  0  0  0  0  0  0  0  0  0  0  0
   10.1523  -14.5209   17.2525 C   0  0  2  0  0  0  0  0  0  0  0  0
    9.3514  -15.7013   17.3109 N   0  0  0  0  0  0  0  0  0  0  0  0
   10.6883  -14.2374   18.5912 C   0  0  0  0  0  0  0  0  0  0  0  0
   11.4467  -13.2520   18.7453 O   0  0  0  0  0  0  0  0  0  0  0  0
    7.4298  -12.5973   23.7028 N   0  0  0  0  0  0  0  0  0  0  0  0
    7.6960  -13.7210   22.8559 C   0  0  0  0  0  0  0  0  0  0  0  0
    7.0337  -14.7772   22.9405 O   0  0  0  0  0  0  0  0  0  0  0  0
    8.7914  -13.6399   21.8416 C   0  0  0  0  0  0  0  0  0  0  0  0
    9.7695  -14.7411   22.0461 C   0  0  0  0  0  0  0  0  0  0  0  0
   10.8990  -14.7984   21.0521 C   0  0  2  0  0  0  0  0  0  0  0  0
   10.3624  -15.0575   19.7053 N   0  0  0  0  0  0  0  0  0  0  0  0
   11.8880  -15.8218   21.4050 C   0  0  0  0  0  0  0  0  0  0  0  0
   11.6758  -17.0604   21.3590 O   0  0  0  0  0  0  0  0  0  0  0  0
   13.1966  -15.3802   21.8355 N   0  0  0  0  0  0  0  0  0  0  0  0
   14.1217  -16.3785   22.2945 C   0  0  0  0  0  0  0  0  0  0  0  0
   15.4354  -15.8059   22.6335 C   0  0  0  0  0  0  0  0  0  0  0  0
   16.3421  -16.5309   23.1131 O   0  0  0  0  0  0  0  0  0  0  0  0
   15.6721  -14.4687   22.4239 O   0  0  0  0  0  0  0  0  0  0  0  0
  1  2  1  0
  2  3  2  0
  2  4  1  0
  5  6  1  1
  5  7  1  0
  5  4  1  0
  7  8  2  0
  9 10  1  0
 10 12  1  0
 11 10  2  0
 12 13  1  0
 14 13  1  1
 14 16  1  0
 15  7  1  0
 15 14  1  0
 16 18  1  0
 16 17  2  0
 18 19  1  0
 20 19  1  0
 20 22  1  0
 21 20  2  0
M  END
$$$$
