NQG.pdb
     RDKit          3D

 22 21  0  0  1  0  0  0  0  0999 V2000
   -3.4950  -18.0927   22.0742 N   0  0  0  0  0  0  0  0  0  0  0  0
   -3.4819  -19.3187   22.7857 C   0  0  0  0  0  0  0  0  0  0  0  0
   -2.7479  -20.2556   22.4088 O   0  0  0  0  0  0  0  0  0  0  0  0
   -4.3442  -19.4776   23.9766 C   0  0  0  0  0  0  0  0  0  0  0  0
   -4.2731  -20.8966   24.4446 C   0  0  2  0  0  0  0  0  0  0  0  0
   -4.7649  -21.7847   23.4408 N   0  0  0  0  0  0  0  0  0  0  0  0
   -4.9911  -21.1481   25.7020 C   0  0  0  0  0  0  0  0  0  0  0  0
   -4.7626  -20.4113   26.6893 O   0  0  0  0  0  0  0  0  0  0  0  0
  -10.1809  -21.2444   27.1117 N   0  0  0  0  0  0  0  0  0  0  0  0
  -10.0181  -22.2665   28.1014 C   0  0  0  0  0  0  0  0  0  0  0  0
  -10.8139  -22.3860   29.0574 O   0  0  0  0  0  0  0  0  0  0  0  0
   -8.8713  -23.2200   27.9985 C   0  0  0  0  0  0  0  0  0  0  0  0
   -8.0459  -22.9103   26.8010 C   0  0  0  0  0  0  0  0  0  0  0  0
   -6.6214  -22.5106   27.0807 C   0  0  2  0  0  0  0  0  0  0  0  0
   -5.9335  -22.2060   25.8146 N   0  0  0  0  0  0  0  0  0  0  0  0
   -5.8932  -23.5530   27.8107 C   0  0  0  0  0  0  0  0  0  0  0  0
   -5.4388  -24.6019   27.2864 O   0  0  0  0  0  0  0  0  0  0  0  0
   -5.6815  -23.3653   29.2294 N   0  0  0  0  0  0  0  0  0  0  0  0
   -5.0477  -24.4291   29.9574 C   0  0  0  0  0  0  0  0  0  0  0  0
   -6.0019  -25.4789   30.3520 C   0  0  0  0  0  0  0  0  0  0  0  0
   -6.9998  -25.1991   31.0619 O   0  0  0  0  0  0  0  0  0  0  0  0
   -5.8003  -26.7746   29.9413 O   0  0  0  0  0  0  0  0  0  0  0  0
  1  2  1  0
  2  3  2  0
  2  4  1  0
  5  6  1  6
  5  7  1  0
  5  4  1  0
  7  8  2  0
  9 10  1  0
 10 12  1  0
 11 10  2  0
 12 13  1  0
 14 13  1  6
 14 16  1  0
 15  7  1  0
 15 14  1  0
 16 18  1  0
 16 17  2  0
 18 19  1  0
 20 19  1  0
 20 22  1  0
 21 20  2  0
M  END
$$$$
