NQG.pdb
     RDKit          3D

 22 21  0  0  1  0  0  0  0  0999 V2000
    7.9274  -22.7073   19.3797 N   0  0  0  0  0  0  0  0  0  0  0  0
    8.0452  -21.4593   18.7180 C   0  0  0  0  0  0  0  0  0  0  0  0
    7.3702  -21.2252   17.6942 O   0  0  0  0  0  0  0  0  0  0  0  0
    8.9734  -20.4386   19.2506 C   0  0  0  0  0  0  0  0  0  0  0  0
    8.1856  -19.2468   19.6943 C   0  0  2  0  0  0  0  0  0  0  0  0
    7.1704  -18.9294   18.7421 N   0  0  0  0  0  0  0  0  0  0  0  0
    9.0013  -18.0501   19.9436 C   0  0  0  0  0  0  0  0  0  0  0  0
   10.1507  -17.9851   19.4491 O   0  0  0  0  0  0  0  0  0  0  0  0
    7.2531  -12.2069   20.4268 N   0  0  0  0  0  0  0  0  0  0  0  0
    7.5057  -13.0048   19.2648 C   0  0  0  0  0  0  0  0  0  0  0  0
    7.1085  -12.6575   18.1320 O   0  0  0  0  0  0  0  0  0  0  0  0
    8.2625  -14.2872   19.3981 C   0  0  0  0  0  0  0  0  0  0  0  0
    8.6038  -14.5416   20.8229 C   0  0  0  0  0  0  0  0  0  0  0  0
    9.3520  -15.8201   21.0924 C   0  0  2  0  0  0  0  0  0  0  0  0
    8.5105  -16.9735   20.7309 N   0  0  0  0  0  0  0  0  0  0  0  0
    9.7728  -15.9239   22.4931 C   0  0  0  0  0  0  0  0  0  0  0  0
    9.0044  -16.2114   23.4462 O   0  0  0  0  0  0  0  0  0  0  0  0
   11.1647  -15.6797   22.8029 N   0  0  0  0  0  0  0  0  0  0  0  0
   11.5773  -15.8080   24.1727 C   0  0  0  0  0  0  0  0  0  0  0  0
   12.9123  -16.4169   24.2969 C   0  0  0  0  0  0  0  0  0  0  0  0
   13.4855  -16.9068   23.2922 O   0  0  0  0  0  0  0  0  0  0  0  0
   13.5367  -16.4500   25.5206 O   0  0  0  0  0  0  0  0  0  0  0  0
  1  2  1  0
  2  3  2  0
  2  4  1  0
  5  6  1  6
  5  7  1  0
  5  4  1  0
  7  8  2  0
  9 10  1  0
 10 12  1  0
 11 10  2  0
 12 13  1  0
 14 13  1  1
 14 16  1  0
 15  7  1  0
 15 14  1  0
 16 18  1  0
 16 17  2  0
 18 19  1  0
 20 19  1  0
 20 22  1  0
 21 20  2  0
M  END
$$$$
