NQG.pdb
     RDKit          3D

 22 21  0  0  1  0  0  0  0  0999 V2000
    8.3499  -12.7950   16.0966 N   0  0  0  0  0  0  0  0  0  0  0  0
    7.2853  -13.6972   16.3453 C   0  0  0  0  0  0  0  0  0  0  0  0
    6.3212  -13.7640   15.5550 O   0  0  0  0  0  0  0  0  0  0  0  0
    7.3270  -14.5574   17.5476 C   0  0  0  0  0  0  0  0  0  0  0  0
    8.5750  -14.2604   18.3169 C   0  0  2  0  0  0  0  0  0  0  0  0
    9.7315  -14.4942   17.5131 N   0  0  0  0  0  0  0  0  0  0  0  0
    8.6997  -15.0185   19.5697 C   0  0  0  0  0  0  0  0  0  0  0  0
    7.8108  -14.8962   20.4443 O   0  0  0  0  0  0  0  0  0  0  0  0
    6.4578  -18.5388   20.5208 N   0  0  0  0  0  0  0  0  0  0  0  0
    7.7539  -19.1280   20.6748 C   0  0  0  0  0  0  0  0  0  0  0  0
    7.9634  -20.0454   21.4970 O   0  0  0  0  0  0  0  0  0  0  0  0
    8.8921  -18.6416   19.8365 C   0  0  0  0  0  0  0  0  0  0  0  0
    9.9933  -18.1382   20.6998 C   0  0  0  0  0  0  0  0  0  0  0  0
    9.9333  -16.6724   21.0388 C   0  0  2  0  0  0  0  0  0  0  0  0
    9.8043  -15.8818   19.8029 N   0  0  0  0  0  0  0  0  0  0  0  0
   11.1119  -16.2361   21.7942 C   0  0  0  0  0  0  0  0  0  0  0  0
   12.2303  -15.9795   21.2798 O   0  0  0  0  0  0  0  0  0  0  0  0
   10.9827  -16.0902   23.2277 N   0  0  0  0  0  0  0  0  0  0  0  0
   11.7068  -17.0087   24.0613 C   0  0  0  0  0  0  0  0  0  0  0  0
   13.1640  -16.8223   23.9596 C   0  0  0  0  0  0  0  0  0  0  0  0
   13.8595  -16.6606   24.9930 O   0  0  0  0  0  0  0  0  0  0  0  0
   13.7684  -16.8250   22.7256 O   0  0  0  0  0  0  0  0  0  0  0  0
  1  2  1  0
  2  3  2  0
  2  4  1  0
  5  6  1  6
  5  7  1  0
  5  4  1  0
  7  8  2  0
  9 10  1  0
 10 12  1  0
 11 10  2  0
 12 13  1  0
 14 13  1  6
 14 16  1  0
 15  7  1  0
 15 14  1  0
 16 18  1  0
 16 17  2  0
 18 19  1  0
 20 19  1  0
 20 22  1  0
 21 20  2  0
M  END
$$$$
