NQG.pdb
     RDKit          3D

 22 21  0  0  1  0  0  0  0  0999 V2000
   11.6927  -19.7748   23.2160 N   0  0  0  0  0  0  0  0  0  0  0  0
   11.9339  -20.7706   24.1955 C   0  0  0  0  0  0  0  0  0  0  0  0
   12.3186  -21.9078   23.8533 O   0  0  0  0  0  0  0  0  0  0  0  0
   11.7258  -20.4507   25.6243 C   0  0  0  0  0  0  0  0  0  0  0  0
   10.6891  -21.3721   26.1846 C   0  0  2  0  0  0  0  0  0  0  0  0
    9.4584  -21.2401   25.4731 N   0  0  0  0  0  0  0  0  0  0  0  0
   10.4362  -21.1850   27.6202 C   0  0  0  0  0  0  0  0  0  0  0  0
    9.9160  -20.1141   28.0105 O   0  0  0  0  0  0  0  0  0  0  0  0
    8.3383  -25.4805   31.2797 N   0  0  0  0  0  0  0  0  0  0  0  0
    7.5735  -24.5038   30.5643 C   0  0  0  0  0  0  0  0  0  0  0  0
    6.3602  -24.6731   30.3178 O   0  0  0  0  0  0  0  0  0  0  0  0
    8.2325  -23.2462   30.0958 C   0  0  0  0  0  0  0  0  0  0  0  0
    9.6725  -23.2466   30.4669 C   0  0  0  0  0  0  0  0  0  0  0  0
   10.4632  -22.0537   29.9993 C   0  0  2  0  0  0  0  0  0  0  0  0
   10.7700  -22.1924   28.5656 N   0  0  0  0  0  0  0  0  0  0  0  0
   11.7021  -21.8834   30.7647 C   0  0  0  0  0  0  0  0  0  0  0  0
   12.6850  -22.6659   30.7086 O   0  0  0  0  0  0  0  0  0  0  0  0
   11.8040  -20.7394   31.6444 N   0  0  0  0  0  0  0  0  0  0  0  0
   12.9581  -20.6504   32.4948 C   0  0  0  0  0  0  0  0  0  0  0  0
   14.0756  -19.9458   31.8442 C   0  0  0  0  0  0  0  0  0  0  0  0
   14.0076  -19.6257   30.6314 O   0  0  0  0  0  0  0  0  0  0  0  0
   15.2015  -19.6356   32.5683 O   0  0  0  0  0  0  0  0  0  0  0  0
  1  2  1  0
  2  3  2  0
  2  4  1  0
  5  6  1  6
  5  7  1  0
  5  4  1  0
  7  8  2  0
  9 10  1  0
 10 12  1  0
 11 10  2  0
 12 13  1  0
 14 13  1  1
 14 16  1  0
 15  7  1  0
 15 14  1  0
 16 18  1  0
 16 17  2  0
 18 19  1  0
 20 19  1  0
 20 22  1  0
 21 20  2  0
M  END
$$$$
