NQG.pdb
     RDKit          3D

 22 21  0  0  1  0  0  0  0  0999 V2000
    7.0372  -13.5032   17.7365 N   0  0  0  0  0  0  0  0  0  0  0  0
    8.1689  -14.0919   18.3546 C   0  0  0  0  0  0  0  0  0  0  0  0
    8.7794  -15.0230   17.7900 O   0  0  0  0  0  0  0  0  0  0  0  0
    8.6192  -13.5938   19.6723 C   0  0  0  0  0  0  0  0  0  0  0  0
    8.6448  -14.7329   20.6416 C   0  0  2  0  0  0  0  0  0  0  0  0
    7.3593  -15.3473   20.7330 N   0  0  0  0  0  0  0  0  0  0  0  0
    9.0960  -14.3605   21.9898 C   0  0  0  0  0  0  0  0  0  0  0  0
   10.1982  -13.7797   22.1222 O   0  0  0  0  0  0  0  0  0  0  0  0
    5.1379  -12.4989   26.1987 N   0  0  0  0  0  0  0  0  0  0  0  0
    6.3363  -12.3780   26.9732 C   0  0  0  0  0  0  0  0  0  0  0  0
    6.3656  -11.7245   28.0379 O   0  0  0  0  0  0  0  0  0  0  0  0
    7.5896  -13.0459   26.5061 C   0  0  0  0  0  0  0  0  0  0  0  0
    7.3951  -13.6213   25.1487 C   0  0  0  0  0  0  0  0  0  0  0  0
    8.6437  -14.1189   24.4702 C   0  0  2  0  0  0  0  0  0  0  0  0
    8.3075  -14.6469   23.1371 N   0  0  0  0  0  0  0  0  0  0  0  0
    9.3243  -15.1484   25.2619 C   0  0  0  0  0  0  0  0  0  0  0  0
    9.4591  -15.1099   26.5116 O   0  0  0  0  0  0  0  0  0  0  0  0
    9.8791  -16.2861   24.5614 N   0  0  0  0  0  0  0  0  0  0  0  0
   10.5277  -17.3016   25.3433 C   0  0  0  0  0  0  0  0  0  0  0  0
   11.0463  -18.3992   24.5098 C   0  0  0  0  0  0  0  0  0  0  0  0
   10.3831  -19.4557   24.3623 O   0  0  0  0  0  0  0  0  0  0  0  0
   12.2648  -18.2677   23.8883 O   0  0  0  0  0  0  0  0  0  0  0  0
  1  2  1  0
  2  3  2  0
  2  4  1  0
  5  6  1  1
  5  7  1  0
  5  4  1  0
  7  8  2  0
  9 10  1  0
 10 12  1  0
 11 10  2  0
 12 13  1  0
 14 13  1  1
 14 16  1  0
 15  7  1  0
 15 14  1  0
 16 18  1  0
 16 17  2  0
 18 19  1  0
 20 19  1  0
 20 22  1  0
 21 20  2  0
M  END
$$$$
