NQG.pdb
     RDKit          3D

 22 21  0  0  1  0  0  0  0  0999 V2000
    8.0110  -12.9620   16.0465 N   0  0  0  0  0  0  0  0  0  0  0  0
    7.9462  -14.0578   16.9434 C   0  0  0  0  0  0  0  0  0  0  0  0
    7.5013  -15.1588   16.5585 O   0  0  0  0  0  0  0  0  0  0  0  0
    8.4099  -13.8851   18.3371 C   0  0  0  0  0  0  0  0  0  0  0  0
    9.4191  -14.9440   18.6503 C   0  0  2  0  0  0  0  0  0  0  0  0
    8.8041  -16.2318   18.6903 N   0  0  0  0  0  0  0  0  0  0  0  0
   10.1493  -14.7212   19.9060 C   0  0  0  0  0  0  0  0  0  0  0  0
   10.8213  -13.6721   20.0395 O   0  0  0  0  0  0  0  0  0  0  0  0
    8.5978  -16.5523   25.5416 N   0  0  0  0  0  0  0  0  0  0  0  0
    9.9311  -16.1098   25.8194 C   0  0  0  0  0  0  0  0  0  0  0  0
   10.3673  -16.0364   26.9881 O   0  0  0  0  0  0  0  0  0  0  0  0
   10.8326  -15.7234   24.6911 C   0  0  0  0  0  0  0  0  0  0  0  0
   10.1202  -15.8504   23.3920 C   0  0  0  0  0  0  0  0  0  0  0  0
   10.9410  -15.5383   22.1689 C   0  0  2  0  0  0  0  0  0  0  0  0
   10.1054  -15.6699   20.9633 N   0  0  0  0  0  0  0  0  0  0  0  0
   12.1177  -16.4067   22.0626 C   0  0  0  0  0  0  0  0  0  0  0  0
   12.0686  -17.6528   21.9003 O   0  0  0  0  0  0  0  0  0  0  0  0
   13.4243  -15.7919   22.1499 N   0  0  0  0  0  0  0  0  0  0  0  0
   14.5718  -16.6558   22.1406 C   0  0  0  0  0  0  0  0  0  0  0  0
   15.8359  -15.9025   22.1961 C   0  0  0  0  0  0  0  0  0  0  0  0
   15.8287  -14.6468   22.2286 O   0  0  0  0  0  0  0  0  0  0  0  0
   17.0328  -16.5772   22.2126 O   0  0  0  0  0  0  0  0  0  0  0  0
  1  2  1  0
  2  3  2  0
  2  4  1  0
  5  6  1  1
  5  7  1  0
  5  4  1  0
  7  8  2  0
  9 10  1  0
 10 12  1  0
 11 10  2  0
 12 13  1  0
 14 13  1  1
 14 16  1  0
 15  7  1  0
 15 14  1  0
 16 18  1  0
 16 17  2  0
 18 19  1  0
 20 19  1  0
 20 22  1  0
 21 20  2  0
M  END
$$$$
