NQG.pdb
     RDKit          3D

 22 21  0  0  1  0  0  0  0  0999 V2000
   12.5139  -15.7220   15.0991 N   0  0  0  0  0  0  0  0  0  0  0  0
   13.8086  -15.1518   15.0104 C   0  0  0  0  0  0  0  0  0  0  0  0
   14.2044  -14.6569   13.9348 O   0  0  0  0  0  0  0  0  0  0  0  0
   14.6849  -15.1483   16.2017 C   0  0  0  0  0  0  0  0  0  0  0  0
   13.9669  -15.8061   17.3373 C   0  0  2  0  0  0  0  0  0  0  0  0
   12.9227  -16.6508   16.8532 N   0  0  0  0  0  0  0  0  0  0  0  0
   13.4073  -14.8640   18.3167 C   0  0  0  0  0  0  0  0  0  0  0  0
   14.1562  -13.9937   18.8182 O   0  0  0  0  0  0  0  0  0  0  0  0
    7.9869  -12.1233   19.2427 N   0  0  0  0  0  0  0  0  0  0  0  0
    7.9830  -13.4841   18.7967 C   0  0  0  0  0  0  0  0  0  0  0  0
    6.9874  -13.9862   18.2327 O   0  0  0  0  0  0  0  0  0  0  0  0
    9.1946  -14.3346   19.0055 C   0  0  0  0  0  0  0  0  0  0  0  0
   10.2743  -13.5470   19.6576 C   0  0  0  0  0  0  0  0  0  0  0  0
   11.5467  -14.3008   19.9403 C   0  0  2  0  0  0  0  0  0  0  0  0
   12.0403  -14.9244   18.7008 N   0  0  0  0  0  0  0  0  0  0  0  0
   11.3604  -15.3209   20.9769 C   0  0  0  0  0  0  0  0  0  0  0  0
   11.4808  -16.5579   20.7859 O   0  0  0  0  0  0  0  0  0  0  0  0
   11.0148  -14.8777   22.3100 N   0  0  0  0  0  0  0  0  0  0  0  0
   11.8866  -15.2555   23.3873 C   0  0  0  0  0  0  0  0  0  0  0  0
   11.5160  -16.5544   23.9736 C   0  0  0  0  0  0  0  0  0  0  0  0
   10.5916  -17.2403   23.4707 O   0  0  0  0  0  0  0  0  0  0  0  0
   12.1858  -17.0207   25.0791 O   0  0  0  0  0  0  0  0  0  0  0  0
  1  2  1  0
  2  3  2  0
  2  4  1  0
  5  6  1  6
  5  7  1  0
  5  4  1  0
  7  8  2  0
  9 10  1  0
 10 12  1  0
 11 10  2  0
 12 13  1  0
 14 13  1  6
 14 16  1  0
 15  7  1  0
 15 14  1  0
 16 18  1  0
 16 17  2  0
 18 19  1  0
 20 19  1  0
 20 22  1  0
 21 20  2  0
M  END
$$$$
