TKM.pdb
     RDKit          3D

 25 24  0  0  1  0  0  0  0  0999 V2000
   10.4181  -12.8819   17.7075 C   0  0  0  0  0  0  0  0  0  0  0  0
   10.0015  -13.5408   18.9873 C   0  0  1  0  0  0  0  0  0  0  0  0
    9.8783  -12.5328   19.9640 O   0  0  0  0  0  0  0  0  0  0  0  0
    8.6393  -14.1896   18.8882 C   0  0  2  0  0  0  0  0  0  0  0  0
    7.6671  -13.1398   18.6610 N   0  0  0  0  0  0  0  0  0  0  0  0
    8.2526  -14.8866   20.1427 C   0  0  0  0  0  0  0  0  0  0  0  0
    7.4264  -14.3534   20.9069 O   0  0  0  0  0  0  0  0  0  0  0  0
    8.7798  -16.1386   20.5197 N   0  0  0  0  0  0  0  0  0  0  0  0
    8.3303  -16.9063   21.6772 C   0  0  1  0  0  0  0  0  0  0  0  0
    8.8535  -18.2965   21.5863 C   0  0  0  0  0  0  0  0  0  0  0  0
    8.5991  -19.2027   22.7310 C   0  0  0  0  0  0  0  0  0  0  0  0
    9.1972  -20.5659   22.3100 C   0  0  0  0  0  0  0  0  0  0  0  0
    8.8933  -21.6085   23.3599 C   0  0  0  0  0  0  0  0  0  0  0  0
    9.3548  -22.8833   22.8464 N   0  0  0  0  0  0  0  0  0  0  0  0
    8.7080  -16.1445   22.8786 C   0  0  0  0  0  0  0  0  0  0  0  0
    9.8490  -15.6428   22.9419 O   0  0  0  0  0  0  0  0  0  0  0  0
    6.7637  -11.0760   27.9941 C   0  0  0  0  0  0  0  0  0  0  0  0
    7.2395  -12.0564   26.5258 S   0  0  0  0  0  0  0  0  0  0  0  0
    6.4100  -13.6005   26.5236 C   0  0  0  0  0  0  0  0  0  0  0  0
    6.6955  -14.5564   25.4520 C   0  0  0  0  0  0  0  0  0  0  0  0
    8.0213  -15.0177   25.0718 C   0  0  2  0  0  0  0  0  0  0  0  0
    7.7997  -15.9842   23.9279 N   0  0  0  0  0  0  0  0  0  0  0  0
    8.7063  -15.9199   26.0937 C   0  0  0  0  0  0  0  0  0  0  0  0
    9.3804  -15.3406   27.0336 O   0  0  0  0  0  0  0  0  0  0  0  0
    8.7012  -17.2646   26.1389 O   0  0  0  0  0  0  0  0  0  0  0  0
  2  1  1  6
  3  2  1  0
  4  6  1  0
  4  2  1  0
  4  5  1  1
  6  7  2  0
  8  9  1  0
  8  6  1  0
 10 11  1  0
  9 10  1  1
 11 12  1  0
 12 13  1  0
 14 13  1  0
 15  9  1  0
 16 15  2  0
 17 18  1  0
 19 18  1  0
 20 19  1  0
 21 20  1  1
 21 22  1  0
 21 23  1  0
 22 15  1  0
 23 25  1  0
 24 23  2  0
M  END
$$$$
