TKM.pdb
     RDKit          3D

 25 24  0  0  1  0  0  0  0  0999 V2000
    9.3507  -12.4505   19.5117 C   0  0  0  0  0  0  0  0  0  0  0  0
    8.3786  -13.0664   18.5518 C   0  0  1  0  0  0  0  0  0  0  0  0
    8.5482  -12.4285   17.3070 O   0  0  0  0  0  0  0  0  0  0  0  0
    8.6565  -14.5324   18.3067 C   0  0  2  0  0  0  0  0  0  0  0  0
    7.7150  -14.9981   17.3088 N   0  0  0  0  0  0  0  0  0  0  0  0
    8.4530  -15.3577   19.5260 C   0  0  0  0  0  0  0  0  0  0  0  0
    7.2965  -15.5512   19.9454 O   0  0  0  0  0  0  0  0  0  0  0  0
    9.5161  -15.9421   20.2442 N   0  0  0  0  0  0  0  0  0  0  0  0
    9.3484  -16.7688   21.4358 C   0  0  1  0  0  0  0  0  0  0  0  0
   10.1603  -18.0084   21.3000 C   0  0  0  0  0  0  0  0  0  0  0  0
    9.7073  -19.0226   20.3188 C   0  0  0  0  0  0  0  0  0  0  0  0
   10.7134  -20.1905   20.4487 C   0  0  0  0  0  0  0  0  0  0  0  0
   10.4046  -21.2536   19.4210 C   0  0  0  0  0  0  0  0  0  0  0  0
   11.3790  -22.3133   19.5921 N   0  0  0  0  0  0  0  0  0  0  0  0
    9.6448  -15.9192   22.6005 C   0  0  0  0  0  0  0  0  0  0  0  0
   10.7219  -15.2893   22.6305 O   0  0  0  0  0  0  0  0  0  0  0  0
    6.1202  -11.1175   27.5928 C   0  0  0  0  0  0  0  0  0  0  0  0
    6.1563  -12.1980   26.1182 S   0  0  0  0  0  0  0  0  0  0  0  0
    7.4716  -13.3507   26.2339 C   0  0  0  0  0  0  0  0  0  0  0  0
    7.7385  -14.2370   25.0995 C   0  0  0  0  0  0  0  0  0  0  0  0
    8.9760  -14.9691   24.8813 C   0  0  2  0  0  0  0  0  0  0  0  0
    8.7310  -15.8187   23.6524 N   0  0  0  0  0  0  0  0  0  0  0  0
    9.2835  -16.0388   25.9246 C   0  0  0  0  0  0  0  0  0  0  0  0
    9.8805  -15.6537   27.0057 O   0  0  0  0  0  0  0  0  0  0  0  0
    9.0114  -17.3549   25.8593 O   0  0  0  0  0  0  0  0  0  0  0  0
  2  1  1  1
  3  2  1  0
  4  6  1  0
  4  2  1  0
  4  5  1  6
  6  7  2  0
  8  9  1  0
  8  6  1  0
 10 11  1  0
  9 10  1  6
 11 12  1  0
 12 13  1  0
 14 13  1  0
 15  9  1  0
 16 15  2  0
 17 18  1  0
 19 18  1  0
 20 19  1  0
 21 20  1  1
 21 22  1  0
 21 23  1  0
 22 15  1  0
 23 25  1  0
 24 23  2  0
M  END
$$$$
