TKM.pdb
     RDKit          3D

 25 24  0  0  1  0  0  0  0  0999 V2000
    9.8896  -12.6678   19.5144 C   0  0  0  0  0  0  0  0  0  0  0  0
    8.6914  -13.1514   18.7553 C   0  0  1  0  0  0  0  0  0  0  0  0
    8.8088  -12.6823   17.4319 O   0  0  0  0  0  0  0  0  0  0  0  0
    8.6380  -14.6593   18.6565 C   0  0  2  0  0  0  0  0  0  0  0  0
    7.4863  -15.0071   17.8493 N   0  0  0  0  0  0  0  0  0  0  0  0
    8.4604  -15.3065   19.9827 C   0  0  0  0  0  0  0  0  0  0  0  0
    7.3782  -15.1760   20.5850 O   0  0  0  0  0  0  0  0  0  0  0  0
    9.4675  -16.0720   20.6048 N   0  0  0  0  0  0  0  0  0  0  0  0
    9.3002  -16.7790   21.8712 C   0  0  1  0  0  0  0  0  0  0  0  0
   10.1625  -17.9918   21.8820 C   0  0  0  0  0  0  0  0  0  0  0  0
   10.1756  -18.8147   23.1145 C   0  0  0  0  0  0  0  0  0  0  0  0
   11.1709  -19.9631   22.8250 C   0  0  0  0  0  0  0  0  0  0  0  0
   11.1538  -20.9587   23.9609 C   0  0  0  0  0  0  0  0  0  0  0  0
   12.0059  -22.0662   23.5750 N   0  0  0  0  0  0  0  0  0  0  0  0
    9.5328  -15.8037   22.9486 C   0  0  0  0  0  0  0  0  0  0  0  0
   10.5060  -15.0272   22.8610 O   0  0  0  0  0  0  0  0  0  0  0  0
    5.5008  -11.2738   27.8369 C   0  0  0  0  0  0  0  0  0  0  0  0
    5.6684  -12.4296   26.4301 S   0  0  0  0  0  0  0  0  0  0  0  0
    7.1870  -13.2994   26.5277 C   0  0  0  0  0  0  0  0  0  0  0  0
    7.5141  -14.2728   25.4842 C   0  0  0  0  0  0  0  0  0  0  0  0
    8.8499  -14.7643   25.1858 C   0  0  2  0  0  0  0  0  0  0  0  0
    8.6735  -15.7479   24.0486 N   0  0  0  0  0  0  0  0  0  0  0  0
    9.4611  -15.6592   26.2596 C   0  0  0  0  0  0  0  0  0  0  0  0
    9.1693  -16.9187   26.2139 O   0  0  0  0  0  0  0  0  0  0  0  0
   10.2754  -15.2971   27.2676 O   0  0  0  0  0  0  0  0  0  0  0  0
  2  1  1  1
  3  2  1  0
  4  6  1  0
  4  2  1  0
  4  5  1  6
  6  7  2  0
  8  9  1  0
  8  6  1  0
 10 11  1  0
  9 10  1  6
 11 12  1  0
 12 13  1  0
 14 13  1  0
 15  9  1  0
 16 15  2  0
 17 18  1  0
 19 18  1  0
 20 19  1  0
 21 20  1  1
 21 22  1  0
 21 23  1  0
 22 15  1  0
 23 25  1  0
 24 23  2  0
M  END
$$$$
