TKM.pdb
     RDKit          3D

 25 24  0  0  1  0  0  0  0  0999 V2000
    5.8102  -20.6495   24.0883 C   0  0  0  0  0  0  0  0  0  0  0  0
    6.5955  -19.4231   23.7348 C   0  0  1  0  0  0  0  0  0  0  0  0
    7.9119  -19.6125   24.1999 O   0  0  0  0  0  0  0  0  0  0  0  0
    6.7099  -19.2190   22.2409 C   0  0  2  0  0  0  0  0  0  0  0  0
    7.3864  -20.3752   21.6891 N   0  0  0  0  0  0  0  0  0  0  0  0
    7.5226  -18.0238   21.8944 C   0  0  0  0  0  0  0  0  0  0  0  0
    8.7535  -18.1445   21.7492 O   0  0  0  0  0  0  0  0  0  0  0  0
    6.9655  -16.7407   21.7188 N   0  0  0  0  0  0  0  0  0  0  0  0
    7.7401  -15.5419   21.4114 C   0  0  1  0  0  0  0  0  0  0  0  0
    7.0230  -14.7349   20.3873 C   0  0  0  0  0  0  0  0  0  0  0  0
    7.6867  -13.5055   19.8928 C   0  0  0  0  0  0  0  0  0  0  0  0
    7.8057  -13.6962   18.3622 C   0  0  0  0  0  0  0  0  0  0  0  0
    8.4905  -12.4995   17.7454 C   0  0  0  0  0  0  0  0  0  0  0  0
    8.7133  -12.8054   16.3459 N   0  0  0  0  0  0  0  0  0  0  0  0
    8.0265  -14.8691   22.6887 C   0  0  0  0  0  0  0  0  0  0  0  0
    7.8019  -13.6457   22.7909 O   0  0  0  0  0  0  0  0  0  0  0  0
    7.9192  -11.6041   27.6582 C   0  0  0  0  0  0  0  0  0  0  0  0
    6.4616  -12.6053   27.1931 S   0  0  0  0  0  0  0  0  0  0  0  0
    6.9234  -14.2749   26.9265 C   0  0  0  0  0  0  0  0  0  0  0  0
    7.3143  -14.6954   25.5797 C   0  0  0  0  0  0  0  0  0  0  0  0
    8.6703  -15.0143   25.1619 C   0  0  2  0  0  0  0  0  0  0  0  0
    8.5380  -15.5924   23.7690 N   0  0  0  0  0  0  0  0  0  0  0  0
    9.3158  -16.1791   25.9061 C   0  0  0  0  0  0  0  0  0  0  0  0
    9.7186  -15.9557   27.1150 O   0  0  0  0  0  0  0  0  0  0  0  0
    9.5266  -17.4289   25.4549 O   0  0  0  0  0  0  0  0  0  0  0  0
  2  1  1  6
  3  2  1  0
  4  6  1  0
  4  2  1  0
  4  5  1  6
  6  7  2  0
  8  9  1  0
  8  6  1  0
 10 11  1  0
  9 10  1  6
 11 12  1  0
 12 13  1  0
 14 13  1  0
 15  9  1  0
 16 15  2  0
 17 18  1  0
 19 18  1  0
 20 19  1  0
 21 20  1  1
 21 22  1  0
 21 23  1  0
 22 15  1  0
 23 25  1  0
 24 23  2  0
M  END
$$$$
