TKM.pdb
     RDKit          3D

 25 24  0  0  1  0  0  0  0  0999 V2000
   10.7445  -13.1657   19.8850 C   0  0  0  0  0  0  0  0  0  0  0  0
    9.4462  -12.7736   19.2474 C   0  0  1  0  0  0  0  0  0  0  0  0
    9.7453  -12.1757   18.0071 O   0  0  0  0  0  0  0  0  0  0  0  0
    8.5723  -13.9665   18.9317 C   0  0  2  0  0  0  0  0  0  0  0  0
    7.3680  -13.4737   18.2947 N   0  0  0  0  0  0  0  0  0  0  0  0
    8.1567  -14.7019   20.1546 C   0  0  0  0  0  0  0  0  0  0  0  0
    7.1810  -14.2918   20.8109 O   0  0  0  0  0  0  0  0  0  0  0  0
    8.8185  -15.8570   20.6184 N   0  0  0  0  0  0  0  0  0  0  0  0
    8.3931  -16.6416   21.7738 C   0  0  1  0  0  0  0  0  0  0  0  0
    8.6067  -18.0884   21.4991 C   0  0  0  0  0  0  0  0  0  0  0  0
    8.3388  -19.0438   22.6000 C   0  0  0  0  0  0  0  0  0  0  0  0
    8.5819  -20.4445   21.9897 C   0  0  0  0  0  0  0  0  0  0  0  0
    8.3397  -21.5101   23.0325 C   0  0  0  0  0  0  0  0  0  0  0  0
    8.6827  -22.7847   22.4327 N   0  0  0  0  0  0  0  0  0  0  0  0
    9.0841  -16.0924   22.9516 C   0  0  0  0  0  0  0  0  0  0  0  0
   10.3064  -15.8511   22.8770 O   0  0  0  0  0  0  0  0  0  0  0  0
    6.1256  -10.7419   26.3833 C   0  0  0  0  0  0  0  0  0  0  0  0
    6.2759  -12.5296   26.7364 S   0  0  0  0  0  0  0  0  0  0  0  0
    7.6195  -13.2201   25.8475 C   0  0  0  0  0  0  0  0  0  0  0  0
    8.0043  -14.6080   26.1104 C   0  0  0  0  0  0  0  0  0  0  0  0
    9.0393  -15.3400   25.3977 C   0  0  2  0  0  0  0  0  0  0  0  0
    8.3791  -15.8426   24.1315 N   0  0  0  0  0  0  0  0  0  0  0  0
    9.4655  -16.6513   26.0504 C   0  0  0  0  0  0  0  0  0  0  0  0
    8.8266  -17.7199   25.6991 O   0  0  0  0  0  0  0  0  0  0  0  0
   10.4354  -16.8392   26.9638 O   0  0  0  0  0  0  0  0  0  0  0  0
  2  1  1  6
  3  2  1  0
  4  6  1  0
  4  2  1  0
  4  5  1  1
  6  7  2  0
  8  9  1  0
  8  6  1  0
 10 11  1  0
  9 10  1  6
 11 12  1  0
 12 13  1  0
 14 13  1  0
 15  9  1  0
 16 15  2  0
 17 18  1  0
 19 18  1  0
 20 19  1  0
 21 20  1  1
 21 22  1  0
 21 23  1  0
 22 15  1  0
 23 25  1  0
 24 23  2  0
M  END
$$$$
