TKM.pdb
     RDKit          3D

 25 24  0  0  1  0  0  0  0  0999 V2000
   10.3698  -12.9050   19.9188 C   0  0  0  0  0  0  0  0  0  0  0  0
    8.9945  -12.6726   19.3706 C   0  0  1  0  0  0  0  0  0  0  0  0
    9.1334  -11.9645   18.1605 O   0  0  0  0  0  0  0  0  0  0  0  0
    8.2864  -13.9610   19.0173 C   0  0  2  0  0  0  0  0  0  0  0  0
    6.9658  -13.6182   18.5300 N   0  0  0  0  0  0  0  0  0  0  0  0
    8.1064  -14.8485   20.1959 C   0  0  0  0  0  0  0  0  0  0  0  0
    7.1232  -14.6805   20.9414 O   0  0  0  0  0  0  0  0  0  0  0  0
    9.0036  -15.8866   20.5198 N   0  0  0  0  0  0  0  0  0  0  0  0
    8.8503  -16.7800   21.6643 C   0  0  1  0  0  0  0  0  0  0  0  0
    9.5298  -18.0732   21.3809 C   0  0  0  0  0  0  0  0  0  0  0  0
    9.5623  -19.0843   22.4641 C   0  0  0  0  0  0  0  0  0  0  0  0
   10.2133  -20.3366   21.8307 C   0  0  0  0  0  0  0  0  0  0  0  0
   10.2881  -21.4495   22.8492 C   0  0  0  0  0  0  0  0  0  0  0  0
   10.6964  -22.6496   22.1458 N   0  0  0  0  0  0  0  0  0  0  0  0
    9.3129  -16.0471   22.8539 C   0  0  0  0  0  0  0  0  0  0  0  0
   10.4347  -15.5005   22.8286 O   0  0  0  0  0  0  0  0  0  0  0  0
    6.1932  -10.9214   27.2154 C   0  0  0  0  0  0  0  0  0  0  0  0
    6.0809  -12.6911   26.7696 S   0  0  0  0  0  0  0  0  0  0  0  0
    7.6269  -13.2768   26.1872 C   0  0  0  0  0  0  0  0  0  0  0  0
    7.7624  -14.6922   25.8381 C   0  0  0  0  0  0  0  0  0  0  0  0
    8.9555  -15.3066   25.2779 C   0  0  2  0  0  0  0  0  0  0  0  0
    8.5049  -15.9632   23.9904 N   0  0  0  0  0  0  0  0  0  0  0  0
    9.4854  -16.5083   26.0540 C   0  0  0  0  0  0  0  0  0  0  0  0
    8.9913  -17.6664   25.7571 O   0  0  0  0  0  0  0  0  0  0  0  0
   10.4142  -16.5153   27.0274 O   0  0  0  0  0  0  0  0  0  0  0  0
  2  1  1  6
  3  2  1  0
  4  6  1  0
  4  2  1  0
  4  5  1  1
  6  7  2  0
  8  9  1  0
  8  6  1  0
 10 11  1  0
  9 10  1  6
 11 12  1  0
 12 13  1  0
 14 13  1  0
 15  9  1  0
 16 15  2  0
 17 18  1  0
 19 18  1  0
 20 19  1  0
 21 20  1  1
 21 22  1  0
 21 23  1  0
 22 15  1  0
 23 25  1  0
 24 23  2  0
M  END
$$$$
