TKM.pdb
     RDKit          3D

 25 24  0  0  1  0  0  0  0  0999 V2000
   10.8607  -14.3731   19.9307 C   0  0  0  0  0  0  0  0  0  0  0  0
    9.8341  -13.4600   19.3322 C   0  0  1  0  0  0  0  0  0  0  0  0
   10.2968  -13.0776   18.0575 O   0  0  0  0  0  0  0  0  0  0  0  0
    8.5088  -14.1506   19.1014 C   0  0  2  0  0  0  0  0  0  0  0  0
    7.5997  -13.1785   18.5290 N   0  0  0  0  0  0  0  0  0  0  0  0
    7.8975  -14.6372   20.3657 C   0  0  0  0  0  0  0  0  0  0  0  0
    7.4215  -13.8137   21.1695 O   0  0  0  0  0  0  0  0  0  0  0  0
    7.8267  -16.0027   20.7089 N   0  0  0  0  0  0  0  0  0  0  0  0
    7.2454  -16.5112   21.9479 C   0  0  1  0  0  0  0  0  0  0  0  0
    7.0015  -17.9736   21.8200 C   0  0  0  0  0  0  0  0  0  0  0  0
    6.5871  -18.7102   23.0374 C   0  0  0  0  0  0  0  0  0  0  0  0
    6.2565  -20.1416   22.5526 C   0  0  0  0  0  0  0  0  0  0  0  0
    5.8028  -20.9886   23.7181 C   0  0  0  0  0  0  0  0  0  0  0  0
    5.3656  -22.2619   23.1801 N   0  0  0  0  0  0  0  0  0  0  0  0
    8.1285  -16.0910   23.0478 C   0  0  0  0  0  0  0  0  0  0  0  0
    9.3613  -16.2414   22.9241 O   0  0  0  0  0  0  0  0  0  0  0  0
    6.2514  -10.8025   25.8123 C   0  0  0  0  0  0  0  0  0  0  0  0
    6.9657  -11.5570   27.3168 S   0  0  0  0  0  0  0  0  0  0  0  0
    8.0206  -12.8910   26.8931 C   0  0  0  0  0  0  0  0  0  0  0  0
    7.6309  -13.7823   25.7989 C   0  0  0  0  0  0  0  0  0  0  0  0
    8.4404  -14.8718   25.2768 C   0  0  2  0  0  0  0  0  0  0  0  0
    7.5921  -15.5293   24.2091 N   0  0  0  0  0  0  0  0  0  0  0  0
    8.6552  -16.0337   26.2418 C   0  0  0  0  0  0  0  0  0  0  0  0
    9.5878  -15.8993   27.1282 O   0  0  0  0  0  0  0  0  0  0  0  0
    7.9888  -17.2017   26.2853 O   0  0  0  0  0  0  0  0  0  0  0  0
  2  1  1  6
  3  2  1  0
  4  6  1  0
  4  2  1  0
  4  5  1  1
  6  7  2  0
  8  9  1  0
  8  6  1  0
 10 11  1  0
  9 10  1  6
 11 12  1  0
 12 13  1  0
 14 13  1  0
 15  9  1  0
 16 15  2  0
 17 18  1  0
 19 18  1  0
 20 19  1  0
 21 20  1  1
 21 22  1  0
 21 23  1  0
 22 15  1  0
 23 25  1  0
 24 23  2  0
M  END
$$$$
