TKM.pdb
     RDKit          3D

 25 24  0  0  1  0  0  0  0  0999 V2000
   10.7583  -14.7356   19.5350 C   0  0  0  0  0  0  0  0  0  0  0  0
    9.8494  -13.6094   19.1459 C   0  0  1  0  0  0  0  0  0  0  0  0
   10.1702  -13.2415   17.8242 O   0  0  0  0  0  0  0  0  0  0  0  0
    8.3948  -14.0216   19.1192 C   0  0  2  0  0  0  0  0  0  0  0  0
    7.6152  -12.8609   18.7399 N   0  0  0  0  0  0  0  0  0  0  0  0
    7.9086  -14.4648   20.4520 C   0  0  0  0  0  0  0  0  0  0  0  0
    7.5796  -13.6105   21.2962 O   0  0  0  0  0  0  0  0  0  0  0  0
    7.7984  -15.8220   20.8170 N   0  0  0  0  0  0  0  0  0  0  0  0
    7.4110  -16.2885   22.1451 C   0  0  1  0  0  0  0  0  0  0  0  0
    7.0250  -17.7240   22.0756 C   0  0  0  0  0  0  0  0  0  0  0  0
    6.6296  -18.3912   23.3386 C   0  0  0  0  0  0  0  0  0  0  0  0
    6.2857  -19.8456   22.9386 C   0  0  0  0  0  0  0  0  0  0  0  0
    5.8223  -20.6177   24.1513 C   0  0  0  0  0  0  0  0  0  0  0  0
    5.4740  -21.9521   23.7043 N   0  0  0  0  0  0  0  0  0  0  0  0
    8.5116  -15.9528   23.0629 C   0  0  0  0  0  0  0  0  0  0  0  0
    9.5347  -15.4043   22.6044 O   0  0  0  0  0  0  0  0  0  0  0  0
    5.6027  -12.3202   26.2837 C   0  0  0  0  0  0  0  0  0  0  0  0
    7.3176  -11.8140   26.6661 S   0  0  0  0  0  0  0  0  0  0  0  0
    8.3793  -13.2084   26.6859 C   0  0  0  0  0  0  0  0  0  0  0  0
    8.2413  -14.2188   25.6354 C   0  0  0  0  0  0  0  0  0  0  0  0
    9.0708  -15.4056   25.5000 C   0  0  2  0  0  0  0  0  0  0  0  0
    8.4077  -16.2412   24.4258 N   0  0  0  0  0  0  0  0  0  0  0  0
    9.0261  -16.3610   26.6886 C   0  0  0  0  0  0  0  0  0  0  0  0
    9.8686  -16.1495   27.6472 O   0  0  0  0  0  0  0  0  0  0  0  0
    8.2102  -17.4159   26.8666 O   0  0  0  0  0  0  0  0  0  0  0  0
  2  1  1  6
  3  2  1  0
  4  6  1  0
  4  2  1  0
  4  5  1  1
  6  7  2  0
  8  9  1  0
  8  6  1  0
 10 11  1  0
  9 10  1  6
 11 12  1  0
 12 13  1  0
 14 13  1  0
 15  9  1  0
 16 15  2  0
 17 18  1  0
 19 18  1  0
 20 19  1  0
 21 20  1  1
 21 22  1  0
 21 23  1  0
 22 15  1  0
 23 25  1  0
 24 23  2  0
M  END
$$$$
