TKM.pdb
     RDKit          3D

 25 24  0  0  1  0  0  0  0  0999 V2000
   10.0183  -12.9418   17.6559 C   0  0  0  0  0  0  0  0  0  0  0  0
    9.6621  -13.6846   18.9079 C   0  0  1  0  0  0  0  0  0  0  0  0
   10.1125  -12.9170   20.0002 O   0  0  0  0  0  0  0  0  0  0  0  0
    8.1681  -13.8282   19.0911 C   0  0  2  0  0  0  0  0  0  0  0  0
    7.6013  -12.4961   19.1474 N   0  0  0  0  0  0  0  0  0  0  0  0
    7.8180  -14.5120   20.3634 C   0  0  0  0  0  0  0  0  0  0  0  0
    7.3534  -13.8447   21.3067 O   0  0  0  0  0  0  0  0  0  0  0  0
    7.9864  -15.8975   20.5625 N   0  0  0  0  0  0  0  0  0  0  0  0
    7.6535  -16.5980   21.7994 C   0  0  1  0  0  0  0  0  0  0  0  0
    7.5470  -18.0579   21.5316 C   0  0  0  0  0  0  0  0  0  0  0  0
    6.5798  -18.4984   20.4987 C   0  0  0  0  0  0  0  0  0  0  0  0
    6.7592  -20.0319   20.4024 C   0  0  0  0  0  0  0  0  0  0  0  0
    5.7711  -20.6055   19.4145 C   0  0  0  0  0  0  0  0  0  0  0  0
    5.8979  -22.0487   19.4677 N   0  0  0  0  0  0  0  0  0  0  0  0
    8.6426  -16.1908   22.8104 C   0  0  0  0  0  0  0  0  0  0  0  0
    9.6841  -15.6125   22.4381 O   0  0  0  0  0  0  0  0  0  0  0  0
    6.8410  -10.9781   25.7945 C   0  0  0  0  0  0  0  0  0  0  0  0
    6.4895  -12.5057   26.7359 S   0  0  0  0  0  0  0  0  0  0  0  0
    7.8365  -13.6213   26.6208 C   0  0  0  0  0  0  0  0  0  0  0  0
    7.8356  -14.6254   25.5553 C   0  0  0  0  0  0  0  0  0  0  0  0
    8.9240  -15.5474   25.2718 C   0  0  2  0  0  0  0  0  0  0  0  0
    8.4142  -16.4455   24.1648 N   0  0  0  0  0  0  0  0  0  0  0  0
    9.2082  -16.5652   26.3721 C   0  0  0  0  0  0  0  0  0  0  0  0
    9.9104  -16.1622   27.3811 O   0  0  0  0  0  0  0  0  0  0  0  0
    8.8180  -17.8517   26.4242 O   0  0  0  0  0  0  0  0  0  0  0  0
  2  1  1  6
  3  2  1  0
  4  6  1  0
  4  2  1  0
  4  5  1  1
  6  7  2  0
  8  9  1  0
  8  6  1  0
 10 11  1  0
  9 10  1  6
 11 12  1  0
 12 13  1  0
 14 13  1  0
 15  9  1  0
 16 15  2  0
 17 18  1  0
 19 18  1  0
 20 19  1  0
 21 20  1  1
 21 22  1  0
 21 23  1  0
 22 15  1  0
 23 25  1  0
 24 23  2  0
M  END
$$$$
