TKM.pdb
     RDKit          3D

 25 24  0  0  1  0  0  0  0  0999 V2000
    9.2944  -12.8880   18.0367 C   0  0  0  0  0  0  0  0  0  0  0  0
    9.1217  -13.6297   19.3274 C   0  0  1  0  0  0  0  0  0  0  0  0
    9.0648  -12.6748   20.3620 O   0  0  0  0  0  0  0  0  0  0  0  0
    7.8141  -14.3863   19.3903 C   0  0  2  0  0  0  0  0  0  0  0  0
    6.7417  -13.4268   19.2228 N   0  0  0  0  0  0  0  0  0  0  0  0
    7.6098  -15.0534   20.7027 C   0  0  0  0  0  0  0  0  0  0  0  0
    6.9172  -14.4909   21.5715 O   0  0  0  0  0  0  0  0  0  0  0  0
    8.1671  -16.3085   21.0215 N   0  0  0  0  0  0  0  0  0  0  0  0
    7.9422  -17.0134   22.2801 C   0  0  1  0  0  0  0  0  0  0  0  0
    8.2574  -18.4572   22.1053 C   0  0  0  0  0  0  0  0  0  0  0  0
    7.2472  -19.3039   21.4276 C   0  0  0  0  0  0  0  0  0  0  0  0
    7.9013  -20.7010   21.3111 C   0  0  0  0  0  0  0  0  0  0  0  0
    6.9313  -21.6735   20.6825 C   0  0  0  0  0  0  0  0  0  0  0  0
    7.5998  -22.9574   20.6036 N   0  0  0  0  0  0  0  0  0  0  0  0
    8.7022  -16.3012   23.3200 C   0  0  0  0  0  0  0  0  0  0  0  0
    9.8758  -15.9519   23.0783 O   0  0  0  0  0  0  0  0  0  0  0  0
    6.7897  -10.9716   25.6628 C   0  0  0  0  0  0  0  0  0  0  0  0
    7.0067  -11.8535   27.2497 S   0  0  0  0  0  0  0  0  0  0  0  0
    8.1358  -13.1813   27.0646 C   0  0  0  0  0  0  0  0  0  0  0  0
    7.9081  -14.1618   26.0014 C   0  0  0  0  0  0  0  0  0  0  0  0
    8.8183  -15.2389   25.6459 C   0  0  2  0  0  0  0  0  0  0  0  0
    8.1147  -16.0186   24.5556 N   0  0  0  0  0  0  0  0  0  0  0  0
    8.9917  -16.3139   26.7144 C   0  0  0  0  0  0  0  0  0  0  0  0
    8.1350  -17.2832   26.7201 O   0  0  0  0  0  0  0  0  0  0  0  0
    9.9365  -16.3799   27.6701 O   0  0  0  0  0  0  0  0  0  0  0  0
  2  1  1  6
  3  2  1  0
  4  6  1  0
  4  2  1  0
  4  5  1  1
  6  7  2  0
  8  9  1  0
  8  6  1  0
 10 11  1  0
  9 10  1  6
 11 12  1  0
 12 13  1  0
 14 13  1  0
 15  9  1  0
 16 15  2  0
 17 18  1  0
 19 18  1  0
 20 19  1  0
 21 20  1  1
 21 22  1  0
 21 23  1  0
 22 15  1  0
 23 25  1  0
 24 23  2  0
M  END
$$$$
