TKM.pdb
     RDKit          3D

 25 24  0  0  1  0  0  0  0  0999 V2000
   10.0723  -13.6624   20.2784 C   0  0  0  0  0  0  0  0  0  0  0  0
    8.8432  -13.2065   19.5521 C   0  0  1  0  0  0  0  0  0  0  0  0
    9.2323  -12.8351   18.2499 O   0  0  0  0  0  0  0  0  0  0  0  0
    7.8276  -14.3135   19.3807 C   0  0  2  0  0  0  0  0  0  0  0  0
    6.6835  -13.7578   18.6870 N   0  0  0  0  0  0  0  0  0  0  0  0
    7.3420  -14.8414   20.6825 C   0  0  0  0  0  0  0  0  0  0  0  0
    6.5472  -14.1613   21.3582 O   0  0  0  0  0  0  0  0  0  0  0  0
    7.7394  -16.0906   21.2012 N   0  0  0  0  0  0  0  0  0  0  0  0
    7.3104  -16.6201   22.4923 C   0  0  1  0  0  0  0  0  0  0  0  0
    7.0895  -18.0874   22.3802 C   0  0  0  0  0  0  0  0  0  0  0  0
    6.8174  -18.8388   23.6283 C   0  0  0  0  0  0  0  0  0  0  0  0
    6.5801  -20.2999   23.1787 C   0  0  0  0  0  0  0  0  0  0  0  0
    6.2723  -21.1648   24.3782 C   0  0  0  0  0  0  0  0  0  0  0  0
    6.1032  -22.5221   23.8979 N   0  0  0  0  0  0  0  0  0  0  0  0
    8.2987  -16.1838   23.4920 C   0  0  0  0  0  0  0  0  0  0  0  0
    9.5043  -16.4460   23.3042 O   0  0  0  0  0  0  0  0  0  0  0  0
    6.2658  -10.1578   25.8164 C   0  0  0  0  0  0  0  0  0  0  0  0
    6.8038  -11.5900   26.8176 S   0  0  0  0  0  0  0  0  0  0  0  0
    7.7294  -12.7108   25.8382 C   0  0  0  0  0  0  0  0  0  0  0  0
    8.1624  -13.9781   26.4299 C   0  0  0  0  0  0  0  0  0  0  0  0
    8.8478  -15.0446   25.7174 C   0  0  2  0  0  0  0  0  0  0  0  0
    7.8905  -15.4840   24.6301 N   0  0  0  0  0  0  0  0  0  0  0  0
    9.0163  -16.3401   26.5053 C   0  0  0  0  0  0  0  0  0  0  0  0
    9.9878  -16.3895   27.3581 O   0  0  0  0  0  0  0  0  0  0  0  0
    8.2723  -17.4579   26.4205 O   0  0  0  0  0  0  0  0  0  0  0  0
  2  1  1  1
  3  2  1  0
  4  6  1  0
  4  2  1  0
  4  5  1  6
  6  7  2  0
  8  9  1  0
  8  6  1  0
 10 11  1  0
  9 10  1  6
 11 12  1  0
 12 13  1  0
 14 13  1  0
 15  9  1  0
 16 15  2  0
 17 18  1  0
 19 18  1  0
 20 19  1  0
 21 20  1  1
 21 22  1  0
 21 23  1  0
 22 15  1  0
 23 25  1  0
 24 23  2  0
M  END
$$$$
