QIK.pdb
     RDKit          3D

 27 26  0  0  1  0  0  0  0  0999 V2000
    7.1884  -18.2765   13.3240 N   0  0  0  0  0  0  0  0  0  0  0  0
    8.0253  -17.6205   14.2666 C   0  0  0  0  0  0  0  0  0  0  0  0
    8.9887  -16.9294   13.8649 O   0  0  0  0  0  0  0  0  0  0  0  0
    7.7054  -17.7930   15.7213 C   0  0  0  0  0  0  0  0  0  0  0  0
    8.9207  -18.3789   16.3713 C   0  0  0  0  0  0  0  0  0  0  0  0
    8.7521  -18.5772   17.8428 C   0  0  2  0  0  0  0  0  0  0  0  0
    7.4109  -18.8384   18.2635 N   0  0  0  0  0  0  0  0  0  0  0  0
    9.2515  -17.3483   18.5653 C   0  0  0  0  0  0  0  0  0  0  0  0
   10.4560  -17.0038   18.4501 O   0  0  0  0  0  0  0  0  0  0  0  0
    7.7798  -11.8489   20.6760 C   0  0  0  0  0  0  0  0  0  0  0  0
    8.6567  -13.0490   20.6823 C   0  0  0  0  0  0  0  0  0  0  0  0
    8.0152  -14.3017   20.1068 C   0  0  2  0  0  0  0  0  0  0  0  0
    6.6878  -14.5751   20.7148 C   0  0  0  0  0  0  0  0  0  0  0  0
    8.9934  -15.4576   20.1506 C   0  0  2  0  0  0  0  0  0  0  0  0
    8.3905  -16.5745   19.3710 N   0  0  0  0  0  0  0  0  0  0  0  0
    9.2995  -15.9597   21.4963 C   0  0  0  0  0  0  0  0  0  0  0  0
    8.3315  -16.3937   22.2133 O   0  0  0  0  0  0  0  0  0  0  0  0
   10.5797  -16.0079   22.0619 N   0  0  0  0  0  0  0  0  0  0  0  0
   10.8502  -16.7428   23.2970 C   0  0  1  0  0  0  0  0  0  0  0  0
   11.2387  -18.1539   23.0253 C   0  0  0  0  0  0  0  0  0  0  0  0
   11.4628  -18.9998   24.2132 C   0  0  0  0  0  0  0  0  0  0  0  0
   11.9116  -20.3887   24.1360 C   0  0  0  0  0  0  0  0  0  0  0  0
   12.1425  -21.2056   25.3533 C   0  0  0  0  0  0  0  0  0  0  0  0
   12.6172  -22.5330   24.8742 N   0  0  0  0  0  0  0  0  0  0  0  0
   11.9764  -16.0467   24.0463 C   0  0  0  0  0  0  0  0  0  0  0  0
   12.8706  -15.3969   23.4947 O   0  0  0  0  0  0  0  0  0  0  0  0
   11.9569  -16.1760   25.4202 O   0  0  0  0  0  0  0  0  0  0  0  0
  1  2  1  0
  2  3  2  0
  4  2  1  0
  4  5  1  0
  6  7  1  6
  6  5  1  0
  8  6  1  0
  9  8  2  0
 11 10  1  0
 12 13  1  1
 12 14  1  0
 12 11  1  0
 14 15  1  6
 15  8  1  0
 16 14  1  0
 16 17  2  0
 18 16  1  0
 19 18  1  0
 19 20  1  6
 21 20  1  0
 22 23  1  0
 22 21  1  0
 23 24  1  0
 25 27  1  0
 25 19  1  0
 26 25  2  0
M  END
$$$$
