QIK.pdb
     RDKit          3D

 27 26  0  0  1  0  0  0  0  0999 V2000
    7.6847  -20.5288   24.3217 N   0  0  0  0  0  0  0  0  0  0  0  0
    6.6350  -19.6603   23.9177 C   0  0  0  0  0  0  0  0  0  0  0  0
    5.5066  -19.7620   24.4500 O   0  0  0  0  0  0  0  0  0  0  0  0
    6.9388  -18.6477   22.8544 C   0  0  0  0  0  0  0  0  0  0  0  0
    5.9008  -17.5737   22.9619 C   0  0  0  0  0  0  0  0  0  0  0  0
    6.3998  -16.2384   22.5135 C   0  0  2  0  0  0  0  0  0  0  0  0
    7.0111  -16.2291   21.2212 N   0  0  0  0  0  0  0  0  0  0  0  0
    7.3996  -15.7230   23.5216 C   0  0  0  0  0  0  0  0  0  0  0  0
    8.6314  -15.8314   23.2896 O   0  0  0  0  0  0  0  0  0  0  0  0
    5.8429  -11.4881   26.4313 C   0  0  0  0  0  0  0  0  0  0  0  0
    6.7491  -12.3947   25.6788 C   0  0  0  0  0  0  0  0  0  0  0  0
    7.3402  -13.5248   26.5066 C   0  0  2  0  0  0  0  0  0  0  0  0
    8.1689  -13.0159   27.6293 C   0  0  0  0  0  0  0  0  0  0  0  0
    8.0261  -14.5303   25.6048 C   0  0  2  0  0  0  0  0  0  0  0  0
    6.9786  -15.1190   24.7246 N   0  0  0  0  0  0  0  0  0  0  0  0
    8.6997  -15.6319   26.3045 C   0  0  0  0  0  0  0  0  0  0  0  0
    7.9749  -16.4855   26.9253 O   0  0  0  0  0  0  0  0  0  0  0  0
   10.0857  -15.8289   26.3424 N   0  0  0  0  0  0  0  0  0  0  0  0
   10.6832  -16.9779   27.0218 C   0  0  1  0  0  0  0  0  0  0  0  0
   11.9915  -17.3551   26.4203 C   0  0  0  0  0  0  0  0  0  0  0  0
   12.7301  -18.4309   27.1090 C   0  0  0  0  0  0  0  0  0  0  0  0
   12.9749  -19.7436   26.5147 C   0  0  0  0  0  0  0  0  0  0  0  0
   13.6928  -20.8143   27.2502 C   0  0  0  0  0  0  0  0  0  0  0  0
   13.5690  -22.0411   26.4156 N   0  0  0  0  0  0  0  0  0  0  0  0
   10.8859  -16.6304   28.4889 C   0  0  0  0  0  0  0  0  0  0  0  0
   10.9907  -15.4752   28.9139 O   0  0  0  0  0  0  0  0  0  0  0  0
   10.9503  -17.7000   29.3587 O   0  0  0  0  0  0  0  0  0  0  0  0
  1  2  1  0
  2  3  2  0
  4  2  1  0
  4  5  1  0
  6  7  1  6
  6  5  1  0
  8  6  1  0
  9  8  2  0
 11 10  1  0
 12 13  1  1
 12 14  1  0
 12 11  1  0
 14 15  1  6
 15  8  1  0
 16 14  1  0
 16 17  2  0
 18 16  1  0
 19 18  1  0
 19 20  1  6
 21 20  1  0
 22 23  1  0
 22 21  1  0
 23 24  1  0
 25 27  1  0
 25 19  1  0
 26 25  2  0
M  END
$$$$
