QIK.pdb
     RDKit          3D

 27 26  0  0  1  0  0  0  0  0999 V2000
    7.0341  -18.7871   20.6138 N   0  0  0  0  0  0  0  0  0  0  0  0
    6.6466  -17.9851   19.5066 C   0  0  0  0  0  0  0  0  0  0  0  0
    6.2693  -18.5329   18.4461 O   0  0  0  0  0  0  0  0  0  0  0  0
    6.7106  -16.4958   19.6686 C   0  0  0  0  0  0  0  0  0  0  0  0
    7.1049  -16.2254   21.0878 C   0  0  0  0  0  0  0  0  0  0  0  0
    7.1117  -14.7684   21.4198 C   0  0  2  0  0  0  0  0  0  0  0  0
    7.6739  -13.9256   20.4110 N   0  0  0  0  0  0  0  0  0  0  0  0
    7.8803  -14.5598   22.7032 C   0  0  0  0  0  0  0  0  0  0  0  0
    9.1204  -14.3519   22.6606 O   0  0  0  0  0  0  0  0  0  0  0  0
    6.0865  -11.6728   26.8480 C   0  0  0  0  0  0  0  0  0  0  0  0
    6.9488  -12.3965   25.8775 C   0  0  0  0  0  0  0  0  0  0  0  0
    7.2480  -13.8391   26.2533 C   0  0  2  0  0  0  0  0  0  0  0  0
    7.7924  -13.9525   27.6307 C   0  0  0  0  0  0  0  0  0  0  0  0
    8.0833  -14.4981   25.1750 C   0  0  2  0  0  0  0  0  0  0  0  0
    7.2329  -14.5935   23.9559 N   0  0  0  0  0  0  0  0  0  0  0  0
    8.5608  -15.8485   25.4995 C   0  0  0  0  0  0  0  0  0  0  0  0
    7.6922  -16.7794   25.6351 O   0  0  0  0  0  0  0  0  0  0  0  0
    9.9045  -16.2044   25.6686 N   0  0  0  0  0  0  0  0  0  0  0  0
   10.3017  -17.5598   26.0481 C   0  0  1  0  0  0  0  0  0  0  0  0
   11.3420  -18.1060   25.1342 C   0  0  0  0  0  0  0  0  0  0  0  0
   11.0369  -18.0289   23.6927 C   0  0  0  0  0  0  0  0  0  0  0  0
   11.9787  -18.4332   22.6505 C   0  0  0  0  0  0  0  0  0  0  0  0
   11.6231  -18.3801   21.2106 C   0  0  0  0  0  0  0  0  0  0  0  0
   12.8449  -18.7979   20.4693 N   0  0  0  0  0  0  0  0  0  0  0  0
   10.8445  -17.5331   27.4689 C   0  0  0  0  0  0  0  0  0  0  0  0
   11.0742  -16.4949   28.0979 O   0  0  0  0  0  0  0  0  0  0  0  0
   11.0786  -18.7636   28.0484 O   0  0  0  0  0  0  0  0  0  0  0  0
  1  2  1  0
  2  3  2  0
  4  2  1  0
  4  5  1  0
  6  7  1  6
  6  5  1  0
  8  6  1  0
  9  8  2  0
 11 10  1  0
 12 13  1  1
 12 14  1  0
 12 11  1  0
 14 15  1  6
 15  8  1  0
 16 14  1  0
 16 17  2  0
 18 16  1  0
 19 18  1  0
 19 20  1  6
 21 20  1  0
 22 23  1  0
 22 21  1  0
 23 24  1  0
 25 27  1  0
 25 19  1  0
 26 25  2  0
M  END
$$$$
