QIK.pdb
     RDKit          3D

 27 26  0  0  1  0  0  0  0  0999 V2000
    7.5399  -17.7746   18.8464 N   0  0  0  0  0  0  0  0  0  0  0  0
    7.6721  -18.0161   20.2406 C   0  0  0  0  0  0  0  0  0  0  0  0
    7.5262  -19.1772   20.6852 O   0  0  0  0  0  0  0  0  0  0  0  0
    7.9853  -16.8457   21.1239 C   0  0  0  0  0  0  0  0  0  0  0  0
    8.0909  -15.6431   20.2378 C   0  0  0  0  0  0  0  0  0  0  0  0
    7.4951  -14.4174   20.8509 C   0  0  2  0  0  0  0  0  0  0  0  0
    7.5889  -13.2384   20.0479 N   0  0  0  0  0  0  0  0  0  0  0  0
    8.1710  -14.1516   22.1754 C   0  0  0  0  0  0  0  0  0  0  0  0
    9.3709  -13.7742   22.1984 O   0  0  0  0  0  0  0  0  0  0  0  0
    7.1831  -11.5205   27.4616 C   0  0  0  0  0  0  0  0  0  0  0  0
    7.9761  -12.4911   26.6628 C   0  0  0  0  0  0  0  0  0  0  0  0
    7.2908  -12.9721   25.3935 C   0  0  2  0  0  0  0  0  0  0  0  0
    5.9161  -13.4682   25.6588 C   0  0  0  0  0  0  0  0  0  0  0  0
    8.1897  -13.9360   24.6468 C   0  0  2  0  0  0  0  0  0  0  0  0
    7.4808  -14.3187   23.3940 N   0  0  0  0  0  0  0  0  0  0  0  0
    8.5175  -15.1685   25.3750 C   0  0  0  0  0  0  0  0  0  0  0  0
    7.6024  -16.0547   25.5041 O   0  0  0  0  0  0  0  0  0  0  0  0
    9.7656  -15.4576   25.9403 N   0  0  0  0  0  0  0  0  0  0  0  0
   10.0195  -16.7112   26.6495 C   0  0  1  0  0  0  0  0  0  0  0  0
   11.2581  -17.3787   26.1636 C   0  0  0  0  0  0  0  0  0  0  0  0
   11.2084  -17.9025   24.7852 C   0  0  0  0  0  0  0  0  0  0  0  0
   12.3561  -18.5133   24.1172 C   0  0  0  0  0  0  0  0  0  0  0  0
   12.2923  -18.9603   22.7034 C   0  0  0  0  0  0  0  0  0  0  0  0
   13.6772  -19.3666   22.3374 N   0  0  0  0  0  0  0  0  0  0  0  0
   10.1573  -16.4159   28.1355 C   0  0  0  0  0  0  0  0  0  0  0  0
   10.1880  -15.2756   28.6100 O   0  0  0  0  0  0  0  0  0  0  0  0
   10.2501  -17.5164   28.9631 O   0  0  0  0  0  0  0  0  0  0  0  0
  1  2  1  0
  2  3  2  0
  4  2  1  0
  4  5  1  0
  6  7  1  6
  6  5  1  0
  8  6  1  0
  9  8  2  0
 11 10  1  0
 12 13  1  1
 12 14  1  0
 12 11  1  0
 14 15  1  6
 15  8  1  0
 16 14  1  0
 16 17  2  0
 18 16  1  0
 19 18  1  0
 19 20  1  6
 21 20  1  0
 22 23  1  0
 22 21  1  0
 23 24  1  0
 25 27  1  0
 25 19  1  0
 26 25  2  0
M  END
$$$$
