QIK.pdb
     RDKit          3D

 27 26  0  0  1  0  0  0  0  0999 V2000
    8.1303  -19.7140   21.4108 N   0  0  0  0  0  0  0  0  0  0  0  0
    7.9760  -19.1222   20.1281 C   0  0  0  0  0  0  0  0  0  0  0  0
    7.6259  -19.8300   19.1567 O   0  0  0  0  0  0  0  0  0  0  0  0
    8.2455  -17.6527   20.0017 C   0  0  0  0  0  0  0  0  0  0  0  0
    8.5456  -17.1418   21.3771 C   0  0  0  0  0  0  0  0  0  0  0  0
    8.3468  -15.6661   21.5033 C   0  0  2  0  0  0  0  0  0  0  0  0
    9.0364  -14.8818   20.5271 N   0  0  0  0  0  0  0  0  0  0  0  0
    8.7939  -15.2251   22.8770 C   0  0  0  0  0  0  0  0  0  0  0  0
   10.0166  -15.0327   23.1028 O   0  0  0  0  0  0  0  0  0  0  0  0
    5.9021  -11.8100   25.7867 C   0  0  0  0  0  0  0  0  0  0  0  0
    7.0249  -12.6068   25.2266 C   0  0  0  0  0  0  0  0  0  0  0  0
    7.3282  -13.8890   25.9854 C   0  0  2  0  0  0  0  0  0  0  0  0
    7.5927  -13.6332   27.4244 C   0  0  0  0  0  0  0  0  0  0  0  0
    8.3994  -14.6820   25.2654 C   0  0  2  0  0  0  0  0  0  0  0  0
    7.8639  -15.0234   23.9180 N   0  0  0  0  0  0  0  0  0  0  0  0
    8.7931  -15.9335   25.9254 C   0  0  0  0  0  0  0  0  0  0  0  0
    7.9306  -16.8774   25.9931 O   0  0  0  0  0  0  0  0  0  0  0  0
   10.0514  -16.1819   26.4874 N   0  0  0  0  0  0  0  0  0  0  0  0
   10.4116  -17.4941   27.0232 C   0  0  1  0  0  0  0  0  0  0  0  0
   11.7040  -17.9809   26.4677 C   0  0  0  0  0  0  0  0  0  0  0  0
   12.2203  -19.2367   27.0451 C   0  0  0  0  0  0  0  0  0  0  0  0
   13.5147  -19.8126   26.6852 C   0  0  0  0  0  0  0  0  0  0  0  0
   13.9920  -21.0911   27.2685 C   0  0  0  0  0  0  0  0  0  0  0  0
   15.2825  -21.3958   26.5913 N   0  0  0  0  0  0  0  0  0  0  0  0
   10.5212  -17.3934   28.5372 C   0  0  0  0  0  0  0  0  0  0  0  0
   10.6020  -18.3716   29.2874 O   0  0  0  0  0  0  0  0  0  0  0  0
   10.5269  -16.1153   29.0578 O   0  0  0  0  0  0  0  0  0  0  0  0
  1  2  1  0
  2  3  2  0
  4  2  1  0
  4  5  1  0
  6  7  1  6
  6  5  1  0
  8  6  1  0
  9  8  2  0
 11 10  1  0
 12 13  1  1
 12 14  1  0
 12 11  1  0
 14 15  1  6
 15  8  1  0
 16 14  1  0
 16 17  2  0
 18 16  1  0
 19 18  1  0
 19 20  1  6
 21 20  1  0
 22 23  1  0
 22 21  1  0
 23 24  1  0
 25 27  1  0
 25 19  1  0
 26 25  2  0
M  END
$$$$
