QIK.pdb
     RDKit          3D

 27 26  0  0  1  0  0  0  0  0999 V2000
    8.1672  -12.5880   18.0689 N   0  0  0  0  0  0  0  0  0  0  0  0
    8.1796  -13.9085   17.5439 C   0  0  0  0  0  0  0  0  0  0  0  0
    8.2617  -14.0833   16.3071 O   0  0  0  0  0  0  0  0  0  0  0  0
    8.0919  -15.0460   18.5169 C   0  0  0  0  0  0  0  0  0  0  0  0
    7.9741  -14.4460   19.8839 C   0  0  0  0  0  0  0  0  0  0  0  0
    7.9358  -15.4749   20.9670 C   0  0  2  0  0  0  0  0  0  0  0  0
    6.6428  -16.0283   21.2236 N   0  0  0  0  0  0  0  0  0  0  0  0
    8.4589  -14.8634   22.2452 C   0  0  0  0  0  0  0  0  0  0  0  0
    9.6551  -14.4787   22.3084 O   0  0  0  0  0  0  0  0  0  0  0  0
    7.1405  -11.4912   27.0920 C   0  0  0  0  0  0  0  0  0  0  0  0
    7.9579  -12.5594   26.4595 C   0  0  0  0  0  0  0  0  0  0  0  0
    7.3206  -13.2005   25.2369 C   0  0  2  0  0  0  0  0  0  0  0  0
    5.9477  -13.6920   25.5199 C   0  0  0  0  0  0  0  0  0  0  0  0
    8.2594  -14.2253   24.6343 C   0  0  2  0  0  0  0  0  0  0  0  0
    7.6295  -14.7137   23.3761 N   0  0  0  0  0  0  0  0  0  0  0  0
    8.5327  -15.3910   25.4848 C   0  0  0  0  0  0  0  0  0  0  0  0
    7.6011  -16.2553   25.6419 O   0  0  0  0  0  0  0  0  0  0  0  0
    9.7454  -15.6387   26.1397 N   0  0  0  0  0  0  0  0  0  0  0  0
    9.9975  -16.8932   26.8481 C   0  0  1  0  0  0  0  0  0  0  0  0
   11.2161  -17.5793   26.3381 C   0  0  0  0  0  0  0  0  0  0  0  0
   11.5587  -18.8552   26.9951 C   0  0  0  0  0  0  0  0  0  0  0  0
   11.6649  -20.1240   26.2774 C   0  0  0  0  0  0  0  0  0  0  0  0
   12.0578  -21.3805   26.9626 C   0  0  0  0  0  0  0  0  0  0  0  0
   12.0805  -22.4334   25.9101 N   0  0  0  0  0  0  0  0  0  0  0  0
   10.1715  -16.5945   28.3295 C   0  0  0  0  0  0  0  0  0  0  0  0
   10.3193  -17.4648   29.1938 O   0  0  0  0  0  0  0  0  0  0  0  0
   10.1570  -15.2601   28.6816 O   0  0  0  0  0  0  0  0  0  0  0  0
  1  2  1  0
  2  3  2  0
  4  2  1  0
  4  5  1  0
  6  7  1  1
  6  5  1  0
  8  6  1  0
  9  8  2  0
 11 10  1  0
 12 13  1  1
 12 14  1  0
 12 11  1  0
 14 15  1  6
 15  8  1  0
 16 14  1  0
 16 17  2  0
 18 16  1  0
 19 18  1  0
 19 20  1  6
 21 20  1  0
 22 23  1  0
 22 21  1  0
 23 24  1  0
 25 27  1  0
 25 19  1  0
 26 25  2  0
M  END
$$$$
