QIK.pdb
     RDKit          3D

 27 26  0  0  1  0  0  0  0  0999 V2000
    8.9548  -12.5243   18.5959 N   0  0  0  0  0  0  0  0  0  0  0  0
    8.0853  -13.5032   18.0436 C   0  0  0  0  0  0  0  0  0  0  0  0
    7.9315  -13.5666   16.8029 O   0  0  0  0  0  0  0  0  0  0  0  0
    7.3836  -14.4272   18.9933 C   0  0  0  0  0  0  0  0  0  0  0  0
    7.8700  -14.0938   20.3698 C   0  0  0  0  0  0  0  0  0  0  0  0
    7.7893  -15.2530   21.3095 C   0  0  2  0  0  0  0  0  0  0  0  0
    6.4712  -15.7658   21.5182 N   0  0  0  0  0  0  0  0  0  0  0  0
    8.3629  -14.8440   22.6457 C   0  0  0  0  0  0  0  0  0  0  0  0
    9.5932  -14.6020   22.7482 O   0  0  0  0  0  0  0  0  0  0  0  0
    5.8242  -11.4841   25.6796 C   0  0  0  0  0  0  0  0  0  0  0  0
    6.8733  -12.3340   25.0579 C   0  0  0  0  0  0  0  0  0  0  0  0
    7.2705  -13.5488   25.8814 C   0  0  2  0  0  0  0  0  0  0  0  0
    7.7546  -13.1689   27.2333 C   0  0  0  0  0  0  0  0  0  0  0  0
    8.2083  -14.4350   25.0877 C   0  0  2  0  0  0  0  0  0  0  0  0
    7.5432  -14.7271   23.7874 N   0  0  0  0  0  0  0  0  0  0  0  0
    8.5376  -15.7166   25.7247 C   0  0  0  0  0  0  0  0  0  0  0  0
    7.6336  -16.6227   25.7603 O   0  0  0  0  0  0  0  0  0  0  0  0
    9.7759  -16.0325   26.2971 N   0  0  0  0  0  0  0  0  0  0  0  0
   10.0551  -17.3577   26.8491 C   0  0  1  0  0  0  0  0  0  0  0  0
   11.1912  -18.0182   26.1498 C   0  0  0  0  0  0  0  0  0  0  0  0
   11.5684  -19.3527   26.6535 C   0  0  0  0  0  0  0  0  0  0  0  0
   12.6660  -20.1402   26.0951 C   0  0  0  0  0  0  0  0  0  0  0  0
   12.9704  -21.5105   26.5769 C   0  0  0  0  0  0  0  0  0  0  0  0
   14.1279  -21.9833   25.7685 N   0  0  0  0  0  0  0  0  0  0  0  0
   10.3889  -17.2143   28.3263 C   0  0  0  0  0  0  0  0  0  0  0  0
   10.6720  -16.1398   28.8662 O   0  0  0  0  0  0  0  0  0  0  0  0
   10.3613  -18.3787   29.0667 O   0  0  0  0  0  0  0  0  0  0  0  0
  1  2  1  0
  2  3  2  0
  4  2  1  0
  4  5  1  0
  6  7  1  1
  6  5  1  0
  8  6  1  0
  9  8  2  0
 11 10  1  0
 12 13  1  1
 12 14  1  0
 12 11  1  0
 14 15  1  6
 15  8  1  0
 16 14  1  0
 16 17  2  0
 18 16  1  0
 19 18  1  0
 19 20  1  6
 21 20  1  0
 22 23  1  0
 22 21  1  0
 23 24  1  0
 25 27  1  0
 25 19  1  0
 26 25  2  0
M  END
$$$$
