QIK.pdb
     RDKit          3D

 27 26  0  0  1  0  0  0  0  0999 V2000
    9.0891  -12.3170   18.8995 N   0  0  0  0  0  0  0  0  0  0  0  0
    7.8530  -12.9682   18.6403 C   0  0  0  0  0  0  0  0  0  0  0  0
    7.3251  -12.8692   17.5095 O   0  0  0  0  0  0  0  0  0  0  0  0
    7.2327  -13.7553   19.7557 C   0  0  0  0  0  0  0  0  0  0  0  0
    8.2125  -13.7584   20.8882 C   0  0  0  0  0  0  0  0  0  0  0  0
    8.2637  -15.0677   21.6066 C   0  0  2  0  0  0  0  0  0  0  0  0
    7.0297  -15.7893   21.6279 N   0  0  0  0  0  0  0  0  0  0  0  0
    8.7060  -14.8303   23.0312 C   0  0  0  0  0  0  0  0  0  0  0  0
    9.9026  -14.5234   23.2696 O   0  0  0  0  0  0  0  0  0  0  0  0
    6.3397  -11.3300   25.7386 C   0  0  0  0  0  0  0  0  0  0  0  0
    7.2923  -12.3590   25.2456 C   0  0  0  0  0  0  0  0  0  0  0  0
    7.3363  -13.6291   26.0804 C   0  0  2  0  0  0  0  0  0  0  0  0
    7.5545  -13.3393   27.5209 C   0  0  0  0  0  0  0  0  0  0  0  0
    8.3032  -14.6228   25.4703 C   0  0  2  0  0  0  0  0  0  0  0  0
    7.8003  -14.9461   24.1061 N   0  0  0  0  0  0  0  0  0  0  0  0
    8.4451  -15.8836   26.2100 C   0  0  0  0  0  0  0  0  0  0  0  0
    8.7104  -15.8228   27.4612 O   0  0  0  0  0  0  0  0  0  0  0  0
    8.3061  -17.1604   25.6519 N   0  0  0  0  0  0  0  0  0  0  0  0
    8.3382  -18.3694   26.4741 C   0  0  1  0  0  0  0  0  0  0  0  0
    8.0854  -19.5933   25.6654 C   0  0  0  0  0  0  0  0  0  0  0  0
    6.9471  -19.5221   24.7293 C   0  0  0  0  0  0  0  0  0  0  0  0
    6.5400  -20.6363   23.8752 C   0  0  0  0  0  0  0  0  0  0  0  0
    5.4425  -20.5032   22.8851 C   0  0  0  0  0  0  0  0  0  0  0  0
    5.3415  -21.8228   22.2028 N   0  0  0  0  0  0  0  0  0  0  0  0
    9.7037  -18.4773   27.1360 C   0  0  0  0  0  0  0  0  0  0  0  0
   10.7143  -17.8970   26.7260 O   0  0  0  0  0  0  0  0  0  0  0  0
    9.7693  -19.2809   28.2560 O   0  0  0  0  0  0  0  0  0  0  0  0
  1  2  1  0
  2  3  2  0
  4  2  1  0
  4  5  1  0
  6  7  1  1
  6  5  1  0
  8  6  1  0
  9  8  2  0
 11 10  1  0
 12 13  1  1
 12 14  1  0
 12 11  1  0
 14 15  1  6
 15  8  1  0
 16 14  1  0
 16 17  2  0
 18 16  1  0
 19 18  1  0
 19 20  1  6
 21 20  1  0
 22 23  1  0
 22 21  1  0
 23 24  1  0
 25 27  1  0
 25 19  1  0
 26 25  2  0
M  END
$$$$
