QIK.pdb
     RDKit          3D

 27 26  0  0  1  0  0  0  0  0999 V2000
    6.5270  -19.5770   21.9196 N   0  0  0  0  0  0  0  0  0  0  0  0
    6.7200  -19.1261   20.5859 C   0  0  0  0  0  0  0  0  0  0  0  0
    6.2716  -19.8015   19.6320 O   0  0  0  0  0  0  0  0  0  0  0  0
    7.4648  -17.8402   20.3859 C   0  0  0  0  0  0  0  0  0  0  0  0
    7.7320  -17.2720   21.7455 C   0  0  0  0  0  0  0  0  0  0  0  0
    7.5708  -15.7872   21.7949 C   0  0  2  0  0  0  0  0  0  0  0  0
    8.0699  -15.0908   20.6505 N   0  0  0  0  0  0  0  0  0  0  0  0
    8.2715  -15.2568   23.0234 C   0  0  0  0  0  0  0  0  0  0  0  0
    9.5202  -15.1035   23.0116 O   0  0  0  0  0  0  0  0  0  0  0  0
    5.9086  -11.5207   25.9463 C   0  0  0  0  0  0  0  0  0  0  0  0
    6.9077  -12.4051   25.2914 C   0  0  0  0  0  0  0  0  0  0  0  0
    7.4139  -13.5408   26.1665 C   0  0  2  0  0  0  0  0  0  0  0  0
    7.9800  -13.0450   27.4471 C   0  0  0  0  0  0  0  0  0  0  0  0
    8.3265  -14.4492   25.3685 C   0  0  2  0  0  0  0  0  0  0  0  0
    7.5510  -14.9279   24.1904 N   0  0  0  0  0  0  0  0  0  0  0  0
    8.8178  -15.6272   26.0949 C   0  0  0  0  0  0  0  0  0  0  0  0
    7.9788  -16.5490   26.3879 O   0  0  0  0  0  0  0  0  0  0  0  0
   10.1457  -15.8280   26.4917 N   0  0  0  0  0  0  0  0  0  0  0  0
   10.5696  -17.0475   27.1787 C   0  0  1  0  0  0  0  0  0  0  0  0
   11.7948  -17.6288   26.5650 C   0  0  0  0  0  0  0  0  0  0  0  0
   12.3431  -18.8253   27.2320 C   0  0  0  0  0  0  0  0  0  0  0  0
   13.5511  -19.5130   26.7801 C   0  0  0  0  0  0  0  0  0  0  0  0
   14.0744  -20.7148   27.4761 C   0  0  0  0  0  0  0  0  0  0  0  0
   15.2112  -21.2065   26.6497 N   0  0  0  0  0  0  0  0  0  0  0  0
   10.8458  -16.7186   28.6381 C   0  0  0  0  0  0  0  0  0  0  0  0
   10.9415  -15.5680   29.0775 O   0  0  0  0  0  0  0  0  0  0  0  0
   10.9905  -17.8001   29.4831 O   0  0  0  0  0  0  0  0  0  0  0  0
  1  2  1  0
  2  3  2  0
  4  2  1  0
  4  5  1  0
  6  7  1  6
  6  5  1  0
  8  6  1  0
  9  8  2  0
 11 10  1  0
 12 13  1  1
 12 14  1  0
 12 11  1  0
 14 15  1  6
 15  8  1  0
 16 14  1  0
 16 17  2  0
 18 16  1  0
 19 18  1  0
 19 20  1  6
 21 20  1  0
 22 23  1  0
 22 21  1  0
 23 24  1  0
 25 27  1  0
 25 19  1  0
 26 25  2  0
M  END
$$$$
