QIK.pdb
     RDKit          3D

 27 26  0  0  1  0  0  0  0  0999 V2000
   11.2354  -18.2768   19.9848 N   0  0  0  0  0  0  0  0  0  0  0  0
   10.2111  -17.9667   19.0499 C   0  0  0  0  0  0  0  0  0  0  0  0
   10.3160  -18.3538   17.8641 O   0  0  0  0  0  0  0  0  0  0  0  0
    9.0351  -17.1768   19.5412 C   0  0  0  0  0  0  0  0  0  0  0  0
    9.2663  -16.9042   20.9955 C   0  0  0  0  0  0  0  0  0  0  0  0
    8.1199  -16.1961   21.6417 C   0  0  2  0  0  0  0  0  0  0  0  0
    7.4017  -15.3078   20.7822 N   0  0  0  0  0  0  0  0  0  0  0  0
    8.6316  -15.4101   22.8257 C   0  0  0  0  0  0  0  0  0  0  0  0
    9.8698  -15.3336   23.0353 O   0  0  0  0  0  0  0  0  0  0  0  0
    7.1391  -11.0457   26.9188 C   0  0  0  0  0  0  0  0  0  0  0  0
    7.9769  -12.1859   26.4635 C   0  0  0  0  0  0  0  0  0  0  0  0
    7.3909  -12.9752   25.3035 C   0  0  2  0  0  0  0  0  0  0  0  0
    5.9872  -13.3851   25.5638 C   0  0  0  0  0  0  0  0  0  0  0  0
    8.3270  -14.0993   24.9099 C   0  0  2  0  0  0  0  0  0  0  0  0
    7.7450  -14.7561   23.7064 N   0  0  0  0  0  0  0  0  0  0  0  0
    8.5232  -15.1307   25.9369 C   0  0  0  0  0  0  0  0  0  0  0  0
    7.7258  -16.1324   25.9463 O   0  0  0  0  0  0  0  0  0  0  0  0
    9.5268  -15.1089   26.9132 N   0  0  0  0  0  0  0  0  0  0  0  0
   10.0188  -16.3346   27.5413 C   0  0  1  0  0  0  0  0  0  0  0  0
   11.0321  -17.0203   26.6936 C   0  0  0  0  0  0  0  0  0  0  0  0
   11.5904  -18.2709   27.2426 C   0  0  0  0  0  0  0  0  0  0  0  0
   12.6073  -19.0650   26.5557 C   0  0  0  0  0  0  0  0  0  0  0  0
   13.1301  -20.3309   27.1274 C   0  0  0  0  0  0  0  0  0  0  0  0
   14.0941  -20.8669   26.1272 N   0  0  0  0  0  0  0  0  0  0  0  0
   10.6414  -15.9829   28.8840 C   0  0  0  0  0  0  0  0  0  0  0  0
   10.9578  -16.8200   29.7357 O   0  0  0  0  0  0  0  0  0  0  0  0
   10.8462  -14.6387   29.1203 O   0  0  0  0  0  0  0  0  0  0  0  0
  1  2  1  0
  2  3  2  0
  4  2  1  0
  4  5  1  0
  6  7  1  6
  6  5  1  0
  8  6  1  0
  9  8  2  0
 11 10  1  0
 12 13  1  1
 12 14  1  0
 12 11  1  0
 14 15  1  6
 15  8  1  0
 16 14  1  0
 16 17  2  0
 18 16  1  0
 19 18  1  0
 19 20  1  6
 21 20  1  0
 22 23  1  0
 22 21  1  0
 23 24  1  0
 25 27  1  0
 25 19  1  0
 26 25  2  0
M  END
$$$$
