QIK.pdb
     RDKit          3D

 27 26  0  0  1  0  0  0  0  0999 V2000
    6.4489  -20.5697   20.3379 N   0  0  0  0  0  0  0  0  0  0  0  0
    7.1082  -19.6220   21.1665 C   0  0  0  0  0  0  0  0  0  0  0  0
    7.3891  -19.9216   22.3490 O   0  0  0  0  0  0  0  0  0  0  0  0
    7.4396  -18.2867   20.5704 C   0  0  0  0  0  0  0  0  0  0  0  0
    8.0572  -17.4622   21.6573 C   0  0  0  0  0  0  0  0  0  0  0  0
    7.9743  -15.9944   21.3894 C   0  0  2  0  0  0  0  0  0  0  0  0
    8.6683  -15.5578   20.2183 N   0  0  0  0  0  0  0  0  0  0  0  0
    8.5232  -15.2450   22.5805 C   0  0  0  0  0  0  0  0  0  0  0  0
    9.7635  -15.0612   22.6839 O   0  0  0  0  0  0  0  0  0  0  0  0
    7.0453  -11.2647   27.0446 C   0  0  0  0  0  0  0  0  0  0  0  0
    7.9422  -12.2809   26.4346 C   0  0  0  0  0  0  0  0  0  0  0  0
    7.3205  -13.0644   25.2893 C   0  0  2  0  0  0  0  0  0  0  0  0
    5.9784  -13.5936   25.6428 C   0  0  0  0  0  0  0  0  0  0  0  0
    8.3011  -14.0941   24.7670 C   0  0  2  0  0  0  0  0  0  0  0  0
    7.6693  -14.7442   23.5852 N   0  0  0  0  0  0  0  0  0  0  0  0
    8.6610  -15.1485   25.7239 C   0  0  0  0  0  0  0  0  0  0  0  0
    7.8460  -16.1232   25.8828 O   0  0  0  0  0  0  0  0  0  0  0  0
    9.8392  -15.1765   26.4801 N   0  0  0  0  0  0  0  0  0  0  0  0
   10.2257  -16.3498   27.2630 C   0  0  1  0  0  0  0  0  0  0  0  0
   11.4998  -16.9440   26.7738 C   0  0  0  0  0  0  0  0  0  0  0  0
   11.9783  -18.1326   27.5055 C   0  0  0  0  0  0  0  0  0  0  0  0
   13.2250  -18.8246   27.1840 C   0  0  0  0  0  0  0  0  0  0  0  0
   13.6722  -20.0224   27.9375 C   0  0  0  0  0  0  0  0  0  0  0  0
   14.9010  -20.5061   27.2498 N   0  0  0  0  0  0  0  0  0  0  0  0
   10.3894  -15.9374   28.7181 C   0  0  0  0  0  0  0  0  0  0  0  0
   10.4412  -14.7631   29.0984 O   0  0  0  0  0  0  0  0  0  0  0  0
   10.4811  -16.9686   29.6307 O   0  0  0  0  0  0  0  0  0  0  0  0
  1  2  1  0
  2  3  2  0
  4  2  1  0
  4  5  1  0
  6  7  1  6
  6  5  1  0
  8  6  1  0
  9  8  2  0
 11 10  1  0
 12 13  1  1
 12 14  1  0
 12 11  1  0
 14 15  1  6
 15  8  1  0
 16 14  1  0
 16 17  2  0
 18 16  1  0
 19 18  1  0
 19 20  1  6
 21 20  1  0
 22 23  1  0
 22 21  1  0
 23 24  1  0
 25 27  1  0
 25 19  1  0
 26 25  2  0
M  END
$$$$
