QIK.pdb
     RDKit          3D

 27 26  0  0  1  0  0  0  0  0999 V2000
    7.2940  -20.8262   20.0138 N   0  0  0  0  0  0  0  0  0  0  0  0
    8.5915  -21.0248   19.4695 C   0  0  0  0  0  0  0  0  0  0  0  0
    9.0490  -22.1853   19.3648 O   0  0  0  0  0  0  0  0  0  0  0  0
    9.3604  -19.8112   19.0404 C   0  0  0  0  0  0  0  0  0  0  0  0
    8.4515  -19.0019   18.1677 C   0  0  0  0  0  0  0  0  0  0  0  0
    9.1005  -17.7595   17.6495 C   0  0  2  0  0  0  0  0  0  0  0  0
   10.2749  -17.9786   16.8643 N   0  0  0  0  0  0  0  0  0  0  0  0
    9.4613  -16.8698   18.8156 C   0  0  0  0  0  0  0  0  0  0  0  0
   10.6510  -16.8272   19.2227 O   0  0  0  0  0  0  0  0  0  0  0  0
    6.7835  -12.2312   19.5814 C   0  0  0  0  0  0  0  0  0  0  0  0
    7.8916  -13.2218   19.5932 C   0  0  0  0  0  0  0  0  0  0  0  0
    7.8917  -14.1534   20.7948 C   0  0  2  0  0  0  0  0  0  0  0  0
    7.9813  -13.4071   22.0759 C   0  0  0  0  0  0  0  0  0  0  0  0
    8.9275  -15.2435   20.6114 C   0  0  2  0  0  0  0  0  0  0  0  0
    8.4865  -16.0811   19.4615 N   0  0  0  0  0  0  0  0  0  0  0  0
    9.1093  -16.1270   21.7704 C   0  0  0  0  0  0  0  0  0  0  0  0
    8.1872  -16.9756   22.0329 O   0  0  0  0  0  0  0  0  0  0  0  0
   10.2249  -16.1195   22.6168 N   0  0  0  0  0  0  0  0  0  0  0  0
   10.3690  -17.0783   23.7117 C   0  0  1  0  0  0  0  0  0  0  0  0
   11.7262  -17.6891   23.7350 C   0  0  0  0  0  0  0  0  0  0  0  0
   11.7765  -19.1526   23.5544 C   0  0  0  0  0  0  0  0  0  0  0  0
   13.0171  -19.9242   23.5979 C   0  0  0  0  0  0  0  0  0  0  0  0
   13.0437  -21.3804   23.3126 C   0  0  0  0  0  0  0  0  0  0  0  0
   14.4658  -21.8003   23.4478 N   0  0  0  0  0  0  0  0  0  0  0  0
   10.1179  -16.3607   25.0294 C   0  0  0  0  0  0  0  0  0  0  0  0
    9.9377  -15.1423   25.1254 O   0  0  0  0  0  0  0  0  0  0  0  0
   10.0989  -17.1575   26.1560 O   0  0  0  0  0  0  0  0  0  0  0  0
  1  2  1  0
  2  3  2  0
  4  2  1  0
  4  5  1  0
  6  7  1  1
  6  5  1  0
  8  6  1  0
  9  8  2  0
 11 10  1  0
 12 13  1  1
 12 14  1  0
 12 11  1  0
 14 15  1  6
 15  8  1  0
 16 14  1  0
 16 17  2  0
 18 16  1  0
 19 18  1  0
 19 20  1  1
 21 20  1  0
 22 23  1  0
 22 21  1  0
 23 24  1  0
 25 27  1  0
 25 19  1  0
 26 25  2  0
M  END
$$$$
