QIK.pdb
     RDKit          3D

 27 26  0  0  1  0  0  0  0  0999 V2000
    5.5234  -20.9191   23.5007 N   0  0  0  0  0  0  0  0  0  0  0  0
    6.8667  -20.6123   23.8482 C   0  0  0  0  0  0  0  0  0  0  0  0
    7.6587  -21.5372   24.1387 O   0  0  0  0  0  0  0  0  0  0  0  0
    7.2741  -19.1693   23.8491 C   0  0  0  0  0  0  0  0  0  0  0  0
    6.0766  -18.3751   23.4273 C   0  0  0  0  0  0  0  0  0  0  0  0
    6.4368  -17.1594   22.6365 C   0  0  2  0  0  0  0  0  0  0  0  0
    7.1540  -17.4204   21.4277 N   0  0  0  0  0  0  0  0  0  0  0  0
    7.2681  -16.2396   23.4994 C   0  0  0  0  0  0  0  0  0  0  0  0
    8.5236  -16.3003   23.4459 O   0  0  0  0  0  0  0  0  0  0  0  0
    8.0806  -11.2445   25.9261 C   0  0  0  0  0  0  0  0  0  0  0  0
    7.5722  -12.4387   26.6505 C   0  0  0  0  0  0  0  0  0  0  0  0
    6.7105  -13.3669   25.8092 C   0  0  2  0  0  0  0  0  0  0  0  0
    5.5009  -13.8188   26.5435 C   0  0  0  0  0  0  0  0  0  0  0  0
    7.5574  -14.4761   25.2201 C   0  0  2  0  0  0  0  0  0  0  0  0
    6.6626  -15.3087   24.3689 N   0  0  0  0  0  0  0  0  0  0  0  0
    8.1942  -15.3596   26.2054 C   0  0  0  0  0  0  0  0  0  0  0  0
    7.4917  -16.3013   26.7146 O   0  0  0  0  0  0  0  0  0  0  0  0
    9.5238  -15.2572   26.6327 N   0  0  0  0  0  0  0  0  0  0  0  0
   10.1076  -16.2128   27.5734 C   0  0  1  0  0  0  0  0  0  0  0  0
   11.3128  -16.8780   27.0071 C   0  0  0  0  0  0  0  0  0  0  0  0
   11.3401  -18.3501   27.1031 C   0  0  0  0  0  0  0  0  0  0  0  0
   12.4436  -19.1665   26.6010 C   0  0  0  0  0  0  0  0  0  0  0  0
   12.4189  -20.6484   26.6775 C   0  0  0  0  0  0  0  0  0  0  0  0
   13.6641  -21.1158   26.0081 N   0  0  0  0  0  0  0  0  0  0  0  0
   10.4920  -15.4756   28.8474 C   0  0  0  0  0  0  0  0  0  0  0  0
   10.4924  -14.2451   28.9564 O   0  0  0  0  0  0  0  0  0  0  0  0
   10.8542  -16.2688   29.9172 O   0  0  0  0  0  0  0  0  0  0  0  0
  1  2  1  0
  2  3  2  0
  4  2  1  0
  4  5  1  0
  6  7  1  6
  6  5  1  0
  8  6  1  0
  9  8  2  0
 11 10  1  0
 12 13  1  1
 12 14  1  0
 12 11  1  0
 14 15  1  6
 15  8  1  0
 16 14  1  0
 16 17  2  0
 18 16  1  0
 19 18  1  0
 19 20  1  6
 21 20  1  0
 22 23  1  0
 22 21  1  0
 23 24  1  0
 25 27  1  0
 25 19  1  0
 26 25  2  0
M  END
$$$$
