FAN.pdb
     RDKit          3D

 25 25  0  0  1  0  0  0  0  0999 V2000
   28.7782  -35.5779   -6.3169 N   0  0  0  0  0  0  0  0  0  0  0  0
   29.7347  -35.0619   -5.3771 C   0  0  1  0  0  0  0  0  0  0  0  0
   29.6336  -33.5416   -5.2437 C   0  0  0  0  0  0  0  0  0  0  0  0
   28.2703  -33.0662   -5.1078 C   0  0  0  0  0  0  0  0  0  0  0  0
   27.7042  -32.8914   -3.8655 C   0  0  0  0  0  0  0  0  0  0  0  0
   26.3905  -32.4335   -3.7256 C   0  0  0  0  0  0  0  0  0  0  0  0
   25.6571  -32.1551   -4.8438 C   0  0  0  0  0  0  0  0  0  0  0  0
   26.1925  -32.3191   -6.0961 C   0  0  0  0  0  0  0  0  0  0  0  0
   27.5094  -32.7785   -6.2171 C   0  0  0  0  0  0  0  0  0  0  0  0
   29.5191  -35.5835   -3.9999 C   0  0  0  0  0  0  0  0  0  0  0  0
   28.3409  -35.8940   -3.6889 O   0  0  0  0  0  0  0  0  0  0  0  0
   31.7388  -36.3962   -1.0881 C   0  0  0  0  0  0  0  0  0  0  0  0
   30.3414  -36.2611   -1.7045 C   0  0  2  0  0  0  0  0  0  0  0  0
   30.5336  -35.7487   -3.0392 N   0  0  0  0  0  0  0  0  0  0  0  0
   29.5711  -35.3203   -0.8527 C   0  0  0  0  0  0  0  0  0  0  0  0
   29.8110  -34.0862   -0.9264 O   0  0  0  0  0  0  0  0  0  0  0  0
   26.0112  -33.3577    2.3765 N   0  0  0  0  0  0  0  0  0  0  0  0
   25.6432  -34.7136    2.0630 C   0  0  0  0  0  0  0  0  0  0  0  0
   24.5663  -35.1188    2.5206 O   0  0  0  0  0  0  0  0  0  0  0  0
   26.5196  -35.5536    1.2391 C   0  0  0  0  0  0  0  0  0  0  0  0
   27.7781  -34.8687    0.8675 C   0  0  2  0  0  0  0  0  0  0  0  0
   28.5750  -35.8013    0.0360 N   0  0  0  0  0  0  0  0  0  0  0  0
   28.5920  -34.4846    2.0167 C   0  0  0  0  0  0  0  0  0  0  0  0
   29.2655  -35.2830    2.6720 O   0  0  0  0  0  0  0  0  0  0  0  0
   28.6534  -33.1429    2.4508 O   0  0  0  0  0  0  0  0  0  0  0  0
  2  1  1  6
  2 10  1  0
  3  2  1  0
  4  3  1  0
  5  4  2  0
  6  5  1  0
  7  8  1  0
  7  6  2  0
  8  9  2  0
  9  4  1  0
 10 14  1  0
 10 11  2  0
 13 12  1  1
 14 13  1  0
 15 22  1  0
 15 13  1  0
 16 15  2  0
 18 20  1  0
 18 17  1  0
 19 18  2  0
 21 20  1  1
 21 23  1  0
 21 22  1  0
 23 25  1  0
 24 23  2  0
M  END
$$$$
