FAN.pdb
     RDKit          3D

 25 25  0  0  1  0  0  0  0  0999 V2000
   26.2808  -31.0610  -18.9587 N   0  0  0  0  0  0  0  0  0  0  0  0
   25.8439  -30.6094  -17.6666 C   0  0  1  0  0  0  0  0  0  0  0  0
   26.9563  -29.8729  -16.9187 C   0  0  0  0  0  0  0  0  0  0  0  0
   28.1529  -30.6717  -16.7368 C   0  0  0  0  0  0  0  0  0  0  0  0
   28.1796  -31.7068  -15.8301 C   0  0  0  0  0  0  0  0  0  0  0  0
   29.3293  -32.4817  -15.6486 C   0  0  0  0  0  0  0  0  0  0  0  0
   30.4454  -32.2047  -16.3856 C   0  0  0  0  0  0  0  0  0  0  0  0
   30.4507  -31.1797  -17.2973 C   0  0  0  0  0  0  0  0  0  0  0  0
   29.2908  -30.4143  -17.4659 C   0  0  0  0  0  0  0  0  0  0  0  0
   24.7258  -29.6309  -17.7529 C   0  0  0  0  0  0  0  0  0  0  0  0
   24.5487  -29.0684  -18.8635 O   0  0  0  0  0  0  0  0  0  0  0  0
   21.9953  -28.5236  -15.4354 C   0  0  0  0  0  0  0  0  0  0  0  0
   22.7286  -28.4205  -16.7781 C   0  0  2  0  0  0  0  0  0  0  0  0
   23.8680  -29.3004  -16.6878 N   0  0  0  0  0  0  0  0  0  0  0  0
   23.1326  -27.0028  -16.9539 C   0  0  0  0  0  0  0  0  0  0  0  0
   22.2443  -26.1265  -17.1250 O   0  0  0  0  0  0  0  0  0  0  0  0
   27.0330  -22.8399  -15.8802 N   0  0  0  0  0  0  0  0  0  0  0  0
   26.8860  -23.7709  -16.9682 C   0  0  0  0  0  0  0  0  0  0  0  0
   27.2390  -23.3793  -18.0886 O   0  0  0  0  0  0  0  0  0  0  0  0
   26.3413  -25.1130  -16.7339 C   0  0  0  0  0  0  0  0  0  0  0  0
   24.9182  -25.2251  -17.1252 C   0  0  2  0  0  0  0  0  0  0  0  0
   24.5026  -26.6342  -16.9302 N   0  0  0  0  0  0  0  0  0  0  0  0
   24.6694  -24.8727  -18.5197 C   0  0  0  0  0  0  0  0  0  0  0  0
   25.1318  -25.5014  -19.4743 O   0  0  0  0  0  0  0  0  0  0  0  0
   23.8646  -23.7639  -18.8590 O   0  0  0  0  0  0  0  0  0  0  0  0
  2  1  1  6
  2 10  1  0
  3  2  1  0
  4  3  1  0
  5  4  2  0
  6  5  1  0
  7  8  1  0
  7  6  2  0
  8  9  2  0
  9  4  1  0
 10 14  1  0
 10 11  2  0
 13 12  1  1
 14 13  1  0
 15 22  1  0
 15 13  1  0
 16 15  2  0
 18 20  1  0
 18 17  1  0
 19 18  2  0
 21 20  1  6
 21 23  1  0
 21 22  1  0
 23 25  1  0
 24 23  2  0
M  END
$$$$
