FAN.pdb
     RDKit          3D

 25 25  0  0  1  0  0  0  0  0999 V2000
   24.2191  -20.5319  -16.5807 N   0  0  0  0  0  0  0  0  0  0  0  0
   24.3568  -20.2656  -15.1755 C   0  0  1  0  0  0  0  0  0  0  0  0
   25.7646  -19.7799  -14.8269 C   0  0  0  0  0  0  0  0  0  0  0  0
   26.8026  -20.4110  -15.6189 C   0  0  0  0  0  0  0  0  0  0  0  0
   27.4959  -19.6984  -16.5708 C   0  0  0  0  0  0  0  0  0  0  0  0
   28.4981  -20.2993  -17.3387 C   0  0  0  0  0  0  0  0  0  0  0  0
   28.7930  -21.6180  -17.1390 C   0  0  0  0  0  0  0  0  0  0  0  0
   28.1201  -22.3555  -16.1981 C   0  0  0  0  0  0  0  0  0  0  0  0
   27.1198  -21.7374  -15.4385 C   0  0  0  0  0  0  0  0  0  0  0  0
   23.4500  -19.1813  -14.7094 C   0  0  0  0  0  0  0  0  0  0  0  0
   23.5179  -18.8686  -13.4933 O   0  0  0  0  0  0  0  0  0  0  0  0
   21.3144  -16.5679  -16.2175 C   0  0  0  0  0  0  0  0  0  0  0  0
   21.5440  -17.5556  -15.0673 C   0  0  2  0  0  0  0  0  0  0  0  0
   22.5361  -18.4949  -15.5299 N   0  0  0  0  0  0  0  0  0  0  0  0
   20.2440  -18.2137  -14.7831 C   0  0  0  0  0  0  0  0  0  0  0  0
   19.3205  -17.5461  -14.2469 O   0  0  0  0  0  0  0  0  0  0  0  0
   16.2123  -19.9195  -13.7540 N   0  0  0  0  0  0  0  0  0  0  0  0
   16.4088  -19.5699  -15.1365 C   0  0  0  0  0  0  0  0  0  0  0  0
   15.4130  -19.1782  -15.7593 O   0  0  0  0  0  0  0  0  0  0  0  0
   17.7353  -19.6815  -15.7535 C   0  0  0  0  0  0  0  0  0  0  0  0
   18.7456  -20.2462  -14.8309 C   0  0  2  0  0  0  0  0  0  0  0  0
   20.0393  -19.5793  -15.1099 N   0  0  0  0  0  0  0  0  0  0  0  0
   18.9386  -21.6843  -14.9898 C   0  0  0  0  0  0  0  0  0  0  0  0
   18.2228  -22.5314  -14.4508 O   0  0  0  0  0  0  0  0  0  0  0  0
   19.9825  -22.1958  -15.7903 O   0  0  0  0  0  0  0  0  0  0  0  0
  2  1  1  6
  2 10  1  0
  3  2  1  0
  4  3  1  0
  5  4  2  0
  6  5  1  0
  7  8  1  0
  7  6  2  0
  8  9  2  0
  9  4  1  0
 10 14  1  0
 10 11  2  0
 13 12  1  6
 14 13  1  0
 15 22  1  0
 15 13  1  0
 16 15  2  0
 18 20  1  0
 18 17  1  0
 19 18  2  0
 21 20  1  6
 21 23  1  0
 21 22  1  0
 23 25  1  0
 24 23  2  0
M  END
$$$$
