FAN.pdb
     RDKit          3D

 25 25  0  0  1  0  0  0  0  0999 V2000
   32.7812  -23.9206  -16.0594 N   0  0  0  0  0  0  0  0  0  0  0  0
   31.4843  -24.3273  -15.5934 C   0  0  1  0  0  0  0  0  0  0  0  0
   30.9975  -23.4508  -14.4384 C   0  0  0  0  0  0  0  0  0  0  0  0
   31.9405  -23.3727  -13.3394 C   0  0  0  0  0  0  0  0  0  0  0  0
   32.9862  -24.2623  -13.2419 C   0  0  0  0  0  0  0  0  0  0  0  0
   33.8997  -24.1940  -12.1855 C   0  0  0  0  0  0  0  0  0  0  0  0
   33.7496  -23.2258  -11.2336 C   0  0  0  0  0  0  0  0  0  0  0  0
   32.7178  -22.3245  -11.3025 C   0  0  0  0  0  0  0  0  0  0  0  0
   31.8128  -22.4079  -12.3672 C   0  0  0  0  0  0  0  0  0  0  0  0
   30.4358  -24.1985  -16.6418 C   0  0  0  0  0  0  0  0  0  0  0  0
   30.6084  -23.3054  -17.5101 O   0  0  0  0  0  0  0  0  0  0  0  0
   27.5427  -26.2311  -17.7881 C   0  0  0  0  0  0  0  0  0  0  0  0
   28.2454  -24.8702  -17.7167 C   0  0  2  0  0  0  0  0  0  0  0  0
   29.2819  -24.9996  -16.7219 N   0  0  0  0  0  0  0  0  0  0  0  0
   27.2243  -23.8647  -17.3292 C   0  0  0  0  0  0  0  0  0  0  0  0
   26.3023  -23.5806  -18.1386 O   0  0  0  0  0  0  0  0  0  0  0  0
   24.8798  -21.3126  -12.2220 N   0  0  0  0  0  0  0  0  0  0  0  0
   25.0484  -21.4926  -13.6402 C   0  0  0  0  0  0  0  0  0  0  0  0
   24.2258  -20.9301  -14.3751 O   0  0  0  0  0  0  0  0  0  0  0  0
   26.1500  -22.3081  -14.1635 C   0  0  0  0  0  0  0  0  0  0  0  0
   26.2344  -22.2686  -15.6408 C   0  0  2  0  0  0  0  0  0  0  0  0
   27.2822  -23.2282  -16.0623 N   0  0  0  0  0  0  0  0  0  0  0  0
   26.5910  -20.9548  -16.1676 C   0  0  0  0  0  0  0  0  0  0  0  0
   27.7322  -20.4898  -16.1236 O   0  0  0  0  0  0  0  0  0  0  0  0
   25.6228  -20.1243  -16.7718 O   0  0  0  0  0  0  0  0  0  0  0  0
  2  1  1  6
  2 10  1  0
  3  2  1  0
  4  3  1  0
  5  4  2  0
  6  5  1  0
  7  8  1  0
  7  6  2  0
  8  9  2  0
  9  4  1  0
 10 14  1  0
 10 11  2  0
 13 12  1  1
 14 13  1  0
 15 22  1  0
 15 13  1  0
 16 15  2  0
 18 20  1  0
 18 17  1  0
 19 18  2  0
 21 20  1  1
 21 23  1  0
 21 22  1  0
 23 25  1  0
 24 23  2  0
M  END
$$$$
