FAN.pdb
     RDKit          3D

 25 25  0  0  1  0  0  0  0  0999 V2000
   28.6628  -20.1790   -9.4310 N   0  0  0  0  0  0  0  0  0  0  0  0
   27.3299  -20.6947   -9.5791 C   0  0  1  0  0  0  0  0  0  0  0  0
   26.3734  -20.0955   -8.5471 C   0  0  0  0  0  0  0  0  0  0  0  0
   26.9202  -20.0689   -7.2042 C   0  0  0  0  0  0  0  0  0  0  0  0
   27.4989  -18.9264   -6.7000 C   0  0  0  0  0  0  0  0  0  0  0  0
   28.0285  -18.8924   -5.4064 C   0  0  0  0  0  0  0  0  0  0  0  0
   27.9695  -20.0149   -4.6303 C   0  0  0  0  0  0  0  0  0  0  0  0
   27.3993  -21.1692   -5.1037 C   0  0  0  0  0  0  0  0  0  0  0  0
   26.8741  -21.1850   -6.4013 C   0  0  0  0  0  0  0  0  0  0  0  0
   26.7315  -20.3569  -10.8993 C   0  0  0  0  0  0  0  0  0  0  0  0
   26.6372  -19.1356  -11.1835 O   0  0  0  0  0  0  0  0  0  0  0  0
   26.7055  -22.0144  -14.0670 C   0  0  0  0  0  0  0  0  0  0  0  0
   25.9232  -21.0165  -13.2049 C   0  0  2  0  0  0  0  0  0  0  0  0
   26.2719  -21.3021  -11.8346 N   0  0  0  0  0  0  0  0  0  0  0  0
   24.4796  -21.2393  -13.4699 C   0  0  0  0  0  0  0  0  0  0  0  0
   24.0003  -20.9064  -14.5860 O   0  0  0  0  0  0  0  0  0  0  0  0
   23.5878  -25.0708  -13.7645 N   0  0  0  0  0  0  0  0  0  0  0  0
   22.5472  -24.0919  -13.9414 C   0  0  0  0  0  0  0  0  0  0  0  0
   22.2221  -23.8285  -15.1068 O   0  0  0  0  0  0  0  0  0  0  0  0
   21.9188  -23.4522  -12.7802 C   0  0  0  0  0  0  0  0  0  0  0  0
   22.1927  -21.9991  -12.7144 C   0  0  2  0  0  0  0  0  0  0  0  0
   23.6451  -21.8202  -12.4802 N   0  0  0  0  0  0  0  0  0  0  0  0
   21.4776  -21.3210  -11.6376 C   0  0  0  0  0  0  0  0  0  0  0  0
   22.0394  -20.7111  -10.7249 O   0  0  0  0  0  0  0  0  0  0  0  0
   20.0672  -21.3272  -11.5819 O   0  0  0  0  0  0  0  0  0  0  0  0
  2  1  1  6
  2 10  1  0
  3  2  1  0
  4  3  1  0
  5  4  2  0
  6  5  1  0
  7  8  1  0
  7  6  2  0
  8  9  2  0
  9  4  1  0
 10 14  1  0
 10 11  2  0
 13 12  1  6
 14 13  1  0
 15 22  1  0
 15 13  1  0
 16 15  2  0
 18 20  1  0
 18 17  1  0
 19 18  2  0
 21 20  1  1
 21 23  1  0
 21 22  1  0
 23 25  1  0
 24 23  2  0
M  END
$$$$
