FAN.pdb
     RDKit          3D

 25 25  0  0  1  0  0  0  0  0999 V2000
   21.5914  -15.0302  -19.1302 N   0  0  0  0  0  0  0  0  0  0  0  0
   20.7210  -13.8879  -19.1754 C   0  0  1  0  0  0  0  0  0  0  0  0
   19.4057  -14.1493  -18.4400 C   0  0  0  0  0  0  0  0  0  0  0  0
   18.5740  -15.1457  -19.0868 C   0  0  0  0  0  0  0  0  0  0  0  0
   17.8236  -14.8270  -20.1958 C   0  0  0  0  0  0  0  0  0  0  0  0
   17.0190  -15.7817  -20.8253 C   0  0  0  0  0  0  0  0  0  0  0  0
   16.9783  -17.0536  -20.3289 C   0  0  0  0  0  0  0  0  0  0  0  0
   17.7144  -17.4027  -19.2252 C   0  0  0  0  0  0  0  0  0  0  0  0
   18.5143  -16.4339  -18.6078 C   0  0  0  0  0  0  0  0  0  0  0  0
   21.3077  -12.6973  -18.5020 C   0  0  0  0  0  0  0  0  0  0  0  0
   21.8190  -12.8815  -17.3681 O   0  0  0  0  0  0  0  0  0  0  0  0
   22.0126   -9.1617  -19.4919 C   0  0  0  0  0  0  0  0  0  0  0  0
   21.8930  -10.2372  -18.4057 C   0  0  2  0  0  0  0  0  0  0  0  0
   21.3263  -11.3995  -19.0449 N   0  0  0  0  0  0  0  0  0  0  0  0
   21.0062   -9.6976  -17.3444 C   0  0  0  0  0  0  0  0  0  0  0  0
   19.7594   -9.8367  -17.4548 O   0  0  0  0  0  0  0  0  0  0  0  0
   20.1342   -8.8672  -11.7591 N   0  0  0  0  0  0  0  0  0  0  0  0
   20.7314   -7.9929  -12.7342 C   0  0  0  0  0  0  0  0  0  0  0  0
   20.5836   -6.7764  -12.5567 O   0  0  0  0  0  0  0  0  0  0  0  0
   21.4741   -8.5422  -13.8741 C   0  0  0  0  0  0  0  0  0  0  0  0
   20.6807   -8.5398  -15.1237 C   0  0  2  0  0  0  0  0  0  0  0  0
   21.5523   -9.0317  -16.2167 N   0  0  0  0  0  0  0  0  0  0  0  0
   20.1927   -7.2165  -15.4998 C   0  0  0  0  0  0  0  0  0  0  0  0
   20.8608   -6.4001  -16.1382 O   0  0  0  0  0  0  0  0  0  0  0  0
   18.8955   -6.7893  -15.1433 O   0  0  0  0  0  0  0  0  0  0  0  0
  2  1  1  1
  2 10  1  0
  3  2  1  0
  4  3  1  0
  5  4  2  0
  6  5  1  0
  7  8  1  0
  7  6  2  0
  8  9  2  0
  9  4  1  0
 10 14  1  0
 10 11  2  0
 13 12  1  6
 14 13  1  0
 15 22  1  0
 15 13  1  0
 16 15  2  0
 18 20  1  0
 18 17  1  0
 19 18  2  0
 21 20  1  1
 21 23  1  0
 21 22  1  0
 23 25  1  0
 24 23  2  0
M  END
$$$$
