FAN.pdb
     RDKit          3D

 25 25  0  0  1  0  0  0  0  0999 V2000
   26.4613  -18.8206   -7.5253 N   0  0  0  0  0  0  0  0  0  0  0  0
   27.1337  -19.7367   -8.4046 C   0  0  1  0  0  0  0  0  0  0  0  0
   28.0038  -20.7283   -7.6308 C   0  0  0  0  0  0  0  0  0  0  0  0
   28.4955  -20.2010   -6.3724 C   0  0  0  0  0  0  0  0  0  0  0  0
   29.0446  -21.0340   -5.4243 C   0  0  0  0  0  0  0  0  0  0  0  0
   29.5208  -20.5338   -4.2086 C   0  0  0  0  0  0  0  0  0  0  0  0
   29.4387  -19.1934   -3.9592 C   0  0  0  0  0  0  0  0  0  0  0  0
   28.8968  -18.3370   -4.8837 C   0  0  0  0  0  0  0  0  0  0  0  0
   28.4250  -18.8554   -6.0954 C   0  0  0  0  0  0  0  0  0  0  0  0
   26.1855  -20.5818   -9.1805 C   0  0  0  0  0  0  0  0  0  0  0  0
   26.6885  -21.4011   -9.9910 O   0  0  0  0  0  0  0  0  0  0  0  0
   22.6213  -21.5230   -9.0622 C   0  0  0  0  0  0  0  0  0  0  0  0
   23.8495  -21.2088   -9.9247 C   0  0  2  0  0  0  0  0  0  0  0  0
   24.7844  -20.5231   -9.0666 N   0  0  0  0  0  0  0  0  0  0  0  0
   23.3937  -20.3522  -11.0483 C   0  0  0  0  0  0  0  0  0  0  0  0
   23.3089  -19.1073  -10.8778 O   0  0  0  0  0  0  0  0  0  0  0  0
   23.4177  -18.2810  -16.1125 N   0  0  0  0  0  0  0  0  0  0  0  0
   22.9102  -19.5851  -15.7748 C   0  0  0  0  0  0  0  0  0  0  0  0
   22.0552  -20.0637  -16.5319 O   0  0  0  0  0  0  0  0  0  0  0  0
   23.3992  -20.2915  -14.5855 C   0  0  0  0  0  0  0  0  0  0  0  0
   22.5279  -20.0895  -13.4062 C   0  0  2  0  0  0  0  0  0  0  0  0
   23.0562  -20.9249  -12.3019 N   0  0  0  0  0  0  0  0  0  0  0  0
   21.1392  -20.4758  -13.6364 C   0  0  0  0  0  0  0  0  0  0  0  0
   20.7318  -21.6365  -13.5511 O   0  0  0  0  0  0  0  0  0  0  0  0
   20.1624  -19.5159  -13.9782 O   0  0  0  0  0  0  0  0  0  0  0  0
  2  1  1  1
  2 10  1  0
  3  2  1  0
  4  3  1  0
  5  4  2  0
  6  5  1  0
  7  8  1  0
  7  6  2  0
  8  9  2  0
  9  4  1  0
 10 14  1  0
 10 11  2  0
 13 12  1  1
 14 13  1  0
 15 22  1  0
 15 13  1  0
 16 15  2  0
 18 20  1  0
 18 17  1  0
 19 18  2  0
 21 20  1  6
 21 23  1  0
 21 22  1  0
 23 25  1  0
 24 23  2  0
M  END
$$$$
