FAN.pdb
     RDKit          3D

 25 25  0  0  1  0  0  0  0  0999 V2000
   18.7954  -11.6456  -17.2257 N   0  0  0  0  0  0  0  0  0  0  0  0
   20.0031  -10.8681  -17.1876 C   0  0  1  0  0  0  0  0  0  0  0  0
   19.9064   -9.6286  -18.0783 C   0  0  0  0  0  0  0  0  0  0  0  0
   19.7959   -9.9425  -19.4898 C   0  0  0  0  0  0  0  0  0  0  0  0
   20.9129  -10.2434  -20.2356 C   0  0  0  0  0  0  0  0  0  0  0  0
   20.8151  -10.5471  -21.5970 C   0  0  0  0  0  0  0  0  0  0  0  0
   19.5875  -10.5446  -22.1959 C   0  0  0  0  0  0  0  0  0  0  0  0
   18.4553  -10.2488  -21.4800 C   0  0  0  0  0  0  0  0  0  0  0  0
   18.5721   -9.9471  -20.1180 C   0  0  0  0  0  0  0  0  0  0  0  0
   20.2993  -10.3416  -15.8274 C   0  0  0  0  0  0  0  0  0  0  0  0
   19.3191   -9.9458  -15.1464 O   0  0  0  0  0  0  0  0  0  0  0  0
   23.3261  -10.1396  -13.6403 C   0  0  0  0  0  0  0  0  0  0  0  0
   21.8951   -9.6995  -13.9712 C   0  0  2  0  0  0  0  0  0  0  0  0
   21.5859  -10.2599  -15.2639 N   0  0  0  0  0  0  0  0  0  0  0  0
   21.8820   -8.2151  -13.9904 C   0  0  0  0  0  0  0  0  0  0  0  0
   22.1026   -7.5839  -12.9231 O   0  0  0  0  0  0  0  0  0  0  0  0
   22.9234   -3.4908  -17.7064 N   0  0  0  0  0  0  0  0  0  0  0  0
   22.3314   -4.1131  -16.5511 C   0  0  0  0  0  0  0  0  0  0  0  0
   21.8121   -3.3597  -15.7169 O   0  0  0  0  0  0  0  0  0  0  0  0
   22.3559   -5.5717  -16.3939 C   0  0  0  0  0  0  0  0  0  0  0  0
   21.5799   -6.0298  -15.2197 C   0  0  2  0  0  0  0  0  0  0  0  0
   21.6242   -7.5109  -15.1950 N   0  0  0  0  0  0  0  0  0  0  0  0
   20.1784   -5.6233  -15.2547 C   0  0  0  0  0  0  0  0  0  0  0  0
   19.3286   -6.1672  -15.9636 O   0  0  0  0  0  0  0  0  0  0  0  0
   19.7083   -4.5574  -14.4576 O   0  0  0  0  0  0  0  0  0  0  0  0
  2  1  1  1
  2 10  1  0
  3  2  1  0
  4  3  1  0
  5  4  2  0
  6  5  1  0
  7  8  1  0
  7  6  2  0
  8  9  2  0
  9  4  1  0
 10 14  1  0
 10 11  2  0
 13 12  1  6
 14 13  1  0
 15 22  1  0
 15 13  1  0
 16 15  2  0
 18 20  1  0
 18 17  1  0
 19 18  2  0
 21 20  1  6
 21 23  1  0
 21 22  1  0
 23 25  1  0
 24 23  2  0
M  END
$$$$
