FAN.pdb
     RDKit          3D

 25 25  0  0  1  0  0  0  0  0999 V2000
   21.0306  -10.4320    8.0242 N   0  0  0  0  0  0  0  0  0  0  0  0
   20.0798  -11.4821    8.2642 C   0  0  1  0  0  0  0  0  0  0  0  0
   20.3274  -12.6879    7.3565 C   0  0  0  0  0  0  0  0  0  0  0  0
   19.9153  -12.4678    5.9836 C   0  0  0  0  0  0  0  0  0  0  0  0
   18.6295  -12.7463    5.5791 C   0  0  0  0  0  0  0  0  0  0  0  0
   18.2242  -12.5370    4.2574 C   0  0  0  0  0  0  0  0  0  0  0  0
   19.1225  -12.0472    3.3524 C   0  0  0  0  0  0  0  0  0  0  0  0
   20.4113  -11.7599    3.7242 C   0  0  0  0  0  0  0  0  0  0  0  0
   20.7995  -11.9756    5.0518 C   0  0  0  0  0  0  0  0  0  0  0  0
   20.1626  -12.0205    9.6493 C   0  0  0  0  0  0  0  0  0  0  0  0
   21.3001  -12.0347   10.1852 O   0  0  0  0  0  0  0  0  0  0  0  0
   17.6820  -13.2001   12.1966 C   0  0  0  0  0  0  0  0  0  0  0  0
   19.1319  -13.0336   11.7266 C   0  0  2  0  0  0  0  0  0  0  0  0
   19.0667  -12.5067   10.3854 N   0  0  0  0  0  0  0  0  0  0  0  0
   19.7671  -14.3748   11.7675 C   0  0  0  0  0  0  0  0  0  0  0  0
   20.9619  -14.5016   11.3902 O   0  0  0  0  0  0  0  0  0  0  0  0
   20.9781  -19.1635   13.1418 N   0  0  0  0  0  0  0  0  0  0  0  0
   21.5353  -17.9126   13.5856 C   0  0  0  0  0  0  0  0  0  0  0  0
   22.5889  -17.9704   14.2334 O   0  0  0  0  0  0  0  0  0  0  0  0
   20.8671  -16.6446   13.2722 C   0  0  0  0  0  0  0  0  0  0  0  0
   19.6974  -16.8232   12.3830 C   0  0  2  0  0  0  0  0  0  0  0  0
   19.0403  -15.5042   12.2255 N   0  0  0  0  0  0  0  0  0  0  0  0
   18.7066  -17.7585   12.9066 C   0  0  0  0  0  0  0  0  0  0  0  0
   18.8114  -18.9838   12.8156 O   0  0  0  0  0  0  0  0  0  0  0  0
   17.5447  -17.2982   13.5627 O   0  0  0  0  0  0  0  0  0  0  0  0
  2  1  1  1
  2 10  1  0
  3  2  1  0
  4  3  1  0
  5  4  2  0
  6  5  1  0
  7  8  1  0
  7  6  2  0
  8  9  2  0
  9  4  1  0
 10 14  1  0
 10 11  2  0
 13 12  1  6
 14 13  1  0
 15 22  1  0
 15 13  1  0
 16 15  2  0
 18 20  1  0
 18 17  1  0
 19 18  2  0
 21 20  1  1
 21 23  1  0
 21 22  1  0
 23 25  1  0
 24 23  2  0
M  END
$$$$
