FAN.pdb
     RDKit          3D

 25 25  0  0  1  0  0  0  0  0999 V2000
   24.8739  -20.1265   -7.7950 N   0  0  0  0  0  0  0  0  0  0  0  0
   26.1399  -19.9106   -8.4392 C   0  0  1  0  0  0  0  0  0  0  0  0
   27.2432  -20.7707   -7.8213 C   0  0  0  0  0  0  0  0  0  0  0  0
   27.7460  -20.2460   -6.5664 C   0  0  0  0  0  0  0  0  0  0  0  0
   27.6909  -20.9972   -5.4144 C   0  0  0  0  0  0  0  0  0  0  0  0
   28.1733  -20.4987   -4.2004 C   0  0  0  0  0  0  0  0  0  0  0  0
   28.7087  -19.2428   -4.1589 C   0  0  0  0  0  0  0  0  0  0  0  0
   28.7778  -18.4691   -5.2896 C   0  0  0  0  0  0  0  0  0  0  0  0
   28.2900  -18.9844   -6.4964 C   0  0  0  0  0  0  0  0  0  0  0  0
   26.1187  -20.2886   -9.8786 C   0  0  0  0  0  0  0  0  0  0  0  0
   25.0772  -20.8520  -10.3019 O   0  0  0  0  0  0  0  0  0  0  0  0
   28.5007  -19.9904  -12.7592 C   0  0  0  0  0  0  0  0  0  0  0  0
   27.0757  -20.1548  -12.2175 C   0  0  2  0  0  0  0  0  0  0  0  0
   27.1731  -20.0593  -10.7815 N   0  0  0  0  0  0  0  0  0  0  0  0
   26.5870  -21.4866  -12.6549 C   0  0  0  0  0  0  0  0  0  0  0  0
   26.5777  -22.4396  -11.8316 O   0  0  0  0  0  0  0  0  0  0  0  0
   21.6571  -21.4912  -14.8619 N   0  0  0  0  0  0  0  0  0  0  0  0
   22.4226  -21.8187  -13.6876 C   0  0  0  0  0  0  0  0  0  0  0  0
   21.8559  -22.5043  -12.8262 O   0  0  0  0  0  0  0  0  0  0  0  0
   23.8055  -21.3503  -13.5431 C   0  0  0  0  0  0  0  0  0  0  0  0
   24.7747  -22.2109  -14.2578 C   0  0  2  0  0  0  0  0  0  0  0  0
   26.1344  -21.6887  -13.9845 N   0  0  0  0  0  0  0  0  0  0  0  0
   24.5821  -22.2259  -15.7046 C   0  0  0  0  0  0  0  0  0  0  0  0
   24.1960  -23.2159  -16.3303 O   0  0  0  0  0  0  0  0  0  0  0  0
   24.8340  -21.0775  -16.4856 O   0  0  0  0  0  0  0  0  0  0  0  0
  2  1  1  1
  2 10  1  0
  3  2  1  0
  4  3  1  0
  5  4  2  0
  6  5  1  0
  7  8  1  0
  7  6  2  0
  8  9  2  0
  9  4  1  0
 10 14  1  0
 10 11  2  0
 13 12  1  6
 14 13  1  0
 15 22  1  0
 15 13  1  0
 16 15  2  0
 18 20  1  0
 18 17  1  0
 19 18  2  0
 21 20  1  1
 21 23  1  0
 21 22  1  0
 23 25  1  0
 24 23  2  0
M  END
$$$$
