FAN.pdb
     RDKit          3D

 25 25  0  0  1  0  0  0  0  0999 V2000
   33.8023   -9.8741  -19.0486 N   0  0  0  0  0  0  0  0  0  0  0  0
   33.0771  -10.7176  -18.1391 C   0  0  1  0  0  0  0  0  0  0  0  0
   33.7864  -10.8360  -16.7893 C   0  0  0  0  0  0  0  0  0  0  0  0
   35.1191  -11.3994  -16.8879 C   0  0  0  0  0  0  0  0  0  0  0  0
   36.1774  -10.8309  -16.2163 C   0  0  0  0  0  0  0  0  0  0  0  0
   37.4653  -11.3678  -16.3061 C   0  0  0  0  0  0  0  0  0  0  0  0
   37.6749  -12.4771  -17.0751 C   0  0  0  0  0  0  0  0  0  0  0  0
   36.6410  -13.0670  -17.7568 C   0  0  0  0  0  0  0  0  0  0  0  0
   35.3582  -12.5158  -17.6553 C   0  0  0  0  0  0  0  0  0  0  0  0
   31.7267  -10.1809  -17.8178 C   0  0  0  0  0  0  0  0  0  0  0  0
   31.0910  -10.7576  -16.8987 O   0  0  0  0  0  0  0  0  0  0  0  0
   29.6641   -7.2801  -18.9949 C   0  0  0  0  0  0  0  0  0  0  0  0
   29.8039   -8.5786  -18.1914 C   0  0  2  0  0  0  0  0  0  0  0  0
   31.1256   -9.0868  -18.4666 N   0  0  0  0  0  0  0  0  0  0  0  0
   28.7426   -9.5051  -18.6597 C   0  0  0  0  0  0  0  0  0  0  0  0
   27.5354   -9.2145  -18.4493 O   0  0  0  0  0  0  0  0  0  0  0  0
   25.3174  -10.4585  -22.4173 N   0  0  0  0  0  0  0  0  0  0  0  0
   26.1632  -11.2421  -21.5555 C   0  0  0  0  0  0  0  0  0  0  0  0
   25.7469  -12.3635  -21.2356 O   0  0  0  0  0  0  0  0  0  0  0  0
   27.4515  -10.7140  -21.0926 C   0  0  0  0  0  0  0  0  0  0  0  0
   28.0396  -11.5249  -20.0029 C   0  0  2  0  0  0  0  0  0  0  0  0
   29.0795  -10.7056  -19.3369 N   0  0  0  0  0  0  0  0  0  0  0  0
   28.6690  -12.7564  -20.4695 C   0  0  0  0  0  0  0  0  0  0  0  0
   29.6703  -12.7797  -21.1887 O   0  0  0  0  0  0  0  0  0  0  0  0
   28.1514  -14.0202  -20.1127 O   0  0  0  0  0  0  0  0  0  0  0  0
  2  1  1  6
  2 10  1  0
  3  2  1  0
  4  3  1  0
  5  4  2  0
  6  5  1  0
  7  8  1  0
  7  6  2  0
  8  9  2  0
  9  4  1  0
 10 14  1  0
 10 11  2  0
 13 12  1  6
 14 13  1  0
 15 22  1  0
 15 13  1  0
 16 15  2  0
 18 20  1  0
 18 17  1  0
 19 18  2  0
 21 20  1  6
 21 23  1  0
 21 22  1  0
 23 25  1  0
 24 23  2  0
M  END
$$$$
