FAN.pdb
     RDKit          3D

 25 25  0  0  1  0  0  0  0  0999 V2000
   22.8612   -9.0877  -16.8159 N   0  0  0  0  0  0  0  0  0  0  0  0
   21.8415   -9.2720  -15.8206 C   0  0  1  0  0  0  0  0  0  0  0  0
   21.8244  -10.7051  -15.2868 C   0  0  0  0  0  0  0  0  0  0  0  0
   21.3537  -11.6743  -16.2575 C   0  0  0  0  0  0  0  0  0  0  0  0
   20.0079  -11.8418  -16.4924 C   0  0  0  0  0  0  0  0  0  0  0  0
   19.5457  -12.7740  -17.4265 C   0  0  0  0  0  0  0  0  0  0  0  0
   20.4482  -13.5315  -18.1175 C   0  0  0  0  0  0  0  0  0  0  0  0
   21.7960  -13.3884  -17.9062 C   0  0  0  0  0  0  0  0  0  0  0  0
   22.2407  -12.4502  -16.9672 C   0  0  0  0  0  0  0  0  0  0  0  0
   22.0550   -8.4176  -14.6208 C   0  0  0  0  0  0  0  0  0  0  0  0
   23.2393   -8.2927  -14.2169 O   0  0  0  0  0  0  0  0  0  0  0  0
   21.5784   -5.4923  -14.4472 C   0  0  0  0  0  0  0  0  0  0  0  0
   21.1470   -6.4431  -13.3243 C   0  0  2  0  0  0  0  0  0  0  0  0
   21.0324   -7.7514  -13.9209 N   0  0  0  0  0  0  0  0  0  0  0  0
   19.8458   -5.9524  -12.8045 C   0  0  0  0  0  0  0  0  0  0  0  0
   19.7884   -4.8171  -12.2625 O   0  0  0  0  0  0  0  0  0  0  0  0
   16.7143   -8.1912   -9.0525 N   0  0  0  0  0  0  0  0  0  0  0  0
   17.4209   -6.9904   -9.4145 C   0  0  0  0  0  0  0  0  0  0  0  0
   17.2072   -5.9873   -8.7206 O   0  0  0  0  0  0  0  0  0  0  0  0
   18.3439   -6.9823  -10.5549 C   0  0  0  0  0  0  0  0  0  0  0  0
   17.6527   -6.7558  -11.8440 C   0  0  2  0  0  0  0  0  0  0  0  0
   18.6774   -6.7499  -12.9146 N   0  0  0  0  0  0  0  0  0  0  0  0
   16.9344   -5.4865  -11.9031 C   0  0  0  0  0  0  0  0  0  0  0  0
   15.8528   -5.2890  -11.3450 O   0  0  0  0  0  0  0  0  0  0  0  0
   17.4534   -4.3879  -12.6215 O   0  0  0  0  0  0  0  0  0  0  0  0
  2  1  1  6
  2 10  1  0
  3  2  1  0
  4  3  1  0
  5  4  2  0
  6  5  1  0
  7  8  1  0
  7  6  2  0
  8  9  2  0
  9  4  1  0
 10 14  1  0
 10 11  2  0
 13 12  1  6
 14 13  1  0
 15 22  1  0
 15 13  1  0
 16 15  2  0
 18 20  1  0
 18 17  1  0
 19 18  2  0
 21 20  1  1
 21 23  1  0
 21 22  1  0
 23 25  1  0
 24 23  2  0
M  END
$$$$
