ADT.pdb
     RDKit          3D

 21 20  0  0  1  0  0  0  0  0999 V2000
   17.7920  -14.5494  -15.3088 C   0  0  0  0  0  0  0  0  0  0  0  0
   16.8711  -13.6381  -16.0452 C   0  0  2  0  0  0  0  0  0  0  0  0
   16.2506  -14.3267  -17.1549 N   0  0  0  0  0  0  0  0  0  0  0  0
   17.5847  -12.4170  -16.5065 C   0  0  0  0  0  0  0  0  0  0  0  0
   18.3841  -12.5214  -17.4646 O   0  0  0  0  0  0  0  0  0  0  0  0
   17.3845  -11.1681  -15.8985 N   0  0  0  0  0  0  0  0  0  0  0  0
   17.9444   -9.9293  -16.3927 C   0  0  1  0  0  0  0  0  0  0  0  0
   16.8895   -8.9783  -16.8658 C   0  0  0  0  0  0  0  0  0  0  0  0
   17.3692   -7.7408  -17.4459 C   0  0  0  0  0  0  0  0  0  0  0  0
   18.5730   -7.5500  -17.6925 O   0  0  0  0  0  0  0  0  0  0  0  0
   18.8600   -9.3788  -15.4027 C   0  0  0  0  0  0  0  0  0  0  0  0
   18.5822   -9.1922  -14.1865 O   0  0  0  0  0  0  0  0  0  0  0  0
   16.4845   -6.7177  -17.7478 O   0  0  0  0  0  0  0  0  0  0  0  0
   22.3579  -10.6239  -14.7700 C   0  0  0  0  0  0  0  0  0  0  0  0
   22.4800   -9.1781  -15.1517 C   0  0  1  0  0  0  0  0  0  0  0  0
   22.8297   -9.1208  -16.4967 O   0  0  0  0  0  0  0  0  0  0  0  0
   21.1746   -8.4888  -14.9186 C   0  0  2  0  0  0  0  0  0  0  0  0
   20.1716   -9.0158  -15.8144 N   0  0  0  0  0  0  0  0  0  0  0  0
   21.2913   -7.0113  -15.0320 C   0  0  0  0  0  0  0  0  0  0  0  0
   20.6321   -6.3995  -15.9014 O   0  0  0  0  0  0  0  0  0  0  0  0
   22.1249   -6.3292  -14.1784 O   0  0  0  0  0  0  0  0  0  0  0  0
  2  1  1  6
  2  4  1  0
  3  2  1  0
  4  5  2  0
  6  7  1  0
  6  4  1  0
  7 11  1  0
  8  9  1  0
  7  8  1  1
  9 10  2  0
 11 18  1  0
 11 12  2  0
 13  9  1  0
 15 14  1  6
 15 17  1  0
 16 15  1  0
 17 19  1  0
 17 18  1  6
 19 20  2  0
 19 21  1  0
M  END
$$$$
