ADT.pdb
     RDKit          3D

 21 20  0  0  1  0  0  0  0  0999 V2000
   15.6165  -13.2258  -16.8336 C   0  0  0  0  0  0  0  0  0  0  0  0
   17.0448  -13.6414  -16.7428 C   0  0  2  0  0  0  0  0  0  0  0  0
   17.1655  -14.9086  -16.0572 N   0  0  0  0  0  0  0  0  0  0  0  0
   17.8641  -12.5937  -16.0763 C   0  0  0  0  0  0  0  0  0  0  0  0
   17.6671  -12.3686  -14.8604 O   0  0  0  0  0  0  0  0  0  0  0  0
   18.8388  -11.8618  -16.7719 N   0  0  0  0  0  0  0  0  0  0  0  0
   19.7452  -10.9241  -16.1461 C   0  0  1  0  0  0  0  0  0  0  0  0
   21.1743  -11.3563  -16.2564 C   0  0  0  0  0  0  0  0  0  0  0  0
   22.1444  -10.5021  -15.6028 C   0  0  0  0  0  0  0  0  0  0  0  0
   21.8062   -9.5099  -14.9337 O   0  0  0  0  0  0  0  0  0  0  0  0
   19.4758   -9.5811  -16.6413 C   0  0  0  0  0  0  0  0  0  0  0  0
   19.5591   -9.2260  -17.8487 O   0  0  0  0  0  0  0  0  0  0  0  0
   23.4998  -10.7717  -15.7063 O   0  0  0  0  0  0  0  0  0  0  0  0
   16.9871   -7.1732  -14.3986 C   0  0  0  0  0  0  0  0  0  0  0  0
   17.2988   -6.9737  -15.8526 C   0  0  1  0  0  0  0  0  0  0  0  0
   16.9676   -5.6639  -16.1833 O   0  0  0  0  0  0  0  0  0  0  0  0
   18.7529   -7.2237  -16.0899 C   0  0  2  0  0  0  0  0  0  0  0  0
   19.0889   -8.5768  -15.7123 N   0  0  0  0  0  0  0  0  0  0  0  0
   19.6143   -6.2297  -15.3975 C   0  0  0  0  0  0  0  0  0  0  0  0
   20.3525   -6.5941  -14.4558 O   0  0  0  0  0  0  0  0  0  0  0  0
   19.5914   -4.9157  -15.7994 O   0  0  0  0  0  0  0  0  0  0  0  0
  2  1  1  1
  2  4  1  0
  3  2  1  0
  4  5  2  0
  6  7  1  0
  6  4  1  0
  7 11  1  0
  8  9  1  0
  7  8  1  6
  9 10  2  0
 11 18  1  0
 11 12  2  0
 13  9  1  0
 15 14  1  1
 15 17  1  0
 16 15  1  0
 17 19  1  0
 17 18  1  1
 19 20  2  0
 19 21  1  0
M  END
$$$$
