ADT.pdb
     RDKit          3D

 21 20  0  0  1  0  0  0  0  0999 V2000
   15.5844   -9.9966  -16.2248 C   0  0  0  0  0  0  0  0  0  0  0  0
   16.1556   -8.6315  -16.4016 C   0  0  2  0  0  0  0  0  0  0  0  0
   16.3994   -8.3570  -17.8001 N   0  0  0  0  0  0  0  0  0  0  0  0
   17.3981   -8.4651  -15.6005 C   0  0  0  0  0  0  0  0  0  0  0  0
   17.3310   -8.6191  -14.3597 O   0  0  0  0  0  0  0  0  0  0  0  0
   18.6266   -8.1426  -16.1976 N   0  0  0  0  0  0  0  0  0  0  0  0
   19.8566   -7.9476  -15.4618 C   0  0  1  0  0  0  0  0  0  0  0  0
   20.8325   -9.0613  -15.6818 C   0  0  0  0  0  0  0  0  0  0  0  0
   22.1479   -8.8712  -15.1060 C   0  0  0  0  0  0  0  0  0  0  0  0
   22.3108   -8.3475  -13.9899 O   0  0  0  0  0  0  0  0  0  0  0  0
   20.3814   -6.6163  -15.7333 C   0  0  0  0  0  0  0  0  0  0  0  0
   20.7935   -6.2175  -16.8568 O   0  0  0  0  0  0  0  0  0  0  0  0
   23.2807   -9.2750  -15.7945 O   0  0  0  0  0  0  0  0  0  0  0  0
   18.7599   -3.5868  -15.6063 C   0  0  0  0  0  0  0  0  0  0  0  0
   19.8470   -3.3471  -14.6005 C   0  0  1  0  0  0  0  0  0  0  0  0
   19.2951   -3.4980  -13.3327 O   0  0  0  0  0  0  0  0  0  0  0  0
   20.9500   -4.3327  -14.8138 C   0  0  2  0  0  0  0  0  0  0  0  0
   20.4448   -5.6779  -14.6672 N   0  0  0  0  0  0  0  0  0  0  0  0
   22.1098   -4.0804  -13.9191 C   0  0  0  0  0  0  0  0  0  0  0  0
   22.4469   -4.9429  -13.0783 O   0  0  0  0  0  0  0  0  0  0  0  0
   22.8030   -2.8983  -14.0241 O   0  0  0  0  0  0  0  0  0  0  0  0
  2  1  1  6
  2  4  1  0
  3  2  1  0
  4  5  2  0
  6  7  1  0
  6  4  1  0
  7 11  1  0
  8  9  1  0
  7  8  1  6
  9 10  2  0
 11 18  1  0
 11 12  2  0
 13  9  1  0
 15 14  1  6
 15 17  1  0
 16 15  1  0
 17 19  1  0
 17 18  1  1
 19 20  2  0
 19 21  1  0
M  END
$$$$
