ADT.pdb
     RDKit          3D

 21 20  0  0  1  0  0  0  0  0999 V2000
   19.9176  -11.7098  -16.6435 C   0  0  0  0  0  0  0  0  0  0  0  0
   19.3902  -10.4528  -17.2457 C   0  0  2  0  0  0  0  0  0  0  0  0
   20.1250  -10.1127  -18.4435 N   0  0  0  0  0  0  0  0  0  0  0  0
   19.4237   -9.3357  -16.2637 C   0  0  0  0  0  0  0  0  0  0  0  0
   18.7082   -9.4221  -15.2398 O   0  0  0  0  0  0  0  0  0  0  0  0
   20.2283   -8.2024  -16.4585 N   0  0  0  0  0  0  0  0  0  0  0  0
   20.2739   -7.0777  -15.5500 C   0  0  1  0  0  0  0  0  0  0  0  0
   21.5461   -7.0358  -14.7619 C   0  0  0  0  0  0  0  0  0  0  0  0
   21.7085   -5.8942  -13.8853 C   0  0  0  0  0  0  0  0  0  0  0  0
   22.0517   -6.0180  -12.6965 O   0  0  0  0  0  0  0  0  0  0  0  0
   19.9670   -5.8523  -16.2751 C   0  0  0  0  0  0  0  0  0  0  0  0
   20.6590   -5.3773  -17.2166 O   0  0  0  0  0  0  0  0  0  0  0  0
   21.4825   -4.6103  -14.3554 O   0  0  0  0  0  0  0  0  0  0  0  0
   16.6459   -5.0585  -17.8719 C   0  0  0  0  0  0  0  0  0  0  0  0
   16.9128   -3.9770  -16.8669 C   0  0  1  0  0  0  0  0  0  0  0  0
   16.2033   -4.2851  -15.7109 O   0  0  0  0  0  0  0  0  0  0  0  0
   18.3784   -3.9116  -16.5819 C   0  0  2  0  0  0  0  0  0  0  0  0
   18.8049   -5.1181  -15.9119 N   0  0  0  0  0  0  0  0  0  0  0  0
   18.7474   -2.6951  -15.8116 C   0  0  0  0  0  0  0  0  0  0  0  0
   19.2583   -2.8086  -14.6755 O   0  0  0  0  0  0  0  0  0  0  0  0
   18.5230   -1.4535  -16.3561 O   0  0  0  0  0  0  0  0  0  0  0  0
  2  1  1  1
  2  4  1  0
  3  2  1  0
  4  5  2  0
  6  7  1  0
  6  4  1  0
  7 11  1  0
  8  9  1  0
  7  8  1  6
  9 10  2  0
 11 18  1  0
 11 12  2  0
 13  9  1  0
 15 14  1  6
 15 17  1  0
 16 15  1  0
 17 19  1  0
 17 18  1  1
 19 20  2  0
 19 21  1  0
M  END
$$$$
