ADT.pdb
     RDKit          3D

 21 20  0  0  1  0  0  0  0  0999 V2000
   19.3638  -11.5424  -15.2680 C   0  0  0  0  0  0  0  0  0  0  0  0
   19.4346  -10.3692  -16.1843 C   0  0  2  0  0  0  0  0  0  0  0  0
   20.6250  -10.4313  -17.0026 N   0  0  0  0  0  0  0  0  0  0  0  0
   19.3765   -9.0928  -15.4224 C   0  0  0  0  0  0  0  0  0  0  0  0
   18.3824   -8.8813  -14.6910 O   0  0  0  0  0  0  0  0  0  0  0  0
   20.3976   -8.1336  -15.5056 N   0  0  0  0  0  0  0  0  0  0  0  0
   20.3802   -6.8711  -14.7998 C   0  0  1  0  0  0  0  0  0  0  0  0
   21.6284   -6.6484  -14.0038 C   0  0  0  0  0  0  0  0  0  0  0  0
   21.6910   -5.4058  -13.2621 C   0  0  0  0  0  0  0  0  0  0  0  0
   20.6700   -4.7591  -12.9697 O   0  0  0  0  0  0  0  0  0  0  0  0
   20.0511   -5.7979  -15.7281 C   0  0  0  0  0  0  0  0  0  0  0  0
   20.7567   -5.4554  -16.7159 O   0  0  0  0  0  0  0  0  0  0  0  0
   22.9116   -4.8948  -12.8503 O   0  0  0  0  0  0  0  0  0  0  0  0
   17.1317   -5.3730  -17.8745 C   0  0  0  0  0  0  0  0  0  0  0  0
   17.0701   -4.2242  -16.9114 C   0  0  1  0  0  0  0  0  0  0  0  0
   16.1886   -4.5695  -15.8924 O   0  0  0  0  0  0  0  0  0  0  0  0
   18.4340   -3.9622  -16.3596 C   0  0  2  0  0  0  0  0  0  0  0  0
   18.8492   -5.0660  -15.5257 N   0  0  0  0  0  0  0  0  0  0  0  0
   18.5074   -2.6670  -15.6341 C   0  0  0  0  0  0  0  0  0  0  0  0
   18.7476   -2.6535  -14.4067 O   0  0  0  0  0  0  0  0  0  0  0  0
   18.3098   -1.4929  -16.3205 O   0  0  0  0  0  0  0  0  0  0  0  0
  2  1  1  1
  2  4  1  0
  3  2  1  0
  4  5  2  0
  6  7  1  0
  6  4  1  0
  7 11  1  0
  8  9  1  0
  7  8  1  6
  9 10  2  0
 11 18  1  0
 11 12  2  0
 13  9  1  0
 15 14  1  6
 15 17  1  0
 16 15  1  0
 17 19  1  0
 17 18  1  1
 19 20  2  0
 19 21  1  0
M  END
$$$$
