ADT.pdb
     RDKit          3D

 21 20  0  0  1  0  0  0  0  0999 V2000
   14.4326  -11.4148  -11.8036 C   0  0  0  0  0  0  0  0  0  0  0  0
   14.6626  -10.7452  -10.4923 C   0  0  2  0  0  0  0  0  0  0  0  0
   13.4499  -10.7335   -9.7050 N   0  0  0  0  0  0  0  0  0  0  0  0
   15.1890   -9.3668  -10.6821 C   0  0  0  0  0  0  0  0  0  0  0  0
   14.4024   -8.4800  -11.0858 O   0  0  0  0  0  0  0  0  0  0  0  0
   16.5299   -9.0439  -10.4229 N   0  0  0  0  0  0  0  0  0  0  0  0
   17.0723   -7.7063  -10.5179 C   0  0  1  0  0  0  0  0  0  0  0  0
   16.7933   -6.8922   -9.2928 C   0  0  0  0  0  0  0  0  0  0  0  0
   17.3675   -5.5626   -9.2740 C   0  0  0  0  0  0  0  0  0  0  0  0
   17.5028   -4.8869  -10.3093 O   0  0  0  0  0  0  0  0  0  0  0  0
   18.4774   -7.7754  -10.8954 C   0  0  0  0  0  0  0  0  0  0  0  0
   19.3650   -8.4104  -10.2630 O   0  0  0  0  0  0  0  0  0  0  0  0
   17.7887   -4.9966   -8.0813 O   0  0  0  0  0  0  0  0  0  0  0  0
   20.1423   -9.2243  -13.5780 C   0  0  0  0  0  0  0  0  0  0  0  0
   20.4267   -7.7674  -13.7955 C   0  0  1  0  0  0  0  0  0  0  0  0
   19.5180   -7.2917  -14.7350 O   0  0  0  0  0  0  0  0  0  0  0  0
   20.2793   -7.0319  -12.5029 C   0  0  2  0  0  0  0  0  0  0  0  0
   18.9052   -7.0823  -12.0607 N   0  0  0  0  0  0  0  0  0  0  0  0
   20.7774   -5.6343  -12.5916 C   0  0  0  0  0  0  0  0  0  0  0  0
   19.9727   -4.6801  -12.5110 O   0  0  0  0  0  0  0  0  0  0  0  0
   22.1213   -5.4028  -12.7621 O   0  0  0  0  0  0  0  0  0  0  0  0
  2  1  1  6
  2  4  1  0
  3  2  1  0
  4  5  2  0
  6  7  1  0
  6  4  1  0
  7 11  1  0
  8  9  1  0
  7  8  1  1
  9 10  2  0
 11 18  1  0
 11 12  2  0
 13  9  1  0
 15 14  1  1
 15 17  1  0
 16 15  1  0
 17 19  1  0
 17 18  1  6
 19 20  2  0
 19 21  1  0
M  END
$$$$
