ADT.pdb
     RDKit          3D

 21 20  0  0  1  0  0  0  0  0999 V2000
   17.8151  -12.1318  -16.3754 C   0  0  0  0  0  0  0  0  0  0  0  0
   17.7516  -10.8863  -15.5595 C   0  0  2  0  0  0  0  0  0  0  0  0
   16.5243  -10.1675  -15.8193 N   0  0  0  0  0  0  0  0  0  0  0  0
   18.9381  -10.0241  -15.8087 C   0  0  0  0  0  0  0  0  0  0  0  0
   20.0068  -10.2971  -15.2161 O   0  0  0  0  0  0  0  0  0  0  0  0
   18.8855   -8.9259  -16.6810 N   0  0  0  0  0  0  0  0  0  0  0  0
   19.9879   -8.0161  -16.9027 C   0  0  1  0  0  0  0  0  0  0  0  0
   20.0930   -7.5895  -18.3339 C   0  0  0  0  0  0  0  0  0  0  0  0
   20.5112   -8.6136  -19.2689 C   0  0  0  0  0  0  0  0  0  0  0  0
   21.6000   -9.2041  -19.1582 O   0  0  0  0  0  0  0  0  0  0  0  0
   19.9164   -6.9208  -15.9452 C   0  0  0  0  0  0  0  0  0  0  0  0
   18.9761   -6.0831  -15.8747 O   0  0  0  0  0  0  0  0  0  0  0  0
   19.6953   -8.9702  -20.3308 O   0  0  0  0  0  0  0  0  0  0  0  0
   19.8809   -7.2980  -12.3862 C   0  0  0  0  0  0  0  0  0  0  0  0
   21.0910   -6.4443  -12.6264 C   0  0  1  0  0  0  0  0  0  0  0  0
   22.2089   -7.2712  -12.5935 O   0  0  0  0  0  0  0  0  0  0  0  0
   20.9724   -5.7740  -13.9568 C   0  0  2  0  0  0  0  0  0  0  0  0
   20.9752   -6.7630  -15.0095 N   0  0  0  0  0  0  0  0  0  0  0  0
   22.0266   -4.7470  -14.1646 C   0  0  0  0  0  0  0  0  0  0  0  0
   22.0535   -3.7269  -13.4412 O   0  0  0  0  0  0  0  0  0  0  0  0
   22.9647   -4.9281  -15.1525 O   0  0  0  0  0  0  0  0  0  0  0  0
  2  1  1  6
  2  4  1  0
  3  2  1  0
  4  5  2  0
  6  7  1  0
  6  4  1  0
  7 11  1  0
  8  9  1  0
  7  8  1  6
  9 10  2  0
 11 18  1  0
 11 12  2  0
 13  9  1  0
 15 14  1  6
 15 17  1  0
 16 15  1  0
 17 19  1  0
 17 18  1  6
 19 20  2  0
 19 21  1  0
M  END
$$$$
