ADT.pdb
     RDKit          3D

 21 20  0  0  1  0  0  0  0  0999 V2000
   16.6790  -13.7374  -14.6453 C   0  0  0  0  0  0  0  0  0  0  0  0
   16.2150  -13.0726  -15.8958 C   0  0  2  0  0  0  0  0  0  0  0  0
   16.2027  -14.0087  -16.9976 N   0  0  0  0  0  0  0  0  0  0  0  0
   17.0549  -11.8863  -16.2127 C   0  0  0  0  0  0  0  0  0  0  0  0
   18.1712  -12.0736  -16.7481 O   0  0  0  0  0  0  0  0  0  0  0  0
   16.6290  -10.5798  -15.9274 N   0  0  0  0  0  0  0  0  0  0  0  0
   17.3943   -9.3933  -16.2417 C   0  0  1  0  0  0  0  0  0  0  0  0
   16.5193   -8.2155  -16.5390 C   0  0  0  0  0  0  0  0  0  0  0  0
   17.2078   -6.9849  -16.8700 C   0  0  0  0  0  0  0  0  0  0  0  0
   17.0409   -5.9389  -16.2184 O   0  0  0  0  0  0  0  0  0  0  0  0
   18.3891   -9.1651  -15.2026 C   0  0  0  0  0  0  0  0  0  0  0  0
   18.1673   -9.2328  -13.9627 O   0  0  0  0  0  0  0  0  0  0  0  0
   18.0870   -6.9384  -17.9401 O   0  0  0  0  0  0  0  0  0  0  0  0
   21.7831  -10.7816  -14.9856 C   0  0  0  0  0  0  0  0  0  0  0  0
   22.0210   -9.3025  -15.0665 C   0  0  1  0  0  0  0  0  0  0  0  0
   22.3507   -8.9955  -16.3825 O   0  0  0  0  0  0  0  0  0  0  0  0
   20.7833   -8.5748  -14.6518 C   0  0  2  0  0  0  0  0  0  0  0  0
   19.7176   -8.8393  -15.5902 N   0  0  0  0  0  0  0  0  0  0  0  0
   21.0184   -7.1169  -14.4834 C   0  0  0  0  0  0  0  0  0  0  0  0
   21.7753   -6.7089  -13.5750 O   0  0  0  0  0  0  0  0  0  0  0  0
   20.4001   -6.2279  -15.3297 O   0  0  0  0  0  0  0  0  0  0  0  0
  2  1  1  1
  2  4  1  0
  3  2  1  0
  4  5  2  0
  6  7  1  0
  6  4  1  0
  7 11  1  0
  8  9  1  0
  7  8  1  1
  9 10  2  0
 11 18  1  0
 11 12  2  0
 13  9  1  0
 15 14  1  6
 15 17  1  0
 16 15  1  0
 17 19  1  0
 17 18  1  6
 19 20  2  0
 19 21  1  0
M  END
$$$$
