ADT.pdb
     RDKit          3D

 21 20  0  0  1  0  0  0  0  0999 V2000
   19.5498  -10.8716  -16.4082 C   0  0  0  0  0  0  0  0  0  0  0  0
   19.2791   -9.5313  -17.0010 C   0  0  2  0  0  0  0  0  0  0  0  0
   20.0581   -9.3380  -18.2037 N   0  0  0  0  0  0  0  0  0  0  0  0
   19.5421   -8.4488  -16.0151 C   0  0  0  0  0  0  0  0  0  0  0  0
   18.8768   -8.4359  -14.9543 O   0  0  0  0  0  0  0  0  0  0  0  0
   20.5057   -7.4549  -16.2459 N   0  0  0  0  0  0  0  0  0  0  0  0
   20.7689   -6.3583  -15.3400 C   0  0  1  0  0  0  0  0  0  0  0  0
   22.0444   -6.5445  -14.5786 C   0  0  0  0  0  0  0  0  0  0  0  0
   22.3771   -5.4947  -13.6377 C   0  0  0  0  0  0  0  0  0  0  0  0
   23.0679   -4.5126  -13.9611 O   0  0  0  0  0  0  0  0  0  0  0  0
   20.6691   -5.0962  -16.0603 C   0  0  0  0  0  0  0  0  0  0  0  0
   21.3446   -4.7915  -17.0810 O   0  0  0  0  0  0  0  0  0  0  0  0
   21.9265   -5.5566  -12.3287 O   0  0  0  0  0  0  0  0  0  0  0  0
   17.8578   -1.1983  -16.9036 C   0  0  0  0  0  0  0  0  0  0  0  0
   18.1423   -2.3742  -16.0163 C   0  0  1  0  0  0  0  0  0  0  0  0
   17.2351   -3.3787  -16.3365 O   0  0  0  0  0  0  0  0  0  0  0  0
   19.5440   -2.8411  -16.2410 C   0  0  2  0  0  0  0  0  0  0  0  0
   19.7481   -4.1175  -15.5963 N   0  0  0  0  0  0  0  0  0  0  0  0
   20.5481   -1.8368  -15.8024 C   0  0  0  0  0  0  0  0  0  0  0  0
   20.8227   -1.7203  -14.5877 O   0  0  0  0  0  0  0  0  0  0  0  0
   21.1670   -1.0431  -16.7381 O   0  0  0  0  0  0  0  0  0  0  0  0
  2  1  1  1
  2  4  1  0
  3  2  1  0
  4  5  2  0
  6  7  1  0
  6  4  1  0
  7 11  1  0
  8  9  1  0
  7  8  1  6
  9 10  2  0
 11 18  1  0
 11 12  2  0
 13  9  1  0
 15 14  1  6
 15 17  1  0
 16 15  1  0
 17 19  1  0
 17 18  1  1
 19 20  2  0
 19 21  1  0
M  END
$$$$
