ADT.pdb
     RDKit          3D

 21 20  0  0  1  0  0  0  0  0999 V2000
   15.9360   -9.2821  -16.4029 C   0  0  0  0  0  0  0  0  0  0  0  0
   16.9552   -8.2956  -16.8599 C   0  0  2  0  0  0  0  0  0  0  0  0
   17.5361   -8.7073  -18.1183 N   0  0  0  0  0  0  0  0  0  0  0  0
   18.0065   -8.0968  -15.8264 C   0  0  0  0  0  0  0  0  0  0  0  0
   17.6500   -7.7810  -14.6683 O   0  0  0  0  0  0  0  0  0  0  0  0
   19.3705   -8.2526  -16.1179 N   0  0  0  0  0  0  0  0  0  0  0  0
   20.4315   -8.0431  -15.1573 C   0  0  1  0  0  0  0  0  0  0  0  0
   21.3987   -9.1852  -15.1217 C   0  0  0  0  0  0  0  0  0  0  0  0
   20.8363  -10.4789  -14.7930 C   0  0  0  0  0  0  0  0  0  0  0  0
   20.6402  -11.3524  -15.6561 O   0  0  0  0  0  0  0  0  0  0  0  0
   21.0392   -6.7380  -15.3788 C   0  0  0  0  0  0  0  0  0  0  0  0
   21.7497   -6.4315  -16.3749 O   0  0  0  0  0  0  0  0  0  0  0  0
   20.4957  -10.7845  -13.4849 O   0  0  0  0  0  0  0  0  0  0  0  0
   19.3872   -3.5994  -15.7147 C   0  0  0  0  0  0  0  0  0  0  0  0
   20.2707   -3.3775  -14.5226 C   0  0  1  0  0  0  0  0  0  0  0  0
   19.4882   -3.5157  -13.3810 O   0  0  0  0  0  0  0  0  0  0  0  0
   21.3759   -4.3833  -14.5267 C   0  0  2  0  0  0  0  0  0  0  0  0
   20.8306   -5.7160  -14.4127 N   0  0  0  0  0  0  0  0  0  0  0  0
   22.3874   -4.1111  -13.4721 C   0  0  0  0  0  0  0  0  0  0  0  0
   22.5440   -4.9243  -12.5347 O   0  0  0  0  0  0  0  0  0  0  0  0
   23.1431   -2.9651  -13.5367 O   0  0  0  0  0  0  0  0  0  0  0  0
  2  1  1  1
  2  4  1  0
  3  2  1  0
  4  5  2  0
  6  7  1  0
  6  4  1  0
  7 11  1  0
  8  9  1  0
  7  8  1  6
  9 10  2  0
 11 18  1  0
 11 12  2  0
 13  9  1  0
 15 14  1  6
 15 17  1  0
 16 15  1  0
 17 19  1  0
 17 18  1  1
 19 20  2  0
 19 21  1  0
M  END
$$$$
