ADT.pdb
     RDKit          3D

 21 20  0  0  1  0  0  0  0  0999 V2000
   27.2003  -19.6383  -13.5214 C   0  0  0  0  0  0  0  0  0  0  0  0
   27.1810  -20.8194  -14.4299 C   0  0  2  0  0  0  0  0  0  0  0  0
   28.1395  -20.6564  -15.5001 N   0  0  0  0  0  0  0  0  0  0  0  0
   25.8147  -21.0560  -14.9687 C   0  0  0  0  0  0  0  0  0  0  0  0
   25.4105  -20.3298  -15.9052 O   0  0  0  0  0  0  0  0  0  0  0  0
   24.9802  -22.0612  -14.4559 N   0  0  0  0  0  0  0  0  0  0  0  0
   23.6869  -22.3983  -15.0090 C   0  0  1  0  0  0  0  0  0  0  0  0
   23.5295  -23.8709  -15.2283 C   0  0  0  0  0  0  0  0  0  0  0  0
   24.5594  -24.5040  -16.0262 C   0  0  0  0  0  0  0  0  0  0  0  0
   25.3592  -25.3240  -15.5421 O   0  0  0  0  0  0  0  0  0  0  0  0
   22.6379  -21.7878  -14.2037 C   0  0  0  0  0  0  0  0  0  0  0  0
   22.5328  -21.8965  -12.9514 O   0  0  0  0  0  0  0  0  0  0  0  0
   24.6838  -24.2087  -17.3745 O   0  0  0  0  0  0  0  0  0  0  0  0
   21.7487  -18.1774  -14.2782 C   0  0  0  0  0  0  0  0  0  0  0  0
   20.4871  -18.9078  -14.6329 C   0  0  1  0  0  0  0  0  0  0  0  0
   20.3433  -18.8629  -16.0156 O   0  0  0  0  0  0  0  0  0  0  0  0
   20.5801  -20.3224  -14.1602 C   0  0  2  0  0  0  0  0  0  0  0  0
   21.6455  -21.0060  -14.8558 N   0  0  0  0  0  0  0  0  0  0  0  0
   19.2872  -21.0443  -14.2896 C   0  0  0  0  0  0  0  0  0  0  0  0
   18.3167  -20.7170  -13.5715 O   0  0  0  0  0  0  0  0  0  0  0  0
   19.1698  -22.0676  -15.1994 O   0  0  0  0  0  0  0  0  0  0  0  0
  2  1  1  6
  2  4  1  0
  3  2  1  0
  4  5  2  0
  6  7  1  0
  6  4  1  0
  7 11  1  0
  8  9  1  0
  7  8  1  1
  9 10  2  0
 11 18  1  0
 11 12  2  0
 13  9  1  0
 15 14  1  6
 15 17  1  0
 16 15  1  0
 17 19  1  0
 17 18  1  6
 19 20  2  0
 19 21  1  0
M  END
$$$$
