ADT.pdb
     RDKit          3D

 21 20  0  0  1  0  0  0  0  0999 V2000
   24.9855  -30.1783  -22.9555 C   0  0  0  0  0  0  0  0  0  0  0  0
   24.5792  -29.6002  -21.6433 C   0  0  2  0  0  0  0  0  0  0  0  0
   23.7525  -28.4296  -21.8349 N   0  0  0  0  0  0  0  0  0  0  0  0
   25.7691  -29.2826  -20.8088 C   0  0  0  0  0  0  0  0  0  0  0  0
   26.5685  -28.4108  -21.2199 O   0  0  0  0  0  0  0  0  0  0  0  0
   26.0120  -29.9310  -19.5881 N   0  0  0  0  0  0  0  0  0  0  0  0
   27.1181  -29.6153  -18.7111 C   0  0  1  0  0  0  0  0  0  0  0  0
   26.6635  -29.2560  -17.3307 C   0  0  0  0  0  0  0  0  0  0  0  0
   25.7094  -28.1697  -17.2429 C   0  0  0  0  0  0  0  0  0  0  0  0
   25.8129  -27.1422  -17.9356 O   0  0  0  0  0  0  0  0  0  0  0  0
   28.1056  -30.6846  -18.7673 C   0  0  0  0  0  0  0  0  0  0  0  0
   27.8411  -31.9163  -18.7039 O   0  0  0  0  0  0  0  0  0  0  0  0
   24.6360  -28.2470  -16.3697 O   0  0  0  0  0  0  0  0  0  0  0  0
   31.2425  -30.2090  -21.1441 C   0  0  0  0  0  0  0  0  0  0  0  0
   31.6881  -30.6829  -19.7922 C   0  0  1  0  0  0  0  0  0  0  0  0
   32.1593  -29.5798  -19.0881 O   0  0  0  0  0  0  0  0  0  0  0  0
   30.5342  -31.3084  -19.0775 C   0  0  2  0  0  0  0  0  0  0  0  0
   29.4779  -30.3388  -18.9029 N   0  0  0  0  0  0  0  0  0  0  0  0
   30.9387  -31.9197  -17.7845 C   0  0  0  0  0  0  0  0  0  0  0  0
   30.4367  -31.5061  -16.7161 O   0  0  0  0  0  0  0  0  0  0  0  0
   31.8633  -32.9365  -17.7747 O   0  0  0  0  0  0  0  0  0  0  0  0
  2  1  1  6
  2  4  1  0
  3  2  1  0
  4  5  2  0
  6  7  1  0
  6  4  1  0
  7 11  1  0
  8  9  1  0
  7  8  1  1
  9 10  2  0
 11 18  1  0
 11 12  2  0
 13  9  1  0
 15 14  1  6
 15 17  1  0
 16 15  1  0
 17 19  1  0
 17 18  1  1
 19 20  2  0
 19 21  1  0
M  END
$$$$
