ADT.pdb
     RDKit          3D

 21 20  0  0  1  0  0  0  0  0999 V2000
   20.2133  -14.3387  -16.8337 C   0  0  0  0  0  0  0  0  0  0  0  0
   19.6430  -12.9670  -16.7151 C   0  0  2  0  0  0  0  0  0  0  0  0
   18.7660  -12.6804  -17.8283 N   0  0  0  0  0  0  0  0  0  0  0  0
   20.7217  -11.9480  -16.6093 C   0  0  0  0  0  0  0  0  0  0  0  0
   21.4898  -11.9953  -15.6215 O   0  0  0  0  0  0  0  0  0  0  0  0
   20.8937  -10.9481  -17.5790 N   0  0  0  0  0  0  0  0  0  0  0  0
   21.9581   -9.9691  -17.5508 C   0  0  1  0  0  0  0  0  0  0  0  0
   22.8467  -10.0618  -18.7521 C   0  0  0  0  0  0  0  0  0  0  0  0
   23.5986  -11.2923  -18.8878 C   0  0  0  0  0  0  0  0  0  0  0  0
   24.3425  -11.7147  -17.9852 O   0  0  0  0  0  0  0  0  0  0  0  0
   21.3979   -8.6465  -17.3091 C   0  0  0  0  0  0  0  0  0  0  0  0
   21.6100   -7.6301  -18.0253 O   0  0  0  0  0  0  0  0  0  0  0  0
   23.5080  -12.0462  -20.0470 O   0  0  0  0  0  0  0  0  0  0  0  0
   17.8667   -7.8089  -16.9850 C   0  0  0  0  0  0  0  0  0  0  0  0
   18.4631   -7.3644  -15.6821 C   0  0  1  0  0  0  0  0  0  0  0  0
   18.1810   -8.3385  -14.7301 O   0  0  0  0  0  0  0  0  0  0  0  0
   19.9397   -7.1971  -15.8406 C   0  0  2  0  0  0  0  0  0  0  0  0
   20.5452   -8.4620  -16.1866 N   0  0  0  0  0  0  0  0  0  0  0  0
   20.5699   -6.5972  -14.6354 C   0  0  0  0  0  0  0  0  0  0  0  0
   20.3439   -5.4020  -14.3441 O   0  0  0  0  0  0  0  0  0  0  0  0
   21.3975   -7.3635  -13.8503 O   0  0  0  0  0  0  0  0  0  0  0  0
  2  1  1  6
  2  4  1  0
  3  2  1  0
  4  5  2  0
  6  7  1  0
  6  4  1  0
  7 11  1  0
  8  9  1  0
  7  8  1  6
  9 10  2  0
 11 18  1  0
 11 12  2  0
 13  9  1  0
 15 14  1  6
 15 17  1  0
 16 15  1  0
 17 19  1  0
 17 18  1  1
 19 20  2  0
 19 21  1  0
M  END
$$$$
