ADT.pdb
     RDKit          3D

 21 20  0  0  1  0  0  0  0  0999 V2000
   17.6750  -12.7828  -16.6707 C   0  0  0  0  0  0  0  0  0  0  0  0
   16.9857  -11.9668  -15.6314 C   0  0  2  0  0  0  0  0  0  0  0  0
   15.5794  -12.2974  -15.5722 N   0  0  0  0  0  0  0  0  0  0  0  0
   17.1824  -10.5128  -15.8773 C   0  0  0  0  0  0  0  0  0  0  0  0
   16.7456  -10.0257  -16.9450 O   0  0  0  0  0  0  0  0  0  0  0  0
   17.8388   -9.6873  -14.9514 N   0  0  0  0  0  0  0  0  0  0  0  0
   18.0203   -8.2628  -15.1249 C   0  0  1  0  0  0  0  0  0  0  0  0
   16.7365   -7.5056  -14.9842 C   0  0  0  0  0  0  0  0  0  0  0  0
   16.8379   -6.0649  -15.0938 C   0  0  0  0  0  0  0  0  0  0  0  0
   17.6119   -5.5166  -15.8980 O   0  0  0  0  0  0  0  0  0  0  0  0
   19.0976   -7.7996  -14.2609 C   0  0  0  0  0  0  0  0  0  0  0  0
   19.0937   -7.8679  -13.0014 O   0  0  0  0  0  0  0  0  0  0  0  0
   16.0615   -5.2434  -14.2920 O   0  0  0  0  0  0  0  0  0  0  0  0
   22.5661   -8.9613  -14.5270 C   0  0  0  0  0  0  0  0  0  0  0  0
   22.6404   -7.4746  -14.7144 C   0  0  1  0  0  0  0  0  0  0  0  0
   22.7048   -7.2201  -16.0803 O   0  0  0  0  0  0  0  0  0  0  0  0
   21.4285   -6.8353  -14.1176 C   0  0  2  0  0  0  0  0  0  0  0  0
   20.2510   -7.2224  -14.8591 N   0  0  0  0  0  0  0  0  0  0  0  0
   21.5599   -5.3576  -14.0266 C   0  0  0  0  0  0  0  0  0  0  0  0
   22.4277   -4.8544  -13.2794 O   0  0  0  0  0  0  0  0  0  0  0  0
   20.7241   -4.5555  -14.7660 O   0  0  0  0  0  0  0  0  0  0  0  0
  2  1  1  6
  2  4  1  0
  3  2  1  0
  4  5  2  0
  6  7  1  0
  6  4  1  0
  7 11  1  0
  8  9  1  0
  7  8  1  1
  9 10  2  0
 11 18  1  0
 11 12  2  0
 13  9  1  0
 15 14  1  6
 15 17  1  0
 16 15  1  0
 17 19  1  0
 17 18  1  6
 19 20  2  0
 19 21  1  0
M  END
$$$$
