ADT.pdb
     RDKit          3D

 21 20  0  0  1  0  0  0  0  0999 V2000
   20.4570  -11.7284  -16.4462 C   0  0  0  0  0  0  0  0  0  0  0  0
   20.3850  -10.4703  -17.2418 C   0  0  2  0  0  0  0  0  0  0  0  0
   21.5208  -10.3618  -18.1299 N   0  0  0  0  0  0  0  0  0  0  0  0
   20.2872   -9.2815  -16.3527 C   0  0  0  0  0  0  0  0  0  0  0  0
   19.3043   -9.1946  -15.5818 O   0  0  0  0  0  0  0  0  0  0  0  0
   21.2591   -8.2691  -16.3602 N   0  0  0  0  0  0  0  0  0  0  0  0
   21.1339   -7.0230  -15.6363 C   0  0  1  0  0  0  0  0  0  0  0  0
   22.0051   -6.9835  -14.4195 C   0  0  0  0  0  0  0  0  0  0  0  0
   21.9275   -5.7739  -13.6264 C   0  0  0  0  0  0  0  0  0  0  0  0
   20.9158   -5.4816  -12.9649 O   0  0  0  0  0  0  0  0  0  0  0  0
   21.3181   -5.9060  -16.5528 C   0  0  0  0  0  0  0  0  0  0  0  0
   22.3337   -5.7273  -17.2792 O   0  0  0  0  0  0  0  0  0  0  0  0
   22.9971   -4.8939  -13.5817 O   0  0  0  0  0  0  0  0  0  0  0  0
   19.2584   -5.0565  -19.3676 C   0  0  0  0  0  0  0  0  0  0  0  0
   19.1607   -3.8482  -18.4837 C   0  0  1  0  0  0  0  0  0  0  0  0
   17.9760   -3.9437  -17.7612 O   0  0  0  0  0  0  0  0  0  0  0  0
   20.3363   -3.8080  -17.5620 C   0  0  2  0  0  0  0  0  0  0  0  0
   20.2893   -4.9298  -16.6533 N   0  0  0  0  0  0  0  0  0  0  0  0
   20.4364   -2.5154  -16.8349 C   0  0  0  0  0  0  0  0  0  0  0  0
   20.2975   -2.4876  -15.5921 O   0  0  0  0  0  0  0  0  0  0  0  0
   20.6811   -1.3595  -17.5368 O   0  0  0  0  0  0  0  0  0  0  0  0
  2  1  1  1
  2  4  1  0
  3  2  1  0
  4  5  2  0
  6  7  1  0
  6  4  1  0
  7 11  1  0
  8  9  1  0
  7  8  1  1
  9 10  2  0
 11 18  1  0
 11 12  2  0
 13  9  1  0
 15 14  1  6
 15 17  1  0
 16 15  1  0
 17 19  1  0
 17 18  1  1
 19 20  2  0
 19 21  1  0
M  END
$$$$
