VLQ.pdb
     RDKit          3D

 25 24  0  0  1  0  0  0  0  0999 V2000
    7.0943  -17.7271   21.8563 C   0  0  0  0  0  0  0  0  0  0  0  0
    8.0157  -17.3034   20.7381 C   0  0  1  0  0  0  0  0  0  0  0  0
    7.6610  -17.9305   19.4293 C   0  0  0  0  0  0  0  0  0  0  0  0
    8.0726  -15.8036   20.6842 C   0  0  2  0  0  0  0  0  0  0  0  0
    8.8778  -15.3358   19.5951 N   0  0  0  0  0  0  0  0  0  0  0  0
    8.5529  -15.2847   22.0008 C   0  0  0  0  0  0  0  0  0  0  0  0
    9.7723  -15.2610   22.2563 O   0  0  0  0  0  0  0  0  0  0  0  0
    8.2349  -11.8469   26.2600 C   0  0  0  0  0  0  0  0  0  0  0  0
    7.1861  -13.0013   26.2451 C   0  0  1  0  0  0  0  0  0  0  0  0
    5.9330  -12.3614   26.8400 C   0  0  0  0  0  0  0  0  0  0  0  0
    7.0424  -13.4759   24.8524 C   0  0  0  0  0  0  0  0  0  0  0  0
    8.1626  -14.2423   24.2882 C   0  0  2  0  0  0  0  0  0  0  0  0
    7.6470  -14.8166   22.9702 N   0  0  0  0  0  0  0  0  0  0  0  0
    8.5891  -15.4291   25.0101 C   0  0  0  0  0  0  0  0  0  0  0  0
    7.7282  -16.3831   25.1488 O   0  0  0  0  0  0  0  0  0  0  0  0
   13.4310  -17.8308   23.8494 N   0  0  0  0  0  0  0  0  0  0  0  0
   12.1719  -18.1351   23.2761 C   0  0  0  0  0  0  0  0  0  0  0  0
   12.0198  -18.4078   22.0813 O   0  0  0  0  0  0  0  0  0  0  0  0
   10.9494  -18.1248   24.1784 C   0  0  0  0  0  0  0  0  0  0  0  0
   11.3293  -17.6450   25.5452 C   0  0  0  0  0  0  0  0  0  0  0  0
   10.1458  -16.9996   26.2208 C   0  0  2  0  0  0  0  0  0  0  0  0
    9.8440  -15.7217   25.5921 N   0  0  0  0  0  0  0  0  0  0  0  0
   10.2985  -16.9889   27.6551 C   0  0  0  0  0  0  0  0  0  0  0  0
   10.1304  -15.9105   28.5116 O   0  0  0  0  0  0  0  0  0  0  0  0
   10.6292  -18.0779   28.2479 O   0  0  0  0  0  0  0  0  0  0  0  0
  2  1  1  1
  2  3  1  0
  4  2  1  0
  4  5  1  6
  6  4  1  0
  6  7  2  0
  9 11  1  0
  9  8  1  6
 10  9  1  0
 12 11  1  1
 12 13  1  0
 13  6  1  0
 14 12  1  0
 15 14  2  0
 17 16  1  0
 17 18  2  0
 19 20  1  0
 19 17  1  0
 21 20  1  6
 21 23  1  0
 21 22  1  0
 22 14  1  0
 23 24  1  0
 25 23  2  0
M  END
$$$$
