VLQ.pdb
     RDKit          3D

 25 24  0  0  1  0  0  0  0  0999 V2000
    8.8926  -12.5577   20.3104 C   0  0  0  0  0  0  0  0  0  0  0  0
    7.6160  -13.3552   20.4250 C   0  0  1  0  0  0  0  0  0  0  0  0
    6.8855  -13.4644   19.1263 C   0  0  0  0  0  0  0  0  0  0  0  0
    7.9174  -14.6858   21.0528 C   0  0  2  0  0  0  0  0  0  0  0  0
    6.7878  -15.5666   21.0125 N   0  0  0  0  0  0  0  0  0  0  0  0
    8.4105  -14.4685   22.4466 C   0  0  0  0  0  0  0  0  0  0  0  0
    9.5378  -13.9743   22.6411 O   0  0  0  0  0  0  0  0  0  0  0  0
    5.2869  -13.0463   26.8909 C   0  0  0  0  0  0  0  0  0  0  0  0
    6.5237  -13.0541   25.9408 C   0  0  1  0  0  0  0  0  0  0  0  0
    7.4918  -12.0709   26.5965 C   0  0  0  0  0  0  0  0  0  0  0  0
    7.0192  -14.4432   25.8400 C   0  0  0  0  0  0  0  0  0  0  0  0
    8.1820  -14.6771   24.9716 C   0  0  2  0  0  0  0  0  0  0  0  0
    7.6201  -14.8141   23.5580 N   0  0  0  0  0  0  0  0  0  0  0  0
    8.9078  -15.9231   25.1504 C   0  0  0  0  0  0  0  0  0  0  0  0
    8.2754  -17.0219   24.8989 O   0  0  0  0  0  0  0  0  0  0  0  0
   13.5301  -18.6514   22.8458 N   0  0  0  0  0  0  0  0  0  0  0  0
   12.9910  -19.5078   23.8370 C   0  0  0  0  0  0  0  0  0  0  0  0
   12.7316  -20.6982   23.6354 O   0  0  0  0  0  0  0  0  0  0  0  0
   12.7193  -18.9304   25.2160 C   0  0  0  0  0  0  0  0  0  0  0  0
   12.1673  -17.5442   25.0879 C   0  0  0  0  0  0  0  0  0  0  0  0
   10.8169  -17.4553   25.7529 C   0  0  2  0  0  0  0  0  0  0  0  0
   10.2463  -16.1307   25.5558 N   0  0  0  0  0  0  0  0  0  0  0  0
   10.8653  -17.9375   27.1116 C   0  0  0  0  0  0  0  0  0  0  0  0
   10.5372  -17.2396   28.2647 O   0  0  0  0  0  0  0  0  0  0  0  0
   11.2525  -19.1423   27.3246 O   0  0  0  0  0  0  0  0  0  0  0  0
  2  1  1  6
  2  3  1  0
  4  2  1  0
  4  5  1  1
  6  4  1  0
  6  7  2  0
  9 11  1  0
  9  8  1  1
 10  9  1  0
 12 11  1  1
 12 13  1  0
 13  6  1  0
 14 12  1  0
 15 14  2  0
 17 16  1  0
 17 18  2  0
 19 20  1  0
 19 17  1  0
 21 20  1  1
 21 23  1  0
 21 22  1  0
 22 14  1  0
 23 24  1  0
 25 23  2  0
M  END
$$$$
