VLQ.pdb
     RDKit          3D

 25 24  0  0  1  0  0  0  0  0999 V2000
    8.7704  -14.2481   20.3410 C   0  0  0  0  0  0  0  0  0  0  0  0
    7.5645  -14.8649   21.0072 C   0  0  1  0  0  0  0  0  0  0  0  0
    6.5999  -15.4495   20.0274 C   0  0  0  0  0  0  0  0  0  0  0  0
    8.0211  -15.8441   22.0504 C   0  0  2  0  0  0  0  0  0  0  0  0
    6.9418  -16.6504   22.5388 N   0  0  0  0  0  0  0  0  0  0  0  0
    8.7096  -15.1021   23.1497 C   0  0  0  0  0  0  0  0  0  0  0  0
    9.8358  -14.6041   22.9581 O   0  0  0  0  0  0  0  0  0  0  0  0
    5.8102  -12.2441   26.8293 C   0  0  0  0  0  0  0  0  0  0  0  0
    6.9087  -12.6149   25.7861 C   0  0  1  0  0  0  0  0  0  0  0  0
    7.5918  -11.2813   25.4881 C   0  0  0  0  0  0  0  0  0  0  0  0
    7.7850  -13.6439   26.3849 C   0  0  0  0  0  0  0  0  0  0  0  0
    8.8377  -14.2071   25.5275 C   0  0  2  0  0  0  0  0  0  0  0  0
    8.1068  -14.9515   24.4120 N   0  0  0  0  0  0  0  0  0  0  0  0
    9.6838  -15.2397   26.1014 C   0  0  0  0  0  0  0  0  0  0  0  0
   10.3605  -14.9349   27.1596 O   0  0  0  0  0  0  0  0  0  0  0  0
    8.9655  -21.0748   27.5089 N   0  0  0  0  0  0  0  0  0  0  0  0
   10.3349  -20.9443   27.8471 C   0  0  0  0  0  0  0  0  0  0  0  0
   10.9778  -21.8283   28.4218 O   0  0  0  0  0  0  0  0  0  0  0  0
   11.0456  -19.6514   27.4835 C   0  0  0  0  0  0  0  0  0  0  0  0
   10.0892  -18.7169   26.8092 C   0  0  0  0  0  0  0  0  0  0  0  0
   10.8121  -17.4821   26.3334 C   0  0  2  0  0  0  0  0  0  0  0  0
    9.8798  -16.5750   25.6799 N   0  0  0  0  0  0  0  0  0  0  0  0
   12.0033  -17.8205   25.5936 C   0  0  0  0  0  0  0  0  0  0  0  0
   13.1619  -18.4043   26.0849 O   0  0  0  0  0  0  0  0  0  0  0  0
   12.0404  -17.5679   24.3360 O   0  0  0  0  0  0  0  0  0  0  0  0
  2  1  1  6
  2  3  1  0
  4  2  1  0
  4  5  1  1
  6  4  1  0
  6  7  2  0
  9 11  1  0
  9  8  1  1
 10  9  1  0
 12 11  1  1
 12 13  1  0
 13  6  1  0
 14 12  1  0
 15 14  2  0
 17 16  1  0
 17 18  2  0
 19 20  1  0
 19 17  1  0
 21 20  1  6
 21 23  1  0
 21 22  1  0
 22 14  1  0
 23 24  1  0
 25 23  2  0
M  END
$$$$
