VLQ.pdb
     RDKit          3D

 25 24  0  0  1  0  0  0  0  0999 V2000
    7.7822  -15.0501   19.3455 C   0  0  0  0  0  0  0  0  0  0  0  0
    8.1909  -14.6432   20.7406 C   0  0  1  0  0  0  0  0  0  0  0  0
    7.3622  -13.5238   21.2811 C   0  0  0  0  0  0  0  0  0  0  0  0
    8.2051  -15.8558   21.6265 C   0  0  2  0  0  0  0  0  0  0  0  0
    6.9112  -16.4637   21.7251 N   0  0  0  0  0  0  0  0  0  0  0  0
    8.7510  -15.4772   22.9651 C   0  0  0  0  0  0  0  0  0  0  0  0
    9.9529  -15.1712   23.0864 O   0  0  0  0  0  0  0  0  0  0  0  0
    5.9005  -12.2946   26.4987 C   0  0  0  0  0  0  0  0  0  0  0  0
    7.1043  -12.8403   25.6706 C   0  0  1  0  0  0  0  0  0  0  0  0
    8.2386  -11.8700   25.9958 C   0  0  0  0  0  0  0  0  0  0  0  0
    7.3464  -14.2409   26.0769 C   0  0  0  0  0  0  0  0  0  0  0  0
    8.4700  -14.9385   25.4354 C   0  0  2  0  0  0  0  0  0  0  0  0
    7.9275  -15.4585   24.1057 N   0  0  0  0  0  0  0  0  0  0  0  0
    8.9583  -16.1472   26.0772 C   0  0  0  0  0  0  0  0  0  0  0  0
    8.1019  -17.0882   26.3047 O   0  0  0  0  0  0  0  0  0  0  0  0
   14.1279  -19.0046   25.2555 N   0  0  0  0  0  0  0  0  0  0  0  0
   13.0009  -18.8391   24.4134 C   0  0  0  0  0  0  0  0  0  0  0  0
   13.0457  -18.9768   23.1870 O   0  0  0  0  0  0  0  0  0  0  0  0
   11.6721  -18.4741   25.0536 C   0  0  0  0  0  0  0  0  0  0  0  0
   11.8439  -18.3254   26.5338 C   0  0  0  0  0  0  0  0  0  0  0  0
   10.6011  -17.7317   27.1477 C   0  0  2  0  0  0  0  0  0  0  0  0
   10.2694  -16.4743   26.4934 N   0  0  0  0  0  0  0  0  0  0  0  0
   10.6861  -17.7031   28.5874 C   0  0  0  0  0  0  0  0  0  0  0  0
   10.8881  -18.7783   29.4404 O   0  0  0  0  0  0  0  0  0  0  0  0
   10.5637  -16.5765   29.1898 O   0  0  0  0  0  0  0  0  0  0  0  0
  2  1  1  6
  2  3  1  0
  4  2  1  0
  4  5  1  1
  6  4  1  0
  6  7  2  0
  9 11  1  0
  9  8  1  1
 10  9  1  0
 12 11  1  1
 12 13  1  0
 13  6  1  0
 14 12  1  0
 15 14  2  0
 17 16  1  0
 17 18  2  0
 19 20  1  0
 19 17  1  0
 21 20  1  6
 21 23  1  0
 21 22  1  0
 22 14  1  0
 23 24  1  0
 25 23  2  0
M  END
$$$$
