VLQ.pdb
     RDKit          3D

 25 24  0  0  1  0  0  0  0  0999 V2000
    6.8097  -17.5667   21.7118 C   0  0  0  0  0  0  0  0  0  0  0  0
    7.4052  -16.7926   20.5607 C   0  0  1  0  0  0  0  0  0  0  0  0
    6.8165  -17.1756   19.2421 C   0  0  0  0  0  0  0  0  0  0  0  0
    7.3109  -15.3221   20.8508 C   0  0  2  0  0  0  0  0  0  0  0  0
    7.8172  -14.5284   19.7705 N   0  0  0  0  0  0  0  0  0  0  0  0
    8.0125  -15.0314   22.1378 C   0  0  0  0  0  0  0  0  0  0  0  0
    9.2546  -14.9355   22.1651 O   0  0  0  0  0  0  0  0  0  0  0  0
    5.7534  -12.0948   26.5885 C   0  0  0  0  0  0  0  0  0  0  0  0
    6.8214  -12.4610   25.5125 C   0  0  1  0  0  0  0  0  0  0  0  0
    8.0554  -11.6687   25.9409 C   0  0  0  0  0  0  0  0  0  0  0  0
    6.9924  -13.9294   25.5132 C   0  0  0  0  0  0  0  0  0  0  0  0
    8.0217  -14.4832   24.6219 C   0  0  2  0  0  0  0  0  0  0  0  0
    7.2922  -14.8616   23.3345 N   0  0  0  0  0  0  0  0  0  0  0  0
    8.6433  -15.7354   25.0182 C   0  0  0  0  0  0  0  0  0  0  0  0
    7.8734  -16.7642   25.1582 O   0  0  0  0  0  0  0  0  0  0  0  0
   14.1793  -20.5172   24.4192 N   0  0  0  0  0  0  0  0  0  0  0  0
   13.5696  -19.2426   24.3178 C   0  0  0  0  0  0  0  0  0  0  0  0
   14.0509  -18.3117   23.6646 O   0  0  0  0  0  0  0  0  0  0  0  0
   12.2584  -19.0121   25.0501 C   0  0  0  0  0  0  0  0  0  0  0  0
   11.7404  -17.6399   24.7474 C   0  0  0  0  0  0  0  0  0  0  0  0
   10.4941  -17.3625   25.5496 C   0  0  2  0  0  0  0  0  0  0  0  0
   10.0052  -16.0202   25.2695 N   0  0  0  0  0  0  0  0  0  0  0  0
   10.6751  -17.7024   26.9398 C   0  0  0  0  0  0  0  0  0  0  0  0
   10.8952  -18.9625   27.4765 O   0  0  0  0  0  0  0  0  0  0  0  0
   10.6326  -16.7642   27.8143 O   0  0  0  0  0  0  0  0  0  0  0  0
  2  1  1  1
  2  3  1  0
  4  2  1  0
  4  5  1  6
  6  4  1  0
  6  7  2  0
  9 11  1  0
  9  8  1  1
 10  9  1  0
 12 11  1  1
 12 13  1  0
 13  6  1  0
 14 12  1  0
 15 14  2  0
 17 16  1  0
 17 18  2  0
 19 20  1  0
 19 17  1  0
 21 20  1  6
 21 23  1  0
 21 22  1  0
 22 14  1  0
 23 24  1  0
 25 23  2  0
M  END
$$$$
