VLQ.pdb
     RDKit          3D

 25 24  0  0  1  0  0  0  0  0999 V2000
    7.7881  -18.4823   23.3262 C   0  0  0  0  0  0  0  0  0  0  0  0
    8.1651  -18.1287   21.9080 C   0  0  1  0  0  0  0  0  0  0  0  0
    7.8883  -19.2361   20.9441 C   0  0  0  0  0  0  0  0  0  0  0  0
    7.5095  -16.8315   21.5295 C   0  0  2  0  0  0  0  0  0  0  0  0
    7.6950  -16.5209   20.1430 N   0  0  0  0  0  0  0  0  0  0  0  0
    8.0206  -15.7467   22.4212 C   0  0  0  0  0  0  0  0  0  0  0  0
    9.1242  -15.2158   22.1906 O   0  0  0  0  0  0  0  0  0  0  0  0
    7.4520  -11.4245   25.6863 C   0  0  0  0  0  0  0  0  0  0  0  0
    6.9782  -12.7716   26.3136 C   0  0  1  0  0  0  0  0  0  0  0  0
    5.7669  -12.3742   27.1553 C   0  0  0  0  0  0  0  0  0  0  0  0
    6.6901  -13.7165   25.2138 C   0  0  0  0  0  0  0  0  0  0  0  0
    7.8400  -14.2351   24.4593 C   0  0  2  0  0  0  0  0  0  0  0  0
    7.2739  -15.3063   23.5293 N   0  0  0  0  0  0  0  0  0  0  0  0
    8.8541  -14.9611   25.2049 C   0  0  0  0  0  0  0  0  0  0  0  0
    9.5547  -14.2938   26.0619 O   0  0  0  0  0  0  0  0  0  0  0  0
    8.3430  -19.5716   28.7919 N   0  0  0  0  0  0  0  0  0  0  0  0
    9.7197  -19.3133   29.0032 C   0  0  0  0  0  0  0  0  0  0  0  0
   10.3662  -19.8050   29.9333 O   0  0  0  0  0  0  0  0  0  0  0  0
   10.4340  -18.3846   28.0356 C   0  0  0  0  0  0  0  0  0  0  0  0
    9.4549  -17.8253   27.0500 C   0  0  0  0  0  0  0  0  0  0  0  0
   10.1624  -16.9418   26.0537 C   0  0  2  0  0  0  0  0  0  0  0  0
    9.1979  -16.3315   25.1502 N   0  0  0  0  0  0  0  0  0  0  0  0
   11.2743  -17.6251   25.4391 C   0  0  0  0  0  0  0  0  0  0  0  0
   12.5369  -17.8304   25.9759 O   0  0  0  0  0  0  0  0  0  0  0  0
   11.1238  -18.1117   24.2613 O   0  0  0  0  0  0  0  0  0  0  0  0
  2  1  1  1
  2  3  1  0
  4  2  1  0
  4  5  1  6
  6  4  1  0
  6  7  2  0
  9 11  1  0
  9  8  1  6
 10  9  1  0
 12 11  1  1
 12 13  1  0
 13  6  1  0
 14 12  1  0
 15 14  2  0
 17 16  1  0
 17 18  2  0
 19 20  1  0
 19 17  1  0
 21 20  1  6
 21 23  1  0
 21 22  1  0
 22 14  1  0
 23 24  1  0
 25 23  2  0
M  END
$$$$
