VLQ.pdb
     RDKit          3D

 25 24  0  0  1  0  0  0  0  0999 V2000
    6.2986  -16.9265   20.0217 C   0  0  0  0  0  0  0  0  0  0  0  0
    7.1840  -16.6204   21.2054 C   0  0  1  0  0  0  0  0  0  0  0  0
    8.4044  -17.4809   21.2508 C   0  0  0  0  0  0  0  0  0  0  0  0
    7.4903  -15.1503   21.2283 C   0  0  2  0  0  0  0  0  0  0  0  0
    8.2769  -14.7482   20.1001 N   0  0  0  0  0  0  0  0  0  0  0  0
    8.1514  -14.8085   22.5242 C   0  0  0  0  0  0  0  0  0  0  0  0
    9.3833  -14.6258   22.5685 O   0  0  0  0  0  0  0  0  0  0  0  0
    5.5616  -12.0820   26.6956 C   0  0  0  0  0  0  0  0  0  0  0  0
    6.6945  -12.4488   25.6884 C   0  0  1  0  0  0  0  0  0  0  0  0
    7.7851  -11.4188   25.9774 C   0  0  0  0  0  0  0  0  0  0  0  0
    7.0859  -13.8544   25.9262 C   0  0  0  0  0  0  0  0  0  0  0  0
    8.1103  -14.4226   25.0382 C   0  0  2  0  0  0  0  0  0  0  0  0
    7.4041  -14.6871   23.7100 N   0  0  0  0  0  0  0  0  0  0  0  0
    8.6422  -15.7297   25.3846 C   0  0  0  0  0  0  0  0  0  0  0  0
    7.8103  -16.7179   25.4304 O   0  0  0  0  0  0  0  0  0  0  0  0
   13.8886  -18.5169   24.0828 N   0  0  0  0  0  0  0  0  0  0  0  0
   12.7964  -18.1536   23.2570 C   0  0  0  0  0  0  0  0  0  0  0  0
   12.8572  -18.1326   22.0238 O   0  0  0  0  0  0  0  0  0  0  0  0
   11.4860  -17.7713   23.9246 C   0  0  0  0  0  0  0  0  0  0  0  0
   11.6240  -17.8722   25.4123 C   0  0  0  0  0  0  0  0  0  0  0  0
   10.3413  -17.4548   26.0862 C   0  0  2  0  0  0  0  0  0  0  0  0
    9.9732  -16.1077   25.6750 N   0  0  0  0  0  0  0  0  0  0  0  0
   10.3870  -17.7022   27.5066 C   0  0  0  0  0  0  0  0  0  0  0  0
   10.5611  -18.9223   28.1434 O   0  0  0  0  0  0  0  0  0  0  0  0
   10.2531  -16.7102   28.3096 O   0  0  0  0  0  0  0  0  0  0  0  0
  2  1  1  6
  2  3  1  0
  4  2  1  0
  4  5  1  6
  6  4  1  0
  6  7  2  0
  9 11  1  0
  9  8  1  1
 10  9  1  0
 12 11  1  1
 12 13  1  0
 13  6  1  0
 14 12  1  0
 15 14  2  0
 17 16  1  0
 17 18  2  0
 19 20  1  0
 19 17  1  0
 21 20  1  1
 21 23  1  0
 21 22  1  0
 22 14  1  0
 23 24  1  0
 25 23  2  0
M  END
$$$$
