VLQ.pdb
     RDKit          3D

 25 24  0  0  1  0  0  0  0  0999 V2000
    8.9129  -12.4571   20.3347 C   0  0  0  0  0  0  0  0  0  0  0  0
    7.6600  -13.2941   20.4264 C   0  0  1  0  0  0  0  0  0  0  0  0
    6.9157  -13.3623   19.1328 C   0  0  0  0  0  0  0  0  0  0  0  0
    8.0056  -14.6440   20.9869 C   0  0  2  0  0  0  0  0  0  0  0  0
    6.9000  -15.5529   20.9179 N   0  0  0  0  0  0  0  0  0  0  0  0
    8.5105  -14.4790   22.3837 C   0  0  0  0  0  0  0  0  0  0  0  0
    9.6875  -14.1228   22.5851 O   0  0  0  0  0  0  0  0  0  0  0  0
    5.5135  -12.4476   26.6118 C   0  0  0  0  0  0  0  0  0  0  0  0
    6.7283  -12.6910   25.6644 C   0  0  1  0  0  0  0  0  0  0  0  0
    7.7998  -11.7407   26.1959 C   0  0  0  0  0  0  0  0  0  0  0  0
    7.0812  -14.1252   25.7260 C   0  0  0  0  0  0  0  0  0  0  0  0
    8.2198  -14.5694   24.9093 C   0  0  2  0  0  0  0  0  0  0  0  0
    7.6756  -14.7200   23.4902 N   0  0  0  0  0  0  0  0  0  0  0  0
    8.7644  -15.8879   25.1855 C   0  0  0  0  0  0  0  0  0  0  0  0
    8.0105  -16.9077   24.9359 O   0  0  0  0  0  0  0  0  0  0  0  0
   13.6978  -18.7784   23.5319 N   0  0  0  0  0  0  0  0  0  0  0  0
   13.1215  -19.7999   24.3263 C   0  0  0  0  0  0  0  0  0  0  0  0
   13.5360  -20.9631   24.3391 O   0  0  0  0  0  0  0  0  0  0  0  0
   11.9344  -19.4439   25.2054 C   0  0  0  0  0  0  0  0  0  0  0  0
   11.5960  -17.9943   25.0416 C   0  0  0  0  0  0  0  0  0  0  0  0
   10.4337  -17.6250   25.9283 C   0  0  2  0  0  0  0  0  0  0  0  0
   10.0370  -16.2452   25.6875 N   0  0  0  0  0  0  0  0  0  0  0  0
   10.6806  -17.9913   27.3015 C   0  0  0  0  0  0  0  0  0  0  0  0
   10.6950  -17.1532   28.4068 O   0  0  0  0  0  0  0  0  0  0  0  0
   10.9215  -19.2212   27.5775 O   0  0  0  0  0  0  0  0  0  0  0  0
  2  1  1  6
  2  3  1  0
  4  2  1  0
  4  5  1  1
  6  4  1  0
  6  7  2  0
  9 11  1  0
  9  8  1  1
 10  9  1  0
 12 11  1  1
 12 13  1  0
 13  6  1  0
 14 12  1  0
 15 14  2  0
 17 16  1  0
 17 18  2  0
 19 20  1  0
 19 17  1  0
 21 20  1  6
 21 23  1  0
 21 22  1  0
 22 14  1  0
 23 24  1  0
 25 23  2  0
M  END
$$$$
