VLQ.pdb
     RDKit          3D

 25 24  0  0  1  0  0  0  0  0999 V2000
    7.1045  -17.5788   22.0201 C   0  0  0  0  0  0  0  0  0  0  0  0
    8.0264  -16.9389   21.0105 C   0  0  1  0  0  0  0  0  0  0  0  0
    7.7393  -17.3734   19.6102 C   0  0  0  0  0  0  0  0  0  0  0  0
    7.9989  -15.4480   21.1892 C   0  0  2  0  0  0  0  0  0  0  0  0
    8.8030  -14.7753   20.2123 N   0  0  0  0  0  0  0  0  0  0  0  0
    8.4157  -15.1149   22.5851 C   0  0  0  0  0  0  0  0  0  0  0  0
    9.6185  -15.1642   22.9071 O   0  0  0  0  0  0  0  0  0  0  0  0
    5.5828  -11.6684   26.2216 C   0  0  0  0  0  0  0  0  0  0  0  0
    6.8094  -12.2464   25.4509 C   0  0  1  0  0  0  0  0  0  0  0  0
    8.0044  -11.5371   26.0855 C   0  0  0  0  0  0  0  0  0  0  0  0
    6.8019  -13.7163   25.6076 C   0  0  0  0  0  0  0  0  0  0  0  0
    7.9093  -14.4603   24.9906 C   0  0  2  0  0  0  0  0  0  0  0  0
    7.4679  -14.7422   23.5559 N   0  0  0  0  0  0  0  0  0  0  0  0
    8.1892  -15.7893   25.5071 C   0  0  0  0  0  0  0  0  0  0  0  0
    7.6253  -16.7896   24.9137 O   0  0  0  0  0  0  0  0  0  0  0  0
   12.1984  -17.8246   23.1738 N   0  0  0  0  0  0  0  0  0  0  0  0
   12.2142  -18.9169   24.0756 C   0  0  0  0  0  0  0  0  0  0  0  0
   12.8825  -19.9386   23.8902 O   0  0  0  0  0  0  0  0  0  0  0  0
   11.3658  -18.8241   25.3327 C   0  0  0  0  0  0  0  0  0  0  0  0
   10.5665  -17.5578   25.3153 C   0  0  0  0  0  0  0  0  0  0  0  0
    9.7759  -17.4205   26.5919 C   0  0  2  0  0  0  0  0  0  0  0  0
    9.0205  -16.1761   26.5834 N   0  0  0  0  0  0  0  0  0  0  0  0
   10.5996  -17.6631   27.7510 C   0  0  0  0  0  0  0  0  0  0  0  0
   11.1345  -16.7197   28.6161 O   0  0  0  0  0  0  0  0  0  0  0  0
   10.8988  -18.8742   28.0519 O   0  0  0  0  0  0  0  0  0  0  0  0
  2  1  1  1
  2  3  1  0
  4  2  1  0
  4  5  1  6
  6  4  1  0
  6  7  2  0
  9 11  1  0
  9  8  1  1
 10  9  1  0
 12 11  1  1
 12 13  1  0
 13  6  1  0
 14 12  1  0
 15 14  2  0
 17 16  1  0
 17 18  2  0
 19 20  1  0
 19 17  1  0
 21 20  1  6
 21 23  1  0
 21 22  1  0
 22 14  1  0
 23 24  1  0
 25 23  2  0
M  END
$$$$
