VLQ.pdb
     RDKit          3D

 25 24  0  0  1  0  0  0  0  0999 V2000
    8.0598  -15.2734   19.2352 C   0  0  0  0  0  0  0  0  0  0  0  0
    8.2557  -14.6136   20.5787 C   0  0  1  0  0  0  0  0  0  0  0  0
    7.2049  -13.5952   20.8801 C   0  0  0  0  0  0  0  0  0  0  0  0
    8.3809  -15.6718   21.6371 C   0  0  2  0  0  0  0  0  0  0  0  0
    7.2088  -16.4923   21.7170 N   0  0  0  0  0  0  0  0  0  0  0  0
    8.7009  -15.0212   22.9438 C   0  0  0  0  0  0  0  0  0  0  0  0
    9.7628  -14.3837   23.0813 O   0  0  0  0  0  0  0  0  0  0  0  0
    5.0310  -12.6491   26.4381 C   0  0  0  0  0  0  0  0  0  0  0  0
    6.3728  -12.8305   25.6639 C   0  0  1  0  0  0  0  0  0  0  0  0
    7.2034  -11.6205   26.0881 C   0  0  0  0  0  0  0  0  0  0  0  0
    6.9462  -14.1413   26.0356 C   0  0  0  0  0  0  0  0  0  0  0  0
    8.2096  -14.5258   25.3901 C   0  0  2  0  0  0  0  0  0  0  0  0
    7.8186  -15.1138   24.0358 N   0  0  0  0  0  0  0  0  0  0  0  0
    8.9692  -15.6036   26.0005 C   0  0  0  0  0  0  0  0  0  0  0  0
    8.3844  -16.7499   26.1214 O   0  0  0  0  0  0  0  0  0  0  0  0
   14.7384  -17.2931   25.5476 N   0  0  0  0  0  0  0  0  0  0  0  0
   13.7429  -16.8529   24.6410 C   0  0  0  0  0  0  0  0  0  0  0  0
   13.9697  -16.6091   23.4519 O   0  0  0  0  0  0  0  0  0  0  0  0
   12.3263  -16.6725   25.1603 C   0  0  0  0  0  0  0  0  0  0  0  0
   12.2709  -17.0131   26.6176 C   0  0  0  0  0  0  0  0  0  0  0  0
   10.8926  -16.7426   27.1660 C   0  0  2  0  0  0  0  0  0  0  0  0
   10.2969  -15.6013   26.4866 N   0  0  0  0  0  0  0  0  0  0  0  0
   10.8978  -16.7000   28.6079 C   0  0  0  0  0  0  0  0  0  0  0  0
   11.2922  -17.7055   29.4784 O   0  0  0  0  0  0  0  0  0  0  0  0
   10.4976  -15.6310   29.1944 O   0  0  0  0  0  0  0  0  0  0  0  0
  2  1  1  6
  2  3  1  0
  4  2  1  0
  4  5  1  1
  6  4  1  0
  6  7  2  0
  9 11  1  0
  9  8  1  1
 10  9  1  0
 12 11  1  1
 12 13  1  0
 13  6  1  0
 14 12  1  0
 15 14  2  0
 17 16  1  0
 17 18  2  0
 19 20  1  0
 19 17  1  0
 21 20  1  6
 21 23  1  0
 21 22  1  0
 22 14  1  0
 23 24  1  0
 25 23  2  0
M  END
$$$$
