VLQ.pdb
     RDKit          3D

 25 24  0  0  1  0  0  0  0  0999 V2000
    7.5012  -18.1671   22.4463 C   0  0  0  0  0  0  0  0  0  0  0  0
    8.2974  -17.6891   21.2562 C   0  0  1  0  0  0  0  0  0  0  0  0
    8.0302  -18.4903   20.0238 C   0  0  0  0  0  0  0  0  0  0  0  0
    8.0734  -16.2158   21.0693 C   0  0  2  0  0  0  0  0  0  0  0  0
    8.7407  -15.7150   19.9043 N   0  0  0  0  0  0  0  0  0  0  0  0
    8.4932  -15.4960   22.3098 C   0  0  0  0  0  0  0  0  0  0  0  0
    9.6971  -15.2440   22.5094 O   0  0  0  0  0  0  0  0  0  0  0  0
    7.7479  -11.6123   26.0508 C   0  0  0  0  0  0  0  0  0  0  0  0
    6.8805  -12.8909   26.2640 C   0  0  1  0  0  0  0  0  0  0  0  0
    5.5589  -12.3474   26.8041 C   0  0  0  0  0  0  0  0  0  0  0  0
    6.7806  -13.6014   24.9715 C   0  0  0  0  0  0  0  0  0  0  0  0
    7.9882  -14.2877   24.4907 C   0  0  2  0  0  0  0  0  0  0  0  0
    7.5470  -15.0917   23.2693 N   0  0  0  0  0  0  0  0  0  0  0  0
    8.5649  -15.3051   25.3531 C   0  0  0  0  0  0  0  0  0  0  0  0
    7.8229  -16.3191   25.6563 O   0  0  0  0  0  0  0  0  0  0  0  0
   13.6958  -18.3250   24.9370 N   0  0  0  0  0  0  0  0  0  0  0  0
   12.4370  -18.7704   24.4640 C   0  0  0  0  0  0  0  0  0  0  0  0
   12.3084  -19.6349   23.5917 O   0  0  0  0  0  0  0  0  0  0  0  0
   11.1842  -18.1519   25.0615 C   0  0  0  0  0  0  0  0  0  0  0  0
   11.5614  -17.0997   26.0581 C   0  0  0  0  0  0  0  0  0  0  0  0
   10.3257  -16.5134   26.6929 C   0  0  2  0  0  0  0  0  0  0  0  0
    9.8582  -15.3713   25.9207 N   0  0  0  0  0  0  0  0  0  0  0  0
   10.5104  -16.2993   28.1075 C   0  0  0  0  0  0  0  0  0  0  0  0
   10.6443  -17.2648   29.0946 O   0  0  0  0  0  0  0  0  0  0  0  0
   10.5596  -15.0947   28.5473 O   0  0  0  0  0  0  0  0  0  0  0  0
  2  1  1  1
  2  3  1  0
  4  2  1  0
  4  5  1  6
  6  4  1  0
  6  7  2  0
  9 11  1  0
  9  8  1  6
 10  9  1  0
 12 11  1  1
 12 13  1  0
 13  6  1  0
 14 12  1  0
 15 14  2  0
 17 16  1  0
 17 18  2  0
 19 20  1  0
 19 17  1  0
 21 20  1  6
 21 23  1  0
 21 22  1  0
 22 14  1  0
 23 24  1  0
 25 23  2  0
M  END
$$$$
