VLQ.pdb
     RDKit          3D

 25 24  0  0  1  0  0  0  0  0999 V2000
    7.3192  -18.1008   22.1946 C   0  0  0  0  0  0  0  0  0  0  0  0
    8.2404  -17.6353   21.0930 C   0  0  1  0  0  0  0  0  0  0  0  0
    8.0086  -18.3550   19.8044 C   0  0  0  0  0  0  0  0  0  0  0  0
    8.1468  -16.1417   20.9664 C   0  0  2  0  0  0  0  0  0  0  0  0
    8.9063  -15.6485   19.8560 N   0  0  0  0  0  0  0  0  0  0  0  0
    8.5660  -15.5144   22.2563 C   0  0  0  0  0  0  0  0  0  0  0  0
    9.7750  -15.3425   22.5041 O   0  0  0  0  0  0  0  0  0  0  0  0
    7.8566  -11.7471   26.1560 C   0  0  0  0  0  0  0  0  0  0  0  0
    6.9312  -12.9983   26.2600 C   0  0  1  0  0  0  0  0  0  0  0  0
    5.6109  -12.4316   26.7790 C   0  0  0  0  0  0  0  0  0  0  0  0
    6.8569  -13.6293   24.9252 C   0  0  0  0  0  0  0  0  0  0  0  0
    8.0530  -14.3429   24.4554 C   0  0  2  0  0  0  0  0  0  0  0  0
    7.6135  -15.1085   23.2090 N   0  0  0  0  0  0  0  0  0  0  0  0
    8.5802  -15.3944   25.3085 C   0  0  0  0  0  0  0  0  0  0  0  0
    7.7826  -16.3615   25.6235 O   0  0  0  0  0  0  0  0  0  0  0  0
   13.6428  -17.5465   24.4270 N   0  0  0  0  0  0  0  0  0  0  0  0
   12.4114  -17.8512   23.7966 C   0  0  0  0  0  0  0  0  0  0  0  0
   12.3168  -18.1429   22.6004 O   0  0  0  0  0  0  0  0  0  0  0  0
   11.1455  -17.8165   24.6364 C   0  0  0  0  0  0  0  0  0  0  0  0
   11.4695  -17.3669   26.0276 C   0  0  0  0  0  0  0  0  0  0  0  0
   10.2738  -16.6922   26.6511 C   0  0  2  0  0  0  0  0  0  0  0  0
    9.8759  -15.5400   25.8554 N   0  0  0  0  0  0  0  0  0  0  0  0
   10.4747  -16.4601   28.0606 C   0  0  0  0  0  0  0  0  0  0  0  0
   10.7610  -17.4034   29.0367 O   0  0  0  0  0  0  0  0  0  0  0  0
   10.3850  -15.2602   28.5066 O   0  0  0  0  0  0  0  0  0  0  0  0
  2  1  1  1
  2  3  1  0
  4  2  1  0
  4  5  1  6
  6  4  1  0
  6  7  2  0
  9 11  1  0
  9  8  1  6
 10  9  1  0
 12 11  1  1
 12 13  1  0
 13  6  1  0
 14 12  1  0
 15 14  2  0
 17 16  1  0
 17 18  2  0
 19 20  1  0
 19 17  1  0
 21 20  1  6
 21 23  1  0
 21 22  1  0
 22 14  1  0
 23 24  1  0
 25 23  2  0
M  END
$$$$
