VLQ.pdb
     RDKit          3D

 25 24  0  0  1  0  0  0  0  0999 V2000
    6.6038  -17.5872   22.3801 C   0  0  0  0  0  0  0  0  0  0  0  0
    6.8225  -16.8614   21.0747 C   0  0  1  0  0  0  0  0  0  0  0  0
    5.9980  -17.4179   19.9599 C   0  0  0  0  0  0  0  0  0  0  0  0
    6.6211  -15.3883   21.2867 C   0  0  2  0  0  0  0  0  0  0  0  0
    6.8446  -14.6377   20.0867 N   0  0  0  0  0  0  0  0  0  0  0  0
    7.4984  -14.9309   22.4067 C   0  0  0  0  0  0  0  0  0  0  0  0
    8.7071  -14.7068   22.2026 O   0  0  0  0  0  0  0  0  0  0  0  0
    5.6193  -11.9346   26.8215 C   0  0  0  0  0  0  0  0  0  0  0  0
    6.4728  -12.3681   25.5901 C   0  0  1  0  0  0  0  0  0  0  0  0
    7.5204  -11.2630   25.4669 C   0  0  0  0  0  0  0  0  0  0  0  0
    7.0174  -13.7161   25.8579 C   0  0  0  0  0  0  0  0  0  0  0  0
    7.9019  -14.2949   24.8365 C   0  0  2  0  0  0  0  0  0  0  0  0
    6.9831  -14.7456   23.7027 N   0  0  0  0  0  0  0  0  0  0  0  0
    8.6087  -15.5168   25.1814 C   0  0  0  0  0  0  0  0  0  0  0  0
    7.9002  -16.5810   25.3716 O   0  0  0  0  0  0  0  0  0  0  0  0
   12.5742  -19.6495   22.3185 N   0  0  0  0  0  0  0  0  0  0  0  0
   13.1010  -19.0500   23.4889 C   0  0  0  0  0  0  0  0  0  0  0  0
   14.2966  -18.7750   23.6297 O   0  0  0  0  0  0  0  0  0  0  0  0
   12.1452  -18.7308   24.6261 C   0  0  0  0  0  0  0  0  0  0  0  0
   11.5351  -17.3796   24.4145 C   0  0  0  0  0  0  0  0  0  0  0  0
   10.5713  -17.0603   25.5293 C   0  0  2  0  0  0  0  0  0  0  0  0
    9.9971  -15.7371   25.3329 N   0  0  0  0  0  0  0  0  0  0  0  0
   11.1554  -17.3209   26.8222 C   0  0  0  0  0  0  0  0  0  0  0  0
   11.3332  -18.5540   27.4325 O   0  0  0  0  0  0  0  0  0  0  0  0
   11.5686  -16.3286   27.5232 O   0  0  0  0  0  0  0  0  0  0  0  0
  2  1  1  1
  2  3  1  0
  4  2  1  0
  4  5  1  6
  6  4  1  0
  6  7  2  0
  9 11  1  0
  9  8  1  1
 10  9  1  0
 12 11  1  1
 12 13  1  0
 13  6  1  0
 14 12  1  0
 15 14  2  0
 17 16  1  0
 17 18  2  0
 19 20  1  0
 19 17  1  0
 21 20  1  6
 21 23  1  0
 21 22  1  0
 22 14  1  0
 23 24  1  0
 25 23  2  0
M  END
$$$$
