VLQ.pdb
     RDKit          3D

 25 24  0  0  1  0  0  0  0  0999 V2000
    7.3533  -17.8141   22.2768 C   0  0  0  0  0  0  0  0  0  0  0  0
    8.1841  -17.3583   21.1018 C   0  0  1  0  0  0  0  0  0  0  0  0
    7.8540  -18.0917   19.8427 C   0  0  0  0  0  0  0  0  0  0  0  0
    8.0768  -15.8663   20.9679 C   0  0  2  0  0  0  0  0  0  0  0  0
    8.7957  -15.3765   19.8292 N   0  0  0  0  0  0  0  0  0  0  0  0
    8.5347  -15.2269   22.2386 C   0  0  0  0  0  0  0  0  0  0  0  0
    9.7524  -15.1122   22.4773 O   0  0  0  0  0  0  0  0  0  0  0  0
    8.0637  -11.6327   26.3588 C   0  0  0  0  0  0  0  0  0  0  0  0
    7.0501  -12.8180   26.3740 C   0  0  1  0  0  0  0  0  0  0  0  0
    5.7716  -12.1957   26.9325 C   0  0  0  0  0  0  0  0  0  0  0  0
    6.9368  -13.3457   24.9977 C   0  0  0  0  0  0  0  0  0  0  0  0
    8.0999  -14.0655   24.4597 C   0  0  2  0  0  0  0  0  0  0  0  0
    7.6097  -14.7458   23.1831 N   0  0  0  0  0  0  0  0  0  0  0  0
    8.6142  -15.1788   25.2392 C   0  0  0  0  0  0  0  0  0  0  0  0
    7.8303  -16.1901   25.4218 O   0  0  0  0  0  0  0  0  0  0  0  0
   13.7355  -18.0565   24.6503 N   0  0  0  0  0  0  0  0  0  0  0  0
   12.5078  -18.6511   24.2683 C   0  0  0  0  0  0  0  0  0  0  0  0
   12.4305  -19.6001   23.4820 O   0  0  0  0  0  0  0  0  0  0  0  0
   11.2236  -18.0911   24.8568 C   0  0  0  0  0  0  0  0  0  0  0  0
   11.5458  -17.1139   25.9449 C   0  0  0  0  0  0  0  0  0  0  0  0
   10.2774  -16.5563   26.5397 C   0  0  2  0  0  0  0  0  0  0  0  0
    9.8845  -15.3431   25.8377 N   0  0  0  0  0  0  0  0  0  0  0  0
   10.3638  -16.4667   27.9769 C   0  0  0  0  0  0  0  0  0  0  0  0
   10.5498  -17.5070   28.8756 O   0  0  0  0  0  0  0  0  0  0  0  0
   10.2594  -15.3134   28.5299 O   0  0  0  0  0  0  0  0  0  0  0  0
  2  1  1  1
  2  3  1  0
  4  2  1  0
  4  5  1  6
  6  4  1  0
  6  7  2  0
  9 11  1  0
  9  8  1  6
 10  9  1  0
 12 11  1  1
 12 13  1  0
 13  6  1  0
 14 12  1  0
 15 14  2  0
 17 16  1  0
 17 18  2  0
 19 20  1  0
 19 17  1  0
 21 20  1  6
 21 23  1  0
 21 22  1  0
 22 14  1  0
 23 24  1  0
 25 23  2  0
M  END
$$$$
