SFN.pdb
     RDKit          3D

 26 26  0  0  1  0  0  0  0  0999 V2000
   25.7211  -21.9898  -19.5880 O   0  0  0  0  0  0  0  0  0  0  0  0
   25.5461  -22.8510  -18.5171 C   0  0  0  0  0  0  0  0  0  0  0  0
   26.7469  -22.7132  -17.5727 C   0  0  2  0  0  0  0  0  0  0  0  0
   27.5287  -23.9193  -17.7365 N   0  0  0  0  0  0  0  0  0  0  0  0
   26.1959  -22.6910  -16.2033 C   0  0  0  0  0  0  0  0  0  0  0  0
   25.6873  -23.7316  -15.7298 O   0  0  0  0  0  0  0  0  0  0  0  0
   26.2002  -21.5461  -15.3616 N   0  0  0  0  0  0  0  0  0  0  0  0
   25.5976  -21.5672  -14.0447 C   0  0  1  0  0  0  0  0  0  0  0  0
   26.2464  -20.5895  -13.1082 C   0  0  0  0  0  0  0  0  0  0  0  0
   25.7386  -20.6194  -11.7471 C   0  0  0  0  0  0  0  0  0  0  0  0
   24.6663  -19.8385  -11.3838 C   0  0  0  0  0  0  0  0  0  0  0  0
   24.1696  -19.8592  -10.0742 C   0  0  0  0  0  0  0  0  0  0  0  0
   24.7762  -20.6781   -9.1537 C   0  0  0  0  0  0  0  0  0  0  0  0
   25.8381  -21.4609   -9.4847 C   0  0  0  0  0  0  0  0  0  0  0  0
   26.3085  -21.4195  -10.7904 C   0  0  0  0  0  0  0  0  0  0  0  0
   24.1336  -21.4416  -14.1556 C   0  0  0  0  0  0  0  0  0  0  0  0
   23.6374  -20.5951  -14.9802 O   0  0  0  0  0  0  0  0  0  0  0  0
   20.8064  -19.2481  -11.0944 N   0  0  0  0  0  0  0  0  0  0  0  0
   20.6764  -20.4246  -11.9086 C   0  0  0  0  0  0  0  0  0  0  0  0
   19.8609  -21.3246  -11.6106 O   0  0  0  0  0  0  0  0  0  0  0  0
   21.5223  -20.5328  -13.0864 C   0  0  0  0  0  0  0  0  0  0  0  0
   21.7413  -21.9725  -13.5698 C   0  0  2  0  0  0  0  0  0  0  0  0
   23.1974  -22.2006  -13.4079 N   0  0  0  0  0  0  0  0  0  0  0  0
   21.4837  -21.9876  -15.0213 C   0  0  0  0  0  0  0  0  0  0  0  0
   22.4285  -21.6982  -15.9873 O   0  0  0  0  0  0  0  0  0  0  0  0
   20.3393  -22.2781  -15.4446 O   0  0  0  0  0  0  0  0  0  0  0  0
  1  2  1  0
  2  3  1  0
  3  5  1  0
  3  4  1  1
  5  6  2  0
  7  8  1  0
  7  5  1  0
  8  9  1  1
  9 10  1  0
 10 15  2  0
 11 12  2  0
 11 10  1  0
 12 13  1  0
 13 14  2  0
 15 14  1  0
 16  8  1  0
 17 16  2  0
 18 19  1  0
 19 20  2  0
 21 19  1  0
 22 21  1  6
 22 23  1  0
 23 16  1  0
 24 25  1  0
 24 22  1  0
 26 24  2  0
M  END
$$$$
