SFN.pdb
     RDKit          3D

 26 26  0  0  1  0  0  0  0  0999 V2000
   25.9593  -20.5986  -17.9050 O   0  0  0  0  0  0  0  0  0  0  0  0
   27.1866  -20.0596  -17.5554 C   0  0  0  0  0  0  0  0  0  0  0  0
   27.9569  -21.0897  -16.7197 C   0  0  2  0  0  0  0  0  0  0  0  0
   28.0505  -22.2810  -17.5351 N   0  0  0  0  0  0  0  0  0  0  0  0
   27.1113  -21.3866  -15.5466 C   0  0  0  0  0  0  0  0  0  0  0  0
   26.4846  -22.4687  -15.5003 O   0  0  0  0  0  0  0  0  0  0  0  0
   26.9520  -20.5121  -14.4379 N   0  0  0  0  0  0  0  0  0  0  0  0
   26.0219  -20.8031  -13.3665 C   0  0  1  0  0  0  0  0  0  0  0  0
   26.3499  -20.0495  -12.1101 C   0  0  0  0  0  0  0  0  0  0  0  0
   25.4652  -20.3179  -10.9891 C   0  0  0  0  0  0  0  0  0  0  0  0
   25.8459  -21.1826   -9.9897 C   0  0  0  0  0  0  0  0  0  0  0  0
   25.0002  -21.4489   -8.9052 C   0  0  0  0  0  0  0  0  0  0  0  0
   23.7767  -20.8272   -8.8572 C   0  0  0  0  0  0  0  0  0  0  0  0
   23.3740  -19.9674   -9.8313 C   0  0  0  0  0  0  0  0  0  0  0  0
   24.2334  -19.7229  -10.8940 C   0  0  0  0  0  0  0  0  0  0  0  0
   24.6361  -20.6434  -13.8415 C   0  0  0  0  0  0  0  0  0  0  0  0
   24.3745  -19.7513  -14.7239 O   0  0  0  0  0  0  0  0  0  0  0  0
   19.6786  -21.3097  -15.0887 N   0  0  0  0  0  0  0  0  0  0  0  0
   20.6716  -22.1823  -15.6513 C   0  0  0  0  0  0  0  0  0  0  0  0
   20.4049  -22.9099  -16.6327 O   0  0  0  0  0  0  0  0  0  0  0  0
   21.9923  -22.1904  -15.0429 C   0  0  0  0  0  0  0  0  0  0  0  0
   22.1712  -21.1591  -13.9211 C   0  0  2  0  0  0  0  0  0  0  0  0
   23.5336  -21.4158  -13.3951 N   0  0  0  0  0  0  0  0  0  0  0  0
   21.2392  -21.5269  -12.8397 C   0  0  0  0  0  0  0  0  0  0  0  0
   20.0039  -20.9413  -12.6376 O   0  0  0  0  0  0  0  0  0  0  0  0
   21.5566  -22.4288  -12.0280 O   0  0  0  0  0  0  0  0  0  0  0  0
  1  2  1  0
  2  3  1  0
  3  5  1  0
  3  4  1  6
  5  6  2  0
  7  8  1  0
  7  5  1  0
  8  9  1  1
  9 10  1  0
 10 15  2  0
 11 12  2  0
 11 10  1  0
 12 13  1  0
 13 14  2  0
 15 14  1  0
 16  8  1  0
 17 16  2  0
 18 19  1  0
 19 20  2  0
 21 19  1  0
 22 21  1  6
 22 23  1  0
 23 16  1  0
 24 25  1  0
 24 22  1  0
 26 24  2  0
M  END
$$$$
