SFN.pdb
     RDKit          3D

 26 26  0  0  1  0  0  0  0  0999 V2000
   27.7257  -37.7424   -6.1504 O   0  0  0  0  0  0  0  0  0  0  0  0
   28.1220  -37.4821   -7.4521 C   0  0  0  0  0  0  0  0  0  0  0  0
   28.8204  -36.1170   -7.4909 C   0  0  2  0  0  0  0  0  0  0  0  0
   29.6014  -36.0295   -6.2764 N   0  0  0  0  0  0  0  0  0  0  0  0
   27.7493  -35.1025   -7.4366 C   0  0  0  0  0  0  0  0  0  0  0  0
   27.3551  -34.6856   -6.3246 O   0  0  0  0  0  0  0  0  0  0  0  0
   27.1164  -34.5504   -8.5829 N   0  0  0  0  0  0  0  0  0  0  0  0
   26.0915  -33.5332   -8.4707 C   0  0  1  0  0  0  0  0  0  0  0  0
   25.9017  -32.7752   -9.7527 C   0  0  0  0  0  0  0  0  0  0  0  0
   24.7825  -31.8486   -9.7537 C   0  0  0  0  0  0  0  0  0  0  0  0
   23.6270  -32.1488  -10.4365 C   0  0  0  0  0  0  0  0  0  0  0  0
   22.5427  -31.2620  -10.4445 C   0  0  0  0  0  0  0  0  0  0  0  0
   22.6545  -30.0802   -9.7542 C   0  0  0  0  0  0  0  0  0  0  0  0
   23.7850  -29.7571   -9.0703 C   0  0  0  0  0  0  0  0  0  0  0  0
   24.8434  -30.6556   -9.0803 C   0  0  0  0  0  0  0  0  0  0  0  0
   24.8608  -34.1145   -7.9061 C   0  0  0  0  0  0  0  0  0  0  0  0
   24.2912  -35.0887   -8.5137 O   0  0  0  0  0  0  0  0  0  0  0  0
   23.3763  -36.9661   -6.3572 N   0  0  0  0  0  0  0  0  0  0  0  0
   23.4619  -36.3648   -5.0553 C   0  0  0  0  0  0  0  0  0  0  0  0
   23.7305  -37.0534   -4.0466 O   0  0  0  0  0  0  0  0  0  0  0  0
   23.2264  -34.9337   -4.9509 C   0  0  0  0  0  0  0  0  0  0  0  0
   22.9312  -34.2483   -6.2914 C   0  0  2  0  0  0  0  0  0  0  0  0
   24.2339  -33.6777   -6.7111 N   0  0  0  0  0  0  0  0  0  0  0  0
   22.0534  -33.0984   -6.0078 C   0  0  0  0  0  0  0  0  0  0  0  0
   22.2621  -32.1858   -4.9913 O   0  0  0  0  0  0  0  0  0  0  0  0
   21.0373  -32.9046   -6.7172 O   0  0  0  0  0  0  0  0  0  0  0  0
  1  2  1  0
  2  3  1  0
  3  5  1  0
  3  4  1  1
  5  6  2  0
  7  8  1  0
  7  5  1  0
  8  9  1  6
  9 10  1  0
 10 15  2  0
 11 12  2  0
 11 10  1  0
 12 13  1  0
 13 14  2  0
 15 14  1  0
 16  8  1  0
 17 16  2  0
 18 19  1  0
 19 20  2  0
 21 19  1  0
 22 21  1  1
 22 23  1  0
 23 16  1  0
 24 25  1  0
 24 22  1  0
 26 24  2  0
M  END
$$$$
