SFN.pdb
     RDKit          3D

 26 26  0  0  1  0  0  0  0  0999 V2000
   28.2087  -19.0140  -18.5740 O   0  0  0  0  0  0  0  0  0  0  0  0
   27.3032  -19.8990  -18.0118 C   0  0  0  0  0  0  0  0  0  0  0  0
   28.0803  -21.0013  -17.2813 C   0  0  2  0  0  0  0  0  0  0  0  0
   28.0095  -22.1725  -18.1275 N   0  0  0  0  0  0  0  0  0  0  0  0
   27.3377  -21.2747  -16.0350 C   0  0  0  0  0  0  0  0  0  0  0  0
   26.4123  -22.1169  -16.0445 O   0  0  0  0  0  0  0  0  0  0  0  0
   27.6025  -20.6357  -14.7937 N   0  0  0  0  0  0  0  0  0  0  0  0
   26.7514  -20.8340  -13.6387 C   0  0  1  0  0  0  0  0  0  0  0  0
   27.3848  -20.3307  -12.3741 C   0  0  0  0  0  0  0  0  0  0  0  0
   26.5711  -20.4861  -11.1803 C   0  0  0  0  0  0  0  0  0  0  0  0
   26.0027  -21.7007  -10.8750 C   0  0  0  0  0  0  0  0  0  0  0  0
   25.2158  -21.8608   -9.7272 C   0  0  0  0  0  0  0  0  0  0  0  0
   25.0209  -20.7768   -8.9070 C   0  0  0  0  0  0  0  0  0  0  0  0
   25.5706  -19.5639   -9.1840 C   0  0  0  0  0  0  0  0  0  0  0  0
   26.3458  -19.4352  -10.3287 C   0  0  0  0  0  0  0  0  0  0  0  0
   25.4015  -20.3078  -13.9081 C   0  0  0  0  0  0  0  0  0  0  0  0
   25.2749  -19.1974  -14.5356 O   0  0  0  0  0  0  0  0  0  0  0  0
   21.1536  -18.8835  -16.3540 N   0  0  0  0  0  0  0  0  0  0  0  0
   21.2714  -20.1505  -15.6874 C   0  0  0  0  0  0  0  0  0  0  0  0
   20.2660  -20.8671  -15.4881 O   0  0  0  0  0  0  0  0  0  0  0  0
   22.5945  -20.5699  -15.2537 C   0  0  0  0  0  0  0  0  0  0  0  0
   22.8856  -20.2914  -13.7733 C   0  0  2  0  0  0  0  0  0  0  0  0
   24.1935  -20.9437  -13.5234 N   0  0  0  0  0  0  0  0  0  0  0  0
   21.8946  -21.0470  -12.9857 C   0  0  0  0  0  0  0  0  0  0  0  0
   20.7408  -20.5052  -12.4519 O   0  0  0  0  0  0  0  0  0  0  0  0
   22.0792  -22.2677  -12.7645 O   0  0  0  0  0  0  0  0  0  0  0  0
  1  2  1  0
  2  3  1  0
  3  5  1  0
  3  4  1  6
  5  6  2  0
  7  8  1  0
  7  5  1  0
  8  9  1  1
  9 10  1  0
 10 15  2  0
 11 12  2  0
 11 10  1  0
 12 13  1  0
 13 14  2  0
 15 14  1  0
 16  8  1  0
 17 16  2  0
 18 19  1  0
 19 20  2  0
 21 19  1  0
 22 21  1  6
 22 23  1  0
 23 16  1  0
 24 25  1  0
 24 22  1  0
 26 24  2  0
M  END
$$$$
