SFN.pdb
     RDKit          3D

 26 26  0  0  1  0  0  0  0  0999 V2000
   17.4284   -9.6031  -18.3200 O   0  0  0  0  0  0  0  0  0  0  0  0
   18.1873   -9.2588  -17.2133 C   0  0  0  0  0  0  0  0  0  0  0  0
   19.3297  -10.2715  -17.0650 C   0  0  2  0  0  0  0  0  0  0  0  0
   18.7586  -11.4306  -16.4146 N   0  0  0  0  0  0  0  0  0  0  0  0
   20.3128   -9.6555  -16.1521 C   0  0  0  0  0  0  0  0  0  0  0  0
   20.0172   -9.5007  -14.9462 O   0  0  0  0  0  0  0  0  0  0  0  0
   21.6029   -9.2137  -16.5518 N   0  0  0  0  0  0  0  0  0  0  0  0
   22.5273   -8.6142  -15.6116 C   0  0  1  0  0  0  0  0  0  0  0  0
   23.9037   -9.2047  -15.7143 C   0  0  0  0  0  0  0  0  0  0  0  0
   23.9698  -10.6398  -15.4962 C   0  0  0  0  0  0  0  0  0  0  0  0
   24.1279  -11.5014  -16.5565 C   0  0  0  0  0  0  0  0  0  0  0  0
   24.1918  -12.8865  -16.3572 C   0  0  0  0  0  0  0  0  0  0  0  0
   24.0934  -13.3718  -15.0764 C   0  0  0  0  0  0  0  0  0  0  0  0
   23.9367  -12.5434  -14.0090 C   0  0  0  0  0  0  0  0  0  0  0  0
   23.8766  -11.1751  -14.2373 C   0  0  0  0  0  0  0  0  0  0  0  0
   22.4734   -7.1452  -15.7152 C   0  0  0  0  0  0  0  0  0  0  0  0
   22.4839   -6.5974  -16.8739 O   0  0  0  0  0  0  0  0  0  0  0  0
   19.2487   -2.9517  -16.2393 N   0  0  0  0  0  0  0  0  0  0  0  0
   20.5753   -3.2260  -15.7610 C   0  0  0  0  0  0  0  0  0  0  0  0
   21.3893   -2.2985  -15.5588 O   0  0  0  0  0  0  0  0  0  0  0  0
   20.9378   -4.6136  -15.5210 C   0  0  0  0  0  0  0  0  0  0  0  0
   22.2929   -4.7952  -14.8247 C   0  0  2  0  0  0  0  0  0  0  0  0
   22.4069   -6.2580  -14.6106 N   0  0  0  0  0  0  0  0  0  0  0  0
   22.1769   -4.1934  -13.4839 C   0  0  0  0  0  0  0  0  0  0  0  0
   22.3674   -2.8528  -13.2081 O   0  0  0  0  0  0  0  0  0  0  0  0
   21.8874   -4.9184  -12.5022 O   0  0  0  0  0  0  0  0  0  0  0  0
  1  2  1  0
  2  3  1  0
  3  5  1  0
  3  4  1  1
  5  6  2  0
  7  8  1  0
  7  5  1  0
  8  9  1  6
  9 10  1  0
 10 15  2  0
 11 12  2  0
 11 10  1  0
 12 13  1  0
 13 14  2  0
 15 14  1  0
 16  8  1  0
 17 16  2  0
 18 19  1  0
 19 20  2  0
 21 19  1  0
 22 21  1  6
 22 23  1  0
 23 16  1  0
 24 25  1  0
 24 22  1  0
 26 24  2  0
M  END
$$$$
