SFN.pdb
     RDKit          3D

 26 26  0  0  1  0  0  0  0  0999 V2000
   25.7361  -21.1729  -18.4599 O   0  0  0  0  0  0  0  0  0  0  0  0
   27.0183  -20.8128  -18.0784 C   0  0  0  0  0  0  0  0  0  0  0  0
   27.6125  -21.9392  -17.2235 C   0  0  2  0  0  0  0  0  0  0  0  0
   27.4603  -23.1535  -17.9949 N   0  0  0  0  0  0  0  0  0  0  0  0
   26.7641  -22.0363  -16.0193 C   0  0  0  0  0  0  0  0  0  0  0  0
   25.9391  -22.9722  -15.9241 O   0  0  0  0  0  0  0  0  0  0  0  0
   26.8161  -21.1221  -14.9326 N   0  0  0  0  0  0  0  0  0  0  0  0
   25.9469  -21.2573  -13.7819 C   0  0  1  0  0  0  0  0  0  0  0  0
   26.4642  -20.5069  -12.5889 C   0  0  0  0  0  0  0  0  0  0  0  0
   25.6084  -20.5612  -11.4159 C   0  0  0  0  0  0  0  0  0  0  0  0
   24.3974  -19.9094  -11.4034 C   0  0  0  0  0  0  0  0  0  0  0  0
   23.5654  -19.9547  -10.2773 C   0  0  0  0  0  0  0  0  0  0  0  0
   23.9829  -20.6659   -9.1793 C   0  0  0  0  0  0  0  0  0  0  0  0
   25.1753  -21.3201   -9.1635 C   0  0  0  0  0  0  0  0  0  0  0  0
   25.9789  -21.2573  -10.2941 C   0  0  0  0  0  0  0  0  0  0  0  0
   24.5571  -20.9429  -14.1574 C   0  0  0  0  0  0  0  0  0  0  0  0
   24.3300  -19.9783  -14.9704 O   0  0  0  0  0  0  0  0  0  0  0  0
   20.1424  -20.8277  -16.8969 N   0  0  0  0  0  0  0  0  0  0  0  0
   20.3918  -21.7790  -15.8497 C   0  0  0  0  0  0  0  0  0  0  0  0
   19.4602  -22.4558  -15.3619 O   0  0  0  0  0  0  0  0  0  0  0  0
   21.7593  -21.9276  -15.3780 C   0  0  0  0  0  0  0  0  0  0  0  0
   22.0517  -21.1920  -14.0637 C   0  0  2  0  0  0  0  0  0  0  0  0
   23.4143  -21.6372  -13.6847 N   0  0  0  0  0  0  0  0  0  0  0  0
   21.1421  -21.7456  -13.0441 C   0  0  0  0  0  0  0  0  0  0  0  0
   20.0014  -21.1140  -12.5865 O   0  0  0  0  0  0  0  0  0  0  0  0
   21.3900  -22.8645  -12.5343 O   0  0  0  0  0  0  0  0  0  0  0  0
  1  2  1  0
  2  3  1  0
  3  5  1  0
  3  4  1  6
  5  6  2  0
  7  8  1  0
  7  5  1  0
  8  9  1  1
  9 10  1  0
 10 15  2  0
 11 12  2  0
 11 10  1  0
 12 13  1  0
 13 14  2  0
 15 14  1  0
 16  8  1  0
 17 16  2  0
 18 19  1  0
 19 20  2  0
 21 19  1  0
 22 21  1  6
 22 23  1  0
 23 16  1  0
 24 25  1  0
 24 22  1  0
 26 24  2  0
M  END
$$$$
