SFN.pdb
     RDKit          3D

 26 26  0  0  1  0  0  0  0  0999 V2000
   36.9561  -29.1419    4.6682 O   0  0  0  0  0  0  0  0  0  0  0  0
   37.7680  -28.1776    5.2427 C   0  0  0  0  0  0  0  0  0  0  0  0
   37.7846  -26.9422    4.3338 C   0  0  2  0  0  0  0  0  0  0  0  0
   39.1705  -26.5429    4.2219 N   0  0  0  0  0  0  0  0  0  0  0  0
   37.0469  -25.8871    5.0561 C   0  0  0  0  0  0  0  0  0  0  0  0
   37.5990  -25.2968    6.0114 O   0  0  0  0  0  0  0  0  0  0  0  0
   35.7222  -25.4819    4.7392 N   0  0  0  0  0  0  0  0  0  0  0  0
   35.0565  -24.4205    5.4658 C   0  0  1  0  0  0  0  0  0  0  0  0
   34.3042  -23.4944    4.5546 C   0  0  0  0  0  0  0  0  0  0  0  0
   33.5172  -22.4780    5.2320 C   0  0  0  0  0  0  0  0  0  0  0  0
   32.2801  -22.1166    4.7518 C   0  0  0  0  0  0  0  0  0  0  0  0
   31.5138  -21.1373    5.3969 C   0  0  0  0  0  0  0  0  0  0  0  0
   32.0228  -20.5408    6.5243 C   0  0  0  0  0  0  0  0  0  0  0  0
   33.2430  -20.8784    7.0216 C   0  0  0  0  0  0  0  0  0  0  0  0
   33.9799  -21.8523    6.3610 C   0  0  0  0  0  0  0  0  0  0  0  0
   34.2611  -24.9847    6.5705 C   0  0  0  0  0  0  0  0  0  0  0  0
   33.5080  -25.9977    6.3477 O   0  0  0  0  0  0  0  0  0  0  0  0
   36.6128  -27.0257    9.1118 N   0  0  0  0  0  0  0  0  0  0  0  0
   35.1942  -27.0180    9.3387 C   0  0  0  0  0  0  0  0  0  0  0  0
   34.4989  -28.0274    9.0909 O   0  0  0  0  0  0  0  0  0  0  0  0
   34.5967  -25.8009    9.8644 C   0  0  0  0  0  0  0  0  0  0  0  0
   33.5087  -25.1988    8.9656 C   0  0  2  0  0  0  0  0  0  0  0  0
   34.2579  -24.4905    7.9000 N   0  0  0  0  0  0  0  0  0  0  0  0
   32.8263  -24.1536    9.7498 C   0  0  0  0  0  0  0  0  0  0  0  0
   33.4418  -23.0213   10.2484 O   0  0  0  0  0  0  0  0  0  0  0  0
   31.6028  -24.2672   10.0016 O   0  0  0  0  0  0  0  0  0  0  0  0
  1  2  1  0
  2  3  1  0
  3  5  1  0
  3  4  1  1
  5  6  2  0
  7  8  1  0
  7  5  1  0
  8  9  1  6
  9 10  1  0
 10 15  2  0
 11 12  2  0
 11 10  1  0
 12 13  1  0
 13 14  2  0
 15 14  1  0
 16  8  1  0
 17 16  2  0
 18 19  1  0
 19 20  2  0
 21 19  1  0
 22 21  1  1
 22 23  1  0
 23 16  1  0
 24 25  1  0
 24 22  1  0
 26 24  2  0
M  END
$$$$
