SFN.pdb
     RDKit          3D

 26 26  0  0  1  0  0  0  0  0999 V2000
   23.7630  -10.3766  -22.5275 O   0  0  0  0  0  0  0  0  0  0  0  0
   23.3482  -10.1335  -21.2283 C   0  0  0  0  0  0  0  0  0  0  0  0
   24.5808  -10.0983  -20.3161 C   0  0  2  0  0  0  0  0  0  0  0  0
   25.0205  -11.4698  -20.1800 N   0  0  0  0  0  0  0  0  0  0  0  0
   24.1088   -9.6220  -19.0009 C   0  0  0  0  0  0  0  0  0  0  0  0
   23.5008  -10.4119  -18.2445 O   0  0  0  0  0  0  0  0  0  0  0  0
   24.2982   -8.2990  -18.5182 N   0  0  0  0  0  0  0  0  0  0  0  0
   23.7926   -7.8801  -17.2272 C   0  0  1  0  0  0  0  0  0  0  0  0
   24.8922   -7.4526  -16.2987 C   0  0  0  0  0  0  0  0  0  0  0  0
   25.8177   -8.5077  -15.9223 C   0  0  0  0  0  0  0  0  0  0  0  0
   25.4892   -9.4057  -14.9338 C   0  0  0  0  0  0  0  0  0  0  0  0
   26.3746  -10.4259  -14.5628 C   0  0  0  0  0  0  0  0  0  0  0  0
   27.5838  -10.5141  -15.2077 C   0  0  0  0  0  0  0  0  0  0  0  0
   27.9351   -9.6400  -16.1888 C   0  0  0  0  0  0  0  0  0  0  0  0
   27.0373   -8.6391  -16.5352 C   0  0  0  0  0  0  0  0  0  0  0  0
   22.7109   -6.8949  -17.4024 C   0  0  0  0  0  0  0  0  0  0  0  0
   22.9324   -5.8359  -18.0897 O   0  0  0  0  0  0  0  0  0  0  0  0
   16.9180   -6.6419  -18.4692 N   0  0  0  0  0  0  0  0  0  0  0  0
   18.3504   -6.5336  -18.4867 C   0  0  0  0  0  0  0  0  0  0  0  0
   18.9598   -6.2497  -19.5411 O   0  0  0  0  0  0  0  0  0  0  0  0
   19.0647   -6.7644  -17.2413 C   0  0  0  0  0  0  0  0  0  0  0  0
   20.3793   -5.9828  -17.1194 C   0  0  2  0  0  0  0  0  0  0  0  0
   21.4058   -7.0214  -16.8618 N   0  0  0  0  0  0  0  0  0  0  0  0
   20.2938   -5.1777  -15.8875 C   0  0  0  0  0  0  0  0  0  0  0  0
   20.1048   -3.8091  -15.8579 O   0  0  0  0  0  0  0  0  0  0  0  0
   20.3962   -5.7403  -14.7711 O   0  0  0  0  0  0  0  0  0  0  0  0
  1  2  1  0
  2  3  1  0
  3  5  1  0
  3  4  1  1
  5  6  2  0
  7  8  1  0
  7  5  1  0
  8  9  1  1
  9 10  1  0
 10 15  2  0
 11 12  2  0
 11 10  1  0
 12 13  1  0
 13 14  2  0
 15 14  1  0
 16  8  1  0
 17 16  2  0
 18 19  1  0
 19 20  2  0
 21 19  1  0
 22 21  1  1
 22 23  1  0
 23 16  1  0
 24 25  1  0
 24 22  1  0
 26 24  2  0
M  END
$$$$
