SFN.pdb
     RDKit          3D

 26 26  0  0  1  0  0  0  0  0999 V2000
   27.1737  -19.3955  -19.0998 O   0  0  0  0  0  0  0  0  0  0  0  0
   26.6573  -20.4245  -18.3293 C   0  0  0  0  0  0  0  0  0  0  0  0
   27.7838  -21.0070  -17.4665 C   0  0  2  0  0  0  0  0  0  0  0  0
   28.1664  -22.2541  -18.0920 N   0  0  0  0  0  0  0  0  0  0  0  0
   27.1854  -21.3041  -16.1501 C   0  0  0  0  0  0  0  0  0  0  0  0
   26.5962  -22.3942  -15.9760 O   0  0  0  0  0  0  0  0  0  0  0  0
   27.2296  -20.4211  -15.0376 N   0  0  0  0  0  0  0  0  0  0  0  0
   26.5473  -20.7253  -13.7968 C   0  0  1  0  0  0  0  0  0  0  0  0
   27.1480  -20.0013  -12.6267 C   0  0  0  0  0  0  0  0  0  0  0  0
   26.4666  -20.2156  -11.3614 C   0  0  0  0  0  0  0  0  0  0  0  0
   25.5762  -19.2843  -10.8804 C   0  0  0  0  0  0  0  0  0  0  0  0
   24.9149  -19.4809   -9.6613 C   0  0  0  0  0  0  0  0  0  0  0  0
   25.1728  -20.6272   -8.9505 C   0  0  0  0  0  0  0  0  0  0  0  0
   26.0483  -21.5653   -9.4018 C   0  0  0  0  0  0  0  0  0  0  0  0
   26.6890  -21.3432  -10.6134 C   0  0  0  0  0  0  0  0  0  0  0  0
   25.0943  -20.5420  -13.9598 C   0  0  0  0  0  0  0  0  0  0  0  0
   24.6586  -19.5157  -14.5919 O   0  0  0  0  0  0  0  0  0  0  0  0
   20.1550  -22.8032  -15.4609 N   0  0  0  0  0  0  0  0  0  0  0  0
   20.6255  -22.5843  -14.1213 C   0  0  0  0  0  0  0  0  0  0  0  0
   19.8221  -22.4013  -13.1806 O   0  0  0  0  0  0  0  0  0  0  0  0
   22.0623  -22.5828  -13.8973 C   0  0  0  0  0  0  0  0  0  0  0  0
   22.6685  -21.1832  -13.7306 C   0  0  2  0  0  0  0  0  0  0  0  0
   24.1060  -21.4308  -13.4648 N   0  0  0  0  0  0  0  0  0  0  0  0
   22.1147  -20.6148  -12.4882 C   0  0  0  0  0  0  0  0  0  0  0  0
   21.1116  -19.6656  -12.4403 O   0  0  0  0  0  0  0  0  0  0  0  0
   22.5616  -20.9951  -11.3797 O   0  0  0  0  0  0  0  0  0  0  0  0
  1  2  1  0
  2  3  1  0
  3  5  1  0
  3  4  1  6
  5  6  2  0
  7  8  1  0
  7  5  1  0
  8  9  1  1
  9 10  1  0
 10 15  2  0
 11 12  2  0
 11 10  1  0
 12 13  1  0
 13 14  2  0
 15 14  1  0
 16  8  1  0
 17 16  2  0
 18 19  1  0
 19 20  2  0
 21 19  1  0
 22 21  1  1
 22 23  1  0
 23 16  1  0
 24 25  1  0
 24 22  1  0
 26 24  2  0
M  END
$$$$
