SFN.pdb
     RDKit          3D

 26 26  0  0  1  0  0  0  0  0999 V2000
   18.7616   -7.4321  -19.6791 O   0  0  0  0  0  0  0  0  0  0  0  0
   18.7294   -7.1629  -18.3206 C   0  0  0  0  0  0  0  0  0  0  0  0
   20.1000   -7.4983  -17.7193 C   0  0  2  0  0  0  0  0  0  0  0  0
   20.1138   -8.9313  -17.5222 N   0  0  0  0  0  0  0  0  0  0  0  0
   20.1446   -6.8404  -16.3984 C   0  0  0  0  0  0  0  0  0  0  0  0
   19.4272   -7.2774  -15.4710 O   0  0  0  0  0  0  0  0  0  0  0  0
   20.9626   -5.7188  -16.0945 N   0  0  0  0  0  0  0  0  0  0  0  0
   20.9885   -5.1322  -14.7705 C   0  0  1  0  0  0  0  0  0  0  0  0
   22.2817   -5.4001  -14.0566 C   0  0  0  0  0  0  0  0  0  0  0  0
   22.5412   -6.8006  -13.7690 C   0  0  0  0  0  0  0  0  0  0  0  0
   21.9543   -7.4121  -12.6859 C   0  0  0  0  0  0  0  0  0  0  0  0
   22.1986   -8.7614  -12.3995 C   0  0  0  0  0  0  0  0  0  0  0  0
   23.0396   -9.4671  -13.2244 C   0  0  0  0  0  0  0  0  0  0  0  0
   23.6337   -8.8883  -14.3024 C   0  0  0  0  0  0  0  0  0  0  0  0
   23.3729   -7.5493  -14.5614 C   0  0  0  0  0  0  0  0  0  0  0  0
   20.6002   -3.7123  -14.8382 C   0  0  0  0  0  0  0  0  0  0  0  0
   21.3534   -2.8851  -15.4639 O   0  0  0  0  0  0  0  0  0  0  0  0
   18.1757   -0.6567  -18.1444 N   0  0  0  0  0  0  0  0  0  0  0  0
   17.8139   -0.9638  -16.7884 C   0  0  0  0  0  0  0  0  0  0  0  0
   16.9772   -0.2669  -16.1736 O   0  0  0  0  0  0  0  0  0  0  0  0
   18.4514   -2.1085  -16.1576 C   0  0  0  0  0  0  0  0  0  0  0  0
   18.8997   -1.8574  -14.7119 C   0  0  2  0  0  0  0  0  0  0  0  0
   19.4287   -3.1651  -14.2552 N   0  0  0  0  0  0  0  0  0  0  0  0
   17.6836   -1.6078  -13.9168 C   0  0  0  0  0  0  0  0  0  0  0  0
   17.3090   -0.3716  -13.4257 O   0  0  0  0  0  0  0  0  0  0  0  0
   16.9129   -2.5601  -13.6476 O   0  0  0  0  0  0  0  0  0  0  0  0
  1  2  1  0
  2  3  1  0
  3  5  1  0
  3  4  1  1
  5  6  2  0
  7  8  1  0
  7  5  1  0
  8  9  1  6
  9 10  1  0
 10 15  2  0
 11 12  2  0
 11 10  1  0
 12 13  1  0
 13 14  2  0
 15 14  1  0
 16  8  1  0
 17 16  2  0
 18 19  1  0
 19 20  2  0
 21 19  1  0
 22 21  1  6
 22 23  1  0
 23 16  1  0
 24 25  1  0
 24 22  1  0
 26 24  2  0
M  END
$$$$
