SFN.pdb
     RDKit          3D

 26 26  0  0  1  0  0  0  0  0999 V2000
   30.9739  -22.3077  -13.8405 O   0  0  0  0  0  0  0  0  0  0  0  0
   30.8924  -21.3226  -12.8698 C   0  0  0  0  0  0  0  0  0  0  0  0
   31.6293  -21.8058  -11.6144 C   0  0  2  0  0  0  0  0  0  0  0  0
   32.0018  -23.1801  -11.8698 N   0  0  0  0  0  0  0  0  0  0  0  0
   30.6402  -21.7814  -10.5188 C   0  0  0  0  0  0  0  0  0  0  0  0
   29.9294  -22.7901  -10.3114 O   0  0  0  0  0  0  0  0  0  0  0  0
   30.4297  -20.6686   -9.6605 N   0  0  0  0  0  0  0  0  0  0  0  0
   29.3904  -20.6711   -8.6518 C   0  0  1  0  0  0  0  0  0  0  0  0
   29.7607  -19.8460   -7.4535 C   0  0  0  0  0  0  0  0  0  0  0  0
   28.8220  -19.9215   -6.3469 C   0  0  0  0  0  0  0  0  0  0  0  0
   27.7469  -19.0662   -6.2828 C   0  0  0  0  0  0  0  0  0  0  0  0
   26.8367  -19.1301   -5.2198 C   0  0  0  0  0  0  0  0  0  0  0  0
   27.0382  -20.0678   -4.2369 C   0  0  0  0  0  0  0  0  0  0  0  0
   28.0925  -20.9262   -4.2745 C   0  0  0  0  0  0  0  0  0  0  0  0
   28.9782  -20.8394   -5.3403 C   0  0  0  0  0  0  0  0  0  0  0  0
   28.0924  -20.3317   -9.2612 C   0  0  0  0  0  0  0  0  0  0  0  0
   27.9768  -19.2408   -9.9240 O   0  0  0  0  0  0  0  0  0  0  0  0
   24.2746  -21.8564  -12.9056 N   0  0  0  0  0  0  0  0  0  0  0  0
   24.1519  -22.0499  -11.4874 C   0  0  0  0  0  0  0  0  0  0  0  0
   23.0284  -22.1600  -10.9494 O   0  0  0  0  0  0  0  0  0  0  0  0
   25.3739  -22.1131  -10.7018 C   0  0  0  0  0  0  0  0  0  0  0  0
   25.7253  -20.8033   -9.9842 C   0  0  2  0  0  0  0  0  0  0  0  0
   26.9249  -21.1328   -9.1774 N   0  0  0  0  0  0  0  0  0  0  0  0
   24.6445  -20.5332   -9.0187 C   0  0  0  0  0  0  0  0  0  0  0  0
   23.5520  -19.7258   -9.2718 O   0  0  0  0  0  0  0  0  0  0  0  0
   24.6872  -21.0547   -7.8787 O   0  0  0  0  0  0  0  0  0  0  0  0
  1  2  1  0
  2  3  1  0
  3  5  1  0
  3  4  1  6
  5  6  2  0
  7  8  1  0
  7  5  1  0
  8  9  1  1
  9 10  1  0
 10 15  2  0
 11 12  2  0
 11 10  1  0
 12 13  1  0
 13 14  2  0
 15 14  1  0
 16  8  1  0
 17 16  2  0
 18 19  1  0
 19 20  2  0
 21 19  1  0
 22 21  1  6
 22 23  1  0
 23 16  1  0
 24 25  1  0
 24 22  1  0
 26 24  2  0
M  END
$$$$
