SFN.pdb
     RDKit          3D

 26 26  0  0  1  0  0  0  0  0999 V2000
   26.2818  -20.5483  -18.3926 O   0  0  0  0  0  0  0  0  0  0  0  0
   27.4440  -19.9134  -17.9862 C   0  0  0  0  0  0  0  0  0  0  0  0
   28.3123  -20.9187  -17.2194 C   0  0  2  0  0  0  0  0  0  0  0  0
   28.3978  -22.0966  -18.0548 N   0  0  0  0  0  0  0  0  0  0  0  0
   27.5634  -21.2628  -15.9946 C   0  0  0  0  0  0  0  0  0  0  0  0
   27.0414  -22.3954  -15.8927 O   0  0  0  0  0  0  0  0  0  0  0  0
   27.3867  -20.3804  -14.8949 N   0  0  0  0  0  0  0  0  0  0  0  0
   26.5639  -20.7370  -13.7575 C   0  0  1  0  0  0  0  0  0  0  0  0
   27.0174  -20.0623  -12.4954 C   0  0  0  0  0  0  0  0  0  0  0  0
   26.2014  -20.3430  -11.3263 C   0  0  0  0  0  0  0  0  0  0  0  0
   26.5347  -21.3668  -10.4707 C   0  0  0  0  0  0  0  0  0  0  0  0
   25.7543  -21.6462   -9.3415 C   0  0  0  0  0  0  0  0  0  0  0  0
   24.6436  -20.8749   -9.1024 C   0  0  0  0  0  0  0  0  0  0  0  0
   24.2901  -19.8560   -9.9313 C   0  0  0  0  0  0  0  0  0  0  0  0
   25.0826  -19.6025  -11.0428 C   0  0  0  0  0  0  0  0  0  0  0  0
   25.1394  -20.5483  -14.0840 C   0  0  0  0  0  0  0  0  0  0  0  0
   24.7854  -19.5350  -14.7846 O   0  0  0  0  0  0  0  0  0  0  0  0
   20.4555  -22.0435  -16.4230 N   0  0  0  0  0  0  0  0  0  0  0  0
   20.7988  -22.4342  -15.0839 C   0  0  0  0  0  0  0  0  0  0  0  0
   19.9129  -22.7570  -14.2623 O   0  0  0  0  0  0  0  0  0  0  0  0
   22.2060  -22.4416  -14.7177 C   0  0  0  0  0  0  0  0  0  0  0  0
   22.6902  -21.1396  -14.0662 C   0  0  2  0  0  0  0  0  0  0  0  0
   24.0944  -21.4180  -13.6799 N   0  0  0  0  0  0  0  0  0  0  0  0
   21.9430  -20.9802  -12.8054 C   0  0  0  0  0  0  0  0  0  0  0  0
   20.8854  -20.1090  -12.6266 O   0  0  0  0  0  0  0  0  0  0  0  0
   22.2623  -21.6660  -11.8049 O   0  0  0  0  0  0  0  0  0  0  0  0
  1  2  1  0
  2  3  1  0
  3  5  1  0
  3  4  1  6
  5  6  2  0
  7  8  1  0
  7  5  1  0
  8  9  1  1
  9 10  1  0
 10 15  2  0
 11 12  2  0
 11 10  1  0
 12 13  1  0
 13 14  2  0
 15 14  1  0
 16  8  1  0
 17 16  2  0
 18 19  1  0
 19 20  2  0
 21 19  1  0
 22 21  1  1
 22 23  1  0
 23 16  1  0
 24 25  1  0
 24 22  1  0
 26 24  2  0
M  END
$$$$
