SFN.pdb
     RDKit          3D

 26 26  0  0  1  0  0  0  0  0999 V2000
   28.2619  -20.0993  -13.6631 O   0  0  0  0  0  0  0  0  0  0  0  0
   29.5810  -19.9613  -13.2633 C   0  0  0  0  0  0  0  0  0  0  0  0
   30.0714  -21.3053  -12.7101 C   0  0  2  0  0  0  0  0  0  0  0  0
   29.5461  -22.3213  -13.5959 N   0  0  0  0  0  0  0  0  0  0  0  0
   29.4396  -21.4627  -11.3852 C   0  0  0  0  0  0  0  0  0  0  0  0
   28.4322  -22.1957  -11.2692 O   0  0  0  0  0  0  0  0  0  0  0  0
   29.9024  -20.8269  -10.2016 N   0  0  0  0  0  0  0  0  0  0  0  0
   29.1413  -20.8645   -8.9699 C   0  0  1  0  0  0  0  0  0  0  0  0
   29.9113  -20.3031   -7.8098 C   0  0  0  0  0  0  0  0  0  0  0  0
   29.1539  -20.1832   -6.5755 C   0  0  0  0  0  0  0  0  0  0  0  0
   28.3838  -19.0698   -6.3333 C   0  0  0  0  0  0  0  0  0  0  0  0
   27.6507  -18.9440   -5.1463 C   0  0  0  0  0  0  0  0  0  0  0  0
   27.7148  -19.9585   -4.2230 C   0  0  0  0  0  0  0  0  0  0  0  0
   28.4680  -21.0710   -4.4359 C   0  0  0  0  0  0  0  0  0  0  0  0
   29.1839  -21.1678   -5.6216 C   0  0  0  0  0  0  0  0  0  0  0  0
   27.8106  -20.2668   -9.1785 C   0  0  0  0  0  0  0  0  0  0  0  0
   27.7046  -19.2036   -9.8865 O   0  0  0  0  0  0  0  0  0  0  0  0
   23.5962  -21.1549  -12.4219 N   0  0  0  0  0  0  0  0  0  0  0  0
   23.9103  -20.4628  -11.2028 C   0  0  0  0  0  0  0  0  0  0  0  0
   23.1045  -19.6488  -10.7008 O   0  0  0  0  0  0  0  0  0  0  0  0
   25.1923  -20.7399  -10.5749 C   0  0  0  0  0  0  0  0  0  0  0  0
   25.2918  -20.2659   -9.1190 C   0  0  2  0  0  0  0  0  0  0  0  0
   26.5999  -20.7824   -8.6494 N   0  0  0  0  0  0  0  0  0  0  0  0
   24.2650  -20.9957   -8.3532 C   0  0  0  0  0  0  0  0  0  0  0  0
   22.9686  -20.5559   -8.1646 O   0  0  0  0  0  0  0  0  0  0  0  0
   24.5529  -22.0946   -7.8214 O   0  0  0  0  0  0  0  0  0  0  0  0
  1  2  1  0
  2  3  1  0
  3  5  1  0
  3  4  1  6
  5  6  2  0
  7  8  1  0
  7  5  1  0
  8  9  1  1
  9 10  1  0
 10 15  2  0
 11 12  2  0
 11 10  1  0
 12 13  1  0
 13 14  2  0
 15 14  1  0
 16  8  1  0
 17 16  2  0
 18 19  1  0
 19 20  2  0
 21 19  1  0
 22 21  1  6
 22 23  1  0
 23 16  1  0
 24 25  1  0
 24 22  1  0
 26 24  2  0
M  END
$$$$
