SFN.pdb
     RDKit          3D

 26 26  0  0  1  0  0  0  0  0999 V2000
   20.8909  -33.2615  -13.3642 O   0  0  0  0  0  0  0  0  0  0  0  0
   21.8260  -32.2503  -13.5124 C   0  0  0  0  0  0  0  0  0  0  0  0
   23.1609  -32.8725  -13.9409 C   0  0  2  0  0  0  0  0  0  0  0  0
   22.8317  -33.9341  -14.8668 N   0  0  0  0  0  0  0  0  0  0  0  0
   23.7470  -33.4718  -12.7257 C   0  0  0  0  0  0  0  0  0  0  0  0
   23.5815  -34.6918  -12.5024 O   0  0  0  0  0  0  0  0  0  0  0  0
   24.5043  -32.7472  -11.7661 N   0  0  0  0  0  0  0  0  0  0  0  0
   25.0515  -33.3872  -10.5876 C   0  0  1  0  0  0  0  0  0  0  0  0
   26.5391  -33.2117  -10.4858 C   0  0  0  0  0  0  0  0  0  0  0  0
   27.3084  -33.9333  -11.4853 C   0  0  0  0  0  0  0  0  0  0  0  0
   27.6586  -33.3275  -12.6693 C   0  0  0  0  0  0  0  0  0  0  0  0
   28.3993  -34.0146  -13.6397 C   0  0  0  0  0  0  0  0  0  0  0  0
   28.7718  -35.3118  -13.3862 C   0  0  0  0  0  0  0  0  0  0  0  0
   28.4394  -35.9361  -12.2243 C   0  0  0  0  0  0  0  0  0  0  0  0
   27.7048  -35.2300  -11.2811 C   0  0  0  0  0  0  0  0  0  0  0  0
   24.2955  -32.9766   -9.3913 C   0  0  0  0  0  0  0  0  0  0  0  0
   23.6402  -31.8752   -9.4108 O   0  0  0  0  0  0  0  0  0  0  0  0
   20.1012  -32.2044   -6.6163 N   0  0  0  0  0  0  0  0  0  0  0  0
   20.8380  -33.4358   -6.6844 C   0  0  0  0  0  0  0  0  0  0  0  0
   20.5683  -34.3883   -5.9204 O   0  0  0  0  0  0  0  0  0  0  0  0
   21.9039  -33.5364   -7.6683 C   0  0  0  0  0  0  0  0  0  0  0  0
   23.3082  -33.3024   -7.0962 C   0  0  2  0  0  0  0  0  0  0  0  0
   24.2260  -33.7180   -8.1841 N   0  0  0  0  0  0  0  0  0  0  0  0
   23.5006  -34.2747   -6.0049 C   0  0  0  0  0  0  0  0  0  0  0  0
   23.3407  -33.9873   -4.6627 O   0  0  0  0  0  0  0  0  0  0  0  0
   23.8334  -35.4531   -6.2764 O   0  0  0  0  0  0  0  0  0  0  0  0
  1  2  1  0
  2  3  1  0
  3  5  1  0
  3  4  1  6
  5  6  2  0
  7  8  1  0
  7  5  1  0
  8  9  1  1
  9 10  1  0
 10 15  2  0
 11 12  2  0
 11 10  1  0
 12 13  1  0
 13 14  2  0
 15 14  1  0
 16  8  1  0
 17 16  2  0
 18 19  1  0
 19 20  2  0
 21 19  1  0
 22 21  1  6
 22 23  1  0
 23 16  1  0
 24 25  1  0
 24 22  1  0
 26 24  2  0
M  END
$$$$
