SFN.pdb
     RDKit          3D

 26 26  0  0  1  0  0  0  0  0999 V2000
   20.2098  -23.0987   -8.6751 O   0  0  0  0  0  0  0  0  0  0  0  0
   21.5546  -23.3928   -8.5197 C   0  0  0  0  0  0  0  0  0  0  0  0
   22.1886  -22.3337   -7.6093 C   0  0  2  0  0  0  0  0  0  0  0  0
   21.0926  -21.6785   -6.9296 N   0  0  0  0  0  0  0  0  0  0  0  0
   22.8407  -21.3564   -8.5031 C   0  0  0  0  0  0  0  0  0  0  0  0
   22.2637  -20.2749   -8.7546 O   0  0  0  0  0  0  0  0  0  0  0  0
   24.1072  -21.5581   -9.1150 N   0  0  0  0  0  0  0  0  0  0  0  0
   24.6639  -20.5988  -10.0466 C   0  0  1  0  0  0  0  0  0  0  0  0
   26.1648  -20.5848  -10.0173 C   0  0  0  0  0  0  0  0  0  0  0  0
   26.7465  -20.1250   -8.7677 C   0  0  0  0  0  0  0  0  0  0  0  0
   26.5356  -18.8383   -8.3302 C   0  0  0  0  0  0  0  0  0  0  0  0
   27.0925  -18.3848   -7.1275 C   0  0  0  0  0  0  0  0  0  0  0  0
   27.8576  -19.2532   -6.3884 C   0  0  0  0  0  0  0  0  0  0  0  0
   28.0829  -20.5310   -6.7964 C   0  0  0  0  0  0  0  0  0  0  0  0
   27.5180  -20.9524   -7.9928 C   0  0  0  0  0  0  0  0  0  0  0  0
   24.0715  -20.7879  -11.3825 C   0  0  0  0  0  0  0  0  0  0  0  0
   23.9637  -21.9729  -11.8589 O   0  0  0  0  0  0  0  0  0  0  0  0
   21.1981  -20.0363  -15.6603 N   0  0  0  0  0  0  0  0  0  0  0  0
   20.7001  -19.3290  -14.5134 C   0  0  0  0  0  0  0  0  0  0  0  0
   19.5962  -18.7425  -14.5504 O   0  0  0  0  0  0  0  0  0  0  0  0
   21.5202  -19.3182  -13.3127 C   0  0  0  0  0  0  0  0  0  0  0  0
   22.8625  -20.0457  -13.4647 C   0  0  2  0  0  0  0  0  0  0  0  0
   23.5937  -19.7408  -12.2114 N   0  0  0  0  0  0  0  0  0  0  0  0
   23.6033  -19.3698  -14.5453 C   0  0  0  0  0  0  0  0  0  0  0  0
   23.5843  -19.7599  -15.8708 O   0  0  0  0  0  0  0  0  0  0  0  0
   24.3107  -18.3686  -14.2796 O   0  0  0  0  0  0  0  0  0  0  0  0
  1  2  1  0
  2  3  1  0
  3  5  1  0
  3  4  1  6
  5  6  2  0
  7  8  1  0
  7  5  1  0
  8  9  1  6
  9 10  1  0
 10 15  2  0
 11 12  2  0
 11 10  1  0
 12 13  1  0
 13 14  2  0
 15 14  1  0
 16  8  1  0
 17 16  2  0
 18 19  1  0
 19 20  2  0
 21 19  1  0
 22 21  1  1
 22 23  1  0
 23 16  1  0
 24 25  1  0
 24 22  1  0
 26 24  2  0
M  END
$$$$
