MTT.pdb
     RDKit          3D

 23 22  0  0  1  0  0  0  0  0999 V2000
    7.5104  -11.1450   26.3332 C   0  0  0  0  0  0  0  0  0  0  0  0
    6.0143  -12.0394   26.6718 S   0  0  0  0  0  0  0  0  0  0  0  0
    5.9458  -13.6846   25.9887 C   0  0  0  0  0  0  0  0  0  0  0  0
    6.8394  -13.9325   24.8340 C   0  0  0  0  0  0  0  0  0  0  0  0
    6.6397  -15.2818   24.2114 C   0  0  2  0  0  0  0  0  0  0  0  0
    5.3739  -15.8210   24.6663 N   0  0  0  0  0  0  0  0  0  0  0  0
    7.7755  -16.1437   24.7102 C   0  0  0  0  0  0  0  0  0  0  0  0
    7.6418  -16.8044   25.7706 O   0  0  0  0  0  0  0  0  0  0  0  0
    9.8919  -18.0329   22.0214 C   0  0  0  0  0  0  0  0  0  0  0  0
   10.7367  -17.5328   23.1401 C   0  0  1  0  0  0  0  0  0  0  0  0
   11.3351  -16.3365   22.6708 O   0  0  0  0  0  0  0  0  0  0  0  0
   10.0081  -17.1824   24.4072 C   0  0  2  0  0  0  0  0  0  0  0  0
    8.9763  -16.2118   23.9995 N   0  0  0  0  0  0  0  0  0  0  0  0
   10.8048  -16.5468   25.4460 C   0  0  0  0  0  0  0  0  0  0  0  0
   11.5733  -15.5948   25.1803 O   0  0  0  0  0  0  0  0  0  0  0  0
   10.3543  -14.3083   28.0501 C   0  0  0  0  0  0  0  0  0  0  0  0
   10.7677  -15.5675   28.7524 C   0  0  1  0  0  0  0  0  0  0  0  0
    9.6410  -16.2462   29.1936 O   0  0  0  0  0  0  0  0  0  0  0  0
   11.5896  -16.4776   27.8423 C   0  0  2  0  0  0  0  0  0  0  0  0
   10.7307  -16.9883   26.7876 N   0  0  0  0  0  0  0  0  0  0  0  0
   12.1752  -17.5892   28.6325 C   0  0  0  0  0  0  0  0  0  0  0  0
   13.1391  -17.3574   29.5997 O   0  0  0  0  0  0  0  0  0  0  0  0
   11.8064  -18.7751   28.4399 O   0  0  0  0  0  0  0  0  0  0  0  0
  2  3  1  0
  2  1  1  0
  3  4  1  0
  4  5  1  0
  5  7  1  0
  5  6  1  1
  7  8  2  0
 10  9  1  6
 10 12  1  0
 11 10  1  0
 12 14  1  0
 13  7  1  0
 12 13  1  6
 14 15  2  0
 17 16  1  6
 17 18  1  0
 17 19  1  0
 19 21  1  0
 19 20  1  6
 20 14  1  0
 21 23  2  0
 21 22  1  0
M  END
$$$$
