MTT.pdb
     RDKit          3D

 23 22  0  0  1  0  0  0  0  0999 V2000
    8.3190  -11.6100   27.4889 C   0  0  0  0  0  0  0  0  0  0  0  0
    6.5527  -11.5964   27.3065 S   0  0  0  0  0  0  0  0  0  0  0  0
    5.8702  -13.0032   26.4504 C   0  0  0  0  0  0  0  0  0  0  0  0
    6.8597  -13.9062   25.8191 C   0  0  0  0  0  0  0  0  0  0  0  0
    6.2292  -15.0230   25.0422 C   0  0  2  0  0  0  0  0  0  0  0  0
    5.5624  -15.9154   25.9689 N   0  0  0  0  0  0  0  0  0  0  0  0
    7.3640  -15.7469   24.3566 C   0  0  0  0  0  0  0  0  0  0  0  0
    7.8830  -16.7545   24.8990 O   0  0  0  0  0  0  0  0  0  0  0  0
    7.2154  -15.5699   20.4601 C   0  0  0  0  0  0  0  0  0  0  0  0
    8.6190  -15.7255   20.9301 C   0  0  1  0  0  0  0  0  0  0  0  0
    9.2153  -14.4455   20.8047 O   0  0  0  0  0  0  0  0  0  0  0  0
    8.7889  -16.1418   22.3644 C   0  0  2  0  0  0  0  0  0  0  0  0
    7.8417  -15.3031   23.1210 N   0  0  0  0  0  0  0  0  0  0  0  0
   10.1071  -15.9222   22.9403 C   0  0  0  0  0  0  0  0  0  0  0  0
   10.4146  -14.8212   23.4510 O   0  0  0  0  0  0  0  0  0  0  0  0
   12.1814  -18.1554   25.5508 C   0  0  0  0  0  0  0  0  0  0  0  0
   12.8290  -18.0562   24.2016 C   0  0  1  0  0  0  0  0  0  0  0  0
   12.4829  -19.1605   23.4363 O   0  0  0  0  0  0  0  0  0  0  0  0
   12.4194  -16.7790   23.4714 C   0  0  2  0  0  0  0  0  0  0  0  0
   11.0783  -16.9503   22.9396 N   0  0  0  0  0  0  0  0  0  0  0  0
   13.3861  -16.4846   22.3843 C   0  0  0  0  0  0  0  0  0  0  0  0
   14.6883  -16.1021   22.6606 O   0  0  0  0  0  0  0  0  0  0  0  0
   13.0416  -16.5766   21.1792 O   0  0  0  0  0  0  0  0  0  0  0  0
  2  3  1  0
  2  1  1  0
  3  4  1  0
  4  5  1  0
  5  7  1  0
  5  6  1  1
  7  8  2  0
 10  9  1  1
 10 12  1  0
 11 10  1  0
 12 14  1  0
 13  7  1  0
 12 13  1  1
 14 15  2  0
 17 16  1  1
 17 18  1  0
 17 19  1  0
 19 21  1  0
 19 20  1  6
 20 14  1  0
 21 23  2  0
 21 22  1  0
M  END
$$$$
