MTT.pdb
     RDKit          3D

 23 22  0  0  1  0  0  0  0  0999 V2000
    7.2719  -12.1185   27.8226 C   0  0  0  0  0  0  0  0  0  0  0  0
    6.0027  -11.9476   26.5926 S   0  0  0  0  0  0  0  0  0  0  0  0
    6.0032  -13.2023   25.3263 C   0  0  0  0  0  0  0  0  0  0  0  0
    7.0914  -14.2023   25.4209 C   0  0  0  0  0  0  0  0  0  0  0  0
    7.0262  -15.2495   24.3498 C   0  0  2  0  0  0  0  0  0  0  0  0
    5.7431  -15.9180   24.4306 N   0  0  0  0  0  0  0  0  0  0  0  0
    8.1363  -16.2276   24.6545 C   0  0  0  0  0  0  0  0  0  0  0  0
    7.9916  -17.0737   25.5721 O   0  0  0  0  0  0  0  0  0  0  0  0
   10.3960  -17.7432   21.7992 C   0  0  0  0  0  0  0  0  0  0  0  0
   11.1860  -17.3133   22.9851 C   0  0  1  0  0  0  0  0  0  0  0  0
   11.7231  -16.0435   22.6551 O   0  0  0  0  0  0  0  0  0  0  0  0
   10.4113  -17.1357   24.2608 C   0  0  2  0  0  0  0  0  0  0  0  0
    9.3254  -16.1982   23.9217 N   0  0  0  0  0  0  0  0  0  0  0  0
   11.1436  -16.5546   25.3760 C   0  0  0  0  0  0  0  0  0  0  0  0
   11.9453  -15.6090   25.2009 O   0  0  0  0  0  0  0  0  0  0  0  0
   10.3771  -14.3584   27.8702 C   0  0  0  0  0  0  0  0  0  0  0  0
   10.7171  -15.6067   28.6289 C   0  0  1  0  0  0  0  0  0  0  0  0
    9.5549  -16.3064   28.9195 O   0  0  0  0  0  0  0  0  0  0  0  0
   11.6709  -16.5032   27.8422 C   0  0  2  0  0  0  0  0  0  0  0  0
   10.9676  -17.0434   26.6915 N   0  0  0  0  0  0  0  0  0  0  0  0
   12.1759  -17.5936   28.7135 C   0  0  0  0  0  0  0  0  0  0  0  0
   13.0185  -17.3324   29.7813 O   0  0  0  0  0  0  0  0  0  0  0  0
   11.8475  -18.7877   28.4998 O   0  0  0  0  0  0  0  0  0  0  0  0
  2  3  1  0
  2  1  1  0
  3  4  1  0
  4  5  1  0
  5  7  1  0
  5  6  1  1
  7  8  2  0
 10  9  1  6
 10 12  1  0
 11 10  1  0
 12 14  1  0
 13  7  1  0
 12 13  1  6
 14 15  2  0
 17 16  1  6
 17 18  1  0
 17 19  1  0
 19 21  1  0
 19 20  1  6
 20 14  1  0
 21 23  2  0
 21 22  1  0
M  END
$$$$
