MTT.pdb
     RDKit          3D

 23 22  0  0  1  0  0  0  0  0999 V2000
    7.9604  -11.3939   20.5619 C   0  0  0  0  0  0  0  0  0  0  0  0
    8.1846  -12.2487   19.0218 S   0  0  0  0  0  0  0  0  0  0  0  0
    8.7416  -13.9358   19.1675 C   0  0  0  0  0  0  0  0  0  0  0  0
    8.3836  -14.6178   20.4324 C   0  0  0  0  0  0  0  0  0  0  0  0
    8.8495  -16.0419   20.4883 C   0  0  2  0  0  0  0  0  0  0  0  0
    8.0723  -16.8226   19.5469 N   0  0  0  0  0  0  0  0  0  0  0  0
    8.5780  -16.5147   21.8970 C   0  0  0  0  0  0  0  0  0  0  0  0
    7.4298  -16.9157   22.2130 O   0  0  0  0  0  0  0  0  0  0  0  0
    8.7637  -19.1972   22.9259 C   0  0  0  0  0  0  0  0  0  0  0  0
    9.5333  -18.5584   24.0280 C   0  0  1  0  0  0  0  0  0  0  0  0
   10.9012  -18.7596   23.7148 O   0  0  0  0  0  0  0  0  0  0  0  0
    9.3413  -17.0765   24.1898 C   0  0  2  0  0  0  0  0  0  0  0  0
    9.5964  -16.5094   22.8533 N   0  0  0  0  0  0  0  0  0  0  0  0
   10.2481  -16.4131   25.1146 C   0  0  0  0  0  0  0  0  0  0  0  0
   11.4833  -16.3981   24.9107 O   0  0  0  0  0  0  0  0  0  0  0  0
    8.5704  -14.4284   28.5180 C   0  0  0  0  0  0  0  0  0  0  0  0
    9.8560  -13.9683   27.8974 C   0  0  1  0  0  0  0  0  0  0  0  0
   10.6520  -13.3704   28.8637 O   0  0  0  0  0  0  0  0  0  0  0  0
   10.6165  -15.1245   27.2517 C   0  0  2  0  0  0  0  0  0  0  0  0
    9.7563  -15.7647   26.2714 N   0  0  0  0  0  0  0  0  0  0  0  0
   11.0453  -16.0927   28.2918 C   0  0  0  0  0  0  0  0  0  0  0  0
   10.4409  -17.3326   28.4166 O   0  0  0  0  0  0  0  0  0  0  0  0
   11.9737  -15.8064   29.0889 O   0  0  0  0  0  0  0  0  0  0  0  0
  2  3  1  0
  2  1  1  0
  3  4  1  0
  4  5  1  0
  5  7  1  0
  5  6  1  6
  7  8  2  0
 10  9  1  6
 10 12  1  0
 11 10  1  0
 12 14  1  0
 13  7  1  0
 12 13  1  6
 14 15  2  0
 17 16  1  1
 17 18  1  0
 17 19  1  0
 19 21  1  0
 19 20  1  6
 20 14  1  0
 21 23  2  0
 21 22  1  0
M  END
$$$$
