MTT.pdb
     RDKit          3D

 23 22  0  0  1  0  0  0  0  0999 V2000
    7.9635  -12.0956   28.0796 C   0  0  0  0  0  0  0  0  0  0  0  0
    7.0084  -11.5526   26.6847 S   0  0  0  0  0  0  0  0  0  0  0  0
    6.3256  -12.8584   25.6814 C   0  0  0  0  0  0  0  0  0  0  0  0
    7.2479  -13.9763   25.3770 C   0  0  0  0  0  0  0  0  0  0  0  0
    6.6321  -15.0299   24.5058 C   0  0  2  0  0  0  0  0  0  0  0  0
    5.5136  -15.6217   25.2120 N   0  0  0  0  0  0  0  0  0  0  0  0
    7.7070  -16.0674   24.2825 C   0  0  0  0  0  0  0  0  0  0  0  0
    7.8476  -17.0102   25.1011 O   0  0  0  0  0  0  0  0  0  0  0  0
    8.7273  -16.7585   20.4683 C   0  0  0  0  0  0  0  0  0  0  0  0
    9.8532  -16.9089   21.4300 C   0  0  1  0  0  0  0  0  0  0  0  0
   10.5863  -15.6974   21.3630 O   0  0  0  0  0  0  0  0  0  0  0  0
    9.4659  -17.0997   22.8697 C   0  0  2  0  0  0  0  0  0  0  0  0
    8.5479  -15.9860   23.1699 N   0  0  0  0  0  0  0  0  0  0  0  0
   10.5511  -17.0302   23.8367 C   0  0  0  0  0  0  0  0  0  0  0  0
   11.0898  -15.9380   24.1272 O   0  0  0  0  0  0  0  0  0  0  0  0
   13.2043  -19.5293   27.2409 C   0  0  0  0  0  0  0  0  0  0  0  0
   12.0009  -19.3775   26.3586 C   0  0  1  0  0  0  0  0  0  0  0  0
   10.8693  -19.1980   27.1410 O   0  0  0  0  0  0  0  0  0  0  0  0
   12.1505  -18.2000   25.3977 C   0  0  2  0  0  0  0  0  0  0  0  0
   11.0268  -18.1983   24.4767 N   0  0  0  0  0  0  0  0  0  0  0  0
   13.4361  -18.3054   24.6635 C   0  0  0  0  0  0  0  0  0  0  0  0
   14.5885  -17.6991   25.1355 O   0  0  0  0  0  0  0  0  0  0  0  0
   13.5081  -18.9523   23.5884 O   0  0  0  0  0  0  0  0  0  0  0  0
  2  3  1  0
  2  1  1  0
  3  4  1  0
  4  5  1  0
  5  7  1  0
  5  6  1  1
  7  8  2  0
 10  9  1  6
 10 12  1  0
 11 10  1  0
 12 14  1  0
 13  7  1  0
 12 13  1  1
 14 15  2  0
 17 16  1  1
 17 18  1  0
 17 19  1  0
 19 21  1  0
 19 20  1  6
 20 14  1  0
 21 23  2  0
 21 22  1  0
M  END
$$$$
