MTT.pdb
     RDKit          3D

 23 22  0  0  1  0  0  0  0  0999 V2000
    7.4529  -15.4371   15.0928 C   0  0  0  0  0  0  0  0  0  0  0  0
    7.9454  -13.7363   15.2253 S   0  0  0  0  0  0  0  0  0  0  0  0
    8.1916  -13.1479   16.8900 C   0  0  0  0  0  0  0  0  0  0  0  0
    7.9067  -14.1299   17.9613 C   0  0  0  0  0  0  0  0  0  0  0  0
    8.2119  -13.6113   19.3347 C   0  0  2  0  0  0  0  0  0  0  0  0
    9.4912  -12.9314   19.3011 N   0  0  0  0  0  0  0  0  0  0  0  0
    8.2974  -14.8253   20.2296 C   0  0  0  0  0  0  0  0  0  0  0  0
    7.3029  -15.5831   20.3542 O   0  0  0  0  0  0  0  0  0  0  0  0
   10.8988  -17.3822   19.9406 C   0  0  0  0  0  0  0  0  0  0  0  0
   10.7969  -17.0171   21.3799 C   0  0  1  0  0  0  0  0  0  0  0  0
   11.8711  -16.1272   21.6324 O   0  0  0  0  0  0  0  0  0  0  0  0
    9.5395  -16.3023   21.7886 C   0  0  2  0  0  0  0  0  0  0  0  0
    9.4768  -15.1120   20.9213 N   0  0  0  0  0  0  0  0  0  0  0  0
    9.4926  -15.8304   23.1643 C   0  0  0  0  0  0  0  0  0  0  0  0
   10.0809  -14.7801   23.5084 O   0  0  0  0  0  0  0  0  0  0  0  0
    6.6613  -14.7680   25.3457 C   0  0  0  0  0  0  0  0  0  0  0  0
    7.2818  -15.9802   25.9743 C   0  0  1  0  0  0  0  0  0  0  0  0
    6.5578  -17.1100   25.6219 O   0  0  0  0  0  0  0  0  0  0  0  0
    8.7385  -16.1530   25.5498 C   0  0  2  0  0  0  0  0  0  0  0  0
    8.7779  -16.5474   24.1520 N   0  0  0  0  0  0  0  0  0  0  0  0
    9.3984  -17.1706   26.4055 C   0  0  0  0  0  0  0  0  0  0  0  0
    9.5804  -16.9637   27.7628 O   0  0  0  0  0  0  0  0  0  0  0  0
    9.8098  -18.2512   25.9132 O   0  0  0  0  0  0  0  0  0  0  0  0
  2  3  1  0
  2  1  1  0
  3  4  1  0
  4  5  1  0
  5  7  1  0
  5  6  1  6
  7  8  2  0
 10  9  1  6
 10 12  1  0
 11 10  1  0
 12 14  1  0
 13  7  1  0
 12 13  1  6
 14 15  2  0
 17 16  1  6
 17 18  1  0
 17 19  1  0
 19 21  1  0
 19 20  1  6
 20 14  1  0
 21 23  2  0
 21 22  1  0
M  END
$$$$
