MTT.pdb
     RDKit          3D

 23 22  0  0  1  0  0  0  0  0999 V2000
    7.2900  -11.3116   28.0874 C   0  0  0  0  0  0  0  0  0  0  0  0
    6.7550  -11.9562   26.5218 S   0  0  0  0  0  0  0  0  0  0  0  0
    5.7480  -13.4243   26.6128 C   0  0  0  0  0  0  0  0  0  0  0  0
    5.9964  -14.4334   25.5578 C   0  0  0  0  0  0  0  0  0  0  0  0
    7.3563  -15.0586   25.6464 C   0  0  2  0  0  0  0  0  0  0  0  0
    8.3510  -14.0053   25.6778 N   0  0  0  0  0  0  0  0  0  0  0  0
    7.5191  -15.8832   24.3913 C   0  0  0  0  0  0  0  0  0  0  0  0
    6.6929  -16.7923   24.1272 O   0  0  0  0  0  0  0  0  0  0  0  0
    7.5568  -14.5351   21.1788 C   0  0  0  0  0  0  0  0  0  0  0  0
    8.6870  -15.5035   21.1635 C   0  0  1  0  0  0  0  0  0  0  0  0
    9.8685  -14.7236   21.2374 O   0  0  0  0  0  0  0  0  0  0  0  0
    8.7371  -16.4722   22.3117 C   0  0  2  0  0  0  0  0  0  0  0  0
    8.5842  -15.6418   23.5200 N   0  0  0  0  0  0  0  0  0  0  0  0
    9.9767  -17.2195   22.4619 C   0  0  0  0  0  0  0  0  0  0  0  0
   10.8641  -16.8463   23.2624 O   0  0  0  0  0  0  0  0  0  0  0  0
   10.2329  -21.3938   21.7709 C   0  0  0  0  0  0  0  0  0  0  0  0
   11.2232  -20.5048   21.0793 C   0  0  1  0  0  0  0  0  0  0  0  0
   10.7915  -20.2432   19.7870 O   0  0  0  0  0  0  0  0  0  0  0  0
   11.4203  -19.1889   21.8290 C   0  0  2  0  0  0  0  0  0  0  0  0
   10.2120  -18.3916   21.7061 N   0  0  0  0  0  0  0  0  0  0  0  0
   12.5918  -18.4626   21.2785 C   0  0  0  0  0  0  0  0  0  0  0  0
   13.8835  -18.9213   21.4765 O   0  0  0  0  0  0  0  0  0  0  0  0
   12.4362  -17.4067   20.6151 O   0  0  0  0  0  0  0  0  0  0  0  0
  2  3  1  0
  2  1  1  0
  3  4  1  0
  4  5  1  0
  5  7  1  0
  5  6  1  6
  7  8  2  0
 10  9  1  1
 10 12  1  0
 11 10  1  0
 12 14  1  0
 13  7  1  0
 12 13  1  1
 14 15  2  0
 17 16  1  1
 17 18  1  0
 17 19  1  0
 19 21  1  0
 19 20  1  6
 20 14  1  0
 21 23  2  0
 21 22  1  0
M  END
$$$$
