MTT.pdb
     RDKit          3D

 23 22  0  0  1  0  0  0  0  0999 V2000
    8.0893  -11.8508   26.8810 C   0  0  0  0  0  0  0  0  0  0  0  0
    6.5577  -12.3652   26.1443 S   0  0  0  0  0  0  0  0  0  0  0  0
    6.7199  -13.4801   24.7629 C   0  0  0  0  0  0  0  0  0  0  0  0
    7.8110  -13.1631   23.8132 C   0  0  0  0  0  0  0  0  0  0  0  0
    7.8602  -14.0929   22.6378 C   0  0  2  0  0  0  0  0  0  0  0  0
    6.5390  -14.1654   22.0469 N   0  0  0  0  0  0  0  0  0  0  0  0
    8.2519  -15.4432   23.1901 C   0  0  0  0  0  0  0  0  0  0  0  0
    7.3632  -16.2493   23.5632 O   0  0  0  0  0  0  0  0  0  0  0  0
   10.3265  -17.5634   21.1575 C   0  0  0  0  0  0  0  0  0  0  0  0
   10.8752  -17.6436   22.5387 C   0  0  1  0  0  0  0  0  0  0  0  0
   11.9967  -16.7768   22.5626 O   0  0  0  0  0  0  0  0  0  0  0  0
    9.9559  -17.1899   23.6379 C   0  0  2  0  0  0  0  0  0  0  0  0
    9.5981  -15.8030   23.2894 N   0  0  0  0  0  0  0  0  0  0  0  0
   10.5277  -17.1595   24.9757 C   0  0  0  0  0  0  0  0  0  0  0  0
   11.1112  -16.1390   25.4067 O   0  0  0  0  0  0  0  0  0  0  0  0
   10.8763  -19.5548   29.3426 C   0  0  0  0  0  0  0  0  0  0  0  0
   10.2690  -19.3856   27.9817 C   0  0  1  0  0  0  0  0  0  0  0  0
    8.9295  -19.0473   28.1081 O   0  0  0  0  0  0  0  0  0  0  0  0
   10.9930  -18.3137   27.1699 C   0  0  2  0  0  0  0  0  0  0  0  0
   10.4381  -18.2850   25.8274 N   0  0  0  0  0  0  0  0  0  0  0  0
   12.4486  -18.6015   27.1347 C   0  0  0  0  0  0  0  0  0  0  0  0
   13.2898  -18.1938   28.1567 O   0  0  0  0  0  0  0  0  0  0  0  0
   12.9542  -19.2268   26.1688 O   0  0  0  0  0  0  0  0  0  0  0  0
  2  3  1  0
  2  1  1  0
  3  4  1  0
  4  5  1  0
  5  7  1  0
  5  6  1  1
  7  8  2  0
 10  9  1  6
 10 12  1  0
 11 10  1  0
 12 14  1  0
 13  7  1  0
 12 13  1  6
 14 15  2  0
 17 16  1  1
 17 18  1  0
 17 19  1  0
 19 21  1  0
 19 20  1  6
 20 14  1  0
 21 23  2  0
 21 22  1  0
M  END
$$$$
