MTT.pdb
     RDKit          3D

 23 22  0  0  1  0  0  0  0  0999 V2000
    7.8967  -11.3407   26.8558 C   0  0  0  0  0  0  0  0  0  0  0  0
    6.4359  -12.1201   26.2142 S   0  0  0  0  0  0  0  0  0  0  0  0
    6.7291  -13.5494   25.1900 C   0  0  0  0  0  0  0  0  0  0  0  0
    6.5153  -13.3476   23.7386 C   0  0  0  0  0  0  0  0  0  0  0  0
    7.6909  -13.7613   22.9050 C   0  0  2  0  0  0  0  0  0  0  0  0
    7.3583  -13.5746   21.5070 N   0  0  0  0  0  0  0  0  0  0  0  0
    7.9094  -15.2285   23.1906 C   0  0  0  0  0  0  0  0  0  0  0  0
    7.0555  -16.0728   22.8207 O   0  0  0  0  0  0  0  0  0  0  0  0
   10.5335  -16.9855   21.8504 C   0  0  0  0  0  0  0  0  0  0  0  0
   10.5436  -17.3953   23.2812 C   0  0  1  0  0  0  0  0  0  0  0  0
   11.5876  -16.6548   23.8905 O   0  0  0  0  0  0  0  0  0  0  0  0
    9.2923  -17.0965   24.0585 C   0  0  2  0  0  0  0  0  0  0  0  0
    9.0566  -15.6543   23.8647 N   0  0  0  0  0  0  0  0  0  0  0  0
    9.3624  -17.3281   25.4935 C   0  0  0  0  0  0  0  0  0  0  0  0
    9.7018  -16.4152   26.2802 O   0  0  0  0  0  0  0  0  0  0  0  0
    8.4251  -20.5564   29.1915 C   0  0  0  0  0  0  0  0  0  0  0  0
    8.4056  -20.2066   27.7332 C   0  0  1  0  0  0  0  0  0  0  0  0
    7.0929  -20.1074   27.2954 O   0  0  0  0  0  0  0  0  0  0  0  0
    9.1374  -18.8948   27.4576 C   0  0  2  0  0  0  0  0  0  0  0  0
    9.0467  -18.5942   26.0391 N   0  0  0  0  0  0  0  0  0  0  0  0
   10.5544  -19.0054   27.8854 C   0  0  0  0  0  0  0  0  0  0  0  0
   10.9436  -18.6994   29.1789 O   0  0  0  0  0  0  0  0  0  0  0  0
   11.4395  -19.3824   27.0768 O   0  0  0  0  0  0  0  0  0  0  0  0
  2  3  1  0
  2  1  1  0
  3  4  1  0
  4  5  1  0
  5  7  1  0
  5  6  1  6
  7  8  2  0
 10  9  1  6
 10 12  1  0
 11 10  1  0
 12 14  1  0
 13  7  1  0
 12 13  1  1
 14 15  2  0
 17 16  1  1
 17 18  1  0
 17 19  1  0
 19 21  1  0
 19 20  1  6
 20 14  1  0
 21 23  2  0
 21 22  1  0
M  END
$$$$
