MTT.pdb
     RDKit          3D

 23 22  0  0  1  0  0  0  0  0999 V2000
    9.3952  -12.9526   27.5272 C   0  0  0  0  0  0  0  0  0  0  0  0
    9.1531  -14.4221   28.4940 S   0  0  0  0  0  0  0  0  0  0  0  0
    8.3156  -15.7517   27.6522 C   0  0  0  0  0  0  0  0  0  0  0  0
    7.6028  -15.3709   26.4112 C   0  0  0  0  0  0  0  0  0  0  0  0
    6.8201  -16.4994   25.8093 C   0  0  2  0  0  0  0  0  0  0  0  0
    6.7859  -17.5973   26.7544 N   0  0  0  0  0  0  0  0  0  0  0  0
    7.5729  -16.9131   24.5667 C   0  0  0  0  0  0  0  0  0  0  0  0
    7.8570  -18.1227   24.3799 O   0  0  0  0  0  0  0  0  0  0  0  0
    6.7905  -14.8476   21.3816 C   0  0  0  0  0  0  0  0  0  0  0  0
    8.2033  -15.3152   21.3616 C   0  0  1  0  0  0  0  0  0  0  0  0
    8.9913  -14.1868   21.7016 O   0  0  0  0  0  0  0  0  0  0  0  0
    8.5510  -16.3965   22.3460 C   0  0  2  0  0  0  0  0  0  0  0  0
    7.9564  -15.9583   23.6217 N   0  0  0  0  0  0  0  0  0  0  0  0
    9.9706  -16.6069   22.5872 C   0  0  0  0  0  0  0  0  0  0  0  0
   10.5549  -16.0450   23.5413 O   0  0  0  0  0  0  0  0  0  0  0  0
   12.4713  -18.1713   19.5590 C   0  0  0  0  0  0  0  0  0  0  0  0
   12.5987  -18.7664   20.9299 C   0  0  1  0  0  0  0  0  0  0  0  0
   13.9221  -19.1076   21.1685 O   0  0  0  0  0  0  0  0  0  0  0  0
   12.1162  -17.8016   22.0110 C   0  0  2  0  0  0  0  0  0  0  0  0
   10.7298  -17.4555   21.7483 N   0  0  0  0  0  0  0  0  0  0  0  0
   12.9709  -16.5882   22.0254 C   0  0  0  0  0  0  0  0  0  0  0  0
   12.6172  -15.4480   21.3232 O   0  0  0  0  0  0  0  0  0  0  0  0
   14.0432  -16.5684   22.6805 O   0  0  0  0  0  0  0  0  0  0  0  0
  2  3  1  0
  2  1  1  0
  3  4  1  0
  4  5  1  0
  5  7  1  0
  5  6  1  1
  7  8  2  0
 10  9  1  1
 10 12  1  0
 11 10  1  0
 12 14  1  0
 13  7  1  0
 12 13  1  1
 14 15  2  0
 17 16  1  6
 17 18  1  0
 17 19  1  0
 19 21  1  0
 19 20  1  6
 20 14  1  0
 21 23  2  0
 21 22  1  0
M  END
$$$$
