CKW.pdb
     RDKit          3D

 30 31  0  0  1  0  0  0  0  0999 V2000
   11.7818  -13.8602   18.7710 N   0  0  0  0  0  0  0  0  0  0  0  0
   11.7125  -15.2505   19.0813 C   0  0  1  0  0  0  0  0  0  0  0  0
   13.0991  -15.8107   19.3160 C   0  0  0  0  0  0  0  0  0  0  0  0
   13.9286  -14.9684   20.6918 S   0  0  0  0  0  0  0  0  0  0  0  0
   10.8647  -15.5814   20.2388 C   0  0  0  0  0  0  0  0  0  0  0  0
   10.5840  -14.6565   21.0381 O   0  0  0  0  0  0  0  0  0  0  0  0
   10.3481  -16.8721   20.5063 N   0  0  0  0  0  0  0  0  0  0  0  0
    9.4078  -17.0367   21.5777 C   0  0  1  0  0  0  0  0  0  0  0  0
    8.6336  -18.3320   21.4806 C   0  0  0  0  0  0  0  0  0  0  0  0
    7.7169  -18.5612   22.6320 C   0  0  0  0  0  0  0  0  0  0  0  0
    6.9260  -19.8230   22.3877 C   0  0  0  0  0  0  0  0  0  0  0  0
    5.9561  -20.1549   23.4912 C   0  0  0  0  0  0  0  0  0  0  0  0
    5.2647  -21.3974   23.2370 N   0  0  0  0  0  0  0  0  0  0  0  0
   10.1268  -16.9238   22.8843 C   0  0  0  0  0  0  0  0  0  0  0  0
   11.2822  -17.3896   23.0514 O   0  0  0  0  0  0  0  0  0  0  0  0
    9.5117  -16.2787   23.9819 N   0  0  0  0  0  0  0  0  0  0  0  0
   10.2256  -16.1065   25.2649 C   0  0  1  0  0  0  0  0  0  0  0  0
    9.8254  -14.7591   25.8034 C   0  0  0  0  0  0  0  0  0  0  0  0
    8.3521  -14.6853   25.9702 C   0  0  0  0  0  0  0  0  0  0  0  0
    7.5076  -15.8073   25.9919 C   0  0  0  0  0  0  0  0  0  0  0  0
    6.2767  -15.3560   26.2158 N   0  0  0  0  0  0  0  0  0  0  0  0
    6.2607  -14.0102   26.3410 C   0  0  0  0  0  0  0  0  0  0  0  0
    5.2522  -13.0993   26.5617 C   0  0  0  0  0  0  0  0  0  0  0  0
    5.5344  -11.7524   26.6283 C   0  0  0  0  0  0  0  0  0  0  0  0
    6.8279  -11.3248   26.4725 C   0  0  0  0  0  0  0  0  0  0  0  0
    7.8292  -12.2208   26.2544 C   0  0  0  0  0  0  0  0  0  0  0  0
    7.5577  -13.5933   26.1863 C   0  0  0  0  0  0  0  0  0  0  0  0
    9.8865  -17.2427   26.1135 C   0  0  0  0  0  0  0  0  0  0  0  0
   10.5996  -17.5249   27.2633 O   0  0  0  0  0  0  0  0  0  0  0  0
    8.9312  -17.9925   25.8121 O   0  0  0  0  0  0  0  0  0  0  0  0
  2  3  1  0
  2  5  1  0
  2  1  1  1
  4  3  1  0
  5  6  2  0
  7  8  1  0
  7  5  1  0
  8 14  1  0
  8  9  1  6
 10  9  1  0
 11 12  1  0
 11 10  1  0
 13 12  1  0
 14 15  2  0
 14 16  1  0
 16 17  1  0
 17 28  1  0
 17 18  1  1
 19 18  1  0
 20 19  2  0
 21 20  1  0
 22 21  1  0
 22 27  2  0
 23 22  1  0
 24 23  2  0
 24 25  1  0
 25 26  2  0
 26 27  1  0
 27 19  1  0
 28 30  2  0
 28 29  1  0
M  END
$$$$
