CKW.pdb
     RDKit          3D

 30 31  0  0  1  0  0  0  0  0999 V2000
    6.8355  -15.0231   17.7604 N   0  0  0  0  0  0  0  0  0  0  0  0
    7.9156  -14.4846   18.5203 C   0  0  1  0  0  0  0  0  0  0  0  0
    7.4994  -13.1924   19.1904 C   0  0  0  0  0  0  0  0  0  0  0  0
    8.8460  -12.5027   20.1909 S   0  0  0  0  0  0  0  0  0  0  0  0
    8.4634  -15.3934   19.5411 C   0  0  0  0  0  0  0  0  0  0  0  0
    7.6692  -16.1861   20.1013 O   0  0  0  0  0  0  0  0  0  0  0  0
    9.8245  -15.4296   19.9291 N   0  0  0  0  0  0  0  0  0  0  0  0
   10.2646  -16.4585   20.8274 C   0  0  1  0  0  0  0  0  0  0  0  0
   11.3707  -17.3085   20.2438 C   0  0  0  0  0  0  0  0  0  0  0  0
   11.7999  -18.4181   21.1401 C   0  0  0  0  0  0  0  0  0  0  0  0
   12.9194  -19.1818   20.4763 C   0  0  0  0  0  0  0  0  0  0  0  0
   13.3930  -20.3737   21.2660 C   0  0  0  0  0  0  0  0  0  0  0  0
   14.4093  -21.1143   20.5551 N   0  0  0  0  0  0  0  0  0  0  0  0
   10.6767  -15.8361   22.1234 C   0  0  0  0  0  0  0  0  0  0  0  0
   11.2236  -14.7055   22.1755 O   0  0  0  0  0  0  0  0  0  0  0  0
   10.4565  -16.5178   23.3424 N   0  0  0  0  0  0  0  0  0  0  0  0
    9.6624  -15.9046   24.4281 C   0  0  1  0  0  0  0  0  0  0  0  0
    8.3833  -15.4155   23.8032 C   0  0  0  0  0  0  0  0  0  0  0  0
    7.4453  -14.9383   24.8502 C   0  0  0  0  0  0  0  0  0  0  0  0
    6.4715  -15.7467   25.4591 C   0  0  0  0  0  0  0  0  0  0  0  0
    5.8700  -14.9960   26.3775 N   0  0  0  0  0  0  0  0  0  0  0  0
    6.3866  -13.7473   26.4084 C   0  0  0  0  0  0  0  0  0  0  0  0
    6.0981  -12.6299   27.1590 C   0  0  0  0  0  0  0  0  0  0  0  0
    6.7949  -11.4584   26.9578 C   0  0  0  0  0  0  0  0  0  0  0  0
    7.7782  -11.4129   26.0032 C   0  0  0  0  0  0  0  0  0  0  0  0
    8.0681  -12.5147   25.2581 C   0  0  0  0  0  0  0  0  0  0  0  0
    7.3695  -13.7132   25.4531 C   0  0  0  0  0  0  0  0  0  0  0  0
    9.5012  -16.9061   25.4756 C   0  0  0  0  0  0  0  0  0  0  0  0
    9.6260  -18.2566   25.2103 O   0  0  0  0  0  0  0  0  0  0  0  0
    9.2435  -16.5560   26.6489 O   0  0  0  0  0  0  0  0  0  0  0  0
  2  3  1  0
  2  5  1  0
  2  1  1  1
  4  3  1  0
  5  6  2  0
  7  8  1  0
  7  5  1  0
  8 14  1  0
  8  9  1  6
 10  9  1  0
 11 12  1  0
 11 10  1  0
 13 12  1  0
 14 15  2  0
 14 16  1  0
 16 17  1  0
 17 28  1  0
 17 18  1  6
 19 18  1  0
 20 19  2  0
 21 20  1  0
 22 21  1  0
 22 27  2  0
 23 22  1  0
 24 23  2  0
 24 25  1  0
 25 26  2  0
 26 27  1  0
 27 19  1  0
 28 30  2  0
 28 29  1  0
M  END
$$$$
