CKW.pdb
     RDKit          3D

 30 31  0  0  1  0  0  0  0  0999 V2000
   10.5840  -19.2385   20.6834 N   0  0  0  0  0  0  0  0  0  0  0  0
   11.2173  -18.0192   20.3012 C   0  0  1  0  0  0  0  0  0  0  0  0
   11.5039  -18.0143   18.8147 C   0  0  0  0  0  0  0  0  0  0  0  0
   12.6551  -16.6858   18.3674 S   0  0  0  0  0  0  0  0  0  0  0  0
   10.4645  -16.8009   20.6434 C   0  0  0  0  0  0  0  0  0  0  0  0
   11.0622  -15.7021   20.5515 O   0  0  0  0  0  0  0  0  0  0  0  0
    9.1140  -16.7905   21.0680 N   0  0  0  0  0  0  0  0  0  0  0  0
    8.5164  -15.5450   21.4564 C   0  0  1  0  0  0  0  0  0  0  0  0
    7.0473  -15.4686   21.1065 C   0  0  0  0  0  0  0  0  0  0  0  0
    6.4818  -16.7653   20.6403 C   0  0  0  0  0  0  0  0  0  0  0  0
    5.3974  -17.2009   21.5951 C   0  0  0  0  0  0  0  0  0  0  0  0
    4.7336  -18.4968   21.2097 C   0  0  0  0  0  0  0  0  0  0  0  0
    3.8193  -18.3193   20.1055 N   0  0  0  0  0  0  0  0  0  0  0  0
    8.7444  -15.3252   22.9181 C   0  0  0  0  0  0  0  0  0  0  0  0
    8.0471  -14.5221   23.5879 O   0  0  0  0  0  0  0  0  0  0  0  0
    9.7687  -16.0290   23.5926 N   0  0  0  0  0  0  0  0  0  0  0  0
    9.9447  -15.9061   25.0552 C   0  0  1  0  0  0  0  0  0  0  0  0
    8.7392  -16.5462   25.6898 C   0  0  0  0  0  0  0  0  0  0  0  0
    7.6180  -15.5763   25.7658 C   0  0  0  0  0  0  0  0  0  0  0  0
    6.2748  -15.9090   25.5257 C   0  0  0  0  0  0  0  0  0  0  0  0
    5.5625  -14.8071   25.7428 N   0  0  0  0  0  0  0  0  0  0  0  0
    6.3531  -13.7736   26.1085 C   0  0  0  0  0  0  0  0  0  0  0  0
    6.0946  -12.4579   26.4210 C   0  0  0  0  0  0  0  0  0  0  0  0
    7.1262  -11.6058   26.7499 C   0  0  0  0  0  0  0  0  0  0  0  0
    8.4136  -12.0777   26.7632 C   0  0  0  0  0  0  0  0  0  0  0  0
    8.6753  -13.3776   26.4554 C   0  0  0  0  0  0  0  0  0  0  0  0
    7.6365  -14.2559   26.1213 C   0  0  0  0  0  0  0  0  0  0  0  0
   11.2255  -16.5132   25.3972 C   0  0  0  0  0  0  0  0  0  0  0  0
   12.0648  -17.0265   24.4265 O   0  0  0  0  0  0  0  0  0  0  0  0
   11.5926  -16.5814   26.5915 O   0  0  0  0  0  0  0  0  0  0  0  0
  2  3  1  0
  2  5  1  0
  2  1  1  6
  4  3  1  0
  5  6  2  0
  7  8  1  0
  7  5  1  0
  8 14  1  0
  8  9  1  1
 10  9  1  0
 11 12  1  0
 11 10  1  0
 13 12  1  0
 14 15  2  0
 14 16  1  0
 16 17  1  0
 17 28  1  0
 17 18  1  1
 19 18  1  0
 20 19  2  0
 21 20  1  0
 22 21  1  0
 22 27  2  0
 23 22  1  0
 24 23  2  0
 24 25  1  0
 25 26  2  0
 26 27  1  0
 27 19  1  0
 28 30  2  0
 28 29  1  0
M  END
$$$$
