CKW.pdb
     RDKit          3D

 30 31  0  0  1  0  0  0  0  0999 V2000
    5.7892  -15.1727   20.5469 N   0  0  0  0  0  0  0  0  0  0  0  0
    7.2111  -15.1551   20.4375 C   0  0  1  0  0  0  0  0  0  0  0  0
    7.7313  -13.7359   20.5214 C   0  0  0  0  0  0  0  0  0  0  0  0
    7.3613  -12.9900   22.1329 S   0  0  0  0  0  0  0  0  0  0  0  0
    7.9155  -15.9785   21.4344 C   0  0  0  0  0  0  0  0  0  0  0  0
    7.2935  -16.2870   22.4789 O   0  0  0  0  0  0  0  0  0  0  0  0
    9.2452  -16.4427   21.2898 N   0  0  0  0  0  0  0  0  0  0  0  0
    9.7691  -17.3646   22.2566 C   0  0  1  0  0  0  0  0  0  0  0  0
   10.9937  -18.0988   21.7588 C   0  0  0  0  0  0  0  0  0  0  0  0
   10.6735  -19.2409   20.8579 C   0  0  0  0  0  0  0  0  0  0  0  0
   11.1826  -18.9317   19.4713 C   0  0  0  0  0  0  0  0  0  0  0  0
   10.9415  -20.0358   18.4757 C   0  0  0  0  0  0  0  0  0  0  0  0
    9.7619  -19.7875   17.6799 N   0  0  0  0  0  0  0  0  0  0  0  0
   10.0479  -16.6340   23.5315 C   0  0  0  0  0  0  0  0  0  0  0  0
   10.6203  -15.5151   23.5469 O   0  0  0  0  0  0  0  0  0  0  0  0
    9.6669  -17.1958   24.7719 N   0  0  0  0  0  0  0  0  0  0  0  0
   10.0978  -16.5899   26.0496 C   0  0  1  0  0  0  0  0  0  0  0  0
    8.8765  -16.5192   26.9267 C   0  0  0  0  0  0  0  0  0  0  0  0
    7.8935  -15.5570   26.3685 C   0  0  0  0  0  0  0  0  0  0  0  0
    6.7264  -15.9352   25.6848 C   0  0  0  0  0  0  0  0  0  0  0  0
    6.0748  -14.8139   25.3900 N   0  0  0  0  0  0  0  0  0  0  0  0
    6.7409  -13.7254   25.8357 C   0  0  0  0  0  0  0  0  0  0  0  0
    6.4860  -12.3743   25.7655 C   0  0  0  0  0  0  0  0  0  0  0  0
    7.3734  -11.4704   26.3076 C   0  0  0  0  0  0  0  0  0  0  0  0
    8.5137  -11.9263   26.9176 C   0  0  0  0  0  0  0  0  0  0  0  0
    8.7709  -13.2611   26.9902 C   0  0  0  0  0  0  0  0  0  0  0  0
    7.8769  -14.1918   26.4455 C   0  0  0  0  0  0  0  0  0  0  0  0
   11.1945  -17.3965   26.5719 C   0  0  0  0  0  0  0  0  0  0  0  0
   11.9053  -17.0116   27.6929 O   0  0  0  0  0  0  0  0  0  0  0  0
   11.5160  -18.4658   26.0071 O   0  0  0  0  0  0  0  0  0  0  0  0
  2  3  1  0
  2  5  1  0
  2  1  1  1
  4  3  1  0
  5  6  2  0
  7  8  1  0
  7  5  1  0
  8 14  1  0
  8  9  1  6
 10  9  1  0
 11 12  1  0
 11 10  1  0
 13 12  1  0
 14 15  2  0
 14 16  1  0
 16 17  1  0
 17 28  1  0
 17 18  1  1
 19 18  1  0
 20 19  2  0
 21 20  1  0
 22 21  1  0
 22 27  2  0
 23 22  1  0
 24 23  2  0
 24 25  1  0
 25 26  2  0
 26 27  1  0
 27 19  1  0
 28 30  2  0
 28 29  1  0
M  END
$$$$
