CKW.pdb
     RDKit          3D

 30 31  0  0  1  0  0  0  0  0999 V2000
    6.8892  -14.1017   17.9978 N   0  0  0  0  0  0  0  0  0  0  0  0
    8.1747  -14.1539   18.6132 C   0  0  1  0  0  0  0  0  0  0  0  0
    8.5663  -12.7893   19.1388 C   0  0  0  0  0  0  0  0  0  0  0  0
   10.2201  -12.8169   19.8833 S   0  0  0  0  0  0  0  0  0  0  0  0
    8.2955  -15.1353   19.7042 C   0  0  0  0  0  0  0  0  0  0  0  0
    7.4214  -15.1167   20.6034 O   0  0  0  0  0  0  0  0  0  0  0  0
    9.3316  -16.0952   19.8028 N   0  0  0  0  0  0  0  0  0  0  0  0
    9.3368  -17.0014   20.9154 C   0  0  1  0  0  0  0  0  0  0  0  0
   10.0416  -18.3026   20.6047 C   0  0  0  0  0  0  0  0  0  0  0  0
   10.1167  -19.2277   21.7697 C   0  0  0  0  0  0  0  0  0  0  0  0
    9.5054  -20.5530   21.3859 C   0  0  0  0  0  0  0  0  0  0  0  0
    9.4167  -21.5336   22.5256 C   0  0  0  0  0  0  0  0  0  0  0  0
    9.0293  -22.8480   22.0687 N   0  0  0  0  0  0  0  0  0  0  0  0
    9.9411  -16.3197   22.1015 C   0  0  0  0  0  0  0  0  0  0  0  0
   10.7630  -15.3764   21.9809 O   0  0  0  0  0  0  0  0  0  0  0  0
    9.5952  -16.7283   23.4103 N   0  0  0  0  0  0  0  0  0  0  0  0
   10.1402  -16.0345   24.5964 C   0  0  1  0  0  0  0  0  0  0  0  0
    9.5870  -14.6349   24.5691 C   0  0  0  0  0  0  0  0  0  0  0  0
    8.2318  -14.6023   25.1744 C   0  0  0  0  0  0  0  0  0  0  0  0
    7.3697  -15.7097   25.2285 C   0  0  0  0  0  0  0  0  0  0  0  0
    6.2834  -15.3176   25.8881 N   0  0  0  0  0  0  0  0  0  0  0  0
    6.3782  -14.0240   26.2684 C   0  0  0  0  0  0  0  0  0  0  0  0
    5.5287  -13.1799   26.9475 C   0  0  0  0  0  0  0  0  0  0  0  0
    5.8914  -11.8721   27.1851 C   0  0  0  0  0  0  0  0  0  0  0  0
    7.1055  -11.4164   26.7395 C   0  0  0  0  0  0  0  0  0  0  0  0
    7.9499  -12.2464   26.0677 C   0  0  0  0  0  0  0  0  0  0  0  0
    7.5954  -13.5789   25.8208 C   0  0  0  0  0  0  0  0  0  0  0  0
    9.7840  -16.8228   25.7702 C   0  0  0  0  0  0  0  0  0  0  0  0
    9.0407  -17.9831   25.6637 O   0  0  0  0  0  0  0  0  0  0  0  0
   10.1496  -16.4581   26.9099 O   0  0  0  0  0  0  0  0  0  0  0  0
  2  3  1  0
  2  5  1  0
  2  1  1  1
  4  3  1  0
  5  6  2  0
  7  8  1  0
  7  5  1  0
  8 14  1  0
  8  9  1  6
 10  9  1  0
 11 12  1  0
 11 10  1  0
 13 12  1  0
 14 15  2  0
 14 16  1  0
 16 17  1  0
 17 28  1  0
 17 18  1  1
 19 18  1  0
 20 19  2  0
 21 20  1  0
 22 21  1  0
 22 27  2  0
 23 22  1  0
 24 23  2  0
 24 25  1  0
 25 26  2  0
 26 27  1  0
 27 19  1  0
 28 30  2  0
 28 29  1  0
M  END
$$$$
