CKW.pdb
     RDKit          3D

 30 31  0  0  1  0  0  0  0  0999 V2000
    7.1822  -15.1365   17.4262 N   0  0  0  0  0  0  0  0  0  0  0  0
    8.1216  -14.7872   18.4408 C   0  0  1  0  0  0  0  0  0  0  0  0
    7.7886  -13.4319   19.0273 C   0  0  0  0  0  0  0  0  0  0  0  0
    8.9714  -12.9616   20.3194 S   0  0  0  0  0  0  0  0  0  0  0  0
    8.2352  -15.7637   19.5370 C   0  0  0  0  0  0  0  0  0  0  0  0
    7.1739  -16.1663   20.0703 O   0  0  0  0  0  0  0  0  0  0  0  0
    9.4615  -16.2753   20.0258 N   0  0  0  0  0  0  0  0  0  0  0  0
    9.4436  -17.1763   21.1425 C   0  0  1  0  0  0  0  0  0  0  0  0
   10.0682  -18.5155   20.8217 C   0  0  0  0  0  0  0  0  0  0  0  0
   10.0555  -19.4646   21.9696 C   0  0  0  0  0  0  0  0  0  0  0  0
   10.6678  -20.7730   21.5331 C   0  0  0  0  0  0  0  0  0  0  0  0
    9.8117  -21.9748   21.8352 C   0  0  0  0  0  0  0  0  0  0  0  0
   10.4858  -23.2073   21.4990 N   0  0  0  0  0  0  0  0  0  0  0  0
   10.1128  -16.5246   22.3105 C   0  0  0  0  0  0  0  0  0  0  0  0
   11.2844  -16.0745   22.2414 O   0  0  0  0  0  0  0  0  0  0  0  0
    9.4301  -16.3974   23.5423 N   0  0  0  0  0  0  0  0  0  0  0  0
   10.1048  -15.8458   24.7363 C   0  0  1  0  0  0  0  0  0  0  0  0
    9.6937  -14.4011   24.8350 C   0  0  0  0  0  0  0  0  0  0  0  0
    8.2751  -14.2947   25.2593 C   0  0  0  0  0  0  0  0  0  0  0  0
    7.3641  -15.3633   25.2276 C   0  0  0  0  0  0  0  0  0  0  0  0
    6.2212  -14.9074   25.7322 N   0  0  0  0  0  0  0  0  0  0  0  0
    6.3247  -13.6084   26.0913 C   0  0  0  0  0  0  0  0  0  0  0  0
    5.4341  -12.7104   26.6353 C   0  0  0  0  0  0  0  0  0  0  0  0
    5.8220  -11.4125   26.8872 C   0  0  0  0  0  0  0  0  0  0  0  0
    7.1024  -11.0208   26.5914 C   0  0  0  0  0  0  0  0  0  0  0  0
    7.9874  -11.9043   26.0537 C   0  0  0  0  0  0  0  0  0  0  0  0
    7.6079  -13.2275   25.7942 C   0  0  0  0  0  0  0  0  0  0  0  0
    9.7353  -16.6782   25.8750 C   0  0  0  0  0  0  0  0  0  0  0  0
   10.3289  -16.5158   27.1125 O   0  0  0  0  0  0  0  0  0  0  0  0
    8.8625  -17.5662   25.7506 O   0  0  0  0  0  0  0  0  0  0  0  0
  2  3  1  0
  2  5  1  0
  2  1  1  6
  4  3  1  0
  5  6  2  0
  7  8  1  0
  7  5  1  0
  8 14  1  0
  8  9  1  6
 10  9  1  0
 11 12  1  0
 11 10  1  0
 13 12  1  0
 14 15  2  0
 14 16  1  0
 16 17  1  0
 17 28  1  0
 17 18  1  1
 19 18  1  0
 20 19  2  0
 21 20  1  0
 22 21  1  0
 22 27  2  0
 23 22  1  0
 24 23  2  0
 24 25  1  0
 25 26  2  0
 26 27  1  0
 27 19  1  0
 28 30  2  0
 28 29  1  0
M  END
$$$$
