CKW.pdb
     RDKit          3D

 30 31  0  0  1  0  0  0  0  0999 V2000
    5.3468  -18.7946   23.8810 N   0  0  0  0  0  0  0  0  0  0  0  0
    6.2242  -19.3938   22.9296 C   0  0  1  0  0  0  0  0  0  0  0  0
    5.4385  -20.2064   21.9226 C   0  0  0  0  0  0  0  0  0  0  0  0
    4.2754  -21.3308   22.7431 S   0  0  0  0  0  0  0  0  0  0  0  0
    7.0865  -18.4455   22.2049 C   0  0  0  0  0  0  0  0  0  0  0  0
    7.8420  -18.9074   21.3167 O   0  0  0  0  0  0  0  0  0  0  0  0
    7.1174  -17.0507   22.4458 N   0  0  0  0  0  0  0  0  0  0  0  0
    8.0703  -16.2436   21.7389 C   0  0  1  0  0  0  0  0  0  0  0  0
    7.4384  -15.0392   21.0780 C   0  0  0  0  0  0  0  0  0  0  0  0
    8.4187  -14.1728   20.3658 C   0  0  0  0  0  0  0  0  0  0  0  0
    7.7732  -13.6223   19.1178 C   0  0  0  0  0  0  0  0  0  0  0  0
    8.7448  -12.9740   18.1670 C   0  0  0  0  0  0  0  0  0  0  0  0
    8.0720  -12.4102   17.0198 N   0  0  0  0  0  0  0  0  0  0  0  0
    9.1661  -15.8438   22.6750 C   0  0  0  0  0  0  0  0  0  0  0  0
   10.1843  -15.2206   22.2815 O   0  0  0  0  0  0  0  0  0  0  0  0
    9.0802  -16.1638   24.0496 N   0  0  0  0  0  0  0  0  0  0  0  0
   10.2296  -15.9559   24.9557 C   0  0  1  0  0  0  0  0  0  0  0  0
    9.9220  -14.7258   25.7668 C   0  0  0  0  0  0  0  0  0  0  0  0
    8.4543  -14.5403   25.8893 C   0  0  0  0  0  0  0  0  0  0  0  0
    7.5261  -15.5943   25.8744 C   0  0  0  0  0  0  0  0  0  0  0  0
    6.3270  -15.0516   26.0649 N   0  0  0  0  0  0  0  0  0  0  0  0
    6.4101  -13.7095   26.2024 C   0  0  0  0  0  0  0  0  0  0  0  0
    5.4678  -12.7255   26.4009 C   0  0  0  0  0  0  0  0  0  0  0  0
    5.8499  -11.4047   26.4889 C   0  0  0  0  0  0  0  0  0  0  0  0
    7.1766  -11.0765   26.3767 C   0  0  0  0  0  0  0  0  0  0  0  0
    8.1128  -12.0451   26.1808 C   0  0  0  0  0  0  0  0  0  0  0  0
    7.7393  -13.3923   26.0914 C   0  0  0  0  0  0  0  0  0  0  0  0
   10.4109  -17.1809   25.7254 C   0  0  0  0  0  0  0  0  0  0  0  0
   11.4735  -17.3380   26.5951 O   0  0  0  0  0  0  0  0  0  0  0  0
    9.5969  -18.1243   25.6110 O   0  0  0  0  0  0  0  0  0  0  0  0
  2  3  1  0
  2  5  1  0
  2  1  1  1
  4  3  1  0
  5  6  2  0
  7  8  1  0
  7  5  1  0
  8 14  1  0
  8  9  1  1
 10  9  1  0
 11 12  1  0
 11 10  1  0
 13 12  1  0
 14 15  2  0
 14 16  1  0
 16 17  1  0
 17 28  1  0
 17 18  1  1
 19 18  1  0
 20 19  2  0
 21 20  1  0
 22 21  1  0
 22 27  2  0
 23 22  1  0
 24 23  2  0
 24 25  1  0
 25 26  2  0
 26 27  1  0
 27 19  1  0
 28 30  2  0
 28 29  1  0
M  END
$$$$
