CKW.pdb
     RDKit          3D

 30 31  0  0  1  0  0  0  0  0999 V2000
    7.6183  -19.4766   19.6079 N   0  0  0  0  0  0  0  0  0  0  0  0
    7.2630  -18.6459   20.7113 C   0  0  1  0  0  0  0  0  0  0  0  0
    7.2121  -19.4556   21.9893 C   0  0  0  0  0  0  0  0  0  0  0  0
    6.5732  -18.4702   23.3717 S   0  0  0  0  0  0  0  0  0  0  0  0
    8.1469  -17.4866   20.9187 C   0  0  0  0  0  0  0  0  0  0  0  0
    9.3591  -17.6191   20.6256 O   0  0  0  0  0  0  0  0  0  0  0  0
    7.7174  -16.2366   21.4261 N   0  0  0  0  0  0  0  0  0  0  0  0
    8.6329  -15.1316   21.4198 C   0  0  1  0  0  0  0  0  0  0  0  0
    7.9316  -13.7933   21.3613 C   0  0  0  0  0  0  0  0  0  0  0  0
    7.3225  -13.5019   20.0336 C   0  0  0  0  0  0  0  0  0  0  0  0
    8.3884  -13.6035   18.9702 C   0  0  0  0  0  0  0  0  0  0  0  0
    7.9044  -13.2468   17.5893 C   0  0  0  0  0  0  0  0  0  0  0  0
    8.9612  -13.3529   16.6103 N   0  0  0  0  0  0  0  0  0  0  0  0
    9.5295  -15.2295   22.6128 C   0  0  0  0  0  0  0  0  0  0  0  0
   10.5288  -14.4811   22.7586 O   0  0  0  0  0  0  0  0  0  0  0  0
    9.2688  -16.1840   23.6229 N   0  0  0  0  0  0  0  0  0  0  0  0
   10.0749  -16.2254   24.8614 C   0  0  1  0  0  0  0  0  0  0  0  0
    9.8175  -14.9319   25.5867 C   0  0  0  0  0  0  0  0  0  0  0  0
    8.3598  -14.7286   25.7808 C   0  0  0  0  0  0  0  0  0  0  0  0
    7.4032  -15.7510   25.6698 C   0  0  0  0  0  0  0  0  0  0  0  0
    6.2259  -15.2077   25.9656 N   0  0  0  0  0  0  0  0  0  0  0  0
    6.3498  -13.8948   26.2620 C   0  0  0  0  0  0  0  0  0  0  0  0
    5.4413  -12.9207   26.6104 C   0  0  0  0  0  0  0  0  0  0  0  0
    5.8619  -11.6298   26.8450 C   0  0  0  0  0  0  0  0  0  0  0  0
    7.1929  -11.3215   26.7282 C   0  0  0  0  0  0  0  0  0  0  0  0
    8.0958  -12.2804   26.3844 C   0  0  0  0  0  0  0  0  0  0  0  0
    7.6831  -13.5974   26.1450 C   0  0  0  0  0  0  0  0  0  0  0  0
    9.7026  -17.4329   25.5891 C   0  0  0  0  0  0  0  0  0  0  0  0
   10.3206  -17.7821   26.7749 O   0  0  0  0  0  0  0  0  0  0  0  0
    8.8050  -18.1844   25.1473 O   0  0  0  0  0  0  0  0  0  0  0  0
  2  3  1  0
  2  5  1  0
  2  1  1  6
  4  3  1  0
  5  6  2  0
  7  8  1  0
  7  5  1  0
  8 14  1  0
  8  9  1  1
 10  9  1  0
 11 12  1  0
 11 10  1  0
 13 12  1  0
 14 15  2  0
 14 16  1  0
 16 17  1  0
 17 28  1  0
 17 18  1  1
 19 18  1  0
 20 19  2  0
 21 20  1  0
 22 21  1  0
 22 27  2  0
 23 22  1  0
 24 23  2  0
 24 25  1  0
 25 26  2  0
 26 27  1  0
 27 19  1  0
 28 30  2  0
 28 29  1  0
M  END
$$$$
