CKW.pdb
     RDKit          3D

 30 31  0  0  1  0  0  0  0  0999 V2000
    6.9489  -14.7691   18.4518 N   0  0  0  0  0  0  0  0  0  0  0  0
    7.9461  -14.3343   19.3740 C   0  0  1  0  0  0  0  0  0  0  0  0
    7.5074  -13.0624   20.0679 C   0  0  0  0  0  0  0  0  0  0  0  0
    8.7729  -12.4695   21.2243 S   0  0  0  0  0  0  0  0  0  0  0  0
    8.3160  -15.3287   20.3950 C   0  0  0  0  0  0  0  0  0  0  0  0
    7.3881  -15.8781   21.0355 O   0  0  0  0  0  0  0  0  0  0  0  0
    9.6472  -15.7029   20.6989 N   0  0  0  0  0  0  0  0  0  0  0  0
    9.8742  -16.7699   21.6311 C   0  0  1  0  0  0  0  0  0  0  0  0
   10.9968  -17.6886   21.2042 C   0  0  0  0  0  0  0  0  0  0  0  0
   10.9070  -19.0500   21.8018 C   0  0  0  0  0  0  0  0  0  0  0  0
   10.3478  -20.0029   20.7739 C   0  0  0  0  0  0  0  0  0  0  0  0
   10.1841  -21.4126   21.2783 C   0  0  0  0  0  0  0  0  0  0  0  0
    9.7292  -22.3022   20.2351 N   0  0  0  0  0  0  0  0  0  0  0  0
   10.1240  -16.1923   22.9879 C   0  0  0  0  0  0  0  0  0  0  0  0
   10.8582  -15.1865   23.1591 O   0  0  0  0  0  0  0  0  0  0  0  0
    9.5288  -16.7751   24.1304 N   0  0  0  0  0  0  0  0  0  0  0  0
    9.8131  -16.2604   25.4867 C   0  0  1  0  0  0  0  0  0  0  0  0
    8.5990  -16.5597   26.3246 C   0  0  0  0  0  0  0  0  0  0  0  0
    7.5328  -15.5595   26.0665 C   0  0  0  0  0  0  0  0  0  0  0  0
    6.2726  -15.8756   25.5330 C   0  0  0  0  0  0  0  0  0  0  0  0
    5.5751  -14.7436   25.5012 N   0  0  0  0  0  0  0  0  0  0  0  0
    6.2981  -13.7061   25.9786 C   0  0  0  0  0  0  0  0  0  0  0  0
    6.0271  -12.3653   26.1343 C   0  0  0  0  0  0  0  0  0  0  0  0
    6.9851  -11.5173   26.6455 C   0  0  0  0  0  0  0  0  0  0  0  0
    8.2119  -12.0184   26.9979 C   0  0  0  0  0  0  0  0  0  0  0  0
    8.4855  -13.3433   26.8465 C   0  0  0  0  0  0  0  0  0  0  0  0
    7.5206  -14.2176   26.3301 C   0  0  0  0  0  0  0  0  0  0  0  0
   11.0525  -16.8792   25.9418 C   0  0  0  0  0  0  0  0  0  0  0  0
   11.6547  -17.9000   25.2309 O   0  0  0  0  0  0  0  0  0  0  0  0
   11.6003  -16.4920   26.9981 O   0  0  0  0  0  0  0  0  0  0  0  0
  2  3  1  0
  2  5  1  0
  2  1  1  1
  4  3  1  0
  5  6  2  0
  7  8  1  0
  7  5  1  0
  8 14  1  0
  8  9  1  6
 10  9  1  0
 11 12  1  0
 11 10  1  0
 13 12  1  0
 14 15  2  0
 14 16  1  0
 16 17  1  0
 17 28  1  0
 17 18  1  1
 19 18  1  0
 20 19  2  0
 21 20  1  0
 22 21  1  0
 22 27  2  0
 23 22  1  0
 24 23  2  0
 24 25  1  0
 25 26  2  0
 26 27  1  0
 27 19  1  0
 28 30  2  0
 28 29  1  0
M  END
$$$$
