CKW.pdb
     RDKit          3D

 30 31  0  0  1  0  0  0  0  0999 V2000
    6.2149  -19.8524   20.9271 N   0  0  0  0  0  0  0  0  0  0  0  0
    6.4919  -18.7866   21.8334 C   0  0  1  0  0  0  0  0  0  0  0  0
    6.7148  -19.3241   23.2310 C   0  0  0  0  0  0  0  0  0  0  0  0
    5.1437  -19.5704   24.1033 S   0  0  0  0  0  0  0  0  0  0  0  0
    7.6403  -17.9440   21.4602 C   0  0  0  0  0  0  0  0  0  0  0  0
    8.5955  -18.4936   20.8615 O   0  0  0  0  0  0  0  0  0  0  0  0
    7.7349  -16.5580   21.7331 N   0  0  0  0  0  0  0  0  0  0  0  0
    8.9004  -15.8417   21.3000 C   0  0  1  0  0  0  0  0  0  0  0  0
    8.5639  -14.5197   20.6477 C   0  0  0  0  0  0  0  0  0  0  0  0
    7.8738  -14.6659   19.3358 C   0  0  0  0  0  0  0  0  0  0  0  0
    8.4023  -13.6220   18.3827 C   0  0  0  0  0  0  0  0  0  0  0  0
    7.8017  -13.6991   17.0037 C   0  0  0  0  0  0  0  0  0  0  0  0
    8.4737  -12.8154   16.0796 N   0  0  0  0  0  0  0  0  0  0  0  0
    9.8256  -15.6607   22.4611 C   0  0  0  0  0  0  0  0  0  0  0  0
   10.9620  -15.1392   22.3327 O   0  0  0  0  0  0  0  0  0  0  0  0
    9.4359  -16.0800   23.7541 N   0  0  0  0  0  0  0  0  0  0  0  0
   10.3414  -15.9263   24.9124 C   0  0  1  0  0  0  0  0  0  0  0  0
    9.9430  -14.6505   25.6047 C   0  0  0  0  0  0  0  0  0  0  0  0
    8.4712  -14.6013   25.7920 C   0  0  0  0  0  0  0  0  0  0  0  0
    7.6383  -15.7319   25.7653 C   0  0  0  0  0  0  0  0  0  0  0  0
    6.4057  -15.3061   26.0264 N   0  0  0  0  0  0  0  0  0  0  0  0
    6.3776  -13.9688   26.2213 C   0  0  0  0  0  0  0  0  0  0  0  0
    5.3627  -13.0815   26.5004 C   0  0  0  0  0  0  0  0  0  0  0  0
    5.6319  -11.7368   26.6334 C   0  0  0  0  0  0  0  0  0  0  0  0
    6.9190  -11.2879   26.4850 C   0  0  0  0  0  0  0  0  0  0  0  0
    7.9267  -12.1606   26.2093 C   0  0  0  0  0  0  0  0  0  0  0  0
    7.6683  -13.5306   26.0735 C   0  0  0  0  0  0  0  0  0  0  0  0
   10.2313  -17.1348   25.7209 C   0  0  0  0  0  0  0  0  0  0  0  0
    9.4554  -18.2056   25.3190 O   0  0  0  0  0  0  0  0  0  0  0  0
   10.8455  -17.2253   26.8073 O   0  0  0  0  0  0  0  0  0  0  0  0
  2  3  1  0
  2  5  1  0
  2  1  1  6
  4  3  1  0
  5  6  2  0
  7  8  1  0
  7  5  1  0
  8 14  1  0
  8  9  1  1
 10  9  1  0
 11 12  1  0
 11 10  1  0
 13 12  1  0
 14 15  2  0
 14 16  1  0
 16 17  1  0
 17 28  1  0
 17 18  1  1
 19 18  1  0
 20 19  2  0
 21 20  1  0
 22 21  1  0
 22 27  2  0
 23 22  1  0
 24 23  2  0
 24 25  1  0
 25 26  2  0
 26 27  1  0
 27 19  1  0
 28 30  2  0
 28 29  1  0
M  END
$$$$
