CKW.pdb
     RDKit          3D

 30 31  0  0  1  0  0  0  0  0999 V2000
    8.3229  -12.9681   18.0398 N   0  0  0  0  0  0  0  0  0  0  0  0
    8.5724  -14.2996   18.4857 C   0  0  1  0  0  0  0  0  0  0  0  0
   10.0461  -14.4953   18.7714 C   0  0  0  0  0  0  0  0  0  0  0  0
   10.6012  -13.4379   20.1368 S   0  0  0  0  0  0  0  0  0  0  0  0
    7.8009  -14.7063   19.6720 C   0  0  0  0  0  0  0  0  0  0  0  0
    7.1079  -13.8312   20.2438 O   0  0  0  0  0  0  0  0  0  0  0  0
    7.7913  -16.0172   20.2066 N   0  0  0  0  0  0  0  0  0  0  0  0
    6.8415  -16.3436   21.2315 C   0  0  1  0  0  0  0  0  0  0  0  0
    6.2871  -17.7432   21.0889 C   0  0  0  0  0  0  0  0  0  0  0  0
    5.3056  -18.1018   22.1503 C   0  0  0  0  0  0  0  0  0  0  0  0
    3.9218  -18.1378   21.5492 C   0  0  0  0  0  0  0  0  0  0  0  0
    2.9229  -18.9100   22.3704 C   0  0  0  0  0  0  0  0  0  0  0  0
    3.2559  -20.3141   22.4326 N   0  0  0  0  0  0  0  0  0  0  0  0
    7.4739  -16.1379   22.5711 C   0  0  0  0  0  0  0  0  0  0  0  0
    6.8616  -16.3811   23.6415 O   0  0  0  0  0  0  0  0  0  0  0  0
    8.7999  -15.6561   22.6659 N   0  0  0  0  0  0  0  0  0  0  0  0
    9.4732  -15.5245   23.9754 C   0  0  1  0  0  0  0  0  0  0  0  0
    8.6176  -16.2550   24.9754 C   0  0  0  0  0  0  0  0  0  0  0  0
    7.5175  -15.3798   25.4524 C   0  0  0  0  0  0  0  0  0  0  0  0
    6.1641  -15.7550   25.4621 C   0  0  0  0  0  0  0  0  0  0  0  0
    5.4906  -14.7456   26.0065 N   0  0  0  0  0  0  0  0  0  0  0  0
    6.3160  -13.7329   26.3531 C   0  0  0  0  0  0  0  0  0  0  0  0
    6.1003  -12.4990   26.9245 C   0  0  0  0  0  0  0  0  0  0  0  0
    7.1567  -11.6446   27.1532 C   0  0  0  0  0  0  0  0  0  0  0  0
    8.4256  -12.0318   26.8067 C   0  0  0  0  0  0  0  0  0  0  0  0
    8.6451  -13.2506   26.2416 C   0  0  0  0  0  0  0  0  0  0  0  0
    7.5811  -14.1306   26.0052 C   0  0  0  0  0  0  0  0  0  0  0  0
   10.8308  -16.0350   23.8258 C   0  0  0  0  0  0  0  0  0  0  0  0
   11.2936  -16.5154   22.6154 O   0  0  0  0  0  0  0  0  0  0  0  0
   11.6116  -16.0473   24.8036 O   0  0  0  0  0  0  0  0  0  0  0  0
  2  3  1  0
  2  5  1  0
  2  1  1  1
  4  3  1  0
  5  6  2  0
  7  8  1  0
  7  5  1  0
  8 14  1  0
  8  9  1  6
 10  9  1  0
 11 12  1  0
 11 10  1  0
 13 12  1  0
 14 15  2  0
 14 16  1  0
 16 17  1  0
 17 28  1  0
 17 18  1  1
 19 18  1  0
 20 19  2  0
 21 20  1  0
 22 21  1  0
 22 27  2  0
 23 22  1  0
 24 23  2  0
 24 25  1  0
 25 26  2  0
 26 27  1  0
 27 19  1  0
 28 30  2  0
 28 29  1  0
M  END
$$$$
