CKW.pdb
     RDKit          3D

 30 31  0  0  1  0  0  0  0  0999 V2000
    6.1988  -20.1019   20.5574 N   0  0  0  0  0  0  0  0  0  0  0  0
    6.2978  -19.0031   21.4612 C   0  0  1  0  0  0  0  0  0  0  0  0
    5.7034  -19.3671   22.8050 C   0  0  0  0  0  0  0  0  0  0  0  0
    5.6839  -17.9423   23.9274 S   0  0  0  0  0  0  0  0  0  0  0  0
    7.6653  -18.4978   21.6683 C   0  0  0  0  0  0  0  0  0  0  0  0
    8.5459  -19.3237   22.0077 O   0  0  0  0  0  0  0  0  0  0  0  0
    8.0481  -17.1440   21.5095 N   0  0  0  0  0  0  0  0  0  0  0  0
    9.4147  -16.7753   21.7455 C   0  0  1  0  0  0  0  0  0  0  0  0
    9.9782  -15.8942   20.6535 C   0  0  0  0  0  0  0  0  0  0  0  0
   11.4517  -15.6999   20.7513 C   0  0  0  0  0  0  0  0  0  0  0  0
   11.9141  -14.8508   19.5926 C   0  0  0  0  0  0  0  0  0  0  0  0
   13.4020  -14.6188   19.5655 C   0  0  0  0  0  0  0  0  0  0  0  0
   13.7700  -13.6351   18.5737 N   0  0  0  0  0  0  0  0  0  0  0  0
    9.5229  -16.1232   23.0872 C   0  0  0  0  0  0  0  0  0  0  0  0
    9.2928  -14.8988   23.2535 O   0  0  0  0  0  0  0  0  0  0  0  0
    9.8935  -16.8834   24.2204 N   0  0  0  0  0  0  0  0  0  0  0  0
   10.2287  -16.2292   25.5029 C   0  0  1  0  0  0  0  0  0  0  0  0
    9.1171  -16.5639   26.4610 C   0  0  0  0  0  0  0  0  0  0  0  0
    7.9317  -15.7102   26.1967 C   0  0  0  0  0  0  0  0  0  0  0  0
    6.6846  -16.2055   25.7818 C   0  0  0  0  0  0  0  0  0  0  0  0
    5.8640  -15.1617   25.7054 N   0  0  0  0  0  0  0  0  0  0  0  0
    6.4939  -14.0143   26.0425 C   0  0  0  0  0  0  0  0  0  0  0  0
    6.0843  -12.7014   26.1050 C   0  0  0  0  0  0  0  0  0  0  0  0
    6.9707  -11.7135   26.4749 C   0  0  0  0  0  0  0  0  0  0  0  0
    8.2652  -12.0473   26.7800 C   0  0  0  0  0  0  0  0  0  0  0  0
    8.6758  -13.3438   26.7203 C   0  0  0  0  0  0  0  0  0  0  0  0
    7.7853  -14.3590   26.3480 C   0  0  0  0  0  0  0  0  0  0  0  0
   11.5537  -16.6909   25.8997 C   0  0  0  0  0  0  0  0  0  0  0  0
   12.2864  -17.5538   25.1069 O   0  0  0  0  0  0  0  0  0  0  0  0
   12.0578  -16.3090   26.9794 O   0  0  0  0  0  0  0  0  0  0  0  0
  2  3  1  0
  2  5  1  0
  2  1  1  6
  4  3  1  0
  5  6  2  0
  7  8  1  0
  7  5  1  0
  8 14  1  0
  8  9  1  6
 10  9  1  0
 11 12  1  0
 11 10  1  0
 13 12  1  0
 14 15  2  0
 14 16  1  0
 16 17  1  0
 17 28  1  0
 17 18  1  1
 19 18  1  0
 20 19  2  0
 21 20  1  0
 22 21  1  0
 22 27  2  0
 23 22  1  0
 24 23  2  0
 24 25  1  0
 25 26  2  0
 26 27  1  0
 27 19  1  0
 28 30  2  0
 28 29  1  0
M  END
$$$$
