CKW.pdb
     RDKit          3D

 30 31  0  0  1  0  0  0  0  0999 V2000
    6.5266  -20.0234   20.0097 N   0  0  0  0  0  0  0  0  0  0  0  0
    6.4543  -18.7908   20.7234 C   0  0  1  0  0  0  0  0  0  0  0  0
    6.4079  -19.0443   22.2151 C   0  0  0  0  0  0  0  0  0  0  0  0
    6.0009  -17.5322   23.1306 S   0  0  0  0  0  0  0  0  0  0  0  0
    7.5481  -17.8479   20.4360 C   0  0  0  0  0  0  0  0  0  0  0  0
    8.6793  -18.3277   20.1848 O   0  0  0  0  0  0  0  0  0  0  0  0
    7.4050  -16.4394   20.4251 N   0  0  0  0  0  0  0  0  0  0  0  0
    8.5198  -15.6301   20.0234 C   0  0  1  0  0  0  0  0  0  0  0  0
    8.1502  -14.6092   18.9709 C   0  0  0  0  0  0  0  0  0  0  0  0
    8.3553  -15.0947   17.5778 C   0  0  0  0  0  0  0  0  0  0  0  0
    8.3124  -13.9173   16.6349 C   0  0  0  0  0  0  0  0  0  0  0  0
    8.3573  -14.3027   15.1796 C   0  0  0  0  0  0  0  0  0  0  0  0
    8.3966  -13.1412   14.3217 N   0  0  0  0  0  0  0  0  0  0  0  0
    9.1165  -14.9812   21.2315 C   0  0  0  0  0  0  0  0  0  0  0  0
    9.2336  -13.7334   21.3285 O   0  0  0  0  0  0  0  0  0  0  0  0
    9.5712  -15.7711   22.3126 N   0  0  0  0  0  0  0  0  0  0  0  0
    9.4904  -15.2801   23.7046 C   0  0  1  0  0  0  0  0  0  0  0  0
    8.0342  -15.0261   23.9883 C   0  0  0  0  0  0  0  0  0  0  0  0
    7.8533  -14.5573   25.3852 C   0  0  0  0  0  0  0  0  0  0  0  0
    8.1997  -15.3125   26.5176 C   0  0  0  0  0  0  0  0  0  0  0  0
    7.9502  -14.5495   27.5779 N   0  0  0  0  0  0  0  0  0  0  0  0
    7.4615  -13.3433   27.2128 C   0  0  0  0  0  0  0  0  0  0  0  0
    7.0505  -12.2408   27.9276 C   0  0  0  0  0  0  0  0  0  0  0  0
    6.5695  -11.1278   27.2733 C   0  0  0  0  0  0  0  0  0  0  0  0
    6.5025  -11.1259   25.9037 C   0  0  0  0  0  0  0  0  0  0  0  0
    6.9078  -12.2129   25.1915 C   0  0  0  0  0  0  0  0  0  0  0  0
    7.4009  -13.3507   25.8430 C   0  0  0  0  0  0  0  0  0  0  0  0
   10.1279  -16.2742   24.5599 C   0  0  0  0  0  0  0  0  0  0  0  0
   10.2141  -17.6018   24.1856 O   0  0  0  0  0  0  0  0  0  0  0  0
   10.6148  -15.9387   25.6627 O   0  0  0  0  0  0  0  0  0  0  0  0
  2  3  1  0
  2  5  1  0
  2  1  1  6
  4  3  1  0
  5  6  2  0
  7  8  1  0
  7  5  1  0
  8 14  1  0
  8  9  1  6
 10  9  1  0
 11 12  1  0
 11 10  1  0
 13 12  1  0
 14 15  2  0
 14 16  1  0
 16 17  1  0
 17 28  1  0
 17 18  1  1
 19 18  1  0
 20 19  2  0
 21 20  1  0
 22 21  1  0
 22 27  2  0
 23 22  1  0
 24 23  2  0
 24 25  1  0
 25 26  2  0
 26 27  1  0
 27 19  1  0
 28 30  2  0
 28 29  1  0
M  END
$$$$
