CKW.pdb
     RDKit          3D

 30 31  0  0  1  0  0  0  0  0999 V2000
    7.0244  -19.5002   19.6996 N   0  0  0  0  0  0  0  0  0  0  0  0
    6.8260  -18.6432   20.8221 C   0  0  1  0  0  0  0  0  0  0  0  0
    6.8147  -19.4456   22.1058 C   0  0  0  0  0  0  0  0  0  0  0  0
    6.5693  -18.3776   23.5513 S   0  0  0  0  0  0  0  0  0  0  0  0
    7.8126  -17.5576   20.9497 C   0  0  0  0  0  0  0  0  0  0  0  0
    8.9858  -17.7899   20.5723 O   0  0  0  0  0  0  0  0  0  0  0  0
    7.5225  -16.2730   21.4694 N   0  0  0  0  0  0  0  0  0  0  0  0
    8.5088  -15.2371   21.3544 C   0  0  1  0  0  0  0  0  0  0  0  0
    7.8976  -13.8710   21.1380 C   0  0  0  0  0  0  0  0  0  0  0  0
    7.2451  -13.7186   19.8078 C   0  0  0  0  0  0  0  0  0  0  0  0
    8.3103  -13.6661   18.7402 C   0  0  0  0  0  0  0  0  0  0  0  0
    7.7657  -13.4897   17.3471 C   0  0  0  0  0  0  0  0  0  0  0  0
    8.8085  -13.5814   16.3517 N   0  0  0  0  0  0  0  0  0  0  0  0
    9.3881  -15.2594   22.5640 C   0  0  0  0  0  0  0  0  0  0  0  0
   10.3548  -14.4676   22.6998 O   0  0  0  0  0  0  0  0  0  0  0  0
    9.1477  -16.1891   23.6019 N   0  0  0  0  0  0  0  0  0  0  0  0
    9.9802  -16.2027   24.8234 C   0  0  1  0  0  0  0  0  0  0  0  0
    9.7676  -14.8775   25.5048 C   0  0  0  0  0  0  0  0  0  0  0  0
    8.3190  -14.6301   25.7147 C   0  0  0  0  0  0  0  0  0  0  0  0
    7.3322  -15.6259   25.6288 C   0  0  0  0  0  0  0  0  0  0  0  0
    6.1748  -15.0454   25.9326 N   0  0  0  0  0  0  0  0  0  0  0  0
    6.3401  -13.7331   26.2109 C   0  0  0  0  0  0  0  0  0  0  0  0
    5.4644  -12.7292   26.5586 C   0  0  0  0  0  0  0  0  0  0  0  0
    5.9247  -11.4481   26.7715 C   0  0  0  0  0  0  0  0  0  0  0  0
    7.2624  -11.1795   26.6340 C   0  0  0  0  0  0  0  0  0  0  0  0
    8.1330  -12.1682   26.2908 C   0  0  0  0  0  0  0  0  0  0  0  0
    7.6797  -13.4756   26.0733 C   0  0  0  0  0  0  0  0  0  0  0  0
    9.5978  -17.3734   25.6040 C   0  0  0  0  0  0  0  0  0  0  0  0
   10.1873  -17.6547   26.8219 O   0  0  0  0  0  0  0  0  0  0  0  0
    8.7174  -18.1547   25.1796 O   0  0  0  0  0  0  0  0  0  0  0  0
  2  3  1  0
  2  5  1  0
  2  1  1  6
  4  3  1  0
  5  6  2  0
  7  8  1  0
  7  5  1  0
  8 14  1  0
  8  9  1  1
 10  9  1  0
 11 12  1  0
 11 10  1  0
 13 12  1  0
 14 15  2  0
 14 16  1  0
 16 17  1  0
 17 28  1  0
 17 18  1  1
 19 18  1  0
 20 19  2  0
 21 20  1  0
 22 21  1  0
 22 27  2  0
 23 22  1  0
 24 23  2  0
 24 25  1  0
 25 26  2  0
 26 27  1  0
 27 19  1  0
 28 30  2  0
 28 29  1  0
M  END
$$$$
