CKW.pdb
     RDKit          3D

 30 31  0  0  1  0  0  0  0  0999 V2000
    7.0593  -20.0629   20.5543 N   0  0  0  0  0  0  0  0  0  0  0  0
    6.8044  -19.0583   21.5340 C   0  0  1  0  0  0  0  0  0  0  0  0
    6.9713  -19.6236   22.9284 C   0  0  0  0  0  0  0  0  0  0  0  0
    5.7610  -20.9334   23.2603 S   0  0  0  0  0  0  0  0  0  0  0  0
    7.6377  -17.8508   21.4087 C   0  0  0  0  0  0  0  0  0  0  0  0
    8.7789  -17.9807   20.9049 O   0  0  0  0  0  0  0  0  0  0  0  0
    7.2345  -16.5571   21.8190 N   0  0  0  0  0  0  0  0  0  0  0  0
    8.0977  -15.4422   21.5524 C   0  0  1  0  0  0  0  0  0  0  0  0
    7.3346  -14.1650   21.2824 C   0  0  0  0  0  0  0  0  0  0  0  0
    6.8074  -14.0734   19.8923 C   0  0  0  0  0  0  0  0  0  0  0  0
    7.9275  -13.6652   18.9671 C   0  0  0  0  0  0  0  0  0  0  0  0
    7.4955  -13.4776   17.5365 C   0  0  0  0  0  0  0  0  0  0  0  0
    8.5951  -13.0597   16.6982 N   0  0  0  0  0  0  0  0  0  0  0  0
    9.0552  -15.2793   22.6898 C   0  0  0  0  0  0  0  0  0  0  0  0
   10.0341  -14.4931   22.6293 O   0  0  0  0  0  0  0  0  0  0  0  0
    8.8779  -16.0195   23.8814 N   0  0  0  0  0  0  0  0  0  0  0  0
    9.8171  -15.8801   25.0144 C   0  0  1  0  0  0  0  0  0  0  0  0
    8.9922  -15.9620   26.2707 C   0  0  0  0  0  0  0  0  0  0  0  0
    7.8374  -15.0324   26.1930 C   0  0  0  0  0  0  0  0  0  0  0  0
    6.5093  -15.4453   25.9970 C   0  0  0  0  0  0  0  0  0  0  0  0
    5.7569  -14.3494   26.0416 N   0  0  0  0  0  0  0  0  0  0  0  0
    6.5072  -13.2452   26.2531 C   0  0  0  0  0  0  0  0  0  0  0  0
    6.1998  -11.9077   26.3629 C   0  0  0  0  0  0  0  0  0  0  0  0
    7.1975  -10.9795   26.5668 C   0  0  0  0  0  0  0  0  0  0  0  0
    8.5002  -11.3976   26.6591 C   0  0  0  0  0  0  0  0  0  0  0  0
    8.8101  -12.7188   26.5516 C   0  0  0  0  0  0  0  0  0  0  0  0
    7.8062  -13.6739   26.3464 C   0  0  0  0  0  0  0  0  0  0  0  0
   10.8374  -16.9118   24.8703 C   0  0  0  0  0  0  0  0  0  0  0  0
   11.9033  -17.0020   25.7454 O   0  0  0  0  0  0  0  0  0  0  0  0
   10.7654  -17.7448   23.9394 O   0  0  0  0  0  0  0  0  0  0  0  0
  2  3  1  0
  2  5  1  0
  2  1  1  6
  4  3  1  0
  5  6  2  0
  7  8  1  0
  7  5  1  0
  8 14  1  0
  8  9  1  1
 10  9  1  0
 11 12  1  0
 11 10  1  0
 13 12  1  0
 14 15  2  0
 14 16  1  0
 16 17  1  0
 17 28  1  0
 17 18  1  1
 19 18  1  0
 20 19  2  0
 21 20  1  0
 22 21  1  0
 22 27  2  0
 23 22  1  0
 24 23  2  0
 24 25  1  0
 25 26  2  0
 26 27  1  0
 27 19  1  0
 28 30  2  0
 28 29  1  0
M  END
$$$$
