CKW.pdb
     RDKit          3D

 30 31  0  0  1  0  0  0  0  0999 V2000
    6.8912  -13.7060   18.1156 N   0  0  0  0  0  0  0  0  0  0  0  0
    8.1857  -13.8944   18.6836 C   0  0  1  0  0  0  0  0  0  0  0  0
    8.7561  -12.5727   19.1522 C   0  0  0  0  0  0  0  0  0  0  0  0
   10.4223  -12.7779   19.8393 S   0  0  0  0  0  0  0  0  0  0  0  0
    8.2347  -14.8546   19.7989 C   0  0  0  0  0  0  0  0  0  0  0  0
    7.4553  -14.6668   20.7634 O   0  0  0  0  0  0  0  0  0  0  0  0
    9.1023  -15.9721   19.8519 N   0  0  0  0  0  0  0  0  0  0  0  0
    8.9940  -16.8852   20.9536 C   0  0  1  0  0  0  0  0  0  0  0  0
    9.3793  -18.2988   20.5798 C   0  0  0  0  0  0  0  0  0  0  0  0
    9.3342  -19.2475   21.7272 C   0  0  0  0  0  0  0  0  0  0  0  0
    9.7392  -20.6197   21.2474 C   0  0  0  0  0  0  0  0  0  0  0  0
    9.7738  -21.6585   22.3375 C   0  0  0  0  0  0  0  0  0  0  0  0
    9.0864  -22.8666   21.9443 N   0  0  0  0  0  0  0  0  0  0  0  0
    9.8147  -16.3766   22.0958 C   0  0  0  0  0  0  0  0  0  0  0  0
   10.9814  -15.9376   21.9345 O   0  0  0  0  0  0  0  0  0  0  0  0
    9.2871  -16.3779   23.4077 N   0  0  0  0  0  0  0  0  0  0  0  0
   10.1089  -15.9568   24.5620 C   0  0  1  0  0  0  0  0  0  0  0  0
    9.7366  -14.5286   24.8581 C   0  0  0  0  0  0  0  0  0  0  0  0
    8.3166  -14.4413   25.2819 C   0  0  0  0  0  0  0  0  0  0  0  0
    7.4252  -15.5266   25.2680 C   0  0  0  0  0  0  0  0  0  0  0  0
    6.2744  -15.0835   25.7662 N   0  0  0  0  0  0  0  0  0  0  0  0
    6.3545  -13.7773   26.1044 C   0  0  0  0  0  0  0  0  0  0  0  0
    5.4480  -12.8871   26.6347 C   0  0  0  0  0  0  0  0  0  0  0  0
    5.8123  -11.5785   26.8655 C   0  0  0  0  0  0  0  0  0  0  0  0
    7.0852  -11.1684   26.5624 C   0  0  0  0  0  0  0  0  0  0  0  0
    7.9859  -12.0441   26.0382 C   0  0  0  0  0  0  0  0  0  0  0  0
    7.6304  -13.3780   25.8002 C   0  0  0  0  0  0  0  0  0  0  0  0
    9.8643  -16.9020   25.6450 C   0  0  0  0  0  0  0  0  0  0  0  0
    8.9596  -17.9380   25.5101 O   0  0  0  0  0  0  0  0  0  0  0  0
   10.4771  -16.7906   26.7303 O   0  0  0  0  0  0  0  0  0  0  0  0
  2  3  1  0
  2  5  1  0
  2  1  1  1
  4  3  1  0
  5  6  2  0
  7  8  1  0
  7  5  1  0
  8 14  1  0
  8  9  1  6
 10  9  1  0
 11 12  1  0
 11 10  1  0
 13 12  1  0
 14 15  2  0
 14 16  1  0
 16 17  1  0
 17 28  1  0
 17 18  1  1
 19 18  1  0
 20 19  2  0
 21 20  1  0
 22 21  1  0
 22 27  2  0
 23 22  1  0
 24 23  2  0
 24 25  1  0
 25 26  2  0
 26 27  1  0
 27 19  1  0
 28 30  2  0
 28 29  1  0
M  END
$$$$
