GCQ.pdb
     RDKit          3D

 20 19  0  0  1  0  0  0  0  0999 V2000
   17.5968  -12.8013  -15.5700 N   0  0  0  0  0  0  0  0  0  0  0  0
   16.8997  -11.5304  -15.6007 C   0  0  0  0  0  0  0  0  0  0  0  0
   17.4262  -10.6854  -14.5176 C   0  0  0  0  0  0  0  0  0  0  0  0
   17.2527  -11.0082  -13.3057 O   0  0  0  0  0  0  0  0  0  0  0  0
   18.1505   -9.4739  -14.7612 N   0  0  0  0  0  0  0  0  0  0  0  0
   18.5070   -8.6268  -13.6735 C   0  0  1  0  0  0  0  0  0  0  0  0
   19.6790   -7.7476  -14.0453 C   0  0  0  0  0  0  0  0  0  0  0  0
   21.2588   -8.5722  -13.8659 S   0  0  0  0  0  0  0  0  0  0  0  0
   17.3908   -7.7605  -13.2154 C   0  0  0  0  0  0  0  0  0  0  0  0
   16.5617   -7.3146  -14.0489 O   0  0  0  0  0  0  0  0  0  0  0  0
   15.2764   -7.0645   -7.2271 N   0  0  0  0  0  0  0  0  0  0  0  0
   14.3520   -6.2631   -7.9851 C   0  0  0  0  0  0  0  0  0  0  0  0
   13.3908   -5.7283   -7.3870 O   0  0  0  0  0  0  0  0  0  0  0  0
   14.6010   -6.1212   -9.4379 C   0  0  0  0  0  0  0  0  0  0  0  0
   15.8322   -6.8139   -9.9069 C   0  0  0  0  0  0  0  0  0  0  0  0
   16.0630   -6.6210  -11.3830 C   0  0  2  0  0  0  0  0  0  0  0  0
   17.1988   -7.3964  -11.8574 N   0  0  0  0  0  0  0  0  0  0  0  0
   16.4325   -5.1649  -11.5310 C   0  0  0  0  0  0  0  0  0  0  0  0
   17.6231   -4.7806  -11.4756 O   0  0  0  0  0  0  0  0  0  0  0  0
   15.4622   -4.1978  -11.7344 O   0  0  0  0  0  0  0  0  0  0  0  0
  1  2  1  0
  3  4  2  0
  3  2  1  0
  5  3  1  0
  6  5  1  0
  7  8  1  0
  6  7  1  6
  9  6  1  0
  9 10  2  0
 11 12  1  0
 12 14  1  0
 13 12  2  0
 14 15  1  0
 16 17  1  0
 16 15  1  1
 17  9  1  0
 18 16  1  0
 19 18  2  0
 20 18  1  0
M  END
$$$$
