GCQ.pdb
     RDKit          3D

 20 19  0  0  1  0  0  0  0  0999 V2000
   19.8679  -12.0712  -17.5150 N   0  0  0  0  0  0  0  0  0  0  0  0
   18.6278  -11.4762  -17.0564 C   0  0  0  0  0  0  0  0  0  0  0  0
   18.9517  -10.2807  -16.2627 C   0  0  0  0  0  0  0  0  0  0  0  0
   18.0355   -9.6142  -15.6975 O   0  0  0  0  0  0  0  0  0  0  0  0
   20.2919   -9.8077  -16.0841 N   0  0  0  0  0  0  0  0  0  0  0  0
   20.5324   -8.6089  -15.3544 C   0  0  1  0  0  0  0  0  0  0  0  0
   21.7945   -8.7305  -14.5315 C   0  0  0  0  0  0  0  0  0  0  0  0
   22.0960   -7.3013  -13.4949 S   0  0  0  0  0  0  0  0  0  0  0  0
   20.6453   -7.4080  -16.2213 C   0  0  0  0  0  0  0  0  0  0  0  0
   21.4556   -7.4039  -17.1827 O   0  0  0  0  0  0  0  0  0  0  0  0
   16.1503   -3.3097  -16.4060 N   0  0  0  0  0  0  0  0  0  0  0  0
   16.3011   -4.2413  -17.4926 C   0  0  0  0  0  0  0  0  0  0  0  0
   15.2957   -4.5281  -18.1812 O   0  0  0  0  0  0  0  0  0  0  0  0
   17.6500   -4.8050  -17.7281 C   0  0  0  0  0  0  0  0  0  0  0  0
   18.7011   -4.2402  -16.8383 C   0  0  0  0  0  0  0  0  0  0  0  0
   19.9680   -5.0545  -16.8706 C   0  0  2  0  0  0  0  0  0  0  0  0
   19.8730   -6.2340  -16.0243 N   0  0  0  0  0  0  0  0  0  0  0  0
   21.0200   -4.1599  -16.2611 C   0  0  0  0  0  0  0  0  0  0  0  0
   21.4838   -4.3761  -15.1180 O   0  0  0  0  0  0  0  0  0  0  0  0
   21.5118   -3.0628  -16.9485 O   0  0  0  0  0  0  0  0  0  0  0  0
  1  2  1  0
  3  4  2  0
  3  2  1  0
  5  3  1  0
  6  5  1  0
  7  8  1  0
  6  7  1  6
  9  6  1  0
  9 10  2  0
 11 12  1  0
 12 14  1  0
 13 12  2  0
 14 15  1  0
 16 17  1  0
 16 15  1  1
 17  9  1  0
 18 16  1  0
 19 18  2  0
 20 18  1  0
M  END
$$$$
