GCQ.pdb
     RDKit          3D

 20 19  0  0  1  0  0  0  0  0999 V2000
   19.4266  -15.4754  -18.3276 N   0  0  0  0  0  0  0  0  0  0  0  0
   20.4576  -14.5806  -18.8161 C   0  0  0  0  0  0  0  0  0  0  0  0
   21.0062  -13.8355  -17.6723 C   0  0  0  0  0  0  0  0  0  0  0  0
   20.4676  -13.9201  -16.5295 O   0  0  0  0  0  0  0  0  0  0  0  0
   22.1564  -12.9884  -17.7779 N   0  0  0  0  0  0  0  0  0  0  0  0
   22.5567  -12.1900  -16.6690 C   0  0  1  0  0  0  0  0  0  0  0  0
   24.0586  -12.2249  -16.5022 C   0  0  0  0  0  0  0  0  0  0  0  0
   24.6218  -11.3597  -15.0387 S   0  0  0  0  0  0  0  0  0  0  0  0
   22.1247  -10.7731  -16.7809 C   0  0  0  0  0  0  0  0  0  0  0  0
   22.3685  -10.1255  -17.8307 O   0  0  0  0  0  0  0  0  0  0  0  0
   17.1635   -7.9985  -14.1455 N   0  0  0  0  0  0  0  0  0  0  0  0
   17.3123   -7.7304  -15.5517 C   0  0  0  0  0  0  0  0  0  0  0  0
   16.3215   -7.3091  -16.1906 O   0  0  0  0  0  0  0  0  0  0  0  0
   18.6418   -7.9723  -16.1573 C   0  0  0  0  0  0  0  0  0  0  0  0
   19.6521   -8.4976  -15.1987 C   0  0  0  0  0  0  0  0  0  0  0  0
   20.9949   -8.7058  -15.8488 C   0  0  2  0  0  0  0  0  0  0  0  0
   21.4352  -10.0886  -15.7468 N   0  0  0  0  0  0  0  0  0  0  0  0
   21.9551   -7.8774  -15.0301 C   0  0  0  0  0  0  0  0  0  0  0  0
   22.8346   -8.4082  -14.3137 O   0  0  0  0  0  0  0  0  0  0  0  0
   21.8968   -6.4937  -15.0428 O   0  0  0  0  0  0  0  0  0  0  0  0
  1  2  1  0
  3  4  2  0
  3  2  1  0
  5  3  1  0
  6  5  1  0
  7  8  1  0
  6  7  1  6
  9  6  1  0
  9 10  2  0
 11 12  1  0
 12 14  1  0
 13 12  2  0
 14 15  1  0
 16 17  1  0
 16 15  1  1
 17  9  1  0
 18 16  1  0
 19 18  2  0
 20 18  1  0
M  END
$$$$
