GCQ.pdb
     RDKit          3D

 20 19  0  0  1  0  0  0  0  0999 V2000
   28.2202  -21.8229  -15.9438 N   0  0  0  0  0  0  0  0  0  0  0  0
   27.7136  -20.7497  -15.1108 C   0  0  0  0  0  0  0  0  0  0  0  0
   26.7780  -21.3240  -14.1314 C   0  0  0  0  0  0  0  0  0  0  0  0
   26.0079  -22.2751  -14.4561 O   0  0  0  0  0  0  0  0  0  0  0  0
   26.6825  -20.8539  -12.7817 N   0  0  0  0  0  0  0  0  0  0  0  0
   25.5806  -21.2438  -11.9684 C   0  0  1  0  0  0  0  0  0  0  0  0
   25.8658  -20.9569  -10.5120 C   0  0  0  0  0  0  0  0  0  0  0  0
   24.5488  -21.4898   -9.4215 S   0  0  0  0  0  0  0  0  0  0  0  0
   24.3093  -20.5734  -12.3438 C   0  0  0  0  0  0  0  0  0  0  0  0
   24.2621  -19.3194  -12.4215 O   0  0  0  0  0  0  0  0  0  0  0  0
   23.4575  -22.3820  -15.6361 N   0  0  0  0  0  0  0  0  0  0  0  0
   23.2276  -21.0224  -16.0483 C   0  0  0  0  0  0  0  0  0  0  0  0
   24.0073  -20.5079  -16.8818 O   0  0  0  0  0  0  0  0  0  0  0  0
   22.0712  -20.3136  -15.4541 C   0  0  0  0  0  0  0  0  0  0  0  0
   21.3966  -21.0719  -14.3652 C   0  0  0  0  0  0  0  0  0  0  0  0
   21.8631  -20.6383  -13.0001 C   0  0  2  0  0  0  0  0  0  0  0  0
   23.1132  -21.2822  -12.6273 N   0  0  0  0  0  0  0  0  0  0  0  0
   20.8065  -21.1465  -12.0493 C   0  0  0  0  0  0  0  0  0  0  0  0
   19.6346  -20.7053  -12.0733 O   0  0  0  0  0  0  0  0  0  0  0  0
   21.0977  -22.1238  -11.1122 O   0  0  0  0  0  0  0  0  0  0  0  0
  1  2  1  0
  3  4  2  0
  3  2  1  0
  5  3  1  0
  6  5  1  0
  7  8  1  0
  6  7  1  1
  9  6  1  0
  9 10  2  0
 11 12  1  0
 12 14  1  0
 13 12  2  0
 14 15  1  0
 16 17  1  0
 16 15  1  6
 17  9  1  0
 18 16  1  0
 19 18  2  0
 20 18  1  0
M  END
$$$$
