GCQ.pdb
     RDKit          3D

 20 19  0  0  1  0  0  0  0  0999 V2000
   18.4352  -12.2418  -17.1093 N   0  0  0  0  0  0  0  0  0  0  0  0
   19.4748  -11.3025  -17.4824 C   0  0  0  0  0  0  0  0  0  0  0  0
   19.4293  -10.1649  -16.5507 C   0  0  0  0  0  0  0  0  0  0  0  0
   18.3619   -9.8806  -15.9318 O   0  0  0  0  0  0  0  0  0  0  0  0
   20.5627   -9.3282  -16.2920 N   0  0  0  0  0  0  0  0  0  0  0  0
   20.4336   -8.2005  -15.4323 C   0  0  1  0  0  0  0  0  0  0  0  0
   21.7446   -7.9058  -14.7399 C   0  0  0  0  0  0  0  0  0  0  0  0
   21.6184   -6.5914  -13.5298 S   0  0  0  0  0  0  0  0  0  0  0  0
   19.9841   -6.9736  -16.1388 C   0  0  0  0  0  0  0  0  0  0  0  0
   20.5979   -6.5809  -17.1634 O   0  0  0  0  0  0  0  0  0  0  0  0
   15.5201   -7.1154  -15.4580 N   0  0  0  0  0  0  0  0  0  0  0  0
   15.5964   -7.0351  -16.8930 C   0  0  0  0  0  0  0  0  0  0  0  0
   15.0485   -7.9312  -17.5743 O   0  0  0  0  0  0  0  0  0  0  0  0
   16.3251   -5.8854  -17.4760 C   0  0  0  0  0  0  0  0  0  0  0  0
   16.8947   -4.9576  -16.4608 C   0  0  0  0  0  0  0  0  0  0  0  0
   18.3993   -5.0170  -16.4204 C   0  0  2  0  0  0  0  0  0  0  0  0
   18.8740   -6.1976  -15.7154 N   0  0  0  0  0  0  0  0  0  0  0  0
   18.8131   -3.8193  -15.6001 C   0  0  0  0  0  0  0  0  0  0  0  0
   18.6155   -2.6492  -16.0004 O   0  0  0  0  0  0  0  0  0  0  0  0
   19.4291   -3.9736  -14.3692 O   0  0  0  0  0  0  0  0  0  0  0  0
  1  2  1  0
  3  4  2  0
  3  2  1  0
  5  3  1  0
  6  5  1  0
  7  8  1  0
  6  7  1  6
  9  6  1  0
  9 10  2  0
 11 12  1  0
 12 14  1  0
 13 12  2  0
 14 15  1  0
 16 17  1  0
 16 15  1  1
 17  9  1  0
 18 16  1  0
 19 18  2  0
 20 18  1  0
M  END
$$$$
