GCQ.pdb
     RDKit          3D

 20 19  0  0  1  0  0  0  0  0999 V2000
   14.5674  -13.3481  -11.1563 N   0  0  0  0  0  0  0  0  0  0  0  0
   14.7483  -12.4921  -12.3125 C   0  0  0  0  0  0  0  0  0  0  0  0
   14.9344  -11.1104  -11.8429 C   0  0  0  0  0  0  0  0  0  0  0  0
   15.1709  -10.1765  -12.6645 O   0  0  0  0  0  0  0  0  0  0  0  0
   14.8612  -10.7445  -10.4599 N   0  0  0  0  0  0  0  0  0  0  0  0
   14.8357   -9.3704  -10.0876 C   0  0  1  0  0  0  0  0  0  0  0  0
   13.9892   -9.1693   -8.8514 C   0  0  0  0  0  0  0  0  0  0  0  0
   12.3285   -9.8168   -9.0259 S   0  0  0  0  0  0  0  0  0  0  0  0
   16.1865   -8.8069   -9.8343 C   0  0  0  0  0  0  0  0  0  0  0  0
   16.8548   -9.2031   -8.8457 O   0  0  0  0  0  0  0  0  0  0  0  0
   21.5208   -5.2536  -13.0638 N   0  0  0  0  0  0  0  0  0  0  0  0
   21.1518   -6.5629  -12.5937 C   0  0  0  0  0  0  0  0  0  0  0  0
   21.5696   -7.5645  -13.2178 O   0  0  0  0  0  0  0  0  0  0  0  0
   20.2938   -6.6406  -11.3893 C   0  0  0  0  0  0  0  0  0  0  0  0
   18.9462   -7.2176  -11.6479 C   0  0  0  0  0  0  0  0  0  0  0  0
   18.0915   -7.2380  -10.4076 C   0  0  2  0  0  0  0  0  0  0  0  0
   16.7838   -7.8221  -10.6630 N   0  0  0  0  0  0  0  0  0  0  0  0
   17.8649   -5.7846  -10.0685 C   0  0  0  0  0  0  0  0  0  0  0  0
   18.6893   -5.1331   -9.3870 O   0  0  0  0  0  0  0  0  0  0  0  0
   16.7312   -5.1173  -10.5015 O   0  0  0  0  0  0  0  0  0  0  0  0
  1  2  1  0
  3  4  2  0
  3  2  1  0
  5  3  1  0
  6  5  1  0
  7  8  1  0
  6  7  1  1
  9  6  1  0
  9 10  2  0
 11 12  1  0
 12 14  1  0
 13 12  2  0
 14 15  1  0
 16 17  1  0
 16 15  1  6
 17  9  1  0
 18 16  1  0
 19 18  2  0
 20 18  1  0
M  END
$$$$
