GCQ.pdb
     RDKit          3D

 20 19  0  0  1  0  0  0  0  0999 V2000
   24.5108  -20.3154   -8.3825 N   0  0  0  0  0  0  0  0  0  0  0  0
   25.0127  -21.2465   -9.3741 C   0  0  0  0  0  0  0  0  0  0  0  0
   25.9301  -20.5232  -10.2682 C   0  0  0  0  0  0  0  0  0  0  0  0
   25.7934  -19.2798  -10.4636 O   0  0  0  0  0  0  0  0  0  0  0  0
   27.0095  -21.1656  -10.9568 N   0  0  0  0  0  0  0  0  0  0  0  0
   27.7935  -20.4325  -11.8925 C   0  0  1  0  0  0  0  0  0  0  0  0
   29.1994  -20.9839  -11.9568 C   0  0  0  0  0  0  0  0  0  0  0  0
   29.9310  -21.2291  -10.3406 S   0  0  0  0  0  0  0  0  0  0  0  0
   27.2211  -20.4318  -13.2632 C   0  0  0  0  0  0  0  0  0  0  0  0
   27.0503  -21.5192  -13.8708 O   0  0  0  0  0  0  0  0  0  0  0  0
   24.2257  -19.7390  -13.1335 N   0  0  0  0  0  0  0  0  0  0  0  0
   23.3635  -19.8123  -14.2835 C   0  0  0  0  0  0  0  0  0  0  0  0
   22.3139  -20.4903  -14.2045 O   0  0  0  0  0  0  0  0  0  0  0  0
   23.7780  -19.0728  -15.4976 C   0  0  0  0  0  0  0  0  0  0  0  0
   25.0514  -18.3192  -15.3367 C   0  0  0  0  0  0  0  0  0  0  0  0
   26.2465  -19.2339  -15.2718 C   0  0  2  0  0  0  0  0  0  0  0  0
   26.8454  -19.2461  -13.9460 N   0  0  0  0  0  0  0  0  0  0  0  0
   27.2590  -18.6166  -16.2057 C   0  0  0  0  0  0  0  0  0  0  0  0
   28.1990  -17.9074  -15.7792 O   0  0  0  0  0  0  0  0  0  0  0  0
   27.1834  -18.8141  -17.5745 O   0  0  0  0  0  0  0  0  0  0  0  0
  1  2  1  0
  3  4  2  0
  3  2  1  0
  5  3  1  0
  6  5  1  0
  7  8  1  0
  6  7  1  6
  9  6  1  0
  9 10  2  0
 11 12  1  0
 12 14  1  0
 13 12  2  0
 14 15  1  0
 16 17  1  0
 16 15  1  1
 17  9  1  0
 18 16  1  0
 19 18  2  0
 20 18  1  0
M  END
$$$$
