GCQ.pdb
     RDKit          3D

 20 19  0  0  1  0  0  0  0  0999 V2000
   23.4671  -11.9026  -18.3634 N   0  0  0  0  0  0  0  0  0  0  0  0
   23.9648  -10.6023  -17.9589 C   0  0  0  0  0  0  0  0  0  0  0  0
   22.8605   -9.8548  -17.3376 C   0  0  0  0  0  0  0  0  0  0  0  0
   21.9164   -9.3935  -18.0439 O   0  0  0  0  0  0  0  0  0  0  0  0
   22.7865   -9.6085  -15.9285 N   0  0  0  0  0  0  0  0  0  0  0  0
   21.7026   -8.8559  -15.3934 C   0  0  1  0  0  0  0  0  0  0  0  0
   21.5597   -9.1087  -13.9100 C   0  0  0  0  0  0  0  0  0  0  0  0
   20.8350  -10.7036  -13.5372 S   0  0  0  0  0  0  0  0  0  0  0  0
   21.8395   -7.3933  -15.6142 C   0  0  0  0  0  0  0  0  0  0  0  0
   22.9610   -6.8418  -15.4766 O   0  0  0  0  0  0  0  0  0  0  0  0
   20.3615   -4.2966  -20.4530 N   0  0  0  0  0  0  0  0  0  0  0  0
   20.4766   -3.1711  -19.5634 C   0  0  0  0  0  0  0  0  0  0  0  0
   20.4183   -2.0170  -20.0450 O   0  0  0  0  0  0  0  0  0  0  0  0
   20.6579   -3.4547  -18.1213 C   0  0  0  0  0  0  0  0  0  0  0  0
   20.6333   -4.9048  -17.7863 C   0  0  0  0  0  0  0  0  0  0  0  0
   20.8935   -5.1525  -16.3234 C   0  0  2  0  0  0  0  0  0  0  0  0
   20.7517   -6.5592  -15.9808 N   0  0  0  0  0  0  0  0  0  0  0  0
   19.7934   -4.4116  -15.6027 C   0  0  0  0  0  0  0  0  0  0  0  0
   19.9625   -3.2516  -15.1620 O   0  0  0  0  0  0  0  0  0  0  0  0
   18.5520   -4.9921  -15.4025 O   0  0  0  0  0  0  0  0  0  0  0  0
  1  2  1  0
  3  4  2  0
  3  2  1  0
  5  3  1  0
  6  5  1  0
  7  8  1  0
  6  7  1  1
  9  6  1  0
  9 10  2  0
 11 12  1  0
 12 14  1  0
 13 12  2  0
 14 15  1  0
 16 17  1  0
 16 15  1  6
 17  9  1  0
 18 16  1  0
 19 18  2  0
 20 18  1  0
M  END
$$$$
