GCQ.pdb
     RDKit          3D

 20 19  0  0  1  0  0  0  0  0999 V2000
   18.6154  -15.5060  -17.4806 N   0  0  0  0  0  0  0  0  0  0  0  0
   19.9048  -16.0975  -17.1810 C   0  0  0  0  0  0  0  0  0  0  0  0
   20.6943  -15.1246  -16.4100 C   0  0  0  0  0  0  0  0  0  0  0  0
   20.3345  -14.7801  -15.2460 O   0  0  0  0  0  0  0  0  0  0  0  0
   21.8907  -14.5211  -16.9162 N   0  0  0  0  0  0  0  0  0  0  0  0
   22.5542  -13.5130  -16.1606 C   0  0  1  0  0  0  0  0  0  0  0  0
   24.0540  -13.6540  -16.2859 C   0  0  0  0  0  0  0  0  0  0  0  0
   24.9536  -12.3717  -15.4175 S   0  0  0  0  0  0  0  0  0  0  0  0
   22.1723  -12.1344  -16.5606 C   0  0  0  0  0  0  0  0  0  0  0  0
   22.1386  -11.8226  -17.7782 O   0  0  0  0  0  0  0  0  0  0  0  0
   17.7687   -8.4873  -14.2882 N   0  0  0  0  0  0  0  0  0  0  0  0
   18.3904   -7.6037  -15.2391 C   0  0  0  0  0  0  0  0  0  0  0  0
   17.8138   -6.5304  -15.5273 O   0  0  0  0  0  0  0  0  0  0  0  0
   19.6853   -8.0258  -15.8202 C   0  0  0  0  0  0  0  0  0  0  0  0
   20.1307   -9.3757  -15.3784 C   0  0  0  0  0  0  0  0  0  0  0  0
   21.4416   -9.7729  -16.0054 C   0  0  2  0  0  0  0  0  0  0  0  0
   21.8344  -11.1213  -15.6263 N   0  0  0  0  0  0  0  0  0  0  0  0
   22.4593   -8.8335  -15.4051 C   0  0  0  0  0  0  0  0  0  0  0  0
   23.2949   -9.2249  -14.5583 O   0  0  0  0  0  0  0  0  0  0  0  0
   22.5048   -7.4988  -15.7719 O   0  0  0  0  0  0  0  0  0  0  0  0
  1  2  1  0
  3  4  2  0
  3  2  1  0
  5  3  1  0
  6  5  1  0
  7  8  1  0
  6  7  1  6
  9  6  1  0
  9 10  2  0
 11 12  1  0
 12 14  1  0
 13 12  2  0
 14 15  1  0
 16 17  1  0
 16 15  1  1
 17  9  1  0
 18 16  1  0
 19 18  2  0
 20 18  1  0
M  END
$$$$
