GCQ.pdb
     RDKit          3D

 20 19  0  0  1  0  0  0  0  0999 V2000
   19.9421  -21.2184  -12.5861 N   0  0  0  0  0  0  0  0  0  0  0  0
   21.1664  -21.7516  -12.0214 C   0  0  0  0  0  0  0  0  0  0  0  0
   22.1954  -20.7012  -12.0675 C   0  0  0  0  0  0  0  0  0  0  0  0
   22.1630  -19.7307  -11.2550 O   0  0  0  0  0  0  0  0  0  0  0  0
   23.2722  -20.7109  -13.0121 N   0  0  0  0  0  0  0  0  0  0  0  0
   24.6177  -20.6039  -12.5587 C   0  0  1  0  0  0  0  0  0  0  0  0
   24.9194  -21.6694  -11.5298 C   0  0  0  0  0  0  0  0  0  0  0  0
   25.6478  -21.0112  -10.0319 S   0  0  0  0  0  0  0  0  0  0  0  0
   25.6151  -20.7069  -13.6547 C   0  0  0  0  0  0  0  0  0  0  0  0
   25.6898  -21.7610  -14.3361 O   0  0  0  0  0  0  0  0  0  0  0  0
   26.6639  -16.6347  -17.0417 N   0  0  0  0  0  0  0  0  0  0  0  0
   27.8357  -17.2591  -17.5970 C   0  0  0  0  0  0  0  0  0  0  0  0
   28.1202  -17.0419  -18.7967 O   0  0  0  0  0  0  0  0  0  0  0  0
   28.6373  -18.1262  -16.7035 C   0  0  0  0  0  0  0  0  0  0  0  0
   28.0401  -18.3126  -15.3528 C   0  0  0  0  0  0  0  0  0  0  0  0
   27.1284  -19.5105  -15.2971 C   0  0  2  0  0  0  0  0  0  0  0  0
   26.5125  -19.6594  -13.9876 N   0  0  0  0  0  0  0  0  0  0  0  0
   28.0374  -20.6995  -15.4929 C   0  0  0  0  0  0  0  0  0  0  0  0
   28.5226  -21.3223  -14.5207 O   0  0  0  0  0  0  0  0  0  0  0  0
   28.3684  -21.1457  -16.7616 O   0  0  0  0  0  0  0  0  0  0  0  0
  1  2  1  0
  3  4  2  0
  3  2  1  0
  5  3  1  0
  6  5  1  0
  7  8  1  0
  6  7  1  1
  9  6  1  0
  9 10  2  0
 11 12  1  0
 12 14  1  0
 13 12  2  0
 14 15  1  0
 16 17  1  0
 16 15  1  1
 17  9  1  0
 18 16  1  0
 19 18  2  0
 20 18  1  0
M  END
$$$$
