GCQ.pdb
     RDKit          3D

 20 19  0  0  1  0  0  0  0  0999 V2000
   21.2168  -16.4441  -16.7117 N   0  0  0  0  0  0  0  0  0  0  0  0
   21.5524  -15.2497  -17.4620 C   0  0  0  0  0  0  0  0  0  0  0  0
   21.8020  -14.1572  -16.5089 C   0  0  0  0  0  0  0  0  0  0  0  0
   20.9697  -13.9004  -15.5900 O   0  0  0  0  0  0  0  0  0  0  0  0
   22.9743  -13.3356  -16.5602 N   0  0  0  0  0  0  0  0  0  0  0  0
   23.1038  -12.2244  -15.6793 C   0  0  1  0  0  0  0  0  0  0  0  0
   24.5610  -11.9169  -15.4208 C   0  0  0  0  0  0  0  0  0  0  0  0
   25.4209  -13.2476  -14.5856 S   0  0  0  0  0  0  0  0  0  0  0  0
   22.4423  -10.9948  -16.1862 C   0  0  0  0  0  0  0  0  0  0  0  0
   22.6105  -10.6405  -17.3808 O   0  0  0  0  0  0  0  0  0  0  0  0
   17.7483  -10.8366  -15.1218 N   0  0  0  0  0  0  0  0  0  0  0  0
   17.5310   -9.8303  -16.1276 C   0  0  0  0  0  0  0  0  0  0  0  0
   16.5694   -9.9687  -16.9172 O   0  0  0  0  0  0  0  0  0  0  0  0
   18.4684   -8.6845  -16.1627 C   0  0  0  0  0  0  0  0  0  0  0  0
   19.5907   -8.7964  -15.1914 C   0  0  0  0  0  0  0  0  0  0  0  0
   20.9164   -8.9958  -15.8784 C   0  0  2  0  0  0  0  0  0  0  0  0
   21.6097  -10.1743  -15.3817 N   0  0  0  0  0  0  0  0  0  0  0  0
   21.7443   -7.7982  -15.4794 C   0  0  0  0  0  0  0  0  0  0  0  0
   22.5115   -7.8305  -14.4901 O   0  0  0  0  0  0  0  0  0  0  0  0
   21.6839   -6.6155  -16.1975 O   0  0  0  0  0  0  0  0  0  0  0  0
  1  2  1  0
  3  4  2  0
  3  2  1  0
  5  3  1  0
  6  5  1  0
  7  8  1  0
  6  7  1  6
  9  6  1  0
  9 10  2  0
 11 12  1  0
 12 14  1  0
 13 12  2  0
 14 15  1  0
 16 17  1  0
 16 15  1  1
 17  9  1  0
 18 16  1  0
 19 18  2  0
 20 18  1  0
M  END
$$$$
