GCQ.pdb
     RDKit          3D

 20 19  0  0  1  0  0  0  0  0999 V2000
   25.4940  -22.5451  -12.5241 N   0  0  0  0  0  0  0  0  0  0  0  0
   24.7948  -22.0356  -13.6876 C   0  0  0  0  0  0  0  0  0  0  0  0
   24.8678  -20.5664  -13.6670 C   0  0  0  0  0  0  0  0  0  0  0  0
   24.1775  -19.8980  -12.8424 O   0  0  0  0  0  0  0  0  0  0  0  0
   25.7045  -19.8186  -14.5573 N   0  0  0  0  0  0  0  0  0  0  0  0
   25.6745  -18.3952  -14.5351 C   0  0  1  0  0  0  0  0  0  0  0  0
   27.0630  -17.8365  -14.3239 C   0  0  0  0  0  0  0  0  0  0  0  0
   27.8529  -18.4624  -12.8433 S   0  0  0  0  0  0  0  0  0  0  0  0
   25.1078  -17.8019  -15.7734 C   0  0  0  0  0  0  0  0  0  0  0  0
   25.3105  -18.3571  -16.8832 O   0  0  0  0  0  0  0  0  0  0  0  0
   20.7599  -13.0968  -16.1534 N   0  0  0  0  0  0  0  0  0  0  0  0
   20.8120  -13.6057  -17.4987 C   0  0  0  0  0  0  0  0  0  0  0  0
   20.0205  -13.1379  -18.3485 O   0  0  0  0  0  0  0  0  0  0  0  0
   21.8093  -14.6600  -17.7932 C   0  0  0  0  0  0  0  0  0  0  0  0
   22.5687  -15.1194  -16.5982 C   0  0  0  0  0  0  0  0  0  0  0  0
   23.6549  -16.0985  -16.9596 C   0  0  2  0  0  0  0  0  0  0  0  0
   24.3308  -16.6146  -15.7792 N   0  0  0  0  0  0  0  0  0  0  0  0
   24.6698  -15.2865  -17.7272 C   0  0  0  0  0  0  0  0  0  0  0  0
   25.5174  -14.5731  -17.1431 O   0  0  0  0  0  0  0  0  0  0  0  0
   24.6991  -15.3020  -19.1117 O   0  0  0  0  0  0  0  0  0  0  0  0
  1  2  1  0
  3  4  2  0
  3  2  1  0
  5  3  1  0
  6  5  1  0
  7  8  1  0
  6  7  1  6
  9  6  1  0
  9 10  2  0
 11 12  1  0
 12 14  1  0
 13 12  2  0
 14 15  1  0
 16 17  1  0
 16 15  1  1
 17  9  1  0
 18 16  1  0
 19 18  2  0
 20 18  1  0
M  END
$$$$
