GCQ.pdb
     RDKit          3D

 20 19  0  0  1  0  0  0  0  0999 V2000
   19.0427  -32.7769   -5.6505 N   0  0  0  0  0  0  0  0  0  0  0  0
   18.3319  -31.5141   -5.6042 C   0  0  0  0  0  0  0  0  0  0  0  0
   18.6847  -30.8280   -4.3516 C   0  0  0  0  0  0  0  0  0  0  0  0
   19.4609  -31.3743   -3.5137 O   0  0  0  0  0  0  0  0  0  0  0  0
   18.1838  -29.5302   -4.0101 N   0  0  0  0  0  0  0  0  0  0  0  0
   18.6721  -28.8607   -2.8522 C   0  0  1  0  0  0  0  0  0  0  0  0
   18.8338  -27.3819   -3.1205 C   0  0  0  0  0  0  0  0  0  0  0  0
   19.4517  -26.4759   -1.7045 S   0  0  0  0  0  0  0  0  0  0  0  0
   17.7989  -29.0343   -1.6632 C   0  0  0  0  0  0  0  0  0  0  0  0
   16.5781  -28.7418   -1.7350 O   0  0  0  0  0  0  0  0  0  0  0  0
   19.3046  -31.6557    4.0212 N   0  0  0  0  0  0  0  0  0  0  0  0
   17.8825  -31.4527    4.1095 C   0  0  0  0  0  0  0  0  0  0  0  0
   17.2770  -31.8784    5.1193 O   0  0  0  0  0  0  0  0  0  0  0  0
   17.2215  -30.7458    2.9888 C   0  0  0  0  0  0  0  0  0  0  0  0
   18.1330  -30.4335    1.8542 C   0  0  0  0  0  0  0  0  0  0  0  0
   17.4371  -29.6594    0.7653 C   0  0  2  0  0  0  0  0  0  0  0  0
   18.2722  -29.5234   -0.4181 N   0  0  0  0  0  0  0  0  0  0  0  0
   17.2505  -28.2733    1.3331 C   0  0  0  0  0  0  0  0  0  0  0  0
   16.2624  -27.9832    2.0458 O   0  0  0  0  0  0  0  0  0  0  0  0
   18.1705  -27.2684    1.0842 O   0  0  0  0  0  0  0  0  0  0  0  0
  1  2  1  0
  3  4  2  0
  3  2  1  0
  5  3  1  0
  6  5  1  0
  7  8  1  0
  6  7  1  6
  9  6  1  0
  9 10  2  0
 11 12  1  0
 12 14  1  0
 13 12  2  0
 14 15  1  0
 16 17  1  0
 16 15  1  1
 17  9  1  0
 18 16  1  0
 19 18  2  0
 20 18  1  0
M  END
$$$$
