GCQ.pdb
     RDKit          3D

 20 19  0  0  1  0  0  0  0  0999 V2000
   26.3647  -14.6657  -19.4504 N   0  0  0  0  0  0  0  0  0  0  0  0
   25.9964  -13.3264  -19.8661 C   0  0  0  0  0  0  0  0  0  0  0  0
   25.5927  -12.5645  -18.6741 C   0  0  0  0  0  0  0  0  0  0  0  0
   24.4786  -12.7851  -18.1146 O   0  0  0  0  0  0  0  0  0  0  0  0
   26.4155  -11.5498  -18.0865 N   0  0  0  0  0  0  0  0  0  0  0  0
   25.9401  -10.8066  -16.9689 C   0  0  1  0  0  0  0  0  0  0  0  0
   27.0957  -10.2689  -16.1564 C   0  0  0  0  0  0  0  0  0  0  0  0
   27.9785  -11.5456  -15.2629 S   0  0  0  0  0  0  0  0  0  0  0  0
   25.0606   -9.6721  -17.3512 C   0  0  0  0  0  0  0  0  0  0  0  0
   25.3916   -8.9153  -18.2992 O   0  0  0  0  0  0  0  0  0  0  0  0
   19.2326   -8.2847  -15.0043 N   0  0  0  0  0  0  0  0  0  0  0  0
   19.3908   -7.3274  -16.0672 C   0  0  0  0  0  0  0  0  0  0  0  0
   18.4727   -6.5013  -16.2726 O   0  0  0  0  0  0  0  0  0  0  0  0
   20.6425   -7.3821  -16.8565 C   0  0  0  0  0  0  0  0  0  0  0  0
   21.6116   -8.4047  -16.3761 C   0  0  0  0  0  0  0  0  0  0  0  0
   22.9227   -8.3334  -17.1144 C   0  0  2  0  0  0  0  0  0  0  0  0
   23.8370   -9.3836  -16.6932 N   0  0  0  0  0  0  0  0  0  0  0  0
   23.5359   -7.0208  -16.6906 C   0  0  0  0  0  0  0  0  0  0  0  0
   23.3820   -5.9763  -17.3642 O   0  0  0  0  0  0  0  0  0  0  0  0
   24.2942   -6.9253  -15.5356 O   0  0  0  0  0  0  0  0  0  0  0  0
  1  2  1  0
  3  4  2  0
  3  2  1  0
  5  3  1  0
  6  5  1  0
  7  8  1  0
  6  7  1  6
  9  6  1  0
  9 10  2  0
 11 12  1  0
 12 14  1  0
 13 12  2  0
 14 15  1  0
 16 17  1  0
 16 15  1  1
 17  9  1  0
 18 16  1  0
 19 18  2  0
 20 18  1  0
M  END
$$$$
