GCQ.pdb
     RDKit          3D

 20 19  0  0  1  0  0  0  0  0999 V2000
   22.2399  -13.6152  -17.4926 N   0  0  0  0  0  0  0  0  0  0  0  0
   22.1297  -12.3652  -18.2189 C   0  0  0  0  0  0  0  0  0  0  0  0
   21.6280  -11.3347  -17.2966 C   0  0  0  0  0  0  0  0  0  0  0  0
   20.3845  -11.1861  -17.1104 O   0  0  0  0  0  0  0  0  0  0  0  0
   22.4947  -10.4563  -16.5692 N   0  0  0  0  0  0  0  0  0  0  0  0
   21.9441   -9.4183  -15.7649 C   0  0  1  0  0  0  0  0  0  0  0  0
   22.8590   -9.1020  -14.6039 C   0  0  0  0  0  0  0  0  0  0  0  0
   22.4921  -10.0655  -13.1394 S   0  0  0  0  0  0  0  0  0  0  0  0
   21.6865   -8.1657  -16.5207 C   0  0  0  0  0  0  0  0  0  0  0  0
   22.5441   -7.7382  -17.3347 O   0  0  0  0  0  0  0  0  0  0  0  0
   16.3560   -6.0477  -18.3750 N   0  0  0  0  0  0  0  0  0  0  0  0
   17.0959   -4.8366  -18.6138 C   0  0  0  0  0  0  0  0  0  0  0  0
   16.6147   -3.9829  -19.3930 O   0  0  0  0  0  0  0  0  0  0  0  0
   18.3913   -4.6771  -17.9143 C   0  0  0  0  0  0  0  0  0  0  0  0
   18.7425   -5.8231  -17.0315 C   0  0  0  0  0  0  0  0  0  0  0  0
   20.1800   -6.2432  -17.1941 C   0  0  2  0  0  0  0  0  0  0  0  0
   20.4992   -7.4025  -16.3752 N   0  0  0  0  0  0  0  0  0  0  0  0
   20.9858   -5.0874  -16.6526 C   0  0  0  0  0  0  0  0  0  0  0  0
   21.2148   -4.9634  -15.4276 O   0  0  0  0  0  0  0  0  0  0  0  0
   21.5028   -4.1184  -17.4963 O   0  0  0  0  0  0  0  0  0  0  0  0
  1  2  1  0
  3  4  2  0
  3  2  1  0
  5  3  1  0
  6  5  1  0
  7  8  1  0
  6  7  1  1
  9  6  1  0
  9 10  2  0
 11 12  1  0
 12 14  1  0
 13 12  2  0
 14 15  1  0
 16 17  1  0
 16 15  1  1
 17  9  1  0
 18 16  1  0
 19 18  2  0
 20 18  1  0
M  END
$$$$
