GCQ.pdb
     RDKit          3D

 20 19  0  0  1  0  0  0  0  0999 V2000
   17.0435  -11.7739  -14.8449 N   0  0  0  0  0  0  0  0  0  0  0  0
   17.2890  -10.3523  -14.9906 C   0  0  0  0  0  0  0  0  0  0  0  0
   17.5942   -9.7952  -13.6637 C   0  0  0  0  0  0  0  0  0  0  0  0
   17.0732  -10.2901  -12.6212 O   0  0  0  0  0  0  0  0  0  0  0  0
   18.4787   -8.6847  -13.4732 N   0  0  0  0  0  0  0  0  0  0  0  0
   18.6902   -8.1591  -12.1670 C   0  0  1  0  0  0  0  0  0  0  0  0
   19.9325   -7.2986  -12.1339 C   0  0  0  0  0  0  0  0  0  0  0  0
   21.4349   -8.2242  -12.4402 S   0  0  0  0  0  0  0  0  0  0  0  0
   17.5446   -7.3575  -11.6654 C   0  0  0  0  0  0  0  0  0  0  0  0
   16.9659   -6.5454  -12.4312 O   0  0  0  0  0  0  0  0  0  0  0  0
   13.0972   -9.2680   -7.8289 N   0  0  0  0  0  0  0  0  0  0  0  0
   12.7754   -7.8672   -7.9035 C   0  0  0  0  0  0  0  0  0  0  0  0
   11.7181   -7.4648   -7.3673 O   0  0  0  0  0  0  0  0  0  0  0  0
   13.7263   -6.9839   -8.6166 C   0  0  0  0  0  0  0  0  0  0  0  0
   14.9616   -7.6764   -9.0750 C   0  0  0  0  0  0  0  0  0  0  0  0
   15.8614   -6.7642   -9.8671 C   0  0  2  0  0  0  0  0  0  0  0  0
   17.0511   -7.4560  -10.3387 N   0  0  0  0  0  0  0  0  0  0  0  0
   16.3226   -5.7203   -8.8791 C   0  0  0  0  0  0  0  0  0  0  0  0
   17.3633   -5.8739   -8.1995 O   0  0  0  0  0  0  0  0  0  0  0  0
   15.6071   -4.5499   -8.6886 O   0  0  0  0  0  0  0  0  0  0  0  0
  1  2  1  0
  3  4  2  0
  3  2  1  0
  5  3  1  0
  6  5  1  0
  7  8  1  0
  6  7  1  6
  9  6  1  0
  9 10  2  0
 11 12  1  0
 12 14  1  0
 13 12  2  0
 14 15  1  0
 16 17  1  0
 16 15  1  1
 17  9  1  0
 18 16  1  0
 19 18  2  0
 20 18  1  0
M  END
$$$$
