GCQ.pdb
     RDKit          3D

 20 19  0  0  1  0  0  0  0  0999 V2000
   16.7242   -9.4184  -16.0221 N   0  0  0  0  0  0  0  0  0  0  0  0
   18.1530   -9.3431  -15.7876 C   0  0  0  0  0  0  0  0  0  0  0  0
   18.3779   -9.1549  -14.3459 C   0  0  0  0  0  0  0  0  0  0  0  0
   17.9509  -10.0049  -13.5103 O   0  0  0  0  0  0  0  0  0  0  0  0
   19.0772   -8.0251  -13.8108 N   0  0  0  0  0  0  0  0  0  0  0  0
   19.2103   -7.8726  -12.4014 C   0  0  1  0  0  0  0  0  0  0  0  0
   20.5337   -7.2279  -12.0581 C   0  0  0  0  0  0  0  0  0  0  0  0
   20.7456   -6.9547  -10.3008 S   0  0  0  0  0  0  0  0  0  0  0  0
   18.1192   -7.0685  -11.7936 C   0  0  0  0  0  0  0  0  0  0  0  0
   17.8603   -5.9233  -12.2435 O   0  0  0  0  0  0  0  0  0  0  0  0
   13.3599   -9.3007   -8.1971 N   0  0  0  0  0  0  0  0  0  0  0  0
   13.0268   -7.9059   -8.3187 C   0  0  0  0  0  0  0  0  0  0  0  0
   11.9484   -7.5013   -7.8281 O   0  0  0  0  0  0  0  0  0  0  0  0
   13.9919   -7.0309   -9.0230 C   0  0  0  0  0  0  0  0  0  0  0  0
   15.2352   -7.7291   -9.4500 C   0  0  0  0  0  0  0  0  0  0  0  0
   16.1729   -6.8128  -10.1919 C   0  0  2  0  0  0  0  0  0  0  0  0
   17.3307   -7.5274  -10.7068 N   0  0  0  0  0  0  0  0  0  0  0  0
   16.6804   -5.8484   -9.1474 C   0  0  0  0  0  0  0  0  0  0  0  0
   15.9500   -4.9472   -8.6756 O   0  0  0  0  0  0  0  0  0  0  0  0
   17.9788   -5.9272   -8.6718 O   0  0  0  0  0  0  0  0  0  0  0  0
  1  2  1  0
  3  4  2  0
  3  2  1  0
  5  3  1  0
  6  5  1  0
  7  8  1  0
  6  7  1  6
  9  6  1  0
  9 10  2  0
 11 12  1  0
 12 14  1  0
 13 12  2  0
 14 15  1  0
 16 17  1  0
 16 15  1  1
 17  9  1  0
 18 16  1  0
 19 18  2  0
 20 18  1  0
M  END
$$$$
