ATV.pdb
     RDKit          3D

 20 19  0  0  1  0  0  0  0  0999 V2000
   -5.8278  -17.1333   18.4085 C   0  0  0  0  0  0  0  0  0  0  0  0
   -4.8280  -17.8312   17.5550 C   0  0  2  0  0  0  0  0  0  0  0  0
   -5.2263  -17.9859   16.1881 N   0  0  0  0  0  0  0  0  0  0  0  0
   -4.3284  -19.1185   18.1425 C   0  0  0  0  0  0  0  0  0  0  0  0
   -4.9461  -20.1829   17.9300 O   0  0  0  0  0  0  0  0  0  0  0  0
   -3.6137  -21.7307   17.5323 C   0  0  0  0  0  0  0  0  0  0  0  0
   -2.3791  -21.4180   18.3203 C   0  0  1  0  0  0  0  0  0  0  0  0
   -1.3891  -21.0118   17.4254 O   0  0  0  0  0  0  0  0  0  0  0  0
   -2.6164  -20.3954   19.4005 C   0  0  2  0  0  0  0  0  0  0  0  0
   -3.1611  -19.1650   18.9441 N   0  0  0  0  0  0  0  0  0  0  0  0
   -1.4081  -20.2104   20.2632 C   0  0  0  0  0  0  0  0  0  0  0  0
   -0.9539  -19.0626   20.5099 O   0  0  0  0  0  0  0  0  0  0  0  0
    0.8835  -20.5489   24.1931 C   0  0  0  0  0  0  0  0  0  0  0  0
   -0.2814  -20.6216   23.2004 C   0  0  2  0  0  0  0  0  0  0  0  0
   -1.3175  -21.5333   23.8264 C   0  0  0  0  0  0  0  0  0  0  0  0
    0.1923  -21.2114   21.9505 C   0  0  2  0  0  0  0  0  0  0  0  0
   -0.7090  -21.2697   20.8462 N   0  0  0  0  0  0  0  0  0  0  0  0
    0.8291  -22.5429   22.2121 C   0  0  0  0  0  0  0  0  0  0  0  0
    0.3187  -23.6705   21.5967 O   0  0  0  0  0  0  0  0  0  0  0  0
    1.8130  -22.6888   22.9707 O   0  0  0  0  0  0  0  0  0  0  0  0
  2  1  1  1
  2  4  1  0
  3  2  1  0
  4 10  1  0
  4  5  2  0
  7  6  1  6
  7  8  1  0
  9  7  1  0
  9 10  1  6
 11 12  2  0
 11  9  1  0
 14 13  1  1
 14 16  1  0
 14 15  1  0
 16 17  1  6
 17 11  1  0
 18 16  1  0
 19 18  1  0
 20 18  2  0
M  END
$$$$
