ATV.pdb
     RDKit          3D

 20 19  0  0  1  0  0  0  0  0999 V2000
    8.6639  -12.2669   19.1734 C   0  0  0  0  0  0  0  0  0  0  0  0
    8.4837  -13.7401   19.0621 C   0  0  2  0  0  0  0  0  0  0  0  0
    7.7307  -14.1565   17.9174 N   0  0  0  0  0  0  0  0  0  0  0  0
    7.9876  -14.3832   20.3239 C   0  0  0  0  0  0  0  0  0  0  0  0
    6.7636  -14.5646   20.4926 O   0  0  0  0  0  0  0  0  0  0  0  0
    8.2884  -17.7038   23.6922 C   0  0  0  0  0  0  0  0  0  0  0  0
    8.9149  -16.9363   22.5689 C   0  0  1  0  0  0  0  0  0  0  0  0
    8.6827  -17.6385   21.3861 O   0  0  0  0  0  0  0  0  0  0  0  0
    8.4250  -15.5144   22.4856 C   0  0  2  0  0  0  0  0  0  0  0  0
    8.8774  -14.7961   21.3462 N   0  0  0  0  0  0  0  0  0  0  0  0
    8.6524  -14.7743   23.7659 C   0  0  0  0  0  0  0  0  0  0  0  0
    9.7879  -14.3181   24.0612 O   0  0  0  0  0  0  0  0  0  0  0  0
    6.2820  -12.0600   25.4367 C   0  0  0  0  0  0  0  0  0  0  0  0
    6.6586  -13.1166   26.4806 C   0  0  2  0  0  0  0  0  0  0  0  0
    7.0901  -12.3567   27.7186 C   0  0  0  0  0  0  0  0  0  0  0  0
    7.7818  -13.9046   25.9787 C   0  0  2  0  0  0  0  0  0  0  0  0
    7.6483  -14.5387   24.7076 N   0  0  0  0  0  0  0  0  0  0  0  0
    8.2520  -14.8670   27.0272 C   0  0  0  0  0  0  0  0  0  0  0  0
    9.1615  -14.4425   27.9775 O   0  0  0  0  0  0  0  0  0  0  0  0
    7.8585  -16.0530   27.0871 O   0  0  0  0  0  0  0  0  0  0  0  0
  2  1  1  1
  2  4  1  0
  3  2  1  0
  4 10  1  0
  4  5  2  0
  7  6  1  1
  7  8  1  0
  9  7  1  0
  9 10  1  6
 11 12  2  0
 11  9  1  0
 14 13  1  6
 14 16  1  0
 14 15  1  0
 16 17  1  6
 17 11  1  0
 18 16  1  0
 19 18  1  0
 20 18  2  0
M  END
$$$$
