ATV.pdb
     RDKit          3D

 20 19  0  0  1  0  0  0  0  0999 V2000
    8.5058  -12.2425   18.9711 C   0  0  0  0  0  0  0  0  0  0  0  0
    8.5661  -13.7293   19.0011 C   0  0  2  0  0  0  0  0  0  0  0  0
    8.2085  -14.3583   17.7652 N   0  0  0  0  0  0  0  0  0  0  0  0
    7.8463  -14.3379   20.1687 C   0  0  0  0  0  0  0  0  0  0  0  0
    6.7901  -14.9786   19.9860 O   0  0  0  0  0  0  0  0  0  0  0  0
    9.2459  -16.9384   22.1286 C   0  0  0  0  0  0  0  0  0  0  0  0
    7.8566  -16.4478   22.3977 C   0  0  1  0  0  0  0  0  0  0  0  0
    7.3705  -17.1251   23.5161 O   0  0  0  0  0  0  0  0  0  0  0  0
    7.7858  -14.9531   22.5691 C   0  0  2  0  0  0  0  0  0  0  0  0
    8.3337  -14.2052   21.4925 N   0  0  0  0  0  0  0  0  0  0  0  0
    8.3127  -14.5228   23.9017 C   0  0  0  0  0  0  0  0  0  0  0  0
    9.5492  -14.5007   24.1365 O   0  0  0  0  0  0  0  0  0  0  0  0
    5.6663  -13.0233   27.0049 C   0  0  0  0  0  0  0  0  0  0  0  0
    7.1069  -12.5338   26.8232 C   0  0  2  0  0  0  0  0  0  0  0  0
    7.0400  -11.3603   25.8666 C   0  0  0  0  0  0  0  0  0  0  0  0
    7.9026  -13.6030   26.2247 C   0  0  2  0  0  0  0  0  0  0  0  0
    7.4943  -14.1229   24.9604 N   0  0  0  0  0  0  0  0  0  0  0  0
    8.1355  -14.6983   27.2210 C   0  0  0  0  0  0  0  0  0  0  0  0
    8.8455  -14.4248   28.3750 O   0  0  0  0  0  0  0  0  0  0  0  0
    7.7148  -15.8653   27.0594 O   0  0  0  0  0  0  0  0  0  0  0  0
  2  1  1  6
  2  4  1  0
  3  2  1  0
  4 10  1  0
  4  5  2  0
  7  6  1  1
  7  8  1  0
  9  7  1  0
  9 10  1  6
 11 12  2  0
 11  9  1  0
 14 13  1  6
 14 16  1  0
 14 15  1  0
 16 17  1  6
 17 11  1  0
 18 16  1  0
 19 18  1  0
 20 18  2  0
M  END
$$$$
