ATV.pdb
     RDKit          3D

 20 19  0  0  1  0  0  0  0  0999 V2000
    8.6419  -12.2969   19.0546 C   0  0  0  0  0  0  0  0  0  0  0  0
    8.4897  -13.7767   19.1011 C   0  0  2  0  0  0  0  0  0  0  0  0
    7.8991  -14.3452   17.9270 N   0  0  0  0  0  0  0  0  0  0  0  0
    7.8350  -14.2756   20.3559 C   0  0  0  0  0  0  0  0  0  0  0  0
    6.5914  -14.3730   20.4149 O   0  0  0  0  0  0  0  0  0  0  0  0
    7.5691  -17.3974   21.6596 C   0  0  0  0  0  0  0  0  0  0  0  0
    8.0762  -16.6381   22.8469 C   0  0  1  0  0  0  0  0  0  0  0  0
    9.3854  -17.0514   23.0945 O   0  0  0  0  0  0  0  0  0  0  0  0
    7.9800  -15.1451   22.6726 C   0  0  2  0  0  0  0  0  0  0  0  0
    8.5947  -14.6440   21.4937 N   0  0  0  0  0  0  0  0  0  0  0  0
    8.4088  -14.4147   23.9059 C   0  0  0  0  0  0  0  0  0  0  0  0
    9.5589  -13.9112   23.9975 O   0  0  0  0  0  0  0  0  0  0  0  0
    5.6226  -13.1390   26.9179 C   0  0  0  0  0  0  0  0  0  0  0  0
    7.0338  -12.5628   26.7614 C   0  0  2  0  0  0  0  0  0  0  0  0
    6.9282  -11.4512   25.7367 C   0  0  0  0  0  0  0  0  0  0  0  0
    7.9223  -13.6064   26.2555 C   0  0  2  0  0  0  0  0  0  0  0  0
    7.5874  -14.2398   25.0218 N   0  0  0  0  0  0  0  0  0  0  0  0
    8.2094  -14.6112   27.3299 C   0  0  0  0  0  0  0  0  0  0  0  0
    7.9185  -15.9439   27.1065 O   0  0  0  0  0  0  0  0  0  0  0  0
    8.7055  -14.3013   28.4358 O   0  0  0  0  0  0  0  0  0  0  0  0
  2  1  1  6
  2  4  1  0
  3  2  1  0
  4 10  1  0
  4  5  2  0
  7  6  1  6
  7  8  1  0
  9  7  1  0
  9 10  1  6
 11 12  2  0
 11  9  1  0
 14 13  1  6
 14 16  1  0
 14 15  1  0
 16 17  1  6
 17 11  1  0
 18 16  1  0
 19 18  1  0
 20 18  2  0
M  END
$$$$
