ATV.pdb
     RDKit          3D

 20 19  0  0  1  0  0  0  0  0999 V2000
   13.6900  -17.9900   21.3178 C   0  0  0  0  0  0  0  0  0  0  0  0
   12.3847  -17.4871   20.8093 C   0  0  2  0  0  0  0  0  0  0  0  0
   12.4689  -16.7853   19.5638 N   0  0  0  0  0  0  0  0  0  0  0  0
   11.5942  -16.7233   21.8309 C   0  0  0  0  0  0  0  0  0  0  0  0
   11.5070  -15.4801   21.7511 O   0  0  0  0  0  0  0  0  0  0  0  0
    7.9602  -17.3681   22.3820 C   0  0  0  0  0  0  0  0  0  0  0  0
    8.6134  -17.3470   23.7297 C   0  0  1  0  0  0  0  0  0  0  0  0
    8.6568  -18.6570   24.2071 O   0  0  0  0  0  0  0  0  0  0  0  0
    9.9776  -16.7089   23.7099 C   0  0  2  0  0  0  0  0  0  0  0  0
   10.9346  -17.3780   22.9004 N   0  0  0  0  0  0  0  0  0  0  0  0
   10.4794  -16.4314   25.0919 C   0  0  0  0  0  0  0  0  0  0  0  0
   11.5422  -16.9558   25.5160 O   0  0  0  0  0  0  0  0  0  0  0  0
    9.8264  -12.9669   27.2066 C   0  0  0  0  0  0  0  0  0  0  0  0
    9.5563  -14.2217   28.0435 C   0  0  2  0  0  0  0  0  0  0  0  0
   10.2557  -14.0067   29.3706 C   0  0  0  0  0  0  0  0  0  0  0  0
   10.1391  -15.3797   27.3697 C   0  0  2  0  0  0  0  0  0  0  0  0
    9.8240  -15.5909   25.9944 N   0  0  0  0  0  0  0  0  0  0  0  0
    9.9181  -16.6199   28.1818 C   0  0  0  0  0  0  0  0  0  0  0  0
   10.8563  -16.9860   29.1286 O   0  0  0  0  0  0  0  0  0  0  0  0
    8.9135  -17.3527   28.0443 O   0  0  0  0  0  0  0  0  0  0  0  0
  2  1  1  1
  2  4  1  0
  3  2  1  0
  4 10  1  0
  4  5  2  0
  7  6  1  6
  7  8  1  0
  9  7  1  0
  9 10  1  1
 11 12  2  0
 11  9  1  0
 14 13  1  6
 14 16  1  0
 14 15  1  0
 16 17  1  6
 17 11  1  0
 18 16  1  0
 19 18  1  0
 20 18  2  0
M  END
$$$$
