ATV.pdb
     RDKit          3D

 20 19  0  0  1  0  0  0  0  0999 V2000
    8.7885  -12.3168   18.8664 C   0  0  0  0  0  0  0  0  0  0  0  0
    8.6254  -13.7935   18.9556 C   0  0  2  0  0  0  0  0  0  0  0  0
    8.0756  -14.3973   17.7793 N   0  0  0  0  0  0  0  0  0  0  0  0
    7.9210  -14.2475   20.2005 C   0  0  0  0  0  0  0  0  0  0  0  0
    6.6959  -14.4877   20.1722 O   0  0  0  0  0  0  0  0  0  0  0  0
    7.3205  -17.0775   21.2513 C   0  0  0  0  0  0  0  0  0  0  0  0
    7.9920  -16.5524   22.4827 C   0  0  1  0  0  0  0  0  0  0  0  0
    9.2778  -17.0909   22.5343 O   0  0  0  0  0  0  0  0  0  0  0  0
    8.0083  -15.0475   22.5449 C   0  0  2  0  0  0  0  0  0  0  0  0
    8.6124  -14.4134   21.4261 N   0  0  0  0  0  0  0  0  0  0  0  0
    8.5445  -14.5529   23.8513 C   0  0  0  0  0  0  0  0  0  0  0  0
    9.7734  -14.3298   24.0081 O   0  0  0  0  0  0  0  0  0  0  0  0
    5.8950  -13.3193   27.0221 C   0  0  0  0  0  0  0  0  0  0  0  0
    7.3201  -12.7767   26.8722 C   0  0  2  0  0  0  0  0  0  0  0  0
    7.2213  -11.5661   25.9661 C   0  0  0  0  0  0  0  0  0  0  0  0
    8.1536  -13.7934   26.2347 C   0  0  2  0  0  0  0  0  0  0  0  0
    7.7433  -14.3072   24.9686 N   0  0  0  0  0  0  0  0  0  0  0  0
    8.4613  -14.8957   27.2026 C   0  0  0  0  0  0  0  0  0  0  0  0
    9.1779  -14.6099   28.3495 O   0  0  0  0  0  0  0  0  0  0  0  0
    8.0985  -16.0794   27.0228 O   0  0  0  0  0  0  0  0  0  0  0  0
  2  1  1  6
  2  4  1  0
  3  2  1  0
  4 10  1  0
  4  5  2  0
  7  6  1  6
  7  8  1  0
  9  7  1  0
  9 10  1  6
 11 12  2  0
 11  9  1  0
 14 13  1  6
 14 16  1  0
 14 15  1  0
 16 17  1  6
 17 11  1  0
 18 16  1  0
 19 18  1  0
 20 18  2  0
M  END
$$$$
