ATV.pdb
     RDKit          3D

 20 19  0  0  1  0  0  0  0  0999 V2000
    8.7897  -12.4897   18.6724 C   0  0  0  0  0  0  0  0  0  0  0  0
    8.6766  -13.9725   18.7342 C   0  0  2  0  0  0  0  0  0  0  0  0
    8.1019  -14.5685   17.5658 N   0  0  0  0  0  0  0  0  0  0  0  0
    8.0347  -14.4756   19.9939 C   0  0  0  0  0  0  0  0  0  0  0  0
    6.7901  -14.5243   20.0839 O   0  0  0  0  0  0  0  0  0  0  0  0
    7.8791  -17.7036   21.4135 C   0  0  0  0  0  0  0  0  0  0  0  0
    8.3835  -16.8576   22.5417 C   0  0  1  0  0  0  0  0  0  0  0  0
    9.7199  -17.1898   22.7644 O   0  0  0  0  0  0  0  0  0  0  0  0
    8.2031  -15.3828   22.2945 C   0  0  2  0  0  0  0  0  0  0  0  0
    8.8079  -14.9022   21.1019 N   0  0  0  0  0  0  0  0  0  0  0  0
    8.5672  -14.5709   23.4974 C   0  0  0  0  0  0  0  0  0  0  0  0
    9.6610  -13.9508   23.5575 O   0  0  0  0  0  0  0  0  0  0  0  0
    7.4155  -11.7978   27.2932 C   0  0  0  0  0  0  0  0  0  0  0  0
    6.9220  -12.6468   26.1170 C   0  0  2  0  0  0  0  0  0  0  0  0
    5.6910  -13.3810   26.6093 C   0  0  0  0  0  0  0  0  0  0  0  0
    7.9554  -13.6164   25.7612 C   0  0  2  0  0  0  0  0  0  0  0  0
    7.7427  -14.4419   24.6172 N   0  0  0  0  0  0  0  0  0  0  0  0
    8.3432  -14.4273   26.9607 C   0  0  0  0  0  0  0  0  0  0  0  0
    8.9709  -13.8063   28.0242 O   0  0  0  0  0  0  0  0  0  0  0  0
    8.1256  -15.6560   27.0501 O   0  0  0  0  0  0  0  0  0  0  0  0
  2  1  1  6
  2  4  1  0
  3  2  1  0
  4 10  1  0
  4  5  2  0
  7  6  1  6
  7  8  1  0
  9  7  1  0
  9 10  1  6
 11 12  2  0
 11  9  1  0
 14 13  1  1
 14 16  1  0
 14 15  1  0
 16 17  1  6
 17 11  1  0
 18 16  1  0
 19 18  1  0
 20 18  2  0
M  END
$$$$
