ATV.pdb
     RDKit          3D

 20 19  0  0  1  0  0  0  0  0999 V2000
    9.9484  -19.6626   18.5334 C   0  0  0  0  0  0  0  0  0  0  0  0
    9.7177  -18.2887   18.0097 C   0  0  2  0  0  0  0  0  0  0  0  0
   10.6697  -17.8655   17.0272 N   0  0  0  0  0  0  0  0  0  0  0  0
    9.5255  -17.2589   19.0842 C   0  0  0  0  0  0  0  0  0  0  0  0
   10.4983  -16.5869   19.4860 O   0  0  0  0  0  0  0  0  0  0  0  0
    6.9349  -14.3536   19.4062 C   0  0  0  0  0  0  0  0  0  0  0  0
    6.8956  -15.2088   20.6351 C   0  0  1  0  0  0  0  0  0  0  0  0
    5.6945  -15.9183   20.6271 O   0  0  0  0  0  0  0  0  0  0  0  0
    8.0883  -16.1211   20.7527 C   0  0  2  0  0  0  0  0  0  0  0  0
    8.2559  -17.0224   19.6672 N   0  0  0  0  0  0  0  0  0  0  0  0
    8.1359  -16.8017   22.0843 C   0  0  0  0  0  0  0  0  0  0  0  0
    8.0575  -18.0545   22.1783 O   0  0  0  0  0  0  0  0  0  0  0  0
    8.1879  -14.5853   25.8561 C   0  0  0  0  0  0  0  0  0  0  0  0
    8.9574  -15.8965   25.6652 C   0  0  2  0  0  0  0  0  0  0  0  0
   10.3568  -15.5092   25.2314 C   0  0  0  0  0  0  0  0  0  0  0  0
    8.3191  -16.6750   24.6064 C   0  0  2  0  0  0  0  0  0  0  0  0
    8.2675  -16.1169   23.2944 N   0  0  0  0  0  0  0  0  0  0  0  0
    6.9715  -17.1549   25.0538 C   0  0  0  0  0  0  0  0  0  0  0  0
    5.8389  -16.6864   24.4146 O   0  0  0  0  0  0  0  0  0  0  0  0
    6.8161  -17.9692   25.9906 O   0  0  0  0  0  0  0  0  0  0  0  0
  2  1  1  1
  2  4  1  0
  3  2  1  0
  4 10  1  0
  4  5  2  0
  7  6  1  6
  7  8  1  0
  9  7  1  0
  9 10  1  6
 11 12  2  0
 11  9  1  0
 14 13  1  6
 14 16  1  0
 14 15  1  0
 16 17  1  6
 17 11  1  0
 18 16  1  0
 19 18  1  0
 20 18  2  0
M  END
$$$$
