ATV.pdb
     RDKit          3D

 20 19  0  0  1  0  0  0  0  0999 V2000
    8.4118  -12.2364   19.1816 C   0  0  0  0  0  0  0  0  0  0  0  0
    8.4961  -13.7223   19.1928 C   0  0  2  0  0  0  0  0  0  0  0  0
    8.0643  -14.3458   17.9781 N   0  0  0  0  0  0  0  0  0  0  0  0
    7.8668  -14.3522   20.4007 C   0  0  0  0  0  0  0  0  0  0  0  0
    6.6443  -14.6069   20.4067 O   0  0  0  0  0  0  0  0  0  0  0  0
    7.4095  -17.2870   24.0019 C   0  0  0  0  0  0  0  0  0  0  0  0
    8.1079  -16.7338   22.7980 C   0  0  1  0  0  0  0  0  0  0  0  0
    7.5705  -17.3504   21.6679 O   0  0  0  0  0  0  0  0  0  0  0  0
    8.0278  -15.2322   22.7124 C   0  0  2  0  0  0  0  0  0  0  0  0
    8.6273  -14.6706   21.5531 N   0  0  0  0  0  0  0  0  0  0  0  0
    8.4886  -14.5799   23.9776 C   0  0  0  0  0  0  0  0  0  0  0  0
    9.7141  -14.4377   24.2278 O   0  0  0  0  0  0  0  0  0  0  0  0
    5.6808  -12.9807   26.9001 C   0  0  0  0  0  0  0  0  0  0  0  0
    7.1044  -12.4400   26.7299 C   0  0  2  0  0  0  0  0  0  0  0  0
    7.0154  -11.3199   25.7132 C   0  0  0  0  0  0  0  0  0  0  0  0
    7.9597  -13.5030   26.2072 C   0  0  2  0  0  0  0  0  0  0  0  0
    7.6170  -14.0912   24.9534 N   0  0  0  0  0  0  0  0  0  0  0  0
    8.1951  -14.5455   27.2582 C   0  0  0  0  0  0  0  0  0  0  0  0
    7.7433  -15.8346   27.0469 O   0  0  0  0  0  0  0  0  0  0  0  0
    8.7877  -14.3053   28.3334 O   0  0  0  0  0  0  0  0  0  0  0  0
  2  1  1  6
  2  4  1  0
  3  2  1  0
  4 10  1  0
  4  5  2  0
  7  6  1  1
  7  8  1  0
  9  7  1  0
  9 10  1  6
 11 12  2  0
 11  9  1  0
 14 13  1  6
 14 16  1  0
 14 15  1  0
 16 17  1  6
 17 11  1  0
 18 16  1  0
 19 18  1  0
 20 18  2  0
M  END
$$$$
