ATV.pdb
     RDKit          3D

 20 19  0  0  1  0  0  0  0  0999 V2000
    8.7322  -12.3123   19.7607 C   0  0  0  0  0  0  0  0  0  0  0  0
    8.4564  -13.7736   19.6983 C   0  0  2  0  0  0  0  0  0  0  0  0
    7.5074  -14.1514   18.6946 N   0  0  0  0  0  0  0  0  0  0  0  0
    8.1355  -14.3834   21.0313 C   0  0  0  0  0  0  0  0  0  0  0  0
    6.9589  -14.3852   21.4500 O   0  0  0  0  0  0  0  0  0  0  0  0
    7.6981  -17.5499   21.7860 C   0  0  0  0  0  0  0  0  0  0  0  0
    8.6972  -17.1765   22.8375 C   0  0  1  0  0  0  0  0  0  0  0  0
    9.9165  -17.7644   22.5003 O   0  0  0  0  0  0  0  0  0  0  0  0
    8.8223  -15.6871   23.0245 C   0  0  2  0  0  0  0  0  0  0  0  0
    9.1407  -14.9649   21.8431 N   0  0  0  0  0  0  0  0  0  0  0  0
    9.7197  -15.3465   24.1722 C   0  0  0  0  0  0  0  0  0  0  0  0
   10.8919  -14.9296   23.9806 O   0  0  0  0  0  0  0  0  0  0  0  0
   10.7228  -13.6726   28.5343 C   0  0  0  0  0  0  0  0  0  0  0  0
    9.8240  -13.8201   27.3020 C   0  0  2  0  0  0  0  0  0  0  0  0
    8.3970  -13.8011   27.8116 C   0  0  0  0  0  0  0  0  0  0  0  0
   10.0947  -15.1066   26.6647 C   0  0  2  0  0  0  0  0  0  0  0  0
    9.3357  -15.4620   25.5101 N   0  0  0  0  0  0  0  0  0  0  0  0
   10.0903  -16.2041   27.6855 C   0  0  0  0  0  0  0  0  0  0  0  0
   11.0696  -16.2262   28.6607 O   0  0  0  0  0  0  0  0  0  0  0  0
    9.2336  -17.1156   27.7002 O   0  0  0  0  0  0  0  0  0  0  0  0
  2  1  1  1
  2  4  1  0
  3  2  1  0
  4 10  1  0
  4  5  2  0
  7  6  1  6
  7  8  1  0
  9  7  1  0
  9 10  1  6
 11 12  2  0
 11  9  1  0
 14 13  1  1
 14 16  1  0
 14 15  1  0
 16 17  1  6
 17 11  1  0
 18 16  1  0
 19 18  1  0
 20 18  2  0
M  END
$$$$
