ATV.pdb
     RDKit          3D

 20 19  0  0  1  0  0  0  0  0999 V2000
    8.4226  -12.3534   18.9398 C   0  0  0  0  0  0  0  0  0  0  0  0
    8.3666  -13.8378   19.0339 C   0  0  2  0  0  0  0  0  0  0  0  0
    7.7770  -14.4781   17.8967 N   0  0  0  0  0  0  0  0  0  0  0  0
    7.7844  -14.3380   20.3234 C   0  0  0  0  0  0  0  0  0  0  0  0
    6.5565  -14.5459   20.4149 O   0  0  0  0  0  0  0  0  0  0  0  0
    7.6823  -17.3870   21.5934 C   0  0  0  0  0  0  0  0  0  0  0  0
    8.2357  -16.6410   22.7684 C   0  0  1  0  0  0  0  0  0  0  0  0
    9.5748  -17.0029   22.9157 O   0  0  0  0  0  0  0  0  0  0  0  0
    8.0649  -15.1493   22.6488 C   0  0  2  0  0  0  0  0  0  0  0  0
    8.5962  -14.5842   21.4583 N   0  0  0  0  0  0  0  0  0  0  0  0
    8.5232  -14.4386   23.8830 C   0  0  0  0  0  0  0  0  0  0  0  0
    9.4646  -13.6039   23.8419 O   0  0  0  0  0  0  0  0  0  0  0  0
    5.9710  -13.3469   26.9240 C   0  0  0  0  0  0  0  0  0  0  0  0
    7.4062  -12.8381   26.7528 C   0  0  2  0  0  0  0  0  0  0  0  0
    7.3636  -11.8119   25.6385 C   0  0  0  0  0  0  0  0  0  0  0  0
    8.2634  -13.9520   26.3541 C   0  0  2  0  0  0  0  0  0  0  0  0
    7.9566  -14.6414   25.1433 N   0  0  0  0  0  0  0  0  0  0  0  0
    8.4461  -14.9032   27.4980 C   0  0  0  0  0  0  0  0  0  0  0  0
    9.0672  -14.4638   28.6520 O   0  0  0  0  0  0  0  0  0  0  0  0
    8.0605  -16.0927   27.4614 O   0  0  0  0  0  0  0  0  0  0  0  0
  2  1  1  6
  2  4  1  0
  3  2  1  0
  4 10  1  0
  4  5  2  0
  7  6  1  6
  7  8  1  0
  9  7  1  0
  9 10  1  6
 11 12  2  0
 11  9  1  0
 14 13  1  6
 14 16  1  0
 14 15  1  0
 16 17  1  6
 17 11  1  0
 18 16  1  0
 19 18  1  0
 20 18  2  0
M  END
$$$$
