ATV.pdb
     RDKit          3D

 20 19  0  0  1  0  0  0  0  0999 V2000
   10.5321  -20.2759   26.8192 C   0  0  0  0  0  0  0  0  0  0  0  0
   10.9291  -19.8267   25.4569 C   0  0  2  0  0  0  0  0  0  0  0  0
   12.2103  -20.3030   25.0299 N   0  0  0  0  0  0  0  0  0  0  0  0
   10.7805  -18.3488   25.2429 C   0  0  0  0  0  0  0  0  0  0  0  0
   11.5849  -17.5567   25.7768 O   0  0  0  0  0  0  0  0  0  0  0  0
   10.6824  -16.3692   21.9926 C   0  0  0  0  0  0  0  0  0  0  0  0
    9.4813  -15.9925   22.8041 C   0  0  1  0  0  0  0  0  0  0  0  0
    8.3559  -16.5363   22.1847 O   0  0  0  0  0  0  0  0  0  0  0  0
    9.5913  -16.4163   24.2453 C   0  0  2  0  0  0  0  0  0  0  0  0
    9.7396  -17.8155   24.4432 N   0  0  0  0  0  0  0  0  0  0  0  0
    8.5008  -15.8245   25.0815 C   0  0  0  0  0  0  0  0  0  0  0  0
    7.6877  -16.5566   25.7040 O   0  0  0  0  0  0  0  0  0  0  0  0
    8.5449  -11.8461   26.7010 C   0  0  0  0  0  0  0  0  0  0  0  0
    7.2705  -12.3340   26.0041 C   0  0  2  0  0  0  0  0  0  0  0  0
    6.1109  -11.8546   26.8538 C   0  0  0  0  0  0  0  0  0  0  0  0
    7.2749  -13.7946   25.9687 C   0  0  2  0  0  0  0  0  0  0  0  0
    8.3061  -14.4497   25.2318 N   0  0  0  0  0  0  0  0  0  0  0  0
    5.9183  -14.3101   25.5942 C   0  0  0  0  0  0  0  0  0  0  0  0
    4.9476  -14.4346   26.5704 O   0  0  0  0  0  0  0  0  0  0  0  0
    5.6145  -14.6394   24.4262 O   0  0  0  0  0  0  0  0  0  0  0  0
  2  1  1  1
  2  4  1  0
  3  2  1  0
  4 10  1  0
  4  5  2  0
  7  6  1  6
  7  8  1  0
  9  7  1  0
  9 10  1  6
 11 12  2  0
 11  9  1  0
 14 13  1  1
 14 16  1  0
 14 15  1  0
 16 17  1  6
 17 11  1  0
 18 16  1  0
 19 18  1  0
 20 18  2  0
M  END
$$$$
