ATV.pdb
     RDKit          3D

 20 19  0  0  1  0  0  0  0  0999 V2000
    8.6909  -12.2968   18.9901 C   0  0  0  0  0  0  0  0  0  0  0  0
    8.6644  -13.7848   18.9668 C   0  0  2  0  0  0  0  0  0  0  0  0
    8.1671  -14.3459   17.7468 N   0  0  0  0  0  0  0  0  0  0  0  0
    8.0104  -14.3944   20.1720 C   0  0  0  0  0  0  0  0  0  0  0  0
    6.7734  -14.5648   20.1918 O   0  0  0  0  0  0  0  0  0  0  0  0
    7.9346  -17.6421   21.3897 C   0  0  0  0  0  0  0  0  0  0  0  0
    8.3867  -16.8610   22.5850 C   0  0  1  0  0  0  0  0  0  0  0  0
    9.7322  -17.1546   22.8069 O   0  0  0  0  0  0  0  0  0  0  0  0
    8.1491  -15.3805   22.4419 C   0  0  2  0  0  0  0  0  0  0  0  0
    8.7632  -14.7876   21.3061 N   0  0  0  0  0  0  0  0  0  0  0  0
    8.4463  -14.6466   23.7114 C   0  0  0  0  0  0  0  0  0  0  0  0
    9.5444  -14.0546   23.8793 O   0  0  0  0  0  0  0  0  0  0  0  0
    6.1145  -12.1492   25.6100 C   0  0  0  0  0  0  0  0  0  0  0  0
    6.6275  -13.1818   26.6192 C   0  0  2  0  0  0  0  0  0  0  0  0
    7.1096  -12.3972   27.8228 C   0  0  0  0  0  0  0  0  0  0  0  0
    7.7510  -13.9072   26.0310 C   0  0  2  0  0  0  0  0  0  0  0  0
    7.5512  -14.5640   24.7803 N   0  0  0  0  0  0  0  0  0  0  0  0
    8.3642  -14.8266   27.0436 C   0  0  0  0  0  0  0  0  0  0  0  0
    9.1217  -14.2950   28.0704 O   0  0  0  0  0  0  0  0  0  0  0  0
    8.2244  -16.0692   27.0066 O   0  0  0  0  0  0  0  0  0  0  0  0
  2  1  1  6
  2  4  1  0
  3  2  1  0
  4 10  1  0
  4  5  2  0
  7  6  1  6
  7  8  1  0
  9  7  1  0
  9 10  1  6
 11 12  2  0
 11  9  1  0
 14 13  1  6
 14 16  1  0
 14 15  1  0
 16 17  1  6
 17 11  1  0
 18 16  1  0
 19 18  1  0
 20 18  2  0
M  END
$$$$
