ATV.pdb
     RDKit          3D

 20 19  0  0  1  0  0  0  0  0999 V2000
   12.9370  -16.7568   20.5253 C   0  0  0  0  0  0  0  0  0  0  0  0
   11.5120  -16.6286   20.1152 C   0  0  2  0  0  0  0  0  0  0  0  0
   11.3249  -16.1823   18.7674 N   0  0  0  0  0  0  0  0  0  0  0  0
   10.6739  -15.8488   21.0854 C   0  0  0  0  0  0  0  0  0  0  0  0
   10.5835  -14.6081   20.9758 O   0  0  0  0  0  0  0  0  0  0  0  0
    7.0604  -15.7691   21.7462 C   0  0  0  0  0  0  0  0  0  0  0  0
    7.7189  -16.0832   23.0542 C   0  0  1  0  0  0  0  0  0  0  0  0
    7.4880  -17.4291   23.3396 O   0  0  0  0  0  0  0  0  0  0  0  0
    9.1874  -15.7485   23.0665 C   0  0  2  0  0  0  0  0  0  0  0  0
    9.9723  -16.4852   22.1391 N   0  0  0  0  0  0  0  0  0  0  0  0
    9.7500  -15.7751   24.4526 C   0  0  0  0  0  0  0  0  0  0  0  0
   10.7491  -16.4865   24.7361 O   0  0  0  0  0  0  0  0  0  0  0  0
    9.0100  -12.6309   27.0658 C   0  0  0  0  0  0  0  0  0  0  0  0
    9.0999  -13.9943   27.7593 C   0  0  2  0  0  0  0  0  0  0  0  0
    9.9945  -13.7992   28.9668 C   0  0  0  0  0  0  0  0  0  0  0  0
    9.7179  -14.9541   26.8475 C   0  0  2  0  0  0  0  0  0  0  0  0
    9.2235  -15.0320   25.5115 N   0  0  0  0  0  0  0  0  0  0  0  0
    9.7902  -16.3075   27.4874 C   0  0  0  0  0  0  0  0  0  0  0  0
   10.8087  -16.5808   28.3811 O   0  0  0  0  0  0  0  0  0  0  0  0
    8.9646  -17.2168   27.2502 O   0  0  0  0  0  0  0  0  0  0  0  0
  2  1  1  1
  2  4  1  0
  3  2  1  0
  4 10  1  0
  4  5  2  0
  7  6  1  6
  7  8  1  0
  9  7  1  0
  9 10  1  6
 11 12  2  0
 11  9  1  0
 14 13  1  6
 14 16  1  0
 14 15  1  0
 16 17  1  6
 17 11  1  0
 18 16  1  0
 19 18  1  0
 20 18  2  0
M  END
$$$$
