ATV.pdb
     RDKit          3D

 20 19  0  0  1  0  0  0  0  0999 V2000
    8.4780  -12.3790   18.9849 C   0  0  0  0  0  0  0  0  0  0  0  0
    8.4471  -13.8669   18.9632 C   0  0  2  0  0  0  0  0  0  0  0  0
    7.8285  -14.4261   17.7989 N   0  0  0  0  0  0  0  0  0  0  0  0
    7.9168  -14.4769   20.2275 C   0  0  0  0  0  0  0  0  0  0  0  0
    6.6902  -14.6697   20.3610 O   0  0  0  0  0  0  0  0  0  0  0  0
    8.2781  -17.7572   21.3792 C   0  0  0  0  0  0  0  0  0  0  0  0
    8.6761  -16.9476   22.5747 C   0  0  1  0  0  0  0  0  0  0  0  0
   10.0490  -17.1070   22.7644 O   0  0  0  0  0  0  0  0  0  0  0  0
    8.2884  -15.4970   22.4558 C   0  0  2  0  0  0  0  0  0  0  0  0
    8.7768  -14.8452   21.2916 N   0  0  0  0  0  0  0  0  0  0  0  0
    8.5844  -14.7398   23.7119 C   0  0  0  0  0  0  0  0  0  0  0  0
    9.5898  -13.9872   23.7967 O   0  0  0  0  0  0  0  0  0  0  0  0
    6.2778  -12.3922   25.4584 C   0  0  0  0  0  0  0  0  0  0  0  0
    6.7952  -13.3137   26.5679 C   0  0  2  0  0  0  0  0  0  0  0  0
    7.2420  -12.4089   27.6985 C   0  0  0  0  0  0  0  0  0  0  0  0
    7.9424  -14.0669   26.0668 C   0  0  2  0  0  0  0  0  0  0  0  0
    7.7884  -14.8080   24.8575 N   0  0  0  0  0  0  0  0  0  0  0  0
    8.5280  -14.9106   27.1585 C   0  0  0  0  0  0  0  0  0  0  0  0
    9.2014  -14.2996   28.1997 O   0  0  0  0  0  0  0  0  0  0  0  0
    8.4383  -16.1582   27.1761 O   0  0  0  0  0  0  0  0  0  0  0  0
  2  1  1  1
  2  4  1  0
  3  2  1  0
  4 10  1  0
  4  5  2  0
  7  6  1  6
  7  8  1  0
  9  7  1  0
  9 10  1  6
 11 12  2  0
 11  9  1  0
 14 13  1  6
 14 16  1  0
 14 15  1  0
 16 17  1  6
 17 11  1  0
 18 16  1  0
 19 18  1  0
 20 18  2  0
M  END
$$$$
