RKY.pdb
     RDKit          3D

 33 33  0  0  1  0  0  0  0  0999 V2000
   12.2023  -20.2961   25.3617 N   0  0  0  0  0  0  0  0  0  0  0  0
   12.1514  -21.7069   25.1085 C   0  0  0  0  0  0  0  0  0  0  0  0
   13.1679  -22.4346   25.3682 N   0  0  0  0  0  0  0  0  0  0  0  0
   10.9922  -22.3130   24.5655 N   0  0  0  0  0  0  0  0  0  0  0  0
    9.8777  -21.5114   24.1174 C   0  0  0  0  0  0  0  0  0  0  0  0
   10.1758  -20.7484   22.8395 C   0  0  0  0  0  0  0  0  0  0  0  0
    9.0990  -21.0427   21.8346 C   0  0  0  0  0  0  0  0  0  0  0  0
    9.2641  -20.2904   20.5577 C   0  0  2  0  0  0  0  0  0  0  0  0
   10.3048  -20.7023   19.6894 N   0  0  0  0  0  0  0  0  0  0  0  0
    9.3763  -18.8100   20.8020 C   0  0  0  0  0  0  0  0  0  0  0  0
   10.5645  -18.3384   20.8869 O   0  0  0  0  0  0  0  0  0  0  0  0
   13.1755  -23.4538   25.2150 N   0  0  0  0  0  0  0  0  0  0  0  0
    8.2699  -17.9555   20.9359 C   0  0  1  0  0  0  0  0  0  0  0  0
    8.3714  -16.5451   21.2633 C   0  0  0  0  0  0  0  0  0  0  0  0
    7.1089  -15.8044   21.0154 C   0  0  0  0  0  0  0  0  0  0  0  0
    7.2158  -14.3027   21.1073 C   0  0  0  0  0  0  0  0  0  0  0  0
    7.7470  -13.6650   19.8475 C   0  0  0  0  0  0  0  0  0  0  0  0
    7.7711  -12.1408   19.9866 N   0  0  0  0  0  0  0  0  0  0  0  0
    8.2784  -11.5235   18.7917 C   0  0  0  0  0  0  0  0  0  0  0  0
    8.8809  -16.3680   22.6666 O   0  0  0  0  0  0  0  0  0  0  0  0
    8.5477  -17.1799   23.5609 O   0  0  0  0  0  0  0  0  0  0  0  0
   10.7510  -14.5687   30.6572 C   0  0  0  0  0  0  0  0  0  0  0  0
   10.3216  -14.7246   29.3536 C   0  0  0  0  0  0  0  0  0  0  0  0
   10.1523  -15.9864   28.7940 C   0  0  0  0  0  0  0  0  0  0  0  0
    9.7296  -16.1600   27.5101 C   0  0  0  0  0  0  0  0  0  0  0  0
    9.4570  -15.0264   26.7286 C   0  0  0  0  0  0  0  0  0  0  0  0
    9.0309  -15.2552   25.3353 C   0  0  2  0  0  0  0  0  0  0  0  0
   10.1879  -15.1310   24.4014 N   0  0  0  0  0  0  0  0  0  0  0  0
    9.7386  -15.2967   23.0188 C   0  0  0  0  0  0  0  0  0  0  0  0
   11.3060  -16.0458   24.7051 O   0  0  0  0  0  0  0  0  0  0  0  0
   11.9700  -16.8267   23.7628 C   0  0  0  0  0  0  0  0  0  0  0  0
    9.6228  -13.7726   27.2767 C   0  0  0  0  0  0  0  0  0  0  0  0
   10.0490  -13.6281   28.5703 O   0  0  0  0  0  0  0  0  0  0  0  0
  1  2  1  0
  2  3  2  0
  4  2  1  0
  4  5  1  0
  6  5  1  0
  7  6  1  0
  8  7  1  0
  8  9  1  1
 10  8  1  0
 11 10  2  0
 12 10  1  0
 13 12  1  0
 13 14  1  1
 14 15  1  0
 16 15  1  0
 16 17  1  0
 17 18  1  0
 19 13  1  0
 19 28  1  0
 20 19  2  0
 21 22  1  0
 22 32  2  0
 23 24  2  0
 23 22  1  0
 24 25  1  0
 25 26  1  0
 25 31  2  0
 27 28  1  0
 27 26  1  6
 29 27  1  0
 29 30  1  0
 32 31  1  0
 33 29  2  0
M  END
$$$$
