RKY.pdb
     RDKit          3D

 33 33  0  0  1  0  0  0  0  0999 V2000
    9.3711  -14.1927   18.7282 N   0  0  0  0  0  0  0  0  0  0  0  0
    8.6061  -12.9986   18.9425 C   0  0  0  0  0  0  0  0  0  0  0  0
    8.7721  -11.9928   18.1736 N   0  0  0  0  0  0  0  0  0  0  0  0
    7.6695  -12.9079   20.0011 N   0  0  0  0  0  0  0  0  0  0  0  0
    7.6931  -13.8513   21.0942 C   0  0  0  0  0  0  0  0  0  0  0  0
    6.4273  -14.6844   21.1820 C   0  0  0  0  0  0  0  0  0  0  0  0
    6.5639  -15.6590   22.3166 C   0  0  0  0  0  0  0  0  0  0  0  0
    7.7563  -16.5456   22.1905 C   0  0  2  0  0  0  0  0  0  0  0  0
    7.6710  -17.6256   21.2778 N   0  0  0  0  0  0  0  0  0  0  0  0
    8.2026  -17.0612   23.5316 C   0  0  0  0  0  0  0  0  0  0  0  0
    7.3463  -16.9844   24.4816 O   0  0  0  0  0  0  0  0  0  0  0  0
    8.1979  -11.1396   18.2426 N   0  0  0  0  0  0  0  0  0  0  0  0
    9.4749  -17.6038   23.7748 C   0  0  2  0  0  0  0  0  0  0  0  0
    9.9030  -18.1179   25.0628 C   0  0  0  0  0  0  0  0  0  0  0  0
   11.0214  -19.0878   24.9525 C   0  0  0  0  0  0  0  0  0  0  0  0
   11.4493  -19.7263   26.2504 C   0  0  0  0  0  0  0  0  0  0  0  0
   12.6313  -20.6512   26.0981 C   0  0  0  0  0  0  0  0  0  0  0  0
   13.0041  -21.2720   27.4467 N   0  0  0  0  0  0  0  0  0  0  0  0
   14.2034  -22.0569   27.3375 C   0  0  0  0  0  0  0  0  0  0  0  0
   10.2087  -16.9859   26.0038 O   0  0  0  0  0  0  0  0  0  0  0  0
   11.0130  -16.0878   25.6627 O   0  0  0  0  0  0  0  0  0  0  0  0
    7.1506  -12.5385   23.6722 C   0  0  0  0  0  0  0  0  0  0  0  0
    7.5516  -13.1313   24.8537 C   0  0  0  0  0  0  0  0  0  0  0  0
    8.5876  -12.6000   25.6141 C   0  0  0  0  0  0  0  0  0  0  0  0
    8.9970  -13.1707   26.7821 C   0  0  0  0  0  0  0  0  0  0  0  0
    8.3504  -14.3330   27.2301 C   0  0  0  0  0  0  0  0  0  0  0  0
    8.8421  -14.9374   28.4824 C   0  0  2  0  0  0  0  0  0  0  0  0
   10.0005  -15.8391   28.2150 N   0  0  0  0  0  0  0  0  0  0  0  0
    9.6092  -16.8983   27.2846 C   0  0  0  0  0  0  0  0  0  0  0  0
   10.6132  -16.4069   29.4322 O   0  0  0  0  0  0  0  0  0  0  0  0
   10.8011  -17.7667   29.6650 C   0  0  0  0  0  0  0  0  0  0  0  0
    7.3227  -14.8653   26.4814 C   0  0  0  0  0  0  0  0  0  0  0  0
    6.9321  -14.2703   25.3112 O   0  0  0  0  0  0  0  0  0  0  0  0
  1  2  1  0
  2  3  2  0
  4  2  1  0
  4  5  1  0
  6  5  1  0
  7  6  1  0
  8  7  1  0
  8  9  1  6
 10  8  1  0
 11 10  2  0
 12 10  1  0
 13 12  1  0
 13 14  1  6
 14 15  1  0
 16 15  1  0
 16 17  1  0
 17 18  1  0
 19 13  1  0
 19 28  1  0
 20 19  2  0
 21 22  1  0
 22 32  2  0
 23 24  2  0
 23 22  1  0
 24 25  1  0
 25 26  1  0
 25 31  2  0
 27 28  1  0
 27 26  1  6
 29 27  1  0
 29 30  1  0
 32 31  1  0
 33 29  2  0
M  END
$$$$
