RKY.pdb
     RDKit          3D

 33 33  0  0  1  0  0  0  0  0999 V2000
    6.4754  -13.1335   16.1063 N   0  0  0  0  0  0  0  0  0  0  0  0
    7.0615  -13.3329   17.4001 C   0  0  0  0  0  0  0  0  0  0  0  0
    6.4480  -12.9262   18.4434 N   0  0  0  0  0  0  0  0  0  0  0  0
    8.3187  -13.9688   17.5453 N   0  0  0  0  0  0  0  0  0  0  0  0
    8.6081  -15.2044   16.8563 C   0  0  0  0  0  0  0  0  0  0  0  0
   10.0323  -15.6820   17.0744 C   0  0  0  0  0  0  0  0  0  0  0  0
   10.3853  -15.5138   18.5245 C   0  0  0  0  0  0  0  0  0  0  0  0
   10.4793  -16.8068   19.2613 C   0  0  2  0  0  0  0  0  0  0  0  0
    9.7976  -17.9203   18.7116 N   0  0  0  0  0  0  0  0  0  0  0  0
   10.0882  -16.6469   20.7053 C   0  0  0  0  0  0  0  0  0  0  0  0
   10.7506  -15.7815   21.3789 O   0  0  0  0  0  0  0  0  0  0  0  0
    6.7963  -13.1028   19.3972 N   0  0  0  0  0  0  0  0  0  0  0  0
    9.0628  -17.3822   21.3218 C   0  0  1  0  0  0  0  0  0  0  0  0
    8.8765  -17.4634   22.7589 C   0  0  0  0  0  0  0  0  0  0  0  0
    7.9947  -18.5874   23.1624 C   0  0  0  0  0  0  0  0  0  0  0  0
    7.8330  -18.7758   24.6502 C   0  0  0  0  0  0  0  0  0  0  0  0
    6.9301  -19.9295   25.0100 C   0  0  0  0  0  0  0  0  0  0  0  0
    6.7143  -19.9901   26.5242 N   0  0  0  0  0  0  0  0  0  0  0  0
    5.7588  -21.0078   26.8671 C   0  0  0  0  0  0  0  0  0  0  0  0
   10.2066  -17.4905   23.4593 O   0  0  0  0  0  0  0  0  0  0  0  0
   10.7919  -18.5819   23.6498 O   0  0  0  0  0  0  0  0  0  0  0  0
   10.2772  -14.9853   31.5541 C   0  0  0  0  0  0  0  0  0  0  0  0
   10.1483  -15.1783   30.1924 C   0  0  0  0  0  0  0  0  0  0  0  0
   10.2180  -14.1130   29.3013 C   0  0  0  0  0  0  0  0  0  0  0  0
   10.0931  -14.2838   27.9550 C   0  0  0  0  0  0  0  0  0  0  0  0
    9.8871  -15.5785   27.4537 C   0  0  0  0  0  0  0  0  0  0  0  0
    9.7269  -15.7183   25.9942 C   0  0  1  0  0  0  0  0  0  0  0  0
   11.0248  -16.0774   25.3518 N   0  0  0  0  0  0  0  0  0  0  0  0
   10.8313  -16.3050   23.9194 C   0  0  0  0  0  0  0  0  0  0  0  0
   11.7088  -17.2250   25.9798 O   0  0  0  0  0  0  0  0  0  0  0  0
   11.1123  -18.4544   26.2469 C   0  0  0  0  0  0  0  0  0  0  0  0
    9.8168  -16.6391   28.3312 C   0  0  0  0  0  0  0  0  0  0  0  0
    9.9459  -16.4378   29.6798 O   0  0  0  0  0  0  0  0  0  0  0  0
  1  2  1  0
  2  3  2  0
  4  2  1  0
  4  5  1  0
  6  5  1  0
  7  6  1  0
  8  7  1  0
  8  9  1  6
 10  8  1  0
 11 10  2  0
 12 10  1  0
 13 12  1  0
 13 14  1  1
 14 15  1  0
 16 15  1  0
 16 17  1  0
 17 18  1  0
 19 13  1  0
 19 28  1  0
 20 19  2  0
 21 22  1  0
 22 32  2  0
 23 24  2  0
 23 22  1  0
 24 25  1  0
 25 26  1  0
 25 31  2  0
 27 28  1  0
 27 26  1  6
 29 27  1  0
 29 30  1  0
 32 31  1  0
 33 29  2  0
M  END
$$$$
