RKY.pdb
     RDKit          3D

 33 33  0  0  1  0  0  0  0  0999 V2000
    7.4404  -16.5581   10.4450 N   0  0  0  0  0  0  0  0  0  0  0  0
    7.2299  -16.9733   11.8016 C   0  0  0  0  0  0  0  0  0  0  0  0
    6.8360  -18.1628   12.0466 N   0  0  0  0  0  0  0  0  0  0  0  0
    7.4436  -16.0832   12.8824 N   0  0  0  0  0  0  0  0  0  0  0  0
    8.6204  -15.2476   12.9326 C   0  0  0  0  0  0  0  0  0  0  0  0
    9.8603  -15.9420   12.3992 C   0  0  0  0  0  0  0  0  0  0  0  0
   10.9848  -15.7478   13.3757 C   0  0  0  0  0  0  0  0  0  0  0  0
   10.8418  -16.5729   14.6096 C   0  0  2  0  0  0  0  0  0  0  0  0
    9.7135  -17.4251   14.6957 N   0  0  0  0  0  0  0  0  0  0  0  0
   10.9214  -15.7255   15.8502 C   0  0  0  0  0  0  0  0  0  0  0  0
   11.9422  -14.9573   15.9468 O   0  0  0  0  0  0  0  0  0  0  0  0
    6.6922  -18.5145   13.0047 N   0  0  0  0  0  0  0  0  0  0  0  0
    9.9559  -15.7425   16.8699 C   0  0  2  0  0  0  0  0  0  0  0  0
   10.1044  -15.0504   18.1369 C   0  0  0  0  0  0  0  0  0  0  0  0
    8.8174  -14.8892   18.8591 C   0  0  0  0  0  0  0  0  0  0  0  0
    8.8684  -13.9942   20.0722 C   0  0  0  0  0  0  0  0  0  0  0  0
    7.5416  -13.8735   20.7797 C   0  0  0  0  0  0  0  0  0  0  0  0
    7.6490  -12.9050   21.9601 N   0  0  0  0  0  0  0  0  0  0  0  0
    6.3843  -12.7677   22.6294 C   0  0  0  0  0  0  0  0  0  0  0  0
   11.1603  -15.7144   18.9764 O   0  0  0  0  0  0  0  0  0  0  0  0
   11.3174  -16.9561   18.9183 O   0  0  0  0  0  0  0  0  0  0  0  0
   17.0342  -14.3962   15.9301 C   0  0  0  0  0  0  0  0  0  0  0  0
   16.3420  -14.4681   17.1233 C   0  0  0  0  0  0  0  0  0  0  0  0
   16.5780  -15.4906   18.0358 C   0  0  0  0  0  0  0  0  0  0  0  0
   15.9051  -15.5780   19.2177 C   0  0  0  0  0  0  0  0  0  0  0  0
   14.9424  -14.6030   19.5217 C   0  0  0  0  0  0  0  0  0  0  0  0
   14.2146  -14.7491   20.7962 C   0  0  2  0  0  0  0  0  0  0  0  0
   13.0330  -15.6451   20.6305 N   0  0  0  0  0  0  0  0  0  0  0  0
   11.9975  -14.9723   19.8457 C   0  0  0  0  0  0  0  0  0  0  0  0
   12.4826  -16.1548   21.9019 O   0  0  0  0  0  0  0  0  0  0  0  0
   13.1961  -16.9101   22.8287 C   0  0  0  0  0  0  0  0  0  0  0  0
   14.7031  -13.5866   18.6218 C   0  0  0  0  0  0  0  0  0  0  0  0
   15.3947  -13.5237   17.4413 O   0  0  0  0  0  0  0  0  0  0  0  0
  1  2  1  0
  2  3  2  0
  4  2  1  0
  4  5  1  0
  6  5  1  0
  7  6  1  0
  8  7  1  0
  8  9  1  6
 10  8  1  0
 11 10  2  0
 12 10  1  0
 13 12  1  0
 13 14  1  6
 14 15  1  0
 16 15  1  0
 16 17  1  0
 17 18  1  0
 19 13  1  0
 19 28  1  0
 20 19  2  0
 21 22  1  0
 22 32  2  0
 23 24  2  0
 23 22  1  0
 24 25  1  0
 25 26  1  0
 25 31  2  0
 27 28  1  0
 27 26  1  6
 29 27  1  0
 29 30  1  0
 32 31  1  0
 33 29  2  0
M  END
$$$$
