RKY.pdb
     RDKit          3D

 33 33  0  0  1  0  0  0  0  0999 V2000
    8.0065  -13.8228   13.5188 N   0  0  0  0  0  0  0  0  0  0  0  0
    8.7922  -14.1855   14.6626 C   0  0  0  0  0  0  0  0  0  0  0  0
    9.7544  -15.0148   14.5334 N   0  0  0  0  0  0  0  0  0  0  0  0
    8.5165  -13.6456   15.9426 N   0  0  0  0  0  0  0  0  0  0  0  0
    7.1613  -13.3556   16.3483 C   0  0  0  0  0  0  0  0  0  0  0  0
    7.0768  -12.7642   17.7437 C   0  0  0  0  0  0  0  0  0  0  0  0
    6.9212  -13.8802   18.7366 C   0  0  0  0  0  0  0  0  0  0  0  0
    8.2180  -14.3449   19.3078 C   0  0  2  0  0  0  0  0  0  0  0  0
    9.1533  -14.9223   18.4141 N   0  0  0  0  0  0  0  0  0  0  0  0
    8.0049  -15.2722   20.4732 C   0  0  0  0  0  0  0  0  0  0  0  0
    7.2145  -14.8555   21.3914 O   0  0  0  0  0  0  0  0  0  0  0  0
   10.3868  -15.2578   15.3103 N   0  0  0  0  0  0  0  0  0  0  0  0
    8.6162  -16.5311   20.5903 C   0  0  2  0  0  0  0  0  0  0  0  0
    8.4649  -17.4004   21.7428 C   0  0  0  0  0  0  0  0  0  0  0  0
    8.7434  -18.8246   21.4300 C   0  0  0  0  0  0  0  0  0  0  0  0
    7.7631  -19.4801   20.4896 C   0  0  0  0  0  0  0  0  0  0  0  0
    8.1611  -20.8808   20.0954 C   0  0  0  0  0  0  0  0  0  0  0  0
    7.1391  -21.4756   19.1234 N   0  0  0  0  0  0  0  0  0  0  0  0
    7.5121  -22.8091   18.7374 C   0  0  0  0  0  0  0  0  0  0  0  0
    9.2837  -16.8897   22.8957 O   0  0  0  0  0  0  0  0  0  0  0  0
   10.4885  -16.5912   22.7244 O   0  0  0  0  0  0  0  0  0  0  0  0
   11.8444  -14.1396   30.7685 C   0  0  0  0  0  0  0  0  0  0  0  0
   11.0648  -14.4873   29.6825 C   0  0  0  0  0  0  0  0  0  0  0  0
   10.6372  -15.7962   29.4887 C   0  0  0  0  0  0  0  0  0  0  0  0
    9.8678  -16.1581   28.4236 C   0  0  0  0  0  0  0  0  0  0  0  0
    9.4961  -15.1756   27.4928 C   0  0  0  0  0  0  0  0  0  0  0  0
    8.6887  -15.6122   26.3384 C   0  0  1  0  0  0  0  0  0  0  0  0
    9.5540  -16.2299   25.2914 N   0  0  0  0  0  0  0  0  0  0  0  0
    8.7311  -16.7322   24.1907 C   0  0  0  0  0  0  0  0  0  0  0  0
   10.4533  -17.2841   25.8004 O   0  0  0  0  0  0  0  0  0  0  0  0
   11.7644  -17.0738   26.2191 C   0  0  0  0  0  0  0  0  0  0  0  0
    9.9164  -13.8760   27.6785 C   0  0  0  0  0  0  0  0  0  0  0  0
   10.6892  -13.5409   28.7586 O   0  0  0  0  0  0  0  0  0  0  0  0
  1  2  1  0
  2  3  2  0
  4  2  1  0
  4  5  1  0
  6  5  1  0
  7  6  1  0
  8  7  1  0
  8  9  1  6
 10  8  1  0
 11 10  2  0
 12 10  1  0
 13 12  1  0
 13 14  1  6
 14 15  1  0
 16 15  1  0
 16 17  1  0
 17 18  1  0
 19 13  1  0
 19 28  1  0
 20 19  2  0
 21 22  1  0
 22 32  2  0
 23 24  2  0
 23 22  1  0
 24 25  1  0
 25 26  1  0
 25 31  2  0
 27 28  1  0
 27 26  1  6
 29 27  1  0
 29 30  1  0
 32 31  1  0
 33 29  2  0
M  END
$$$$
