RKY.pdb
     RDKit          3D

 33 33  0  0  1  0  0  0  0  0999 V2000
    9.8997  -17.2609   13.1361 N   0  0  0  0  0  0  0  0  0  0  0  0
    8.7202  -17.9535   13.5676 C   0  0  0  0  0  0  0  0  0  0  0  0
    7.6809  -17.9583   12.8260 N   0  0  0  0  0  0  0  0  0  0  0  0
    8.6811  -18.6306   14.8110 N   0  0  0  0  0  0  0  0  0  0  0  0
    8.9724  -17.9354   16.0428 C   0  0  0  0  0  0  0  0  0  0  0  0
    7.7441  -17.2952   16.6637 C   0  0  0  0  0  0  0  0  0  0  0  0
    8.1650  -16.5008   17.8668 C   0  0  0  0  0  0  0  0  0  0  0  0
    8.3451  -17.3352   19.0895 C   0  0  2  0  0  0  0  0  0  0  0  0
    7.2235  -18.0693   19.5477 N   0  0  0  0  0  0  0  0  0  0  0  0
    8.9111  -16.5293   20.2270 C   0  0  0  0  0  0  0  0  0  0  0  0
   10.0103  -15.9139   19.9931 O   0  0  0  0  0  0  0  0  0  0  0  0
    6.7916  -18.3896   13.1182 N   0  0  0  0  0  0  0  0  0  0  0  0
    8.3043  -16.4287   21.4895 C   0  0  1  0  0  0  0  0  0  0  0  0
    8.8961  -15.7356   22.6191 C   0  0  0  0  0  0  0  0  0  0  0  0
    7.9235  -15.4795   23.7110 C   0  0  0  0  0  0  0  0  0  0  0  0
    7.5468  -14.0327   23.9104 C   0  0  0  0  0  0  0  0  0  0  0  0
    6.6210  -13.8140   25.0813 C   0  0  0  0  0  0  0  0  0  0  0  0
    6.2861  -12.3278   25.2303 N   0  0  0  0  0  0  0  0  0  0  0  0
    5.3385  -12.1181   26.2906 C   0  0  0  0  0  0  0  0  0  0  0  0
   10.1235  -16.4618   23.0952 O   0  0  0  0  0  0  0  0  0  0  0  0
   10.2119  -17.7033   22.9511 O   0  0  0  0  0  0  0  0  0  0  0  0
   10.6024  -14.8224   31.4068 C   0  0  0  0  0  0  0  0  0  0  0  0
   10.5054  -14.8981   30.0310 C   0  0  0  0  0  0  0  0  0  0  0  0
   10.5449  -13.7556   29.2393 C   0  0  0  0  0  0  0  0  0  0  0  0
   10.4507  -13.8105   27.8808 C   0  0  0  0  0  0  0  0  0  0  0  0
   10.3091  -15.0626   27.2627 C   0  0  0  0  0  0  0  0  0  0  0  0
   10.1802  -15.0779   25.7935 C   0  0  2  0  0  0  0  0  0  0  0  0
   11.3406  -15.7771   25.1683 N   0  0  0  0  0  0  0  0  0  0  0  0
   11.2013  -15.7795   23.7117 C   0  0  0  0  0  0  0  0  0  0  0  0
   11.5642  -17.1443   25.6783 O   0  0  0  0  0  0  0  0  0  0  0  0
   10.6423  -18.1840   25.5906 C   0  0  0  0  0  0  0  0  0  0  0  0
   10.2691  -16.1994   28.0412 C   0  0  0  0  0  0  0  0  0  0  0  0
   10.3661  -16.1141   29.4048 O   0  0  0  0  0  0  0  0  0  0  0  0
  1  2  1  0
  2  3  2  0
  4  2  1  0
  4  5  1  0
  6  5  1  0
  7  6  1  0
  8  7  1  0
  8  9  1  1
 10  8  1  0
 11 10  2  0
 12 10  1  0
 13 12  1  0
 13 14  1  6
 14 15  1  0
 16 15  1  0
 16 17  1  0
 17 18  1  0
 19 13  1  0
 19 28  1  0
 20 19  2  0
 21 22  1  0
 22 32  2  0
 23 24  2  0
 23 22  1  0
 24 25  1  0
 25 26  1  0
 25 31  2  0
 27 28  1  0
 27 26  1  6
 29 27  1  0
 29 30  1  0
 32 31  1  0
 33 29  2  0
M  END
$$$$
