RKY.pdb
     RDKit          3D

 33 33  0  0  1  0  0  0  0  0999 V2000
   10.3074  -19.2185   15.5014 N   0  0  0  0  0  0  0  0  0  0  0  0
   11.5186  -19.9660   15.3244 C   0  0  0  0  0  0  0  0  0  0  0  0
   11.5412  -20.9542   14.5162 N   0  0  0  0  0  0  0  0  0  0  0  0
   12.6962  -19.6337   16.0377 N   0  0  0  0  0  0  0  0  0  0  0  0
   12.7092  -18.5362   16.9763 C   0  0  0  0  0  0  0  0  0  0  0  0
   11.3913  -18.3730   17.7116 C   0  0  0  0  0  0  0  0  0  0  0  0
   11.5272  -17.2620   18.7130 C   0  0  0  0  0  0  0  0  0  0  0  0
   10.7479  -17.4973   19.9624 C   0  0  2  0  0  0  0  0  0  0  0  0
    9.5366  -18.2227   19.8473 N   0  0  0  0  0  0  0  0  0  0  0  0
   10.4901  -16.2117   20.7002 C   0  0  0  0  0  0  0  0  0  0  0  0
   11.5182  -15.4941   20.9640 O   0  0  0  0  0  0  0  0  0  0  0  0
   12.3881  -21.5179   14.3511 N   0  0  0  0  0  0  0  0  0  0  0  0
    9.2131  -15.7826   21.0970 C   0  0  1  0  0  0  0  0  0  0  0  0
    8.9503  -14.5060   21.7357 C   0  0  0  0  0  0  0  0  0  0  0  0
    7.6832  -13.8831   21.2773 C   0  0  0  0  0  0  0  0  0  0  0  0
    7.8075  -12.9847   20.0721 C   0  0  0  0  0  0  0  0  0  0  0  0
    7.7956  -13.7369   18.7645 C   0  0  0  0  0  0  0  0  0  0  0  0
    8.0186  -12.7785   17.5920 N   0  0  0  0  0  0  0  0  0  0  0  0
    7.9692  -13.4797   16.3381 C   0  0  0  0  0  0  0  0  0  0  0  0
    9.0201  -14.6438   23.2312 O   0  0  0  0  0  0  0  0  0  0  0  0
    8.6540  -13.6965   23.9651 O   0  0  0  0  0  0  0  0  0  0  0  0
    5.3756  -11.3567   26.9514 C   0  0  0  0  0  0  0  0  0  0  0  0
    6.0316  -12.5344   26.6502 C   0  0  0  0  0  0  0  0  0  0  0  0
    5.4272  -13.5224   25.8806 C   0  0  0  0  0  0  0  0  0  0  0  0
    6.0585  -14.6905   25.5731 C   0  0  0  0  0  0  0  0  0  0  0  0
    7.3615  -14.9010   26.0503 C   0  0  0  0  0  0  0  0  0  0  0  0
    7.9994  -16.1896   25.7217 C   0  0  2  0  0  0  0  0  0  0  0  0
    9.4168  -15.9861   25.3022 N   0  0  0  0  0  0  0  0  0  0  0  0
    9.4938  -15.8272   23.8497 C   0  0  0  0  0  0  0  0  0  0  0  0
   10.3381  -17.0421   25.7661 O   0  0  0  0  0  0  0  0  0  0  0  0
   11.1589  -17.7997   24.9349 C   0  0  0  0  0  0  0  0  0  0  0  0
    7.9668  -13.9260   26.8139 C   0  0  0  0  0  0  0  0  0  0  0  0
    7.3082  -12.7614   27.1073 O   0  0  0  0  0  0  0  0  0  0  0  0
  1  2  1  0
  2  3  2  0
  4  2  1  0
  4  5  1  0
  6  5  1  0
  7  6  1  0
  8  7  1  0
  8  9  1  6
 10  8  1  0
 11 10  2  0
 12 10  1  0
 13 12  1  0
 13 14  1  1
 14 15  1  0
 16 15  1  0
 16 17  1  0
 17 18  1  0
 19 13  1  0
 19 28  1  0
 20 19  2  0
 21 22  1  0
 22 32  2  0
 23 24  2  0
 23 22  1  0
 24 25  1  0
 25 26  1  0
 25 31  2  0
 27 28  1  0
 27 26  1  1
 29 27  1  0
 29 30  1  0
 32 31  1  0
 33 29  2  0
M  END
$$$$
