RKY.pdb
     RDKit          3D

 33 33  0  0  1  0  0  0  0  0999 V2000
   10.5189  -13.1528   19.5301 N   0  0  0  0  0  0  0  0  0  0  0  0
    9.2438  -12.7326   19.0255 C   0  0  0  0  0  0  0  0  0  0  0  0
    8.7663  -11.6006   19.3730 N   0  0  0  0  0  0  0  0  0  0  0  0
    8.4943  -13.5559   18.1499 N   0  0  0  0  0  0  0  0  0  0  0  0
    7.8647  -14.7648   18.6269 C   0  0  0  0  0  0  0  0  0  0  0  0
    6.5729  -14.5002   19.3787 C   0  0  0  0  0  0  0  0  0  0  0  0
    6.6245  -15.2120   20.7002 C   0  0  0  0  0  0  0  0  0  0  0  0
    7.4728  -16.4381   20.6756 C   0  0  2  0  0  0  0  0  0  0  0  0
    7.1096  -17.4630   19.7676 N   0  0  0  0  0  0  0  0  0  0  0  0
    7.6310  -17.0253   22.0518 C   0  0  0  0  0  0  0  0  0  0  0  0
    7.8185  -16.1907   23.0056 O   0  0  0  0  0  0  0  0  0  0  0  0
    7.8971  -11.2175   18.9729 N   0  0  0  0  0  0  0  0  0  0  0  0
    7.5830  -18.4025   22.3225 C   0  0  1  0  0  0  0  0  0  0  0  0
    7.7385  -18.9728   23.6481 C   0  0  0  0  0  0  0  0  0  0  0  0
    7.2920  -20.3866   23.7225 C   0  0  0  0  0  0  0  0  0  0  0  0
    6.1320  -20.7426   22.8265 C   0  0  0  0  0  0  0  0  0  0  0  0
    5.8084  -22.2161   22.8279 C   0  0  0  0  0  0  0  0  0  0  0  0
    4.5742  -22.4953   21.9666 N   0  0  0  0  0  0  0  0  0  0  0  0
    4.3183  -23.9070   21.8772 C   0  0  0  0  0  0  0  0  0  0  0  0
    9.1472  -18.7837   24.1382 O   0  0  0  0  0  0  0  0  0  0  0  0
   10.0729  -18.5785   23.3192 O   0  0  0  0  0  0  0  0  0  0  0  0
    9.7408  -11.9162   28.9217 C   0  0  0  0  0  0  0  0  0  0  0  0
    9.4475  -13.0684   28.2184 C   0  0  0  0  0  0  0  0  0  0  0  0
    9.9341  -14.3065   28.6235 C   0  0  0  0  0  0  0  0  0  0  0  0
    9.6555  -15.4538   27.9427 C   0  0  0  0  0  0  0  0  0  0  0  0
    8.8511  -15.3808   26.7949 C   0  0  0  0  0  0  0  0  0  0  0  0
    8.5973  -16.6393   26.0690 C   0  0  2  0  0  0  0  0  0  0  0  0
    9.7252  -17.5971   26.2609 N   0  0  0  0  0  0  0  0  0  0  0  0
    9.4696  -18.8309   25.5170 C   0  0  0  0  0  0  0  0  0  0  0  0
   10.0317  -17.8886   27.6752 O   0  0  0  0  0  0  0  0  0  0  0  0
    9.2774  -18.7247   28.4941 C   0  0  0  0  0  0  0  0  0  0  0  0
    8.3654  -14.1568   26.3874 C   0  0  0  0  0  0  0  0  0  0  0  0
    8.6616  -13.0199   27.0914 O   0  0  0  0  0  0  0  0  0  0  0  0
  1  2  1  0
  2  3  2  0
  4  2  1  0
  4  5  1  0
  6  5  1  0
  7  6  1  0
  8  7  1  0
  8  9  1  6
 10  8  1  0
 11 10  2  0
 12 10  1  0
 13 12  1  0
 13 14  1  1
 14 15  1  0
 16 15  1  0
 16 17  1  0
 17 18  1  0
 19 13  1  0
 19 28  1  0
 20 19  2  0
 21 22  1  0
 22 32  2  0
 23 24  2  0
 23 22  1  0
 24 25  1  0
 25 26  1  0
 25 31  2  0
 27 28  1  0
 27 26  1  6
 29 27  1  0
 29 30  1  0
 32 31  1  0
 33 29  2  0
M  END
$$$$
