RKY.pdb
     RDKit          3D

 33 33  0  0  1  0  0  0  0  0999 V2000
   18.2782  -16.7436   16.3908 N   0  0  0  0  0  0  0  0  0  0  0  0
   18.1905  -18.1424   16.6951 C   0  0  0  0  0  0  0  0  0  0  0  0
   19.2575  -18.8198   16.8765 N   0  0  0  0  0  0  0  0  0  0  0  0
   16.9370  -18.7945   16.7918 N   0  0  0  0  0  0  0  0  0  0  0  0
   15.7163  -18.1102   16.4353 C   0  0  0  0  0  0  0  0  0  0  0  0
   15.1145  -17.3353   17.5935 C   0  0  0  0  0  0  0  0  0  0  0  0
   13.8582  -18.0263   18.0408 C   0  0  0  0  0  0  0  0  0  0  0  0
   13.9461  -18.5677   19.4274 C   0  0  2  0  0  0  0  0  0  0  0  0
   14.1438  -19.9632   19.5701 N   0  0  0  0  0  0  0  0  0  0  0  0
   12.7658  -18.1445   20.2590 C   0  0  0  0  0  0  0  0  0  0  0  0
   12.5249  -16.8869   20.3018 O   0  0  0  0  0  0  0  0  0  0  0  0
   19.2453  -19.8154   17.1428 N   0  0  0  0  0  0  0  0  0  0  0  0
   11.9473  -19.0411   20.9649 C   0  0  1  0  0  0  0  0  0  0  0  0
   10.8378  -18.6331   21.8070 C   0  0  0  0  0  0  0  0  0  0  0  0
    9.9009  -19.7457   22.1038 C   0  0  0  0  0  0  0  0  0  0  0  0
    8.6077  -19.7218   21.3278 C   0  0  0  0  0  0  0  0  0  0  0  0
    8.4555  -20.8917   20.3875 C   0  0  0  0  0  0  0  0  0  0  0  0
    7.1306  -20.7995   19.6265 N   0  0  0  0  0  0  0  0  0  0  0  0
    6.9963  -21.8857   18.6945 C   0  0  0  0  0  0  0  0  0  0  0  0
   11.3444  -17.9554   23.0498 O   0  0  0  0  0  0  0  0  0  0  0  0
   12.3953  -18.3597   23.5995 O   0  0  0  0  0  0  0  0  0  0  0  0
   10.7104  -14.0236   30.8377 C   0  0  0  0  0  0  0  0  0  0  0  0
   10.5707  -14.3256   29.4970 C   0  0  0  0  0  0  0  0  0  0  0  0
   11.6782  -14.4598   28.6668 C   0  0  0  0  0  0  0  0  0  0  0  0
   11.5603  -14.7573   27.3421 C   0  0  0  0  0  0  0  0  0  0  0  0
   10.2777  -14.9334   26.8000 C   0  0  0  0  0  0  0  0  0  0  0  0
   10.1904  -15.2245   25.3568 C   0  0  1  0  0  0  0  0  0  0  0  0
   10.8905  -16.5015   25.0317 N   0  0  0  0  0  0  0  0  0  0  0  0
   10.6631  -16.8574   23.6308 C   0  0  0  0  0  0  0  0  0  0  0  0
   10.5385  -17.6236   25.9241 O   0  0  0  0  0  0  0  0  0  0  0  0
    9.3674  -18.3712   25.8340 C   0  0  0  0  0  0  0  0  0  0  0  0
    9.1754  -14.8017   27.6170 C   0  0  0  0  0  0  0  0  0  0  0  0
    9.3239  -14.5022   28.9452 O   0  0  0  0  0  0  0  0  0  0  0  0
  1  2  1  0
  2  3  2  0
  4  2  1  0
  4  5  1  0
  6  5  1  0
  7  6  1  0
  8  7  1  0
  8  9  1  6
 10  8  1  0
 11 10  2  0
 12 10  1  0
 13 12  1  0
 13 14  1  6
 14 15  1  0
 16 15  1  0
 16 17  1  0
 17 18  1  0
 19 13  1  0
 19 28  1  0
 20 19  2  0
 21 22  1  0
 22 32  2  0
 23 24  2  0
 23 22  1  0
 24 25  1  0
 25 26  1  0
 25 31  2  0
 27 28  1  0
 27 26  1  6
 29 27  1  0
 29 30  1  0
 32 31  1  0
 33 29  2  0
M  END
$$$$
