MYG.pdb
     RDKit          3D

 25 25  0  0  1  0  0  0  0  0999 V2000
    4.0734  -19.3327   22.0617 C   0  0  0  0  0  0  0  0  0  0  0  0
    3.9016  -19.1499   20.2833 S   0  0  0  0  0  0  0  0  0  0  0  0
    4.9432  -17.8080   19.6687 C   0  0  0  0  0  0  0  0  0  0  0  0
    6.4059  -18.0536   19.9613 C   0  0  0  0  0  0  0  0  0  0  0  0
    7.2233  -16.7887   19.7953 C   0  0  2  0  0  0  0  0  0  0  0  0
    8.3414  -16.9879   18.9019 N   0  0  0  0  0  0  0  0  0  0  0  0
    7.7345  -16.3203   21.0995 C   0  0  0  0  0  0  0  0  0  0  0  0
    8.8322  -16.7417   21.5554 O   0  0  0  0  0  0  0  0  0  0  0  0
    8.1016  -11.9777   28.7166 O   0  0  0  0  0  0  0  0  0  0  0  0
    7.8352  -12.3927   27.4309 C   0  0  0  0  0  0  0  0  0  0  0  0
    8.8290  -12.8098   26.5876 C   0  0  0  0  0  0  0  0  0  0  0  0
    8.5177  -13.2183   25.3045 C   0  0  0  0  0  0  0  0  0  0  0  0
    7.2252  -13.2183   24.8442 C   0  0  0  0  0  0  0  0  0  0  0  0
    6.8913  -13.6513   23.4719 C   0  0  0  0  0  0  0  0  0  0  0  0
    7.4606  -15.0091   23.1964 C   0  0  2  0  0  0  0  0  0  0  0  0
    7.0043  -15.3918   21.8620 N   0  0  0  0  0  0  0  0  0  0  0  0
    7.0845  -16.0428   24.1800 C   0  0  0  0  0  0  0  0  0  0  0  0
    5.8844  -16.3138   24.4251 O   0  0  0  0  0  0  0  0  0  0  0  0
    6.2380  -12.8010   25.6907 C   0  0  0  0  0  0  0  0  0  0  0  0
    6.5290  -12.3855   26.9868 C   0  0  0  0  0  0  0  0  0  0  0  0
    8.0813  -16.7767   24.8932 N   0  0  0  0  0  0  0  0  0  0  0  0
    7.6846  -17.8178   25.7950 C   0  0  0  0  0  0  0  0  0  0  0  0
    8.8530  -18.4293   26.4835 C   0  0  0  0  0  0  0  0  0  0  0  0
    8.6740  -19.5503   27.2811 O   0  0  0  0  0  0  0  0  0  0  0  0
   10.0250  -17.9804   26.3845 O   0  0  0  0  0  0  0  0  0  0  0  0
  2  1  1  0
  3  2  1  0
  4  3  1  0
  5  4  1  0
  5  6  1  6
  5  7  1  0
  7  8  2  0
  9 10  1  0
 10 11  2  0
 11 12  1  0
 13 12  2  0
 13 14  1  0
 15 14  1  1
 15 17  1  0
 16  7  1  0
 16 15  1  0
 17 21  1  0
 17 18  2  0
 19 13  1  0
 20 10  1  0
 20 19  2  0
 21 22  1  0
 23 22  1  0
 23 24  1  0
 25 23  2  0
M  END
$$$$
