MYG.pdb
     RDKit          3D

 25 25  0  0  1  0  0  0  0  0999 V2000
    7.6095  -12.6528   17.6169 C   0  0  0  0  0  0  0  0  0  0  0  0
    8.2664  -13.1012   19.2271 S   0  0  0  0  0  0  0  0  0  0  0  0
    6.9349  -13.5207   20.3736 C   0  0  0  0  0  0  0  0  0  0  0  0
    7.4502  -13.7340   21.7787 C   0  0  0  0  0  0  0  0  0  0  0  0
    8.2830  -14.9959   21.8770 C   0  0  2  0  0  0  0  0  0  0  0  0
    7.4588  -16.1827   21.8686 N   0  0  0  0  0  0  0  0  0  0  0  0
    9.0974  -14.9915   23.1093 C   0  0  0  0  0  0  0  0  0  0  0  0
    9.9446  -14.0821   23.3238 O   0  0  0  0  0  0  0  0  0  0  0  0
    5.8079  -11.1960   26.8385 O   0  0  0  0  0  0  0  0  0  0  0  0
    6.4829  -12.3910   26.7270 C   0  0  0  0  0  0  0  0  0  0  0  0
    5.8727  -13.5224   26.2574 C   0  0  0  0  0  0  0  0  0  0  0  0
    6.5873  -14.7015   26.1615 C   0  0  0  0  0  0  0  0  0  0  0  0
    7.9075  -14.7733   26.5277 C   0  0  0  0  0  0  0  0  0  0  0  0
    8.6717  -16.0336   26.4291 C   0  0  0  0  0  0  0  0  0  0  0  0
    9.6853  -15.9486   25.3295 C   0  0  2  0  0  0  0  0  0  0  0  0
    8.9442  -16.0051   24.0714 N   0  0  0  0  0  0  0  0  0  0  0  0
   10.7156  -17.0045   25.3624 C   0  0  0  0  0  0  0  0  0  0  0  0
   11.3395  -17.2841   26.4142 O   0  0  0  0  0  0  0  0  0  0  0  0
    8.5107  -13.6408   26.9955 C   0  0  0  0  0  0  0  0  0  0  0  0
    7.8101  -12.4427   27.1003 C   0  0  0  0  0  0  0  0  0  0  0  0
   11.0414  -17.7509   24.1887 N   0  0  0  0  0  0  0  0  0  0  0  0
   11.9961  -18.8169   24.2695 C   0  0  0  0  0  0  0  0  0  0  0  0
   13.3374  -18.3975   23.7815 C   0  0  0  0  0  0  0  0  0  0  0  0
   14.3062  -19.3555   23.5198 O   0  0  0  0  0  0  0  0  0  0  0  0
   13.6559  -17.1954   23.5864 O   0  0  0  0  0  0  0  0  0  0  0  0
  2  1  1  0
  3  2  1  0
  4  3  1  0
  5  4  1  0
  5  6  1  1
  5  7  1  0
  7  8  2  0
  9 10  1  0
 10 11  2  0
 11 12  1  0
 13 12  2  0
 13 14  1  0
 15 14  1  1
 15 17  1  0
 16  7  1  0
 16 15  1  0
 17 21  1  0
 17 18  2  0
 19 13  1  0
 20 10  1  0
 20 19  2  0
 21 22  1  0
 23 22  1  0
 23 24  1  0
 25 23  2  0
M  END
$$$$
