MYG.pdb
     RDKit          3D

 25 25  0  0  1  0  0  0  0  0999 V2000
    7.9854  -11.5527   19.5695 C   0  0  0  0  0  0  0  0  0  0  0  0
    7.0064  -12.9201   18.9394 S   0  0  0  0  0  0  0  0  0  0  0  0
    7.5574  -14.4884   19.6466 C   0  0  0  0  0  0  0  0  0  0  0  0
    8.3257  -14.2852   20.9326 C   0  0  0  0  0  0  0  0  0  0  0  0
    8.7850  -15.6055   21.5172 C   0  0  2  0  0  0  0  0  0  0  0  0
    7.6935  -16.5440   21.6415 N   0  0  0  0  0  0  0  0  0  0  0  0
    9.3941  -15.4055   22.8479 C   0  0  0  0  0  0  0  0  0  0  0  0
   10.3414  -14.5893   23.0119 O   0  0  0  0  0  0  0  0  0  0  0  0
    5.9019  -10.9324   26.3142 O   0  0  0  0  0  0  0  0  0  0  0  0
    6.5560  -12.1442   26.3204 C   0  0  0  0  0  0  0  0  0  0  0  0
    7.8361  -12.2699   26.7877 C   0  0  0  0  0  0  0  0  0  0  0  0
    8.4557  -13.5052   26.7759 C   0  0  0  0  0  0  0  0  0  0  0  0
    7.8180  -14.6244   26.3034 C   0  0  0  0  0  0  0  0  0  0  0  0
    8.4802  -15.9448   26.2868 C   0  0  0  0  0  0  0  0  0  0  0  0
    9.5745  -15.9707   25.2644 C   0  0  2  0  0  0  0  0  0  0  0  0
    8.9282  -16.1242   23.9629 N   0  0  0  0  0  0  0  0  0  0  0  0
   10.5761  -17.0356   25.4652 C   0  0  0  0  0  0  0  0  0  0  0  0
   10.4347  -17.9155   26.3481 O   0  0  0  0  0  0  0  0  0  0  0  0
    6.5407  -14.4923   25.8385 C   0  0  0  0  0  0  0  0  0  0  0  0
    5.8976  -13.2579   25.8412 C   0  0  0  0  0  0  0  0  0  0  0  0
   11.7510  -17.1023   24.6553 N   0  0  0  0  0  0  0  0  0  0  0  0
   12.7198  -18.1308   24.8961 C   0  0  0  0  0  0  0  0  0  0  0  0
   13.7730  -18.1568   23.8457 C   0  0  0  0  0  0  0  0  0  0  0  0
   14.8007  -19.0857   23.9229 O   0  0  0  0  0  0  0  0  0  0  0  0
   13.7896  -17.3672   22.8655 O   0  0  0  0  0  0  0  0  0  0  0  0
  2  1  1  0
  3  2  1  0
  4  3  1  0
  5  4  1  0
  5  6  1  1
  5  7  1  0
  7  8  2  0
  9 10  1  0
 10 11  2  0
 11 12  1  0
 13 12  2  0
 13 14  1  0
 15 14  1  1
 15 17  1  0
 16  7  1  0
 16 15  1  0
 17 21  1  0
 17 18  2  0
 19 13  1  0
 20 10  1  0
 20 19  2  0
 21 22  1  0
 23 22  1  0
 23 24  1  0
 25 23  2  0
M  END
$$$$
