MYG.pdb
     RDKit          3D

 25 25  0  0  1  0  0  0  0  0999 V2000
    6.7637  -11.4000   26.7941 C   0  0  0  0  0  0  0  0  0  0  0  0
    5.6750  -12.8128   26.5837 S   0  0  0  0  0  0  0  0  0  0  0  0
    6.4450  -14.0716   25.5416 C   0  0  0  0  0  0  0  0  0  0  0  0
    7.1821  -13.4586   24.3727 C   0  0  0  0  0  0  0  0  0  0  0  0
    7.7136  -14.5229   23.4342 C   0  0  2  0  0  0  0  0  0  0  0  0
    7.0938  -15.8058   23.6746 N   0  0  0  0  0  0  0  0  0  0  0  0
    9.1764  -14.6668   23.5801 C   0  0  0  0  0  0  0  0  0  0  0  0
    9.8776  -13.7272   24.0449 O   0  0  0  0  0  0  0  0  0  0  0  0
   10.7493  -14.2030   30.0053 O   0  0  0  0  0  0  0  0  0  0  0  0
   10.4790  -14.8875   28.8414 C   0  0  0  0  0  0  0  0  0  0  0  0
    9.2830  -14.7565   28.1894 C   0  0  0  0  0  0  0  0  0  0  0  0
    9.0529  -15.4621   27.0235 C   0  0  0  0  0  0  0  0  0  0  0  0
    9.9998  -16.3013   26.4928 C   0  0  0  0  0  0  0  0  0  0  0  0
    9.7541  -17.0589   25.2487 C   0  0  0  0  0  0  0  0  0  0  0  0
   10.6590  -16.5806   24.1551 C   0  0  2  0  0  0  0  0  0  0  0  0
    9.8189  -15.8588   23.2019 N   0  0  0  0  0  0  0  0  0  0  0  0
   11.4078  -17.6499   23.4672 C   0  0  0  0  0  0  0  0  0  0  0  0
   12.5330  -18.0308   23.8704 O   0  0  0  0  0  0  0  0  0  0  0  0
   11.1913  -16.4276   27.1483 C   0  0  0  0  0  0  0  0  0  0  0  0
   11.4443  -15.7264   28.3237 C   0  0  0  0  0  0  0  0  0  0  0  0
   10.8737  -18.2938   22.3092 N   0  0  0  0  0  0  0  0  0  0  0  0
   10.9387  -17.6338   21.0385 C   0  0  0  0  0  0  0  0  0  0  0  0
   12.2416  -17.8665   20.3593 C   0  0  0  0  0  0  0  0  0  0  0  0
   12.2650  -18.3755   19.0688 O   0  0  0  0  0  0  0  0  0  0  0  0
   13.3534  -17.6238   20.8975 O   0  0  0  0  0  0  0  0  0  0  0  0
  2  1  1  0
  3  2  1  0
  4  3  1  0
  5  4  1  0
  5  6  1  1
  5  7  1  0
  7  8  2  0
  9 10  1  0
 10 11  2  0
 11 12  1  0
 13 12  2  0
 13 14  1  0
 15 14  1  1
 15 17  1  0
 16  7  1  0
 16 15  1  0
 17 21  1  0
 17 18  2  0
 19 13  1  0
 20 10  1  0
 20 19  2  0
 21 22  1  0
 23 22  1  0
 23 24  1  0
 25 23  2  0
M  END
$$$$
