MYG.pdb
     RDKit          3D

 25 25  0  0  1  0  0  0  0  0999 V2000
    8.4440  -11.5356   19.8491 C   0  0  0  0  0  0  0  0  0  0  0  0
    7.0503  -12.6418   19.6053 S   0  0  0  0  0  0  0  0  0  0  0  0
    7.4430  -14.3104   20.1753 C   0  0  0  0  0  0  0  0  0  0  0  0
    8.2654  -14.2913   21.4436 C   0  0  0  0  0  0  0  0  0  0  0  0
    8.6028  -15.6944   21.9053 C   0  0  2  0  0  0  0  0  0  0  0  0
    7.4197  -16.5135   22.0362 N   0  0  0  0  0  0  0  0  0  0  0  0
    9.3058  -15.6637   23.2040 C   0  0  0  0  0  0  0  0  0  0  0  0
   10.3378  -14.9572   23.3666 O   0  0  0  0  0  0  0  0  0  0  0  0
    6.4004  -10.9148   26.4106 O   0  0  0  0  0  0  0  0  0  0  0  0
    6.9250  -12.1865   26.4706 C   0  0  0  0  0  0  0  0  0  0  0  0
    8.2174  -12.4156   26.8580 C   0  0  0  0  0  0  0  0  0  0  0  0
    8.7040  -13.7083   26.9044 C   0  0  0  0  0  0  0  0  0  0  0  0
    7.9203  -14.7835   26.5692 C   0  0  0  0  0  0  0  0  0  0  0  0
    8.4400  -16.1655   26.6149 C   0  0  0  0  0  0  0  0  0  0  0  0
    9.5100  -16.3586   25.5845 C   0  0  2  0  0  0  0  0  0  0  0  0
    8.8370  -16.4249   24.2892 N   0  0  0  0  0  0  0  0  0  0  0  0
   10.3465  -17.5572   25.7866 C   0  0  0  0  0  0  0  0  0  0  0  0
   11.0562  -17.7007   26.8110 O   0  0  0  0  0  0  0  0  0  0  0  0
    6.6315  -14.5482   26.1835 C   0  0  0  0  0  0  0  0  0  0  0  0
    6.1208  -13.2545   26.1297 C   0  0  0  0  0  0  0  0  0  0  0  0
   10.3780  -18.6043   24.8152 N   0  0  0  0  0  0  0  0  0  0  0  0
   11.5605  -18.8076   24.0310 C   0  0  0  0  0  0  0  0  0  0  0  0
   12.6556  -19.4218   24.8288 C   0  0  0  0  0  0  0  0  0  0  0  0
   13.8276  -18.7133   25.0510 O   0  0  0  0  0  0  0  0  0  0  0  0
   12.5825  -20.5752   25.3278 O   0  0  0  0  0  0  0  0  0  0  0  0
  2  1  1  0
  3  2  1  0
  4  3  1  0
  5  4  1  0
  5  6  1  1
  5  7  1  0
  7  8  2  0
  9 10  1  0
 10 11  2  0
 11 12  1  0
 13 12  2  0
 13 14  1  0
 15 14  1  1
 15 17  1  0
 16  7  1  0
 16 15  1  0
 17 21  1  0
 17 18  2  0
 19 13  1  0
 20 10  1  0
 20 19  2  0
 21 22  1  0
 23 22  1  0
 23 24  1  0
 25 23  2  0
M  END
$$$$
