MYG.pdb
     RDKit          3D

 25 25  0  0  1  0  0  0  0  0999 V2000
    8.5611  -11.8552   19.3414 C   0  0  0  0  0  0  0  0  0  0  0  0
    7.1093  -12.9087   19.2543 S   0  0  0  0  0  0  0  0  0  0  0  0
    7.4386  -14.5241   19.9927 C   0  0  0  0  0  0  0  0  0  0  0  0
    8.4078  -14.4258   21.1487 C   0  0  0  0  0  0  0  0  0  0  0  0
    8.7165  -15.7908   21.7295 C   0  0  2  0  0  0  0  0  0  0  0  0
    7.5247  -16.5964   21.8647 N   0  0  0  0  0  0  0  0  0  0  0  0
    9.3574  -15.6638   23.0542 C   0  0  0  0  0  0  0  0  0  0  0  0
   10.3945  -14.9631   23.2086 O   0  0  0  0  0  0  0  0  0  0  0  0
    5.7390  -11.0589   26.2009 O   0  0  0  0  0  0  0  0  0  0  0  0
    6.3877  -12.2710   26.2794 C   0  0  0  0  0  0  0  0  0  0  0  0
    7.6733  -12.3722   26.7373 C   0  0  0  0  0  0  0  0  0  0  0  0
    8.2872  -13.6088   26.7998 C   0  0  0  0  0  0  0  0  0  0  0  0
    7.6382  -14.7536   26.4116 C   0  0  0  0  0  0  0  0  0  0  0  0
    8.2941  -16.0757   26.4745 C   0  0  0  0  0  0  0  0  0  0  0  0
    9.4239  -16.1487   25.4938 C   0  0  2  0  0  0  0  0  0  0  0  0
    8.8221  -16.3244   24.1739 N   0  0  0  0  0  0  0  0  0  0  0  0
   10.3968  -17.2262   25.7583 C   0  0  0  0  0  0  0  0  0  0  0  0
   10.9326  -17.3688   26.8836 O   0  0  0  0  0  0  0  0  0  0  0  0
    6.3553  -14.6459   25.9557 C   0  0  0  0  0  0  0  0  0  0  0  0
    5.7179  -13.4106   25.8844 C   0  0  0  0  0  0  0  0  0  0  0  0
   10.7655  -18.1517   24.7344 N   0  0  0  0  0  0  0  0  0  0  0  0
   11.7161  -19.1851   25.0226 C   0  0  0  0  0  0  0  0  0  0  0  0
   13.0629  -18.8668   24.4769 C   0  0  0  0  0  0  0  0  0  0  0  0
   13.5013  -17.5508   24.4475 O   0  0  0  0  0  0  0  0  0  0  0  0
   13.8499  -19.7408   24.0283 O   0  0  0  0  0  0  0  0  0  0  0  0
  2  1  1  0
  3  2  1  0
  4  3  1  0
  5  4  1  0
  5  6  1  1
  5  7  1  0
  7  8  2  0
  9 10  1  0
 10 11  2  0
 11 12  1  0
 13 12  2  0
 13 14  1  0
 15 14  1  1
 15 17  1  0
 16  7  1  0
 16 15  1  0
 17 21  1  0
 17 18  2  0
 19 13  1  0
 20 10  1  0
 20 19  2  0
 21 22  1  0
 23 22  1  0
 23 24  1  0
 25 23  2  0
M  END
$$$$
