MYG.pdb
     RDKit          3D

 25 25  0  0  1  0  0  0  0  0999 V2000
    8.0967  -17.6079   17.2741 C   0  0  0  0  0  0  0  0  0  0  0  0
    7.8789  -15.9993   16.5057 S   0  0  0  0  0  0  0  0  0  0  0  0
    7.4535  -14.7480   17.7371 C   0  0  0  0  0  0  0  0  0  0  0  0
    8.2249  -14.9406   19.0230 C   0  0  0  0  0  0  0  0  0  0  0  0
    7.9080  -13.8508   20.0268 C   0  0  2  0  0  0  0  0  0  0  0  0
    8.3665  -12.5574   19.5746 N   0  0  0  0  0  0  0  0  0  0  0  0
    8.5299  -14.1455   21.3337 C   0  0  0  0  0  0  0  0  0  0  0  0
    9.5999  -13.5782   21.6858 O   0  0  0  0  0  0  0  0  0  0  0  0
    6.4672  -10.6675   27.2951 O   0  0  0  0  0  0  0  0  0  0  0  0
    6.7114  -11.8477   26.6289 C   0  0  0  0  0  0  0  0  0  0  0  0
    7.6873  -12.7164   27.0358 C   0  0  0  0  0  0  0  0  0  0  0  0
    7.8993  -13.8904   26.3382 C   0  0  0  0  0  0  0  0  0  0  0  0
    7.1511  -14.2159   25.2351 C   0  0  0  0  0  0  0  0  0  0  0  0
    7.3788  -15.4687   24.4863 C   0  0  0  0  0  0  0  0  0  0  0  0
    8.5229  -15.3100   23.5326 C   0  0  2  0  0  0  0  0  0  0  0  0
    7.9394  -15.0682   22.2149 N   0  0  0  0  0  0  0  0  0  0  0  0
    9.4415  -16.4636   23.4798 C   0  0  0  0  0  0  0  0  0  0  0  0
    9.0586  -17.6245   23.7616 O   0  0  0  0  0  0  0  0  0  0  0  0
    6.1787  -13.3447   24.8342 C   0  0  0  0  0  0  0  0  0  0  0  0
    5.9481  -12.1568   25.5220 C   0  0  0  0  0  0  0  0  0  0  0  0
   10.8095  -16.2977   23.1031 N   0  0  0  0  0  0  0  0  0  0  0  0
   11.6779  -17.4375   23.0688 C   0  0  0  0  0  0  0  0  0  0  0  0
   13.0706  -17.0622   22.7044 C   0  0  0  0  0  0  0  0  0  0  0  0
   14.0509  -18.0410   22.6285 O   0  0  0  0  0  0  0  0  0  0  0  0
   13.4237  -15.8800   22.4543 O   0  0  0  0  0  0  0  0  0  0  0  0
  2  1  1  0
  3  2  1  0
  4  3  1  0
  5  4  1  0
  5  6  1  6
  5  7  1  0
  7  8  2  0
  9 10  1  0
 10 11  2  0
 11 12  1  0
 13 12  2  0
 13 14  1  0
 15 14  1  1
 15 17  1  0
 16  7  1  0
 16 15  1  0
 17 21  1  0
 17 18  2  0
 19 13  1  0
 20 10  1  0
 20 19  2  0
 21 22  1  0
 23 22  1  0
 23 24  1  0
 25 23  2  0
M  END
$$$$
