VKG.pdb
     RDKit          3D

 21 20  0  0  1  0  0  0  0  0999 V2000
    7.7037  -13.0094   21.4097 C   0  0  0  0  0  0  0  0  0  0  0  0
    8.2030  -13.3789   20.0026 C   0  0  2  0  0  0  0  0  0  0  0  0
    6.9927  -13.3583   19.1225 C   0  0  0  0  0  0  0  0  0  0  0  0
    8.8378  -14.7494   20.1453 C   0  0  2  0  0  0  0  0  0  0  0  0
    7.7314  -15.6367   20.5425 N   0  0  0  0  0  0  0  0  0  0  0  0
    9.8750  -14.7987   21.2073 C   0  0  0  0  0  0  0  0  0  0  0  0
   10.9213  -14.1395   21.0332 O   0  0  0  0  0  0  0  0  0  0  0  0
    9.7074  -15.5598   22.3902 N   0  0  0  0  0  0  0  0  0  0  0  0
   10.7075  -15.7064   23.4319 C   0  0  1  0  0  0  0  0  0  0  0  0
   10.0678  -16.2625   24.6666 C   0  0  0  0  0  0  0  0  0  0  0  0
   10.9902  -16.4297   25.8316 C   0  0  0  0  0  0  0  0  0  0  0  0
   10.3485  -17.0620   27.0384 C   0  0  0  0  0  0  0  0  0  0  0  0
   11.2315  -17.0529   28.2429 C   0  0  0  0  0  0  0  0  0  0  0  0
   10.5934  -17.5394   29.4338 N   0  0  0  0  0  0  0  0  0  0  0  0
   11.8691  -16.4857   22.9671 C   0  0  0  0  0  0  0  0  0  0  0  0
   11.7158  -17.6715   22.6184 O   0  0  0  0  0  0  0  0  0  0  0  0
   13.1584  -15.9165   22.9087 N   0  0  0  0  0  0  0  0  0  0  0  0
   14.2757  -16.7859   22.5951 C   0  0  0  0  0  0  0  0  0  0  0  0
   15.5100  -16.3892   23.2852 C   0  0  0  0  0  0  0  0  0  0  0  0
   15.4628  -15.5683   24.2244 O   0  0  0  0  0  0  0  0  0  0  0  0
   16.7295  -16.9113   22.9115 O   0  0  0  0  0  0  0  0  0  0  0  0
  2  4  1  0
  2  1  1  1
  3  2  1  0
  4  5  1  1
  6  4  1  0
  7  6  2  0
  8  6  1  0
  9  8  1  0
  9 10  1  1
 10 11  1  0
 11 12  1  0
 13 14  1  0
 13 12  1  0
 15 17  1  0
 15  9  1  0
 16 15  2  0
 18 19  1  0
 18 17  1  0
 19 21  1  0
 20 19  2  0
M  END
$$$$
