VKG.pdb
     RDKit          3D

 21 20  0  0  1  0  0  0  0  0999 V2000
    8.5174  -20.5593   23.6252 C   0  0  0  0  0  0  0  0  0  0  0  0
    7.1724  -20.0727   24.1907 C   0  0  2  0  0  0  0  0  0  0  0  0
    6.4827  -21.2952   24.7100 C   0  0  0  0  0  0  0  0  0  0  0  0
    6.4594  -19.4108   23.0264 C   0  0  2  0  0  0  0  0  0  0  0  0
    6.2208  -20.4995   22.0637 N   0  0  0  0  0  0  0  0  0  0  0  0
    7.2851  -18.3733   22.3571 C   0  0  0  0  0  0  0  0  0  0  0  0
    8.2131  -18.7549   21.6136 O   0  0  0  0  0  0  0  0  0  0  0  0
    7.0478  -16.9885   22.5379 N   0  0  0  0  0  0  0  0  0  0  0  0
    7.8899  -15.9270   22.0174 C   0  0  1  0  0  0  0  0  0  0  0  0
    7.1114  -14.6486   21.9667 C   0  0  0  0  0  0  0  0  0  0  0  0
    7.7827  -13.5326   21.2320 C   0  0  0  0  0  0  0  0  0  0  0  0
    7.9615  -13.7861   19.7583 C   0  0  0  0  0  0  0  0  0  0  0  0
    8.6150  -12.6489   19.0440 C   0  0  0  0  0  0  0  0  0  0  0  0
    8.7986  -12.8756   17.6379 N   0  0  0  0  0  0  0  0  0  0  0  0
    9.1552  -15.8179   22.7657 C   0  0  0  0  0  0  0  0  0  0  0  0
    9.1300  -15.5653   23.9850 O   0  0  0  0  0  0  0  0  0  0  0  0
   10.4015  -15.9932   22.1288 N   0  0  0  0  0  0  0  0  0  0  0  0
   11.6042  -15.7676   22.9067 C   0  0  0  0  0  0  0  0  0  0  0  0
   12.8295  -15.9961   22.1299 C   0  0  0  0  0  0  0  0  0  0  0  0
   12.7557  -16.4398   20.9655 O   0  0  0  0  0  0  0  0  0  0  0  0
   14.0696  -15.7274   22.6678 O   0  0  0  0  0  0  0  0  0  0  0  0
  2  4  1  0
  2  1  1  6
  3  2  1  0
  4  5  1  6
  6  4  1  0
  7  6  2  0
  8  6  1  0
  9  8  1  0
  9 10  1  1
 10 11  1  0
 11 12  1  0
 13 14  1  0
 13 12  1  0
 15 17  1  0
 15  9  1  0
 16 15  2  0
 18 19  1  0
 18 17  1  0
 19 21  1  0
 20 19  2  0
M  END
$$$$
