VKG.pdb
     RDKit          3D

 21 20  0  0  1  0  0  0  0  0999 V2000
    7.1268  -13.1787   21.6774 C   0  0  0  0  0  0  0  0  0  0  0  0
    7.9600  -13.3282   20.3932 C   0  0  2  0  0  0  0  0  0  0  0  0
    6.9829  -13.2504   19.2623 C   0  0  0  0  0  0  0  0  0  0  0  0
    8.6549  -14.6713   20.5157 C   0  0  2  0  0  0  0  0  0  0  0  0
    7.5616  -15.6560   20.5788 N   0  0  0  0  0  0  0  0  0  0  0  0
    9.4611  -14.7942   21.7571 C   0  0  0  0  0  0  0  0  0  0  0  0
   10.5093  -14.1206   21.8422 O   0  0  0  0  0  0  0  0  0  0  0  0
    9.0754  -15.6400   22.8260 N   0  0  0  0  0  0  0  0  0  0  0  0
    9.8292  -15.8243   24.0526 C   0  0  1  0  0  0  0  0  0  0  0  0
    8.9999  -15.3891   25.2212 C   0  0  0  0  0  0  0  0  0  0  0  0
    9.7330  -14.5871   26.2484 C   0  0  0  0  0  0  0  0  0  0  0  0
    9.6609  -15.1572   27.6405 C   0  0  0  0  0  0  0  0  0  0  0  0
   10.4363  -14.3623   28.6391 C   0  0  0  0  0  0  0  0  0  0  0  0
   10.3267  -14.8546   29.9837 N   0  0  0  0  0  0  0  0  0  0  0  0
   10.3447  -17.1998   24.1746 C   0  0  0  0  0  0  0  0  0  0  0  0
    9.8253  -17.9821   24.9928 O   0  0  0  0  0  0  0  0  0  0  0  0
   11.4201  -17.6532   23.3822 N   0  0  0  0  0  0  0  0  0  0  0  0
   12.7614  -17.2458   23.7527 C   0  0  0  0  0  0  0  0  0  0  0  0
   13.4057  -18.1942   24.6705 C   0  0  0  0  0  0  0  0  0  0  0  0
   14.4656  -18.7628   24.3365 O   0  0  0  0  0  0  0  0  0  0  0  0
   12.8567  -18.4701   25.9042 O   0  0  0  0  0  0  0  0  0  0  0  0
  2  4  1  0
  2  1  1  1
  3  2  1  0
  4  5  1  1
  6  4  1  0
  7  6  2  0
  8  6  1  0
  9  8  1  0
  9 10  1  1
 10 11  1  0
 11 12  1  0
 13 14  1  0
 13 12  1  0
 15 17  1  0
 15  9  1  0
 16 15  2  0
 18 19  1  0
 18 17  1  0
 19 21  1  0
 20 19  2  0
M  END
$$$$
