VKG.pdb
     RDKit          3D

 21 20  0  0  1  0  0  0  0  0999 V2000
    6.6868  -13.8667   20.7213 C   0  0  0  0  0  0  0  0  0  0  0  0
    7.8474  -13.1988   19.9647 C   0  0  2  0  0  0  0  0  0  0  0  0
    7.3006  -12.8334   18.6203 C   0  0  0  0  0  0  0  0  0  0  0  0
    8.9520  -14.2379   19.9189 C   0  0  2  0  0  0  0  0  0  0  0  0
    8.3482  -15.3988   19.2430 N   0  0  0  0  0  0  0  0  0  0  0  0
    9.3976  -14.6681   21.2689 C   0  0  0  0  0  0  0  0  0  0  0  0
    9.8640  -13.7990   22.0348 O   0  0  0  0  0  0  0  0  0  0  0  0
    9.3061  -16.0146   21.6995 N   0  0  0  0  0  0  0  0  0  0  0  0
    9.8431  -16.5254   22.9475 C   0  0  1  0  0  0  0  0  0  0  0  0
    9.2787  -17.8863   23.2166 C   0  0  0  0  0  0  0  0  0  0  0  0
    7.7865  -17.9689   23.1678 C   0  0  0  0  0  0  0  0  0  0  0  0
    7.2478  -19.3752   23.1717 C   0  0  0  0  0  0  0  0  0  0  0  0
    5.7556  -19.4301   23.1982 C   0  0  0  0  0  0  0  0  0  0  0  0
    5.2188  -20.7400   22.9570 N   0  0  0  0  0  0  0  0  0  0  0  0
   11.3164  -16.4837   22.9652 C   0  0  0  0  0  0  0  0  0  0  0  0
   11.9555  -16.8646   21.9664 O   0  0  0  0  0  0  0  0  0  0  0  0
   12.0237  -16.0205   24.0944 N   0  0  0  0  0  0  0  0  0  0  0  0
   13.4552  -15.8256   23.9715 C   0  0  0  0  0  0  0  0  0  0  0  0
   14.2244  -16.9880   24.4343 C   0  0  0  0  0  0  0  0  0  0  0  0
   13.6352  -18.0484   24.7285 O   0  0  0  0  0  0  0  0  0  0  0  0
   15.5964  -16.9288   24.5507 O   0  0  0  0  0  0  0  0  0  0  0  0
  2  4  1  0
  2  1  1  1
  3  2  1  0
  4  5  1  6
  6  4  1  0
  7  6  2  0
  8  6  1  0
  9  8  1  0
  9 10  1  6
 10 11  1  0
 11 12  1  0
 13 14  1  0
 13 12  1  0
 15 17  1  0
 15  9  1  0
 16 15  2  0
 18 19  1  0
 18 17  1  0
 19 21  1  0
 20 19  2  0
M  END
$$$$
