VKG.pdb
     RDKit          3D

 21 20  0  0  1  0  0  0  0  0999 V2000
    7.4044  -12.5538   20.9873 C   0  0  0  0  0  0  0  0  0  0  0  0
    8.0013  -13.6867   20.1353 C   0  0  2  0  0  0  0  0  0  0  0  0
    7.6264  -13.3734   18.7207 C   0  0  0  0  0  0  0  0  0  0  0  0
    7.3808  -14.9643   20.6687 C   0  0  2  0  0  0  0  0  0  0  0  0
    5.9516  -14.8582   20.3295 N   0  0  0  0  0  0  0  0  0  0  0  0
    7.4985  -15.0924   22.1438 C   0  0  0  0  0  0  0  0  0  0  0  0
    6.7538  -14.3840   22.8531 O   0  0  0  0  0  0  0  0  0  0  0  0
    8.4167  -15.9830   22.7523 N   0  0  0  0  0  0  0  0  0  0  0  0
    8.5518  -16.1867   24.1831 C   0  0  1  0  0  0  0  0  0  0  0  0
    8.1174  -17.5760   24.5351 C   0  0  0  0  0  0  0  0  0  0  0  0
    8.1989  -17.9104   25.9902 C   0  0  0  0  0  0  0  0  0  0  0  0
    7.8696  -19.3444   26.3113 C   0  0  0  0  0  0  0  0  0  0  0  0
    7.9574  -19.6525   27.7700 C   0  0  0  0  0  0  0  0  0  0  0  0
    7.7208  -21.0330   28.0867 N   0  0  0  0  0  0  0  0  0  0  0  0
    9.9081  -15.8551   24.6556 C   0  0  0  0  0  0  0  0  0  0  0  0
   10.2065  -16.0400   25.8506 O   0  0  0  0  0  0  0  0  0  0  0  0
   10.8815  -15.3288   23.7808 N   0  0  0  0  0  0  0  0  0  0  0  0
   11.9250  -16.2166   23.3059 C   0  0  0  0  0  0  0  0  0  0  0  0
   12.9187  -16.5244   24.3427 C   0  0  0  0  0  0  0  0  0  0  0  0
   12.5850  -17.1811   25.3505 O   0  0  0  0  0  0  0  0  0  0  0  0
   14.2236  -16.0979   24.2221 O   0  0  0  0  0  0  0  0  0  0  0  0
  2  4  1  0
  2  1  1  1
  3  2  1  0
  4  5  1  1
  6  4  1  0
  7  6  2  0
  8  6  1  0
  9  8  1  0
  9 10  1  6
 10 11  1  0
 11 12  1  0
 13 14  1  0
 13 12  1  0
 15 17  1  0
 15  9  1  0
 16 15  2  0
 18 19  1  0
 18 17  1  0
 19 21  1  0
 20 19  2  0
M  END
$$$$
