VKG.pdb
     RDKit          3D

 21 20  0  0  1  0  0  0  0  0999 V2000
    7.5694  -13.0796   27.4276 C   0  0  0  0  0  0  0  0  0  0  0  0
    7.2984  -12.3786   26.0857 C   0  0  2  0  0  0  0  0  0  0  0  0
    6.6016  -11.0991   26.4279 C   0  0  0  0  0  0  0  0  0  0  0  0
    6.4482  -13.3485   25.2867 C   0  0  2  0  0  0  0  0  0  0  0  0
    5.3067  -13.6586   26.1640 N   0  0  0  0  0  0  0  0  0  0  0  0
    7.1543  -14.6185   24.9790 C   0  0  0  0  0  0  0  0  0  0  0  0
    7.0406  -15.5616   25.7898 O   0  0  0  0  0  0  0  0  0  0  0  0
    7.9369  -14.7819   23.8096 N   0  0  0  0  0  0  0  0  0  0  0  0
    8.7486  -15.9472   23.5098 C   0  0  1  0  0  0  0  0  0  0  0  0
    9.2064  -15.8866   22.0852 C   0  0  0  0  0  0  0  0  0  0  0  0
    8.4261  -16.7400   21.1373 C   0  0  0  0  0  0  0  0  0  0  0  0
    8.3908  -16.2173   19.7253 C   0  0  0  0  0  0  0  0  0  0  0  0
    7.7679  -17.1741   18.7626 C   0  0  0  0  0  0  0  0  0  0  0  0
    7.5879  -16.6354   17.4436 N   0  0  0  0  0  0  0  0  0  0  0  0
    9.8492  -16.1088   24.4769 C   0  0  0  0  0  0  0  0  0  0  0  0
   10.5278  -15.1187   24.8090 O   0  0  0  0  0  0  0  0  0  0  0  0
   10.1544  -17.3668   25.0375 N   0  0  0  0  0  0  0  0  0  0  0  0
   11.1927  -17.4310   26.0476 C   0  0  0  0  0  0  0  0  0  0  0  0
   12.1857  -18.4770   25.7700 C   0  0  0  0  0  0  0  0  0  0  0  0
   12.1154  -19.1387   24.7138 O   0  0  0  0  0  0  0  0  0  0  0  0
   13.2020  -18.7435   26.6618 O   0  0  0  0  0  0  0  0  0  0  0  0
  2  4  1  0
  2  1  1  1
  3  2  1  0
  4  5  1  1
  6  4  1  0
  7  6  2  0
  8  6  1  0
  9  8  1  0
  9 10  1  6
 10 11  1  0
 11 12  1  0
 13 14  1  0
 13 12  1  0
 15 17  1  0
 15  9  1  0
 16 15  2  0
 18 19  1  0
 18 17  1  0
 19 21  1  0
 20 19  2  0
M  END
$$$$
