VKG.pdb
     RDKit          3D

 21 20  0  0  1  0  0  0  0  0999 V2000
    9.7227  -20.4221   19.0927 C   0  0  0  0  0  0  0  0  0  0  0  0
   10.4783  -19.1316   19.4523 C   0  0  2  0  0  0  0  0  0  0  0  0
   11.3739  -18.8460   18.2878 C   0  0  0  0  0  0  0  0  0  0  0  0
   11.2204  -19.4421   20.7387 C   0  0  2  0  0  0  0  0  0  0  0  0
   10.1857  -19.9471   21.6570 N   0  0  0  0  0  0  0  0  0  0  0  0
   11.8392  -18.2402   21.3540 C   0  0  0  0  0  0  0  0  0  0  0  0
   12.4711  -17.4621   20.6092 O   0  0  0  0  0  0  0  0  0  0  0  0
   11.7298  -17.9610   22.7385 N   0  0  0  0  0  0  0  0  0  0  0  0
   12.3841  -16.8572   23.4171 C   0  0  1  0  0  0  0  0  0  0  0  0
   11.5543  -16.4248   24.5864 C   0  0  0  0  0  0  0  0  0  0  0  0
   10.3285  -15.6447   24.2331 C   0  0  0  0  0  0  0  0  0  0  0  0
    9.2014  -15.7891   25.2214 C   0  0  0  0  0  0  0  0  0  0  0  0
    8.0223  -14.9332   24.8933 C   0  0  0  0  0  0  0  0  0  0  0  0
    6.9330  -15.0664   25.8195 N   0  0  0  0  0  0  0  0  0  0  0  0
   13.7774  -17.1832   23.7707 C   0  0  0  0  0  0  0  0  0  0  0  0
   14.0142  -18.1626   24.5027 O   0  0  0  0  0  0  0  0  0  0  0  0
   14.8554  -16.4062   23.2974 N   0  0  0  0  0  0  0  0  0  0  0  0
   16.1885  -16.7284   23.7679 C   0  0  0  0  0  0  0  0  0  0  0  0
   17.2299  -15.9416   23.0944 C   0  0  0  0  0  0  0  0  0  0  0  0
   17.6434  -16.2888   21.9689 O   0  0  0  0  0  0  0  0  0  0  0  0
   17.7632  -14.8176   23.6873 O   0  0  0  0  0  0  0  0  0  0  0  0
  2  4  1  0
  2  1  1  6
  3  2  1  0
  4  5  1  1
  6  4  1  0
  7  6  2  0
  8  6  1  0
  9  8  1  0
  9 10  1  1
 10 11  1  0
 11 12  1  0
 13 14  1  0
 13 12  1  0
 15 17  1  0
 15  9  1  0
 16 15  2  0
 18 19  1  0
 18 17  1  0
 19 21  1  0
 20 19  2  0
M  END
$$$$
