VKG.pdb
     RDKit          3D

 21 20  0  0  1  0  0  0  0  0999 V2000
    6.9142  -12.6285   19.0633 C   0  0  0  0  0  0  0  0  0  0  0  0
    7.6079  -13.1672   20.3259 C   0  0  2  0  0  0  0  0  0  0  0  0
    9.0769  -13.0454   20.0671 C   0  0  0  0  0  0  0  0  0  0  0  0
    7.1249  -14.5978   20.4741 C   0  0  2  0  0  0  0  0  0  0  0  0
    5.6720  -14.4839   20.6866 N   0  0  0  0  0  0  0  0  0  0  0  0
    7.7124  -15.2877   21.6509 C   0  0  0  0  0  0  0  0  0  0  0  0
    7.4118  -14.8643   22.7866 O   0  0  0  0  0  0  0  0  0  0  0  0
    8.5873  -16.3937   21.5173 N   0  0  0  0  0  0  0  0  0  0  0  0
    9.3307  -17.0007   22.6062 C   0  0  1  0  0  0  0  0  0  0  0  0
    8.9945  -18.4575   22.6922 C   0  0  0  0  0  0  0  0  0  0  0  0
    7.5752  -18.7547   23.0569 C   0  0  0  0  0  0  0  0  0  0  0  0
    7.2820  -20.2200   23.2442 C   0  0  0  0  0  0  0  0  0  0  0  0
    5.8631  -20.4888   23.6245 C   0  0  0  0  0  0  0  0  0  0  0  0
    5.5782  -21.8766   23.8592 N   0  0  0  0  0  0  0  0  0  0  0  0
   10.7761  -16.7342   22.4951 C   0  0  0  0  0  0  0  0  0  0  0  0
   11.2660  -16.4458   21.3870 O   0  0  0  0  0  0  0  0  0  0  0  0
   11.6229  -16.7999   23.6214 N   0  0  0  0  0  0  0  0  0  0  0  0
   13.0162  -16.4362   23.4511 C   0  0  0  0  0  0  0  0  0  0  0  0
   13.7665  -16.4710   24.7132 C   0  0  0  0  0  0  0  0  0  0  0  0
   13.1941  -16.8093   25.7696 O   0  0  0  0  0  0  0  0  0  0  0  0
   15.1023  -16.1339   24.7526 O   0  0  0  0  0  0  0  0  0  0  0  0
  2  4  1  0
  2  1  1  6
  3  2  1  0
  4  5  1  1
  6  4  1  0
  7  6  2  0
  8  6  1  0
  9  8  1  0
  9 10  1  6
 10 11  1  0
 11 12  1  0
 13 14  1  0
 13 12  1  0
 15 17  1  0
 15  9  1  0
 16 15  2  0
 18 19  1  0
 18 17  1  0
 19 21  1  0
 20 19  2  0
M  END
$$$$
