VKG.pdb
     RDKit          3D

 21 20  0  0  1  0  0  0  0  0999 V2000
    7.4416  -15.0797   17.1906 C   0  0  0  0  0  0  0  0  0  0  0  0
    8.1195  -15.1353   18.5702 C   0  0  2  0  0  0  0  0  0  0  0  0
    7.5722  -16.3543   19.2442 C   0  0  0  0  0  0  0  0  0  0  0  0
    7.7493  -13.8335   19.2558 C   0  0  2  0  0  0  0  0  0  0  0  0
    8.4071  -12.7868   18.4555 N   0  0  0  0  0  0  0  0  0  0  0  0
    8.2640  -13.7455   20.6463 C   0  0  0  0  0  0  0  0  0  0  0  0
    9.5008  -13.6878   20.8090 O   0  0  0  0  0  0  0  0  0  0  0  0
    7.4012  -13.7244   21.7697 N   0  0  0  0  0  0  0  0  0  0  0  0
    7.8398  -13.6976   23.1530 C   0  0  1  0  0  0  0  0  0  0  0  0
    6.7469  -13.1452   24.0151 C   0  0  0  0  0  0  0  0  0  0  0  0
    7.1024  -12.9913   25.4593 C   0  0  0  0  0  0  0  0  0  0  0  0
    6.1191  -12.1701   26.2508 C   0  0  0  0  0  0  0  0  0  0  0  0
    6.4799  -12.0575   27.6956 C   0  0  0  0  0  0  0  0  0  0  0  0
    5.5869  -11.2268   28.4537 N   0  0  0  0  0  0  0  0  0  0  0  0
    8.3311  -15.0151   23.5952 C   0  0  0  0  0  0  0  0  0  0  0  0
    7.5293  -15.9591   23.7269 O   0  0  0  0  0  0  0  0  0  0  0  0
    9.6963  -15.2328   23.8755 N   0  0  0  0  0  0  0  0  0  0  0  0
   10.0871  -16.5231   24.4093 C   0  0  0  0  0  0  0  0  0  0  0  0
   11.5235  -16.5990   24.7062 C   0  0  0  0  0  0  0  0  0  0  0  0
   12.2718  -15.6437   24.4136 O   0  0  0  0  0  0  0  0  0  0  0  0
   12.0646  -17.7151   25.3069 O   0  0  0  0  0  0  0  0  0  0  0  0
  2  4  1  0
  2  1  1  6
  3  2  1  0
  4  5  1  6
  6  4  1  0
  7  6  2  0
  8  6  1  0
  9  8  1  0
  9 10  1  1
 10 11  1  0
 11 12  1  0
 13 14  1  0
 13 12  1  0
 15 17  1  0
 15  9  1  0
 16 15  2  0
 18 19  1  0
 18 17  1  0
 19 21  1  0
 20 19  2  0
M  END
$$$$
