VKG.pdb
     RDKit          3D

 21 20  0  0  1  0  0  0  0  0999 V2000
    9.9292  -22.6086   26.3185 C   0  0  0  0  0  0  0  0  0  0  0  0
   10.7787  -23.4703   25.3691 C   0  0  2  0  0  0  0  0  0  0  0  0
    9.8439  -24.4900   24.7981 C   0  0  0  0  0  0  0  0  0  0  0  0
   11.8795  -24.0583   26.2319 C   0  0  2  0  0  0  0  0  0  0  0  0
   11.1962  -25.0300   27.1025 N   0  0  0  0  0  0  0  0  0  0  0  0
   12.5398  -23.0466   27.0959 C   0  0  0  0  0  0  0  0  0  0  0  0
   13.0968  -22.0772   26.5396 O   0  0  0  0  0  0  0  0  0  0  0  0
   12.5508  -23.1533   28.5084 N   0  0  0  0  0  0  0  0  0  0  0  0
   13.3036  -22.2904   29.4004 C   0  0  1  0  0  0  0  0  0  0  0  0
   12.6690  -22.2952   30.7569 C   0  0  0  0  0  0  0  0  0  0  0  0
   12.8672  -21.0420   31.5481 C   0  0  0  0  0  0  0  0  0  0  0  0
   12.1873  -21.0488   32.8918 C   0  0  0  0  0  0  0  0  0  0  0  0
   12.4077  -19.7906   33.6655 C   0  0  0  0  0  0  0  0  0  0  0  0
   11.8298  -19.8089   34.9800 N   0  0  0  0  0  0  0  0  0  0  0  0
   14.7355  -22.6398   29.4177 C   0  0  0  0  0  0  0  0  0  0  0  0
   15.0772  -23.8332   29.5192 O   0  0  0  0  0  0  0  0  0  0  0  0
   15.7339  -21.6479   29.3225 N   0  0  0  0  0  0  0  0  0  0  0  0
   17.1207  -22.0711   29.3310 C   0  0  0  0  0  0  0  0  0  0  0  0
   18.0556  -20.9419   29.2411 C   0  0  0  0  0  0  0  0  0  0  0  0
   19.2858  -21.1447   29.3025 O   0  0  0  0  0  0  0  0  0  0  0  0
   17.5954  -19.6518   29.0887 O   0  0  0  0  0  0  0  0  0  0  0  0
  2  4  1  0
  2  1  1  1
  3  2  1  0
  4  5  1  1
  6  4  1  0
  7  6  2  0
  8  6  1  0
  9  8  1  0
  9 10  1  1
 10 11  1  0
 11 12  1  0
 13 14  1  0
 13 12  1  0
 15 17  1  0
 15  9  1  0
 16 15  2  0
 18 19  1  0
 18 17  1  0
 19 21  1  0
 20 19  2  0
M  END
$$$$
