VKG.pdb
     RDKit          3D

 21 20  0  0  1  0  0  0  0  0999 V2000
    9.4342  -20.9189   22.3409 C   0  0  0  0  0  0  0  0  0  0  0  0
    8.0518  -20.6973   22.9777 C   0  0  2  0  0  0  0  0  0  0  0  0
    7.4909  -22.0636   23.2193 C   0  0  0  0  0  0  0  0  0  0  0  0
    7.2679  -19.8790   21.9690 C   0  0  2  0  0  0  0  0  0  0  0  0
    7.0761  -20.7810   20.8208 N   0  0  0  0  0  0  0  0  0  0  0  0
    8.0069  -18.6799   21.4976 C   0  0  0  0  0  0  0  0  0  0  0  0
    8.8981  -18.8433   20.6381 O   0  0  0  0  0  0  0  0  0  0  0  0
    7.7287  -17.3810   21.9896 N   0  0  0  0  0  0  0  0  0  0  0  0
    8.4705  -16.1837   21.6389 C   0  0  1  0  0  0  0  0  0  0  0  0
    7.5606  -14.9956   21.6948 C   0  0  0  0  0  0  0  0  0  0  0  0
    8.1467  -13.7292   21.1575 C   0  0  0  0  0  0  0  0  0  0  0  0
    8.0899  -13.6131   19.6571 C   0  0  0  0  0  0  0  0  0  0  0  0
    8.6779  -12.3389   19.1461 C   0  0  0  0  0  0  0  0  0  0  0  0
    8.4996  -12.1425   17.7348 N   0  0  0  0  0  0  0  0  0  0  0  0
    9.6860  -16.0352   22.4594 C   0  0  0  0  0  0  0  0  0  0  0  0
    9.5860  -15.9421   23.6973 O   0  0  0  0  0  0  0  0  0  0  0  0
   10.9676  -15.9945   21.8714 N   0  0  0  0  0  0  0  0  0  0  0  0
   12.1120  -15.7986   22.7399 C   0  0  0  0  0  0  0  0  0  0  0  0
   13.3864  -15.8367   22.0109 C   0  0  0  0  0  0  0  0  0  0  0  0
   13.3994  -16.1045   20.7917 O   0  0  0  0  0  0  0  0  0  0  0  0
   14.5782  -15.5801   22.6537 O   0  0  0  0  0  0  0  0  0  0  0  0
  2  4  1  0
  2  1  1  6
  3  2  1  0
  4  5  1  6
  6  4  1  0
  7  6  2  0
  8  6  1  0
  9  8  1  0
  9 10  1  1
 10 11  1  0
 11 12  1  0
 13 14  1  0
 13 12  1  0
 15 17  1  0
 15  9  1  0
 16 15  2  0
 18 19  1  0
 18 17  1  0
 19 21  1  0
 20 19  2  0
M  END
$$$$
