SAL.pdb
     RDKit          3D

 20 19  0  0  1  0  0  0  0  0999 V2000
   29.7268  -19.3739  -14.2389 O   0  0  0  0  0  0  0  0  0  0  0  0
   28.5967  -19.0291  -13.5289 C   0  0  0  0  0  0  0  0  0  0  0  0
   27.4037  -18.9864  -14.4864 C   0  0  2  0  0  0  0  0  0  0  0  0
   27.2248  -17.6285  -14.9855 N   0  0  0  0  0  0  0  0  0  0  0  0
   26.1575  -19.4869  -13.8501 C   0  0  0  0  0  0  0  0  0  0  0  0
   25.3171  -18.5924  -13.4728 O   0  0  0  0  0  0  0  0  0  0  0  0
   24.2859  -22.6444  -13.6723 C   0  0  0  0  0  0  0  0  0  0  0  0
   24.6251  -21.2552  -13.1138 C   0  0  2  0  0  0  0  0  0  0  0  0
   25.8910  -20.8610  -13.6619 N   0  0  0  0  0  0  0  0  0  0  0  0
   24.6843  -21.4278  -11.6342 C   0  0  0  0  0  0  0  0  0  0  0  0
   23.6386  -21.8106  -11.0503 O   0  0  0  0  0  0  0  0  0  0  0  0
   27.9971  -21.3083   -6.9478 C   0  0  0  0  0  0  0  0  0  0  0  0
   27.0212  -20.1542   -7.4336 C   0  0  1  0  0  0  0  0  0  0  0  0
   27.7078  -18.8857   -6.9675 C   0  0  0  0  0  0  0  0  0  0  0  0
   26.8735  -20.3055   -8.9033 C   0  0  0  0  0  0  0  0  0  0  0  0
   25.8937  -21.2810   -9.4009 C   0  0  2  0  0  0  0  0  0  0  0  0
   25.8379  -21.1843  -10.8868 N   0  0  0  0  0  0  0  0  0  0  0  0
   24.5335  -21.1283   -8.9224 C   0  0  0  0  0  0  0  0  0  0  0  0
   23.6955  -20.2537   -9.2488 O   0  0  0  0  0  0  0  0  0  0  0  0
   24.0496  -22.0651   -7.9643 O   0  0  0  0  0  0  0  0  0  0  0  0
  2  1  1  0
  3  2  1  0
  3  5  1  0
  3  4  1  1
  5  6  2  0
  8  7  1  6
  9  8  1  0
  9  5  1  0
 10  8  1  0
 10 11  2  0
 13 12  1  6
 13 14  1  0
 13 15  1  0
 16 15  1  1
 16 17  1  0
 16 18  1  0
 17 10  1  0
 18 19  2  0
 18 20  1  0
M  END
$$$$
