SAL.pdb
     RDKit          3D

 20 19  0  0  1  0  0  0  0  0999 V2000
   14.4634  -14.2323  -17.0433 O   0  0  0  0  0  0  0  0  0  0  0  0
   15.0644  -13.3154  -16.2075 C   0  0  0  0  0  0  0  0  0  0  0  0
   16.4197  -13.8672  -15.7595 C   0  0  2  0  0  0  0  0  0  0  0  0
   16.2276  -14.8027  -14.6581 N   0  0  0  0  0  0  0  0  0  0  0  0
   17.3658  -12.7862  -15.3793 C   0  0  0  0  0  0  0  0  0  0  0  0
   17.0600  -12.1106  -14.3310 O   0  0  0  0  0  0  0  0  0  0  0  0
   20.6667  -11.4639  -16.5045 C   0  0  0  0  0  0  0  0  0  0  0  0
   19.3497  -11.3842  -15.7199 C   0  0  2  0  0  0  0  0  0  0  0  0
   18.5391  -12.5011  -16.1120 N   0  0  0  0  0  0  0  0  0  0  0  0
   18.7360  -10.0824  -16.1090 C   0  0  0  0  0  0  0  0  0  0  0  0
   17.7648  -10.1119  -16.9070 O   0  0  0  0  0  0  0  0  0  0  0  0
   16.1604   -6.0520  -17.3639 C   0  0  0  0  0  0  0  0  0  0  0  0
   16.4306   -6.2661  -15.8143 C   0  0  1  0  0  0  0  0  0  0  0  0
   15.0432   -6.2487  -15.2038 C   0  0  0  0  0  0  0  0  0  0  0  0
   17.1788   -7.5416  -15.6799 C   0  0  0  0  0  0  0  0  0  0  0  0
   18.6066   -7.5431  -16.0270 C   0  0  2  0  0  0  0  0  0  0  0  0
   19.1923   -8.8539  -15.6282 N   0  0  0  0  0  0  0  0  0  0  0  0
   19.4211   -6.5169  -15.4056 C   0  0  0  0  0  0  0  0  0  0  0  0
   19.5891   -5.3326  -15.7837 O   0  0  0  0  0  0  0  0  0  0  0  0
   20.1339   -6.8525  -14.2186 O   0  0  0  0  0  0  0  0  0  0  0  0
  2  1  1  0
  3  2  1  0
  3  5  1  0
  3  4  1  1
  5  6  2  0
  8  7  1  6
  9  8  1  0
  9  5  1  0
 10  8  1  0
 10 11  2  0
 13 12  1  6
 13 14  1  0
 13 15  1  0
 16 15  1  1
 16 17  1  0
 16 18  1  0
 17 10  1  0
 18 19  2  0
 18 20  1  0
M  END
$$$$
