SAL.pdb
     RDKit          3D

 20 19  0  0  1  0  0  0  0  0999 V2000
   29.3888  -23.7990  -16.3061 O   0  0  0  0  0  0  0  0  0  0  0  0
   29.3767  -22.5324  -15.7621 C   0  0  0  0  0  0  0  0  0  0  0  0
   28.2442  -21.7281  -16.4045 C   0  0  2  0  0  0  0  0  0  0  0  0
   28.7576  -20.9900  -17.5519 N   0  0  0  0  0  0  0  0  0  0  0  0
   27.5880  -20.8131  -15.4347 C   0  0  0  0  0  0  0  0  0  0  0  0
   28.3041  -19.8379  -15.0045 O   0  0  0  0  0  0  0  0  0  0  0  0
   24.4324  -19.4640  -14.6572 C   0  0  0  0  0  0  0  0  0  0  0  0
   25.7099  -20.0591  -14.0485 C   0  0  2  0  0  0  0  0  0  0  0  0
   26.2560  -20.9855  -14.9982 N   0  0  0  0  0  0  0  0  0  0  0  0
   25.2721  -20.7353  -12.7940 C   0  0  0  0  0  0  0  0  0  0  0  0
   24.8408  -21.9127  -12.8872 O   0  0  0  0  0  0  0  0  0  0  0  0
   27.3349  -19.1633   -7.8731 C   0  0  0  0  0  0  0  0  0  0  0  0
   26.9200  -20.1035   -9.0832 C   0  0  1  0  0  0  0  0  0  0  0  0
   27.5641  -21.4323   -8.7405 C   0  0  0  0  0  0  0  0  0  0  0  0
   25.4363  -20.1014   -9.1410 C   0  0  0  0  0  0  0  0  0  0  0  0
   24.7905  -20.7399  -10.2961 C   0  0  2  0  0  0  0  0  0  0  0  0
   25.3227  -20.1198  -11.5421 N   0  0  0  0  0  0  0  0  0  0  0  0
   23.3458  -20.6370  -10.3641 C   0  0  0  0  0  0  0  0  0  0  0  0
   22.6603  -19.8994  -11.1122 O   0  0  0  0  0  0  0  0  0  0  0  0
   22.5724  -21.4565   -9.4923 O   0  0  0  0  0  0  0  0  0  0  0  0
  2  1  1  0
  3  2  1  0
  3  5  1  0
  3  4  1  6
  5  6  2  0
  8  7  1  6
  9  8  1  0
  9  5  1  0
 10  8  1  0
 10 11  2  0
 13 12  1  1
 13 14  1  0
 13 15  1  0
 16 15  1  1
 16 17  1  0
 16 18  1  0
 17 10  1  0
 18 19  2  0
 18 20  1  0
M  END
$$$$
