SAL.pdb
     RDKit          3D

 20 19  0  0  1  0  0  0  0  0999 V2000
   45.2411  -12.5130  -11.2428 O   0  0  0  0  0  0  0  0  0  0  0  0
   44.2177  -11.9621  -10.5016 C   0  0  0  0  0  0  0  0  0  0  0  0
   44.2062  -12.6091   -9.1148 C   0  0  2  0  0  0  0  0  0  0  0  0
   43.8441  -14.0161   -9.2340 N   0  0  0  0  0  0  0  0  0  0  0  0
   43.2954  -11.9039   -8.1760 C   0  0  0  0  0  0  0  0  0  0  0  0
   42.0465  -12.1822   -8.2842 O   0  0  0  0  0  0  0  0  0  0  0  0
   43.5767   -9.5008   -5.3305 C   0  0  0  0  0  0  0  0  0  0  0  0
   42.7980  -10.3291   -6.3621 C   0  0  2  0  0  0  0  0  0  0  0  0
   43.7538  -10.9786   -7.2125 N   0  0  0  0  0  0  0  0  0  0  0  0
   41.9613   -9.3461   -7.1079 C   0  0  0  0  0  0  0  0  0  0  0  0
   42.4267   -8.8791   -8.1786 O   0  0  0  0  0  0  0  0  0  0  0  0
   36.4361   -9.3490   -6.4861 C   0  0  0  0  0  0  0  0  0  0  0  0
   37.8089   -9.3364   -7.2833 C   0  0  1  0  0  0  0  0  0  0  0  0
   37.3847   -9.5103   -8.7282 C   0  0  0  0  0  0  0  0  0  0  0  0
   38.4836   -8.0542   -6.9586 C   0  0  0  0  0  0  0  0  0  0  0  0
   39.8881   -7.8935   -7.3595 C   0  0  2  0  0  0  0  0  0  0  0  0
   40.7024   -8.9327   -6.6687 N   0  0  0  0  0  0  0  0  0  0  0  0
   40.5015   -6.6149   -7.0572 C   0  0  0  0  0  0  0  0  0  0  0  0
   41.2535   -6.3295   -6.0945 O   0  0  0  0  0  0  0  0  0  0  0  0
   40.2454   -5.5228   -7.9355 O   0  0  0  0  0  0  0  0  0  0  0  0
  2  1  1  0
  3  2  1  0
  3  5  1  0
  3  4  1  6
  5  6  2  0
  8  7  1  1
  9  8  1  0
  9  5  1  0
 10  8  1  0
 10 11  2  0
 13 12  1  1
 13 14  1  0
 13 15  1  0
 16 15  1  1
 16 17  1  0
 16 18  1  0
 17 10  1  0
 18 19  2  0
 18 20  1  0
M  END
$$$$
