SAL.pdb
     RDKit          3D

 20 19  0  0  1  0  0  0  0  0999 V2000
   14.4086  -13.7064  -13.8830 O   0  0  0  0  0  0  0  0  0  0  0  0
   15.5616  -12.9903  -14.1244 C   0  0  0  0  0  0  0  0  0  0  0  0
   15.6517  -12.6862  -15.6215 C   0  0  2  0  0  0  0  0  0  0  0  0
   16.1564  -13.8564  -16.3293 N   0  0  0  0  0  0  0  0  0  0  0  0
   16.4926  -11.4931  -15.9004 C   0  0  0  0  0  0  0  0  0  0  0  0
   17.7111  -11.7258  -16.2321 O   0  0  0  0  0  0  0  0  0  0  0  0
   16.0440   -7.7875  -16.0786 C   0  0  0  0  0  0  0  0  0  0  0  0
   16.8483   -9.0873  -16.2207 C   0  0  2  0  0  0  0  0  0  0  0  0
   16.0019  -10.1717  -15.8132 N   0  0  0  0  0  0  0  0  0  0  0  0
   18.0243   -8.9249  -15.3188 C   0  0  0  0  0  0  0  0  0  0  0  0
   17.9177   -9.3506  -14.1406 O   0  0  0  0  0  0  0  0  0  0  0  0
   22.8575  -11.0770  -14.1560 C   0  0  0  0  0  0  0  0  0  0  0  0
   22.5492   -9.5349  -14.3731 C   0  0  1  0  0  0  0  0  0  0  0  0
   23.7429   -9.0399  -15.1655 C   0  0  0  0  0  0  0  0  0  0  0  0
   21.2370   -9.4512  -15.0631 C   0  0  0  0  0  0  0  0  0  0  0  0
   20.4318   -8.2376  -14.8679 C   0  0  2  0  0  0  0  0  0  0  0  0
   19.2181   -8.3281  -15.7277 N   0  0  0  0  0  0  0  0  0  0  0  0
   21.0764   -6.9790  -15.1888 C   0  0  0  0  0  0  0  0  0  0  0  0
   21.8463   -6.3015  -14.4663 O   0  0  0  0  0  0  0  0  0  0  0  0
   20.8331   -6.4076  -16.4709 O   0  0  0  0  0  0  0  0  0  0  0  0
  2  1  1  0
  3  2  1  0
  3  5  1  0
  3  4  1  6
  5  6  2  0
  8  7  1  1
  9  8  1  0
  9  5  1  0
 10  8  1  0
 10 11  2  0
 13 12  1  6
 13 14  1  0
 13 15  1  0
 16 15  1  6
 16 17  1  0
 16 18  1  0
 17 10  1  0
 18 19  2  0
 18 20  1  0
M  END
$$$$
