SAL.pdb
     RDKit          3D

 20 19  0  0  1  0  0  0  0  0999 V2000
   20.3712  -19.0852  -11.9301 O   0  0  0  0  0  0  0  0  0  0  0  0
   21.2681  -18.7648  -12.9267 C   0  0  0  0  0  0  0  0  0  0  0  0
   21.9190  -20.0513  -13.4399 C   0  0  2  0  0  0  0  0  0  0  0  0
   20.8981  -20.9245  -14.0058 N   0  0  0  0  0  0  0  0  0  0  0  0
   22.6877  -20.7513  -12.3781 C   0  0  0  0  0  0  0  0  0  0  0  0
   22.0170  -21.5482  -11.6272 O   0  0  0  0  0  0  0  0  0  0  0  0
   25.5210  -22.4660  -11.9401 C   0  0  0  0  0  0  0  0  0  0  0  0
   24.7530  -21.3600  -11.2028 C   0  0  2  0  0  0  0  0  0  0  0  0
   24.0750  -20.5675  -12.1880 N   0  0  0  0  0  0  0  0  0  0  0  0
   25.7907  -20.5781  -10.4718 C   0  0  0  0  0  0  0  0  0  0  0  0
   26.3742  -19.6569  -11.0979 O   0  0  0  0  0  0  0  0  0  0  0  0
   27.3302  -19.4087   -4.6655 C   0  0  0  0  0  0  0  0  0  0  0  0
   27.9751  -19.4735   -6.1148 C   0  0  1  0  0  0  0  0  0  0  0  0
   29.2084  -20.3329   -5.9191 C   0  0  0  0  0  0  0  0  0  0  0  0
   26.9392  -20.0283   -7.0225 C   0  0  0  0  0  0  0  0  0  0  0  0
   27.2745  -20.1698   -8.4461 C   0  0  2  0  0  0  0  0  0  0  0  0
   26.1321  -20.8270   -9.1414 N   0  0  0  0  0  0  0  0  0  0  0  0
   28.4555  -20.9525   -8.7545 C   0  0  0  0  0  0  0  0  0  0  0  0
   28.6028  -22.1947   -8.6601 O   0  0  0  0  0  0  0  0  0  0  0  0
   29.6116  -20.2663   -9.2258 O   0  0  0  0  0  0  0  0  0  0  0  0
  2  1  1  0
  3  2  1  0
  3  5  1  0
  3  4  1  1
  5  6  2  0
  8  7  1  6
  9  8  1  0
  9  5  1  0
 10  8  1  0
 10 11  2  0
 13 12  1  1
 13 14  1  0
 13 15  1  0
 16 15  1  1
 16 17  1  0
 16 18  1  0
 17 10  1  0
 18 19  2  0
 18 20  1  0
M  END
$$$$
