SAL.pdb
     RDKit          3D

 20 19  0  0  1  0  0  0  0  0999 V2000
   27.8662  -22.0914  -14.8983 O   0  0  0  0  0  0  0  0  0  0  0  0
   26.5213  -21.9666  -15.1740 C   0  0  0  0  0  0  0  0  0  0  0  0
   25.9135  -23.3636  -15.3186 C   0  0  2  0  0  0  0  0  0  0  0  0
   26.3740  -23.9718  -16.5608 N   0  0  0  0  0  0  0  0  0  0  0  0
   24.4289  -23.3367  -15.2588 C   0  0  0  0  0  0  0  0  0  0  0  0
   23.8330  -22.7929  -16.2579 O   0  0  0  0  0  0  0  0  0  0  0  0
   21.7198  -24.7609  -13.1453 C   0  0  0  0  0  0  0  0  0  0  0  0
   22.2633  -23.7835  -14.1969 C   0  0  2  0  0  0  0  0  0  0  0  0
   23.6951  -23.8724  -14.1776 N   0  0  0  0  0  0  0  0  0  0  0  0
   21.7795  -22.4383  -13.7735 C   0  0  0  0  0  0  0  0  0  0  0  0
   22.5818  -21.7025  -13.1444 O   0  0  0  0  0  0  0  0  0  0  0  0
   22.3121  -18.2245  -16.3050 C   0  0  0  0  0  0  0  0  0  0  0  0
   21.9892  -19.0114  -14.9646 C   0  0  1  0  0  0  0  0  0  0  0  0
   21.6780  -17.9107  -13.9700 C   0  0  0  0  0  0  0  0  0  0  0  0
   20.8719  -19.9407  -15.2694 C   0  0  0  0  0  0  0  0  0  0  0  0
   20.1380  -20.5299  -14.1410 C   0  0  2  0  0  0  0  0  0  0  0  0
   20.4914  -21.9744  -14.0453 N   0  0  0  0  0  0  0  0  0  0  0  0
   18.6913  -20.4587  -14.2065 C   0  0  0  0  0  0  0  0  0  0  0  0
   17.9201  -21.1175  -14.9447 O   0  0  0  0  0  0  0  0  0  0  0  0
   18.0243  -19.5419  -13.3437 O   0  0  0  0  0  0  0  0  0  0  0  0
  2  1  1  0
  3  2  1  0
  3  5  1  0
  3  4  1  6
  5  6  2  0
  8  7  1  1
  9  8  1  0
  9  5  1  0
 10  8  1  0
 10 11  2  0
 13 12  1  6
 13 14  1  0
 13 15  1  0
 16 15  1  6
 16 17  1  0
 16 18  1  0
 17 10  1  0
 18 19  2  0
 18 20  1  0
M  END
$$$$
