SAL.pdb
     RDKit          3D

 20 19  0  0  1  0  0  0  0  0999 V2000
   39.9166  -28.2832    2.7087 O   0  0  0  0  0  0  0  0  0  0  0  0
   38.7734  -27.5768    3.0160 C   0  0  0  0  0  0  0  0  0  0  0  0
   37.6737  -28.5632    3.4155 C   0  0  2  0  0  0  0  0  0  0  0  0
   37.1829  -29.2556    2.2302 N   0  0  0  0  0  0  0  0  0  0  0  0
   36.5608  -27.8968    4.1404 C   0  0  0  0  0  0  0  0  0  0  0  0
   35.5951  -27.4607    3.4151 O   0  0  0  0  0  0  0  0  0  0  0  0
   35.2510  -27.8325    7.5632 C   0  0  0  0  0  0  0  0  0  0  0  0
   35.3724  -27.1995    6.1699 C   0  0  2  0  0  0  0  0  0  0  0  0
   36.5440  -27.7417    5.5441 N   0  0  0  0  0  0  0  0  0  0  0  0
   35.4935  -25.7333    6.4111 C   0  0  0  0  0  0  0  0  0  0  0  0
   36.6334  -25.2811    6.6886 O   0  0  0  0  0  0  0  0  0  0  0  0
   32.0387  -21.9961    4.0081 C   0  0  0  0  0  0  0  0  0  0  0  0
   33.2845  -22.8662    4.4674 C   0  0  1  0  0  0  0  0  0  0  0  0
   34.4346  -22.2982    3.6595 C   0  0  0  0  0  0  0  0  0  0  0  0
   33.3947  -22.7165    5.9406 C   0  0  0  0  0  0  0  0  0  0  0  0
   34.5030  -23.3996    6.6219 C   0  0  2  0  0  0  0  0  0  0  0  0
   34.4068  -24.8599    6.3412 N   0  0  0  0  0  0  0  0  0  0  0  0
   34.5587  -23.2557    8.0637 C   0  0  0  0  0  0  0  0  0  0  0  0
   34.2107  -24.0883    8.9351 O   0  0  0  0  0  0  0  0  0  0  0  0
   35.0644  -22.0355    8.5977 O   0  0  0  0  0  0  0  0  0  0  0  0
  2  1  1  0
  3  2  1  0
  3  5  1  0
  3  4  1  6
  5  6  2  0
  8  7  1  1
  9  8  1  0
  9  5  1  0
 10  8  1  0
 10 11  2  0
 13 12  1  6
 13 14  1  0
 13 15  1  0
 16 15  1  1
 16 17  1  0
 16 18  1  0
 17 10  1  0
 18 19  2  0
 18 20  1  0
M  END
$$$$
