SAL.pdb
     RDKit          3D

 20 19  0  0  1  0  0  0  0  0999 V2000
   21.8824  -10.1458  -15.1292 O   0  0  0  0  0  0  0  0  0  0  0  0
   21.8053   -9.6598  -16.4169 C   0  0  0  0  0  0  0  0  0  0  0  0
   20.3366   -9.6217  -16.8450 C   0  0  2  0  0  0  0  0  0  0  0  0
   20.2403   -9.1581  -18.2237 N   0  0  0  0  0  0  0  0  0  0  0  0
   19.5124   -8.7771  -15.9418 C   0  0  0  0  0  0  0  0  0  0  0  0
   19.7105   -7.5106  -16.0158 O   0  0  0  0  0  0  0  0  0  0  0  0
   16.4817   -9.2197  -13.8525 C   0  0  0  0  0  0  0  0  0  0  0  0
   17.7027   -8.4183  -14.3251 C   0  0  2  0  0  0  0  0  0  0  0  0
   18.5604   -9.3135  -15.0471 N   0  0  0  0  0  0  0  0  0  0  0  0
   18.3460   -7.9075  -13.0809 C   0  0  0  0  0  0  0  0  0  0  0  0
   19.1574   -8.6658  -12.4914 O   0  0  0  0  0  0  0  0  0  0  0  0
   20.9758   -3.4060  -12.9690 C   0  0  0  0  0  0  0  0  0  0  0  0
   20.4813   -4.8972  -12.7406 C   0  0  1  0  0  0  0  0  0  0  0  0
   21.7488   -5.6410  -12.3689 C   0  0  0  0  0  0  0  0  0  0  0  0
   19.4314   -4.8467  -11.6918 C   0  0  0  0  0  0  0  0  0  0  0  0
   18.7503   -6.0996  -11.3375 C   0  0  2  0  0  0  0  0  0  0  0  0
   18.0847   -6.6407  -12.5559 N   0  0  0  0  0  0  0  0  0  0  0  0
   17.7300   -6.0095  -10.3111 C   0  0  0  0  0  0  0  0  0  0  0  0
   16.4856   -5.9667  -10.4633 O   0  0  0  0  0  0  0  0  0  0  0  0
   18.1490   -5.9621   -8.9502 O   0  0  0  0  0  0  0  0  0  0  0  0
  2  1  1  0
  3  2  1  0
  3  5  1  0
  3  4  1  6
  5  6  2  0
  8  7  1  1
  9  8  1  0
  9  5  1  0
 10  8  1  0
 10 11  2  0
 13 12  1  1
 13 14  1  0
 13 15  1  0
 16 15  1  6
 16 17  1  0
 16 18  1  0
 17 10  1  0
 18 19  2  0
 18 20  1  0
M  END
$$$$
