GYE.pdb
     RDKit          3D

 26 26  0  0  1  0  0  0  0  0999 V2000
    9.6416  -17.1868   18.2938 N   0  0  0  0  0  0  0  0  0  0  0  0
    8.6198  -17.2629   19.3173 C   0  0  0  0  0  0  0  0  0  0  0  0
    8.9265  -16.3572   20.4595 C   0  0  0  0  0  0  0  0  0  0  0  0
   10.0353  -15.7529   20.5371 O   0  0  0  0  0  0  0  0  0  0  0  0
    6.8653  -11.8971   27.9644 O   0  0  0  0  0  0  0  0  0  0  0  0
    6.8981  -12.5857   26.7645 C   0  0  0  0  0  0  0  0  0  0  0  0
    6.3900  -13.8783   26.7015 C   0  0  0  0  0  0  0  0  0  0  0  0
    6.4286  -14.5512   25.5030 C   0  0  0  0  0  0  0  0  0  0  0  0
    6.9554  -13.9964   24.3441 C   0  0  0  0  0  0  0  0  0  0  0  0
    6.9449  -14.7999   23.1439 C   0  0  0  0  0  0  0  0  0  0  0  0
    8.2333  -15.3480   22.6627 C   0  0  2  0  0  0  0  0  0  0  0  0
    7.9863  -16.1527   21.4819 N   0  0  0  0  0  0  0  0  0  0  0  0
    8.8673  -16.2315   23.6733 C   0  0  0  0  0  0  0  0  0  0  0  0
    8.4339  -17.3872   23.9236 O   0  0  0  0  0  0  0  0  0  0  0  0
    7.4478  -12.7130   24.4533 C   0  0  0  0  0  0  0  0  0  0  0  0
    7.4212  -12.0144   25.6445 C   0  0  0  0  0  0  0  0  0  0  0  0
    9.9824  -15.7918   24.3843 N   0  0  0  0  0  0  0  0  0  0  0  0
   10.7106  -16.6321   25.3407 C   0  0  1  0  0  0  0  0  0  0  0  0
   12.1430  -16.3435   25.1140 C   0  0  0  0  0  0  0  0  0  0  0  0
   12.7829  -16.7582   23.8534 C   0  0  0  0  0  0  0  0  0  0  0  0
   14.1039  -16.1685   23.5644 C   0  0  0  0  0  0  0  0  0  0  0  0
   14.7472  -15.5374   24.4332 O   0  0  0  0  0  0  0  0  0  0  0  0
   10.1556  -16.6150   26.6691 C   0  0  0  0  0  0  0  0  0  0  0  0
    9.3481  -15.7140   27.0809 O   0  0  0  0  0  0  0  0  0  0  0  0
   14.6434  -16.3173   22.3031 O   0  0  0  0  0  0  0  0  0  0  0  0
   10.4334  -17.5880   27.6501 O   0  0  0  0  0  0  0  0  0  0  0  0
  1  2  1  0
  2  3  1  0
  3 12  1  0
  3  4  2  0
  6 16  2  0
  6  5  1  0
  7  6  1  0
  8  9  1  0
  8  7  2  0
  9 15  2  0
 10  9  1  0
 11 10  1  1
 11 13  1  0
 12 11  1  0
 13 14  2  0
 13 17  1  0
 15 16  1  0
 17 18  1  0
 18 23  1  0
 18 19  1  1
 20 21  1  0
 20 19  1  0
 21 25  1  0
 22 21  2  0
 23 26  1  0
 24 23  2  0
M  END
$$$$
