GYE.pdb
     RDKit          3D

 26 26  0  0  1  0  0  0  0  0999 V2000
    9.3591  -16.8132   18.0830 N   0  0  0  0  0  0  0  0  0  0  0  0
    8.2768  -16.7376   19.0423 C   0  0  0  0  0  0  0  0  0  0  0  0
    8.6669  -15.9417   20.2396 C   0  0  0  0  0  0  0  0  0  0  0  0
    9.8726  -15.6203   20.4484 O   0  0  0  0  0  0  0  0  0  0  0  0
    7.0257  -12.1434   28.1866 O   0  0  0  0  0  0  0  0  0  0  0  0
    6.9515  -12.7082   26.9254 C   0  0  0  0  0  0  0  0  0  0  0  0
    7.3780  -11.9789   25.8212 C   0  0  0  0  0  0  0  0  0  0  0  0
    7.2988  -12.5520   24.5738 C   0  0  0  0  0  0  0  0  0  0  0  0
    6.8090  -13.8344   24.3635 C   0  0  0  0  0  0  0  0  0  0  0  0
    6.7708  -14.3300   23.0074 C   0  0  0  0  0  0  0  0  0  0  0  0
    8.0101  -14.9130   22.4449 C   0  0  2  0  0  0  0  0  0  0  0  0
    7.6993  -15.5278   21.1689 N   0  0  0  0  0  0  0  0  0  0  0  0
    8.5662  -15.9742   23.3216 C   0  0  0  0  0  0  0  0  0  0  0  0
    8.0566  -17.1237   23.3931 O   0  0  0  0  0  0  0  0  0  0  0  0
    6.3976  -14.5203   25.4868 C   0  0  0  0  0  0  0  0  0  0  0  0
    6.4663  -13.9686   26.7511 C   0  0  0  0  0  0  0  0  0  0  0  0
    9.6909  -15.7164   24.1031 N   0  0  0  0  0  0  0  0  0  0  0  0
   10.3662  -16.7416   24.9057 C   0  0  1  0  0  0  0  0  0  0  0  0
   11.7302  -16.8510   24.3455 C   0  0  0  0  0  0  0  0  0  0  0  0
   12.6977  -17.7831   24.9505 C   0  0  0  0  0  0  0  0  0  0  0  0
   14.0445  -17.8112   24.3490 C   0  0  0  0  0  0  0  0  0  0  0  0
   14.6629  -16.7591   24.0706 O   0  0  0  0  0  0  0  0  0  0  0  0
   10.1599  -16.5985   26.3234 C   0  0  0  0  0  0  0  0  0  0  0  0
    9.8565  -15.4889   26.8802 O   0  0  0  0  0  0  0  0  0  0  0  0
   14.6368  -19.0296   24.0872 O   0  0  0  0  0  0  0  0  0  0  0  0
   10.2608  -17.6609   27.2440 O   0  0  0  0  0  0  0  0  0  0  0  0
  1  2  1  0
  2  3  1  0
  3 12  1  0
  3  4  2  0
  6 16  2  0
  6  5  1  0
  7  6  1  0
  8  9  1  0
  8  7  2  0
  9 15  2  0
 10  9  1  0
 11 10  1  1
 11 13  1  0
 12 11  1  0
 13 14  2  0
 13 17  1  0
 15 16  1  0
 17 18  1  0
 18 23  1  0
 18 19  1  1
 20 21  1  0
 20 19  1  0
 21 25  1  0
 22 21  2  0
 23 26  1  0
 24 23  2  0
M  END
$$$$
