GYE.pdb
     RDKit          3D

 26 26  0  0  1  0  0  0  0  0999 V2000
    9.0475  -16.9155   17.8805 N   0  0  0  0  0  0  0  0  0  0  0  0
    7.9940  -16.8101   18.8687 C   0  0  0  0  0  0  0  0  0  0  0  0
    8.4796  -16.1484   20.1119 C   0  0  0  0  0  0  0  0  0  0  0  0
    9.7155  -15.9850   20.3273 O   0  0  0  0  0  0  0  0  0  0  0  0
    7.2742  -12.1012   28.0344 O   0  0  0  0  0  0  0  0  0  0  0  0
    7.1619  -12.6493   26.7687 C   0  0  0  0  0  0  0  0  0  0  0  0
    6.6079  -13.9153   26.6162 C   0  0  0  0  0  0  0  0  0  0  0  0
    6.5022  -14.4480   25.3530 C   0  0  0  0  0  0  0  0  0  0  0  0
    6.9261  -13.7761   24.2140 C   0  0  0  0  0  0  0  0  0  0  0  0
    6.7669  -14.4373   22.9398 C   0  0  0  0  0  0  0  0  0  0  0  0
    7.9615  -15.0599   22.3254 C   0  0  2  0  0  0  0  0  0  0  0  0
    7.5710  -15.6885   21.0784 N   0  0  0  0  0  0  0  0  0  0  0  0
    8.5371  -16.1192   23.1916 C   0  0  0  0  0  0  0  0  0  0  0  0
    8.0190  -17.2628   23.2908 O   0  0  0  0  0  0  0  0  0  0  0  0
    7.4688  -12.5241   24.4128 C   0  0  0  0  0  0  0  0  0  0  0  0
    7.5867  -11.9654   25.6704 C   0  0  0  0  0  0  0  0  0  0  0  0
    9.6906  -15.8662   23.9318 N   0  0  0  0  0  0  0  0  0  0  0  0
   10.3893  -16.8940   24.7106 C   0  0  1  0  0  0  0  0  0  0  0  0
   11.6788  -17.1089   24.0195 C   0  0  0  0  0  0  0  0  0  0  0  0
   12.7602  -16.1185   24.1626 C   0  0  0  0  0  0  0  0  0  0  0  0
   14.0146  -16.4096   23.4428 C   0  0  0  0  0  0  0  0  0  0  0  0
   14.0402  -17.1629   22.4433 O   0  0  0  0  0  0  0  0  0  0  0  0
   10.3416  -16.6773   26.1332 C   0  0  0  0  0  0  0  0  0  0  0  0
    9.9779  -15.5727   26.6631 O   0  0  0  0  0  0  0  0  0  0  0  0
   15.1895  -15.8359   23.8836 O   0  0  0  0  0  0  0  0  0  0  0  0
   10.6798  -17.6557   27.0894 O   0  0  0  0  0  0  0  0  0  0  0  0
  1  2  1  0
  2  3  1  0
  3 12  1  0
  3  4  2  0
  6 16  2  0
  6  5  1  0
  7  6  1  0
  8  9  1  0
  8  7  2  0
  9 15  2  0
 10  9  1  0
 11 10  1  1
 11 13  1  0
 12 11  1  0
 13 14  2  0
 13 17  1  0
 15 16  1  0
 17 18  1  0
 18 23  1  0
 18 19  1  6
 20 21  1  0
 20 19  1  0
 21 25  1  0
 22 21  2  0
 23 26  1  0
 24 23  2  0
M  END
$$$$
