GYE.pdb
     RDKit          3D

 26 26  0  0  1  0  0  0  0  0999 V2000
    9.5845  -16.7705   18.2649 N   0  0  0  0  0  0  0  0  0  0  0  0
    8.4631  -16.7192   19.1799 C   0  0  0  0  0  0  0  0  0  0  0  0
    8.8307  -16.0369   20.4520 C   0  0  0  0  0  0  0  0  0  0  0  0
   10.0411  -15.8797   20.7852 O   0  0  0  0  0  0  0  0  0  0  0  0
    7.0819  -11.7832   28.1242 O   0  0  0  0  0  0  0  0  0  0  0  0
    7.0112  -12.4309   26.9033 C   0  0  0  0  0  0  0  0  0  0  0  0
    7.5951  -11.8492   25.7836 C   0  0  0  0  0  0  0  0  0  0  0  0
    7.5176  -12.5035   24.5767 C   0  0  0  0  0  0  0  0  0  0  0  0
    6.8785  -13.7268   24.4224 C   0  0  0  0  0  0  0  0  0  0  0  0
    6.8582  -14.3180   23.1048 C   0  0  0  0  0  0  0  0  0  0  0  0
    8.1070  -14.9314   22.5985 C   0  0  2  0  0  0  0  0  0  0  0  0
    7.8362  -15.5500   21.3152 N   0  0  0  0  0  0  0  0  0  0  0  0
    8.6037  -15.9968   23.5052 C   0  0  0  0  0  0  0  0  0  0  0  0
    8.0073  -17.0978   23.6402 O   0  0  0  0  0  0  0  0  0  0  0  0
    6.3140  -14.2659   25.5591 C   0  0  0  0  0  0  0  0  0  0  0  0
    6.3774  -13.6302   26.7837 C   0  0  0  0  0  0  0  0  0  0  0  0
    9.7683  -15.7980   24.2445 N   0  0  0  0  0  0  0  0  0  0  0  0
   10.3780  -16.8367   25.0815 C   0  0  1  0  0  0  0  0  0  0  0  0
   11.7339  -17.0470   24.5302 C   0  0  0  0  0  0  0  0  0  0  0  0
   12.6565  -15.9058   24.4000 C   0  0  0  0  0  0  0  0  0  0  0  0
   13.9891  -16.2013   23.8402 C   0  0  0  0  0  0  0  0  0  0  0  0
   14.1271  -16.8257   22.7642 O   0  0  0  0  0  0  0  0  0  0  0  0
   10.1783  -16.6364   26.4932 C   0  0  0  0  0  0  0  0  0  0  0  0
   10.5154  -17.4944   27.3785 O   0  0  0  0  0  0  0  0  0  0  0  0
   15.1117  -15.7775   24.5214 O   0  0  0  0  0  0  0  0  0  0  0  0
    9.6015  -15.4770   27.0492 O   0  0  0  0  0  0  0  0  0  0  0  0
  1  2  1  0
  2  3  1  0
  3 12  1  0
  3  4  2  0
  6 16  2  0
  6  5  1  0
  7  6  1  0
  8  9  1  0
  8  7  2  0
  9 15  2  0
 10  9  1  0
 11 10  1  1
 11 13  1  0
 12 11  1  0
 13 14  2  0
 13 17  1  0
 15 16  1  0
 17 18  1  0
 18 23  1  0
 18 19  1  1
 20 21  1  0
 20 19  1  0
 21 25  1  0
 22 21  2  0
 23 26  1  0
 24 23  2  0
M  END
$$$$
