GYE.pdb
     RDKit          3D

 26 26  0  0  1  0  0  0  0  0999 V2000
    9.7127  -17.3320   18.3946 N   0  0  0  0  0  0  0  0  0  0  0  0
    8.5670  -17.1674   19.2650 C   0  0  0  0  0  0  0  0  0  0  0  0
    8.9146  -16.3724   20.4759 C   0  0  0  0  0  0  0  0  0  0  0  0
   10.1165  -16.0887   20.7507 O   0  0  0  0  0  0  0  0  0  0  0  0
    6.8693  -11.6992   27.8700 O   0  0  0  0  0  0  0  0  0  0  0  0
    6.8998  -12.3697   26.6599 C   0  0  0  0  0  0  0  0  0  0  0  0
    6.2029  -13.5647   26.5202 C   0  0  0  0  0  0  0  0  0  0  0  0
    6.2416  -14.2206   25.3123 C   0  0  0  0  0  0  0  0  0  0  0  0
    6.9494  -13.7422   24.2174 C   0  0  0  0  0  0  0  0  0  0  0  0
    6.9193  -14.5194   23.0004 C   0  0  0  0  0  0  0  0  0  0  0  0
    8.1672  -15.1925   22.5740 C   0  0  2  0  0  0  0  0  0  0  0  0
    7.9100  -15.9173   21.3447 N   0  0  0  0  0  0  0  0  0  0  0  0
    8.6304  -16.1812   23.5799 C   0  0  0  0  0  0  0  0  0  0  0  0
    8.0271  -17.2679   23.7829 O   0  0  0  0  0  0  0  0  0  0  0  0
    7.6252  -12.5544   24.4016 C   0  0  0  0  0  0  0  0  0  0  0  0
    7.6030  -11.8750   25.6039 C   0  0  0  0  0  0  0  0  0  0  0  0
    9.7698  -15.9231   24.3398 N   0  0  0  0  0  0  0  0  0  0  0  0
   10.3284  -16.8774   25.3035 C   0  0  1  0  0  0  0  0  0  0  0  0
   11.7697  -16.9667   24.9853 C   0  0  0  0  0  0  0  0  0  0  0  0
   12.1982  -17.2718   23.6092 C   0  0  0  0  0  0  0  0  0  0  0  0
   13.6524  -17.3766   23.3839 C   0  0  0  0  0  0  0  0  0  0  0  0
   14.4550  -16.5478   23.8695 O   0  0  0  0  0  0  0  0  0  0  0  0
    9.8830  -16.6650   26.6560 C   0  0  0  0  0  0  0  0  0  0  0  0
    9.2686  -15.6105   27.0353 O   0  0  0  0  0  0  0  0  0  0  0  0
   14.1393  -18.4159   22.6179 O   0  0  0  0  0  0  0  0  0  0  0  0
   10.0668  -17.5942   27.6996 O   0  0  0  0  0  0  0  0  0  0  0  0
  1  2  1  0
  2  3  1  0
  3 12  1  0
  3  4  2  0
  6 16  2  0
  6  5  1  0
  7  6  1  0
  8  9  1  0
  8  7  2  0
  9 15  2  0
 10  9  1  0
 11 10  1  1
 11 13  1  0
 12 11  1  0
 13 14  2  0
 13 17  1  0
 15 16  1  0
 17 18  1  0
 18 23  1  0
 18 19  1  1
 20 21  1  0
 20 19  1  0
 21 25  1  0
 22 21  2  0
 23 26  1  0
 24 23  2  0
M  END
$$$$
