GYE.pdb
     RDKit          3D

 26 26  0  0  1  0  0  0  0  0999 V2000
    8.5982  -17.0059   17.8439 N   0  0  0  0  0  0  0  0  0  0  0  0
    7.6752  -17.0331   18.9596 C   0  0  0  0  0  0  0  0  0  0  0  0
    8.1663  -16.1984   20.0914 C   0  0  0  0  0  0  0  0  0  0  0  0
    9.3668  -15.8021   20.1406 O   0  0  0  0  0  0  0  0  0  0  0  0
    7.2339  -12.2215   28.0834 O   0  0  0  0  0  0  0  0  0  0  0  0
    7.0708  -12.7844   26.8298 C   0  0  0  0  0  0  0  0  0  0  0  0
    6.6575  -14.1075   26.7207 C   0  0  0  0  0  0  0  0  0  0  0  0
    6.4993  -14.6544   25.4690 C   0  0  0  0  0  0  0  0  0  0  0  0
    6.7349  -13.9422   24.3003 C   0  0  0  0  0  0  0  0  0  0  0  0
    6.5380  -14.6231   23.0418 C   0  0  0  0  0  0  0  0  0  0  0  0
    7.7317  -15.1495   22.3417 C   0  0  2  0  0  0  0  0  0  0  0  0
    7.3027  -15.8305   21.1355 N   0  0  0  0  0  0  0  0  0  0  0  0
    8.4635  -16.1401   23.1705 C   0  0  0  0  0  0  0  0  0  0  0  0
    8.1397  -17.3566   23.2080 O   0  0  0  0  0  0  0  0  0  0  0  0
    7.1429  -12.6343   24.4566 C   0  0  0  0  0  0  0  0  0  0  0  0
    7.3095  -12.0602   25.7017 C   0  0  0  0  0  0  0  0  0  0  0  0
    9.5506  -15.7368   23.9438 N   0  0  0  0  0  0  0  0  0  0  0  0
   10.4802  -16.6770   24.5787 C   0  0  1  0  0  0  0  0  0  0  0  0
   11.7426  -16.5641   23.8171 C   0  0  0  0  0  0  0  0  0  0  0  0
   12.9209  -17.3447   24.2329 C   0  0  0  0  0  0  0  0  0  0  0  0
   14.1473  -17.1549   23.4351 C   0  0  0  0  0  0  0  0  0  0  0  0
   15.1723  -16.6246   23.9200 O   0  0  0  0  0  0  0  0  0  0  0  0
   10.4780  -16.6138   26.0171 C   0  0  0  0  0  0  0  0  0  0  0  0
   10.1797  -15.5582   26.6729 O   0  0  0  0  0  0  0  0  0  0  0  0
   14.1636  -17.5733   22.1204 O   0  0  0  0  0  0  0  0  0  0  0  0
   10.7935  -17.7040   26.8526 O   0  0  0  0  0  0  0  0  0  0  0  0
  1  2  1  0
  2  3  1  0
  3 12  1  0
  3  4  2  0
  6 16  2  0
  6  5  1  0
  7  6  1  0
  8  9  1  0
  8  7  2  0
  9 15  2  0
 10  9  1  0
 11 10  1  1
 11 13  1  0
 12 11  1  0
 13 14  2  0
 13 17  1  0
 15 16  1  0
 17 18  1  0
 18 23  1  0
 18 19  1  6
 20 21  1  0
 20 19  1  0
 21 25  1  0
 22 21  2  0
 23 26  1  0
 24 23  2  0
M  END
$$$$
