GYE.pdb
     RDKit          3D

 26 26  0  0  1  0  0  0  0  0999 V2000
   -2.6119  -24.7102   23.5142 N   0  0  0  0  0  0  0  0  0  0  0  0
   -3.9966  -24.5183   23.8927 C   0  0  0  0  0  0  0  0  0  0  0  0
   -4.1136  -24.0267   25.2939 C   0  0  0  0  0  0  0  0  0  0  0  0
   -3.2042  -24.2498   26.1448 O   0  0  0  0  0  0  0  0  0  0  0  0
  -11.1729  -20.8310   24.8357 O   0  0  0  0  0  0  0  0  0  0  0  0
   -9.9153  -20.9822   25.3931 C   0  0  0  0  0  0  0  0  0  0  0  0
   -8.7955  -20.9824   24.5690 C   0  0  0  0  0  0  0  0  0  0  0  0
   -7.5519  -21.1335   25.1358 C   0  0  0  0  0  0  0  0  0  0  0  0
   -7.3604  -21.2871   26.5027 C   0  0  0  0  0  0  0  0  0  0  0  0
   -6.0070  -21.4407   26.9832 C   0  0  0  0  0  0  0  0  0  0  0  0
   -5.4451  -22.8087   27.0537 C   0  0  2  0  0  0  0  0  0  0  0  0
   -5.2427  -23.3002   25.7045 N   0  0  0  0  0  0  0  0  0  0  0  0
   -6.3718  -23.7500   27.7312 C   0  0  0  0  0  0  0  0  0  0  0  0
   -7.2319  -24.4191   27.0999 O   0  0  0  0  0  0  0  0  0  0  0  0
   -8.4987  -21.2808   27.2809 C   0  0  0  0  0  0  0  0  0  0  0  0
   -9.7597  -21.1307   26.7377 C   0  0  0  0  0  0  0  0  0  0  0  0
   -6.3092  -23.9184   29.1133 N   0  0  0  0  0  0  0  0  0  0  0  0
   -7.1540  -24.8658   29.8482 C   0  0  1  0  0  0  0  0  0  0  0  0
   -6.2567  -25.5294   30.8183 C   0  0  0  0  0  0  0  0  0  0  0  0
   -6.8011  -26.5279   31.7548 C   0  0  0  0  0  0  0  0  0  0  0  0
   -5.8670  -27.0526   32.7691 C   0  0  0  0  0  0  0  0  0  0  0  0
   -4.6916  -26.6320   32.8612 O   0  0  0  0  0  0  0  0  0  0  0  0
   -8.4159  -24.3143   30.2678 C   0  0  0  0  0  0  0  0  0  0  0  0
   -8.5747  -23.0864   30.5848 O   0  0  0  0  0  0  0  0  0  0  0  0
   -6.3016  -28.0321   33.6383 O   0  0  0  0  0  0  0  0  0  0  0  0
   -9.6071  -25.0612   30.3655 O   0  0  0  0  0  0  0  0  0  0  0  0
  1  2  1  0
  2  3  1  0
  3 12  1  0
  3  4  2  0
  6 16  2  0
  6  5  1  0
  7  6  1  0
  8  9  1  0
  8  7  2  0
  9 15  2  0
 10  9  1  0
 11 10  1  6
 11 13  1  0
 12 11  1  0
 13 14  2  0
 13 17  1  0
 15 16  1  0
 17 18  1  0
 18 23  1  0
 18 19  1  1
 20 21  1  0
 20 19  1  0
 21 25  1  0
 22 21  2  0
 23 26  1  0
 24 23  2  0
M  END
$$$$
