GYE.pdb
     RDKit          3D

 26 26  0  0  1  0  0  0  0  0999 V2000
    9.2110  -16.1234   17.9004 N   0  0  0  0  0  0  0  0  0  0  0  0
    8.0769  -15.9889   18.7910 C   0  0  0  0  0  0  0  0  0  0  0  0
    8.4969  -15.5064   20.1362 C   0  0  0  0  0  0  0  0  0  0  0  0
    9.7140  -15.5061   20.4817 O   0  0  0  0  0  0  0  0  0  0  0  0
    7.0852  -12.1039   28.2971 O   0  0  0  0  0  0  0  0  0  0  0  0
    6.9694  -12.6080   27.0135 C   0  0  0  0  0  0  0  0  0  0  0  0
    7.3532  -11.8237   25.9315 C   0  0  0  0  0  0  0  0  0  0  0  0
    7.2330  -12.3369   24.6615 C   0  0  0  0  0  0  0  0  0  0  0  0
    6.7425  -13.6109   24.4069 C   0  0  0  0  0  0  0  0  0  0  0  0
    6.6590  -14.0412   23.0307 C   0  0  0  0  0  0  0  0  0  0  0  0
    7.8514  -14.6793   22.4280 C   0  0  2  0  0  0  0  0  0  0  0  0
    7.5457  -15.0383   21.0567 N   0  0  0  0  0  0  0  0  0  0  0  0
    8.2250  -15.9284   23.1378 C   0  0  0  0  0  0  0  0  0  0  0  0
    7.9836  -17.0699   22.6637 O   0  0  0  0  0  0  0  0  0  0  0  0
    6.3742  -14.3526   25.5095 C   0  0  0  0  0  0  0  0  0  0  0  0
    6.4847  -13.8618   26.7958 C   0  0  0  0  0  0  0  0  0  0  0  0
    8.8664  -15.8646   24.3735 N   0  0  0  0  0  0  0  0  0  0  0  0
    9.8680  -16.8420   24.8124 C   0  0  1  0  0  0  0  0  0  0  0  0
   10.8381  -16.9441   23.7011 C   0  0  0  0  0  0  0  0  0  0  0  0
   12.0263  -17.8036   23.8430 C   0  0  0  0  0  0  0  0  0  0  0  0
   12.8923  -17.9256   22.6549 C   0  0  0  0  0  0  0  0  0  0  0  0
   12.4165  -18.0556   21.5044 O   0  0  0  0  0  0  0  0  0  0  0  0
   10.3154  -16.6468   26.1669 C   0  0  0  0  0  0  0  0  0  0  0  0
   10.5526  -15.4957   26.6688 O   0  0  0  0  0  0  0  0  0  0  0  0
   14.2621  -17.8954   22.8174 O   0  0  0  0  0  0  0  0  0  0  0  0
   10.5303  -17.6960   27.0830 O   0  0  0  0  0  0  0  0  0  0  0  0
  1  2  1  0
  2  3  1  0
  3 12  1  0
  3  4  2  0
  6 16  2  0
  6  5  1  0
  7  6  1  0
  8  9  1  0
  8  7  2  0
  9 15  2  0
 10  9  1  0
 11 10  1  1
 11 13  1  0
 12 11  1  0
 13 14  2  0
 13 17  1  0
 15 16  1  0
 17 18  1  0
 18 23  1  0
 18 19  1  6
 20 21  1  0
 20 19  1  0
 21 25  1  0
 22 21  2  0
 23 26  1  0
 24 23  2  0
M  END
$$$$
