GYE.pdb
     RDKit          3D

 26 26  0  0  1  0  0  0  0  0999 V2000
    6.5335  -14.4536   19.8744 N   0  0  0  0  0  0  0  0  0  0  0  0
    6.2394  -15.0194   21.1748 C   0  0  0  0  0  0  0  0  0  0  0  0
    7.3503  -14.7759   22.1369 C   0  0  0  0  0  0  0  0  0  0  0  0
    8.4475  -14.2732   21.7573 O   0  0  0  0  0  0  0  0  0  0  0  0
   11.0264  -14.9081   30.3122 O   0  0  0  0  0  0  0  0  0  0  0  0
   10.1979  -14.8483   29.2053 C   0  0  0  0  0  0  0  0  0  0  0  0
    9.6268  -16.0162   28.7123 C   0  0  0  0  0  0  0  0  0  0  0  0
    8.8055  -15.9427   27.6120 C   0  0  0  0  0  0  0  0  0  0  0  0
    8.5176  -14.7479   26.9651 C   0  0  0  0  0  0  0  0  0  0  0  0
    7.6433  -14.7942   25.8165 C   0  0  0  0  0  0  0  0  0  0  0  0
    8.2585  -14.9642   24.4805 C   0  0  2  0  0  0  0  0  0  0  0  0
    7.2037  -15.1007   23.4949 N   0  0  0  0  0  0  0  0  0  0  0  0
    9.0895  -16.1923   24.4097 C   0  0  0  0  0  0  0  0  0  0  0  0
    8.5853  -17.3402   24.2908 O   0  0  0  0  0  0  0  0  0  0  0  0
    9.1056  -13.6157   27.4885 C   0  0  0  0  0  0  0  0  0  0  0  0
    9.9343  -13.6612   28.5925 C   0  0  0  0  0  0  0  0  0  0  0  0
   10.4787  -16.1004   24.4745 N   0  0  0  0  0  0  0  0  0  0  0  0
   11.3682  -17.2623   24.3738 C   0  0  1  0  0  0  0  0  0  0  0  0
   12.3885  -16.8963   23.3681 C   0  0  0  0  0  0  0  0  0  0  0  0
   13.4970  -17.8227   23.0790 C   0  0  0  0  0  0  0  0  0  0  0  0
   14.4314  -17.4139   22.0131 C   0  0  0  0  0  0  0  0  0  0  0  0
   14.0787  -16.6503   21.0860 O   0  0  0  0  0  0  0  0  0  0  0  0
   11.7518  -17.8122   25.6479 C   0  0  0  0  0  0  0  0  0  0  0  0
   11.6714  -19.0566   25.9281 O   0  0  0  0  0  0  0  0  0  0  0  0
   15.7276  -17.8862   22.0399 O   0  0  0  0  0  0  0  0  0  0  0  0
   12.2625  -17.0450   26.7140 O   0  0  0  0  0  0  0  0  0  0  0  0
  1  2  1  0
  2  3  1  0
  3 12  1  0
  3  4  2  0
  6 16  2  0
  6  5  1  0
  7  6  1  0
  8  9  1  0
  8  7  2  0
  9 15  2  0
 10  9  1  0
 11 10  1  1
 11 13  1  0
 12 11  1  0
 13 14  2  0
 13 17  1  0
 15 16  1  0
 17 18  1  0
 18 23  1  0
 18 19  1  1
 20 21  1  0
 20 19  1  0
 21 25  1  0
 22 21  2  0
 23 26  1  0
 24 23  2  0
M  END
$$$$
