GYE.pdb
     RDKit          3D

 26 26  0  0  1  0  0  0  0  0999 V2000
    9.6540  -16.8577   18.1951 N   0  0  0  0  0  0  0  0  0  0  0  0
    8.5495  -16.9174   19.1299 C   0  0  0  0  0  0  0  0  0  0  0  0
    8.8783  -16.2201   20.4045 C   0  0  0  0  0  0  0  0  0  0  0  0
   10.0771  -16.0781   20.7834 O   0  0  0  0  0  0  0  0  0  0  0  0
    6.7715  -11.8712   27.9660 O   0  0  0  0  0  0  0  0  0  0  0  0
    6.7970  -12.4814   26.7242 C   0  0  0  0  0  0  0  0  0  0  0  0
    6.3087  -13.7758   26.5861 C   0  0  0  0  0  0  0  0  0  0  0  0
    6.3399  -14.3704   25.3466 C   0  0  0  0  0  0  0  0  0  0  0  0
    6.8401  -13.7341   24.2181 C   0  0  0  0  0  0  0  0  0  0  0  0
    6.8242  -14.4597   22.9694 C   0  0  0  0  0  0  0  0  0  0  0  0
    8.0886  -15.0757   22.5068 C   0  0  2  0  0  0  0  0  0  0  0  0
    7.8591  -15.7016   21.2190 N   0  0  0  0  0  0  0  0  0  0  0  0
    8.5560  -16.1359   23.4350 C   0  0  0  0  0  0  0  0  0  0  0  0
    8.2876  -17.3533   23.2562 O   0  0  0  0  0  0  0  0  0  0  0  0
    7.3135  -12.4521   24.4021 C   0  0  0  0  0  0  0  0  0  0  0  0
    7.2938  -11.8313   25.6357 C   0  0  0  0  0  0  0  0  0  0  0  0
    9.3202  -15.8000   24.5510 N   0  0  0  0  0  0  0  0  0  0  0  0
   10.2367  -16.7358   25.2108 C   0  0  1  0  0  0  0  0  0  0  0  0
   11.4815  -16.7028   24.4133 C   0  0  0  0  0  0  0  0  0  0  0  0
   12.5742  -17.6414   24.7224 C   0  0  0  0  0  0  0  0  0  0  0  0
   13.7796  -17.5445   23.8774 C   0  0  0  0  0  0  0  0  0  0  0  0
   13.8649  -16.7133   22.9453 O   0  0  0  0  0  0  0  0  0  0  0  0
   10.2744  -16.5991   26.6436 C   0  0  0  0  0  0  0  0  0  0  0  0
    9.9388  -15.5285   27.2556 O   0  0  0  0  0  0  0  0  0  0  0  0
   14.8401  -18.3928   24.1219 O   0  0  0  0  0  0  0  0  0  0  0  0
   10.6742  -17.6266   27.5214 O   0  0  0  0  0  0  0  0  0  0  0  0
  1  2  1  0
  2  3  1  0
  3 12  1  0
  3  4  2  0
  6 16  2  0
  6  5  1  0
  7  6  1  0
  8  9  1  0
  8  7  2  0
  9 15  2  0
 10  9  1  0
 11 10  1  1
 11 13  1  0
 12 11  1  0
 13 14  2  0
 13 17  1  0
 15 16  1  0
 17 18  1  0
 18 23  1  0
 18 19  1  6
 20 21  1  0
 20 19  1  0
 21 25  1  0
 22 21  2  0
 23 26  1  0
 24 23  2  0
M  END
$$$$
