GYE.pdb
     RDKit          3D

 26 26  0  0  1  0  0  0  0  0999 V2000
    5.3369  -19.5601   20.6747 N   0  0  0  0  0  0  0  0  0  0  0  0
    5.0382  -18.6259   21.7402 C   0  0  0  0  0  0  0  0  0  0  0  0
    6.2788  -18.0016   22.2789 C   0  0  0  0  0  0  0  0  0  0  0  0
    7.4142  -18.5235   22.0809 O   0  0  0  0  0  0  0  0  0  0  0  0
    8.0204  -12.7265   18.1109 O   0  0  0  0  0  0  0  0  0  0  0  0
    7.8007  -13.2200   19.3849 C   0  0  0  0  0  0  0  0  0  0  0  0
    8.7424  -12.9894   20.3815 C   0  0  0  0  0  0  0  0  0  0  0  0
    8.5117  -13.4852   21.6431 C   0  0  0  0  0  0  0  0  0  0  0  0
    7.3740  -14.2110   21.9710 C   0  0  0  0  0  0  0  0  0  0  0  0
    7.2416  -14.6842   23.3291 C   0  0  0  0  0  0  0  0  0  0  0  0
    7.3745  -16.1382   23.5751 C   0  0  2  0  0  0  0  0  0  0  0  0
    6.2156  -16.8128   23.0231 N   0  0  0  0  0  0  0  0  0  0  0  0
    7.4159  -16.4493   25.0261 C   0  0  0  0  0  0  0  0  0  0  0  0
    6.3745  -16.5081   25.7318 O   0  0  0  0  0  0  0  0  0  0  0  0
    6.4680  -14.4153   20.9517 C   0  0  0  0  0  0  0  0  0  0  0  0
    6.6748  -13.9283   19.6759 C   0  0  0  0  0  0  0  0  0  0  0  0
    8.6365  -16.6890   25.6545 N   0  0  0  0  0  0  0  0  0  0  0  0
    8.7529  -17.3155   26.9756 C   0  0  1  0  0  0  0  0  0  0  0  0
    7.9674  -18.5656   26.8938 C   0  0  0  0  0  0  0  0  0  0  0  0
    8.5753  -19.7757   26.3137 C   0  0  0  0  0  0  0  0  0  0  0  0
    7.8295  -21.0355   26.4964 C   0  0  0  0  0  0  0  0  0  0  0  0
    6.7702  -21.0826   27.1616 O   0  0  0  0  0  0  0  0  0  0  0  0
   10.0936  -17.3194   27.5005 C   0  0  0  0  0  0  0  0  0  0  0  0
   11.1270  -17.0789   26.7880 O   0  0  0  0  0  0  0  0  0  0  0  0
    8.3133  -22.1912   25.9182 O   0  0  0  0  0  0  0  0  0  0  0  0
   10.4092  -17.5781   28.8494 O   0  0  0  0  0  0  0  0  0  0  0  0
  1  2  1  0
  2  3  1  0
  3 12  1  0
  3  4  2  0
  6 16  2  0
  6  5  1  0
  7  6  1  0
  8  9  1  0
  8  7  2  0
  9 15  2  0
 10  9  1  0
 11 10  1  1
 11 13  1  0
 12 11  1  0
 13 14  2  0
 13 17  1  0
 15 16  1  0
 17 18  1  0
 18 23  1  0
 18 19  1  6
 20 21  1  0
 20 19  1  0
 21 25  1  0
 22 21  2  0
 23 26  1  0
 24 23  2  0
M  END
$$$$
