GYE.pdb
     RDKit          3D

 26 26  0  0  1  0  0  0  0  0999 V2000
    5.2197  -19.6469   21.1926 N   0  0  0  0  0  0  0  0  0  0  0  0
    5.0332  -18.4268   21.9503 C   0  0  0  0  0  0  0  0  0  0  0  0
    6.3383  -17.8367   22.3596 C   0  0  0  0  0  0  0  0  0  0  0  0
    7.4027  -18.5202   22.3355 O   0  0  0  0  0  0  0  0  0  0  0  0
    8.5411  -12.6267   17.7577 O   0  0  0  0  0  0  0  0  0  0  0  0
    8.2632  -13.0531   19.0446 C   0  0  0  0  0  0  0  0  0  0  0  0
    9.2600  -13.6683   19.7935 C   0  0  0  0  0  0  0  0  0  0  0  0
    8.9705  -14.0871   21.0708 C   0  0  0  0  0  0  0  0  0  0  0  0
    7.7198  -13.9235   21.6521 C   0  0  0  0  0  0  0  0  0  0  0  0
    7.5321  -14.4064   23.0003 C   0  0  0  0  0  0  0  0  0  0  0  0
    7.6380  -15.8639   23.2381 C   0  0  2  0  0  0  0  0  0  0  0  0
    6.4169  -16.5008   22.7840 N   0  0  0  0  0  0  0  0  0  0  0  0
    7.7877  -16.1765   24.6816 C   0  0  0  0  0  0  0  0  0  0  0  0
    6.8194  -16.1253   25.4852 O   0  0  0  0  0  0  0  0  0  0  0  0
    6.7625  -13.3088   20.8729 C   0  0  0  0  0  0  0  0  0  0  0  0
    7.0266  -12.8784   19.5873 C   0  0  0  0  0  0  0  0  0  0  0  0
    9.0320  -16.5423   25.1917 N   0  0  0  0  0  0  0  0  0  0  0  0
    9.2059  -17.2256   26.4778 C   0  0  1  0  0  0  0  0  0  0  0  0
    8.3787  -18.4483   26.3938 C   0  0  0  0  0  0  0  0  0  0  0  0
    8.3720  -19.4060   27.5134 C   0  0  0  0  0  0  0  0  0  0  0  0
    7.5925  -20.6425   27.3131 C   0  0  0  0  0  0  0  0  0  0  0  0
    6.5491  -20.8754   27.9642 O   0  0  0  0  0  0  0  0  0  0  0  0
   10.5742  -17.2892   26.9213 C   0  0  0  0  0  0  0  0  0  0  0  0
   10.9122  -17.3148   28.1535 O   0  0  0  0  0  0  0  0  0  0  0  0
    8.0260  -21.5654   26.3834 O   0  0  0  0  0  0  0  0  0  0  0  0
   11.6815  -17.3390   26.0509 O   0  0  0  0  0  0  0  0  0  0  0  0
  1  2  1  0
  2  3  1  0
  3 12  1  0
  3  4  2  0
  6 16  2  0
  6  5  1  0
  7  6  1  0
  8  9  1  0
  8  7  2  0
  9 15  2  0
 10  9  1  0
 11 10  1  1
 11 13  1  0
 12 11  1  0
 13 14  2  0
 13 17  1  0
 15 16  1  0
 17 18  1  0
 18 23  1  0
 18 19  1  6
 20 21  1  0
 20 19  1  0
 21 25  1  0
 22 21  2  0
 23 26  1  0
 24 23  2  0
M  END
$$$$
