GYE.pdb
     RDKit          3D

 26 26  0  0  1  0  0  0  0  0999 V2000
    7.3241  -13.6176   19.5294 N   0  0  0  0  0  0  0  0  0  0  0  0
    6.9129  -14.3784   20.6911 C   0  0  0  0  0  0  0  0  0  0  0  0
    7.9552  -14.3513   21.7550 C   0  0  0  0  0  0  0  0  0  0  0  0
    9.1544  -14.0475   21.4898 O   0  0  0  0  0  0  0  0  0  0  0  0
   10.8524  -14.5727   30.2172 O   0  0  0  0  0  0  0  0  0  0  0  0
   10.1131  -14.6095   29.0479 C   0  0  0  0  0  0  0  0  0  0  0  0
    9.8403  -13.4258   28.3716 C   0  0  0  0  0  0  0  0  0  0  0  0
    9.1047  -13.4766   27.2110 C   0  0  0  0  0  0  0  0  0  0  0  0
    8.6177  -14.6633   26.6789 C   0  0  0  0  0  0  0  0  0  0  0  0
    7.8543  -14.5928   25.4548 C   0  0  0  0  0  0  0  0  0  0  0  0
    8.5870  -14.6876   24.1717 C   0  0  2  0  0  0  0  0  0  0  0  0
    7.6283  -14.6642   23.0840 N   0  0  0  0  0  0  0  0  0  0  0  0
    9.3452  -15.9593   24.0637 C   0  0  0  0  0  0  0  0  0  0  0  0
    8.7973  -17.0433   23.7308 O   0  0  0  0  0  0  0  0  0  0  0  0
    8.9124  -15.8118   27.3828 C   0  0  0  0  0  0  0  0  0  0  0  0
    9.6493  -15.7893   28.5508 C   0  0  0  0  0  0  0  0  0  0  0  0
   10.7122  -15.9827   24.3343 N   0  0  0  0  0  0  0  0  0  0  0  0
   11.5279  -17.1991   24.2562 C   0  0  1  0  0  0  0  0  0  0  0  0
   12.6972  -16.8414   23.4247 C   0  0  0  0  0  0  0  0  0  0  0  0
   12.9680  -17.5865   22.1829 C   0  0  0  0  0  0  0  0  0  0  0  0
   14.2090  -17.2363   21.4662 C   0  0  0  0  0  0  0  0  0  0  0  0
   14.4935  -17.7421   20.3570 O   0  0  0  0  0  0  0  0  0  0  0  0
   11.6978  -17.8667   25.5204 C   0  0  0  0  0  0  0  0  0  0  0  0
   11.9036  -19.1234   25.6286 O   0  0  0  0  0  0  0  0  0  0  0  0
   15.0780  -16.3274   22.0342 O   0  0  0  0  0  0  0  0  0  0  0  0
   11.6649  -17.2102   26.7670 O   0  0  0  0  0  0  0  0  0  0  0  0
  1  2  1  0
  2  3  1  0
  3 12  1  0
  3  4  2  0
  6 16  2  0
  6  5  1  0
  7  6  1  0
  8  9  1  0
  8  7  2  0
  9 15  2  0
 10  9  1  0
 11 10  1  1
 11 13  1  0
 12 11  1  0
 13 14  2  0
 13 17  1  0
 15 16  1  0
 17 18  1  0
 18 23  1  0
 18 19  1  1
 20 21  1  0
 20 19  1  0
 21 25  1  0
 22 21  2  0
 23 26  1  0
 24 23  2  0
M  END
$$$$
