RVK.pdb
     RDKit          3D

 28 27  0  0  1  0  0  0  0  0999 V2000
    9.4535  -14.3452   16.3674 N   0  0  0  0  0  0  0  0  0  0  0  0
    8.1701  -13.7237   16.2013 C   0  0  0  0  0  0  0  0  0  0  0  0
    7.7187  -13.6057   15.0037 N   0  0  0  0  0  0  0  0  0  0  0  0
    7.4714  -13.2762   17.3455 N   0  0  0  0  0  0  0  0  0  0  0  0
    8.0988  -13.2884   18.6340 C   0  0  0  0  0  0  0  0  0  0  0  0
    8.2025  -14.6610   19.2293 C   0  0  0  0  0  0  0  0  0  0  0  0
    8.7823  -14.7408   20.5917 C   0  0  0  0  0  0  0  0  0  0  0  0
    7.8895  -15.3157   21.6588 C   0  0  2  0  0  0  0  0  0  0  0  0
    6.5141  -14.9883   21.4813 N   0  0  0  0  0  0  0  0  0  0  0  0
    8.4185  -14.7973   22.9667 C   0  0  0  0  0  0  0  0  0  0  0  0
    9.6616  -14.8012   23.1835 O   0  0  0  0  0  0  0  0  0  0  0  0
    6.7879  -13.1834   14.8069 C   0  0  0  0  0  0  0  0  0  0  0  0
    7.6127  -12.0340   26.9952 C   0  0  2  0  0  0  0  0  0  0  0  0
    7.1394  -12.9003   25.8810 C   0  0  0  0  0  0  0  0  0  0  0  0
    5.8484  -13.6317   26.2119 C   0  0  2  0  0  0  0  0  0  0  0  0
    8.1662  -13.7995   25.2743 N   0  0  0  0  0  0  0  0  0  0  0  0
    7.5987  -14.2911   24.0016 C   0  0  0  0  0  0  0  0  0  0  0  0
    8.6692  -14.8962   26.0846 O   0  0  0  0  0  0  0  0  0  0  0  0
    7.8302  -15.8154   26.4040 N   0  0  0  0  0  0  0  0  0  0  0  0
    9.9670  -15.1037   26.5797 C   0  0  1  0  0  0  0  0  0  0  0  0
   10.3072  -16.1603   27.5154 C   0  0  0  0  0  0  0  0  0  0  0  0
   11.2411  -17.1670   26.8929 C   0  0  0  0  0  0  0  0  0  0  0  0
   11.6189  -18.2960   27.8249 C   0  0  0  0  0  0  0  0  0  0  0  0
   12.6545  -19.1601   27.0864 C   0  0  0  0  0  0  0  0  0  0  0  0
   12.9532  -20.3287   27.9957 N   0  0  0  0  0  0  0  0  0  0  0  0
   13.8770  -21.2671   27.3897 C   0  0  0  0  0  0  0  0  0  0  0  0
   10.7731  -15.6108   28.7961 O   0  0  0  0  0  0  0  0  0  0  0  0
   11.0736  -16.2416   29.8123 O   0  0  0  0  0  0  0  0  0  0  0  0
  2  1  1  0
  2  3  2  0
  4  2  1  0
  5  4  1  0
  6  5  1  0
  7  8  1  0
  7  6  1  0
  8  9  1  6
 10  8  1  0
 11 10  2  0
 13 12  1  6
 13 14  1  0
 15 16  1  1
 15 13  1  0
 16 10  1  0
 17 15  1  0
 18 17  2  0
 19 17  1  0
 20 26  1  0
 20 19  1  0
 21 22  1  0
 20 21  1  1
 23 24  1  0
 23 22  1  0
 25 24  1  0
 26 28  1  0
 27 26  2  0
M  END
$$$$
