RVK.pdb
     RDKit          3D

 28 27  0  0  1  0  0  0  0  0999 V2000
    8.8593  -13.3024   17.5929 N   0  0  0  0  0  0  0  0  0  0  0  0
    7.9184  -14.1582   16.9271 C   0  0  0  0  0  0  0  0  0  0  0  0
    7.2970  -13.6783   15.9095 N   0  0  0  0  0  0  0  0  0  0  0  0
    7.7207  -15.4703   17.4138 N   0  0  0  0  0  0  0  0  0  0  0  0
    7.7321  -15.7349   18.8223 C   0  0  0  0  0  0  0  0  0  0  0  0
    7.7186  -14.4903   19.6589 C   0  0  0  0  0  0  0  0  0  0  0  0
    8.7238  -14.4228   20.7470 C   0  0  0  0  0  0  0  0  0  0  0  0
    8.6619  -15.5209   21.7749 C   0  0  2  0  0  0  0  0  0  0  0  0
    7.4103  -16.2015   21.7997 N   0  0  0  0  0  0  0  0  0  0  0  0
    8.9658  -14.8709   23.0957 C   0  0  0  0  0  0  0  0  0  0  0  0
   10.0606  -14.2643   23.2564 O   0  0  0  0  0  0  0  0  0  0  0  0
    6.6269  -14.2505   15.3553 C   0  0  0  0  0  0  0  0  0  0  0  0
    6.9032  -12.3984   25.1302 C   0  0  1  0  0  0  0  0  0  0  0  0
    7.3159  -13.5323   26.0019 C   0  0  0  0  0  0  0  0  0  0  0  0
    7.4557  -13.1317   27.4616 C   0  0  2  0  0  0  0  0  0  0  0  0
    8.4765  -14.3375   25.5165 N   0  0  0  0  0  0  0  0  0  0  0  0
    8.0870  -14.8917   24.2033 C   0  0  0  0  0  0  0  0  0  0  0  0
    8.9942  -15.3751   26.3928 O   0  0  0  0  0  0  0  0  0  0  0  0
    8.1725  -16.2944   26.7540 N   0  0  0  0  0  0  0  0  0  0  0  0
   10.2902  -15.5240   26.9133 C   0  0  1  0  0  0  0  0  0  0  0  0
   10.6861  -16.6258   27.7718 C   0  0  0  0  0  0  0  0  0  0  0  0
   12.1863  -16.7235   27.8851 C   0  0  0  0  0  0  0  0  0  0  0  0
   12.6538  -17.9116   28.6948 C   0  0  0  0  0  0  0  0  0  0  0  0
   14.1909  -17.8687   28.7084 C   0  0  0  0  0  0  0  0  0  0  0  0
   14.6379  -19.0514   29.5349 N   0  0  0  0  0  0  0  0  0  0  0  0
   14.7535  -20.2580   28.7399 C   0  0  0  0  0  0  0  0  0  0  0  0
    9.9816  -16.5794   29.0605 O   0  0  0  0  0  0  0  0  0  0  0  0
    9.6030  -15.5745   29.6668 O   0  0  0  0  0  0  0  0  0  0  0  0
  2  1  1  0
  2  3  2  0
  4  2  1  0
  5  4  1  0
  6  5  1  0
  7  8  1  0
  7  6  1  0
  8  9  1  1
 10  8  1  0
 11 10  2  0
 13 12  1  1
 13 14  1  0
 15 16  1  6
 15 13  1  0
 16 10  1  0
 17 15  1  0
 18 17  2  0
 19 17  1  0
 20 26  1  0
 20 19  1  0
 21 22  1  0
 20 21  1  1
 23 24  1  0
 23 22  1  0
 25 24  1  0
 26 28  1  0
 27 26  2  0
M  END
$$$$
