RVK.pdb
     RDKit          3D

 28 27  0  0  1  0  0  0  0  0999 V2000
    8.3808  -13.0000   18.0113 N   0  0  0  0  0  0  0  0  0  0  0  0
    8.5953  -12.7800   19.4137 C   0  0  0  0  0  0  0  0  0  0  0  0
    9.4652  -11.8953   19.7490 N   0  0  0  0  0  0  0  0  0  0  0  0
    7.8514  -13.5355   20.3483 N   0  0  0  0  0  0  0  0  0  0  0  0
    6.6655  -14.2313   19.9443 C   0  0  0  0  0  0  0  0  0  0  0  0
    6.9323  -15.3419   18.9724 C   0  0  0  0  0  0  0  0  0  0  0  0
    7.8179  -16.4309   19.4507 C   0  0  0  0  0  0  0  0  0  0  0  0
    7.1418  -17.7305   19.7970 C   0  0  2  0  0  0  0  0  0  0  0  0
    5.9527  -17.9657   19.0480 N   0  0  0  0  0  0  0  0  0  0  0  0
    6.8650  -17.6742   21.2733 C   0  0  0  0  0  0  0  0  0  0  0  0
    5.9608  -16.9104   21.7108 O   0  0  0  0  0  0  0  0  0  0  0  0
    9.6907  -11.6971   20.7457 C   0  0  0  0  0  0  0  0  0  0  0  0
    7.9839  -20.7636   24.0801 C   0  0  1  0  0  0  0  0  0  0  0  0
    6.8625  -19.7847   24.0701 C   0  0  0  0  0  0  0  0  0  0  0  0
    5.6351  -20.3035   23.3385 C   0  0  1  0  0  0  0  0  0  0  0  0
    7.2192  -18.3904   23.6704 N   0  0  0  0  0  0  0  0  0  0  0  0
    7.5662  -18.4378   22.2348 C   0  0  0  0  0  0  0  0  0  0  0  0
    8.2477  -17.7083   24.4381 O   0  0  0  0  0  0  0  0  0  0  0  0
    9.4146  -17.6302   23.9059 N   0  0  0  0  0  0  0  0  0  0  0  0
    8.1506  -17.1077   25.7039 C   0  0  1  0  0  0  0  0  0  0  0  0
    9.2810  -16.5193   26.3994 C   0  0  0  0  0  0  0  0  0  0  0  0
    8.8338  -15.7108   27.5908 C   0  0  0  0  0  0  0  0  0  0  0  0
    9.9782  -15.1965   28.4345 C   0  0  0  0  0  0  0  0  0  0  0  0
    9.3637  -14.3167   29.5358 C   0  0  0  0  0  0  0  0  0  0  0  0
   10.5192  -13.8246   30.3753 N   0  0  0  0  0  0  0  0  0  0  0  0
   10.0795  -12.9592   31.4519 C   0  0  0  0  0  0  0  0  0  0  0  0
   10.3073  -17.5270   26.7001 O   0  0  0  0  0  0  0  0  0  0  0  0
   10.1277  -18.6650   27.1399 O   0  0  0  0  0  0  0  0  0  0  0  0
  2  1  1  0
  2  3  2  0
  4  2  1  0
  5  4  1  0
  6  5  1  0
  7  8  1  0
  7  6  1  0
  8  9  1  6
 10  8  1  0
 11 10  2  0
 13 12  1  1
 13 14  1  0
 15 16  1  6
 15 13  1  0
 16 10  1  0
 17 15  1  0
 18 17  2  0
 19 17  1  0
 20 26  1  0
 20 19  1  0
 21 22  1  0
 20 21  1  1
 23 24  1  0
 23 22  1  0
 25 24  1  0
 26 28  1  0
 27 26  2  0
M  END
$$$$
