RVK.pdb
     RDKit          3D

 28 27  0  0  1  0  0  0  0  0999 V2000
    8.3547  -12.5824   18.1139 N   0  0  0  0  0  0  0  0  0  0  0  0
    8.0600  -13.7300   17.3033 C   0  0  0  0  0  0  0  0  0  0  0  0
    8.3108  -13.6479   16.0454 N   0  0  0  0  0  0  0  0  0  0  0  0
    7.5152  -14.8812   17.9161 N   0  0  0  0  0  0  0  0  0  0  0  0
    7.4866  -15.0027   19.3438 C   0  0  0  0  0  0  0  0  0  0  0  0
    8.8193  -15.3538   19.9353 C   0  0  0  0  0  0  0  0  0  0  0  0
    8.7976  -16.2812   21.0920 C   0  0  0  0  0  0  0  0  0  0  0  0
    7.6384  -16.1300   22.0405 C   0  0  2  0  0  0  0  0  0  0  0  0
    6.4984  -15.5159   21.4458 N   0  0  0  0  0  0  0  0  0  0  0  0
    8.1552  -15.3305   23.2037 C   0  0  0  0  0  0  0  0  0  0  0  0
    9.3991  -15.1857   23.3590 O   0  0  0  0  0  0  0  0  0  0  0  0
    8.1509  -14.4489   15.4001 C   0  0  0  0  0  0  0  0  0  0  0  0
    6.2738  -12.1554   24.9153 C   0  0  1  0  0  0  0  0  0  0  0  0
    6.8113  -13.1467   25.8871 C   0  0  0  0  0  0  0  0  0  0  0  0
    7.1812  -12.5209   27.2222 C   0  0  2  0  0  0  0  0  0  0  0  0
    7.8764  -14.0560   25.3675 N   0  0  0  0  0  0  0  0  0  0  0  0
    7.3227  -14.7116   24.1646 C   0  0  0  0  0  0  0  0  0  0  0  0
    8.4410  -15.0311   26.2855 O   0  0  0  0  0  0  0  0  0  0  0  0
    7.7048  -16.0403   26.5865 N   0  0  0  0  0  0  0  0  0  0  0  0
    9.7016  -15.0326   26.9046 C   0  0  1  0  0  0  0  0  0  0  0  0
   10.1506  -16.0807   27.8033 C   0  0  0  0  0  0  0  0  0  0  0  0
   11.1481  -16.9908   27.1325 C   0  0  0  0  0  0  0  0  0  0  0  0
   11.6286  -18.1169   28.0195 C   0  0  0  0  0  0  0  0  0  0  0  0
   12.7049  -18.8813   27.2309 C   0  0  0  0  0  0  0  0  0  0  0  0
   13.1410  -20.0262   28.1146 N   0  0  0  0  0  0  0  0  0  0  0  0
   14.0368  -20.9342   27.4258 C   0  0  0  0  0  0  0  0  0  0  0  0
   10.6016  -15.5270   29.0875 O   0  0  0  0  0  0  0  0  0  0  0  0
   10.7940  -14.3399   29.3605 O   0  0  0  0  0  0  0  0  0  0  0  0
  2  1  1  0
  2  3  2  0
  4  2  1  0
  5  4  1  0
  6  5  1  0
  7  8  1  0
  7  6  1  0
  8  9  1  6
 10  8  1  0
 11 10  2  0
 13 12  1  1
 13 14  1  0
 15 16  1  6
 15 13  1  0
 16 10  1  0
 17 15  1  0
 18 17  2  0
 19 17  1  0
 20 26  1  0
 20 19  1  0
 21 22  1  0
 20 21  1  1
 23 24  1  0
 23 22  1  0
 25 24  1  0
 26 28  1  0
 27 26  2  0
M  END
$$$$
