RVK.pdb
     RDKit          3D

 28 27  0  0  1  0  0  0  0  0999 V2000
    8.6253  -12.6658   18.3766 N   0  0  0  0  0  0  0  0  0  0  0  0
    8.2037  -13.6612   17.4320 C   0  0  0  0  0  0  0  0  0  0  0  0
    8.8491  -13.7377   16.3231 N   0  0  0  0  0  0  0  0  0  0  0  0
    7.1139  -14.4995   17.7592 N   0  0  0  0  0  0  0  0  0  0  0  0
    6.9117  -14.9392   19.1082 C   0  0  0  0  0  0  0  0  0  0  0  0
    7.9993  -15.8442   19.6055 C   0  0  0  0  0  0  0  0  0  0  0  0
    8.6489  -15.4479   20.8782 C   0  0  0  0  0  0  0  0  0  0  0  0
    8.0905  -16.0720   22.1292 C   0  0  2  0  0  0  0  0  0  0  0  0
    6.6719  -16.2039   22.1099 N   0  0  0  0  0  0  0  0  0  0  0  0
    8.5513  -15.2049   23.2672 C   0  0  0  0  0  0  0  0  0  0  0  0
    9.7746  -14.9151   23.3764 O   0  0  0  0  0  0  0  0  0  0  0  0
    8.5472  -14.3716   15.5547 C   0  0  0  0  0  0  0  0  0  0  0  0
    5.9655  -13.5433   26.5361 C   0  0  1  0  0  0  0  0  0  0  0  0
    7.1513  -12.9775   25.8363 C   0  0  0  0  0  0  0  0  0  0  0  0
    6.7727  -12.0399   24.7012 C   0  0  1  0  0  0  0  0  0  0  0  0
    8.2030  -13.9609   25.4387 N   0  0  0  0  0  0  0  0  0  0  0  0
    7.6866  -14.6757   24.2529 C   0  0  0  0  0  0  0  0  0  0  0  0
    8.6761  -14.8918   26.4496 O   0  0  0  0  0  0  0  0  0  0  0  0
    7.8470  -15.7893   26.8469 N   0  0  0  0  0  0  0  0  0  0  0  0
    9.9351  -14.9562   27.0687 C   0  0  1  0  0  0  0  0  0  0  0  0
   10.2619  -15.9010   28.1214 C   0  0  0  0  0  0  0  0  0  0  0  0
   11.4378  -16.7643   27.7404 C   0  0  0  0  0  0  0  0  0  0  0  0
   11.3863  -17.2574   26.3121 C   0  0  0  0  0  0  0  0  0  0  0  0
   12.6621  -18.0828   26.0761 C   0  0  0  0  0  0  0  0  0  0  0  0
   12.6089  -18.5378   24.6366 N   0  0  0  0  0  0  0  0  0  0  0  0
   13.7744  -19.3175   24.2693 C   0  0  0  0  0  0  0  0  0  0  0  0
   10.3984  -15.2280   29.4205 O   0  0  0  0  0  0  0  0  0  0  0  0
   10.3722  -14.0142   29.6371 O   0  0  0  0  0  0  0  0  0  0  0  0
  2  1  1  0
  2  3  2  0
  4  2  1  0
  5  4  1  0
  6  5  1  0
  7  8  1  0
  7  6  1  0
  8  9  1  6
 10  8  1  0
 11 10  2  0
 13 12  1  1
 13 14  1  0
 15 16  1  6
 15 13  1  0
 16 10  1  0
 17 15  1  0
 18 17  2  0
 19 17  1  0
 20 26  1  0
 20 19  1  0
 21 22  1  0
 20 21  1  1
 23 24  1  0
 23 22  1  0
 25 24  1  0
 26 28  1  0
 27 26  2  0
M  END
$$$$
