RVK.pdb
     RDKit          3D

 28 27  0  0  1  0  0  0  0  0999 V2000
    7.2836  -21.4449   15.6810 N   0  0  0  0  0  0  0  0  0  0  0  0
    7.6039  -21.4166   14.2819 C   0  0  0  0  0  0  0  0  0  0  0  0
    6.8302  -22.0610   13.4831 N   0  0  0  0  0  0  0  0  0  0  0  0
    8.7390  -20.6922   13.8525 N   0  0  0  0  0  0  0  0  0  0  0  0
    9.2659  -19.6234   14.6487 C   0  0  0  0  0  0  0  0  0  0  0  0
    8.4511  -19.3416   15.8759 C   0  0  0  0  0  0  0  0  0  0  0  0
    8.9890  -18.3102   16.7954 C   0  0  0  0  0  0  0  0  0  0  0  0
    8.7003  -16.8793   16.4273 C   0  0  2  0  0  0  0  0  0  0  0  0
    9.3049  -16.4787   15.2008 N   0  0  0  0  0  0  0  0  0  0  0  0
    9.1847  -16.0477   17.5818 C   0  0  0  0  0  0  0  0  0  0  0  0
   10.4221  -15.8554   17.7376 O   0  0  0  0  0  0  0  0  0  0  0  0
    7.0433  -22.1545   12.4686 C   0  0  0  0  0  0  0  0  0  0  0  0
    8.1401  -12.6280   21.0114 C   0  0  1  0  0  0  0  0  0  0  0  0
    7.7628  -13.6881   20.0369 C   0  0  0  0  0  0  0  0  0  0  0  0
    6.4778  -14.4061   20.4166 C   0  0  2  0  0  0  0  0  0  0  0  0
    8.8524  -14.6333   19.6490 N   0  0  0  0  0  0  0  0  0  0  0  0
    8.3279  -15.4483   18.5337 C   0  0  0  0  0  0  0  0  0  0  0  0
    9.4237  -15.4715   20.6900 O   0  0  0  0  0  0  0  0  0  0  0  0
    8.8047  -16.5642   20.9614 N   0  0  0  0  0  0  0  0  0  0  0  0
   10.5795  -15.2579   21.4587 C   0  0  1  0  0  0  0  0  0  0  0  0
   11.0402  -16.1772   22.4836 C   0  0  0  0  0  0  0  0  0  0  0  0
   12.4585  -15.8753   22.8964 C   0  0  0  0  0  0  0  0  0  0  0  0
   13.0425  -16.9002   23.8421 C   0  0  0  0  0  0  0  0  0  0  0  0
   14.4403  -17.2570   23.3097 C   0  0  0  0  0  0  0  0  0  0  0  0
   15.0120  -18.2701   24.2733 N   0  0  0  0  0  0  0  0  0  0  0  0
   16.3216  -18.7345   23.8605 C   0  0  0  0  0  0  0  0  0  0  0  0
   10.0868  -16.2560   23.5990 O   0  0  0  0  0  0  0  0  0  0  0  0
    9.3349  -15.3648   24.0007 O   0  0  0  0  0  0  0  0  0  0  0  0
  2  1  1  0
  2  3  2  0
  4  2  1  0
  5  4  1  0
  6  5  1  0
  7  8  1  0
  7  6  1  0
  8  9  1  6
 10  8  1  0
 11 10  2  0
 13 12  1  6
 13 14  1  0
 15 16  1  1
 15 13  1  0
 16 10  1  0
 17 15  1  0
 18 17  2  0
 19 17  1  0
 20 26  1  0
 20 19  1  0
 21 22  1  0
 20 21  1  1
 23 24  1  0
 23 22  1  0
 25 24  1  0
 26 28  1  0
 27 26  2  0
M  END
$$$$
