RVK.pdb
     RDKit          3D

 28 27  0  0  1  0  0  0  0  0999 V2000
    8.3592  -13.1079   17.9224 N   0  0  0  0  0  0  0  0  0  0  0  0
    7.8564  -14.2030   17.1420 C   0  0  0  0  0  0  0  0  0  0  0  0
    7.9453  -14.1101   15.8632 N   0  0  0  0  0  0  0  0  0  0  0  0
    7.2943  -15.3171   17.8057 N   0  0  0  0  0  0  0  0  0  0  0  0
    7.3253  -15.4058   19.2357 C   0  0  0  0  0  0  0  0  0  0  0  0
    8.6273  -14.9562   19.8290 C   0  0  0  0  0  0  0  0  0  0  0  0
    9.1183  -15.7327   20.9929 C   0  0  0  0  0  0  0  0  0  0  0  0
    8.1218  -15.9762   22.0947 C   0  0  2  0  0  0  0  0  0  0  0  0
    6.8050  -15.5375   21.7724 N   0  0  0  0  0  0  0  0  0  0  0  0
    8.6609  -15.2684   23.3062 C   0  0  0  0  0  0  0  0  0  0  0  0
    9.9027  -15.2717   23.5307 O   0  0  0  0  0  0  0  0  0  0  0  0
    7.5636  -14.8441   15.2315 C   0  0  0  0  0  0  0  0  0  0  0  0
    6.1597  -13.3961   26.4223 C   0  0  1  0  0  0  0  0  0  0  0  0
    7.4498  -12.8942   25.8750 C   0  0  0  0  0  0  0  0  0  0  0  0
    7.2621  -11.8065   24.8297 C   0  0  1  0  0  0  0  0  0  0  0  0
    8.4244  -13.9402   25.4426 N   0  0  0  0  0  0  0  0  0  0  0  0
    7.8523  -14.5795   24.2395 C   0  0  0  0  0  0  0  0  0  0  0  0
    8.8311  -14.9331   26.4231 O   0  0  0  0  0  0  0  0  0  0  0  0
    7.9391  -15.7777   26.7995 N   0  0  0  0  0  0  0  0  0  0  0  0
   10.0844  -15.1091   27.0319 C   0  0  1  0  0  0  0  0  0  0  0  0
   10.3636  -16.1531   28.0014 C   0  0  0  0  0  0  0  0  0  0  0  0
   11.4142  -17.1082   27.4944 C   0  0  0  0  0  0  0  0  0  0  0  0
   11.0701  -18.5620   27.7267 C   0  0  0  0  0  0  0  0  0  0  0  0
   12.2292  -19.3946   27.1541 C   0  0  0  0  0  0  0  0  0  0  0  0
   11.8775  -20.8405   27.4138 N   0  0  0  0  0  0  0  0  0  0  0  0
   12.7979  -21.7500   26.7603 C   0  0  0  0  0  0  0  0  0  0  0  0
   10.6458  -15.5888   29.3285 O   0  0  0  0  0  0  0  0  0  0  0  0
   10.7903  -14.3984   29.6165 O   0  0  0  0  0  0  0  0  0  0  0  0
  2  1  1  0
  2  3  2  0
  4  2  1  0
  5  4  1  0
  6  5  1  0
  7  8  1  0
  7  6  1  0
  8  9  1  6
 10  8  1  0
 11 10  2  0
 13 12  1  1
 13 14  1  0
 15 16  1  6
 15 13  1  0
 16 10  1  0
 17 15  1  0
 18 17  2  0
 19 17  1  0
 20 26  1  0
 20 19  1  0
 21 22  1  0
 20 21  1  1
 23 24  1  0
 23 22  1  0
 25 24  1  0
 26 28  1  0
 27 26  2  0
M  END
$$$$
