RVK.pdb
     RDKit          3D

 28 27  0  0  1  0  0  0  0  0999 V2000
    8.4174  -12.7010   16.9849 N   0  0  0  0  0  0  0  0  0  0  0  0
    8.1251  -14.0439   16.5703 C   0  0  0  0  0  0  0  0  0  0  0  0
    8.7224  -14.4839   15.5207 N   0  0  0  0  0  0  0  0  0  0  0  0
    7.2072  -14.8102   17.3239 N   0  0  0  0  0  0  0  0  0  0  0  0
    7.1451  -14.6784   18.7496 C   0  0  0  0  0  0  0  0  0  0  0  0
    8.4009  -14.1179   19.3479 C   0  0  0  0  0  0  0  0  0  0  0  0
    8.9120  -14.8050   20.5585 C   0  0  0  0  0  0  0  0  0  0  0  0
    7.8826  -15.1821   21.5902 C   0  0  2  0  0  0  0  0  0  0  0  0
    6.5842  -14.6682   21.3068 N   0  0  0  0  0  0  0  0  0  0  0  0
    8.4058  -14.6728   22.9041 C   0  0  0  0  0  0  0  0  0  0  0  0
    9.6449  -14.7091   23.1396 O   0  0  0  0  0  0  0  0  0  0  0  0
    8.5425  -15.4382   15.1459 C   0  0  0  0  0  0  0  0  0  0  0  0
    7.6345  -12.0843   27.0739 C   0  0  2  0  0  0  0  0  0  0  0  0
    7.1965  -12.7338   25.8081 C   0  0  0  0  0  0  0  0  0  0  0  0
    5.7621  -13.2335   25.8689 C   0  0  2  0  0  0  0  0  0  0  0  0
    8.1322  -13.7502   25.2404 N   0  0  0  0  0  0  0  0  0  0  0  0
    7.5844  -14.1410   23.9249 C   0  0  0  0  0  0  0  0  0  0  0  0
    8.4368  -14.9174   26.0513 O   0  0  0  0  0  0  0  0  0  0  0  0
    7.4609  -15.7082   26.3215 N   0  0  0  0  0  0  0  0  0  0  0  0
    9.6691  -15.3169   26.5937 C   0  0  1  0  0  0  0  0  0  0  0  0
    9.8331  -16.4959   27.4248 C   0  0  0  0  0  0  0  0  0  0  0  0
   10.9199  -17.3962   26.8945 C   0  0  0  0  0  0  0  0  0  0  0  0
   10.7344  -17.7747   25.4425 C   0  0  0  0  0  0  0  0  0  0  0  0
   11.9048  -18.6985   25.0665 C   0  0  0  0  0  0  0  0  0  0  0  0
   11.7201  -19.0391   23.6064 N   0  0  0  0  0  0  0  0  0  0  0  0
   12.7954  -19.8698   23.1015 C   0  0  0  0  0  0  0  0  0  0  0  0
    9.9812  -16.1350   28.8416 O   0  0  0  0  0  0  0  0  0  0  0  0
   10.0692  -15.0001   29.3160 O   0  0  0  0  0  0  0  0  0  0  0  0
  2  1  1  0
  2  3  2  0
  4  2  1  0
  5  4  1  0
  6  5  1  0
  7  8  1  0
  7  6  1  0
  8  9  1  6
 10  8  1  0
 11 10  2  0
 13 12  1  6
 13 14  1  0
 15 16  1  1
 15 13  1  0
 16 10  1  0
 17 15  1  0
 18 17  2  0
 19 17  1  0
 20 26  1  0
 20 19  1  0
 21 22  1  0
 20 21  1  1
 23 24  1  0
 23 22  1  0
 25 24  1  0
 26 28  1  0
 27 26  2  0
M  END
$$$$
