RVK.pdb
     RDKit          3D

 28 27  0  0  1  0  0  0  0  0999 V2000
    9.3500  -16.9484   17.6937 N   0  0  0  0  0  0  0  0  0  0  0  0
    9.2206  -18.3362   18.0377 C   0  0  0  0  0  0  0  0  0  0  0  0
    8.8932  -19.1517   17.0998 N   0  0  0  0  0  0  0  0  0  0  0  0
    9.4554  -18.7369   19.3726 N   0  0  0  0  0  0  0  0  0  0  0  0
    9.2270  -17.8286   20.4573 C   0  0  0  0  0  0  0  0  0  0  0  0
    7.8105  -17.3421   20.5344 C   0  0  0  0  0  0  0  0  0  0  0  0
    7.4469  -16.5775   21.7517 C   0  0  0  0  0  0  0  0  0  0  0  0
    7.2525  -15.0958   21.5697 C   0  0  2  0  0  0  0  0  0  0  0  0
    7.7557  -14.6083   20.3290 N   0  0  0  0  0  0  0  0  0  0  0  0
    7.9325  -14.4410   22.7394 C   0  0  0  0  0  0  0  0  0  0  0  0
    9.1305  -14.0594   22.6322 O   0  0  0  0  0  0  0  0  0  0  0  0
    8.7812  -20.1719   17.2735 C   0  0  0  0  0  0  0  0  0  0  0  0
    7.4739  -11.9005   26.9500 C   0  0  1  0  0  0  0  0  0  0  0  0
    6.9716  -12.7470   25.8333 C   0  0  0  0  0  0  0  0  0  0  0  0
    5.7717  -13.5923   26.2294 C   0  0  2  0  0  0  0  0  0  0  0  0
    8.0060  -13.5330   25.0961 N   0  0  0  0  0  0  0  0  0  0  0  0
    7.3074  -14.2161   23.9876 C   0  0  0  0  0  0  0  0  0  0  0  0
    8.8192  -14.4649   25.8594 O   0  0  0  0  0  0  0  0  0  0  0  0
    8.3208  -15.6293   26.0756 N   0  0  0  0  0  0  0  0  0  0  0  0
   10.0988  -14.2754   26.4064 C   0  0  2  0  0  0  0  0  0  0  0  0
   10.8467  -15.3248   27.0752 C   0  0  0  0  0  0  0  0  0  0  0  0
   10.3764  -15.5165   28.4947 C   0  0  0  0  0  0  0  0  0  0  0  0
   10.9114  -16.7734   29.1427 C   0  0  0  0  0  0  0  0  0  0  0  0
   10.7092  -16.6176   30.6590 C   0  0  0  0  0  0  0  0  0  0  0  0
   11.2672  -17.8718   31.2894 N   0  0  0  0  0  0  0  0  0  0  0  0
   11.1834  -17.8370   32.7361 C   0  0  0  0  0  0  0  0  0  0  0  0
   10.8745  -16.5558   26.2733 O   0  0  0  0  0  0  0  0  0  0  0  0
    9.9141  -17.2640   25.9620 O   0  0  0  0  0  0  0  0  0  0  0  0
  2  1  1  0
  2  3  2  0
  4  2  1  0
  5  4  1  0
  6  5  1  0
  7  8  1  0
  7  6  1  0
  8  9  1  6
 10  8  1  0
 11 10  2  0
 13 12  1  6
 13 14  1  0
 15 16  1  1
 15 13  1  0
 16 10  1  0
 17 15  1  0
 18 17  2  0
 19 17  1  0
 20 26  1  0
 20 19  1  0
 21 22  1  0
 20 21  1  1
 23 24  1  0
 23 22  1  0
 25 24  1  0
 26 28  1  0
 27 26  2  0
M  END
$$$$
