RVK.pdb
     RDKit          3D

 28 27  0  0  1  0  0  0  0  0999 V2000
    7.1718  -14.7902   15.7669 N   0  0  0  0  0  0  0  0  0  0  0  0
    8.5990  -14.6737   15.6646 C   0  0  0  0  0  0  0  0  0  0  0  0
    9.0747  -14.1203   14.6065 N   0  0  0  0  0  0  0  0  0  0  0  0
    9.4047  -15.1657   16.7165 N   0  0  0  0  0  0  0  0  0  0  0  0
    8.8106  -15.8167   17.8465 C   0  0  0  0  0  0  0  0  0  0  0  0
    7.9547  -14.9042   18.6736 C   0  0  0  0  0  0  0  0  0  0  0  0
    8.3884  -14.6935   20.0758 C   0  0  0  0  0  0  0  0  0  0  0  0
    7.4462  -13.9095   20.9498 C   0  0  2  0  0  0  0  0  0  0  0  0
    7.0975  -12.6390   20.4070 N   0  0  0  0  0  0  0  0  0  0  0  0
    8.1300  -13.7747   22.2814 C   0  0  0  0  0  0  0  0  0  0  0  0
    9.3752  -13.5751   22.3270 O   0  0  0  0  0  0  0  0  0  0  0  0
   10.0992  -14.0231   14.4509 C   0  0  0  0  0  0  0  0  0  0  0  0
    8.0394  -12.3761   26.9280 C   0  0  1  0  0  0  0  0  0  0  0  0
    7.3922  -12.7985   25.6557 C   0  0  0  0  0  0  0  0  0  0  0  0
    5.9537  -13.2505   25.8491 C   0  0  2  0  0  0  0  0  0  0  0  0
    8.1791  -13.7432   24.8075 N   0  0  0  0  0  0  0  0  0  0  0  0
    7.4581  -13.8585   23.5228 C   0  0  0  0  0  0  0  0  0  0  0  0
    8.4855  -15.0528   25.3584 O   0  0  0  0  0  0  0  0  0  0  0  0
    7.5034  -15.8696   25.4963 N   0  0  0  0  0  0  0  0  0  0  0  0
    9.7255  -15.5680   25.7700 C   0  0  1  0  0  0  0  0  0  0  0  0
    9.8886  -16.8833   26.3627 C   0  0  0  0  0  0  0  0  0  0  0  0
   10.9855  -17.6615   25.6814 C   0  0  0  0  0  0  0  0  0  0  0  0
   10.7764  -17.8213   24.1926 C   0  0  0  0  0  0  0  0  0  0  0  0
   11.9637  -18.6393   23.6579 C   0  0  0  0  0  0  0  0  0  0  0  0
   11.7658  -18.7415   22.1638 N   0  0  0  0  0  0  0  0  0  0  0  0
   12.8195  -19.5064   21.5267 C   0  0  0  0  0  0  0  0  0  0  0  0
   10.0215  -16.7987   27.8236 O   0  0  0  0  0  0  0  0  0  0  0  0
   10.1636  -15.7780   28.5010 O   0  0  0  0  0  0  0  0  0  0  0  0
  2  1  1  0
  2  3  2  0
  4  2  1  0
  5  4  1  0
  6  5  1  0
  7  8  1  0
  7  6  1  0
  8  9  1  6
 10  8  1  0
 11 10  2  0
 13 12  1  6
 13 14  1  0
 15 16  1  1
 15 13  1  0
 16 10  1  0
 17 15  1  0
 18 17  2  0
 19 17  1  0
 20 26  1  0
 20 19  1  0
 21 22  1  0
 20 21  1  1
 23 24  1  0
 23 22  1  0
 25 24  1  0
 26 28  1  0
 27 26  2  0
M  END
$$$$
