RVK.pdb
     RDKit          3D

 28 27  0  0  1  0  0  0  0  0999 V2000
    9.1319  -15.9788   17.0014 N   0  0  0  0  0  0  0  0  0  0  0  0
    8.2806  -17.1287   16.8834 C   0  0  0  0  0  0  0  0  0  0  0  0
    7.9118  -17.4750   15.7019 N   0  0  0  0  0  0  0  0  0  0  0  0
    7.8921  -17.8178   18.0547 N   0  0  0  0  0  0  0  0  0  0  0  0
    8.0963  -17.2322   19.3466 C   0  0  0  0  0  0  0  0  0  0  0  0
    7.7227  -15.7809   19.4050 C   0  0  0  0  0  0  0  0  0  0  0  0
    8.0690  -15.0663   20.6572 C   0  0  0  0  0  0  0  0  0  0  0  0
    7.6487  -15.7344   21.9390 C   0  0  2  0  0  0  0  0  0  0  0  0
    6.2354  -15.8511   22.0781 N   0  0  0  0  0  0  0  0  0  0  0  0
    8.2495  -14.9184   23.0491 C   0  0  0  0  0  0  0  0  0  0  0  0
    9.4888  -14.6809   23.0498 O   0  0  0  0  0  0  0  0  0  0  0  0
    7.2407  -18.2545   15.5424 C   0  0  0  0  0  0  0  0  0  0  0  0
    7.8187  -11.6716   26.7113 C   0  0  2  0  0  0  0  0  0  0  0  0
    7.2709  -12.5873   25.6734 C   0  0  0  0  0  0  0  0  0  0  0  0
    5.8513  -13.0384   25.9767 C   0  0  2  0  0  0  0  0  0  0  0  0
    8.1572  -13.7206   25.2720 N   0  0  0  0  0  0  0  0  0  0  0  0
    7.5033  -14.3826   24.1242 C   0  0  0  0  0  0  0  0  0  0  0  0
    8.5280  -14.6848   26.2944 O   0  0  0  0  0  0  0  0  0  0  0  0
    7.6015  -15.4674   26.7186 N   0  0  0  0  0  0  0  0  0  0  0  0
    9.7785  -14.8919   26.8991 C   0  0  1  0  0  0  0  0  0  0  0  0
   10.0272  -15.9230   27.8904 C   0  0  0  0  0  0  0  0  0  0  0  0
   11.1349  -16.8487   27.4555 C   0  0  0  0  0  0  0  0  0  0  0  0
   10.8942  -17.4844   26.1049 C   0  0  0  0  0  0  0  0  0  0  0  0
   12.1715  -18.2586   25.7393 C   0  0  0  0  0  0  0  0  0  0  0  0
   11.9206  -18.8669   24.3796 N   0  0  0  0  0  0  0  0  0  0  0  0
   13.1100  -19.4917   23.8354 C   0  0  0  0  0  0  0  0  0  0  0  0
   10.2095  -15.3450   29.2290 O   0  0  0  0  0  0  0  0  0  0  0  0
   10.2961  -14.1494   29.5188 O   0  0  0  0  0  0  0  0  0  0  0  0
  2  1  1  0
  2  3  2  0
  4  2  1  0
  5  4  1  0
  6  5  1  0
  7  8  1  0
  7  6  1  0
  8  9  1  1
 10  8  1  0
 11 10  2  0
 13 12  1  6
 13 14  1  0
 15 16  1  1
 15 13  1  0
 16 10  1  0
 17 15  1  0
 18 17  2  0
 19 17  1  0
 20 26  1  0
 20 19  1  0
 21 22  1  0
 20 21  1  1
 23 24  1  0
 23 22  1  0
 25 24  1  0
 26 28  1  0
 27 26  2  0
M  END
$$$$
