RVK.pdb
     RDKit          3D

 28 27  0  0  1  0  0  0  0  0999 V2000
    7.6899  -13.5361   17.1665 N   0  0  0  0  0  0  0  0  0  0  0  0
    7.7110  -14.7372   16.3804 C   0  0  0  0  0  0  0  0  0  0  0  0
    7.6764  -14.6100   15.1019 N   0  0  0  0  0  0  0  0  0  0  0  0
    7.7680  -15.9868   17.0383 N   0  0  0  0  0  0  0  0  0  0  0  0
    7.8084  -16.0561   18.4692 C   0  0  0  0  0  0  0  0  0  0  0  0
    7.8228  -14.7086   19.1274 C   0  0  0  0  0  0  0  0  0  0  0  0
    7.7653  -14.7039   20.6091 C   0  0  0  0  0  0  0  0  0  0  0  0
    7.6054  -13.3566   21.2614 C   0  0  2  0  0  0  0  0  0  0  0  0
    8.2450  -12.3033   20.5461 N   0  0  0  0  0  0  0  0  0  0  0  0
    8.1600  -13.4996   22.6511 C   0  0  0  0  0  0  0  0  0  0  0  0
    9.4089  -13.5574   22.8225 O   0  0  0  0  0  0  0  0  0  0  0  0
    7.7228  -15.4334   14.4667 C   0  0  0  0  0  0  0  0  0  0  0  0
    5.7284  -13.4149   26.3160 C   0  0  1  0  0  0  0  0  0  0  0  0
    7.1157  -12.9237   26.0922 C   0  0  0  0  0  0  0  0  0  0  0  0
    7.1701  -11.4373   25.7780 C   0  0  1  0  0  0  0  0  0  0  0  0
    7.9511  -13.7363   25.1580 N   0  0  0  0  0  0  0  0  0  0  0  0
    7.3589  -13.5766   23.8137 C   0  0  0  0  0  0  0  0  0  0  0  0
    8.1565  -15.1388   25.4793 O   0  0  0  0  0  0  0  0  0  0  0  0
    7.1628  -15.9305   25.2880 N   0  0  0  0  0  0  0  0  0  0  0  0
    9.3079  -15.7696   25.9783 C   0  0  1  0  0  0  0  0  0  0  0  0
    9.3608  -17.1774   26.3289 C   0  0  0  0  0  0  0  0  0  0  0  0
    9.9140  -18.0059   25.1973 C   0  0  0  0  0  0  0  0  0  0  0  0
   11.4088  -17.8637   25.0204 C   0  0  0  0  0  0  0  0  0  0  0  0
   11.8235  -18.8382   23.9056 C   0  0  0  0  0  0  0  0  0  0  0  0
   13.3284  -18.7507   23.8080 N   0  0  0  0  0  0  0  0  0  0  0  0
   13.8664  -19.6897   22.8436 C   0  0  0  0  0  0  0  0  0  0  0  0
   10.0360  -17.3823   27.6179 O   0  0  0  0  0  0  0  0  0  0  0  0
   10.6261  -16.5355   28.2928 O   0  0  0  0  0  0  0  0  0  0  0  0
  2  1  1  0
  2  3  2  0
  4  2  1  0
  5  4  1  0
  6  5  1  0
  7  8  1  0
  7  6  1  0
  8  9  1  6
 10  8  1  0
 11 10  2  0
 13 12  1  1
 13 14  1  0
 15 16  1  6
 15 13  1  0
 16 10  1  0
 17 15  1  0
 18 17  2  0
 19 17  1  0
 20 26  1  0
 20 19  1  0
 21 22  1  0
 20 21  1  1
 23 24  1  0
 23 22  1  0
 25 24  1  0
 26 28  1  0
 27 26  2  0
M  END
$$$$
