RVK.pdb
     RDKit          3D

 28 27  0  0  1  0  0  0  0  0999 V2000
    7.4875  -20.1200   13.6083 N   0  0  0  0  0  0  0  0  0  0  0  0
    6.5887  -20.8449   14.4614 C   0  0  0  0  0  0  0  0  0  0  0  0
    6.6685  -22.1276   14.4536 N   0  0  0  0  0  0  0  0  0  0  0  0
    5.6702  -20.1256   15.2593 N   0  0  0  0  0  0  0  0  0  0  0  0
    6.1082  -19.0184   16.0567 C   0  0  0  0  0  0  0  0  0  0  0  0
    6.8364  -19.4350   17.2999 C   0  0  0  0  0  0  0  0  0  0  0  0
    7.2027  -18.3473   18.2388 C   0  0  0  0  0  0  0  0  0  0  0  0
    7.6465  -17.0526   17.6119 C   0  0  2  0  0  0  0  0  0  0  0  0
    8.3923  -17.2329   16.4112 N   0  0  0  0  0  0  0  0  0  0  0  0
    8.4499  -16.3369   18.6614 C   0  0  0  0  0  0  0  0  0  0  0  0
    9.6790  -16.5924   18.7895 O   0  0  0  0  0  0  0  0  0  0  0  0
    6.0736  -22.7186   15.0704 C   0  0  0  0  0  0  0  0  0  0  0  0
    6.7384  -13.7308   21.7797 C   0  0  1  0  0  0  0  0  0  0  0  0
    7.9946  -13.4998   21.0151 C   0  0  0  0  0  0  0  0  0  0  0  0
    7.8184  -12.5030   19.8810 C   0  0  1  0  0  0  0  0  0  0  0  0
    8.7316  -14.7269   20.5882 N   0  0  0  0  0  0  0  0  0  0  0  0
    7.9109  -15.3701   19.5412 C   0  0  0  0  0  0  0  0  0  0  0  0
    9.1131  -15.6797   21.6172 O   0  0  0  0  0  0  0  0  0  0  0  0
    8.2545  -16.5878   21.9156 N   0  0  0  0  0  0  0  0  0  0  0  0
   10.3097  -15.7557   22.3486 C   0  0  1  0  0  0  0  0  0  0  0  0
   10.6030  -16.8166   23.2953 C   0  0  0  0  0  0  0  0  0  0  0  0
   11.8982  -17.5114   22.9594 C   0  0  0  0  0  0  0  0  0  0  0  0
   12.3032  -18.5559   23.9746 C   0  0  0  0  0  0  0  0  0  0  0  0
   12.5341  -19.8658   23.2032 C   0  0  0  0  0  0  0  0  0  0  0  0
   13.9019  -20.3597   23.6118 N   0  0  0  0  0  0  0  0  0  0  0  0
   14.0263  -21.7969   23.4689 C   0  0  0  0  0  0  0  0  0  0  0  0
   10.5134  -16.3363   24.6812 O   0  0  0  0  0  0  0  0  0  0  0  0
   10.3969  -15.1681   25.0588 O   0  0  0  0  0  0  0  0  0  0  0  0
  2  1  1  0
  2  3  2  0
  4  2  1  0
  5  4  1  0
  6  5  1  0
  7  8  1  0
  7  6  1  0
  8  9  1  6
 10  8  1  0
 11 10  2  0
 13 12  1  1
 13 14  1  0
 15 16  1  6
 15 13  1  0
 16 10  1  0
 17 15  1  0
 18 17  2  0
 19 17  1  0
 20 26  1  0
 20 19  1  0
 21 22  1  0
 20 21  1  1
 23 24  1  0
 23 22  1  0
 25 24  1  0
 26 28  1  0
 27 26  2  0
M  END
$$$$
