YHE.pdb
     RDKit          3D

 32 33  0  0  1  0  0  0  0  0999 V2000
    5.1507  -10.4945   27.9603 O   0  0  0  0  0  0  0  0  0  0  0  0
    5.8867  -11.5199   27.3416 C   0  0  0  0  0  0  0  0  0  0  0  0
    6.2108  -11.4409   26.0039 C   0  0  0  0  0  0  0  0  0  0  0  0
    6.9439  -12.4580   25.3791 C   0  0  0  0  0  0  0  0  0  0  0  0
    7.3434  -13.5462   26.1108 C   0  0  0  0  0  0  0  0  0  0  0  0
    8.1151  -14.6195   25.4596 C   0  0  0  0  0  0  0  0  0  0  0  0
    7.2342  -15.2238   24.3647 C   0  0  2  0  0  0  0  0  0  0  0  0
    6.2415  -16.1180   24.9272 N   0  0  0  0  0  0  0  0  0  0  0  0
    8.1355  -15.9342   23.4234 C   0  0  0  0  0  0  0  0  0  0  0  0
    8.1141  -17.1893   23.3838 O   0  0  0  0  0  0  0  0  0  0  0  0
    7.0251  -13.6291   27.4351 C   0  0  0  0  0  0  0  0  0  0  0  0
    6.2953  -12.6211   28.0663 C   0  0  0  0  0  0  0  0  0  0  0  0
    8.9904  -15.1592   22.6012 N   0  0  0  0  0  0  0  0  0  0  0  0
    9.9266  -15.7883   21.7025 C   0  0  1  0  0  0  0  0  0  0  0  0
   10.2862  -14.9423   20.5494 C   0  0  0  0  0  0  0  0  0  0  0  0
    9.1350  -14.5724   19.7258 C   0  0  0  0  0  0  0  0  0  0  0  0
    8.5782  -13.3663   19.4925 C   0  0  0  0  0  0  0  0  0  0  0  0
    7.5007  -13.5286   18.6674 N   0  0  0  0  0  0  0  0  0  0  0  0
    7.3827  -14.8333   18.3850 C   0  0  0  0  0  0  0  0  0  0  0  0
    8.3692  -15.4613   19.0243 N   0  0  0  0  0  0  0  0  0  0  0  0
   11.1206  -16.1846   22.5146 C   0  0  0  0  0  0  0  0  0  0  0  0
   11.6268  -15.3038   23.2393 O   0  0  0  0  0  0  0  0  0  0  0  0
   11.6855  -17.4667   22.5017 N   0  0  0  0  0  0  0  0  0  0  0  0
   12.3651  -18.0833   23.6220 C   0  0  1  0  0  0  0  0  0  0  0  0
   11.5249  -18.2045   24.8402 C   0  0  0  0  0  0  0  0  0  0  0  0
   12.1252  -18.8666   26.0233 C   0  0  0  0  0  0  0  0  0  0  0  0
   11.2184  -18.9440   27.1863 C   0  0  0  0  0  0  0  0  0  0  0  0
   10.1413  -19.5849   27.2145 O   0  0  0  0  0  0  0  0  0  0  0  0
   13.0336  -19.3008   23.1625 C   0  0  0  0  0  0  0  0  0  0  0  0
   13.9354  -19.8532   23.8341 O   0  0  0  0  0  0  0  0  0  0  0  0
   11.5458  -18.2646   28.3723 O   0  0  0  0  0  0  0  0  0  0  0  0
   12.6838  -19.8792   21.9589 O   0  0  0  0  0  0  0  0  0  0  0  0
  2 12  2  0
  2  1  1  0
  3  2  1  0
  4  5  1  0
  4  3  2  0
  5 11  2  0
  6  5  1  0
  7  9  1  0
  7  6  1  0
  7  8  1  1
  9 10  2  0
 11 12  1  0
 13  9  1  0
 14 13  1  0
 14 15  1  6
 16 15  1  0
 16 17  2  0
 18 17  1  0
 19 18  1  0
 20 19  2  0
 20 16  1  0
 21 14  1  0
 22 21  2  0
 23 21  1  0
 24 23  1  0
 24 25  1  1
 26 25  1  0
 27 31  1  0
 27 26  1  0
 28 27  2  0
 29 24  1  0
 29 32  1  0
 30 29  2  0
M  END
$$$$
