YHE.pdb
     RDKit          3D

 32 33  0  0  1  0  0  0  0  0999 V2000
    7.5009  -13.8858   15.3231 O   0  0  0  0  0  0  0  0  0  0  0  0
    7.5443  -13.8569   16.7278 C   0  0  0  0  0  0  0  0  0  0  0  0
    6.8217  -14.7666   17.4703 C   0  0  0  0  0  0  0  0  0  0  0  0
    6.8590  -14.7452   18.8704 C   0  0  0  0  0  0  0  0  0  0  0  0
    7.6260  -13.8052   19.5088 C   0  0  0  0  0  0  0  0  0  0  0  0
    7.6698  -13.7775   20.9815 C   0  0  0  0  0  0  0  0  0  0  0  0
    8.8340  -14.6645   21.4263 C   0  0  2  0  0  0  0  0  0  0  0  0
    8.6542  -16.0292   20.9716 N   0  0  0  0  0  0  0  0  0  0  0  0
    8.8981  -14.5883   22.9073 C   0  0  0  0  0  0  0  0  0  0  0  0
    9.2570  -13.5144   23.4507 O   0  0  0  0  0  0  0  0  0  0  0  0
    8.3430  -12.9027   18.7784 C   0  0  0  0  0  0  0  0  0  0  0  0
    8.3123  -12.9160   17.3835 C   0  0  0  0  0  0  0  0  0  0  0  0
    8.5485  -15.7412   23.6529 N   0  0  0  0  0  0  0  0  0  0  0  0
    8.7479  -15.7908   25.0804 C   0  0  1  0  0  0  0  0  0  0  0  0
    7.4885  -15.7532   25.8466 C   0  0  0  0  0  0  0  0  0  0  0  0
    6.9957  -14.3952   26.0776 C   0  0  0  0  0  0  0  0  0  0  0  0
    7.5443  -13.2020   25.7704 C   0  0  0  0  0  0  0  0  0  0  0  0
    6.7145  -12.2078   26.2076 N   0  0  0  0  0  0  0  0  0  0  0  0
    5.6489  -12.7770   26.7877 C   0  0  0  0  0  0  0  0  0  0  0  0
    5.8203  -14.0964   26.7084 N   0  0  0  0  0  0  0  0  0  0  0  0
    9.5571  -17.0167   25.3713 C   0  0  0  0  0  0  0  0  0  0  0  0
    9.1695  -18.0838   24.8533 O   0  0  0  0  0  0  0  0  0  0  0  0
   10.7025  -17.0253   26.1782 N   0  0  0  0  0  0  0  0  0  0  0  0
   11.6609  -18.1089   26.2438 C   0  0  1  0  0  0  0  0  0  0  0  0
   12.9915  -17.7676   25.6800 C   0  0  0  0  0  0  0  0  0  0  0  0
   14.0517  -18.8016   25.7522 C   0  0  0  0  0  0  0  0  0  0  0  0
   15.3573  -18.3533   25.2278 C   0  0  0  0  0  0  0  0  0  0  0  0
   16.3952  -19.0554   25.1918 O   0  0  0  0  0  0  0  0  0  0  0  0
   11.6460  -18.6776   27.5916 C   0  0  0  0  0  0  0  0  0  0  0  0
   12.2475  -19.7415   27.8668 O   0  0  0  0  0  0  0  0  0  0  0  0
   15.4946  -17.0497   24.7204 O   0  0  0  0  0  0  0  0  0  0  0  0
   10.9572  -18.0480   28.6089 O   0  0  0  0  0  0  0  0  0  0  0  0
  2 12  2  0
  2  1  1  0
  3  2  1  0
  4  5  1  0
  4  3  2  0
  5 11  2  0
  6  5  1  0
  7  9  1  0
  7  6  1  0
  7  8  1  1
  9 10  2  0
 11 12  1  0
 13  9  1  0
 14 13  1  0
 14 15  1  1
 16 15  1  0
 16 17  2  0
 18 17  1  0
 19 18  1  0
 20 19  2  0
 20 16  1  0
 21 14  1  0
 22 21  2  0
 23 21  1  0
 24 23  1  0
 24 25  1  1
 26 25  1  0
 27 31  1  0
 27 26  1  0
 28 27  2  0
 29 24  1  0
 29 32  1  0
 30 29  2  0
M  END
$$$$
