YHE.pdb
     RDKit          3D

 32 33  0  0  1  0  0  0  0  0999 V2000
    6.4842  -11.4385   21.4806 O   0  0  0  0  0  0  0  0  0  0  0  0
    7.1116  -12.4170   20.6900 C   0  0  0  0  0  0  0  0  0  0  0  0
    6.3718  -13.4147   20.0915 C   0  0  0  0  0  0  0  0  0  0  0  0
    6.9886  -14.3938   19.3020 C   0  0  0  0  0  0  0  0  0  0  0  0
    8.3474  -14.3568   19.1238 C   0  0  0  0  0  0  0  0  0  0  0  0
    9.0023  -15.3836   18.2942 C   0  0  0  0  0  0  0  0  0  0  0  0
    9.8395  -16.2642   19.2235 C   0  0  2  0  0  0  0  0  0  0  0  0
    9.7512  -15.8069   20.5963 N   0  0  0  0  0  0  0  0  0  0  0  0
   11.2365  -16.2196   18.7238 C   0  0  0  0  0  0  0  0  0  0  0  0
   11.5113  -16.7593   17.6236 O   0  0  0  0  0  0  0  0  0  0  0  0
    9.0839  -13.3714   19.7141 C   0  0  0  0  0  0  0  0  0  0  0  0
    8.4787  -12.3918   20.5022 C   0  0  0  0  0  0  0  0  0  0  0  0
   12.2106  -15.5639   19.5167 N   0  0  0  0  0  0  0  0  0  0  0  0
   13.5944  -15.5266   19.1122 C   0  0  1  0  0  0  0  0  0  0  0  0
   13.9334  -14.3417   18.3024 C   0  0  0  0  0  0  0  0  0  0  0  0
   15.2880  -14.3892   17.7519 C   0  0  0  0  0  0  0  0  0  0  0  0
   16.3726  -13.6381   18.0324 C   0  0  0  0  0  0  0  0  0  0  0  0
   17.4097  -14.0460   17.2411 N   0  0  0  0  0  0  0  0  0  0  0  0
   16.9756  -15.0498   16.4666 C   0  0  0  0  0  0  0  0  0  0  0  0
   15.6956  -15.2554   16.7760 N   0  0  0  0  0  0  0  0  0  0  0  0
   14.4213  -15.6235   20.3568 C   0  0  0  0  0  0  0  0  0  0  0  0
   13.9731  -15.0608   21.3765 O   0  0  0  0  0  0  0  0  0  0  0  0
   15.6463  -16.2994   20.4320 N   0  0  0  0  0  0  0  0  0  0  0  0
   16.4259  -16.4682   21.6407 C   0  0  1  0  0  0  0  0  0  0  0  0
   16.1432  -17.7331   22.3650 C   0  0  0  0  0  0  0  0  0  0  0  0
   16.0398  -17.6680   23.8427 C   0  0  0  0  0  0  0  0  0  0  0  0
   15.8487  -18.9840   24.4847 C   0  0  0  0  0  0  0  0  0  0  0  0
   14.7365  -19.5106   24.7238 O   0  0  0  0  0  0  0  0  0  0  0  0
   17.8298  -16.1806   21.3464 C   0  0  0  0  0  0  0  0  0  0  0  0
   18.2692  -16.1637   20.1734 O   0  0  0  0  0  0  0  0  0  0  0  0
   16.9684  -19.7391   24.8741 O   0  0  0  0  0  0  0  0  0  0  0  0
   18.7194  -15.9185   22.3690 O   0  0  0  0  0  0  0  0  0  0  0  0
  2 12  2  0
  2  1  1  0
  3  2  1  0
  4  5  1  0
  4  3  2  0
  5 11  2  0
  6  5  1  0
  7  9  1  0
  7  6  1  0
  7  8  1  1
  9 10  2  0
 11 12  1  0
 13  9  1  0
 14 13  1  0
 14 15  1  1
 16 15  1  0
 16 17  2  0
 18 17  1  0
 19 18  1  0
 20 19  2  0
 20 16  1  0
 21 14  1  0
 22 21  2  0
 23 21  1  0
 24 23  1  0
 24 25  1  6
 26 25  1  0
 27 31  1  0
 27 26  1  0
 28 27  2  0
 29 24  1  0
 29 32  1  0
 30 29  2  0
M  END
$$$$
