YHE.pdb
     RDKit          3D

 32 33  0  0  1  0  0  0  0  0999 V2000
    7.0747  -12.3262   16.7807 O   0  0  0  0  0  0  0  0  0  0  0  0
    7.5989  -12.9982   17.8986 C   0  0  0  0  0  0  0  0  0  0  0  0
    7.1007  -14.2275   18.2746 C   0  0  0  0  0  0  0  0  0  0  0  0
    7.6171  -14.9043   19.3871 C   0  0  0  0  0  0  0  0  0  0  0  0
    8.6322  -14.3336   20.1104 C   0  0  0  0  0  0  0  0  0  0  0  0
    9.1801  -15.0405   21.2816 C   0  0  0  0  0  0  0  0  0  0  0  0
   10.6203  -15.4361   20.9511 C   0  0  2  0  0  0  0  0  0  0  0  0
   10.7382  -15.8775   19.5754 N   0  0  0  0  0  0  0  0  0  0  0  0
   11.0062  -16.5087   21.9019 C   0  0  0  0  0  0  0  0  0  0  0  0
   10.8665  -16.3142   23.1347 O   0  0  0  0  0  0  0  0  0  0  0  0
    9.1287  -13.1171   19.7422 C   0  0  0  0  0  0  0  0  0  0  0  0
    8.6210  -12.4353   18.6357 C   0  0  0  0  0  0  0  0  0  0  0  0
   11.5209  -17.7184   21.3736 N   0  0  0  0  0  0  0  0  0  0  0  0
   11.9543  -18.7835   22.2440 C   0  0  1  0  0  0  0  0  0  0  0  0
   11.4636  -20.1111   21.8297 C   0  0  0  0  0  0  0  0  0  0  0  0
   10.0037  -20.1990   21.7925 C   0  0  0  0  0  0  0  0  0  0  0  0
    9.1335  -19.8843   20.8113 C   0  0  0  0  0  0  0  0  0  0  0  0
    7.8624  -20.1200   21.2549 N   0  0  0  0  0  0  0  0  0  0  0  0
    7.9363  -20.5808   22.5111 C   0  0  0  0  0  0  0  0  0  0  0  0
    9.2286  -20.6277   22.8337 N   0  0  0  0  0  0  0  0  0  0  0  0
   13.4491  -18.7215   22.3078 C   0  0  0  0  0  0  0  0  0  0  0  0
   14.0492  -18.4795   21.2408 O   0  0  0  0  0  0  0  0  0  0  0  0
   14.1912  -18.9173   23.4800 N   0  0  0  0  0  0  0  0  0  0  0  0
   15.6147  -18.6836   23.6074 C   0  0  1  0  0  0  0  0  0  0  0  0
   16.0482  -17.3466   23.1287 C   0  0  0  0  0  0  0  0  0  0  0  0
   17.4654  -16.9679   23.3448 C   0  0  0  0  0  0  0  0  0  0  0  0
   17.7855  -15.5910   22.9179 C   0  0  0  0  0  0  0  0  0  0  0  0
   17.3721  -14.5508   23.4825 O   0  0  0  0  0  0  0  0  0  0  0  0
   16.0426  -19.0692   24.9522 C   0  0  0  0  0  0  0  0  0  0  0  0
   15.3294  -18.8548   25.9595 O   0  0  0  0  0  0  0  0  0  0  0  0
   18.6117  -15.3816   21.8004 O   0  0  0  0  0  0  0  0  0  0  0  0
   17.2616  -19.6866   25.1482 O   0  0  0  0  0  0  0  0  0  0  0  0
  2 12  2  0
  2  1  1  0
  3  2  1  0
  4  5  1  0
  4  3  2  0
  5 11  2  0
  6  5  1  0
  7  9  1  0
  7  6  1  0
  7  8  1  6
  9 10  2  0
 11 12  1  0
 13  9  1  0
 14 13  1  0
 14 15  1  6
 16 15  1  0
 16 17  2  0
 18 17  1  0
 19 18  1  0
 20 19  2  0
 20 16  1  0
 21 14  1  0
 22 21  2  0
 23 21  1  0
 24 23  1  0
 24 25  1  1
 26 25  1  0
 27 31  1  0
 27 26  1  0
 28 27  2  0
 29 24  1  0
 29 32  1  0
 30 29  2  0
M  END
$$$$
