YHE.pdb
     RDKit          3D

 32 33  0  0  1  0  0  0  0  0999 V2000
    7.0194  -14.0846   14.9399 O   0  0  0  0  0  0  0  0  0  0  0  0
    7.5322  -14.0580   16.2486 C   0  0  0  0  0  0  0  0  0  0  0  0
    8.4826  -14.9736   16.6477 C   0  0  0  0  0  0  0  0  0  0  0  0
    8.9991  -14.9544   17.9497 C   0  0  0  0  0  0  0  0  0  0  0  0
    8.5513  -14.0106   18.8374 C   0  0  0  0  0  0  0  0  0  0  0  0
    9.0909  -13.9849   20.2084 C   0  0  0  0  0  0  0  0  0  0  0  0
    9.2981  -15.4343   20.6513 C   0  0  2  0  0  0  0  0  0  0  0  0
    8.0855  -16.2105   20.4822 N   0  0  0  0  0  0  0  0  0  0  0  0
    9.7276  -15.3983   22.0717 C   0  0  0  0  0  0  0  0  0  0  0  0
   10.8041  -14.8254   22.3720 O   0  0  0  0  0  0  0  0  0  0  0  0
    7.6108  -13.1023   18.4471 C   0  0  0  0  0  0  0  0  0  0  0  0
    7.0903  -13.1133   17.1526 C   0  0  0  0  0  0  0  0  0  0  0  0
    8.8972  -16.0177   23.0383 N   0  0  0  0  0  0  0  0  0  0  0  0
    8.7780  -15.4775   24.3701 C   0  0  1  0  0  0  0  0  0  0  0  0
    7.4464  -14.9100   24.6520 C   0  0  0  0  0  0  0  0  0  0  0  0
    7.3837  -14.1950   25.9268 C   0  0  0  0  0  0  0  0  0  0  0  0
    8.2734  -14.1319   26.9386 C   0  0  0  0  0  0  0  0  0  0  0  0
    7.7570  -13.3500   27.9336 N   0  0  0  0  0  0  0  0  0  0  0  0
    6.5467  -12.9247   27.5461 C   0  0  0  0  0  0  0  0  0  0  0  0
    6.3232  -13.4354   26.3355 N   0  0  0  0  0  0  0  0  0  0  0  0
    9.1469  -16.5705   25.3249 C   0  0  0  0  0  0  0  0  0  0  0  0
    8.3957  -17.5664   25.3590 O   0  0  0  0  0  0  0  0  0  0  0  0
   10.2687  -16.5316   26.1635 N   0  0  0  0  0  0  0  0  0  0  0  0
   10.6647  -17.5925   27.0662 C   0  0  1  0  0  0  0  0  0  0  0  0
   12.0917  -17.9838   26.9426 C   0  0  0  0  0  0  0  0  0  0  0  0
   12.8134  -17.5640   25.7172 C   0  0  0  0  0  0  0  0  0  0  0  0
   13.8096  -18.5473   25.2468 C   0  0  0  0  0  0  0  0  0  0  0  0
   15.0393  -18.4922   25.4843 O   0  0  0  0  0  0  0  0  0  0  0  0
   10.1853  -17.2770   28.4120 C   0  0  0  0  0  0  0  0  0  0  0  0
    9.6617  -16.1722   28.6849 O   0  0  0  0  0  0  0  0  0  0  0  0
   13.3949  -19.6440   24.4716 O   0  0  0  0  0  0  0  0  0  0  0  0
   10.3012  -18.2016   29.4304 O   0  0  0  0  0  0  0  0  0  0  0  0
  2 12  2  0
  2  1  1  0
  3  2  1  0
  4  5  1  0
  4  3  2  0
  5 11  2  0
  6  5  1  0
  7  9  1  0
  7  6  1  0
  7  8  1  1
  9 10  2  0
 11 12  1  0
 13  9  1  0
 14 13  1  0
 14 15  1  1
 16 15  1  0
 16 17  2  0
 18 17  1  0
 19 18  1  0
 20 19  2  0
 20 16  1  0
 21 14  1  0
 22 21  2  0
 23 21  1  0
 24 23  1  0
 24 25  1  1
 26 25  1  0
 27 31  1  0
 27 26  1  0
 28 27  2  0
 29 24  1  0
 29 32  1  0
 30 29  2  0
M  END
$$$$
