YHE.pdb
     RDKit          3D

 32 33  0  0  1  0  0  0  0  0999 V2000
    6.2516  -11.6452   18.6087 O   0  0  0  0  0  0  0  0  0  0  0  0
    7.0621  -12.6261   19.2063 C   0  0  0  0  0  0  0  0  0  0  0  0
    8.4239  -12.6364   18.9911 C   0  0  0  0  0  0  0  0  0  0  0  0
    9.2391  -13.6101   19.5825 C   0  0  0  0  0  0  0  0  0  0  0  0
    8.6720  -14.5649   20.3861 C   0  0  0  0  0  0  0  0  0  0  0  0
    9.5240  -15.5918   21.0114 C   0  0  0  0  0  0  0  0  0  0  0  0
    9.7289  -16.7093   19.9872 C   0  0  2  0  0  0  0  0  0  0  0  0
    8.4828  -17.3944   19.7054 N   0  0  0  0  0  0  0  0  0  0  0  0
   10.7437  -17.6350   20.5500 C   0  0  0  0  0  0  0  0  0  0  0  0
   10.3630  -18.6388   21.2017 O   0  0  0  0  0  0  0  0  0  0  0  0
    7.3246  -14.5589   20.6021 C   0  0  0  0  0  0  0  0  0  0  0  0
    6.5043  -13.5933   20.0176 C   0  0  0  0  0  0  0  0  0  0  0  0
   12.1123  -17.3445   20.3261 N   0  0  0  0  0  0  0  0  0  0  0  0
   13.1417  -18.2793   20.7085 C   0  0  1  0  0  0  0  0  0  0  0  0
   14.1791  -18.4586   19.6758 C   0  0  0  0  0  0  0  0  0  0  0  0
   13.6938  -19.1623   18.4886 C   0  0  0  0  0  0  0  0  0  0  0  0
   13.2187  -18.6826   17.3211 C   0  0  0  0  0  0  0  0  0  0  0  0
   12.8672  -19.7337   16.5211 N   0  0  0  0  0  0  0  0  0  0  0  0
   13.1212  -20.8690   17.1863 C   0  0  0  0  0  0  0  0  0  0  0  0
   13.6196  -20.5224   18.3729 N   0  0  0  0  0  0  0  0  0  0  0  0
   13.7081  -17.8046   22.0108 C   0  0  0  0  0  0  0  0  0  0  0  0
   13.9790  -16.5895   22.0981 O   0  0  0  0  0  0  0  0  0  0  0  0
   13.9440  -18.6381   23.1120 N   0  0  0  0  0  0  0  0  0  0  0  0
   14.3129  -18.1780   24.4347 C   0  0  1  0  0  0  0  0  0  0  0  0
   13.7619  -19.0099   25.5343 C   0  0  0  0  0  0  0  0  0  0  0  0
   14.1535  -18.6592   26.9207 C   0  0  0  0  0  0  0  0  0  0  0  0
   13.5751  -19.5505   27.9463 C   0  0  0  0  0  0  0  0  0  0  0  0
   12.7662  -20.4799   27.7150 O   0  0  0  0  0  0  0  0  0  0  0  0
   15.7526  -17.9202   24.4654 C   0  0  0  0  0  0  0  0  0  0  0  0
   16.2525  -17.0511   25.2165 O   0  0  0  0  0  0  0  0  0  0  0  0
   13.9284  -19.3820   29.2962 O   0  0  0  0  0  0  0  0  0  0  0  0
   16.6091  -18.6375   23.6545 O   0  0  0  0  0  0  0  0  0  0  0  0
  2 12  2  0
  2  1  1  0
  3  2  1  0
  4  5  1  0
  4  3  2  0
  5 11  2  0
  6  5  1  0
  7  9  1  0
  7  6  1  0
  7  8  1  1
  9 10  2  0
 11 12  1  0
 13  9  1  0
 14 13  1  0
 14 15  1  6
 16 15  1  0
 16 17  2  0
 18 17  1  0
 19 18  1  0
 20 19  2  0
 20 16  1  0
 21 14  1  0
 22 21  2  0
 23 21  1  0
 24 23  1  0
 24 25  1  1
 26 25  1  0
 27 31  1  0
 27 26  1  0
 28 27  2  0
 29 24  1  0
 29 32  1  0
 30 29  2  0
M  END
$$$$
