YHE.pdb
     RDKit          3D

 32 33  0  0  1  0  0  0  0  0999 V2000
    6.4726  -12.0948   17.8606 O   0  0  0  0  0  0  0  0  0  0  0  0
    7.2732  -12.9801   18.6032 C   0  0  0  0  0  0  0  0  0  0  0  0
    7.8487  -12.5775   19.7896 C   0  0  0  0  0  0  0  0  0  0  0  0
    8.6478  -13.4530   20.5361 C   0  0  0  0  0  0  0  0  0  0  0  0
    8.8588  -14.7277   20.0779 C   0  0  0  0  0  0  0  0  0  0  0  0
    9.6982  -15.6537   20.8586 C   0  0  0  0  0  0  0  0  0  0  0  0
    9.6154  -17.0275   20.1911 C   0  0  2  0  0  0  0  0  0  0  0  0
    8.3100  -17.6263   20.3883 N   0  0  0  0  0  0  0  0  0  0  0  0
   10.6919  -17.8630   20.7795 C   0  0  0  0  0  0  0  0  0  0  0  0
   10.6708  -18.1121   22.0103 O   0  0  0  0  0  0  0  0  0  0  0  0
    8.2914  -15.1309   18.9043 C   0  0  0  0  0  0  0  0  0  0  0  0
    7.4939  -14.2663   18.1537 C   0  0  0  0  0  0  0  0  0  0  0  0
   11.7079  -18.3491   19.9199 N   0  0  0  0  0  0  0  0  0  0  0  0
   12.7836  -19.1641   20.4284 C   0  0  1  0  0  0  0  0  0  0  0  0
   12.8302  -20.5096   19.8267 C   0  0  0  0  0  0  0  0  0  0  0  0
   11.7760  -21.3968   20.3184 C   0  0  0  0  0  0  0  0  0  0  0  0
   10.8100  -21.1826   21.2349 C   0  0  0  0  0  0  0  0  0  0  0  0
   10.0710  -22.3240   21.3738 N   0  0  0  0  0  0  0  0  0  0  0  0
   10.5733  -23.2509   20.5465 C   0  0  0  0  0  0  0  0  0  0  0  0
   11.6017  -22.6899   19.9108 N   0  0  0  0  0  0  0  0  0  0  0  0
   14.0542  -18.4000   20.2185 C   0  0  0  0  0  0  0  0  0  0  0  0
   14.1129  -17.6711   19.2073 O   0  0  0  0  0  0  0  0  0  0  0  0
   15.1561  -18.4613   21.0816 N   0  0  0  0  0  0  0  0  0  0  0  0
   16.4142  -17.7767   20.8680 C   0  0  1  0  0  0  0  0  0  0  0  0
   17.1437  -17.4576   22.1213 C   0  0  0  0  0  0  0  0  0  0  0  0
   16.7411  -16.2341   22.8557 C   0  0  0  0  0  0  0  0  0  0  0  0
   17.5200  -15.9957   24.0875 C   0  0  0  0  0  0  0  0  0  0  0  0
   18.3191  -15.0450   24.2580 O   0  0  0  0  0  0  0  0  0  0  0  0
   17.1691  -18.4794   19.8304 C   0  0  0  0  0  0  0  0  0  0  0  0
   17.0591  -19.7150   19.6554 O   0  0  0  0  0  0  0  0  0  0  0  0
   17.3884  -16.8741   25.1768 O   0  0  0  0  0  0  0  0  0  0  0  0
   18.0357  -17.7889   19.0071 O   0  0  0  0  0  0  0  0  0  0  0  0
  2 12  2  0
  2  1  1  0
  3  2  1  0
  4  5  1  0
  4  3  2  0
  5 11  2  0
  6  5  1  0
  7  9  1  0
  7  6  1  0
  7  8  1  1
  9 10  2  0
 11 12  1  0
 13  9  1  0
 14 13  1  0
 14 15  1  6
 16 15  1  0
 16 17  2  0
 18 17  1  0
 19 18  1  0
 20 19  2  0
 20 16  1  0
 21 14  1  0
 22 21  2  0
 23 21  1  0
 24 23  1  0
 24 25  1  1
 26 25  1  0
 27 31  1  0
 27 26  1  0
 28 27  2  0
 29 24  1  0
 29 32  1  0
 30 29  2  0
M  END
$$$$
