YHE.pdb
     RDKit          3D

 32 33  0  0  1  0  0  0  0  0999 V2000
    5.2569  -10.5952   28.1351 O   0  0  0  0  0  0  0  0  0  0  0  0
    6.0453  -11.5353   27.4489 C   0  0  0  0  0  0  0  0  0  0  0  0
    6.1374  -11.5023   26.0736 C   0  0  0  0  0  0  0  0  0  0  0  0
    6.9206  -12.4350   25.3816 C   0  0  0  0  0  0  0  0  0  0  0  0
    7.6041  -13.3931   26.0845 C   0  0  0  0  0  0  0  0  0  0  0  0
    8.4300  -14.3771   25.3626 C   0  0  0  0  0  0  0  0  0  0  0  0
    7.5261  -15.0889   24.3545 C   0  0  2  0  0  0  0  0  0  0  0  0
    6.5836  -15.9633   25.0243 N   0  0  0  0  0  0  0  0  0  0  0  0
    8.4115  -15.8457   23.4344 C   0  0  0  0  0  0  0  0  0  0  0  0
    8.4721  -17.0962   23.5327 O   0  0  0  0  0  0  0  0  0  0  0  0
    7.5161  -13.4299   27.4457 C   0  0  0  0  0  0  0  0  0  0  0  0
    6.7387  -12.5053   28.1440 C   0  0  0  0  0  0  0  0  0  0  0  0
    9.1582  -15.1185   22.4746 N   0  0  0  0  0  0  0  0  0  0  0  0
   10.1244  -15.7778   21.6310 C   0  0  1  0  0  0  0  0  0  0  0  0
   10.4345  -15.0252   20.4013 C   0  0  0  0  0  0  0  0  0  0  0  0
    9.2644  -14.8045   19.5513 C   0  0  0  0  0  0  0  0  0  0  0  0
    8.0283  -15.3409   19.6088 C   0  0  0  0  0  0  0  0  0  0  0  0
    7.2800  -14.8390   18.5810 N   0  0  0  0  0  0  0  0  0  0  0  0
    8.0459  -13.9906   17.8812 C   0  0  0  0  0  0  0  0  0  0  0  0
    9.2425  -13.9712   18.4679 N   0  0  0  0  0  0  0  0  0  0  0  0
   11.3404  -16.0321   22.4671 C   0  0  0  0  0  0  0  0  0  0  0  0
   11.6118  -15.1826   23.3400 O   0  0  0  0  0  0  0  0  0  0  0  0
   12.1703  -17.1515   22.3214 N   0  0  0  0  0  0  0  0  0  0  0  0
   13.0218  -17.6917   23.3608 C   0  0  1  0  0  0  0  0  0  0  0  0
   12.2899  -18.4727   24.3900 C   0  0  0  0  0  0  0  0  0  0  0  0
   13.0917  -19.1278   25.4514 C   0  0  0  0  0  0  0  0  0  0  0  0
   12.2832  -19.8936   26.4212 C   0  0  0  0  0  0  0  0  0  0  0  0
   12.4487  -19.8777   27.6637 O   0  0  0  0  0  0  0  0  0  0  0  0
   14.1760  -18.3429   22.7411 C   0  0  0  0  0  0  0  0  0  0  0  0
   14.1463  -18.7546   21.5583 O   0  0  0  0  0  0  0  0  0  0  0  0
   11.2390  -20.7154   25.9635 O   0  0  0  0  0  0  0  0  0  0  0  0
   15.3435  -18.5244   23.4549 O   0  0  0  0  0  0  0  0  0  0  0  0
  2 12  2  0
  2  1  1  0
  3  2  1  0
  4  5  1  0
  4  3  2  0
  5 11  2  0
  6  5  1  0
  7  9  1  0
  7  6  1  0
  7  8  1  1
  9 10  2  0
 11 12  1  0
 13  9  1  0
 14 13  1  0
 14 15  1  6
 16 15  1  0
 16 17  2  0
 18 17  1  0
 19 18  1  0
 20 19  2  0
 20 16  1  0
 21 14  1  0
 22 21  2  0
 23 21  1  0
 24 23  1  0
 24 25  1  6
 26 25  1  0
 27 31  1  0
 27 26  1  0
 28 27  2  0
 29 24  1  0
 29 32  1  0
 30 29  2  0
M  END
$$$$
