YHE.pdb
     RDKit          3D

 32 33  0  0  1  0  0  0  0  0999 V2000
    7.2531  -13.1884   15.4427 O   0  0  0  0  0  0  0  0  0  0  0  0
    7.6523  -13.5718   16.7349 C   0  0  0  0  0  0  0  0  0  0  0  0
    7.2262  -12.8643   17.8389 C   0  0  0  0  0  0  0  0  0  0  0  0
    7.6189  -13.2392   19.1302 C   0  0  0  0  0  0  0  0  0  0  0  0
    8.4386  -14.3254   19.2955 C   0  0  0  0  0  0  0  0  0  0  0  0
    8.8551  -14.7253   20.6513 C   0  0  0  0  0  0  0  0  0  0  0  0
    7.9947  -15.9200   21.0661 C   0  0  2  0  0  0  0  0  0  0  0  0
    6.6205  -15.5193   21.2956 N   0  0  0  0  0  0  0  0  0  0  0  0
    8.6065  -16.4927   22.2912 C   0  0  0  0  0  0  0  0  0  0  0  0
    8.3857  -15.9454   23.3998 O   0  0  0  0  0  0  0  0  0  0  0  0
    8.8630  -15.0289   18.2060 C   0  0  0  0  0  0  0  0  0  0  0  0
    8.4773  -14.6634   16.9158 C   0  0  0  0  0  0  0  0  0  0  0  0
    9.4217  -17.6438   22.1573 N   0  0  0  0  0  0  0  0  0  0  0  0
   10.0210  -18.2673   23.3114 C   0  0  1  0  0  0  0  0  0  0  0  0
    9.2865  -19.4578   23.7781 C   0  0  0  0  0  0  0  0  0  0  0  0
    7.8762  -19.1899   24.0601 C   0  0  0  0  0  0  0  0  0  0  0  0
    7.2933  -18.1527   24.6955 C   0  0  0  0  0  0  0  0  0  0  0  0
    5.9426  -18.3586   24.7315 N   0  0  0  0  0  0  0  0  0  0  0  0
    5.6802  -19.5221   24.1205 C   0  0  0  0  0  0  0  0  0  0  0  0
    6.8477  -20.0221   23.7163 N   0  0  0  0  0  0  0  0  0  0  0  0
   11.4433  -18.5756   22.9585 C   0  0  0  0  0  0  0  0  0  0  0  0
   11.6887  -19.7358   22.5699 O   0  0  0  0  0  0  0  0  0  0  0  0
   12.4891  -17.6468   23.0409 N   0  0  0  0  0  0  0  0  0  0  0  0
   13.8767  -17.9340   22.7424 C   0  0  1  0  0  0  0  0  0  0  0  0
   14.4225  -17.1440   21.6098 C   0  0  0  0  0  0  0  0  0  0  0  0
   14.0376  -15.7147   21.5232 C   0  0  0  0  0  0  0  0  0  0  0  0
   14.6557  -14.9994   20.3887 C   0  0  0  0  0  0  0  0  0  0  0  0
   15.4412  -15.5144   19.5584 O   0  0  0  0  0  0  0  0  0  0  0  0
   14.6460  -17.9142   23.9867 C   0  0  0  0  0  0  0  0  0  0  0  0
   14.1472  -17.5191   25.0658 O   0  0  0  0  0  0  0  0  0  0  0  0
   14.3717  -13.6381   20.1846 O   0  0  0  0  0  0  0  0  0  0  0  0
   15.9606  -18.3350   24.0031 O   0  0  0  0  0  0  0  0  0  0  0  0
  2 12  2  0
  2  1  1  0
  3  2  1  0
  4  5  1  0
  4  3  2  0
  5 11  2  0
  6  5  1  0
  7  9  1  0
  7  6  1  0
  7  8  1  1
  9 10  2  0
 11 12  1  0
 13  9  1  0
 14 13  1  0
 14 15  1  6
 16 15  1  0
 16 17  2  0
 18 17  1  0
 19 18  1  0
 20 19  2  0
 20 16  1  0
 21 14  1  0
 22 21  2  0
 23 21  1  0
 24 23  1  0
 24 25  1  6
 26 25  1  0
 27 31  1  0
 27 26  1  0
 28 27  2  0
 29 24  1  0
 29 32  1  0
 30 29  2  0
M  END
$$$$
