YHE.pdb
     RDKit          3D

 32 33  0  0  1  0  0  0  0  0999 V2000
    5.0582  -10.9087   28.0961 O   0  0  0  0  0  0  0  0  0  0  0  0
    5.8538  -11.8226   27.3834 C   0  0  0  0  0  0  0  0  0  0  0  0
    6.2151  -11.5676   26.0775 C   0  0  0  0  0  0  0  0  0  0  0  0
    7.0076  -12.4726   25.3596 C   0  0  0  0  0  0  0  0  0  0  0  0
    7.4283  -13.6274   25.9668 C   0  0  0  0  0  0  0  0  0  0  0  0
    8.2624  -14.5834   25.2173 C   0  0  0  0  0  0  0  0  0  0  0  0
    7.3954  -15.1842   24.1094 C   0  0  2  0  0  0  0  0  0  0  0  0
    6.4796  -16.1740   24.6416 N   0  0  0  0  0  0  0  0  0  0  0  0
    8.3172  -15.7780   23.1090 C   0  0  0  0  0  0  0  0  0  0  0  0
    8.4619  -17.0250   23.0731 O   0  0  0  0  0  0  0  0  0  0  0  0
    7.0733  -13.8843   27.2591 C   0  0  0  0  0  0  0  0  0  0  0  0
    6.2843  -12.9891   27.9824 C   0  0  0  0  0  0  0  0  0  0  0  0
    9.0018  -14.9047   22.2280 N   0  0  0  0  0  0  0  0  0  0  0  0
    9.8271  -15.4208   21.1638 C   0  0  1  0  0  0  0  0  0  0  0  0
   10.0606  -14.4461   20.0821 C   0  0  0  0  0  0  0  0  0  0  0  0
    8.9847  -14.4173   19.0912 C   0  0  0  0  0  0  0  0  0  0  0  0
    7.8999  -15.2071   18.9553 C   0  0  0  0  0  0  0  0  0  0  0  0
    7.1919  -14.8015   17.8587 N   0  0  0  0  0  0  0  0  0  0  0  0
    7.8321  -13.7604   17.3090 C   0  0  0  0  0  0  0  0  0  0  0  0
    8.9132  -13.5301   18.0536 N   0  0  0  0  0  0  0  0  0  0  0  0
   11.1020  -15.9000   21.7860 C   0  0  0  0  0  0  0  0  0  0  0  0
   11.6832  -15.1112   22.5590 O   0  0  0  0  0  0  0  0  0  0  0  0
   11.6627  -17.1619   21.5490 N   0  0  0  0  0  0  0  0  0  0  0  0
   12.8474  -17.6776   22.2030 C   0  0  1  0  0  0  0  0  0  0  0  0
   12.5909  -18.8613   23.0621 C   0  0  0  0  0  0  0  0  0  0  0  0
   11.6565  -18.6917   24.2008 C   0  0  0  0  0  0  0  0  0  0  0  0
   11.4054  -19.9362   24.9552 C   0  0  0  0  0  0  0  0  0  0  0  0
   11.8569  -21.0646   24.6480 O   0  0  0  0  0  0  0  0  0  0  0  0
   13.9201  -17.8034   21.2163 C   0  0  0  0  0  0  0  0  0  0  0  0
   13.6882  -17.8105   19.9852 O   0  0  0  0  0  0  0  0  0  0  0  0
   10.6061  -19.9018   26.1108 O   0  0  0  0  0  0  0  0  0  0  0  0
   15.2341  -17.9210   21.6228 O   0  0  0  0  0  0  0  0  0  0  0  0
  2 12  2  0
  2  1  1  0
  3  2  1  0
  4  5  1  0
  4  3  2  0
  5 11  2  0
  6  5  1  0
  7  9  1  0
  7  6  1  0
  7  8  1  1
  9 10  2  0
 11 12  1  0
 13  9  1  0
 14 13  1  0
 14 15  1  6
 16 15  1  0
 16 17  2  0
 18 17  1  0
 19 18  1  0
 20 19  2  0
 20 16  1  0
 21 14  1  0
 22 21  2  0
 23 21  1  0
 24 23  1  0
 24 25  1  6
 26 25  1  0
 27 31  1  0
 27 26  1  0
 28 27  2  0
 29 24  1  0
 29 32  1  0
 30 29  2  0
M  END
$$$$
