YHE.pdb
     RDKit          3D

 32 33  0  0  1  0  0  0  0  0999 V2000
   17.8478  -17.2911   12.3348 O   0  0  0  0  0  0  0  0  0  0  0  0
   17.1502  -16.9489   13.5062 C   0  0  0  0  0  0  0  0  0  0  0  0
   17.0095  -17.8614   14.5301 C   0  0  0  0  0  0  0  0  0  0  0  0
   16.3161  -17.5290   15.7010 C   0  0  0  0  0  0  0  0  0  0  0  0
   15.7705  -16.2777   15.8277 C   0  0  0  0  0  0  0  0  0  0  0  0
   15.0401  -15.9216   17.0569 C   0  0  0  0  0  0  0  0  0  0  0  0
   14.5807  -14.4692   16.9178 C   0  0  2  0  0  0  0  0  0  0  0  0
   15.7036  -13.5561   17.0006 N   0  0  0  0  0  0  0  0  0  0  0  0
   13.5948  -14.2189   17.9987 C   0  0  0  0  0  0  0  0  0  0  0  0
   13.9978  -13.7929   19.1092 O   0  0  0  0  0  0  0  0  0  0  0  0
   15.9070  -15.3711   14.8171 C   0  0  0  0  0  0  0  0  0  0  0  0
   16.5959  -15.6928   13.6470 C   0  0  0  0  0  0  0  0  0  0  0  0
   12.2272  -14.4736   17.7297 N   0  0  0  0  0  0  0  0  0  0  0  0
   11.2117  -14.1894   18.7135 C   0  0  1  0  0  0  0  0  0  0  0  0
    9.8615  -14.0552   18.1357 C   0  0  0  0  0  0  0  0  0  0  0  0
    8.8231  -13.8401   19.1435 C   0  0  0  0  0  0  0  0  0  0  0  0
    8.8990  -13.8360   20.4901 C   0  0  0  0  0  0  0  0  0  0  0  0
    7.6525  -13.6094   21.0028 N   0  0  0  0  0  0  0  0  0  0  0  0
    6.7978  -13.4722   19.9798 C   0  0  0  0  0  0  0  0  0  0  0  0
    7.5056  -13.6117   18.8591 N   0  0  0  0  0  0  0  0  0  0  0  0
   11.2852  -15.2687   19.7489 C   0  0  0  0  0  0  0  0  0  0  0  0
   11.4270  -16.4376   19.3355 O   0  0  0  0  0  0  0  0  0  0  0  0
   11.2046  -15.0368   21.1283 N   0  0  0  0  0  0  0  0  0  0  0  0
   11.2788  -16.0642   22.1463 C   0  0  1  0  0  0  0  0  0  0  0  0
   12.6377  -16.6357   22.3236 C   0  0  0  0  0  0  0  0  0  0  0  0
   13.7754  -15.6877   22.3959 C   0  0  0  0  0  0  0  0  0  0  0  0
   15.0773  -16.3381   22.6469 C   0  0  0  0  0  0  0  0  0  0  0  0
   15.3434  -17.0488   23.6447 O   0  0  0  0  0  0  0  0  0  0  0  0
   10.6048  -15.5878   23.3542 C   0  0  0  0  0  0  0  0  0  0  0  0
   10.2425  -14.3955   23.4823 O   0  0  0  0  0  0  0  0  0  0  0  0
   16.1265  -16.1768   21.7257 O   0  0  0  0  0  0  0  0  0  0  0  0
   10.3488  -16.4525   24.3995 O   0  0  0  0  0  0  0  0  0  0  0  0
  2 12  2  0
  2  1  1  0
  3  2  1  0
  4  5  1  0
  4  3  2  0
  5 11  2  0
  6  5  1  0
  7  9  1  0
  7  6  1  0
  7  8  1  1
  9 10  2  0
 11 12  1  0
 13  9  1  0
 14 13  1  0
 14 15  1  6
 16 15  1  0
 16 17  2  0
 18 17  1  0
 19 18  1  0
 20 19  2  0
 20 16  1  0
 21 14  1  0
 22 21  2  0
 23 21  1  0
 24 23  1  0
 24 25  1  1
 26 25  1  0
 27 31  1  0
 27 26  1  0
 28 27  2  0
 29 24  1  0
 29 32  1  0
 30 29  2  0
M  END
$$$$
