YHE.pdb
     RDKit          3D

 32 33  0  0  1  0  0  0  0  0999 V2000
    8.1274  -11.1603   19.3030 O   0  0  0  0  0  0  0  0  0  0  0  0
    8.3783  -12.3851   19.9458 C   0  0  0  0  0  0  0  0  0  0  0  0
    9.6119  -12.9917   19.8413 C   0  0  0  0  0  0  0  0  0  0  0  0
    9.8708  -14.2121   20.4784 C   0  0  0  0  0  0  0  0  0  0  0  0
    8.8814  -14.8093   21.2158 C   0  0  0  0  0  0  0  0  0  0  0  0
    9.1474  -16.0930   21.8888 C   0  0  0  0  0  0  0  0  0  0  0  0
    9.9891  -16.9474   20.9394 C   0  0  2  0  0  0  0  0  0  0  0  0
    9.3775  -17.0273   19.6275 N   0  0  0  0  0  0  0  0  0  0  0  0
   10.1202  -18.2887   21.5613 C   0  0  0  0  0  0  0  0  0  0  0  0
    9.1955  -18.7170   22.2953 O   0  0  0  0  0  0  0  0  0  0  0  0
    7.6588  -14.2129   21.3223 C   0  0  0  0  0  0  0  0  0  0  0  0
    7.3913  -12.9974   20.6914 C   0  0  0  0  0  0  0  0  0  0  0  0
   11.2944  -19.0368   21.2984 N   0  0  0  0  0  0  0  0  0  0  0  0
   11.4846  -20.3461   21.8725 C   0  0  1  0  0  0  0  0  0  0  0  0
   12.1592  -21.2896   20.9618 C   0  0  0  0  0  0  0  0  0  0  0  0
   11.3316  -21.6787   19.8200 C   0  0  0  0  0  0  0  0  0  0  0  0
   10.0538  -21.3681   19.5201 C   0  0  0  0  0  0  0  0  0  0  0  0
    9.7101  -21.9887   18.3518 N   0  0  0  0  0  0  0  0  0  0  0  0
   10.7700  -22.6867   17.9213 C   0  0  0  0  0  0  0  0  0  0  0  0
   11.7470  -22.4986   18.8081 N   0  0  0  0  0  0  0  0  0  0  0  0
   12.2300  -20.1609   23.1579 C   0  0  0  0  0  0  0  0  0  0  0  0
   12.6504  -19.0122   23.4052 O   0  0  0  0  0  0  0  0  0  0  0  0
   12.4738  -21.1902   24.0767 N   0  0  0  0  0  0  0  0  0  0  0  0
   12.8532  -20.9925   25.4602 C   0  0  1  0  0  0  0  0  0  0  0  0
   11.9856  -20.0326   26.1886 C   0  0  0  0  0  0  0  0  0  0  0  0
   12.2678  -19.8095   27.6271 C   0  0  0  0  0  0  0  0  0  0  0  0
   11.3350  -18.8676   28.2777 C   0  0  0  0  0  0  0  0  0  0  0  0
   10.6406  -19.1289   29.2882 O   0  0  0  0  0  0  0  0  0  0  0  0
   13.0602  -22.2971   26.0889 C   0  0  0  0  0  0  0  0  0  0  0  0
   12.4650  -23.3248   25.6901 O   0  0  0  0  0  0  0  0  0  0  0  0
   11.1809  -17.5697   27.7607 O   0  0  0  0  0  0  0  0  0  0  0  0
   13.9279  -22.4304   27.1542 O   0  0  0  0  0  0  0  0  0  0  0  0
  2 12  2  0
  2  1  1  0
  3  2  1  0
  4  5  1  0
  4  3  2  0
  5 11  2  0
  6  5  1  0
  7  9  1  0
  7  6  1  0
  7  8  1  6
  9 10  2  0
 11 12  1  0
 13  9  1  0
 14 13  1  0
 14 15  1  6
 16 15  1  0
 16 17  2  0
 18 17  1  0
 19 18  1  0
 20 19  2  0
 20 16  1  0
 21 14  1  0
 22 21  2  0
 23 21  1  0
 24 23  1  0
 24 25  1  1
 26 25  1  0
 27 31  1  0
 27 26  1  0
 28 27  2  0
 29 24  1  0
 29 32  1  0
 30 29  2  0
M  END
$$$$
