YHE.pdb
     RDKit          3D

 32 33  0  0  1  0  0  0  0  0999 V2000
    5.7211  -10.2366   26.8970 O   0  0  0  0  0  0  0  0  0  0  0  0
    6.0973  -11.5811   26.7328 C   0  0  0  0  0  0  0  0  0  0  0  0
    7.2049  -11.9123   25.9815 C   0  0  0  0  0  0  0  0  0  0  0  0
    7.5871  -13.2493   25.8126 C   0  0  0  0  0  0  0  0  0  0  0  0
    6.8473  -14.2405   26.4038 C   0  0  0  0  0  0  0  0  0  0  0  0
    7.2441  -15.6489   26.2303 C   0  0  0  0  0  0  0  0  0  0  0  0
    6.3495  -16.2513   25.1455 C   0  0  2  0  0  0  0  0  0  0  0  0
    5.8640  -17.5601   25.5361 N   0  0  0  0  0  0  0  0  0  0  0  0
    7.1581  -16.3195   23.9026 C   0  0  0  0  0  0  0  0  0  0  0  0
    7.8598  -17.3377   23.6831 O   0  0  0  0  0  0  0  0  0  0  0  0
    5.7502  -13.9178   27.1483 C   0  0  0  0  0  0  0  0  0  0  0  0
    5.3615  -12.5890   27.3224 C   0  0  0  0  0  0  0  0  0  0  0  0
    7.1039  -15.2225   23.0074 N   0  0  0  0  0  0  0  0  0  0  0  0
    7.7563  -15.2800   21.7226 C   0  0  1  0  0  0  0  0  0  0  0  0
    7.4626  -14.1153   20.8670 C   0  0  0  0  0  0  0  0  0  0  0  0
    7.9479  -14.2716   19.4957 C   0  0  0  0  0  0  0  0  0  0  0  0
    8.7138  -15.2349   18.9438 C   0  0  0  0  0  0  0  0  0  0  0  0
    8.9210  -14.9348   17.6265 N   0  0  0  0  0  0  0  0  0  0  0  0
    8.2868  -13.7860   17.3543 C   0  0  0  0  0  0  0  0  0  0  0  0
    7.7005  -13.3875   18.4829 N   0  0  0  0  0  0  0  0  0  0  0  0
    9.2224  -15.4455   21.9784 C   0  0  0  0  0  0  0  0  0  0  0  0
    9.7442  -14.6597   22.7955 O   0  0  0  0  0  0  0  0  0  0  0  0
   10.0201  -16.4173   21.3599 N   0  0  0  0  0  0  0  0  0  0  0  0
   11.4096  -16.6728   21.6778 C   0  0  1  0  0  0  0  0  0  0  0  0
   11.6391  -17.9690   22.3646 C   0  0  0  0  0  0  0  0  0  0  0  0
   13.0442  -18.3854   22.5901 C   0  0  0  0  0  0  0  0  0  0  0  0
   13.3676  -18.6471   24.0070 C   0  0  0  0  0  0  0  0  0  0  0  0
   12.5338  -18.9737   24.8844 O   0  0  0  0  0  0  0  0  0  0  0  0
   12.2266  -16.4038   20.4945 C   0  0  0  0  0  0  0  0  0  0  0  0
   11.8472  -16.7207   19.3434 O   0  0  0  0  0  0  0  0  0  0  0  0
   14.6961  -18.5341   24.4515 O   0  0  0  0  0  0  0  0  0  0  0  0
   13.4551  -15.7864   20.6182 O   0  0  0  0  0  0  0  0  0  0  0  0
  2 12  2  0
  2  1  1  0
  3  2  1  0
  4  5  1  0
  4  3  2  0
  5 11  2  0
  6  5  1  0
  7  9  1  0
  7  6  1  0
  7  8  1  1
  9 10  2  0
 11 12  1  0
 13  9  1  0
 14 13  1  0
 14 15  1  1
 16 15  1  0
 16 17  2  0
 18 17  1  0
 19 18  1  0
 20 19  2  0
 20 16  1  0
 21 14  1  0
 22 21  2  0
 23 21  1  0
 24 23  1  0
 24 25  1  6
 26 25  1  0
 27 31  1  0
 27 26  1  0
 28 27  2  0
 29 24  1  0
 29 32  1  0
 30 29  2  0
M  END
$$$$
