CEP.pdb
     RDKit          3D

 23 23  0  0  1  0  0  0  0  0999 V2000
   23.0659  -13.2267  -17.6833 N   0  0  0  0  0  0  0  0  0  0  0  0
   23.2171  -12.3614  -16.5263 C   0  0  1  0  0  0  0  0  0  0  0  0
   24.6127  -12.3970  -15.9472 C   0  0  0  0  0  0  0  0  0  0  0  0
   24.9496  -13.9459  -15.0844 S   0  0  0  0  0  0  0  0  0  0  0  0
   22.9220  -10.9731  -16.9380 C   0  0  0  0  0  0  0  0  0  0  0  0
   23.4943  -10.4471  -17.9542 O   0  0  0  0  0  0  0  0  0  0  0  0
   21.9882  -10.2039  -16.1953 N   0  0  0  0  0  0  0  0  0  0  0  0
   21.5662   -8.8637  -16.5958 C   0  0  1  0  0  0  0  0  0  0  0  0
   20.1134   -8.8387  -16.9361 C   0  0  0  0  0  0  0  0  0  0  0  0
   19.3081   -9.3677  -15.7530 C   0  0  0  0  0  0  0  0  0  0  0  0
   17.8858   -9.1955  -16.0933 C   0  0  0  0  0  0  0  0  0  0  0  0
   17.1493  -10.2316  -16.0829 O   0  0  0  0  0  0  0  0  0  0  0  0
   21.9351   -7.8567  -15.5708 C   0  0  0  0  0  0  0  0  0  0  0  0
   22.1786   -8.3363  -14.4128 O   0  0  0  0  0  0  0  0  0  0  0  0
   17.3179   -7.9615  -16.4210 O   0  0  0  0  0  0  0  0  0  0  0  0
   22.0405   -6.4749  -15.7689 N   0  0  0  0  0  0  0  0  0  0  0  0
   21.7994   -5.7169  -16.9633 C   0  0  0  0  0  0  0  0  0  0  0  0
   22.6470   -4.4412  -16.8199 C   0  0  0  0  0  0  0  0  0  0  0  0
   23.4867   -4.7694  -15.6142 C   0  0  0  0  0  0  0  0  0  0  0  0
   22.4450   -5.5093  -14.7561 C   0  0  1  0  0  0  0  0  0  0  0  0
   21.3686   -4.5605  -14.4082 C   0  0  0  0  0  0  0  0  0  0  0  0
   21.6181   -3.6578  -13.3658 O   0  0  0  0  0  0  0  0  0  0  0  0
   20.2454   -4.4975  -14.9729 O   0  0  0  0  0  0  0  0  0  0  0  0
  2  5  1  0
  2  1  1  6
  2  3  1  0
  4  3  1  0
  5  6  2  0
  7  8  1  0
  7  5  1  0
  8 13  1  0
  8  9  1  1
 10  9  1  0
 10 11  1  0
 11 15  1  0
 11 12  2  0
 13 14  2  0
 13 16  1  0
 16 20  1  0
 16 17  1  0
 17 18  1  0
 19 18  1  0
 20 19  1  0
 21 22  1  0
 20 21  1  6
 23 21  2  0
M  END
$$$$
