CEP.pdb
     RDKit          3D

 23 23  0  0  1  0  0  0  0  0999 V2000
   22.7209  -32.8128  -16.1655 N   0  0  0  0  0  0  0  0  0  0  0  0
   22.3233  -33.7725  -15.1500 C   0  0  1  0  0  0  0  0  0  0  0  0
   23.0865  -35.0737  -15.2437 C   0  0  0  0  0  0  0  0  0  0  0  0
   22.7729  -35.9334  -16.7993 S   0  0  0  0  0  0  0  0  0  0  0  0
   22.5793  -33.1804  -13.8204 C   0  0  0  0  0  0  0  0  0  0  0  0
   23.5406  -32.3568  -13.6353 O   0  0  0  0  0  0  0  0  0  0  0  0
   21.7470  -33.5292  -12.7244 N   0  0  0  0  0  0  0  0  0  0  0  0
   21.8782  -32.9212  -11.4025 C   0  0  1  0  0  0  0  0  0  0  0  0
   20.5489  -32.7959  -10.7359 C   0  0  0  0  0  0  0  0  0  0  0  0
   20.7348  -32.1904   -9.3477 C   0  0  0  0  0  0  0  0  0  0  0  0
   19.3997  -32.1187   -8.7309 C   0  0  0  0  0  0  0  0  0  0  0  0
   19.1946  -32.8191   -7.6900 O   0  0  0  0  0  0  0  0  0  0  0  0
   22.8716  -33.6477  -10.5743 C   0  0  0  0  0  0  0  0  0  0  0  0
   23.0066  -34.8842  -10.8624 O   0  0  0  0  0  0  0  0  0  0  0  0
   18.3637  -31.3252   -9.2308 O   0  0  0  0  0  0  0  0  0  0  0  0
   23.6487  -33.1019   -9.5456 N   0  0  0  0  0  0  0  0  0  0  0  0
   23.5822  -31.7900   -8.9679 C   0  0  0  0  0  0  0  0  0  0  0  0
   24.9854  -31.5186   -8.3990 C   0  0  0  0  0  0  0  0  0  0  0  0
   25.7711  -32.6694   -8.9690 C   0  0  0  0  0  0  0  0  0  0  0  0
   24.7256  -33.7925   -8.8491 C   0  0  1  0  0  0  0  0  0  0  0  0
   24.4349  -34.0083   -7.4177 C   0  0  0  0  0  0  0  0  0  0  0  0
   25.4136  -34.6570   -6.6527 O   0  0  0  0  0  0  0  0  0  0  0  0
   23.3791  -33.6563   -6.8299 O   0  0  0  0  0  0  0  0  0  0  0  0
  2  5  1  0
  2  1  1  6
  2  3  1  0
  4  3  1  0
  5  6  2  0
  7  8  1  0
  7  5  1  0
  8 13  1  0
  8  9  1  1
 10  9  1  0
 10 11  1  0
 11 15  1  0
 11 12  2  0
 13 14  2  0
 13 16  1  0
 16 20  1  0
 16 17  1  0
 17 18  1  0
 19 18  1  0
 20 19  1  0
 21 22  1  0
 20 21  1  1
 23 21  2  0
M  END
$$$$
