CEP.pdb
     RDKit          3D

 23 23  0  0  1  0  0  0  0  0999 V2000
   17.7991  -12.9293  -14.5614 N   0  0  0  0  0  0  0  0  0  0  0  0
   17.6159  -11.5832  -15.0759 C   0  0  1  0  0  0  0  0  0  0  0  0
   16.2070  -11.3283  -15.5599 C   0  0  0  0  0  0  0  0  0  0  0  0
   15.7518  -12.4165  -16.9258 S   0  0  0  0  0  0  0  0  0  0  0  0
   17.9141  -10.6232  -13.9926 C   0  0  0  0  0  0  0  0  0  0  0  0
   17.4607  -10.7973  -12.8090 O   0  0  0  0  0  0  0  0  0  0  0  0
   18.7169   -9.4845  -14.2648 N   0  0  0  0  0  0  0  0  0  0  0  0
   18.9895   -8.4489  -13.2710 C   0  0  1  0  0  0  0  0  0  0  0  0
   20.1602   -7.6152  -13.6730 C   0  0  0  0  0  0  0  0  0  0  0  0
   20.3778   -6.5166  -12.6366 C   0  0  0  0  0  0  0  0  0  0  0  0
   21.5376   -5.7289  -13.0865 C   0  0  0  0  0  0  0  0  0  0  0  0
   22.2316   -6.1980  -14.0427 O   0  0  0  0  0  0  0  0  0  0  0  0
   17.7767   -7.6419  -12.9910 C   0  0  0  0  0  0  0  0  0  0  0  0
   16.9991   -7.4800  -13.9907 O   0  0  0  0  0  0  0  0  0  0  0  0
   21.9031   -4.5057  -12.5182 O   0  0  0  0  0  0  0  0  0  0  0  0
   17.4278   -7.0721  -11.7608 N   0  0  0  0  0  0  0  0  0  0  0  0
   18.1108   -7.1629  -10.5020 C   0  0  0  0  0  0  0  0  0  0  0  0
   17.0307   -6.9383   -9.4299 C   0  0  0  0  0  0  0  0  0  0  0  0
   15.7712   -6.9923  -10.2529 C   0  0  0  0  0  0  0  0  0  0  0  0
   16.2463   -6.2554  -11.5179 C   0  0  1  0  0  0  0  0  0  0  0  0
   16.5784   -4.8645  -11.1503 C   0  0  0  0  0  0  0  0  0  0  0  0
   15.5103   -3.9851  -10.9274 O   0  0  0  0  0  0  0  0  0  0  0  0
   17.7433   -4.4058  -11.0210 O   0  0  0  0  0  0  0  0  0  0  0  0
  2  5  1  0
  2  1  1  1
  2  3  1  0
  4  3  1  0
  5  6  2  0
  7  8  1  0
  7  5  1  0
  8 13  1  0
  8  9  1  6
 10  9  1  0
 10 11  1  0
 11 15  1  0
 11 12  2  0
 13 14  2  0
 13 16  1  0
 16 20  1  0
 16 17  1  0
 17 18  1  0
 19 18  1  0
 20 19  1  0
 21 22  1  0
 20 21  1  1
 23 21  2  0
M  END
$$$$
