CEP.pdb
     RDKit          3D

 23 23  0  0  1  0  0  0  0  0999 V2000
   24.9591  -12.4973  -15.6656 N   0  0  0  0  0  0  0  0  0  0  0  0
   25.2447  -11.2396  -16.3341 C   0  0  1  0  0  0  0  0  0  0  0  0
   26.1022  -11.4134  -17.5665 C   0  0  0  0  0  0  0  0  0  0  0  0
   27.6908  -12.1801  -17.1848 S   0  0  0  0  0  0  0  0  0  0  0  0
   23.9643  -10.6257  -16.7438 C   0  0  0  0  0  0  0  0  0  0  0  0
   23.0352  -11.3243  -17.2782 O   0  0  0  0  0  0  0  0  0  0  0  0
   23.7565   -9.2357  -16.5442 N   0  0  0  0  0  0  0  0  0  0  0  0
   22.4392   -8.6094  -16.6286 C   0  0  1  0  0  0  0  0  0  0  0  0
   21.4855   -9.2355  -15.6665 C   0  0  0  0  0  0  0  0  0  0  0  0
   20.0984   -8.6314  -15.8647 C   0  0  0  0  0  0  0  0  0  0  0  0
   19.2040   -9.2893  -14.8974 C   0  0  0  0  0  0  0  0  0  0  0  0
   18.5366   -8.5442  -14.1129 O   0  0  0  0  0  0  0  0  0  0  0  0
   22.5341   -7.1375  -16.4701 C   0  0  0  0  0  0  0  0  0  0  0  0
   23.2775   -6.7498  -15.5071 O   0  0  0  0  0  0  0  0  0  0  0  0
   19.0575  -10.6759  -14.8060 O   0  0  0  0  0  0  0  0  0  0  0  0
   21.9021   -6.1769  -17.2686 N   0  0  0  0  0  0  0  0  0  0  0  0
   20.9696   -6.3722  -18.3417 C   0  0  0  0  0  0  0  0  0  0  0  0
   21.1053   -5.1287  -19.2371 C   0  0  0  0  0  0  0  0  0  0  0  0
   22.3295   -4.4708  -18.6581 C   0  0  0  0  0  0  0  0  0  0  0  0
   22.0932   -4.7369  -17.1607 C   0  0  1  0  0  0  0  0  0  0  0  0
   20.8663   -4.0265  -16.7486 C   0  0  0  0  0  0  0  0  0  0  0  0
   19.6996   -4.7887  -16.6018 O   0  0  0  0  0  0  0  0  0  0  0  0
   20.7845   -2.7916  -16.5188 O   0  0  0  0  0  0  0  0  0  0  0  0
  2  5  1  0
  2  1  1  6
  2  3  1  0
  4  3  1  0
  5  6  2  0
  7  8  1  0
  7  5  1  0
  8 13  1  0
  8  9  1  1
 10  9  1  0
 10 11  1  0
 11 15  1  0
 11 12  2  0
 13 14  2  0
 13 16  1  0
 16 20  1  0
 16 17  1  0
 17 18  1  0
 19 18  1  0
 20 19  1  0
 21 22  1  0
 20 21  1  6
 23 21  2  0
M  END
$$$$
