CEP.pdb
     RDKit          3D

 23 23  0  0  1  0  0  0  0  0999 V2000
   25.9087  -11.5983  -18.1888 N   0  0  0  0  0  0  0  0  0  0  0  0
   25.5331  -11.1630  -16.8548 C   0  0  1  0  0  0  0  0  0  0  0  0
   26.6951  -10.5876  -16.0782 C   0  0  0  0  0  0  0  0  0  0  0  0
   27.9560  -11.8294  -15.7248 S   0  0  0  0  0  0  0  0  0  0  0  0
   24.4957  -10.1177  -16.9781 C   0  0  0  0  0  0  0  0  0  0  0  0
   24.6078   -9.1696  -17.8297 O   0  0  0  0  0  0  0  0  0  0  0  0
   23.3523  -10.1608  -16.1379 N   0  0  0  0  0  0  0  0  0  0  0  0
   22.3027   -9.1450  -16.1721 C   0  0  1  0  0  0  0  0  0  0  0  0
   21.0059   -9.6976  -15.6822 C   0  0  0  0  0  0  0  0  0  0  0  0
   20.4861  -10.7275  -16.6809 C   0  0  0  0  0  0  0  0  0  0  0  0
   19.2828  -11.3311  -16.0844 C   0  0  0  0  0  0  0  0  0  0  0  0
   19.3303  -12.5663  -15.7874 O   0  0  0  0  0  0  0  0  0  0  0  0
   22.7181   -7.9201  -15.4457 C   0  0  0  0  0  0  0  0  0  0  0  0
   23.6172   -8.1034  -14.5579 O   0  0  0  0  0  0  0  0  0  0  0  0
   18.1086  -10.6166  -15.8327 O   0  0  0  0  0  0  0  0  0  0  0  0
   22.2251   -6.6267  -15.6552 N   0  0  0  0  0  0  0  0  0  0  0  0
   21.1841   -6.1942  -16.5432 C   0  0  0  0  0  0  0  0  0  0  0  0
   21.4887   -4.7173  -16.8471 C   0  0  0  0  0  0  0  0  0  0  0  0
   22.8646   -4.5639  -16.2555 C   0  0  0  0  0  0  0  0  0  0  0  0
   22.7089   -5.4249  -14.9892 C   0  0  1  0  0  0  0  0  0  0  0  0
   21.6886   -4.8008  -14.1235 C   0  0  0  0  0  0  0  0  0  0  0  0
   22.1104   -3.7730  -13.2694 O   0  0  0  0  0  0  0  0  0  0  0  0
   20.4709   -5.1178  -14.0913 O   0  0  0  0  0  0  0  0  0  0  0  0
  2  5  1  0
  2  1  1  6
  2  3  1  0
  4  3  1  0
  5  6  2  0
  7  8  1  0
  7  5  1  0
  8 13  1  0
  8  9  1  1
 10  9  1  0
 10 11  1  0
 11 15  1  0
 11 12  2  0
 13 14  2  0
 13 16  1  0
 16 20  1  0
 16 17  1  0
 17 18  1  0
 19 18  1  0
 20 19  1  0
 21 22  1  0
 20 21  1  1
 23 21  2  0
M  END
$$$$
