CEP.pdb
     RDKit          3D

 23 23  0  0  1  0  0  0  0  0999 V2000
   18.6321  -15.6186  -16.5797 N   0  0  0  0  0  0  0  0  0  0  0  0
   18.0498  -14.5311  -15.8127 C   0  0  1  0  0  0  0  0  0  0  0  0
   18.2425  -14.6969  -14.3229 C   0  0  0  0  0  0  0  0  0  0  0  0
   17.4192  -16.1742  -13.6927 S   0  0  0  0  0  0  0  0  0  0  0  0
   18.6967  -13.2681  -16.2255 C   0  0  0  0  0  0  0  0  0  0  0  0
   19.9286  -13.2357  -16.5691 O   0  0  0  0  0  0  0  0  0  0  0  0
   17.9425  -12.0655  -16.2418 N   0  0  0  0  0  0  0  0  0  0  0  0
   18.5077  -10.7789  -16.6415 C   0  0  1  0  0  0  0  0  0  0  0  0
   17.4425   -9.8534  -17.1274 C   0  0  0  0  0  0  0  0  0  0  0  0
   16.8120  -10.4286  -18.3923 C   0  0  0  0  0  0  0  0  0  0  0  0
   15.5328  -11.0384  -17.9925 C   0  0  0  0  0  0  0  0  0  0  0  0
   14.6231  -10.2643  -17.5574 O   0  0  0  0  0  0  0  0  0  0  0  0
   19.3279  -10.1924  -15.5535 C   0  0  0  0  0  0  0  0  0  0  0  0
   19.0419  -10.6120  -14.3820 O   0  0  0  0  0  0  0  0  0  0  0  0
   15.2776  -12.4101  -18.0704 O   0  0  0  0  0  0  0  0  0  0  0  0
   20.3573   -9.2559  -15.7063 N   0  0  0  0  0  0  0  0  0  0  0  0
   20.8821   -8.6859  -16.9141 C   0  0  0  0  0  0  0  0  0  0  0  0
   22.3251   -8.2701  -16.5805 C   0  0  0  0  0  0  0  0  0  0  0  0
   22.5203   -8.9094  -15.2315 C   0  0  0  0  0  0  0  0  0  0  0  0
   21.1290   -8.6705  -14.6184 C   0  0  1  0  0  0  0  0  0  0  0  0
   20.9205   -7.2147  -14.4882 C   0  0  0  0  0  0  0  0  0  0  0  0
   21.5045   -6.5767  -13.3856 O   0  0  0  0  0  0  0  0  0  0  0  0
   20.2606   -6.5011  -15.2880 O   0  0  0  0  0  0  0  0  0  0  0  0
  2  5  1  0
  2  1  1  6
  2  3  1  0
  4  3  1  0
  5  6  2  0
  7  8  1  0
  7  5  1  0
  8 13  1  0
  8  9  1  1
 10  9  1  0
 10 11  1  0
 11 15  1  0
 11 12  2  0
 13 14  2  0
 13 16  1  0
 16 20  1  0
 16 17  1  0
 17 18  1  0
 19 18  1  0
 20 19  1  0
 21 22  1  0
 20 21  1  6
 23 21  2  0
M  END
$$$$
