CEP.pdb
     RDKit          3D

 23 23  0  0  1  0  0  0  0  0999 V2000
   26.2605  -20.1947  -15.5753 N   0  0  0  0  0  0  0  0  0  0  0  0
   25.4093  -21.2746  -15.1068 C   0  0  1  0  0  0  0  0  0  0  0  0
   26.1740  -22.3367  -14.3510 C   0  0  0  0  0  0  0  0  0  0  0  0
   27.6200  -22.9114  -15.2653 S   0  0  0  0  0  0  0  0  0  0  0  0
   24.3882  -20.7069  -14.2017 C   0  0  0  0  0  0  0  0  0  0  0  0
   24.6003  -19.6195  -13.5620 O   0  0  0  0  0  0  0  0  0  0  0  0
   23.1478  -21.3768  -14.0344 N   0  0  0  0  0  0  0  0  0  0  0  0
   21.8861  -20.6711  -13.8232 C   0  0  1  0  0  0  0  0  0  0  0  0
   21.7096  -19.5778  -14.8235 C   0  0  0  0  0  0  0  0  0  0  0  0
   20.3725  -18.8834  -14.5824 C   0  0  0  0  0  0  0  0  0  0  0  0
   20.2358  -17.8479  -15.6203 C   0  0  0  0  0  0  0  0  0  0  0  0
   19.1374  -17.2102  -15.6734 O   0  0  0  0  0  0  0  0  0  0  0  0
   20.7422  -21.6151  -13.7937 C   0  0  0  0  0  0  0  0  0  0  0  0
   20.7120  -22.4497  -14.7596 O   0  0  0  0  0  0  0  0  0  0  0  0
   21.2458  -17.5387  -16.5351 O   0  0  0  0  0  0  0  0  0  0  0  0
   19.7356  -21.6651  -12.8221 N   0  0  0  0  0  0  0  0  0  0  0  0
   19.4825  -20.7548  -11.7420 C   0  0  0  0  0  0  0  0  0  0  0  0
   18.7428  -21.5782  -10.6737 C   0  0  0  0  0  0  0  0  0  0  0  0
   18.8937  -22.9765  -11.2110 C   0  0  0  0  0  0  0  0  0  0  0  0
   18.7209  -22.7048  -12.7161 C   0  0  1  0  0  0  0  0  0  0  0  0
   17.3541  -22.1954  -12.9442 C   0  0  0  0  0  0  0  0  0  0  0  0
   16.3066  -23.1259  -12.9128 O   0  0  0  0  0  0  0  0  0  0  0  0
   17.0544  -20.9929  -13.1644 O   0  0  0  0  0  0  0  0  0  0  0  0
  2  5  1  0
  2  1  1  1
  2  3  1  0
  4  3  1  0
  5  6  2  0
  7  8  1  0
  7  5  1  0
  8 13  1  0
  8  9  1  6
 10  9  1  0
 10 11  1  0
 11 15  1  0
 11 12  2  0
 13 14  2  0
 13 16  1  0
 16 20  1  0
 16 17  1  0
 17 18  1  0
 19 18  1  0
 20 19  1  0
 21 22  1  0
 20 21  1  1
 23 21  2  0
M  END
$$$$
