CEP.pdb
     RDKit          3D

 23 23  0  0  1  0  0  0  0  0999 V2000
   25.7630  -29.4744  -17.1496 N   0  0  0  0  0  0  0  0  0  0  0  0
   26.9277  -28.6983  -16.7603 C   0  0  1  0  0  0  0  0  0  0  0  0
   28.2259  -29.3201  -17.2210 C   0  0  0  0  0  0  0  0  0  0  0  0
   28.5409  -30.9056  -16.4185 S   0  0  0  0  0  0  0  0  0  0  0  0
   26.8180  -27.3541  -17.3646 C   0  0  0  0  0  0  0  0  0  0  0  0
   26.3539  -27.1942  -18.5460 O   0  0  0  0  0  0  0  0  0  0  0  0
   27.2349  -26.2160  -16.6256 N   0  0  0  0  0  0  0  0  0  0  0  0
   27.0816  -24.8492  -17.1185 C   0  0  1  0  0  0  0  0  0  0  0  0
   26.3575  -24.0002  -16.1275 C   0  0  0  0  0  0  0  0  0  0  0  0
   26.2325  -22.5810  -16.6739 C   0  0  0  0  0  0  0  0  0  0  0  0
   25.4984  -21.7984  -15.6655 C   0  0  0  0  0  0  0  0  0  0  0  0
   25.3251  -20.5600  -15.8944 O   0  0  0  0  0  0  0  0  0  0  0  0
   28.3884  -24.2752  -17.5227 C   0  0  0  0  0  0  0  0  0  0  0  0
   29.3615  -24.5612  -16.7470 O   0  0  0  0  0  0  0  0  0  0  0  0
   24.9900  -22.3489  -14.4860 O   0  0  0  0  0  0  0  0  0  0  0  0
   28.6302  -23.4809  -18.6498 N   0  0  0  0  0  0  0  0  0  0  0  0
   27.6892  -22.9514  -19.5951 C   0  0  0  0  0  0  0  0  0  0  0  0
   28.4844  -22.7424  -20.8953 C   0  0  0  0  0  0  0  0  0  0  0  0
   29.7788  -23.4410  -20.5742 C   0  0  0  0  0  0  0  0  0  0  0  0
   29.9426  -23.0359  -19.0985 C   0  0  1  0  0  0  0  0  0  0  0  0
   30.1027  -21.5697  -19.0324 C   0  0  0  0  0  0  0  0  0  0  0  0
   28.9699  -20.8124  -18.7053 O   0  0  0  0  0  0  0  0  0  0  0  0
   31.1748  -20.9458  -19.2461 O   0  0  0  0  0  0  0  0  0  0  0  0
  2  5  1  0
  2  1  1  6
  2  3  1  0
  4  3  1  0
  5  6  2  0
  7  8  1  0
  7  5  1  0
  8 13  1  0
  8  9  1  1
 10  9  1  0
 10 11  1  0
 11 15  1  0
 11 12  2  0
 13 14  2  0
 13 16  1  0
 16 20  1  0
 16 17  1  0
 17 18  1  0
 19 18  1  0
 20 19  1  0
 21 22  1  0
 20 21  1  6
 23 21  2  0
M  END
$$$$
