CEP.pdb
     RDKit          3D

 23 23  0  0  1  0  0  0  0  0999 V2000
   18.1061  -12.6024  -14.7346 N   0  0  0  0  0  0  0  0  0  0  0  0
   17.7066  -11.2724  -15.1609 C   0  0  1  0  0  0  0  0  0  0  0  0
   16.2209  -11.1607  -15.4146 C   0  0  0  0  0  0  0  0  0  0  0  0
   15.6816  -12.2280  -16.7664 S   0  0  0  0  0  0  0  0  0  0  0  0
   18.0682  -10.3116  -14.0977 C   0  0  0  0  0  0  0  0  0  0  0  0
   17.7249  -10.5088  -12.8812 O   0  0  0  0  0  0  0  0  0  0  0  0
   18.8090   -9.1462  -14.4269 N   0  0  0  0  0  0  0  0  0  0  0  0
   19.1023   -8.0918  -13.4590 C   0  0  1  0  0  0  0  0  0  0  0  0
   20.2844   -7.2867  -13.8853 C   0  0  0  0  0  0  0  0  0  0  0  0
   20.5372   -6.1810  -12.8647 C   0  0  0  0  0  0  0  0  0  0  0  0
   21.6790   -5.3947  -13.3611 C   0  0  0  0  0  0  0  0  0  0  0  0
   21.9409   -4.3006  -12.7692 O   0  0  0  0  0  0  0  0  0  0  0  0
   17.9037   -7.2590  -13.1936 C   0  0  0  0  0  0  0  0  0  0  0  0
   17.1214   -7.1134  -14.1922 O   0  0  0  0  0  0  0  0  0  0  0  0
   22.4765   -5.7928  -14.4372 O   0  0  0  0  0  0  0  0  0  0  0  0
   17.5722   -6.6499  -11.9775 N   0  0  0  0  0  0  0  0  0  0  0  0
   18.2911   -6.6715  -10.7358 C   0  0  0  0  0  0  0  0  0  0  0  0
   17.2344   -6.4332   -9.6435 C   0  0  0  0  0  0  0  0  0  0  0  0
   15.9552   -6.5542  -10.4282 C   0  0  0  0  0  0  0  0  0  0  0  0
   16.3753   -5.8562  -11.7340 C   0  0  1  0  0  0  0  0  0  0  0  0
   16.6779   -4.4432  -11.4310 C   0  0  0  0  0  0  0  0  0  0  0  0
   18.0258   -4.0599  -11.4277 O   0  0  0  0  0  0  0  0  0  0  0  0
   15.8226   -3.5558  -11.1757 O   0  0  0  0  0  0  0  0  0  0  0  0
  2  5  1  0
  2  1  1  1
  2  3  1  0
  4  3  1  0
  5  6  2  0
  7  8  1  0
  7  5  1  0
  8 13  1  0
  8  9  1  6
 10  9  1  0
 10 11  1  0
 11 15  1  0
 11 12  2  0
 13 14  2  0
 13 16  1  0
 16 20  1  0
 16 17  1  0
 17 18  1  0
 19 18  1  0
 20 19  1  0
 21 22  1  0
 20 21  1  1
 23 21  2  0
M  END
$$$$
