CEP.pdb
     RDKit          3D

 23 23  0  0  1  0  0  0  0  0999 V2000
   25.7592  -11.5289  -17.2485 N   0  0  0  0  0  0  0  0  0  0  0  0
   25.0391  -10.8926  -16.1591 C   0  0  1  0  0  0  0  0  0  0  0  0
   25.9578  -10.3440  -15.0918 C   0  0  0  0  0  0  0  0  0  0  0  0
   27.2572   -9.3013  -15.7858 S   0  0  0  0  0  0  0  0  0  0  0  0
   24.2496   -9.7718  -16.7111 C   0  0  0  0  0  0  0  0  0  0  0  0
   24.6549   -9.1145  -17.7312 O   0  0  0  0  0  0  0  0  0  0  0  0
   23.0188   -9.4127  -16.1016 N   0  0  0  0  0  0  0  0  0  0  0  0
   22.1947   -8.3013  -16.5707 C   0  0  1  0  0  0  0  0  0  0  0  0
   20.7502   -8.6756  -16.5890 C   0  0  0  0  0  0  0  0  0  0  0  0
   19.9358   -7.5195  -17.1622 C   0  0  0  0  0  0  0  0  0  0  0  0
   18.5277   -7.9500  -17.1667 C   0  0  0  0  0  0  0  0  0  0  0  0
   18.0921   -8.5248  -18.2136 O   0  0  0  0  0  0  0  0  0  0  0  0
   22.4605   -7.0692  -15.7884 C   0  0  0  0  0  0  0  0  0  0  0  0
   22.8309   -7.2701  -14.5831 O   0  0  0  0  0  0  0  0  0  0  0  0
   17.6621   -7.7588  -16.0866 O   0  0  0  0  0  0  0  0  0  0  0  0
   22.3485   -5.7536  -16.2535 N   0  0  0  0  0  0  0  0  0  0  0  0
   21.9466   -5.2897  -17.5506 C   0  0  0  0  0  0  0  0  0  0  0  0
   22.5979   -3.9056  -17.7134 C   0  0  0  0  0  0  0  0  0  0  0  0
   23.5270   -3.8669  -16.5294 C   0  0  0  0  0  0  0  0  0  0  0  0
   22.6451   -4.5589  -15.4747 C   0  0  1  0  0  0  0  0  0  0  0  0
   21.4537   -3.7192  -15.2394 C   0  0  0  0  0  0  0  0  0  0  0  0
   21.5826   -2.6582  -14.3331 O   0  0  0  0  0  0  0  0  0  0  0  0
   20.3321   -3.8799  -15.7876 O   0  0  0  0  0  0  0  0  0  0  0  0
  2  5  1  0
  2  1  1  6
  2  3  1  0
  4  3  1  0
  5  6  2  0
  7  8  1  0
  7  5  1  0
  8 13  1  0
  8  9  1  1
 10  9  1  0
 10 11  1  0
 11 15  1  0
 11 12  2  0
 13 14  2  0
 13 16  1  0
 16 20  1  0
 16 17  1  0
 17 18  1  0
 19 18  1  0
 20 19  1  0
 21 22  1  0
 20 21  1  6
 23 21  2  0
M  END
$$$$
