CEP.pdb
     RDKit          3D

 23 23  0  0  1  0  0  0  0  0999 V2000
   23.4619  -12.1362  -18.0734 N   0  0  0  0  0  0  0  0  0  0  0  0
   23.4362  -11.4078  -16.8169 C   0  0  1  0  0  0  0  0  0  0  0  0
   24.8190  -11.1133  -16.2827 C   0  0  0  0  0  0  0  0  0  0  0  0
   25.6191  -12.5895  -15.6211 S   0  0  0  0  0  0  0  0  0  0  0  0
   22.7406  -10.1222  -17.0350 C   0  0  0  0  0  0  0  0  0  0  0  0
   23.0147   -9.3828  -18.0425 O   0  0  0  0  0  0  0  0  0  0  0  0
   21.7503   -9.6943  -16.1124 N   0  0  0  0  0  0  0  0  0  0  0  0
   21.0156   -8.4401  -16.2605 C   0  0  1  0  0  0  0  0  0  0  0  0
   19.5462   -8.6602  -16.1214 C   0  0  0  0  0  0  0  0  0  0  0  0
   18.8173   -7.3314  -16.2985 C   0  0  0  0  0  0  0  0  0  0  0  0
   17.3802   -7.6075  -16.1348 C   0  0  0  0  0  0  0  0  0  0  0  0
   16.8555   -8.4696  -16.9078 O   0  0  0  0  0  0  0  0  0  0  0  0
   21.5330   -7.4030  -15.3345 C   0  0  0  0  0  0  0  0  0  0  0  0
   21.9571   -7.8483  -14.2155 O   0  0  0  0  0  0  0  0  0  0  0  0
   16.5797   -6.9742  -15.1804 O   0  0  0  0  0  0  0  0  0  0  0  0
   21.5970   -6.0273  -15.5856 N   0  0  0  0  0  0  0  0  0  0  0  0
   21.1895   -5.3075  -16.7583 C   0  0  0  0  0  0  0  0  0  0  0  0
   22.0360   -4.0231  -16.7684 C   0  0  0  0  0  0  0  0  0  0  0  0
   23.0339   -4.3095  -15.6781 C   0  0  0  0  0  0  0  0  0  0  0  0
   22.1249   -5.0289  -14.6657 C   0  0  1  0  0  0  0  0  0  0  0  0
   21.0959   -4.0762  -14.2037 C   0  0  0  0  0  0  0  0  0  0  0  0
   21.4707   -3.1503  -13.2207 O   0  0  0  0  0  0  0  0  0  0  0  0
   19.9096   -4.0290  -14.6218 O   0  0  0  0  0  0  0  0  0  0  0  0
  2  5  1  0
  2  1  1  6
  2  3  1  0
  4  3  1  0
  5  6  2  0
  7  8  1  0
  7  5  1  0
  8 13  1  0
  8  9  1  1
 10  9  1  0
 10 11  1  0
 11 15  1  0
 11 12  2  0
 13 14  2  0
 13 16  1  0
 16 20  1  0
 16 17  1  0
 17 18  1  0
 19 18  1  0
 20 19  1  0
 21 22  1  0
 20 21  1  6
 23 21  2  0
M  END
$$$$
