CEP.pdb
     RDKit          3D

 23 23  0  0  1  0  0  0  0  0999 V2000
   17.7560  -12.4056  -14.6356 N   0  0  0  0  0  0  0  0  0  0  0  0
   17.5896  -11.0698  -15.1816 C   0  0  1  0  0  0  0  0  0  0  0  0
   16.1703  -10.7887  -15.6184 C   0  0  0  0  0  0  0  0  0  0  0  0
   15.6758  -11.8144  -17.0185 S   0  0  0  0  0  0  0  0  0  0  0  0
   17.9561  -10.0887  -14.1388 C   0  0  0  0  0  0  0  0  0  0  0  0
   17.6661  -10.2890  -12.9090 O   0  0  0  0  0  0  0  0  0  0  0  0
   18.6414   -8.9000  -14.5030 N   0  0  0  0  0  0  0  0  0  0  0  0
   19.0232   -7.8750  -13.5345 C   0  0  1  0  0  0  0  0  0  0  0  0
   20.2547   -7.1553  -13.9733 C   0  0  0  0  0  0  0  0  0  0  0  0
   20.5863   -6.0597  -12.9643 C   0  0  0  0  0  0  0  0  0  0  0  0
   21.8426   -5.4345  -13.4103 C   0  0  0  0  0  0  0  0  0  0  0  0
   22.2819   -4.4510  -12.7351 O   0  0  0  0  0  0  0  0  0  0  0  0
   17.8918   -6.9591  -13.2489 C   0  0  0  0  0  0  0  0  0  0  0  0
   17.0943   -6.7720  -14.2284 O   0  0  0  0  0  0  0  0  0  0  0  0
   22.5636   -5.8688  -14.5258 O   0  0  0  0  0  0  0  0  0  0  0  0
   17.6358   -6.3145  -12.0329 N   0  0  0  0  0  0  0  0  0  0  0  0
   18.4083   -6.3360  -10.8238 C   0  0  0  0  0  0  0  0  0  0  0  0
   17.4102   -6.0392   -9.6915 C   0  0  0  0  0  0  0  0  0  0  0  0
   16.0938   -6.1315  -10.4163 C   0  0  0  0  0  0  0  0  0  0  0  0
   16.4785   -5.4749  -11.7542 C   0  0  1  0  0  0  0  0  0  0  0  0
   16.8419   -4.0675  -11.4954 C   0  0  0  0  0  0  0  0  0  0  0  0
   18.1999   -3.7293  -11.5691 O   0  0  0  0  0  0  0  0  0  0  0  0
   16.0301   -3.1477  -11.2142 O   0  0  0  0  0  0  0  0  0  0  0  0
  2  5  1  0
  2  1  1  1
  2  3  1  0
  4  3  1  0
  5  6  2  0
  7  8  1  0
  7  5  1  0
  8 13  1  0
  8  9  1  6
 10  9  1  0
 10 11  1  0
 11 15  1  0
 11 12  2  0
 13 14  2  0
 13 16  1  0
 16 20  1  0
 16 17  1  0
 17 18  1  0
 19 18  1  0
 20 19  1  0
 21 22  1  0
 20 21  1  1
 23 21  2  0
M  END
$$$$
