CEP.pdb
     RDKit          3D

 23 23  0  0  1  0  0  0  0  0999 V2000
   26.0337  -12.2510  -18.1107 N   0  0  0  0  0  0  0  0  0  0  0  0
   25.7962  -11.5030  -16.8883 C   0  0  1  0  0  0  0  0  0  0  0  0
   27.0672  -10.9550  -16.2812 C   0  0  0  0  0  0  0  0  0  0  0  0
   28.0709  -12.2502  -15.5249 S   0  0  0  0  0  0  0  0  0  0  0  0
   24.9046  -10.3665  -17.2004 C   0  0  0  0  0  0  0  0  0  0  0  0
   25.1372   -9.5949  -18.1941 O   0  0  0  0  0  0  0  0  0  0  0  0
   23.7685  -10.1209  -16.3855 N   0  0  0  0  0  0  0  0  0  0  0  0
   22.8161   -9.0459  -16.6536 C   0  0  1  0  0  0  0  0  0  0  0  0
   21.4128   -9.5529  -16.6213 C   0  0  0  0  0  0  0  0  0  0  0  0
   21.2531  -10.6641  -17.6547 C   0  0  0  0  0  0  0  0  0  0  0  0
   20.2768  -11.6202  -17.1062 C   0  0  0  0  0  0  0  0  0  0  0  0
   19.2825  -11.1462  -16.4716 O   0  0  0  0  0  0  0  0  0  0  0  0
   23.0344   -7.8963  -15.7419 C   0  0  0  0  0  0  0  0  0  0  0  0
   23.6172   -8.1873  -14.6438 O   0  0  0  0  0  0  0  0  0  0  0  0
   20.3924  -13.0052  -17.2514 O   0  0  0  0  0  0  0  0  0  0  0  0
   22.6718   -6.5664  -15.9859 N   0  0  0  0  0  0  0  0  0  0  0  0
   21.9803   -6.0160  -17.1165 C   0  0  0  0  0  0  0  0  0  0  0  0
   22.4089   -4.5401  -17.1834 C   0  0  0  0  0  0  0  0  0  0  0  0
   23.5293   -4.5043  -16.1783 C   0  0  0  0  0  0  0  0  0  0  0  0
   22.9538   -5.4429  -15.1027 C   0  0  1  0  0  0  0  0  0  0  0  0
   21.7301   -4.8268  -14.5525 C   0  0  0  0  0  0  0  0  0  0  0  0
   21.8899   -3.8681  -13.5429 O   0  0  0  0  0  0  0  0  0  0  0  0
   20.5554   -5.0936  -14.9174 O   0  0  0  0  0  0  0  0  0  0  0  0
  2  5  1  0
  2  1  1  6
  2  3  1  0
  4  3  1  0
  5  6  2  0
  7  8  1  0
  7  5  1  0
  8 13  1  0
  8  9  1  1
 10  9  1  0
 10 11  1  0
 11 15  1  0
 11 12  2  0
 13 14  2  0
 13 16  1  0
 16 20  1  0
 16 17  1  0
 17 18  1  0
 19 18  1  0
 20 19  1  0
 21 22  1  0
 20 21  1  6
 23 21  2  0
M  END
$$$$
