CEP.pdb
     RDKit          3D

 23 23  0  0  1  0  0  0  0  0999 V2000
   13.6939   -8.5719   -8.3287 N   0  0  0  0  0  0  0  0  0  0  0  0
   14.5508   -7.5403   -8.8871 C   0  0  1  0  0  0  0  0  0  0  0  0
   15.1765   -6.6625   -7.8278 C   0  0  0  0  0  0  0  0  0  0  0  0
   13.9557   -5.6208   -7.0022 S   0  0  0  0  0  0  0  0  0  0  0  0
   15.6365   -8.1942   -9.6472 C   0  0  0  0  0  0  0  0  0  0  0  0
   16.2760   -9.1916   -9.1646 O   0  0  0  0  0  0  0  0  0  0  0  0
   15.9812   -7.7100  -10.9364 N   0  0  0  0  0  0  0  0  0  0  0  0
   16.9649   -8.3663  -11.7944 C   0  0  1  0  0  0  0  0  0  0  0  0
   16.2976   -9.1126  -12.9012 C   0  0  0  0  0  0  0  0  0  0  0  0
   17.3595   -9.7287  -13.8073 C   0  0  0  0  0  0  0  0  0  0  0  0
   16.6451  -10.4848  -14.8495 C   0  0  0  0  0  0  0  0  0  0  0  0
   16.3850  -11.7069  -14.6150 O   0  0  0  0  0  0  0  0  0  0  0  0
   17.9808   -7.4011  -12.2811 C   0  0  0  0  0  0  0  0  0  0  0  0
   17.5936   -6.1847  -12.3082 O   0  0  0  0  0  0  0  0  0  0  0  0
   16.2449   -9.9263  -16.0663 O   0  0  0  0  0  0  0  0  0  0  0  0
   19.2841   -7.7075  -12.6901 N   0  0  0  0  0  0  0  0  0  0  0  0
   19.9355   -8.9854  -12.7344 C   0  0  0  0  0  0  0  0  0  0  0  0
   21.4402   -8.6851  -12.6237 C   0  0  0  0  0  0  0  0  0  0  0  0
   21.4317   -7.2216  -12.2705 C   0  0  0  0  0  0  0  0  0  0  0  0
   20.2682   -6.7396  -13.1554 C   0  0  1  0  0  0  0  0  0  0  0  0
   20.6435   -6.9401  -14.5692 C   0  0  0  0  0  0  0  0  0  0  0  0
   21.4785   -5.9798  -15.1561 O   0  0  0  0  0  0  0  0  0  0  0  0
   20.2737   -7.9041  -15.2891 O   0  0  0  0  0  0  0  0  0  0  0  0
  2  5  1  0
  2  1  1  1
  2  3  1  0
  4  3  1  0
  5  6  2  0
  7  8  1  0
  7  5  1  0
  8 13  1  0
  8  9  1  6
 10  9  1  0
 10 11  1  0
 11 15  1  0
 11 12  2  0
 13 14  2  0
 13 16  1  0
 16 20  1  0
 16 17  1  0
 17 18  1  0
 19 18  1  0
 20 19  1  0
 21 22  1  0
 20 21  1  6
 23 21  2  0
M  END
$$$$
