ISH.pdb
     RDKit          3D

 25 25  0  0  1  0  0  0  0  0999 V2000
    8.3200  -12.1575   20.6950 C   0  0  0  0  0  0  0  0  0  0  0  0
    8.2945  -13.5434   20.0828 C   0  0  0  0  0  0  0  0  0  0  0  0
    8.8951  -13.4691   18.7199 C   0  0  2  0  0  0  0  0  0  0  0  0
    8.1656  -12.4665   17.8522 C   0  0  0  0  0  0  0  0  0  0  0  0
    9.0100  -14.8097   18.0904 C   0  0  2  0  0  0  0  0  0  0  0  0
    7.6733  -15.3443   17.7815 N   0  0  0  0  0  0  0  0  0  0  0  0
    9.7713  -15.8181   18.8331 C   0  0  0  0  0  0  0  0  0  0  0  0
    9.2117  -16.7051   19.5156 O   0  0  0  0  0  0  0  0  0  0  0  0
   13.6334  -16.6755   17.8849 O   0  0  0  0  0  0  0  0  0  0  0  0
   12.8286  -17.5598   18.5800 C   0  0  0  0  0  0  0  0  0  0  0  0
   11.8939  -16.8340   19.5462 C   0  0  2  0  0  0  0  0  0  0  0  0
   11.1916  -15.8144   18.7966 N   0  0  0  0  0  0  0  0  0  0  0  0
   12.7547  -16.2001   20.5604 C   0  0  0  0  0  0  0  0  0  0  0  0
   13.1229  -15.0213   20.4113 O   0  0  0  0  0  0  0  0  0  0  0  0
   13.1451  -16.9422   21.6814 N   0  0  0  0  0  0  0  0  0  0  0  0
   13.9676  -16.3416   22.7028 C   0  0  1  0  0  0  0  0  0  0  0  0
   13.6900  -17.1008   23.9753 C   0  0  0  0  0  0  0  0  0  0  0  0
   12.3446  -16.8127   24.4862 C   0  0  0  0  0  0  0  0  0  0  0  0
   11.3964  -15.9382   24.0403 C   0  0  0  0  0  0  0  0  0  0  0  0
   10.3381  -16.0505   24.8557 N   0  0  0  0  0  0  0  0  0  0  0  0
   10.5855  -16.9665   25.8020 C   0  0  0  0  0  0  0  0  0  0  0  0
   11.8216  -17.4391   25.5780 N   0  0  0  0  0  0  0  0  0  0  0  0
   15.3792  -16.3401   22.3001 C   0  0  0  0  0  0  0  0  0  0  0  0
   16.3018  -15.5185   22.9209 O   0  0  0  0  0  0  0  0  0  0  0  0
   15.7629  -17.0893   21.3825 O   0  0  0  0  0  0  0  0  0  0  0  0
  2  1  1  0
  2  3  1  0
  3  5  1  0
  3  4  1  6
  5  7  1  0
  5  6  1  1
  7  8  2  0
 10  9  1  0
 11 10  1  6
 12 11  1  0
 12  7  1  0
 13 11  1  0
 14 13  2  0
 15 13  1  0
 16 15  1  0
 16 17  1  1
 18 17  1  0
 19 18  2  0
 20 19  1  0
 21 20  1  0
 21 22  2  0
 22 18  1  0
 23 16  1  0
 23 24  1  0
 25 23  2  0
M  END
$$$$
