ISH.pdb
     RDKit          3D

 25 25  0  0  1  0  0  0  0  0999 V2000
    8.4958  -11.9650   19.2737 C   0  0  0  0  0  0  0  0  0  0  0  0
    8.0975  -12.7856   20.4836 C   0  0  0  0  0  0  0  0  0  0  0  0
    8.1284  -14.2282   20.1072 C   0  0  2  0  0  0  0  0  0  0  0  0
    7.2234  -14.5072   18.9267 C   0  0  0  0  0  0  0  0  0  0  0  0
    7.8573  -15.1112   21.2706 C   0  0  2  0  0  0  0  0  0  0  0  0
    6.5111  -14.8496   21.8066 N   0  0  0  0  0  0  0  0  0  0  0  0
    8.8287  -15.0653   22.3671 C   0  0  0  0  0  0  0  0  0  0  0  0
    8.6009  -14.4500   23.4326 O   0  0  0  0  0  0  0  0  0  0  0  0
   10.3411  -17.4043   24.4864 O   0  0  0  0  0  0  0  0  0  0  0  0
   10.5802  -16.0450   24.5748 C   0  0  0  0  0  0  0  0  0  0  0  0
   11.0864  -15.4727   23.2517 C   0  0  2  0  0  0  0  0  0  0  0  0
   10.0781  -15.7309   22.2462 N   0  0  0  0  0  0  0  0  0  0  0  0
   12.3172  -16.2130   22.9222 C   0  0  0  0  0  0  0  0  0  0  0  0
   12.2438  -17.3828   22.5056 O   0  0  0  0  0  0  0  0  0  0  0  0
   13.5556  -15.5810   23.0855 N   0  0  0  0  0  0  0  0  0  0  0  0
   14.7759  -16.2691   22.7421 C   0  0  1  0  0  0  0  0  0  0  0  0
   15.6654  -15.2521   22.0731 C   0  0  0  0  0  0  0  0  0  0  0  0
   15.2121  -14.9626   20.7075 C   0  0  0  0  0  0  0  0  0  0  0  0
   14.2145  -15.5275   19.9670 C   0  0  0  0  0  0  0  0  0  0  0  0
   14.2056  -14.9104   18.7768 N   0  0  0  0  0  0  0  0  0  0  0  0
   15.1640  -13.9745   18.7401 C   0  0  0  0  0  0  0  0  0  0  0  0
   15.7872  -14.0032   19.9284 N   0  0  0  0  0  0  0  0  0  0  0  0
   15.3696  -16.8988   23.9278 C   0  0  0  0  0  0  0  0  0  0  0  0
   14.7786  -16.7854   25.1725 O   0  0  0  0  0  0  0  0  0  0  0  0
   16.4259  -17.5494   23.8207 O   0  0  0  0  0  0  0  0  0  0  0  0
  2  1  1  0
  2  3  1  0
  3  5  1  0
  3  4  1  6
  5  7  1  0
  5  6  1  1
  7  8  2  0
 10  9  1  0
 11 10  1  1
 12 11  1  0
 12  7  1  0
 13 11  1  0
 14 13  2  0
 15 13  1  0
 16 15  1  0
 16 17  1  1
 18 17  1  0
 19 18  2  0
 20 19  1  0
 21 20  1  0
 21 22  2  0
 22 18  1  0
 23 16  1  0
 23 24  1  0
 25 23  2  0
M  END
$$$$
