ISH.pdb
     RDKit          3D

 25 25  0  0  1  0  0  0  0  0999 V2000
    5.9097  -11.4108   26.4648 C   0  0  0  0  0  0  0  0  0  0  0  0
    5.5645  -12.7692   25.8889 C   0  0  0  0  0  0  0  0  0  0  0  0
    6.8287  -13.4398   25.4697 C   0  0  2  0  0  0  0  0  0  0  0  0
    7.5929  -12.5965   24.4721 C   0  0  0  0  0  0  0  0  0  0  0  0
    6.5902  -14.8279   24.9974 C   0  0  2  0  0  0  0  0  0  0  0  0
    5.6727  -15.5273   25.9124 N   0  0  0  0  0  0  0  0  0  0  0  0
    7.7783  -15.6582   24.7804 C   0  0  0  0  0  0  0  0  0  0  0  0
    8.3432  -16.2688   25.7151 O   0  0  0  0  0  0  0  0  0  0  0  0
    9.7470  -15.4266   21.2389 O   0  0  0  0  0  0  0  0  0  0  0  0
    9.8426  -16.6728   21.8313 C   0  0  0  0  0  0  0  0  0  0  0  0
    9.5093  -16.6176   23.3212 C   0  0  2  0  0  0  0  0  0  0  0  0
    8.3296  -15.7939   23.4780 N   0  0  0  0  0  0  0  0  0  0  0  0
   10.6575  -15.9710   23.9806 C   0  0  0  0  0  0  0  0  0  0  0  0
   10.5340  -14.8303   24.4614 O   0  0  0  0  0  0  0  0  0  0  0  0
   11.8751  -16.6577   24.0542 N   0  0  0  0  0  0  0  0  0  0  0  0
   12.7059  -16.5447   25.2279 C   0  0  1  0  0  0  0  0  0  0  0  0
   11.9095  -17.1200   26.3714 C   0  0  0  0  0  0  0  0  0  0  0  0
   11.2612  -16.0623   27.1557 C   0  0  0  0  0  0  0  0  0  0  0  0
   11.1429  -14.7248   26.9117 C   0  0  0  0  0  0  0  0  0  0  0  0
   10.4631  -14.1927   27.9375 N   0  0  0  0  0  0  0  0  0  0  0  0
   10.1476  -15.1491   28.8217 C   0  0  0  0  0  0  0  0  0  0  0  0
   10.6378  -16.3035   28.3438 N   0  0  0  0  0  0  0  0  0  0  0  0
   14.0034  -17.1963   25.0118 C   0  0  0  0  0  0  0  0  0  0  0  0
   15.1431  -16.7589   25.6608 O   0  0  0  0  0  0  0  0  0  0  0  0
   14.0895  -18.1622   24.2308 O   0  0  0  0  0  0  0  0  0  0  0  0
  2  1  1  0
  2  3  1  0
  3  5  1  0
  3  4  1  6
  5  7  1  0
  5  6  1  1
  7  8  2  0
 10  9  1  0
 11 10  1  6
 12 11  1  0
 12  7  1  0
 13 11  1  0
 14 13  2  0
 15 13  1  0
 16 15  1  0
 16 17  1  1
 18 17  1  0
 19 18  2  0
 20 19  1  0
 21 20  1  0
 21 22  2  0
 22 18  1  0
 23 16  1  0
 23 24  1  0
 25 23  2  0
M  END
$$$$
