ISH.pdb
     RDKit          3D

 25 25  0  0  1  0  0  0  0  0999 V2000
    7.5975  -11.2879   26.4477 C   0  0  0  0  0  0  0  0  0  0  0  0
    6.5505  -12.2771   25.9773 C   0  0  0  0  0  0  0  0  0  0  0  0
    7.1787  -13.6270   25.8957 C   0  0  2  0  0  0  0  0  0  0  0  0
    8.4070  -13.6086   25.0119 C   0  0  0  0  0  0  0  0  0  0  0  0
    6.1977  -14.6730   25.5080 C   0  0  2  0  0  0  0  0  0  0  0  0
    4.9557  -14.5201   26.2841 N   0  0  0  0  0  0  0  0  0  0  0  0
    6.6533  -16.0631   25.5989 C   0  0  0  0  0  0  0  0  0  0  0  0
    6.6404  -16.6984   26.6768 O   0  0  0  0  0  0  0  0  0  0  0  0
    6.5171  -18.3232   22.3555 O   0  0  0  0  0  0  0  0  0  0  0  0
    6.5661  -18.9173   23.6035 C   0  0  0  0  0  0  0  0  0  0  0  0
    7.4649  -18.1408   24.5644 C   0  0  2  0  0  0  0  0  0  0  0  0
    7.1303  -16.7379   24.4432 N   0  0  0  0  0  0  0  0  0  0  0  0
    8.8490  -18.3622   24.1098 C   0  0  0  0  0  0  0  0  0  0  0  0
    9.1911  -18.0040   22.9687 O   0  0  0  0  0  0  0  0  0  0  0  0
    9.7600  -18.9761   24.9774 N   0  0  0  0  0  0  0  0  0  0  0  0
   11.1561  -18.6148   24.9433 C   0  0  1  0  0  0  0  0  0  0  0  0
   11.2055  -17.1099   24.8684 C   0  0  0  0  0  0  0  0  0  0  0  0
   11.2780  -16.6467   23.4776 C   0  0  0  0  0  0  0  0  0  0  0  0
   11.3337  -17.3524   22.3108 C   0  0  0  0  0  0  0  0  0  0  0  0
   11.3923  -16.4617   21.3105 N   0  0  0  0  0  0  0  0  0  0  0  0
   11.3755  -15.2166   21.8059 C   0  0  0  0  0  0  0  0  0  0  0  0
   11.3050  -15.3259   23.1416 N   0  0  0  0  0  0  0  0  0  0  0  0
   11.8690  -19.1827   26.0940 C   0  0  0  0  0  0  0  0  0  0  0  0
   13.1813  -19.6047   25.9881 O   0  0  0  0  0  0  0  0  0  0  0  0
   11.2891  -19.2908   27.1906 O   0  0  0  0  0  0  0  0  0  0  0  0
  2  1  1  0
  2  3  1  0
  3  5  1  0
  3  4  1  6
  5  7  1  0
  5  6  1  1
  7  8  2  0
 10  9  1  0
 11 10  1  6
 12 11  1  0
 12  7  1  0
 13 11  1  0
 14 13  2  0
 15 13  1  0
 16 15  1  0
 16 17  1  1
 18 17  1  0
 19 18  2  0
 20 19  1  0
 21 20  1  0
 21 22  2  0
 22 18  1  0
 23 16  1  0
 23 24  1  0
 25 23  2  0
M  END
$$$$
