ISH.pdb
     RDKit          3D

 25 25  0  0  1  0  0  0  0  0999 V2000
    8.4074  -11.8399   21.2226 C   0  0  0  0  0  0  0  0  0  0  0  0
    7.8399  -13.2401   21.1063 C   0  0  0  0  0  0  0  0  0  0  0  0
    8.4848  -13.9163   19.9442 C   0  0  2  0  0  0  0  0  0  0  0  0
    8.2738  -13.1330   18.6666 C   0  0  0  0  0  0  0  0  0  0  0  0
    8.0716  -15.3386   19.8305 C   0  0  2  0  0  0  0  0  0  0  0  0
    6.6554  -15.4284   19.4376 N   0  0  0  0  0  0  0  0  0  0  0  0
    8.2984  -16.1819   21.0077 C   0  0  0  0  0  0  0  0  0  0  0  0
    7.3970  -16.4131   21.8442 O   0  0  0  0  0  0  0  0  0  0  0  0
   12.0864  -17.7296   21.9769 O   0  0  0  0  0  0  0  0  0  0  0  0
   10.9671  -18.5363   22.0738 C   0  0  0  0  0  0  0  0  0  0  0  0
    9.7002  -17.7184   22.3191 C   0  0  2  0  0  0  0  0  0  0  0  0
    9.5719  -16.7698   21.2336 N   0  0  0  0  0  0  0  0  0  0  0  0
    9.9099  -16.9969   23.5867 C   0  0  0  0  0  0  0  0  0  0  0  0
   10.4778  -15.8902   23.5830 O   0  0  0  0  0  0  0  0  0  0  0  0
    9.4626  -17.5751   24.7806 N   0  0  0  0  0  0  0  0  0  0  0  0
    9.5757  -16.8559   26.0258 C   0  0  1  0  0  0  0  0  0  0  0  0
    8.1676  -16.5866   26.4923 C   0  0  0  0  0  0  0  0  0  0  0  0
    7.6238  -15.3714   25.8745 C   0  0  0  0  0  0  0  0  0  0  0  0
    8.1902  -14.4958   24.9941 C   0  0  0  0  0  0  0  0  0  0  0  0
    7.2793  -13.5463   24.7371 N   0  0  0  0  0  0  0  0  0  0  0  0
    6.1561  -13.7923   25.4254 C   0  0  0  0  0  0  0  0  0  0  0  0
    6.3640  -14.9167   26.1281 N   0  0  0  0  0  0  0  0  0  0  0  0
   10.3939  -17.6052   26.9871 C   0  0  0  0  0  0  0  0  0  0  0  0
   10.9751  -18.8127   26.6470 O   0  0  0  0  0  0  0  0  0  0  0  0
   10.5734  -17.1530   28.1332 O   0  0  0  0  0  0  0  0  0  0  0  0
  2  1  1  0
  2  3  1  0
  3  5  1  0
  3  4  1  6
  5  7  1  0
  5  6  1  1
  7  8  2  0
 10  9  1  0
 11 10  1  6
 12 11  1  0
 12  7  1  0
 13 11  1  0
 14 13  2  0
 15 13  1  0
 16 15  1  0
 16 17  1  1
 18 17  1  0
 19 18  2  0
 20 19  1  0
 21 20  1  0
 21 22  2  0
 22 18  1  0
 23 16  1  0
 23 24  1  0
 25 23  2  0
M  END
$$$$
