ISH.pdb
     RDKit          3D

 25 25  0  0  1  0  0  0  0  0999 V2000
    6.1268  -11.3544   27.0249 C   0  0  0  0  0  0  0  0  0  0  0  0
    5.6551  -12.5187   26.1775 C   0  0  0  0  0  0  0  0  0  0  0  0
    6.8456  -13.3182   25.7684 C   0  0  2  0  0  0  0  0  0  0  0  0
    7.8617  -12.4601   25.0463 C   0  0  0  0  0  0  0  0  0  0  0  0
    6.4620  -14.5336   25.0052 C   0  0  2  0  0  0  0  0  0  0  0  0
    5.3621  -15.2372   25.6859 N   0  0  0  0  0  0  0  0  0  0  0  0
    7.5351  -15.4881   24.7126 C   0  0  0  0  0  0  0  0  0  0  0  0
    8.0082  -16.2464   25.5883 O   0  0  0  0  0  0  0  0  0  0  0  0
    9.1133  -15.4076   21.0323 O   0  0  0  0  0  0  0  0  0  0  0  0
    9.3901  -16.6029   21.6707 C   0  0  0  0  0  0  0  0  0  0  0  0
    9.1669  -16.5032   23.1788 C   0  0  2  0  0  0  0  0  0  0  0  0
    8.0760  -15.5787   23.4020 N   0  0  0  0  0  0  0  0  0  0  0  0
   10.4093  -15.9518   23.7476 C   0  0  0  0  0  0  0  0  0  0  0  0
   10.6929  -14.7534   23.5714 O   0  0  0  0  0  0  0  0  0  0  0  0
   11.2538  -16.7933   24.4814 N   0  0  0  0  0  0  0  0  0  0  0  0
   12.5388  -16.3207   24.9350 C   0  0  1  0  0  0  0  0  0  0  0  0
   12.7234  -16.8601   26.3306 C   0  0  0  0  0  0  0  0  0  0  0  0
   11.8755  -16.1486   27.2945 C   0  0  0  0  0  0  0  0  0  0  0  0
   11.3816  -14.8766   27.2697 C   0  0  0  0  0  0  0  0  0  0  0  0
   10.6642  -14.7075   28.3895 N   0  0  0  0  0  0  0  0  0  0  0  0
   10.6880  -15.8298   29.1214 C   0  0  0  0  0  0  0  0  0  0  0  0
   11.4337  -16.7211   28.4500 N   0  0  0  0  0  0  0  0  0  0  0  0
   13.5977  -16.7098   23.9958 C   0  0  0  0  0  0  0  0  0  0  0  0
   14.9005  -16.2788   24.1644 O   0  0  0  0  0  0  0  0  0  0  0  0
   13.3272  -17.4415   23.0252 O   0  0  0  0  0  0  0  0  0  0  0  0
  2  1  1  0
  2  3  1  0
  3  5  1  0
  3  4  1  6
  5  7  1  0
  5  6  1  1
  7  8  2  0
 10  9  1  0
 11 10  1  6
 12 11  1  0
 12  7  1  0
 13 11  1  0
 14 13  2  0
 15 13  1  0
 16 15  1  0
 16 17  1  1
 18 17  1  0
 19 18  2  0
 20 19  1  0
 21 20  1  0
 21 22  2  0
 22 18  1  0
 23 16  1  0
 23 24  1  0
 25 23  2  0
M  END
$$$$
