ISH.pdb
     RDKit          3D

 25 25  0  0  1  0  0  0  0  0999 V2000
    8.0923  -11.4866   19.4897 C   0  0  0  0  0  0  0  0  0  0  0  0
    7.4971  -12.8764   19.5905 C   0  0  0  0  0  0  0  0  0  0  0  0
    8.4870  -13.7668   20.2620 C   0  0  2  0  0  0  0  0  0  0  0  0
    9.8434  -13.6805   19.5965 C   0  0  0  0  0  0  0  0  0  0  0  0
    7.9862  -15.1599   20.3854 C   0  0  2  0  0  0  0  0  0  0  0  0
    6.5974  -15.1610   20.8748 N   0  0  0  0  0  0  0  0  0  0  0  0
    8.7862  -16.0724   21.2071 C   0  0  0  0  0  0  0  0  0  0  0  0
    8.7101  -16.0834   22.4559 O   0  0  0  0  0  0  0  0  0  0  0  0
   10.3681  -19.3527   19.5928 O   0  0  0  0  0  0  0  0  0  0  0  0
   10.3355  -19.2679   20.9729 C   0  0  0  0  0  0  0  0  0  0  0  0
   10.4915  -17.8264   21.4546 C   0  0  2  0  0  0  0  0  0  0  0  0
    9.6861  -16.9857   20.5949 N   0  0  0  0  0  0  0  0  0  0  0  0
   11.9155  -17.4849   21.2905 C   0  0  0  0  0  0  0  0  0  0  0  0
   12.3715  -17.2585   20.1554 O   0  0  0  0  0  0  0  0  0  0  0  0
   12.7348  -17.4210   22.4237 N   0  0  0  0  0  0  0  0  0  0  0  0
   14.0722  -16.8894   22.3272 C   0  0  1  0  0  0  0  0  0  0  0  0
   13.9285  -15.4434   21.9254 C   0  0  0  0  0  0  0  0  0  0  0  0
   14.1215  -15.2690   20.4809 C   0  0  0  0  0  0  0  0  0  0  0  0
   14.3725  -16.1880   19.5036 C   0  0  0  0  0  0  0  0  0  0  0  0
   14.4698  -15.5194   18.3457 N   0  0  0  0  0  0  0  0  0  0  0  0
   14.2887  -14.2087   18.5582 C   0  0  0  0  0  0  0  0  0  0  0  0
   14.0737  -14.0497   19.8734 N   0  0  0  0  0  0  0  0  0  0  0  0
   14.8054  -17.0940   23.5823 C   0  0  0  0  0  0  0  0  0  0  0  0
   16.1874  -17.0727   23.6178 O   0  0  0  0  0  0  0  0  0  0  0  0
   14.1797  -17.2915   24.6406 O   0  0  0  0  0  0  0  0  0  0  0  0
  2  1  1  0
  2  3  1  0
  3  5  1  0
  3  4  1  6
  5  7  1  0
  5  6  1  1
  7  8  2  0
 10  9  1  0
 11 10  1  6
 12 11  1  0
 12  7  1  0
 13 11  1  0
 14 13  2  0
 15 13  1  0
 16 15  1  0
 16 17  1  1
 18 17  1  0
 19 18  2  0
 20 19  1  0
 21 20  1  0
 21 22  2  0
 22 18  1  0
 23 16  1  0
 23 24  1  0
 25 23  2  0
M  END
$$$$
