ISH.pdb
     RDKit          3D

 25 25  0  0  1  0  0  0  0  0999 V2000
    8.0745  -11.8530   19.9718 C   0  0  0  0  0  0  0  0  0  0  0  0
    7.5893  -13.2826   20.1020 C   0  0  0  0  0  0  0  0  0  0  0  0
    8.1864  -14.0868   18.9972 C   0  0  2  0  0  0  0  0  0  0  0  0
    7.8601  -13.4901   17.6453 C   0  0  0  0  0  0  0  0  0  0  0  0
    7.8282  -15.5246   19.1013 C   0  0  2  0  0  0  0  0  0  0  0  0
    6.4016  -15.7185   18.7923 N   0  0  0  0  0  0  0  0  0  0  0  0
    8.1391  -16.1861   20.3717 C   0  0  0  0  0  0  0  0  0  0  0  0
    7.6209  -15.8277   21.4527 O   0  0  0  0  0  0  0  0  0  0  0  0
    9.3980  -19.9408   20.5377 O   0  0  0  0  0  0  0  0  0  0  0  0
    8.9885  -19.3014   21.6937 C   0  0  0  0  0  0  0  0  0  0  0  0
    9.3965  -17.8291   21.7003 C   0  0  2  0  0  0  0  0  0  0  0  0
    9.0545  -17.2720   20.4091 N   0  0  0  0  0  0  0  0  0  0  0  0
   10.8587  -17.8034   21.8806 C   0  0  0  0  0  0  0  0  0  0  0  0
   11.5981  -17.5540   20.9118 O   0  0  0  0  0  0  0  0  0  0  0  0
   11.3925  -18.0623   23.1486 N   0  0  0  0  0  0  0  0  0  0  0  0
   12.8200  -18.0473   23.3554 C   0  0  1  0  0  0  0  0  0  0  0  0
   13.2918  -16.6670   22.9746 C   0  0  0  0  0  0  0  0  0  0  0  0
   14.7348  -16.5160   23.1965 C   0  0  0  0  0  0  0  0  0  0  0  0
   15.6580  -17.4087   23.6585 C   0  0  0  0  0  0  0  0  0  0  0  0
   16.8417  -16.7795   23.6813 N   0  0  0  0  0  0  0  0  0  0  0  0
   16.6976  -15.5192   23.2492 C   0  0  0  0  0  0  0  0  0  0  0  0
   15.4002  -15.3523   22.9492 N   0  0  0  0  0  0  0  0  0  0  0  0
   13.1506  -18.4368   24.7315 C   0  0  0  0  0  0  0  0  0  0  0  0
   14.3437  -19.0675   25.0319 O   0  0  0  0  0  0  0  0  0  0  0  0
   12.3475  -18.1992   25.6529 O   0  0  0  0  0  0  0  0  0  0  0  0
  2  1  1  0
  2  3  1  0
  3  5  1  0
  3  4  1  6
  5  7  1  0
  5  6  1  1
  7  8  2  0
 10  9  1  0
 11 10  1  6
 12 11  1  0
 12  7  1  0
 13 11  1  0
 14 13  2  0
 15 13  1  0
 16 15  1  0
 16 17  1  1
 18 17  1  0
 19 18  2  0
 20 19  1  0
 21 20  1  0
 21 22  2  0
 22 18  1  0
 23 16  1  0
 23 24  1  0
 25 23  2  0
M  END
$$$$
