ASV.pdb
     RDKit          3D

 19 18  0  0  1  0  0  0  0  0999 V2000
    8.7582  -12.3333   19.1435 C   0  0  0  0  0  0  0  0  0  0  0  0
    8.5939  -13.8464   19.0478 C   0  0  2  0  0  0  0  0  0  0  0  0
    7.8083  -14.1166   17.8768 N   0  0  0  0  0  0  0  0  0  0  0  0
    7.8823  -14.2758   20.2740 C   0  0  0  0  0  0  0  0  0  0  0  0
    6.6235  -14.1612   20.3124 O   0  0  0  0  0  0  0  0  0  0  0  0
    8.9710  -17.3102   22.7887 O   0  0  0  0  0  0  0  0  0  0  0  0
    7.7094  -16.7278   22.7285 C   0  0  0  0  0  0  0  0  0  0  0  0
    7.7636  -15.2347   22.5538 C   0  0  2  0  0  0  0  0  0  0  0  0
    8.4999  -14.8069   21.4127 N   0  0  0  0  0  0  0  0  0  0  0  0
    8.2606  -14.6570   23.8260 C   0  0  0  0  0  0  0  0  0  0  0  0
    9.4933  -14.4539   23.9690 O   0  0  0  0  0  0  0  0  0  0  0  0
    5.7278  -13.1405   26.9010 C   0  0  0  0  0  0  0  0  0  0  0  0
    7.1125  -12.5876   26.6403 C   0  0  2  0  0  0  0  0  0  0  0  0
    6.9956  -11.4489   25.6753 C   0  0  0  0  0  0  0  0  0  0  0  0
    7.9760  -13.7146   26.1194 C   0  0  2  0  0  0  0  0  0  0  0  0
    7.4272  -14.3076   24.9219 N   0  0  0  0  0  0  0  0  0  0  0  0
    8.2892  -14.7081   27.1583 C   0  0  0  0  0  0  0  0  0  0  0  0
    7.7654  -15.8329   27.1052 O   0  0  0  0  0  0  0  0  0  0  0  0
    9.1512  -14.4024   28.1799 O   0  0  0  0  0  0  0  0  0  0  0  0
  2  4  1  0
  2  1  1  1
  2  3  1  0
  4  5  2  0
  6  7  1  0
  8  7  1  1
  8  9  1  0
  8 10  1  0
  9  4  1  0
 10 11  2  0
 10 16  1  0
 13 12  1  6
 13 15  1  0
 14 13  1  0
 15 17  1  0
 15 16  1  6
 17 18  2  0
 17 19  1  0
M  END
$$$$
