ASV.pdb
     RDKit          3D

 19 18  0  0  1  0  0  0  0  0999 V2000
    8.2392  -12.3646   19.2141 C   0  0  0  0  0  0  0  0  0  0  0  0
    8.4950  -13.8667   19.1519 C   0  0  2  0  0  0  0  0  0  0  0  0
    7.8405  -14.3621   17.9739 N   0  0  0  0  0  0  0  0  0  0  0  0
    7.8983  -14.4512   20.3752 C   0  0  0  0  0  0  0  0  0  0  0  0
    6.6464  -14.6262   20.4115 O   0  0  0  0  0  0  0  0  0  0  0  0
    9.4842  -17.2036   22.9350 O   0  0  0  0  0  0  0  0  0  0  0  0
    8.1513  -16.8077   22.9005 C   0  0  0  0  0  0  0  0  0  0  0  0
    7.9876  -15.3274   22.6894 C   0  0  2  0  0  0  0  0  0  0  0  0
    8.6192  -14.8320   21.5135 N   0  0  0  0  0  0  0  0  0  0  0  0
    8.4377  -14.6500   23.9296 C   0  0  0  0  0  0  0  0  0  0  0  0
    9.6540  -14.3613   24.0658 O   0  0  0  0  0  0  0  0  0  0  0  0
    5.8326  -13.0953   26.9307 C   0  0  0  0  0  0  0  0  0  0  0  0
    7.2285  -12.5585   26.6971 C   0  0  2  0  0  0  0  0  0  0  0  0
    7.1459  -11.4311   25.7153 C   0  0  0  0  0  0  0  0  0  0  0  0
    8.0937  -13.6999   26.2117 C   0  0  2  0  0  0  0  0  0  0  0  0
    7.5758  -14.2945   25.0012 N   0  0  0  0  0  0  0  0  0  0  0  0
    8.3608  -14.6899   27.2667 C   0  0  0  0  0  0  0  0  0  0  0  0
    7.8537  -15.8206   27.1855 O   0  0  0  0  0  0  0  0  0  0  0  0
    9.1619  -14.3744   28.3338 O   0  0  0  0  0  0  0  0  0  0  0  0
  2  4  1  0
  2  1  1  1
  2  3  1  0
  4  5  2  0
  6  7  1  0
  8  7  1  1
  8  9  1  0
  8 10  1  0
  9  4  1  0
 10 11  2  0
 10 16  1  0
 13 12  1  6
 13 15  1  0
 14 13  1  0
 15 17  1  0
 15 16  1  6
 17 18  2  0
 17 19  1  0
M  END
$$$$
