ASV.pdb
     RDKit          3D

 19 18  0  0  1  0  0  0  0  0999 V2000
    6.2352  -17.3780   20.2760 C   0  0  0  0  0  0  0  0  0  0  0  0
    7.1313  -17.1930   19.0560 C   0  0  2  0  0  0  0  0  0  0  0  0
    6.7777  -18.2127   18.1090 N   0  0  0  0  0  0  0  0  0  0  0  0
    8.5266  -17.3640   19.5227 C   0  0  0  0  0  0  0  0  0  0  0  0
    8.9681  -18.5375   19.6876 O   0  0  0  0  0  0  0  0  0  0  0  0
   11.3295  -14.1954   19.9149 O   0  0  0  0  0  0  0  0  0  0  0  0
   11.7187  -15.4913   19.5929 C   0  0  0  0  0  0  0  0  0  0  0  0
   10.7784  -16.5341   20.1326 C   0  0  2  0  0  0  0  0  0  0  0  0
    9.4112  -16.3151   19.8008 N   0  0  0  0  0  0  0  0  0  0  0  0
   11.0211  -16.6376   21.5920 C   0  0  0  0  0  0  0  0  0  0  0  0
   10.3866  -15.8862   22.3756 O   0  0  0  0  0  0  0  0  0  0  0  0
   12.8972  -19.9220   23.4225 C   0  0  0  0  0  0  0  0  0  0  0  0
   11.9153  -19.0218   24.1412 C   0  0  2  0  0  0  0  0  0  0  0  0
   10.5327  -19.5500   23.9145 C   0  0  0  0  0  0  0  0  0  0  0  0
   12.1011  -17.6150   23.6185 C   0  0  2  0  0  0  0  0  0  0  0  0
   11.9395  -17.5447   22.1847 N   0  0  0  0  0  0  0  0  0  0  0  0
   13.3564  -17.0046   24.0836 C   0  0  0  0  0  0  0  0  0  0  0  0
   14.2537  -16.7527   23.2627 O   0  0  0  0  0  0  0  0  0  0  0  0
   13.5418  -16.7133   25.4105 O   0  0  0  0  0  0  0  0  0  0  0  0
  2  4  1  0
  2  1  1  1
  2  3  1  0
  4  5  2  0
  6  7  1  0
  8  7  1  1
  8  9  1  0
  8 10  1  0
  9  4  1  0
 10 11  2  0
 10 16  1  0
 13 12  1  6
 13 15  1  0
 14 13  1  0
 15 17  1  0
 15 16  1  6
 17 18  2  0
 17 19  1  0
M  END
$$$$
