ASV.pdb
     RDKit          3D

 19 18  0  0  1  0  0  0  0  0999 V2000
   11.4487  -16.3579   20.0886 C   0  0  0  0  0  0  0  0  0  0  0  0
   10.4696  -17.4700   20.4494 C   0  0  2  0  0  0  0  0  0  0  0  0
    9.9231  -17.9720   19.2203 N   0  0  0  0  0  0  0  0  0  0  0  0
    9.4141  -16.8533   21.2859 C   0  0  0  0  0  0  0  0  0  0  0  0
    8.4803  -16.2233   20.7113 O   0  0  0  0  0  0  0  0  0  0  0  0
    8.0819  -18.3026   24.9586 O   0  0  0  0  0  0  0  0  0  0  0  0
    7.3985  -17.5343   24.0220 C   0  0  0  0  0  0  0  0  0  0  0  0
    8.2480  -16.4425   23.4312 C   0  0  2  0  0  0  0  0  0  0  0  0
    9.3653  -16.9119   22.6839 N   0  0  0  0  0  0  0  0  0  0  0  0
    8.6212  -15.5246   24.5348 C   0  0  0  0  0  0  0  0  0  0  0  0
    9.7847  -15.5744   25.0090 O   0  0  0  0  0  0  0  0  0  0  0  0
    5.8850  -12.9652   26.7008 C   0  0  0  0  0  0  0  0  0  0  0  0
    7.2876  -12.5102   26.3594 C   0  0  2  0  0  0  0  0  0  0  0  0
    7.2294  -11.6882   25.1093 C   0  0  0  0  0  0  0  0  0  0  0  0
    8.1566  -13.7395   26.2159 C   0  0  2  0  0  0  0  0  0  0  0  0
    7.7402  -14.5702   25.1098 N   0  0  0  0  0  0  0  0  0  0  0  0
    8.2843  -14.4869   27.4767 C   0  0  0  0  0  0  0  0  0  0  0  0
    7.6916  -15.5704   27.6068 O   0  0  0  0  0  0  0  0  0  0  0  0
    9.0496  -13.9980   28.5040 O   0  0  0  0  0  0  0  0  0  0  0  0
  2  4  1  0
  2  1  1  6
  2  3  1  0
  4  5  2  0
  6  7  1  0
  8  7  1  1
  8  9  1  0
  8 10  1  0
  9  4  1  0
 10 11  2  0
 10 16  1  0
 13 12  1  6
 13 15  1  0
 14 13  1  0
 15 17  1  0
 15 16  1  6
 17 18  2  0
 17 19  1  0
M  END
$$$$
