ASV.pdb
     RDKit          3D

 19 18  0  0  1  0  0  0  0  0999 V2000
    8.7186  -12.3945   19.3222 C   0  0  0  0  0  0  0  0  0  0  0  0
    8.5704  -13.8989   19.1202 C   0  0  2  0  0  0  0  0  0  0  0  0
    7.7386  -14.0941   17.9663 N   0  0  0  0  0  0  0  0  0  0  0  0
    7.9183  -14.4300   20.3396 C   0  0  0  0  0  0  0  0  0  0  0  0
    6.6768  -14.2425   20.4901 O   0  0  0  0  0  0  0  0  0  0  0  0
    9.4712  -17.3857   22.9293 O   0  0  0  0  0  0  0  0  0  0  0  0
    8.1246  -17.0536   22.8251 C   0  0  0  0  0  0  0  0  0  0  0  0
    7.9046  -15.5965   22.5237 C   0  0  2  0  0  0  0  0  0  0  0  0
    8.5751  -15.1342   21.3558 N   0  0  0  0  0  0  0  0  0  0  0  0
    8.2555  -14.8328   23.7456 C   0  0  0  0  0  0  0  0  0  0  0  0
    9.4282  -14.4006   23.8849 O   0  0  0  0  0  0  0  0  0  0  0  0
    6.1256  -12.0736   25.3563 C   0  0  0  0  0  0  0  0  0  0  0  0
    6.6422  -12.9252   26.4961 C   0  0  2  0  0  0  0  0  0  0  0  0
    7.0916  -12.0193   27.6002 C   0  0  0  0  0  0  0  0  0  0  0  0
    7.7550  -13.7981   25.9609 C   0  0  2  0  0  0  0  0  0  0  0  0
    7.3431  -14.5463   24.7959 N   0  0  0  0  0  0  0  0  0  0  0  0
    8.3539  -14.6462   27.0034 C   0  0  0  0  0  0  0  0  0  0  0  0
    7.9553  -15.8139   27.1442 O   0  0  0  0  0  0  0  0  0  0  0  0
    9.3443  -14.1586   27.8167 O   0  0  0  0  0  0  0  0  0  0  0  0
  2  4  1  0
  2  1  1  1
  2  3  1  0
  4  5  2  0
  6  7  1  0
  8  7  1  1
  8  9  1  0
  8 10  1  0
  9  4  1  0
 10 11  2  0
 10 16  1  0
 13 12  1  6
 13 15  1  0
 14 13  1  0
 15 17  1  0
 15 16  1  6
 17 18  2  0
 17 19  1  0
M  END
$$$$
