ASV.pdb
     RDKit          3D

 19 18  0  0  1  0  0  0  0  0999 V2000
    8.4687  -14.8756   19.2610 C   0  0  0  0  0  0  0  0  0  0  0  0
    8.1740  -16.3293   19.6154 C   0  0  2  0  0  0  0  0  0  0  0  0
    7.3136  -16.8516   18.5915 N   0  0  0  0  0  0  0  0  0  0  0  0
    7.4883  -16.3169   20.9283 C   0  0  0  0  0  0  0  0  0  0  0  0
    6.2529  -16.0490   20.9612 O   0  0  0  0  0  0  0  0  0  0  0  0
    6.7053  -17.7917   25.3398 O   0  0  0  0  0  0  0  0  0  0  0  0
    7.3963  -17.8575   24.1346 C   0  0  0  0  0  0  0  0  0  0  0  0
    7.4002  -16.5494   23.3919 C   0  0  2  0  0  0  0  0  0  0  0  0
    8.1067  -16.5819   22.1562 N   0  0  0  0  0  0  0  0  0  0  0  0
    7.8959  -15.5101   24.3266 C   0  0  0  0  0  0  0  0  0  0  0  0
    9.1339  -15.3146   24.4283 O   0  0  0  0  0  0  0  0  0  0  0  0
    5.9802  -12.0789   25.4326 C   0  0  0  0  0  0  0  0  0  0  0  0
    6.5711  -12.8092   26.6194 C   0  0  2  0  0  0  0  0  0  0  0  0
    7.1395  -11.7971   27.5652 C   0  0  0  0  0  0  0  0  0  0  0  0
    7.6090  -13.7799   26.1022 C   0  0  2  0  0  0  0  0  0  0  0  0
    7.0554  -14.6994   25.1353 N   0  0  0  0  0  0  0  0  0  0  0  0
    8.3333  -14.4586   27.1882 C   0  0  0  0  0  0  0  0  0  0  0  0
    9.2241  -13.8490   27.8023 O   0  0  0  0  0  0  0  0  0  0  0  0
    8.0332  -15.7533   27.5254 O   0  0  0  0  0  0  0  0  0  0  0  0
  2  4  1  0
  2  1  1  6
  2  3  1  0
  4  5  2  0
  6  7  1  0
  8  7  1  1
  8  9  1  0
  8 10  1  0
  9  4  1  0
 10 11  2  0
 10 16  1  0
 13 12  1  6
 13 15  1  0
 14 13  1  0
 15 17  1  0
 15 16  1  6
 17 18  2  0
 17 19  1  0
M  END
$$$$
