ASV.pdb
     RDKit          3D

 19 18  0  0  1  0  0  0  0  0999 V2000
   -0.0477  -22.6539   23.0227 C   0  0  0  0  0  0  0  0  0  0  0  0
   -1.2986  -23.4624   23.3504 C   0  0  2  0  0  0  0  0  0  0  0  0
   -2.2340  -23.2523   22.2816 N   0  0  0  0  0  0  0  0  0  0  0  0
   -1.8262  -22.9312   24.6285 C   0  0  0  0  0  0  0  0  0  0  0  0
   -1.1736  -23.1520   25.6889 O   0  0  0  0  0  0  0  0  0  0  0  0
   -5.3576  -20.5266   25.0985 O   0  0  0  0  0  0  0  0  0  0  0  0
   -4.2882  -20.4885   25.9870 C   0  0  0  0  0  0  0  0  0  0  0  0
   -3.5148  -21.7781   26.0250 C   0  0  2  0  0  0  0  0  0  0  0  0
   -3.0081  -22.1923   24.7606 N   0  0  0  0  0  0  0  0  0  0  0  0
   -4.3779  -22.7939   26.6752 C   0  0  0  0  0  0  0  0  0  0  0  0
   -5.1123  -23.5241   25.9619 O   0  0  0  0  0  0  0  0  0  0  0  0
   -3.5387  -24.7843   30.2104 C   0  0  0  0  0  0  0  0  0  0  0  0
   -4.4533  -25.2397   29.0936 C   0  0  2  0  0  0  0  0  0  0  0  0
   -3.6135  -25.8220   27.9993 C   0  0  0  0  0  0  0  0  0  0  0  0
   -5.2676  -24.0487   28.6406 C   0  0  2  0  0  0  0  0  0  0  0  0
   -4.4379  -23.0084   28.0781 N   0  0  0  0  0  0  0  0  0  0  0  0
   -6.1717  -23.5545   29.6908 C   0  0  0  0  0  0  0  0  0  0  0  0
   -5.9133  -22.4839   30.2648 O   0  0  0  0  0  0  0  0  0  0  0  0
   -7.2921  -24.2642   30.0387 O   0  0  0  0  0  0  0  0  0  0  0  0
  2  4  1  0
  2  1  1  6
  2  3  1  0
  4  5  2  0
  6  7  1  0
  8  7  1  6
  8  9  1  0
  8 10  1  0
  9  4  1  0
 10 11  2  0
 10 16  1  0
 13 12  1  1
 13 15  1  0
 14 13  1  0
 15 17  1  0
 15 16  1  1
 17 18  2  0
 17 19  1  0
M  END
$$$$
