ASV.pdb
     RDKit          3D

 19 18  0  0  1  0  0  0  0  0999 V2000
   12.0644  -18.4791   21.6786 C   0  0  0  0  0  0  0  0  0  0  0  0
   11.2151  -17.3681   21.0701 C   0  0  2  0  0  0  0  0  0  0  0  0
   12.0779  -16.5810   20.2350 N   0  0  0  0  0  0  0  0  0  0  0  0
   10.6928  -16.5644   22.1994 C   0  0  0  0  0  0  0  0  0  0  0  0
   11.3433  -15.5434   22.5649 O   0  0  0  0  0  0  0  0  0  0  0  0
    7.1683  -17.4901   24.3538 O   0  0  0  0  0  0  0  0  0  0  0  0
    7.5972  -16.1689   24.2835 C   0  0  0  0  0  0  0  0  0  0  0  0
    9.0686  -16.0476   23.9956 C   0  0  2  0  0  0  0  0  0  0  0  0
    9.5183  -16.8475   22.9069 N   0  0  0  0  0  0  0  0  0  0  0  0
    9.7921  -16.3162   25.2620 C   0  0  0  0  0  0  0  0  0  0  0  0
   10.5115  -17.3434   25.3532 O   0  0  0  0  0  0  0  0  0  0  0  0
    9.0373  -14.4740   29.0870 C   0  0  0  0  0  0  0  0  0  0  0  0
   10.4587  -14.6563   28.5996 C   0  0  2  0  0  0  0  0  0  0  0  0
   10.9274  -13.3636   28.0072 C   0  0  0  0  0  0  0  0  0  0  0  0
   10.4704  -15.7973   27.6071 C   0  0  2  0  0  0  0  0  0  0  0  0
    9.7311  -15.4786   26.4077 N   0  0  0  0  0  0  0  0  0  0  0  0
   10.0563  -17.0725   28.2129 C   0  0  0  0  0  0  0  0  0  0  0  0
    8.9366  -17.5394   27.9474 O   0  0  0  0  0  0  0  0  0  0  0  0
   10.8940  -17.7458   29.0643 O   0  0  0  0  0  0  0  0  0  0  0  0
  2  4  1  0
  2  1  1  1
  2  3  1  0
  4  5  2  0
  6  7  1  0
  8  7  1  1
  8  9  1  0
  8 10  1  0
  9  4  1  0
 10 11  2  0
 10 16  1  0
 13 12  1  6
 13 15  1  0
 14 13  1  0
 15 17  1  0
 15 16  1  6
 17 18  2  0
 17 19  1  0
M  END
$$$$
