ASV.pdb
     RDKit          3D

 19 18  0  0  1  0  0  0  0  0999 V2000
    8.4135  -12.5027   18.9466 C   0  0  0  0  0  0  0  0  0  0  0  0
    8.6392  -14.0109   18.9400 C   0  0  2  0  0  0  0  0  0  0  0  0
    8.0107  -14.5307   17.7584 N   0  0  0  0  0  0  0  0  0  0  0  0
    7.9931  -14.5435   20.1619 C   0  0  0  0  0  0  0  0  0  0  0  0
    6.7536  -14.7920   20.1296 O   0  0  0  0  0  0  0  0  0  0  0  0
    9.6158  -17.0755   22.8751 O   0  0  0  0  0  0  0  0  0  0  0  0
    8.2595  -16.7925   22.7532 C   0  0  0  0  0  0  0  0  0  0  0  0
    7.9875  -15.3334   22.5087 C   0  0  2  0  0  0  0  0  0  0  0  0
    8.6537  -14.7983   21.3698 N   0  0  0  0  0  0  0  0  0  0  0  0
    8.2945  -14.6083   23.7654 C   0  0  0  0  0  0  0  0  0  0  0  0
    9.4539  -14.1566   23.9471 O   0  0  0  0  0  0  0  0  0  0  0  0
    6.1295  -11.9337   25.4672 C   0  0  0  0  0  0  0  0  0  0  0  0
    6.6061  -12.8534   26.5708 C   0  0  2  0  0  0  0  0  0  0  0  0
    7.0234  -12.0162   27.7399 C   0  0  0  0  0  0  0  0  0  0  0  0
    7.7322  -13.6999   26.0209 C   0  0  2  0  0  0  0  0  0  0  0  0
    7.3531  -14.3805   24.8044 N   0  0  0  0  0  0  0  0  0  0  0  0
    8.2979  -14.6069   27.0318 C   0  0  0  0  0  0  0  0  0  0  0  0
    7.8746  -15.7717   27.1121 O   0  0  0  0  0  0  0  0  0  0  0  0
    9.2843  -14.1773   27.8818 O   0  0  0  0  0  0  0  0  0  0  0  0
  2  4  1  0
  2  1  1  6
  2  3  1  0
  4  5  2  0
  6  7  1  0
  8  7  1  1
  8  9  1  0
  8 10  1  0
  9  4  1  0
 10 11  2  0
 10 16  1  0
 13 12  1  6
 13 15  1  0
 14 13  1  0
 15 17  1  0
 15 16  1  6
 17 18  2  0
 17 19  1  0
M  END
$$$$
