ASV.pdb
     RDKit          3D

 19 18  0  0  1  0  0  0  0  0999 V2000
    8.4870  -12.4552   19.1521 C   0  0  0  0  0  0  0  0  0  0  0  0
    8.3770  -13.9751   19.0937 C   0  0  2  0  0  0  0  0  0  0  0  0
    7.5754  -14.3006   17.9479 N   0  0  0  0  0  0  0  0  0  0  0  0
    7.7102  -14.4022   20.3455 C   0  0  0  0  0  0  0  0  0  0  0  0
    6.4512  -14.3096   20.4204 O   0  0  0  0  0  0  0  0  0  0  0  0
    8.8874  -17.4087   22.8753 O   0  0  0  0  0  0  0  0  0  0  0  0
    7.6249  -16.8282   22.8142 C   0  0  0  0  0  0  0  0  0  0  0  0
    7.6770  -15.3351   22.6390 C   0  0  2  0  0  0  0  0  0  0  0  0
    8.3710  -14.9083   21.4713 N   0  0  0  0  0  0  0  0  0  0  0  0
    8.2234  -14.7602   23.8921 C   0  0  0  0  0  0  0  0  0  0  0  0
    9.4542  -14.5149   23.9706 O   0  0  0  0  0  0  0  0  0  0  0  0
    5.8429  -13.0682   26.9328 C   0  0  0  0  0  0  0  0  0  0  0  0
    7.2851  -12.6686   26.7061 C   0  0  2  0  0  0  0  0  0  0  0  0
    7.3162  -11.5378   25.7252 C   0  0  0  0  0  0  0  0  0  0  0  0
    8.0381  -13.8879   26.2231 C   0  0  2  0  0  0  0  0  0  0  0  0
    7.4404  -14.4588   25.0383 N   0  0  0  0  0  0  0  0  0  0  0  0
    8.2487  -14.8773   27.2915 C   0  0  0  0  0  0  0  0  0  0  0  0
    7.6587  -15.9687   27.2378 O   0  0  0  0  0  0  0  0  0  0  0  0
    9.0878  -14.6040   28.3409 O   0  0  0  0  0  0  0  0  0  0  0  0
  2  4  1  0
  2  1  1  1
  2  3  1  0
  4  5  2  0
  6  7  1  0
  8  7  1  1
  8  9  1  0
  8 10  1  0
  9  4  1  0
 10 11  2  0
 10 16  1  0
 13 12  1  6
 13 15  1  0
 14 13  1  0
 15 17  1  0
 15 16  1  6
 17 18  2  0
 17 19  1  0
M  END
$$$$
