ASV.pdb
     RDKit          3D

 19 18  0  0  1  0  0  0  0  0999 V2000
    3.1893  -18.9021   22.4207 C   0  0  0  0  0  0  0  0  0  0  0  0
    3.4720  -18.4193   21.0020 C   0  0  2  0  0  0  0  0  0  0  0  0
    3.3479  -19.5552   20.1327 N   0  0  0  0  0  0  0  0  0  0  0  0
    4.8585  -17.8979   20.9980 C   0  0  0  0  0  0  0  0  0  0  0  0
    5.8118  -18.7197   20.8756 O   0  0  0  0  0  0  0  0  0  0  0  0
    8.0697  -14.2711   20.7148 O   0  0  0  0  0  0  0  0  0  0  0  0
    6.7335  -14.6470   20.8039 C   0  0  0  0  0  0  0  0  0  0  0  0
    6.5579  -16.1026   21.1399 C   0  0  2  0  0  0  0  0  0  0  0  0
    5.2054  -16.5471   21.1209 N   0  0  0  0  0  0  0  0  0  0  0  0
    7.2392  -16.3443   22.4349 C   0  0  0  0  0  0  0  0  0  0  0  0
    6.6773  -15.9865   23.5014 O   0  0  0  0  0  0  0  0  0  0  0  0
   10.5487  -18.9713   22.9849 C   0  0  0  0  0  0  0  0  0  0  0  0
    9.5118  -18.6471   24.0388 C   0  0  2  0  0  0  0  0  0  0  0  0
    8.3688  -19.6029   23.8907 C   0  0  0  0  0  0  0  0  0  0  0  0
    9.0989  -17.2033   23.8605 C   0  0  2  0  0  0  0  0  0  0  0  0
    8.5103  -16.9651   22.5629 N   0  0  0  0  0  0  0  0  0  0  0  0
   10.1873  -16.2650   24.1763 C   0  0  0  0  0  0  0  0  0  0  0  0
   10.7093  -15.6058   23.2625 O   0  0  0  0  0  0  0  0  0  0  0  0
   10.6271  -16.1142   25.4661 O   0  0  0  0  0  0  0  0  0  0  0  0
  2  4  1  0
  2  1  1  1
  2  3  1  0
  4  5  2  0
  6  7  1  0
  8  7  1  1
  8  9  1  0
  8 10  1  0
  9  4  1  0
 10 11  2  0
 10 16  1  0
 13 12  1  6
 13 15  1  0
 14 13  1  0
 15 17  1  0
 15 16  1  6
 17 18  2  0
 17 19  1  0
M  END
$$$$
