ASV.pdb
     RDKit          3D

 19 18  0  0  1  0  0  0  0  0999 V2000
    8.5211  -12.5641   18.9550 C   0  0  0  0  0  0  0  0  0  0  0  0
    8.6265  -14.0855   18.9617 C   0  0  2  0  0  0  0  0  0  0  0  0
    7.9701  -14.5634   17.7775 N   0  0  0  0  0  0  0  0  0  0  0  0
    7.9284  -14.5553   20.1807 C   0  0  0  0  0  0  0  0  0  0  0  0
    6.6639  -14.5624   20.1869 O   0  0  0  0  0  0  0  0  0  0  0  0
    9.3228  -17.3026   22.9504 O   0  0  0  0  0  0  0  0  0  0  0  0
    7.9971  -16.9233   22.7681 C   0  0  0  0  0  0  0  0  0  0  0  0
    7.8440  -15.4536   22.4866 C   0  0  2  0  0  0  0  0  0  0  0  0
    8.5650  -14.9995   21.3459 N   0  0  0  0  0  0  0  0  0  0  0  0
    8.1908  -14.7252   23.7310 C   0  0  0  0  0  0  0  0  0  0  0  0
    9.3504  -14.2583   23.8673 O   0  0  0  0  0  0  0  0  0  0  0  0
    6.0707  -12.0518   25.5157 C   0  0  0  0  0  0  0  0  0  0  0  0
    6.5804  -12.9864   26.5916 C   0  0  2  0  0  0  0  0  0  0  0  0
    7.0161  -12.1661   27.7660 C   0  0  0  0  0  0  0  0  0  0  0  0
    7.7016  -13.8120   26.0016 C   0  0  2  0  0  0  0  0  0  0  0  0
    7.2881  -14.5104   24.8066 N   0  0  0  0  0  0  0  0  0  0  0  0
    8.3287  -14.6983   26.9946 C   0  0  0  0  0  0  0  0  0  0  0  0
    7.9380  -15.8726   27.0978 O   0  0  0  0  0  0  0  0  0  0  0  0
    9.3365  -14.2391   27.8029 O   0  0  0  0  0  0  0  0  0  0  0  0
  2  4  1  0
  2  1  1  6
  2  3  1  0
  4  5  2  0
  6  7  1  0
  8  7  1  1
  8  9  1  0
  8 10  1  0
  9  4  1  0
 10 11  2  0
 10 16  1  0
 13 12  1  6
 13 15  1  0
 14 13  1  0
 15 17  1  0
 15 16  1  6
 17 18  2  0
 17 19  1  0
M  END
$$$$
