ASV.pdb
     RDKit          3D

 19 18  0  0  1  0  0  0  0  0999 V2000
    8.5533  -12.5170   19.0699 C   0  0  0  0  0  0  0  0  0  0  0  0
    8.4971  -14.0392   18.9951 C   0  0  2  0  0  0  0  0  0  0  0  0
    7.6862  -14.3804   17.8604 N   0  0  0  0  0  0  0  0  0  0  0  0
    7.8700  -14.5045   20.2538 C   0  0  0  0  0  0  0  0  0  0  0  0
    6.6108  -14.4493   20.3568 O   0  0  0  0  0  0  0  0  0  0  0  0
    9.5062  -17.2842   22.8657 O   0  0  0  0  0  0  0  0  0  0  0  0
    8.1543  -16.9679   22.7838 C   0  0  0  0  0  0  0  0  0  0  0  0
    7.9117  -15.5075   22.5173 C   0  0  2  0  0  0  0  0  0  0  0  0
    8.5692  -15.0088   21.3570 N   0  0  0  0  0  0  0  0  0  0  0  0
    8.2585  -14.7672   23.7547 C   0  0  0  0  0  0  0  0  0  0  0  0
    9.3997  -14.2502   23.8625 O   0  0  0  0  0  0  0  0  0  0  0  0
    6.1094  -12.1734   25.5434 C   0  0  0  0  0  0  0  0  0  0  0  0
    6.6637  -13.0656   26.6332 C   0  0  2  0  0  0  0  0  0  0  0  0
    7.1069  -12.2030   27.7739 C   0  0  0  0  0  0  0  0  0  0  0  0
    7.7898  -13.8832   26.0411 C   0  0  2  0  0  0  0  0  0  0  0  0
    7.3756  -14.5946   24.8540 N   0  0  0  0  0  0  0  0  0  0  0  0
    8.4334  -14.7555   27.0358 C   0  0  0  0  0  0  0  0  0  0  0  0
    8.0084  -15.9107   27.2008 O   0  0  0  0  0  0  0  0  0  0  0  0
    9.4940  -14.3041   27.7784 O   0  0  0  0  0  0  0  0  0  0  0  0
  2  4  1  0
  2  1  1  1
  2  3  1  0
  4  5  2  0
  6  7  1  0
  8  7  1  1
  8  9  1  0
  8 10  1  0
  9  4  1  0
 10 11  2  0
 10 16  1  0
 13 12  1  6
 13 15  1  0
 14 13  1  0
 15 17  1  0
 15 16  1  6
 17 18  2  0
 17 19  1  0
M  END
$$$$
