ASV.pdb
     RDKit          3D

 19 18  0  0  1  0  0  0  0  0999 V2000
    8.4315  -12.4676   19.1260 C   0  0  0  0  0  0  0  0  0  0  0  0
    8.4220  -13.9925   19.1389 C   0  0  2  0  0  0  0  0  0  0  0  0
    7.6269  -14.4233   18.0237 N   0  0  0  0  0  0  0  0  0  0  0  0
    7.8040  -14.4037   20.4207 C   0  0  0  0  0  0  0  0  0  0  0  0
    6.5456  -14.3440   20.5303 O   0  0  0  0  0  0  0  0  0  0  0  0
    9.2696  -17.2416   23.0088 O   0  0  0  0  0  0  0  0  0  0  0  0
    7.9567  -16.7845   22.9666 C   0  0  0  0  0  0  0  0  0  0  0  0
    7.8622  -15.3025   22.7272 C   0  0  2  0  0  0  0  0  0  0  0  0
    8.5111  -14.8605   21.5394 N   0  0  0  0  0  0  0  0  0  0  0  0
    8.3495  -14.6233   23.9522 C   0  0  0  0  0  0  0  0  0  0  0  0
    9.5502  -14.2548   24.0146 O   0  0  0  0  0  0  0  0  0  0  0  0
    5.8337  -13.1545   27.0689 C   0  0  0  0  0  0  0  0  0  0  0  0
    7.1787  -12.5558   26.7173 C   0  0  2  0  0  0  0  0  0  0  0  0
    6.9707  -11.4969   25.6793 C   0  0  0  0  0  0  0  0  0  0  0  0
    8.0798  -13.6745   26.2448 C   0  0  2  0  0  0  0  0  0  0  0  0
    7.5409  -14.3514   25.0880 N   0  0  0  0  0  0  0  0  0  0  0  0
    8.4441  -14.5984   27.3303 C   0  0  0  0  0  0  0  0  0  0  0  0
    8.0275  -15.7680   27.3023 O   0  0  0  0  0  0  0  0  0  0  0  0
    9.2365  -14.1791   28.3678 O   0  0  0  0  0  0  0  0  0  0  0  0
  2  4  1  0
  2  1  1  1
  2  3  1  0
  4  5  2  0
  6  7  1  0
  8  7  1  1
  8  9  1  0
  8 10  1  0
  9  4  1  0
 10 11  2  0
 10 16  1  0
 13 12  1  6
 13 15  1  0
 14 13  1  0
 15 17  1  0
 15 16  1  6
 17 18  2  0
 17 19  1  0
M  END
$$$$
