NQP.pdb
     RDKit          3D

 25 25  0  0  1  0  0  0  0  0999 V2000
   18.7857  -21.5812  -14.1516 N   0  0  0  0  0  0  0  0  0  0  0  0
   18.7021  -20.2259  -13.7360 C   0  0  0  0  0  0  0  0  0  0  0  0
   17.5907  -19.6114  -13.7845 O   0  0  0  0  0  0  0  0  0  0  0  0
   19.9283  -19.5515  -13.2499 C   0  0  0  0  0  0  0  0  0  0  0  0
   21.0928  -20.4835  -13.2556 C   0  0  2  0  0  0  0  0  0  0  0  0
   21.0175  -21.2869  -12.0478 N   0  0  0  0  0  0  0  0  0  0  0  0
   22.4071  -19.8662  -13.4064 C   0  0  0  0  0  0  0  0  0  0  0  0
   22.8857  -19.1622  -12.4577 O   0  0  0  0  0  0  0  0  0  0  0  0
   25.5448  -21.9113  -11.4231 N   0  0  0  0  0  0  0  0  0  0  0  0
   25.4819  -21.9584  -12.8243 C   0  0  0  0  0  0  0  0  0  0  0  0
   24.7359  -22.8357  -13.3717 O   0  0  0  0  0  0  0  0  0  0  0  0
   26.2319  -21.0480  -13.7193 C   0  0  0  0  0  0  0  0  0  0  0  0
   25.4694  -20.7051  -14.9612 C   0  0  0  0  0  0  0  0  0  0  0  0
   24.5610  -19.5029  -14.6496 C   0  0  2  0  0  0  0  0  0  0  0  0
   23.2222  -19.9963  -14.5680 N   0  0  0  0  0  0  0  0  0  0  0  0
   24.7423  -18.4723  -15.6566 C   0  0  0  0  0  0  0  0  0  0  0  0
   24.0007  -18.5850  -16.7251 O   0  0  0  0  0  0  0  0  0  0  0  0
   25.6006  -17.3555  -15.6707 N   0  0  0  0  0  0  0  0  0  0  0  0
   26.5861  -17.0109  -14.6915 C   0  0  0  0  0  0  0  0  0  0  0  0
   27.3348  -15.7904  -15.2765 C   0  0  0  0  0  0  0  0  0  0  0  0
   26.1999  -15.1449  -16.0965 C   0  0  0  0  0  0  0  0  0  0  0  0
   25.6192  -16.3700  -16.7217 C   0  0  1  0  0  0  0  0  0  0  0  0
   26.4437  -16.7879  -17.8786 C   0  0  0  0  0  0  0  0  0  0  0  0
   26.5189  -16.1190  -19.0867 O   0  0  0  0  0  0  0  0  0  0  0  0
   27.1273  -17.8318  -17.7498 O   0  0  0  0  0  0  0  0  0  0  0  0
  2  3  2  0
  2  1  1  0
  4  2  1  0
  5  4  1  0
  5  7  1  0
  5  6  1  1
  7  8  2  0
  9 10  1  0
 10 12  1  0
 11 10  2  0
 12 13  1  0
 14 13  1  6
 14 16  1  0
 15  7  1  0
 15 14  1  0
 16 17  2  0
 18 16  1  0
 18 22  1  0
 19 18  1  0
 20 21  1  0
 20 19  1  0
 21 22  1  0
 22 23  1  6
 23 25  2  0
 23 24  1  0
M  END
$$$$
