NQP.pdb
     RDKit          3D

 25 25  0  0  1  0  0  0  0  0999 V2000
   17.7618  -17.6223  -16.0274 N   0  0  0  0  0  0  0  0  0  0  0  0
   18.8057  -18.5776  -15.9088 C   0  0  0  0  0  0  0  0  0  0  0  0
   18.5558  -19.8160  -16.0478 O   0  0  0  0  0  0  0  0  0  0  0  0
   20.1792  -18.1023  -15.6220 C   0  0  0  0  0  0  0  0  0  0  0  0
   21.1600  -19.2245  -15.6821 C   0  0  2  0  0  0  0  0  0  0  0  0
   20.5007  -20.4112  -15.1653 N   0  0  0  0  0  0  0  0  0  0  0  0
   22.4404  -18.9929  -15.0204 C   0  0  0  0  0  0  0  0  0  0  0  0
   23.0601  -17.8957  -15.2123 O   0  0  0  0  0  0  0  0  0  0  0  0
   24.7491  -21.0852   -9.4693 N   0  0  0  0  0  0  0  0  0  0  0  0
   25.8393  -20.5998  -10.2078 C   0  0  0  0  0  0  0  0  0  0  0  0
   26.9808  -20.5418   -9.6427 O   0  0  0  0  0  0  0  0  0  0  0  0
   25.7519  -20.1453  -11.6143 C   0  0  0  0  0  0  0  0  0  0  0  0
   24.3861  -20.3365  -12.1969 C   0  0  0  0  0  0  0  0  0  0  0  0
   24.3849  -19.7494  -13.6192 C   0  0  2  0  0  0  0  0  0  0  0  0
   23.0689  -19.9275  -14.1473 N   0  0  0  0  0  0  0  0  0  0  0  0
   25.4231  -20.3801  -14.4151 C   0  0  0  0  0  0  0  0  0  0  0  0
   25.2128  -21.6274  -14.7379 O   0  0  0  0  0  0  0  0  0  0  0  0
   26.6382  -19.8599  -14.9018 N   0  0  0  0  0  0  0  0  0  0  0  0
   27.2957  -18.6609  -14.4790 C   0  0  0  0  0  0  0  0  0  0  0  0
   28.6507  -18.6526  -15.2248 C   0  0  0  0  0  0  0  0  0  0  0  0
   28.2533  -19.3963  -16.5155 C   0  0  0  0  0  0  0  0  0  0  0  0
   27.4306  -20.4934  -15.9250 C   0  0  1  0  0  0  0  0  0  0  0  0
   28.3123  -21.5542  -15.3862 C   0  0  0  0  0  0  0  0  0  0  0  0
   29.0647  -22.4287  -16.1489 O   0  0  0  0  0  0  0  0  0  0  0  0
   28.3803  -21.6660  -14.1386 O   0  0  0  0  0  0  0  0  0  0  0  0
  2  3  2  0
  2  1  1  0
  4  2  1  0
  5  4  1  0
  5  7  1  0
  5  6  1  1
  7  8  2  0
  9 10  1  0
 10 12  1  0
 11 10  2  0
 12 13  1  0
 14 13  1  1
 14 16  1  0
 15  7  1  0
 15 14  1  0
 16 17  2  0
 18 16  1  0
 18 22  1  0
 19 18  1  0
 20 21  1  0
 20 19  1  0
 21 22  1  0
 22 23  1  1
 23 25  2  0
 23 24  1  0
M  END
$$$$
