NQP.pdb
     RDKit          3D

 25 25  0  0  1  0  0  0  0  0999 V2000
   12.7425  -11.3017  -13.7562 N   0  0  0  0  0  0  0  0  0  0  0  0
   13.7429  -10.7573  -14.6042 C   0  0  0  0  0  0  0  0  0  0  0  0
   13.4262  -10.2777  -15.7378 O   0  0  0  0  0  0  0  0  0  0  0  0
   15.1503  -10.7614  -14.1419 C   0  0  0  0  0  0  0  0  0  0  0  0
   16.0879  -11.0071  -15.2757 C   0  0  2  0  0  0  0  0  0  0  0  0
   16.1000  -12.4367  -15.5328 N   0  0  0  0  0  0  0  0  0  0  0  0
   17.4400  -10.4810  -15.1148 C   0  0  0  0  0  0  0  0  0  0  0  0
   18.1134  -10.7799  -14.0747 O   0  0  0  0  0  0  0  0  0  0  0  0
   20.7738  -10.0395  -19.9730 N   0  0  0  0  0  0  0  0  0  0  0  0
   20.7909  -11.0019  -18.9518 C   0  0  0  0  0  0  0  0  0  0  0  0
   21.0786  -12.2066  -19.2543 O   0  0  0  0  0  0  0  0  0  0  0  0
   20.4938  -10.7091  -17.5310 C   0  0  0  0  0  0  0  0  0  0  0  0
   20.0929   -9.2838  -17.3090 C   0  0  0  0  0  0  0  0  0  0  0  0
   19.4339   -9.1813  -15.9224 C   0  0  2  0  0  0  0  0  0  0  0  0
   18.0858   -9.6345  -16.0620 N   0  0  0  0  0  0  0  0  0  0  0  0
   19.5436   -7.8223  -15.4223 C   0  0  0  0  0  0  0  0  0  0  0  0
   18.5431   -7.0316  -15.7015 O   0  0  0  0  0  0  0  0  0  0  0  0
   20.5678   -7.2078  -14.6758 N   0  0  0  0  0  0  0  0  0  0  0  0
   21.8464   -7.7599  -14.3454 C   0  0  0  0  0  0  0  0  0  0  0  0
   22.6214   -6.6131  -13.6551 C   0  0  0  0  0  0  0  0  0  0  0  0
   21.4513   -5.8531  -12.9990 C   0  0  0  0  0  0  0  0  0  0  0  0
   20.4761   -5.8779  -14.1291 C   0  0  1  0  0  0  0  0  0  0  0  0
   20.8205   -4.8313  -15.1186 C   0  0  0  0  0  0  0  0  0  0  0  0
   20.6328   -3.4728  -14.9398 O   0  0  0  0  0  0  0  0  0  0  0  0
   21.3223   -5.2099  -16.2042 O   0  0  0  0  0  0  0  0  0  0  0  0
  2  3  2  0
  2  1  1  0
  4  2  1  0
  5  4  1  0
  5  7  1  0
  5  6  1  1
  7  8  2  0
  9 10  1  0
 10 12  1  0
 11 10  2  0
 12 13  1  0
 14 13  1  6
 14 16  1  0
 15  7  1  0
 15 14  1  0
 16 17  2  0
 18 16  1  0
 18 22  1  0
 19 18  1  0
 20 21  1  0
 20 19  1  0
 21 22  1  0
 22 23  1  6
 23 25  2  0
 23 24  1  0
M  END
$$$$
