NQP.pdb
     RDKit          3D

 25 25  0  0  1  0  0  0  0  0999 V2000
   14.3308  -22.3364   -9.0447 N   0  0  0  0  0  0  0  0  0  0  0  0
   15.3050  -23.0390   -8.2873 C   0  0  0  0  0  0  0  0  0  0  0  0
   16.5299  -22.9915   -8.6231 O   0  0  0  0  0  0  0  0  0  0  0  0
   14.8651  -23.8211   -7.1086 C   0  0  0  0  0  0  0  0  0  0  0  0
   15.6356  -25.0927   -6.9891 C   0  0  2  0  0  0  0  0  0  0  0  0
   15.1939  -25.9749   -8.0552 N   0  0  0  0  0  0  0  0  0  0  0  0
   15.5813  -25.7553   -5.6895 C   0  0  0  0  0  0  0  0  0  0  0  0
   14.4695  -26.2029   -5.2557 O   0  0  0  0  0  0  0  0  0  0  0  0
   20.5210  -28.1834   -2.2748 N   0  0  0  0  0  0  0  0  0  0  0  0
   19.3156  -28.5102   -1.6346 C   0  0  0  0  0  0  0  0  0  0  0  0
   19.3536  -29.2836   -0.6217 O   0  0  0  0  0  0  0  0  0  0  0  0
   17.9882  -28.0118   -2.0614 C   0  0  0  0  0  0  0  0  0  0  0  0
   18.0643  -27.1398   -3.2759 C   0  0  0  0  0  0  0  0  0  0  0  0
   16.6479  -26.6253   -3.5865 C   0  0  2  0  0  0  0  0  0  0  0  0
   16.7117  -25.9482   -4.8434 N   0  0  0  0  0  0  0  0  0  0  0  0
   16.1758  -25.7892   -2.4969 C   0  0  0  0  0  0  0  0  0  0  0  0
   16.6811  -24.5867   -2.4432 O   0  0  0  0  0  0  0  0  0  0  0  0
   15.2498  -26.0672   -1.4726 N   0  0  0  0  0  0  0  0  0  0  0  0
   14.5640  -27.3018   -1.2396 C   0  0  0  0  0  0  0  0  0  0  0  0
   13.7991  -27.1004    0.0896 C   0  0  0  0  0  0  0  0  0  0  0  0
   13.5237  -25.5852    0.0160 C   0  0  0  0  0  0  0  0  0  0  0  0
   14.8565  -25.1151   -0.4652 C   0  0  1  0  0  0  0  0  0  0  0  0
   15.8113  -25.0560    0.6652 C   0  0  0  0  0  0  0  0  0  0  0  0
   15.8018  -24.1032    1.6675 O   0  0  0  0  0  0  0  0  0  0  0  0
   16.6981  -25.9419    0.7151 O   0  0  0  0  0  0  0  0  0  0  0  0
  2  3  2  0
  2  1  1  0
  4  2  1  0
  5  4  1  0
  5  7  1  0
  5  6  1  6
  7  8  2  0
  9 10  1  0
 10 12  1  0
 11 10  2  0
 12 13  1  0
 14 13  1  1
 14 16  1  0
 15  7  1  0
 15 14  1  0
 16 17  2  0
 18 16  1  0
 18 22  1  0
 19 18  1  0
 20 21  1  0
 20 19  1  0
 21 22  1  0
 22 23  1  1
 23 25  2  0
 23 24  1  0
M  END
$$$$
