NQP.pdb
     RDKit          3D

 25 25  0  0  1  0  0  0  0  0999 V2000
   28.3053  -16.5241  -17.1923 N   0  0  0  0  0  0  0  0  0  0  0  0
   27.6218  -17.2189  -18.2251 C   0  0  0  0  0  0  0  0  0  0  0  0
   27.5033  -16.6941  -19.3765 O   0  0  0  0  0  0  0  0  0  0  0  0
   27.0554  -18.5560  -17.9322 C   0  0  0  0  0  0  0  0  0  0  0  0
   27.3341  -18.9613  -16.5240 C   0  0  2  0  0  0  0  0  0  0  0  0
   28.7498  -19.2722  -16.4291 N   0  0  0  0  0  0  0  0  0  0  0  0
   26.5118  -20.0448  -15.9941 C   0  0  0  0  0  0  0  0  0  0  0  0
   26.0029  -20.8985  -16.7921 O   0  0  0  0  0  0  0  0  0  0  0  0
   26.1559  -21.6289   -9.7952 N   0  0  0  0  0  0  0  0  0  0  0  0
   25.1578  -20.8089  -10.3435 C   0  0  0  0  0  0  0  0  0  0  0  0
   24.3874  -20.1734   -9.5509 O   0  0  0  0  0  0  0  0  0  0  0  0
   24.9367  -20.6304  -11.7968 C   0  0  0  0  0  0  0  0  0  0  0  0
   25.8315  -21.4983  -12.6257 C   0  0  0  0  0  0  0  0  0  0  0  0
   25.4456  -21.3121  -14.1035 C   0  0  2  0  0  0  0  0  0  0  0  0
   26.2274  -20.2282  -14.6098 N   0  0  0  0  0  0  0  0  0  0  0  0
   24.0133  -21.1012  -14.2175 C   0  0  0  0  0  0  0  0  0  0  0  0
   23.6013  -19.8785  -14.0189 O   0  0  0  0  0  0  0  0  0  0  0  0
   22.9802  -22.0129  -14.5099 N   0  0  0  0  0  0  0  0  0  0  0  0
   23.0885  -23.4362  -14.6162 C   0  0  0  0  0  0  0  0  0  0  0  0
   21.6389  -23.9444  -14.7974 C   0  0  0  0  0  0  0  0  0  0  0  0
   21.0220  -22.7423  -15.5400 C   0  0  0  0  0  0  0  0  0  0  0  0
   21.6106  -21.6286  -14.7386 C   0  0  1  0  0  0  0  0  0  0  0  0
   20.8510  -21.4541  -13.4793 C   0  0  0  0  0  0  0  0  0  0  0  0
   19.5913  -20.8923  -13.3798 O   0  0  0  0  0  0  0  0  0  0  0  0
   21.3960  -21.8482  -12.4204 O   0  0  0  0  0  0  0  0  0  0  0  0
  2  3  2  0
  2  1  1  0
  4  2  1  0
  5  4  1  0
  5  7  1  0
  5  6  1  6
  7  8  2  0
  9 10  1  0
 10 12  1  0
 11 10  2  0
 12 13  1  0
 14 13  1  1
 14 16  1  0
 15  7  1  0
 15 14  1  0
 16 17  2  0
 18 16  1  0
 18 22  1  0
 19 18  1  0
 20 21  1  0
 20 19  1  0
 21 22  1  0
 22 23  1  1
 23 25  2  0
 23 24  1  0
M  END
$$$$
