NQP.pdb
     RDKit          3D

 25 25  0  0  1  0  0  0  0  0999 V2000
   26.4077  -27.3721  -17.3193 N   0  0  0  0  0  0  0  0  0  0  0  0
   25.9233  -26.0400  -17.2344 C   0  0  0  0  0  0  0  0  0  0  0  0
   25.1036  -25.6030  -18.1018 O   0  0  0  0  0  0  0  0  0  0  0  0
   26.3910  -25.1798  -16.1227 C   0  0  0  0  0  0  0  0  0  0  0  0
   26.7070  -23.8037  -16.6039 C   0  0  2  0  0  0  0  0  0  0  0  0
   27.9373  -23.8797  -17.3723 N   0  0  0  0  0  0  0  0  0  0  0  0
   26.7798  -22.7672  -15.5787 C   0  0  0  0  0  0  0  0  0  0  0  0
   27.6789  -22.8332  -14.6777 O   0  0  0  0  0  0  0  0  0  0  0  0
   25.5104  -16.7551  -16.3465 N   0  0  0  0  0  0  0  0  0  0  0  0
   26.7554  -17.2927  -15.9855 C   0  0  0  0  0  0  0  0  0  0  0  0
   27.8048  -16.6040  -16.2097 O   0  0  0  0  0  0  0  0  0  0  0  0
   26.9342  -18.6206  -15.3552 C   0  0  0  0  0  0  0  0  0  0  0  0
   25.6330  -19.3131  -15.0935 C   0  0  0  0  0  0  0  0  0  0  0  0
   25.9369  -20.6811  -14.4583 C   0  0  2  0  0  0  0  0  0  0  0  0
   25.8966  -21.6511  -15.5071 N   0  0  0  0  0  0  0  0  0  0  0  0
   24.9981  -20.9461  -13.3824 C   0  0  0  0  0  0  0  0  0  0  0  0
   23.8612  -21.4796  -13.7388 O   0  0  0  0  0  0  0  0  0  0  0  0
   25.1139  -20.7172  -11.9974 N   0  0  0  0  0  0  0  0  0  0  0  0
   26.2407  -20.1726  -11.3029 C   0  0  0  0  0  0  0  0  0  0  0  0
   25.7739  -19.9985   -9.8387 C   0  0  0  0  0  0  0  0  0  0  0  0
   24.7649  -21.1598   -9.7369 C   0  0  0  0  0  0  0  0  0  0  0  0
   24.0676  -20.9966  -11.0470 C   0  0  1  0  0  0  0  0  0  0  0  0
   23.0727  -19.9032  -10.9587 C   0  0  0  0  0  0  0  0  0  0  0  0
   21.8490  -19.9890  -10.3202 O   0  0  0  0  0  0  0  0  0  0  0  0
   23.3659  -18.8140  -11.5074 O   0  0  0  0  0  0  0  0  0  0  0  0
  2  3  2  0
  2  1  1  0
  4  2  1  0
  5  4  1  0
  5  7  1  0
  5  6  1  1
  7  8  2  0
  9 10  1  0
 10 12  1  0
 11 10  2  0
 12 13  1  0
 14 13  1  6
 14 16  1  0
 15  7  1  0
 15 14  1  0
 16 17  2  0
 18 16  1  0
 18 22  1  0
 19 18  1  0
 20 21  1  0
 20 19  1  0
 21 22  1  0
 22 23  1  1
 23 25  2  0
 23 24  1  0
M  END
$$$$
