NQP.pdb
     RDKit          3D

 25 25  0  0  1  0  0  0  0  0999 V2000
   29.6499  -19.3738  -17.5030 N   0  0  0  0  0  0  0  0  0  0  0  0
   28.3692  -19.1337  -18.0675 C   0  0  0  0  0  0  0  0  0  0  0  0
   28.2313  -18.2736  -18.9930 O   0  0  0  0  0  0  0  0  0  0  0  0
   27.2091  -19.9011  -17.5578 C   0  0  0  0  0  0  0  0  0  0  0  0
   27.6210  -20.8446  -16.4783 C   0  0  2  0  0  0  0  0  0  0  0  0
   28.3102  -21.9574  -17.1080 N   0  0  0  0  0  0  0  0  0  0  0  0
   26.5580  -21.3068  -15.5910 C   0  0  0  0  0  0  0  0  0  0  0  0
   25.7795  -22.2410  -15.9726 O   0  0  0  0  0  0  0  0  0  0  0  0
   25.8603  -20.2806   -9.2322 N   0  0  0  0  0  0  0  0  0  0  0  0
   24.6601  -20.8213   -9.7187 C   0  0  0  0  0  0  0  0  0  0  0  0
   23.7262  -21.0767   -8.8891 O   0  0  0  0  0  0  0  0  0  0  0  0
   24.4028  -21.1187  -11.1463 C   0  0  0  0  0  0  0  0  0  0  0  0
   25.5365  -20.7068  -12.0331 C   0  0  0  0  0  0  0  0  0  0  0  0
   25.2291  -21.1913  -13.4607 C   0  0  2  0  0  0  0  0  0  0  0  0
   26.3180  -20.7786  -14.2893 N   0  0  0  0  0  0  0  0  0  0  0  0
   23.9412  -20.6764  -13.8909 C   0  0  0  0  0  0  0  0  0  0  0  0
   23.8473  -19.3769  -13.9727 O   0  0  0  0  0  0  0  0  0  0  0  0
   22.7588  -21.3587  -14.2379 N   0  0  0  0  0  0  0  0  0  0  0  0
   22.5389  -22.7729  -14.2149 C   0  0  0  0  0  0  0  0  0  0  0  0
   21.0377  -22.9588  -14.5373 C   0  0  0  0  0  0  0  0  0  0  0  0
   20.8031  -21.7359  -15.4464 C   0  0  0  0  0  0  0  0  0  0  0  0
   21.5502  -20.7033  -14.6688 C   0  0  1  0  0  0  0  0  0  0  0  0
   20.7254  -20.2282  -13.5344 C   0  0  0  0  0  0  0  0  0  0  0  0
   20.9643  -20.5111  -12.2019 O   0  0  0  0  0  0  0  0  0  0  0  0
   19.7318  -19.5124  -13.8066 O   0  0  0  0  0  0  0  0  0  0  0  0
  2  3  2  0
  2  1  1  0
  4  2  1  0
  5  4  1  0
  5  7  1  0
  5  6  1  6
  7  8  2  0
  9 10  1  0
 10 12  1  0
 11 10  2  0
 12 13  1  0
 14 13  1  1
 14 16  1  0
 15  7  1  0
 15 14  1  0
 16 17  2  0
 18 16  1  0
 18 22  1  0
 19 18  1  0
 20 21  1  0
 20 19  1  0
 21 22  1  0
 22 23  1  1
 23 25  2  0
 23 24  1  0
M  END
$$$$
