NQP.pdb
     RDKit          3D

 25 25  0  0  1  0  0  0  0  0999 V2000
   28.0588  -12.2714  -15.6675 N   0  0  0  0  0  0  0  0  0  0  0  0
   28.2449  -11.2419  -16.6276 C   0  0  0  0  0  0  0  0  0  0  0  0
   29.4173  -10.9165  -16.9947 O   0  0  0  0  0  0  0  0  0  0  0  0
   27.0527  -10.5623  -17.1856 C   0  0  0  0  0  0  0  0  0  0  0  0
   25.7941  -11.1774  -16.6732 C   0  0  2  0  0  0  0  0  0  0  0  0
   25.6614  -12.4848  -17.2923 N   0  0  0  0  0  0  0  0  0  0  0  0
   24.5802  -10.3831  -16.8354 C   0  0  0  0  0  0  0  0  0  0  0  0
   24.0172  -10.3174  -17.9770 O   0  0  0  0  0  0  0  0  0  0  0  0
   18.8568   -9.6785  -16.6502 N   0  0  0  0  0  0  0  0  0  0  0  0
   19.4338   -9.6377  -15.3716 C   0  0  0  0  0  0  0  0  0  0  0  0
   19.0345  -10.4738  -14.4957 O   0  0  0  0  0  0  0  0  0  0  0  0
   20.4866   -8.6783  -14.9670 C   0  0  0  0  0  0  0  0  0  0  0  0
   21.8170   -9.3348  -14.7665 C   0  0  0  0  0  0  0  0  0  0  0  0
   22.7297   -8.9372  -15.9397 C   0  0  2  0  0  0  0  0  0  0  0  0
   23.9556   -9.6547  -15.7817 N   0  0  0  0  0  0  0  0  0  0  0  0
   22.8976   -7.4950  -15.9685 C   0  0  0  0  0  0  0  0  0  0  0  0
   23.6583   -6.9926  -15.0341 O   0  0  0  0  0  0  0  0  0  0  0  0
   22.3654   -6.5349  -16.8510 N   0  0  0  0  0  0  0  0  0  0  0  0
   21.4712   -6.7679  -17.9441 C   0  0  0  0  0  0  0  0  0  0  0  0
   21.0925   -5.3633  -18.4696 C   0  0  0  0  0  0  0  0  0  0  0  0
   22.3863   -4.5930  -18.1380 C   0  0  0  0  0  0  0  0  0  0  0  0
   22.6453   -5.1240  -16.7669 C   0  0  1  0  0  0  0  0  0  0  0  0
   21.7819   -4.4306  -15.7836 C   0  0  0  0  0  0  0  0  0  0  0  0
   21.9561   -3.1297  -15.3478 O   0  0  0  0  0  0  0  0  0  0  0  0
   20.8167   -5.0770  -15.3101 O   0  0  0  0  0  0  0  0  0  0  0  0
  2  3  2  0
  2  1  1  0
  4  2  1  0
  5  4  1  0
  5  7  1  0
  5  6  1  6
  7  8  2  0
  9 10  1  0
 10 12  1  0
 11 10  2  0
 12 13  1  0
 14 13  1  1
 14 16  1  0
 15  7  1  0
 15 14  1  0
 16 17  2  0
 18 16  1  0
 18 22  1  0
 19 18  1  0
 20 21  1  0
 20 19  1  0
 21 22  1  0
 22 23  1  1
 23 25  2  0
 23 24  1  0
M  END
$$$$
