NQP.pdb
     RDKit          3D

 25 25  0  0  1  0  0  0  0  0999 V2000
   20.5367  -15.7641  -15.7404 N   0  0  0  0  0  0  0  0  0  0  0  0
   19.7889  -16.9694  -15.8066 C   0  0  0  0  0  0  0  0  0  0  0  0
   18.7079  -17.0135  -16.4735 O   0  0  0  0  0  0  0  0  0  0  0  0
   20.2927  -18.1624  -15.0871 C   0  0  0  0  0  0  0  0  0  0  0  0
   21.1025  -19.0319  -15.9889 C   0  0  2  0  0  0  0  0  0  0  0  0
   20.1775  -19.8046  -16.7998 N   0  0  0  0  0  0  0  0  0  0  0  0
   22.0878  -19.8895  -15.3374 C   0  0  0  0  0  0  0  0  0  0  0  0
   21.7069  -20.7408  -14.4686 O   0  0  0  0  0  0  0  0  0  0  0  0
   28.2462  -21.0124  -17.0500 N   0  0  0  0  0  0  0  0  0  0  0  0
   27.9826  -21.6869  -15.8480 C   0  0  0  0  0  0  0  0  0  0  0  0
   28.8774  -22.4625  -15.3753 O   0  0  0  0  0  0  0  0  0  0  0  0
   26.7211  -21.5572  -15.0835 C   0  0  0  0  0  0  0  0  0  0  0  0
   25.7152  -20.6911  -15.7761 C   0  0  0  0  0  0  0  0  0  0  0  0
   24.4482  -20.6368  -14.9047 C   0  0  2  0  0  0  0  0  0  0  0  0
   23.4863  -19.8483  -15.6085 N   0  0  0  0  0  0  0  0  0  0  0  0
   24.7758  -20.1190  -13.5880 C   0  0  0  0  0  0  0  0  0  0  0  0
   25.0219  -18.8384  -13.5260 O   0  0  0  0  0  0  0  0  0  0  0  0
   24.8744  -20.7815  -12.3489 N   0  0  0  0  0  0  0  0  0  0  0  0
   24.6577  -22.1731  -12.0936 C   0  0  0  0  0  0  0  0  0  0  0  0
   25.0468  -22.3826  -10.6114 C   0  0  0  0  0  0  0  0  0  0  0  0
   24.6798  -20.9995  -10.0376 C   0  0  0  0  0  0  0  0  0  0  0  0
   25.2357  -20.1294  -11.1159 C   0  0  1  0  0  0  0  0  0  0  0  0
   26.7013  -19.9939  -10.9525 C   0  0  0  0  0  0  0  0  0  0  0  0
   27.6514  -20.5531  -11.7875 O   0  0  0  0  0  0  0  0  0  0  0  0
   27.1107  -19.3177   -9.9785 O   0  0  0  0  0  0  0  0  0  0  0  0
  2  3  2  0
  2  1  1  0
  4  2  1  0
  5  4  1  0
  5  7  1  0
  5  6  1  1
  7  8  2  0
  9 10  1  0
 10 12  1  0
 11 10  2  0
 12 13  1  0
 14 13  1  6
 14 16  1  0
 15  7  1  0
 15 14  1  0
 16 17  2  0
 18 16  1  0
 18 22  1  0
 19 18  1  0
 20 21  1  0
 20 19  1  0
 21 22  1  0
 22 23  1  1
 23 25  2  0
 23 24  1  0
M  END
$$$$
