NQP.pdb
     RDKit          3D

 25 25  0  0  1  0  0  0  0  0999 V2000
   11.5345  -10.6754   -8.4274 N   0  0  0  0  0  0  0  0  0  0  0  0
   12.4021  -10.1095   -9.3988 C   0  0  0  0  0  0  0  0  0  0  0  0
   11.9439   -9.7404  -10.5253 O   0  0  0  0  0  0  0  0  0  0  0  0
   13.8394   -9.9610   -9.0721 C   0  0  0  0  0  0  0  0  0  0  0  0
   14.6905  -10.1855  -10.2763 C   0  0  2  0  0  0  0  0  0  0  0  0
   14.9697  -11.6088  -10.3566 N   0  0  0  0  0  0  0  0  0  0  0  0
   15.9153   -9.3949  -10.3521 C   0  0  0  0  0  0  0  0  0  0  0  0
   16.6948   -9.3416   -9.3451 O   0  0  0  0  0  0  0  0  0  0  0  0
   20.5611   -9.4388  -14.2322 N   0  0  0  0  0  0  0  0  0  0  0  0
   20.7604   -8.3000  -13.4368 C   0  0  0  0  0  0  0  0  0  0  0  0
   21.9172   -7.7642  -13.4183 O   0  0  0  0  0  0  0  0  0  0  0  0
   19.7059   -7.6721  -12.6083 C   0  0  0  0  0  0  0  0  0  0  0  0
   18.4381   -8.4681  -12.5904 C   0  0  0  0  0  0  0  0  0  0  0  0
   17.4965   -7.8470  -11.5440 C   0  0  2  0  0  0  0  0  0  0  0  0
   16.3199   -8.6572  -11.5022 N   0  0  0  0  0  0  0  0  0  0  0  0
   17.2362   -6.4574  -11.8763 C   0  0  0  0  0  0  0  0  0  0  0  0
   16.8124   -6.2332  -13.0905 O   0  0  0  0  0  0  0  0  0  0  0  0
   17.3693   -5.2946  -11.0926 N   0  0  0  0  0  0  0  0  0  0  0  0
   17.8155   -5.2141   -9.7350 C   0  0  0  0  0  0  0  0  0  0  0  0
   17.9157   -3.7019   -9.4262 C   0  0  0  0  0  0  0  0  0  0  0  0
   16.7977   -3.1645  -10.3419 C   0  0  0  0  0  0  0  0  0  0  0  0
   17.0772   -3.9668  -11.5696 C   0  0  1  0  0  0  0  0  0  0  0  0
   18.2070   -3.3702  -12.3184 C   0  0  0  0  0  0  0  0  0  0  0  0
   18.1573   -2.1804  -13.0216 O   0  0  0  0  0  0  0  0  0  0  0  0
   19.2943   -3.9958  -12.3125 O   0  0  0  0  0  0  0  0  0  0  0  0
  2  3  2  0
  2  1  1  0
  4  2  1  0
  5  4  1  0
  5  7  1  0
  5  6  1  1
  7  8  2  0
  9 10  1  0
 10 12  1  0
 11 10  2  0
 12 13  1  0
 14 13  1  6
 14 16  1  0
 15  7  1  0
 15 14  1  0
 16 17  2  0
 18 16  1  0
 18 22  1  0
 19 18  1  0
 20 21  1  0
 20 19  1  0
 21 22  1  0
 22 23  1  1
 23 25  2  0
 23 24  1  0
M  END
$$$$
