NQP.pdb
     RDKit          3D

 25 25  0  0  1  0  0  0  0  0999 V2000
   15.2155  -11.3924  -17.6770 N   0  0  0  0  0  0  0  0  0  0  0  0
   14.9016  -10.7957  -16.4272 C   0  0  0  0  0  0  0  0  0  0  0  0
   13.7441  -10.9424  -15.9233 O   0  0  0  0  0  0  0  0  0  0  0  0
   15.9441  -10.0060  -15.7314 C   0  0  0  0  0  0  0  0  0  0  0  0
   17.2713  -10.6825  -15.8073 C   0  0  2  0  0  0  0  0  0  0  0  0
   17.1703  -11.9302  -15.0704 N   0  0  0  0  0  0  0  0  0  0  0  0
   18.4187   -9.8937  -15.3689 C   0  0  0  0  0  0  0  0  0  0  0  0
   18.4331   -9.4004  -14.1938 O   0  0  0  0  0  0  0  0  0  0  0  0
   24.0702  -10.3435  -18.0859 N   0  0  0  0  0  0  0  0  0  0  0  0
   23.4009  -11.1314  -17.1368 C   0  0  0  0  0  0  0  0  0  0  0  0
   23.7498  -12.3503  -17.0014 O   0  0  0  0  0  0  0  0  0  0  0  0
   22.3048  -10.6369  -16.2727 C   0  0  0  0  0  0  0  0  0  0  0  0
   21.8762   -9.2467  -16.6262 C   0  0  0  0  0  0  0  0  0  0  0  0
   20.6854   -8.8689  -15.7280 C   0  0  2  0  0  0  0  0  0  0  0  0
   19.5607   -9.6267  -16.1786 N   0  0  0  0  0  0  0  0  0  0  0  0
   20.4740   -7.4326  -15.7657 C   0  0  0  0  0  0  0  0  0  0  0  0
   19.6173   -7.0075  -16.6543 O   0  0  0  0  0  0  0  0  0  0  0  0
   21.0509   -6.4077  -14.9907 N   0  0  0  0  0  0  0  0  0  0  0  0
   22.1162   -6.5364  -14.0433 C   0  0  0  0  0  0  0  0  0  0  0  0
   22.4507   -5.0913  -13.6050 C   0  0  0  0  0  0  0  0  0  0  0  0
   21.0618   -4.4373  -13.7477 C   0  0  0  0  0  0  0  0  0  0  0  0
   20.6443   -5.0269  -15.0542 C   0  0  1  0  0  0  0  0  0  0  0  0
   21.2882   -4.2952  -16.1691 C   0  0  0  0  0  0  0  0  0  0  0  0
   20.8752   -3.0712  -16.6629 O   0  0  0  0  0  0  0  0  0  0  0  0
   22.2875   -4.8305  -16.7063 O   0  0  0  0  0  0  0  0  0  0  0  0
  2  3  2  0
  2  1  1  0
  4  2  1  0
  5  4  1  0
  5  7  1  0
  5  6  1  1
  7  8  2  0
  9 10  1  0
 10 12  1  0
 11 10  2  0
 12 13  1  0
 14 13  1  6
 14 16  1  0
 15  7  1  0
 15 14  1  0
 16 17  2  0
 18 16  1  0
 18 22  1  0
 19 18  1  0
 20 21  1  0
 20 19  1  0
 21 22  1  0
 22 23  1  6
 23 25  2  0
 23 24  1  0
M  END
$$$$
