NQP.pdb
     RDKit          3D

 25 25  0  0  1  0  0  0  0  0999 V2000
   20.0413  -11.5798    4.8015 N   0  0  0  0  0  0  0  0  0  0  0  0
   20.3398  -12.0910    6.0922 C   0  0  0  0  0  0  0  0  0  0  0  0
   21.2958  -11.5972    6.7684 O   0  0  0  0  0  0  0  0  0  0  0  0
   19.5192  -13.2025    6.6270 C   0  0  0  0  0  0  0  0  0  0  0  0
   18.4222  -13.5635    5.6829 C   0  0  2  0  0  0  0  0  0  0  0  0
   17.4340  -12.5001    5.7319 N   0  0  0  0  0  0  0  0  0  0  0  0
   17.8093  -14.8731    5.8833 C   0  0  0  0  0  0  0  0  0  0  0  0
   17.4158  -15.2140    7.0467 O   0  0  0  0  0  0  0  0  0  0  0  0
   16.4943  -19.3902    1.3611 N   0  0  0  0  0  0  0  0  0  0  0  0
   16.0324  -19.8452    2.6057 C   0  0  0  0  0  0  0  0  0  0  0  0
   15.4259  -20.9656    2.6583 O   0  0  0  0  0  0  0  0  0  0  0  0
   16.2036  -19.1034    3.8757 C   0  0  0  0  0  0  0  0  0  0  0  0
   16.9274  -17.8060    3.6911 C   0  0  0  0  0  0  0  0  0  0  0  0
   17.0488  -17.1248    5.0654 C   0  0  2  0  0  0  0  0  0  0  0  0
   17.6087  -15.8284    4.8450 N   0  0  0  0  0  0  0  0  0  0  0  0
   17.8348  -17.9550    5.9609 C   0  0  0  0  0  0  0  0  0  0  0  0
   19.1269  -17.9236    5.7774 O   0  0  0  0  0  0  0  0  0  0  0  0
   17.4259  -18.8021    7.0092 N   0  0  0  0  0  0  0  0  0  0  0  0
   16.0913  -19.0063    7.4845 C   0  0  0  0  0  0  0  0  0  0  0  0
   16.1985  -20.1403    8.5308 C   0  0  0  0  0  0  0  0  0  0  0  0
   17.6218  -19.8820    9.0643 C   0  0  0  0  0  0  0  0  0  0  0  0
   18.3269  -19.6272    7.7731 C   0  0  1  0  0  0  0  0  0  0  0  0
   18.6316  -20.9107    7.1003 C   0  0  0  0  0  0  0  0  0  0  0  0
   18.0336  -21.3629    5.9382 O   0  0  0  0  0  0  0  0  0  0  0  0
   19.5016  -21.6439    7.6285 O   0  0  0  0  0  0  0  0  0  0  0  0
  2  3  2  0
  2  1  1  0
  4  2  1  0
  5  4  1  0
  5  7  1  0
  5  6  1  1
  7  8  2  0
  9 10  1  0
 10 12  1  0
 11 10  2  0
 12 13  1  0
 14 13  1  6
 14 16  1  0
 15  7  1  0
 15 14  1  0
 16 17  2  0
 18 16  1  0
 18 22  1  0
 19 18  1  0
 20 21  1  0
 20 19  1  0
 21 22  1  0
 22 23  1  6
 23 25  2  0
 23 24  1  0
M  END
$$$$
