NQP.pdb
     RDKit          3D

 25 25  0  0  1  0  0  0  0  0999 V2000
   18.0848  -12.9231  -17.1808 N   0  0  0  0  0  0  0  0  0  0  0  0
   18.5386  -13.2306  -15.8709 C   0  0  0  0  0  0  0  0  0  0  0  0
   18.0772  -14.2435  -15.2574 O   0  0  0  0  0  0  0  0  0  0  0  0
   19.5521  -12.3520  -15.2420 C   0  0  0  0  0  0  0  0  0  0  0  0
   19.9571  -11.2521  -16.1647 C   0  0  2  0  0  0  0  0  0  0  0  0
   20.6260  -11.8584  -17.3027 N   0  0  0  0  0  0  0  0  0  0  0  0
   20.7623  -10.1859  -15.5766 C   0  0  0  0  0  0  0  0  0  0  0  0
   20.5395   -9.8155  -14.3776 O   0  0  0  0  0  0  0  0  0  0  0  0
   24.4764  -11.0979  -17.5727 N   0  0  0  0  0  0  0  0  0  0  0  0
   24.9628  -10.9071  -16.2702 C   0  0  0  0  0  0  0  0  0  0  0  0
   25.6253  -11.8491  -15.7229 O   0  0  0  0  0  0  0  0  0  0  0  0
   24.7559   -9.6720  -15.4802 C   0  0  0  0  0  0  0  0  0  0  0  0
   24.0274   -8.6132  -16.2480 C   0  0  0  0  0  0  0  0  0  0  0  0
   22.6105   -8.4848  -15.6620 C   0  0  2  0  0  0  0  0  0  0  0  0
   21.8125   -9.5081  -16.2609 N   0  0  0  0  0  0  0  0  0  0  0  0
   22.1026   -7.1429  -15.8862 C   0  0  0  0  0  0  0  0  0  0  0  0
   21.5860   -6.9203  -17.0642 O   0  0  0  0  0  0  0  0  0  0  0  0
   22.0768   -6.0253  -15.0294 N   0  0  0  0  0  0  0  0  0  0  0  0
   22.6343   -5.9317  -13.7143 C   0  0  0  0  0  0  0  0  0  0  0  0
   22.4569   -4.4525  -13.2990 C   0  0  0  0  0  0  0  0  0  0  0  0
   21.1654   -4.1090  -14.0677 C   0  0  0  0  0  0  0  0  0  0  0  0
   21.4743   -4.7626  -15.3740 C   0  0  1  0  0  0  0  0  0  0  0  0
   22.3768   -3.9005  -16.1710 C   0  0  0  0  0  0  0  0  0  0  0  0
   21.9901   -2.7690  -16.8657 O   0  0  0  0  0  0  0  0  0  0  0  0
   23.5877   -4.2247  -16.2179 O   0  0  0  0  0  0  0  0  0  0  0  0
  2  3  2  0
  2  1  1  0
  4  2  1  0
  5  4  1  0
  5  7  1  0
  5  6  1  6
  7  8  2  0
  9 10  1  0
 10 12  1  0
 11 10  2  0
 12 13  1  0
 14 13  1  6
 14 16  1  0
 15  7  1  0
 15 14  1  0
 16 17  2  0
 18 16  1  0
 18 22  1  0
 19 18  1  0
 20 21  1  0
 20 19  1  0
 21 22  1  0
 22 23  1  6
 23 25  2  0
 23 24  1  0
M  END
$$$$
