NQP.pdb
     RDKit          3D

 25 25  0  0  1  0  0  0  0  0999 V2000
   16.3102  -12.8668  -17.9748 N   0  0  0  0  0  0  0  0  0  0  0  0
   15.9100  -11.5971  -17.4808 C   0  0  0  0  0  0  0  0  0  0  0  0
   14.7948  -11.0987  -17.8318 O   0  0  0  0  0  0  0  0  0  0  0  0
   16.8136  -10.8737  -16.5562 C   0  0  0  0  0  0  0  0  0  0  0  0
   18.0908  -11.6188  -16.3600 C   0  0  2  0  0  0  0  0  0  0  0  0
   17.7896  -12.8082  -15.5826 N   0  0  0  0  0  0  0  0  0  0  0  0
   19.1915  -10.8606  -15.7731 C   0  0  0  0  0  0  0  0  0  0  0  0
   19.1480  -10.5370  -14.5410 O   0  0  0  0  0  0  0  0  0  0  0  0
   25.2117  -11.3258  -17.4793 N   0  0  0  0  0  0  0  0  0  0  0  0
   24.8228  -11.4922  -16.1412 C   0  0  0  0  0  0  0  0  0  0  0  0
   25.5807  -12.1620  -15.3649 O   0  0  0  0  0  0  0  0  0  0  0  0
   23.5777  -10.9361  -15.5641 C   0  0  0  0  0  0  0  0  0  0  0  0
   22.7270  -10.2482  -16.5861 C   0  0  0  0  0  0  0  0  0  0  0  0
   21.4459   -9.7556  -15.8908 C   0  0  2  0  0  0  0  0  0  0  0  0
   20.3480  -10.4436  -16.4938 N   0  0  0  0  0  0  0  0  0  0  0  0
   21.3540   -8.3097  -15.9908 C   0  0  0  0  0  0  0  0  0  0  0  0
   20.9433   -7.8445  -17.1394 O   0  0  0  0  0  0  0  0  0  0  0  0
   21.6408   -7.3121  -15.0387 N   0  0  0  0  0  0  0  0  0  0  0  0
   22.1203   -7.5042  -13.7038 C   0  0  0  0  0  0  0  0  0  0  0  0
   22.4068   -6.0835  -13.1635 C   0  0  0  0  0  0  0  0  0  0  0  0
   21.3432   -5.2802  -13.9385 C   0  0  0  0  0  0  0  0  0  0  0  0
   21.5003   -5.8999  -15.2877 C   0  0  1  0  0  0  0  0  0  0  0  0
   22.6782   -5.3238  -15.9758 C   0  0  0  0  0  0  0  0  0  0  0  0
   22.7141   -4.0874  -16.5943 O   0  0  0  0  0  0  0  0  0  0  0  0
   23.7253   -6.0143  -15.9978 O   0  0  0  0  0  0  0  0  0  0  0  0
  2  3  2  0
  2  1  1  0
  4  2  1  0
  5  4  1  0
  5  7  1  0
  5  6  1  1
  7  8  2  0
  9 10  1  0
 10 12  1  0
 11 10  2  0
 12 13  1  0
 14 13  1  6
 14 16  1  0
 15  7  1  0
 15 14  1  0
 16 17  2  0
 18 16  1  0
 18 22  1  0
 19 18  1  0
 20 21  1  0
 20 19  1  0
 21 22  1  0
 22 23  1  1
 23 25  2  0
 23 24  1  0
M  END
$$$$
