NQP.pdb
     RDKit          3D

 25 25  0  0  1  0  0  0  0  0999 V2000
   28.4587  -27.6080  -17.1248 N   0  0  0  0  0  0  0  0  0  0  0  0
   27.5271  -26.5372  -17.0800 C   0  0  0  0  0  0  0  0  0  0  0  0
   26.5157  -26.5392  -17.8496 O   0  0  0  0  0  0  0  0  0  0  0  0
   27.7592  -25.4286  -16.1251 C   0  0  0  0  0  0  0  0  0  0  0  0
   27.8829  -24.1234  -16.8365 C   0  0  2  0  0  0  0  0  0  0  0  0
   29.1565  -24.1237  -17.5351 N   0  0  0  0  0  0  0  0  0  0  0  0
   27.7241  -22.9277  -16.0143 C   0  0  0  0  0  0  0  0  0  0  0  0
   28.7018  -22.5121  -15.3100 O   0  0  0  0  0  0  0  0  0  0  0  0
   27.4846  -17.8742  -14.7101 N   0  0  0  0  0  0  0  0  0  0  0  0
   27.7982  -18.3229  -16.0023 C   0  0  0  0  0  0  0  0  0  0  0  0
   28.8115  -17.8221  -16.5923 O   0  0  0  0  0  0  0  0  0  0  0  0
   27.0227  -19.3501  -16.7346 C   0  0  0  0  0  0  0  0  0  0  0  0
   25.8630  -19.8686  -15.9424 C   0  0  0  0  0  0  0  0  0  0  0  0
   26.3597  -21.0378  -15.0742 C   0  0  2  0  0  0  0  0  0  0  0  0
   26.5230  -22.1645  -15.9380 N   0  0  0  0  0  0  0  0  0  0  0  0
   25.4324  -21.2705  -13.9811 C   0  0  0  0  0  0  0  0  0  0  0  0
   24.3774  -21.9820  -14.2725 O   0  0  0  0  0  0  0  0  0  0  0  0
   25.4842  -20.8471  -12.6387 N   0  0  0  0  0  0  0  0  0  0  0  0
   26.4580  -19.9843  -12.0419 C   0  0  0  0  0  0  0  0  0  0  0  0
   25.9531  -19.7316  -10.6019 C   0  0  0  0  0  0  0  0  0  0  0  0
   25.2241  -21.0635  -10.3337 C   0  0  0  0  0  0  0  0  0  0  0  0
   24.5181  -21.2258  -11.6391 C   0  0  1  0  0  0  0  0  0  0  0  0
   23.3060  -20.3755  -11.6688 C   0  0  0  0  0  0  0  0  0  0  0  0
   22.1348  -20.6332  -10.9801 O   0  0  0  0  0  0  0  0  0  0  0  0
   23.3478  -19.3400  -12.3755 O   0  0  0  0  0  0  0  0  0  0  0  0
  2  3  2  0
  2  1  1  0
  4  2  1  0
  5  4  1  0
  5  7  1  0
  5  6  1  1
  7  8  2  0
  9 10  1  0
 10 12  1  0
 11 10  2  0
 12 13  1  0
 14 13  1  6
 14 16  1  0
 15  7  1  0
 15 14  1  0
 16 17  2  0
 18 16  1  0
 18 22  1  0
 19 18  1  0
 20 21  1  0
 20 19  1  0
 21 22  1  0
 22 23  1  1
 23 25  2  0
 23 24  1  0
M  END
$$$$
