LKA.pdb
     RDKit          3D

 23 22  0  0  1  0  0  0  0  0999 V2000
   23.8493  -15.9315  -17.5343 C   0  0  0  0  0  0  0  0  0  0  0  0
   23.3987  -17.0070  -18.5013 C   0  0  2  0  0  0  0  0  0  0  0  0
   22.5203  -16.3744  -19.5419 C   0  0  0  0  0  0  0  0  0  0  0  0
   22.6964  -18.0683  -17.7067 C   0  0  0  0  0  0  0  0  0  0  0  0
   23.5791  -18.6943  -16.6546 C   0  0  2  0  0  0  0  0  0  0  0  0
   24.7100  -19.3592  -17.2222 N   0  0  0  0  0  0  0  0  0  0  0  0
   22.7401  -19.5957  -15.8255 C   0  0  0  0  0  0  0  0  0  0  0  0
   22.4527  -20.7538  -16.2176 O   0  0  0  0  0  0  0  0  0  0  0  0
   22.2150  -19.2032  -14.5451 N   0  0  0  0  0  0  0  0  0  0  0  0
   21.5099  -20.1096  -13.6791 C   0  0  1  0  0  0  0  0  0  0  0  0
   21.7133  -19.8983  -12.2217 C   0  0  0  0  0  0  0  0  0  0  0  0
   21.0541  -20.8367  -11.2898 C   0  0  0  0  0  0  0  0  0  0  0  0
   21.1413  -20.5389   -9.8384 C   0  0  0  0  0  0  0  0  0  0  0  0
   20.5637  -21.7684   -9.1137 C   0  0  0  0  0  0  0  0  0  0  0  0
   20.4698  -21.5453   -7.6958 N   0  0  0  0  0  0  0  0  0  0  0  0
   20.0362  -19.9226  -13.9533 C   0  0  0  0  0  0  0  0  0  0  0  0
   19.5174  -18.7808  -13.9626 O   0  0  0  0  0  0  0  0  0  0  0  0
   17.3021  -22.1764  -15.2376 C   0  0  0  0  0  0  0  0  0  0  0  0
   17.8581  -20.9407  -14.6145 C   0  0  2  0  0  0  0  0  0  0  0  0
   19.2481  -21.0681  -14.2008 N   0  0  0  0  0  0  0  0  0  0  0  0
   17.0685  -20.4711  -13.4349 C   0  0  0  0  0  0  0  0  0  0  0  0
   16.0175  -19.5729  -13.6057 O   0  0  0  0  0  0  0  0  0  0  0  0
   17.3416  -20.8750  -12.3040 O   0  0  0  0  0  0  0  0  0  0  0  0
  2  1  1  1
  2  3  1  0
  4  2  1  0
  4  5  1  0
  5  7  1  0
  5  6  1  6
  7  9  1  0
  8  7  2  0
  9 10  1  0
 10 11  1  1
 12 11  1  0
 13 14  1  0
 13 12  1  0
 14 15  1  0
 16 17  2  0
 16 10  1  0
 19 18  1  1
 19 21  1  0
 19 20  1  0
 20 16  1  0
 21 22  1  0
 23 21  2  0
M  END
$$$$
