LKA.pdb
     RDKit          3D

 23 22  0  0  1  0  0  0  0  0999 V2000
   13.1250   -7.2742  -16.6246 C   0  0  0  0  0  0  0  0  0  0  0  0
   13.1007   -7.3347  -15.1111 C   0  0  2  0  0  0  0  0  0  0  0  0
   12.4454   -6.0864  -14.5948 C   0  0  0  0  0  0  0  0  0  0  0  0
   14.5162   -7.4928  -14.6392 C   0  0  0  0  0  0  0  0  0  0  0  0
   15.1354   -8.8004  -15.0688 C   0  0  2  0  0  0  0  0  0  0  0  0
   14.5120   -9.9255  -14.4453 N   0  0  0  0  0  0  0  0  0  0  0  0
   16.5937   -8.7305  -14.7999 C   0  0  0  0  0  0  0  0  0  0  0  0
   17.0651   -9.0905  -13.6927 O   0  0  0  0  0  0  0  0  0  0  0  0
   17.5381   -8.2542  -15.7748 N   0  0  0  0  0  0  0  0  0  0  0  0
   18.9618   -8.3243  -15.5822 C   0  0  1  0  0  0  0  0  0  0  0  0
   19.7407   -8.8701  -16.7248 C   0  0  0  0  0  0  0  0  0  0  0  0
   21.2062   -8.9797  -16.5710 C   0  0  0  0  0  0  0  0  0  0  0  0
   21.9878   -9.4420  -17.7450 C   0  0  0  0  0  0  0  0  0  0  0  0
   23.4646   -9.4249  -17.3099 C   0  0  0  0  0  0  0  0  0  0  0  0
   24.3430   -9.6519  -18.4261 N   0  0  0  0  0  0  0  0  0  0  0  0
   19.4441   -6.9117  -15.3506 C   0  0  0  0  0  0  0  0  0  0  0  0
   18.9775   -5.9505  -16.0074 O   0  0  0  0  0  0  0  0  0  0  0  0
   21.8453   -5.2643  -12.9333 C   0  0  0  0  0  0  0  0  0  0  0  0
   20.9776   -5.3603  -14.1425 C   0  0  2  0  0  0  0  0  0  0  0  0
   20.4388   -6.6931  -14.3722 N   0  0  0  0  0  0  0  0  0  0  0  0
   21.6648   -4.9200  -15.3953 C   0  0  0  0  0  0  0  0  0  0  0  0
   21.6416   -3.5801  -15.7754 O   0  0  0  0  0  0  0  0  0  0  0  0
   22.2562   -5.7388  -16.1000 O   0  0  0  0  0  0  0  0  0  0  0  0
  2  1  1  6
  2  3  1  0
  4  2  1  0
  4  5  1  0
  5  7  1  0
  5  6  1  1
  7  9  1  0
  8  7  2  0
  9 10  1  0
 10 11  1  6
 12 11  1  0
 13 14  1  0
 13 12  1  0
 14 15  1  0
 16 17  2  0
 16 10  1  0
 19 18  1  1
 19 21  1  0
 19 20  1  0
 20 16  1  0
 21 22  1  0
 23 21  2  0
M  END
$$$$
