LKA.pdb
     RDKit          3D

 23 22  0  0  1  0  0  0  0  0999 V2000
   16.0639  -10.0815  -18.4267 C   0  0  0  0  0  0  0  0  0  0  0  0
   15.4742  -10.0423  -17.0318 C   0  0  2  0  0  0  0  0  0  0  0  0
   14.3636   -9.0321  -17.0123 C   0  0  0  0  0  0  0  0  0  0  0  0
   16.5842   -9.7128  -16.0776 C   0  0  0  0  0  0  0  0  0  0  0  0
   17.7154  -10.7106  -16.1261 C   0  0  2  0  0  0  0  0  0  0  0  0
   17.3276  -11.9936  -15.6291 N   0  0  0  0  0  0  0  0  0  0  0  0
   18.8696  -10.1354  -15.3908 C   0  0  0  0  0  0  0  0  0  0  0  0
   18.8992  -10.1312  -14.1351 O   0  0  0  0  0  0  0  0  0  0  0  0
   20.0040   -9.5582  -16.0611 N   0  0  0  0  0  0  0  0  0  0  0  0
   21.1661   -9.0820  -15.3602 C   0  0  1  0  0  0  0  0  0  0  0  0
   22.4756   -9.4334  -15.9699 C   0  0  0  0  0  0  0  0  0  0  0  0
   23.0224  -10.7797  -15.7016 C   0  0  0  0  0  0  0  0  0  0  0  0
   24.3248  -11.1286  -16.3221 C   0  0  0  0  0  0  0  0  0  0  0  0
   24.6343  -12.5721  -15.8848 C   0  0  0  0  0  0  0  0  0  0  0  0
   25.9005  -13.0169  -16.4024 N   0  0  0  0  0  0  0  0  0  0  0  0
   21.0779   -7.5741  -15.3365 C   0  0  0  0  0  0  0  0  0  0  0  0
   20.6865   -6.9309  -16.3396 O   0  0  0  0  0  0  0  0  0  0  0  0
   21.4605   -4.9065  -12.6956 C   0  0  0  0  0  0  0  0  0  0  0  0
   21.4189   -5.4438  -14.0863 C   0  0  2  0  0  0  0  0  0  0  0  0
   21.4479   -6.8978  -14.1532 N   0  0  0  0  0  0  0  0  0  0  0  0
   22.5212   -4.9217  -14.9511 C   0  0  0  0  0  0  0  0  0  0  0  0
   22.4347   -3.6470  -15.5061 O   0  0  0  0  0  0  0  0  0  0  0  0
   23.5134   -5.6149  -15.1789 O   0  0  0  0  0  0  0  0  0  0  0  0
  2  1  1  6
  2  3  1  0
  4  2  1  0
  4  5  1  0
  5  7  1  0
  5  6  1  1
  7  9  1  0
  8  7  2  0
  9 10  1  0
 10 11  1  6
 12 11  1  0
 13 14  1  0
 13 12  1  0
 14 15  1  0
 16 17  2  0
 16 10  1  0
 19 18  1  1
 19 21  1  0
 19 20  1  0
 20 16  1  0
 21 22  1  0
 23 21  2  0
M  END
$$$$
