LKA.pdb
     RDKit          3D

 23 22  0  0  1  0  0  0  0  0999 V2000
   25.2968  -15.1770  -14.4952 C   0  0  0  0  0  0  0  0  0  0  0  0
   25.6796  -14.8437  -15.9225 C   0  0  2  0  0  0  0  0  0  0  0  0
   27.1323  -14.4652  -15.9502 C   0  0  0  0  0  0  0  0  0  0  0  0
   24.7766  -13.7404  -16.3901 C   0  0  0  0  0  0  0  0  0  0  0  0
   23.3146  -14.1072  -16.3152 C   0  0  2  0  0  0  0  0  0  0  0  0
   23.0105  -15.2786  -17.0758 N   0  0  0  0  0  0  0  0  0  0  0  0
   22.5206  -12.9263  -16.7382 C   0  0  0  0  0  0  0  0  0  0  0  0
   22.5864  -12.4905  -17.9143 O   0  0  0  0  0  0  0  0  0  0  0  0
   21.6432  -12.2226  -15.8414 N   0  0  0  0  0  0  0  0  0  0  0  0
   20.7751  -11.1598  -16.2722 C   0  0  1  0  0  0  0  0  0  0  0  0
   19.3763  -11.2279  -15.7734 C   0  0  0  0  0  0  0  0  0  0  0  0
   18.4285  -12.1029  -16.4943 C   0  0  0  0  0  0  0  0  0  0  0  0
   18.4366  -13.5487  -16.1587 C   0  0  0  0  0  0  0  0  0  0  0  0
   17.3697  -14.2023  -17.0559 C   0  0  0  0  0  0  0  0  0  0  0  0
   17.3285  -15.6279  -16.8685 N   0  0  0  0  0  0  0  0  0  0  0  0
   21.3685   -9.8705  -15.7549 C   0  0  0  0  0  0  0  0  0  0  0  0
   21.8536   -9.7963  -14.6007 O   0  0  0  0  0  0  0  0  0  0  0  0
   22.1099   -6.4882  -17.2810 C   0  0  0  0  0  0  0  0  0  0  0  0
   21.9947   -7.4960  -16.1876 C   0  0  2  0  0  0  0  0  0  0  0  0
   21.3661   -8.7416  -16.6034 N   0  0  0  0  0  0  0  0  0  0  0  0
   21.2557   -6.9846  -14.9927 C   0  0  0  0  0  0  0  0  0  0  0  0
   19.9241   -7.3376  -14.7863 O   0  0  0  0  0  0  0  0  0  0  0  0
   21.8190   -6.2477  -14.1825 O   0  0  0  0  0  0  0  0  0  0  0  0
  2  1  1  1
  2  3  1  0
  4  2  1  0
  4  5  1  0
  5  7  1  0
  5  6  1  6
  7  9  1  0
  8  7  2  0
  9 10  1  0
 10 11  1  1
 12 11  1  0
 13 14  1  0
 13 12  1  0
 14 15  1  0
 16 17  2  0
 16 10  1  0
 19 18  1  6
 19 21  1  0
 19 20  1  0
 20 16  1  0
 21 22  1  0
 23 21  2  0
M  END
$$$$
