LKA.pdb
     RDKit          3D

 23 22  0  0  1  0  0  0  0  0999 V2000
   26.8806  -25.8049  -17.8239 C   0  0  0  0  0  0  0  0  0  0  0  0
   27.8037  -25.5224  -16.6565 C   0  0  2  0  0  0  0  0  0  0  0  0
   27.8041  -26.7186  -15.7491 C   0  0  0  0  0  0  0  0  0  0  0  0
   27.3156  -24.2742  -15.9819 C   0  0  0  0  0  0  0  0  0  0  0  0
   27.3928  -23.0577  -16.8718 C   0  0  2  0  0  0  0  0  0  0  0  0
   28.7393  -22.7215  -17.2139 N   0  0  0  0  0  0  0  0  0  0  0  0
   26.6779  -21.9458  -16.1961 C   0  0  0  0  0  0  0  0  0  0  0  0
   27.2597  -21.2227  -15.3498 O   0  0  0  0  0  0  0  0  0  0  0  0
   25.2994  -21.6355  -16.4657 N   0  0  0  0  0  0  0  0  0  0  0  0
   24.6397  -20.4770  -15.9258 C   0  0  1  0  0  0  0  0  0  0  0  0
   24.2156  -19.4554  -16.9191 C   0  0  0  0  0  0  0  0  0  0  0  0
   25.2513  -18.5563  -17.4691 C   0  0  0  0  0  0  0  0  0  0  0  0
   25.0955  -17.1001  -17.2284 C   0  0  0  0  0  0  0  0  0  0  0  0
   25.3358  -16.4137  -18.5855 C   0  0  0  0  0  0  0  0  0  0  0  0
   25.2431  -14.9827  -18.4732 N   0  0  0  0  0  0  0  0  0  0  0  0
   23.3906  -20.9662  -15.2313 C   0  0  0  0  0  0  0  0  0  0  0  0
   22.6092  -21.7713  -15.7918 O   0  0  0  0  0  0  0  0  0  0  0  0
   21.9075  -20.4969  -11.7776 C   0  0  0  0  0  0  0  0  0  0  0  0
   21.9612  -20.9784  -13.1882 C   0  0  2  0  0  0  0  0  0  0  0  0
   23.1181  -20.4950  -13.9281 N   0  0  0  0  0  0  0  0  0  0  0  0
   20.7364  -20.6339  -13.9735 C   0  0  0  0  0  0  0  0  0  0  0  0
   19.5436  -21.3179  -13.7506 O   0  0  0  0  0  0  0  0  0  0  0  0
   20.7734  -19.7430  -14.8231 O   0  0  0  0  0  0  0  0  0  0  0  0
  2  1  1  6
  2  3  1  0
  4  2  1  0
  4  5  1  0
  5  7  1  0
  5  6  1  1
  7  9  1  0
  8  7  2  0
  9 10  1  0
 10 11  1  6
 12 11  1  0
 13 14  1  0
 13 12  1  0
 14 15  1  0
 16 17  2  0
 16 10  1  0
 19 18  1  1
 19 21  1  0
 19 20  1  0
 20 16  1  0
 21 22  1  0
 23 21  2  0
M  END
$$$$
