LKA.pdb
     RDKit          3D

 23 22  0  0  1  0  0  0  0  0999 V2000
   29.2839  -33.2486   -5.9752 C   0  0  0  0  0  0  0  0  0  0  0  0
   28.5348  -34.2647   -5.1377 C   0  0  2  0  0  0  0  0  0  0  0  0
   27.4173  -33.5616   -4.4226 C   0  0  0  0  0  0  0  0  0  0  0  0
   29.5215  -34.9003   -4.2031 C   0  0  0  0  0  0  0  0  0  0  0  0
   30.6869  -35.5344   -4.9226 C   0  0  2  0  0  0  0  0  0  0  0  0
   30.2652  -36.4798   -5.9084 N   0  0  0  0  0  0  0  0  0  0  0  0
   31.5884  -36.1303   -3.9047 C   0  0  0  0  0  0  0  0  0  0  0  0
   31.2874  -37.2017   -3.3224 O   0  0  0  0  0  0  0  0  0  0  0  0
   32.8392  -35.5264   -3.5309 N   0  0  0  0  0  0  0  0  0  0  0  0
   33.7098  -36.0874   -2.5328 C   0  0  1  0  0  0  0  0  0  0  0  0
   35.0883  -35.5322   -2.4942 C   0  0  0  0  0  0  0  0  0  0  0  0
   36.0748  -36.1953   -1.6164 C   0  0  0  0  0  0  0  0  0  0  0  0
   37.4612  -35.6652   -1.6172 C   0  0  0  0  0  0  0  0  0  0  0  0
   38.2549  -36.5409   -0.6304 C   0  0  0  0  0  0  0  0  0  0  0  0
   39.6594  -36.2328   -0.6683 N   0  0  0  0  0  0  0  0  0  0  0  0
   33.0792  -35.8037   -1.1898 C   0  0  0  0  0  0  0  0  0  0  0  0
   32.5624  -34.6890   -0.9378 O   0  0  0  0  0  0  0  0  0  0  0  0
   32.0669  -37.8225    1.8003 C   0  0  0  0  0  0  0  0  0  0  0  0
   32.5496  -36.5876    1.1173 C   0  0  2  0  0  0  0  0  0  0  0  0
   33.0832  -36.8265   -0.2160 N   0  0  0  0  0  0  0  0  0  0  0  0
   33.5863  -35.8493    1.9019 C   0  0  0  0  0  0  0  0  0  0  0  0
   33.2699  -35.3016    3.1430 O   0  0  0  0  0  0  0  0  0  0  0  0
   34.7273  -35.7202    1.4566 O   0  0  0  0  0  0  0  0  0  0  0  0
  2  1  1  1
  2  3  1  0
  4  2  1  0
  4  5  1  0
  5  7  1  0
  5  6  1  6
  7  9  1  0
  8  7  2  0
  9 10  1  0
 10 11  1  1
 12 11  1  0
 13 14  1  0
 13 12  1  0
 14 15  1  0
 16 17  2  0
 16 10  1  0
 19 18  1  1
 19 21  1  0
 19 20  1  0
 20 16  1  0
 21 22  1  0
 23 21  2  0
M  END
$$$$
