LKA.pdb
     RDKit          3D

 23 22  0  0  1  0  0  0  0  0999 V2000
   25.4841  -31.1315   -8.0820 C   0  0  0  0  0  0  0  0  0  0  0  0
   24.7254  -32.4292   -8.2706 C   0  0  2  0  0  0  0  0  0  0  0  0
   23.3675  -32.2821   -7.6469 C   0  0  0  0  0  0  0  0  0  0  0  0
   25.5399  -33.5267   -7.6515 C   0  0  0  0  0  0  0  0  0  0  0  0
   26.9003  -33.6779   -8.2872 C   0  0  2  0  0  0  0  0  0  0  0  0
   26.8172  -34.0967   -9.6514 N   0  0  0  0  0  0  0  0  0  0  0  0
   27.7001  -34.6067   -7.4496 C   0  0  0  0  0  0  0  0  0  0  0  0
   27.5595  -35.8509   -7.5491 O   0  0  0  0  0  0  0  0  0  0  0  0
   28.6674  -34.1451   -6.4902 N   0  0  0  0  0  0  0  0  0  0  0  0
   29.4357  -35.0376   -5.6645 C   0  0  1  0  0  0  0  0  0  0  0  0
   30.8001  -34.5695   -5.3053 C   0  0  0  0  0  0  0  0  0  0  0  0
   31.6980  -35.5218   -4.6194 C   0  0  0  0  0  0  0  0  0  0  0  0
   33.0616  -35.0510   -4.2702 C   0  0  0  0  0  0  0  0  0  0  0  0
   33.7579  -36.2346   -3.5739 C   0  0  0  0  0  0  0  0  0  0  0  0
   35.0652  -35.8683   -3.0986 N   0  0  0  0  0  0  0  0  0  0  0  0
   28.6711  -35.2095   -4.3731 C   0  0  0  0  0  0  0  0  0  0  0  0
   28.1930  -34.2220   -3.7654 O   0  0  0  0  0  0  0  0  0  0  0  0
   27.4515  -38.1478   -2.3384 C   0  0  0  0  0  0  0  0  0  0  0  0
   27.8558  -36.7318   -2.5743 C   0  0  2  0  0  0  0  0  0  0  0  0
   28.5040  -36.5145   -3.8597 N   0  0  0  0  0  0  0  0  0  0  0  0
   28.7553  -36.1923   -1.5088 C   0  0  0  0  0  0  0  0  0  0  0  0
   28.2232  -35.7357   -0.3052 O   0  0  0  0  0  0  0  0  0  0  0  0
   29.9730  -36.1478   -1.6877 O   0  0  0  0  0  0  0  0  0  0  0  0
  2  1  1  1
  2  3  1  0
  4  2  1  0
  4  5  1  0
  5  7  1  0
  5  6  1  6
  7  9  1  0
  8  7  2  0
  9 10  1  0
 10 11  1  1
 12 11  1  0
 13 14  1  0
 13 12  1  0
 14 15  1  0
 16 17  2  0
 16 10  1  0
 19 18  1  1
 19 21  1  0
 19 20  1  0
 20 16  1  0
 21 22  1  0
 23 21  2  0
M  END
$$$$
