LKA.pdb
     RDKit          3D

 23 22  0  0  1  0  0  0  0  0999 V2000
   27.3856  -19.1241  -12.9525 C   0  0  0  0  0  0  0  0  0  0  0  0
   27.4433  -20.6003  -13.2879 C   0  0  2  0  0  0  0  0  0  0  0  0
   28.7784  -20.8961  -13.9078 C   0  0  0  0  0  0  0  0  0  0  0  0
   26.2920  -20.9050  -14.2005 C   0  0  0  0  0  0  0  0  0  0  0  0
   24.9529  -20.5819  -13.5838 C   0  0  2  0  0  0  0  0  0  0  0  0
   24.6024  -21.4948  -12.5412 N   0  0  0  0  0  0  0  0  0  0  0  0
   23.9431  -20.5377  -14.6711 C   0  0  0  0  0  0  0  0  0  0  0  0
   24.1444  -21.1218  -15.7647 O   0  0  0  0  0  0  0  0  0  0  0  0
   22.6948  -19.8352  -14.5394 N   0  0  0  0  0  0  0  0  0  0  0  0
   21.6575  -19.8927  -15.5341 C   0  0  1  0  0  0  0  0  0  0  0  0
   20.2726  -20.0379  -15.0137 C   0  0  0  0  0  0  0  0  0  0  0  0
   19.8374  -21.3804  -14.5757 C   0  0  0  0  0  0  0  0  0  0  0  0
   19.6046  -21.5879  -13.1245 C   0  0  0  0  0  0  0  0  0  0  0  0
   19.0476  -23.0160  -12.9802 C   0  0  0  0  0  0  0  0  0  0  0  0
   18.6325  -23.2830  -11.6292 N   0  0  0  0  0  0  0  0  0  0  0  0
   21.7099  -18.5913  -16.2995 C   0  0  0  0  0  0  0  0  0  0  0  0
   21.7933  -17.4908  -15.7038 O   0  0  0  0  0  0  0  0  0  0  0  0
   22.2979  -17.6441  -19.8773 C   0  0  0  0  0  0  0  0  0  0  0  0
   21.7695  -17.4211  -18.5005 C   0  0  2  0  0  0  0  0  0  0  0  0
   21.6627  -18.6391  -17.7102 N   0  0  0  0  0  0  0  0  0  0  0  0
   20.4363  -16.7447  -18.4853 C   0  0  0  0  0  0  0  0  0  0  0  0
   20.3301  -15.3942  -18.8101 O   0  0  0  0  0  0  0  0  0  0  0  0
   19.4225  -17.3765  -18.1855 O   0  0  0  0  0  0  0  0  0  0  0  0
  2  1  1  6
  2  3  1  0
  4  2  1  0
  4  5  1  0
  5  7  1  0
  5  6  1  1
  7  9  1  0
  8  7  2  0
  9 10  1  0
 10 11  1  1
 12 11  1  0
 13 14  1  0
 13 12  1  0
 14 15  1  0
 16 17  2  0
 16 10  1  0
 19 18  1  6
 19 21  1  0
 19 20  1  0
 20 16  1  0
 21 22  1  0
 23 21  2  0
M  END
$$$$
