LKA.pdb
     RDKit          3D

 23 22  0  0  1  0  0  0  0  0999 V2000
   26.1867  -15.5183  -14.7354 C   0  0  0  0  0  0  0  0  0  0  0  0
   26.3427  -15.4323  -16.2398 C   0  0  2  0  0  0  0  0  0  0  0  0
   27.5148  -14.5457  -16.5473 C   0  0  0  0  0  0  0  0  0  0  0  0
   25.0516  -14.9148  -16.8023 C   0  0  0  0  0  0  0  0  0  0  0  0
   23.8768  -15.8114  -16.4962 C   0  0  2  0  0  0  0  0  0  0  0  0
   24.0573  -17.1340  -17.0075 N   0  0  0  0  0  0  0  0  0  0  0  0
   22.6498  -15.1575  -17.0166 C   0  0  0  0  0  0  0  0  0  0  0  0
   22.5086  -14.9311  -18.2440 O   0  0  0  0  0  0  0  0  0  0  0  0
   21.5675  -14.7511  -16.1606 N   0  0  0  0  0  0  0  0  0  0  0  0
   20.3481  -14.1770  -16.6628 C   0  0  1  0  0  0  0  0  0  0  0  0
   19.1048  -14.5862  -15.9579 C   0  0  0  0  0  0  0  0  0  0  0  0
   18.5326  -15.9098  -16.2805 C   0  0  0  0  0  0  0  0  0  0  0  0
   18.4340  -16.9023  -15.1814 C   0  0  0  0  0  0  0  0  0  0  0  0
   17.6228  -18.0842  -15.7432 C   0  0  0  0  0  0  0  0  0  0  0  0
   17.3365  -19.0563  -14.7224 N   0  0  0  0  0  0  0  0  0  0  0  0
   20.4721  -12.6792  -16.5106 C   0  0  0  0  0  0  0  0  0  0  0  0
   20.9705  -12.1706  -15.4781 O   0  0  0  0  0  0  0  0  0  0  0  0
   20.2381   -9.7689  -18.8588 C   0  0  0  0  0  0  0  0  0  0  0  0
   20.1969  -10.4132  -17.5143 C   0  0  2  0  0  0  0  0  0  0  0  0
   20.0120  -11.8565  -17.5622 N   0  0  0  0  0  0  0  0  0  0  0  0
   19.1411   -9.8438  -16.6220 C   0  0  0  0  0  0  0  0  0  0  0  0
   19.3157   -8.5914  -16.0375 O   0  0  0  0  0  0  0  0  0  0  0  0
   18.1094  -10.4778  -16.3973 O   0  0  0  0  0  0  0  0  0  0  0  0
  2  1  1  1
  2  3  1  0
  4  2  1  0
  4  5  1  0
  5  7  1  0
  5  6  1  6
  7  9  1  0
  8  7  2  0
  9 10  1  0
 10 11  1  1
 12 11  1  0
 13 14  1  0
 13 12  1  0
 14 15  1  0
 16 17  2  0
 16 10  1  0
 19 18  1  6
 19 21  1  0
 19 20  1  0
 20 16  1  0
 21 22  1  0
 23 21  2  0
M  END
$$$$
