LKA.pdb
     RDKit          3D

 23 22  0  0  1  0  0  0  0  0999 V2000
   13.5004   -5.3998   -8.9480 C   0  0  0  0  0  0  0  0  0  0  0  0
   14.3706   -6.1455   -7.9572 C   0  0  2  0  0  0  0  0  0  0  0  0
   14.7387   -5.2062   -6.8451 C   0  0  0  0  0  0  0  0  0  0  0  0
   15.5632   -6.6686   -8.7025 C   0  0  0  0  0  0  0  0  0  0  0  0
   15.2032   -7.7256   -9.7179 C   0  0  2  0  0  0  0  0  0  0  0  0
   14.7537   -8.9356   -9.1039 N   0  0  0  0  0  0  0  0  0  0  0  0
   16.3766   -7.9330  -10.6033 C   0  0  0  0  0  0  0  0  0  0  0  0
   17.3621   -8.6122  -10.2223 O   0  0  0  0  0  0  0  0  0  0  0  0
   16.4537   -7.3779  -11.9281 N   0  0  0  0  0  0  0  0  0  0  0  0
   17.5640   -7.6155  -12.8110 C   0  0  1  0  0  0  0  0  0  0  0  0
   17.2164   -7.8318  -14.2401 C   0  0  0  0  0  0  0  0  0  0  0  0
   18.3197   -8.1011  -15.1854 C   0  0  0  0  0  0  0  0  0  0  0  0
   18.5053   -9.5003  -15.6445 C   0  0  0  0  0  0  0  0  0  0  0  0
   19.7252   -9.4845  -16.5837 C   0  0  0  0  0  0  0  0  0  0  0  0
   20.0301  -10.8035  -17.0697 N   0  0  0  0  0  0  0  0  0  0  0  0
   18.4450   -6.3899  -12.7490 C   0  0  0  0  0  0  0  0  0  0  0  0
   17.9534   -5.2427  -12.6254 O   0  0  0  0  0  0  0  0  0  0  0  0
   22.1814   -5.7843  -12.6917 C   0  0  0  0  0  0  0  0  0  0  0  0
   20.7400   -5.4161  -12.7970 C   0  0  2  0  0  0  0  0  0  0  0  0
   19.8440   -6.5630  -12.8339 N   0  0  0  0  0  0  0  0  0  0  0  0
   20.4379   -4.5583  -13.9837 C   0  0  0  0  0  0  0  0  0  0  0  0
   20.4734   -3.1701  -13.8743 O   0  0  0  0  0  0  0  0  0  0  0  0
   20.1555   -5.0730  -15.0664 O   0  0  0  0  0  0  0  0  0  0  0  0
  2  1  1  6
  2  3  1  0
  4  2  1  0
  4  5  1  0
  5  7  1  0
  5  6  1  1
  7  9  1  0
  8  7  2  0
  9 10  1  0
 10 11  1  6
 12 11  1  0
 13 14  1  0
 13 12  1  0
 14 15  1  0
 16 17  2  0
 16 10  1  0
 19 18  1  6
 19 21  1  0
 19 20  1  0
 20 16  1  0
 21 22  1  0
 23 21  2  0
M  END
$$$$
