LKA.pdb
     RDKit          3D

 23 22  0  0  1  0  0  0  0  0999 V2000
   27.9774  -18.7683  -13.9027 C   0  0  0  0  0  0  0  0  0  0  0  0
   27.3750  -19.0226  -15.2692 C   0  0  2  0  0  0  0  0  0  0  0  0
   27.4750  -17.7604  -16.0763 C   0  0  0  0  0  0  0  0  0  0  0  0
   25.9601  -19.4783  -15.0653 C   0  0  0  0  0  0  0  0  0  0  0  0
   25.8631  -20.7431  -14.2475 C   0  0  2  0  0  0  0  0  0  0  0  0
   26.5581  -21.8349  -14.8542 N   0  0  0  0  0  0  0  0  0  0  0  0
   24.4257  -21.0345  -14.0178 C   0  0  0  0  0  0  0  0  0  0  0  0
   23.7018  -21.4852  -14.9401 O   0  0  0  0  0  0  0  0  0  0  0  0
   23.7868  -20.8218  -12.7466 N   0  0  0  0  0  0  0  0  0  0  0  0
   22.3963  -21.1066  -12.5142 C   0  0  1  0  0  0  0  0  0  0  0  0
   21.9802  -21.1667  -11.0882 C   0  0  0  0  0  0  0  0  0  0  0  0
   20.9772  -22.1817  -10.7044 C   0  0  0  0  0  0  0  0  0  0  0  0
   20.5610  -22.2324   -9.2806 C   0  0  0  0  0  0  0  0  0  0  0  0
   19.5168  -23.3593   -9.1798 C   0  0  0  0  0  0  0  0  0  0  0  0
   19.0023  -23.4796   -7.8419 N   0  0  0  0  0  0  0  0  0  0  0  0
   21.6056  -19.9936  -13.1607 C   0  0  0  0  0  0  0  0  0  0  0  0
   21.9283  -18.7919  -13.0033 O   0  0  0  0  0  0  0  0  0  0  0  0
   20.6168  -18.8774  -15.9385 C   0  0  0  0  0  0  0  0  0  0  0  0
   19.8155  -19.3327  -14.7658 C   0  0  2  0  0  0  0  0  0  0  0  0
   20.4870  -20.3358  -13.9520 N   0  0  0  0  0  0  0  0  0  0  0  0
   18.4733  -19.8713  -15.1448 C   0  0  0  0  0  0  0  0  0  0  0  0
   18.1191  -21.1756  -14.8075 O   0  0  0  0  0  0  0  0  0  0  0  0
   17.6713  -19.1658  -15.7578 O   0  0  0  0  0  0  0  0  0  0  0  0
  2  1  1  1
  2  3  1  0
  4  2  1  0
  4  5  1  0
  5  7  1  0
  5  6  1  6
  7  9  1  0
  8  7  2  0
  9 10  1  0
 10 11  1  1
 12 11  1  0
 13 14  1  0
 13 12  1  0
 14 15  1  0
 16 17  2  0
 16 10  1  0
 19 18  1  6
 19 21  1  0
 19 20  1  0
 20 16  1  0
 21 22  1  0
 23 21  2  0
M  END
$$$$
