LKA.pdb
     RDKit          3D

 23 22  0  0  1  0  0  0  0  0999 V2000
   19.2997  -32.1645   -8.1264 C   0  0  0  0  0  0  0  0  0  0  0  0
   18.9953  -33.5217   -7.5260 C   0  0  2  0  0  0  0  0  0  0  0  0
   18.2570  -33.3167   -6.2348 C   0  0  0  0  0  0  0  0  0  0  0  0
   20.2987  -34.2436   -7.3487 C   0  0  0  0  0  0  0  0  0  0  0  0
   21.0642  -34.3983   -8.6401 C   0  0  2  0  0  0  0  0  0  0  0  0
   20.4035  -35.2702   -9.5602 N   0  0  0  0  0  0  0  0  0  0  0  0
   22.4397  -34.8486   -8.3097 C   0  0  0  0  0  0  0  0  0  0  0  0
   22.6833  -36.0562   -8.0647 O   0  0  0  0  0  0  0  0  0  0  0  0
   23.5567  -33.9442   -8.2516 N   0  0  0  0  0  0  0  0  0  0  0  0
   24.9079  -34.3851   -8.0310 C   0  0  1  0  0  0  0  0  0  0  0  0
   25.9525  -33.6821   -8.8213 C   0  0  0  0  0  0  0  0  0  0  0  0
   26.0863  -34.0296  -10.2513 C   0  0  0  0  0  0  0  0  0  0  0  0
   27.1083  -33.3004  -11.0430 C   0  0  0  0  0  0  0  0  0  0  0  0
   27.0035  -33.8426  -12.4802 C   0  0  0  0  0  0  0  0  0  0  0  0
   27.9258  -33.1768  -13.3606 N   0  0  0  0  0  0  0  0  0  0  0  0
   25.2167  -34.1427   -6.5723 C   0  0  0  0  0  0  0  0  0  0  0  0
   24.8105  -33.1114   -5.9854 O   0  0  0  0  0  0  0  0  0  0  0  0
   26.3914  -36.2573   -3.7328 C   0  0  0  0  0  0  0  0  0  0  0  0
   26.2484  -34.9598   -4.4543 C   0  0  2  0  0  0  0  0  0  0  0  0
   25.9780  -35.1080   -5.8772 N   0  0  0  0  0  0  0  0  0  0  0  0
   27.4395  -34.0690   -4.3030 C   0  0  0  0  0  0  0  0  0  0  0  0
   27.7413  -33.5037   -3.0661 O   0  0  0  0  0  0  0  0  0  0  0  0
   28.1624  -33.8286   -5.2707 O   0  0  0  0  0  0  0  0  0  0  0  0
  2  1  1  1
  2  3  1  0
  4  2  1  0
  4  5  1  0
  5  7  1  0
  5  6  1  6
  7  9  1  0
  8  7  2  0
  9 10  1  0
 10 11  1  6
 12 11  1  0
 13 14  1  0
 13 12  1  0
 14 15  1  0
 16 17  2  0
 16 10  1  0
 19 18  1  6
 19 21  1  0
 19 20  1  0
 20 16  1  0
 21 22  1  0
 23 21  2  0
M  END
$$$$
