LKA.pdb
     RDKit          3D

 23 22  0  0  1  0  0  0  0  0999 V2000
   28.9102  -18.0850  -15.9230 C   0  0  0  0  0  0  0  0  0  0  0  0
   27.9966  -18.8044  -16.8940 C   0  0  2  0  0  0  0  0  0  0  0  0
   27.5186  -17.8170  -17.9191 C   0  0  0  0  0  0  0  0  0  0  0  0
   26.8787  -19.4141  -16.1004 C   0  0  0  0  0  0  0  0  0  0  0  0
   27.3374  -20.5468  -15.2148 C   0  0  2  0  0  0  0  0  0  0  0  0
   27.9900  -21.5818  -15.9538 N   0  0  0  0  0  0  0  0  0  0  0  0
   26.1637  -21.0397  -14.4511 C   0  0  0  0  0  0  0  0  0  0  0  0
   25.3882  -21.8982  -14.9402 O   0  0  0  0  0  0  0  0  0  0  0  0
   25.8497  -20.5714  -13.1278 N   0  0  0  0  0  0  0  0  0  0  0  0
   24.7041  -21.0297  -12.3886 C   0  0  1  0  0  0  0  0  0  0  0  0
   24.7179  -20.7366  -10.9312 C   0  0  0  0  0  0  0  0  0  0  0  0
   23.5592  -21.1784  -10.1276 C   0  0  0  0  0  0  0  0  0  0  0  0
   23.5991  -20.9229   -8.6661 C   0  0  0  0  0  0  0  0  0  0  0  0
   22.2817  -21.4816   -8.0978 C   0  0  0  0  0  0  0  0  0  0  0  0
   22.1680  -21.2243   -6.6872 N   0  0  0  0  0  0  0  0  0  0  0  0
   23.4975  -20.3316  -12.9704 C   0  0  0  0  0  0  0  0  0  0  0  0
   23.4521  -19.0816  -13.0618 O   0  0  0  0  0  0  0  0  0  0  0  0
   21.0653  -20.8416  -15.4611 C   0  0  0  0  0  0  0  0  0  0  0  0
   21.2418  -20.5042  -14.0191 C   0  0  2  0  0  0  0  0  0  0  0  0
   22.4130  -21.1207  -13.4127 N   0  0  0  0  0  0  0  0  0  0  0  0
   20.0527  -20.8556  -13.1837 C   0  0  0  0  0  0  0  0  0  0  0  0
   18.8207  -20.2526  -13.4265 O   0  0  0  0  0  0  0  0  0  0  0  0
   20.1539  -21.6808  -12.2750 O   0  0  0  0  0  0  0  0  0  0  0  0
  2  1  1  1
  2  3  1  0
  4  2  1  0
  4  5  1  0
  5  7  1  0
  5  6  1  6
  7  9  1  0
  8  7  2  0
  9 10  1  0
 10 11  1  1
 12 11  1  0
 13 14  1  0
 13 12  1  0
 14 15  1  0
 16 17  2  0
 16 10  1  0
 19 18  1  6
 19 21  1  0
 19 20  1  0
 20 16  1  0
 21 22  1  0
 23 21  2  0
M  END
$$$$
