LKA.pdb
     RDKit          3D

 23 22  0  0  1  0  0  0  0  0999 V2000
   25.4676  -20.3402   -8.8577 C   0  0  0  0  0  0  0  0  0  0  0  0
   26.4210  -21.1141   -9.7449 C   0  0  2  0  0  0  0  0  0  0  0  0
   27.8102  -20.9661   -9.1946 C   0  0  0  0  0  0  0  0  0  0  0  0
   26.2819  -20.5780  -11.1393 C   0  0  0  0  0  0  0  0  0  0  0  0
   24.9046  -20.7954  -11.7169 C   0  0  2  0  0  0  0  0  0  0  0  0
   24.5269  -22.1741  -11.7123 N   0  0  0  0  0  0  0  0  0  0  0  0
   24.8743  -20.1967  -13.0750 C   0  0  0  0  0  0  0  0  0  0  0  0
   25.6354  -19.2450  -13.3792 O   0  0  0  0  0  0  0  0  0  0  0  0
   23.9864  -20.6629  -14.1062 N   0  0  0  0  0  0  0  0  0  0  0  0
   23.9756  -20.1126  -15.4350 C   0  0  1  0  0  0  0  0  0  0  0  0
   23.6417  -21.0666  -16.5252 C   0  0  0  0  0  0  0  0  0  0  0  0
   24.7599  -21.7172  -17.2391 C   0  0  0  0  0  0  0  0  0  0  0  0
   25.5872  -22.6884  -16.4807 C   0  0  0  0  0  0  0  0  0  0  0  0
   26.6697  -23.1832  -17.4573 C   0  0  0  0  0  0  0  0  0  0  0  0
   27.5744  -24.1001  -16.8171 N   0  0  0  0  0  0  0  0  0  0  0  0
   22.9217  -19.0304  -15.4541 C   0  0  0  0  0  0  0  0  0  0  0  0
   21.8381  -19.1687  -14.8380 O   0  0  0  0  0  0  0  0  0  0  0  0
   22.8859  -15.4261  -16.5363 C   0  0  0  0  0  0  0  0  0  0  0  0
   22.2677  -16.7202  -16.1268 C   0  0  2  0  0  0  0  0  0  0  0  0
   23.1831  -17.8507  -16.1851 N   0  0  0  0  0  0  0  0  0  0  0  0
   21.0535  -17.0701  -16.9260 C   0  0  0  0  0  0  0  0  0  0  0  0
   19.7996  -16.6019  -16.5400 O   0  0  0  0  0  0  0  0  0  0  0  0
   21.1532  -17.7747  -17.9312 O   0  0  0  0  0  0  0  0  0  0  0  0
  2  1  1  1
  2  3  1  0
  4  2  1  0
  4  5  1  0
  5  7  1  0
  5  6  1  6
  7  9  1  0
  8  7  2  0
  9 10  1  0
 10 11  1  6
 12 11  1  0
 13 14  1  0
 13 12  1  0
 14 15  1  0
 16 17  2  0
 16 10  1  0
 19 18  1  6
 19 21  1  0
 19 20  1  0
 20 16  1  0
 21 22  1  0
 23 21  2  0
M  END
$$$$
