LKA.pdb
     RDKit          3D

 23 22  0  0  1  0  0  0  0  0999 V2000
   24.3681  -21.4379   -8.9743 C   0  0  0  0  0  0  0  0  0  0  0  0
   25.7925  -20.9232   -9.0078 C   0  0  2  0  0  0  0  0  0  0  0  0
   25.9975  -20.0118   -7.8324 C   0  0  0  0  0  0  0  0  0  0  0  0
   25.9974  -20.2362  -10.3259 C   0  0  0  0  0  0  0  0  0  0  0  0
   25.8426  -21.1675  -11.5034 C   0  0  2  0  0  0  0  0  0  0  0  0
   26.9613  -22.0450  -11.6506 N   0  0  0  0  0  0  0  0  0  0  0  0
   25.5964  -20.3438  -12.7137 C   0  0  0  0  0  0  0  0  0  0  0  0
   26.1822  -19.2450  -12.8781 O   0  0  0  0  0  0  0  0  0  0  0  0
   24.6876  -20.7481  -13.7528 N   0  0  0  0  0  0  0  0  0  0  0  0
   24.5789  -20.0550  -15.0084 C   0  0  1  0  0  0  0  0  0  0  0  0
   24.9743  -20.8341  -16.2111 C   0  0  0  0  0  0  0  0  0  0  0  0
   26.4102  -21.1254  -16.4031 C   0  0  0  0  0  0  0  0  0  0  0  0
   26.7889  -21.9895  -17.5489 C   0  0  0  0  0  0  0  0  0  0  0  0
   28.3272  -22.0537  -17.5466 C   0  0  0  0  0  0  0  0  0  0  0  0
   28.8156  -22.9669  -18.5449 N   0  0  0  0  0  0  0  0  0  0  0  0
   23.1253  -19.6813  -15.1798 C   0  0  0  0  0  0  0  0  0  0  0  0
   22.2098  -20.4152  -14.7369 O   0  0  0  0  0  0  0  0  0  0  0  0
   21.2914  -16.6295  -16.4409 C   0  0  0  0  0  0  0  0  0  0  0  0
   21.4332  -18.0525  -16.0175 C   0  0  2  0  0  0  0  0  0  0  0  0
   22.8154  -18.4796  -15.8540 N   0  0  0  0  0  0  0  0  0  0  0  0
   20.7626  -19.0118  -16.9478 C   0  0  0  0  0  0  0  0  0  0  0  0
   19.4003  -19.2747  -16.8236 O   0  0  0  0  0  0  0  0  0  0  0  0
   21.4098  -19.5765  -17.8304 O   0  0  0  0  0  0  0  0  0  0  0  0
  2  1  1  6
  2  3  1  0
  4  2  1  0
  4  5  1  0
  5  7  1  0
  5  6  1  6
  7  9  1  0
  8  7  2  0
  9 10  1  0
 10 11  1  6
 12 11  1  0
 13 14  1  0
 13 12  1  0
 14 15  1  0
 16 17  2  0
 16 10  1  0
 19 18  1  6
 19 21  1  0
 19 20  1  0
 20 16  1  0
 21 22  1  0
 23 21  2  0
M  END
$$$$
