LKA.pdb
     RDKit          3D

 23 22  0  0  1  0  0  0  0  0999 V2000
   20.8427  -15.1404  -16.6554 C   0  0  0  0  0  0  0  0  0  0  0  0
   19.4469  -15.2093  -17.2402 C   0  0  2  0  0  0  0  0  0  0  0  0
   19.4769  -16.1123  -18.4395 C   0  0  0  0  0  0  0  0  0  0  0  0
   19.0222  -13.8087  -17.5706 C   0  0  0  0  0  0  0  0  0  0  0  0
   18.9246  -12.9224  -16.3529 C   0  0  2  0  0  0  0  0  0  0  0  0
   18.1112  -13.4980  -15.3280 N   0  0  0  0  0  0  0  0  0  0  0  0
   18.4386  -11.5896  -16.7903 C   0  0  0  0  0  0  0  0  0  0  0  0
   18.8764  -11.0538  -17.8386 O   0  0  0  0  0  0  0  0  0  0  0  0
   17.4539  -10.8448  -16.0522 N   0  0  0  0  0  0  0  0  0  0  0  0
   16.8708   -9.6239  -16.5402 C   0  0  1  0  0  0  0  0  0  0  0  0
   15.5220   -9.2960  -16.0081 C   0  0  0  0  0  0  0  0  0  0  0  0
   14.4723  -10.3317  -16.1033 C   0  0  0  0  0  0  0  0  0  0  0  0
   13.1305  -10.0021  -15.5612 C   0  0  0  0  0  0  0  0  0  0  0  0
   12.2429  -11.2288  -15.8403 C   0  0  0  0  0  0  0  0  0  0  0  0
   10.8731  -10.9781  -15.4798 N   0  0  0  0  0  0  0  0  0  0  0  0
   17.7946   -8.5011  -16.1304 C   0  0  0  0  0  0  0  0  0  0  0  0
   18.3796   -8.5139  -15.0211 O   0  0  0  0  0  0  0  0  0  0  0  0
   19.4724   -5.6373  -17.8520 C   0  0  0  0  0  0  0  0  0  0  0  0
   18.8469   -6.3072  -16.6754 C   0  0  2  0  0  0  0  0  0  0  0  0
   17.9877   -7.4282  -17.0283 N   0  0  0  0  0  0  0  0  0  0  0  0
   18.0541   -5.3719  -15.8197 C   0  0  0  0  0  0  0  0  0  0  0  0
   18.6913   -4.3519  -15.1170 O   0  0  0  0  0  0  0  0  0  0  0  0
   16.8321   -5.4967  -15.7300 O   0  0  0  0  0  0  0  0  0  0  0  0
  2  1  1  6
  2  3  1  0
  4  2  1  0
  4  5  1  0
  5  7  1  0
  5  6  1  1
  7  9  1  0
  8  7  2  0
  9 10  1  0
 10 11  1  1
 12 11  1  0
 13 14  1  0
 13 12  1  0
 14 15  1  0
 16 17  2  0
 16 10  1  0
 19 18  1  6
 19 21  1  0
 19 20  1  0
 20 16  1  0
 21 22  1  0
 23 21  2  0
M  END
$$$$
