LKA.pdb
     RDKit          3D

 23 22  0  0  1  0  0  0  0  0999 V2000
   25.3566  -15.3513  -14.9813 C   0  0  0  0  0  0  0  0  0  0  0  0
   26.0092  -14.5907  -16.1174 C   0  0  2  0  0  0  0  0  0  0  0  0
   27.3623  -14.1245  -15.6634 C   0  0  0  0  0  0  0  0  0  0  0  0
   25.0951  -13.4619  -16.4935 C   0  0  0  0  0  0  0  0  0  0  0  0
   23.7389  -13.9346  -16.9572 C   0  0  2  0  0  0  0  0  0  0  0  0
   23.8268  -14.8142  -18.0805 N   0  0  0  0  0  0  0  0  0  0  0  0
   22.9018  -12.7390  -17.2289 C   0  0  0  0  0  0  0  0  0  0  0  0
   23.1452  -11.9877  -18.2056 O   0  0  0  0  0  0  0  0  0  0  0  0
   21.7811  -12.3757  -16.4036 N   0  0  0  0  0  0  0  0  0  0  0  0
   20.9269  -11.2559  -16.6955 C   0  0  1  0  0  0  0  0  0  0  0  0
   19.5171  -11.3851  -16.2418 C   0  0  0  0  0  0  0  0  0  0  0  0
   18.5780  -10.2986  -16.5898 C   0  0  0  0  0  0  0  0  0  0  0  0
   17.1607  -10.4574  -16.1789 C   0  0  0  0  0  0  0  0  0  0  0  0
   16.4028   -9.2618  -16.7845 C   0  0  0  0  0  0  0  0  0  0  0  0
   14.9823   -9.3939  -16.6013 N   0  0  0  0  0  0  0  0  0  0  0  0
   21.5137  -10.0586  -15.9856 C   0  0  0  0  0  0  0  0  0  0  0  0
   21.9576  -10.1505  -14.8162 O   0  0  0  0  0  0  0  0  0  0  0  0
   22.3723   -6.5159  -16.9723 C   0  0  0  0  0  0  0  0  0  0  0  0
   22.0824   -7.6311  -16.0253 C   0  0  2  0  0  0  0  0  0  0  0  0
   21.5528   -8.8240  -16.6703 N   0  0  0  0  0  0  0  0  0  0  0  0
   21.1400   -7.2430  -14.9315 C   0  0  0  0  0  0  0  0  0  0  0  0
   21.6217   -6.6499  -13.7668 O   0  0  0  0  0  0  0  0  0  0  0  0
   19.9311   -7.4449  -15.0523 O   0  0  0  0  0  0  0  0  0  0  0  0
  2  1  1  1
  2  3  1  0
  4  2  1  0
  4  5  1  0
  5  7  1  0
  5  6  1  6
  7  9  1  0
  8  7  2  0
  9 10  1  0
 10 11  1  1
 12 11  1  0
 13 14  1  0
 13 12  1  0
 14 15  1  0
 16 17  2  0
 16 10  1  0
 19 18  1  6
 19 21  1  0
 19 20  1  0
 20 16  1  0
 21 22  1  0
 23 21  2  0
M  END
$$$$
