GGT.pdb
     RDKit          3D

 16 15  0  0  1  0  0  0  0  0999 V2000
   -1.2619  -27.9846   29.6777 N   0  0  0  0  0  0  0  0  0  0  0  0
   -2.2123  -28.9065   29.0727 C   0  0  0  0  0  0  0  0  0  0  0  0
   -3.3249  -28.1075   28.4950 C   0  0  0  0  0  0  0  0  0  0  0  0
   -4.0857  -28.5853   27.6033 O   0  0  0  0  0  0  0  0  0  0  0  0
   -3.5473  -26.7938   28.9391 N   0  0  0  0  0  0  0  0  0  0  0  0
   -4.6466  -26.0020   28.4134 C   0  0  0  0  0  0  0  0  0  0  0  0
   -4.8334  -24.7713   29.2181 C   0  0  0  0  0  0  0  0  0  0  0  0
   -4.1358  -24.4931   30.2250 O   0  0  0  0  0  0  0  0  0  0  0  0
   -3.8353  -21.6919   28.4420 C   0  0  0  0  0  0  0  0  0  0  0  0
   -5.3218  -21.5499   28.5476 C   0  0  1  0  0  0  0  0  0  0  0  0
   -5.9480  -21.6664   27.3077 O   0  0  0  0  0  0  0  0  0  0  0  0
   -5.9616  -22.5379   29.4789 C   0  0  2  0  0  0  0  0  0  0  0  0
   -5.8467  -23.8533   28.8440 N   0  0  0  0  0  0  0  0  0  0  0  0
   -7.3840  -22.2444   29.7429 C   0  0  0  0  0  0  0  0  0  0  0  0
   -8.2769  -22.9268   29.1778 O   0  0  0  0  0  0  0  0  0  0  0  0
   -7.8240  -21.2393   30.5958 O   0  0  0  0  0  0  0  0  0  0  0  0
  2  1  1  0
  3  5  1  0
  3  2  1  0
  4  3  2  0
  6  5  1  0
  7  6  1  0
  8  7  2  0
 10 12  1  0
 10  9  1  6
 11 10  1  0
 12 13  1  6
 13  7  1  0
 14 16  1  0
 14 12  1  0
 15 14  2  0
M  END
$$$$
