GGT.pdb
     RDKit          3D

 16 15  0  0  1  0  0  0  0  0999 V2000
    4.2809  -20.5298   20.1878 N   0  0  0  0  0  0  0  0  0  0  0  0
    5.0926  -19.6804   21.0473 C   0  0  0  0  0  0  0  0  0  0  0  0
    5.6766  -18.6008   20.2087 C   0  0  0  0  0  0  0  0  0  0  0  0
    5.4041  -18.5030   18.9764 O   0  0  0  0  0  0  0  0  0  0  0  0
    6.5503  -17.6633   20.7832 N   0  0  0  0  0  0  0  0  0  0  0  0
    7.0636  -16.5458   20.0089 C   0  0  0  0  0  0  0  0  0  0  0  0
    7.9810  -15.7208   20.8302 C   0  0  0  0  0  0  0  0  0  0  0  0
    8.6104  -14.7320   20.3787 O   0  0  0  0  0  0  0  0  0  0  0  0
    7.2789  -13.8654   23.9979 C   0  0  0  0  0  0  0  0  0  0  0  0
    8.3359  -14.8908   24.2668 C   0  0  1  0  0  0  0  0  0  0  0  0
    7.8120  -16.0404   24.8558 O   0  0  0  0  0  0  0  0  0  0  0  0
    9.1007  -15.3094   23.0452 C   0  0  2  0  0  0  0  0  0  0  0  0
    8.1669  -16.0530   22.1958 N   0  0  0  0  0  0  0  0  0  0  0  0
   10.2643  -16.1626   23.3571 C   0  0  0  0  0  0  0  0  0  0  0  0
   10.1820  -17.4088   23.2068 O   0  0  0  0  0  0  0  0  0  0  0  0
   11.4817  -15.6768   23.8188 O   0  0  0  0  0  0  0  0  0  0  0  0
  2  1  1  0
  3  5  1  0
  3  2  1  0
  4  3  2  0
  6  5  1  0
  7  6  1  0
  8  7  2  0
 10 12  1  0
 10  9  1  6
 11 10  1  0
 12 13  1  6
 13  7  1  0
 14 16  1  0
 14 12  1  0
 15 14  2  0
M  END
$$$$
