GGT.pdb
     RDKit          3D

 16 15  0  0  1  0  0  0  0  0999 V2000
    6.9776  -21.1930   23.0695 N   0  0  0  0  0  0  0  0  0  0  0  0
    7.1554  -19.8490   22.5391 C   0  0  0  0  0  0  0  0  0  0  0  0
    6.4414  -18.9021   23.4355 C   0  0  0  0  0  0  0  0  0  0  0  0
    5.2812  -19.1564   23.8731 O   0  0  0  0  0  0  0  0  0  0  0  0
    7.0558  -17.6968   23.8123 N   0  0  0  0  0  0  0  0  0  0  0  0
    6.3687  -16.7407   24.6641 C   0  0  0  0  0  0  0  0  0  0  0  0
    7.2677  -15.6158   25.0153 C   0  0  0  0  0  0  0  0  0  0  0  0
    8.4655  -15.5481   24.6432 O   0  0  0  0  0  0  0  0  0  0  0  0
    6.1179  -11.6183   25.4008 C   0  0  0  0  0  0  0  0  0  0  0  0
    6.7083  -12.3075   26.5914 C   0  0  1  0  0  0  0  0  0  0  0  0
    5.7274  -12.7943   27.4540 O   0  0  0  0  0  0  0  0  0  0  0  0
    7.6193  -13.4482   26.2429 C   0  0  2  0  0  0  0  0  0  0  0  0
    6.7636  -14.5561   25.8106 N   0  0  0  0  0  0  0  0  0  0  0  0
    8.4533  -13.8882   27.3786 C   0  0  0  0  0  0  0  0  0  0  0  0
    8.2239  -14.9962   27.9284 O   0  0  0  0  0  0  0  0  0  0  0  0
    9.5057  -13.1469   27.9023 O   0  0  0  0  0  0  0  0  0  0  0  0
  2  1  1  0
  3  5  1  0
  3  2  1  0
  4  3  2  0
  6  5  1  0
  7  6  1  0
  8  7  2  0
 10 12  1  0
 10  9  1  6
 11 10  1  0
 12 13  1  1
 13  7  1  0
 14 16  1  0
 14 12  1  0
 15 14  2  0
M  END
$$$$
