GGT.pdb
     RDKit          3D

 16 15  0  0  1  0  0  0  0  0999 V2000
    3.5670  -17.8346   20.9356 N   0  0  0  0  0  0  0  0  0  0  0  0
    5.0114  -17.7635   21.1021 C   0  0  0  0  0  0  0  0  0  0  0  0
    5.3017  -17.6371   22.5546 C   0  0  0  0  0  0  0  0  0  0  0  0
    4.3713  -17.6012   23.4121 O   0  0  0  0  0  0  0  0  0  0  0  0
    6.6318  -17.5547   22.9979 N   0  0  0  0  0  0  0  0  0  0  0  0
    6.9440  -17.4542   24.4136 C   0  0  0  0  0  0  0  0  0  0  0  0
    7.7054  -16.2135   24.6923 C   0  0  0  0  0  0  0  0  0  0  0  0
    8.8493  -15.9866   24.2254 O   0  0  0  0  0  0  0  0  0  0  0  0
    6.1826  -12.3608   25.3026 C   0  0  0  0  0  0  0  0  0  0  0  0
    6.8983  -13.0342   26.4318 C   0  0  1  0  0  0  0  0  0  0  0  0
    6.0155  -13.6469   27.3197 O   0  0  0  0  0  0  0  0  0  0  0  0
    7.8942  -14.0665   25.9900 C   0  0  2  0  0  0  0  0  0  0  0  0
    7.1256  -15.2244   25.5261 N   0  0  0  0  0  0  0  0  0  0  0  0
    8.8077  -14.4866   27.0707 C   0  0  0  0  0  0  0  0  0  0  0  0
    9.6037  -13.6525   27.5739 O   0  0  0  0  0  0  0  0  0  0  0  0
    8.8557  -15.7747   27.5901 O   0  0  0  0  0  0  0  0  0  0  0  0
  2  1  1  0
  3  5  1  0
  3  2  1  0
  4  3  2  0
  6  5  1  0
  7  6  1  0
  8  7  2  0
 10 12  1  0
 10  9  1  6
 11 10  1  0
 12 13  1  1
 13  7  1  0
 14 16  1  0
 14 12  1  0
 15 14  2  0
M  END
$$$$
