GGT.pdb
     RDKit          3D

 16 15  0  0  1  0  0  0  0  0999 V2000
    6.8372  -20.4059   24.3448 N   0  0  0  0  0  0  0  0  0  0  0  0
    6.5557  -19.0239   24.7054 C   0  0  0  0  0  0  0  0  0  0  0  0
    7.6338  -18.1716   24.1386 C   0  0  0  0  0  0  0  0  0  0  0  0
    8.5395  -18.6584   23.4003 O   0  0  0  0  0  0  0  0  0  0  0  0
    7.6596  -16.7960   24.4205 N   0  0  0  0  0  0  0  0  0  0  0  0
    8.6710  -15.9311   23.8367 C   0  0  0  0  0  0  0  0  0  0  0  0
    9.6022  -15.4406   24.8803 C   0  0  0  0  0  0  0  0  0  0  0  0
   10.6035  -14.7247   24.6300 O   0  0  0  0  0  0  0  0  0  0  0  0
    9.6869  -13.0410   27.3882 C   0  0  0  0  0  0  0  0  0  0  0  0
    9.7262  -14.3572   28.1002 C   0  0  1  0  0  0  0  0  0  0  0  0
    8.4594  -14.7671   28.5126 O   0  0  0  0  0  0  0  0  0  0  0  0
   10.3263  -15.4686   27.2894 C   0  0  2  0  0  0  0  0  0  0  0  0
    9.3629  -15.7895   26.2333 N   0  0  0  0  0  0  0  0  0  0  0  0
   10.6010  -16.6806   28.0861 C   0  0  0  0  0  0  0  0  0  0  0  0
    9.9999  -17.7526   27.8180 O   0  0  0  0  0  0  0  0  0  0  0  0
   11.5021  -16.7273   29.1430 O   0  0  0  0  0  0  0  0  0  0  0  0
  2  1  1  0
  3  5  1  0
  3  2  1  0
  4  3  2  0
  6  5  1  0
  7  6  1  0
  8  7  2  0
 10 12  1  0
 10  9  1  6
 11 10  1  0
 12 13  1  6
 13  7  1  0
 14 16  1  0
 14 12  1  0
 15 14  2  0
M  END
$$$$
