GGT.pdb
     RDKit          3D

 16 15  0  0  1  0  0  0  0  0999 V2000
    4.1259  -22.7064   21.2648 N   0  0  0  0  0  0  0  0  0  0  0  0
    4.5958  -21.6301   20.4046 C   0  0  0  0  0  0  0  0  0  0  0  0
    4.6785  -20.3907   21.2212 C   0  0  0  0  0  0  0  0  0  0  0  0
    3.6608  -19.6656   21.4237 O   0  0  0  0  0  0  0  0  0  0  0  0
    5.9052  -20.0049   21.7857 N   0  0  0  0  0  0  0  0  0  0  0  0
    6.0254  -18.7705   22.5431 C   0  0  0  0  0  0  0  0  0  0  0  0
    6.9853  -17.8497   21.8892 C   0  0  0  0  0  0  0  0  0  0  0  0
    7.6193  -18.1419   20.8450 O   0  0  0  0  0  0  0  0  0  0  0  0
    8.1766  -13.2084   21.1162 C   0  0  0  0  0  0  0  0  0  0  0  0
    7.3456  -14.3574   21.5958 C   0  0  1  0  0  0  0  0  0  0  0  0
    6.3217  -14.6711   20.7035 O   0  0  0  0  0  0  0  0  0  0  0  0
    8.1314  -15.6105   21.8507 C   0  0  2  0  0  0  0  0  0  0  0  0
    7.2089  -16.5716   22.4603 N   0  0  0  0  0  0  0  0  0  0  0  0
    9.2815  -15.3972   22.7511 C   0  0  0  0  0  0  0  0  0  0  0  0
    9.1563  -15.6118   23.9843 O   0  0  0  0  0  0  0  0  0  0  0  0
   10.5312  -14.9636   22.3250 O   0  0  0  0  0  0  0  0  0  0  0  0
  2  1  1  0
  3  5  1  0
  3  2  1  0
  4  3  2  0
  6  5  1  0
  7  6  1  0
  8  7  2  0
 10 12  1  0
 10  9  1  6
 11 10  1  0
 12 13  1  1
 13  7  1  0
 14 16  1  0
 14 12  1  0
 15 14  2  0
M  END
$$$$
