GGT.pdb
     RDKit          3D

 16 15  0  0  1  0  0  0  0  0999 V2000
    7.7609  -18.8632   18.5505 N   0  0  0  0  0  0  0  0  0  0  0  0
    7.6239  -17.4261   18.3629 C   0  0  0  0  0  0  0  0  0  0  0  0
    7.0810  -16.8475   19.6200 C   0  0  0  0  0  0  0  0  0  0  0  0
    6.8347  -17.5734   20.6273 O   0  0  0  0  0  0  0  0  0  0  0  0
    6.8317  -15.4680   19.7050 N   0  0  0  0  0  0  0  0  0  0  0  0
    6.2018  -14.8923   20.8813 C   0  0  0  0  0  0  0  0  0  0  0  0
    7.2068  -14.6465   21.9426 C   0  0  0  0  0  0  0  0  0  0  0  0
    7.9817  -13.6578   21.9431 O   0  0  0  0  0  0  0  0  0  0  0  0
    8.2136  -13.9079   26.2582 C   0  0  0  0  0  0  0  0  0  0  0  0
    7.5117  -14.2249   24.9746 C   0  0  1  0  0  0  0  0  0  0  0  0
    7.3820  -13.1026   24.1581 O   0  0  0  0  0  0  0  0  0  0  0  0
    8.1760  -15.3032   24.1693 C   0  0  2  0  0  0  0  0  0  0  0  0
    7.3098  -15.5653   23.0172 N   0  0  0  0  0  0  0  0  0  0  0  0
    8.3713  -16.5536   24.9293 C   0  0  0  0  0  0  0  0  0  0  0  0
    7.4224  -17.3724   25.0373 O   0  0  0  0  0  0  0  0  0  0  0  0
    9.5620  -16.9046   25.5540 O   0  0  0  0  0  0  0  0  0  0  0  0
  2  1  1  0
  3  5  1  0
  3  2  1  0
  4  3  2  0
  6  5  1  0
  7  6  1  0
  8  7  2  0
 10 12  1  0
 10  9  1  1
 11 10  1  0
 12 13  1  6
 13  7  1  0
 14 16  1  0
 14 12  1  0
 15 14  2  0
M  END
$$$$
