GGT.pdb
     RDKit          3D

 16 15  0  0  1  0  0  0  0  0999 V2000
    7.9262  -13.2798   17.8966 N   0  0  0  0  0  0  0  0  0  0  0  0
    8.7809  -13.6392   19.0190 C   0  0  0  0  0  0  0  0  0  0  0  0
    7.9075  -13.9604   20.1783 C   0  0  0  0  0  0  0  0  0  0  0  0
    6.6890  -13.6180   20.2005 O   0  0  0  0  0  0  0  0  0  0  0  0
    8.4328  -14.6579   21.2783 N   0  0  0  0  0  0  0  0  0  0  0  0
    7.5987  -14.9920   22.4204 C   0  0  0  0  0  0  0  0  0  0  0  0
    8.1720  -14.4297   23.6662 C   0  0  0  0  0  0  0  0  0  0  0  0
    9.3461  -13.9911   23.7486 O   0  0  0  0  0  0  0  0  0  0  0  0
    6.4537  -11.7291   26.0212 C   0  0  0  0  0  0  0  0  0  0  0  0
    6.7289  -13.0381   26.6933 C   0  0  1  0  0  0  0  0  0  0  0  0
    5.6092  -13.8683   26.7005 O   0  0  0  0  0  0  0  0  0  0  0  0
    7.8653  -13.8064   26.0842 C   0  0  2  0  0  0  0  0  0  0  0  0
    7.3658  -14.3782   24.8312 N   0  0  0  0  0  0  0  0  0  0  0  0
    8.3602  -14.8914   26.9542 C   0  0  0  0  0  0  0  0  0  0  0  0
    8.1452  -16.0903   26.6396 O   0  0  0  0  0  0  0  0  0  0  0  0
    9.0677  -14.6809   28.1317 O   0  0  0  0  0  0  0  0  0  0  0  0
  2  1  1  0
  3  5  1  0
  3  2  1  0
  4  3  2  0
  6  5  1  0
  7  6  1  0
  8  7  2  0
 10 12  1  0
 10  9  1  6
 11 10  1  0
 12 13  1  6
 13  7  1  0
 14 16  1  0
 14 12  1  0
 15 14  2  0
M  END
$$$$
