GGT.pdb
     RDKit          3D

 16 15  0  0  1  0  0  0  0  0999 V2000
    4.3739  -21.1269   23.0607 N   0  0  0  0  0  0  0  0  0  0  0  0
    5.5342  -20.4686   23.6434 C   0  0  0  0  0  0  0  0  0  0  0  0
    6.3325  -19.8782   22.5371 C   0  0  0  0  0  0  0  0  0  0  0  0
    7.5462  -20.1913   22.3600 O   0  0  0  0  0  0  0  0  0  0  0  0
    5.7398  -18.9525   21.6629 N   0  0  0  0  0  0  0  0  0  0  0  0
    6.4849  -18.3927   20.5479 C   0  0  0  0  0  0  0  0  0  0  0  0
    7.3390  -17.2702   21.0033 C   0  0  0  0  0  0  0  0  0  0  0  0
    7.8873  -16.4579   20.2177 O   0  0  0  0  0  0  0  0  0  0  0  0
    8.0207  -13.6618   23.8350 C   0  0  0  0  0  0  0  0  0  0  0  0
    7.3891  -14.8543   23.1870 C   0  0  1  0  0  0  0  0  0  0  0  0
    6.7579  -14.5257   21.9885 O   0  0  0  0  0  0  0  0  0  0  0  0
    8.3495  -15.9734   22.9075 C   0  0  2  0  0  0  0  0  0  0  0  0
    7.5565  -17.0926   22.3929 N   0  0  0  0  0  0  0  0  0  0  0  0
    9.0917  -16.4098   24.1066 C   0  0  0  0  0  0  0  0  0  0  0  0
    8.5579  -17.2161   24.9112 O   0  0  0  0  0  0  0  0  0  0  0  0
   10.3759  -15.9833   24.4228 O   0  0  0  0  0  0  0  0  0  0  0  0
  2  1  1  0
  3  5  1  0
  3  2  1  0
  4  3  2  0
  6  5  1  0
  7  6  1  0
  8  7  2  0
 10 12  1  0
 10  9  1  6
 11 10  1  0
 12 13  1  1
 13  7  1  0
 14 16  1  0
 14 12  1  0
 15 14  2  0
M  END
$$$$
