GGT.pdb
     RDKit          3D

 16 15  0  0  1  0  0  0  0  0999 V2000
    4.9476  -19.1325   21.4917 N   0  0  0  0  0  0  0  0  0  0  0  0
    5.6931  -18.5561   22.6013 C   0  0  0  0  0  0  0  0  0  0  0  0
    5.5832  -17.0764   22.5106 C   0  0  0  0  0  0  0  0  0  0  0  0
    4.6897  -16.5238   21.8044 O   0  0  0  0  0  0  0  0  0  0  0  0
    6.4833  -16.2630   23.2181 N   0  0  0  0  0  0  0  0  0  0  0  0
    6.9333  -14.9937   22.6721 C   0  0  0  0  0  0  0  0  0  0  0  0
    7.7835  -14.2772   23.6524 C   0  0  0  0  0  0  0  0  0  0  0  0
    8.1981  -13.1044   23.4785 O   0  0  0  0  0  0  0  0  0  0  0  0
    7.1606  -12.2799   25.3847 C   0  0  0  0  0  0  0  0  0  0  0  0
    7.5677  -13.2624   26.4383 C   0  0  1  0  0  0  0  0  0  0  0  0
    6.4941  -14.0373   26.8741 O   0  0  0  0  0  0  0  0  0  0  0  0
    8.6619  -14.1954   26.0084 C   0  0  2  0  0  0  0  0  0  0  0  0
    8.1550  -14.9369   24.8509 N   0  0  0  0  0  0  0  0  0  0  0  0
    9.0565  -15.1476   27.0651 C   0  0  0  0  0  0  0  0  0  0  0  0
    8.7039  -16.3523   26.9824 O   0  0  0  0  0  0  0  0  0  0  0  0
    9.8120  -14.8020   28.1790 O   0  0  0  0  0  0  0  0  0  0  0  0
  2  1  1  0
  3  5  1  0
  3  2  1  0
  4  3  2  0
  6  5  1  0
  7  6  1  0
  8  7  2  0
 10 12  1  0
 10  9  1  6
 11 10  1  0
 12 13  1  6
 13  7  1  0
 14 16  1  0
 14 12  1  0
 15 14  2  0
M  END
$$$$
