GGT.pdb
     RDKit          3D

 16 15  0  0  1  0  0  0  0  0999 V2000
    3.0845  -19.2684   21.0973 N   0  0  0  0  0  0  0  0  0  0  0  0
    4.0113  -18.7449   22.0904 C   0  0  0  0  0  0  0  0  0  0  0  0
    4.9355  -17.8027   21.4061 C   0  0  0  0  0  0  0  0  0  0  0  0
    4.8930  -17.6314   20.1526 O   0  0  0  0  0  0  0  0  0  0  0  0
    5.8801  -17.0816   22.1543 N   0  0  0  0  0  0  0  0  0  0  0  0
    6.7607  -16.1167   21.5175 C   0  0  0  0  0  0  0  0  0  0  0  0
    7.6144  -15.4456   22.5264 C   0  0  0  0  0  0  0  0  0  0  0  0
    8.5464  -14.6583   22.2274 O   0  0  0  0  0  0  0  0  0  0  0  0
    6.8603  -12.9280   24.9450 C   0  0  0  0  0  0  0  0  0  0  0  0
    7.2716  -14.1484   25.7081 C   0  0  1  0  0  0  0  0  0  0  0  0
    6.1739  -14.8986   26.1266 O   0  0  0  0  0  0  0  0  0  0  0  0
    8.1870  -15.0615   24.9458 C   0  0  2  0  0  0  0  0  0  0  0  0
    7.3784  -15.6958   23.9017 N   0  0  0  0  0  0  0  0  0  0  0  0
    8.7981  -16.1046   25.7929 C   0  0  0  0  0  0  0  0  0  0  0  0
    8.5170  -17.3143   25.5929 O   0  0  0  0  0  0  0  0  0  0  0  0
    9.6884  -15.8419   26.8271 O   0  0  0  0  0  0  0  0  0  0  0  0
  2  1  1  0
  3  5  1  0
  3  2  1  0
  4  3  2  0
  6  5  1  0
  7  6  1  0
  8  7  2  0
 10 12  1  0
 10  9  1  6
 11 10  1  0
 12 13  1  6
 13  7  1  0
 14 16  1  0
 14 12  1  0
 15 14  2  0
M  END
$$$$
