GGT.pdb
     RDKit          3D

 16 15  0  0  1  0  0  0  0  0999 V2000
    4.8253  -20.7668   20.0924 N   0  0  0  0  0  0  0  0  0  0  0  0
    4.4452  -19.3856   20.3511 C   0  0  0  0  0  0  0  0  0  0  0  0
    4.5939  -19.1324   21.8085 C   0  0  0  0  0  0  0  0  0  0  0  0
    3.6573  -19.3879   22.6208 O   0  0  0  0  0  0  0  0  0  0  0  0
    5.7933  -18.5989   22.3074 N   0  0  0  0  0  0  0  0  0  0  0  0
    6.0162  -18.4669   23.7374 C   0  0  0  0  0  0  0  0  0  0  0  0
    7.2141  -17.6354   24.0032 C   0  0  0  0  0  0  0  0  0  0  0  0
    8.3209  -17.8198   23.4386 O   0  0  0  0  0  0  0  0  0  0  0  0
    7.3822  -13.7071   24.0889 C   0  0  0  0  0  0  0  0  0  0  0  0
    7.7707  -14.3302   25.3934 C   0  0  1  0  0  0  0  0  0  0  0  0
    6.7160  -14.3370   26.3048 O   0  0  0  0  0  0  0  0  0  0  0  0
    8.2767  -15.7376   25.2673 C   0  0  2  0  0  0  0  0  0  0  0  0
    7.1201  -16.5751   24.9394 N   0  0  0  0  0  0  0  0  0  0  0  0
    8.9074  -16.2370   26.5050 C   0  0  0  0  0  0  0  0  0  0  0  0
    8.3130  -17.0971   27.2047 O   0  0  0  0  0  0  0  0  0  0  0  0
   10.1473  -15.8150   26.9695 O   0  0  0  0  0  0  0  0  0  0  0  0
  2  1  1  0
  3  5  1  0
  3  2  1  0
  4  3  2  0
  6  5  1  0
  7  6  1  0
  8  7  2  0
 10 12  1  0
 10  9  1  6
 11 10  1  0
 12 13  1  1
 13  7  1  0
 14 16  1  0
 14 12  1  0
 15 14  2  0
M  END
$$$$
