GGT.pdb
     RDKit          3D

 16 15  0  0  1  0  0  0  0  0999 V2000
   10.1494  -18.0209   20.3050 N   0  0  0  0  0  0  0  0  0  0  0  0
    8.9080  -17.3199   20.5995 C   0  0  0  0  0  0  0  0  0  0  0  0
    8.7062  -17.3398   22.0722 C   0  0  0  0  0  0  0  0  0  0  0  0
    9.2837  -18.1952   22.8051 O   0  0  0  0  0  0  0  0  0  0  0  0
    7.8598  -16.3955   22.6756 N   0  0  0  0  0  0  0  0  0  0  0  0
    7.6158  -16.4161   24.1080 C   0  0  0  0  0  0  0  0  0  0  0  0
    6.7236  -15.2995   24.5005 C   0  0  0  0  0  0  0  0  0  0  0  0
    5.8506  -14.8139   23.7390 O   0  0  0  0  0  0  0  0  0  0  0  0
    6.4865  -11.8009   25.2603 C   0  0  0  0  0  0  0  0  0  0  0  0
    7.1250  -12.4658   26.4398 C   0  0  1  0  0  0  0  0  0  0  0  0
    6.1972  -12.7707   27.4344 O   0  0  0  0  0  0  0  0  0  0  0  0
    7.8636  -13.7273   26.0996 C   0  0  2  0  0  0  0  0  0  0  0  0
    6.8509  -14.7420   25.7976 N   0  0  0  0  0  0  0  0  0  0  0  0
    8.7240  -14.2065   27.1993 C   0  0  0  0  0  0  0  0  0  0  0  0
    8.4480  -15.2870   27.7815 O   0  0  0  0  0  0  0  0  0  0  0  0
    9.8511  -13.5324   27.6536 O   0  0  0  0  0  0  0  0  0  0  0  0
  2  1  1  0
  3  5  1  0
  3  2  1  0
  4  3  2  0
  6  5  1  0
  7  6  1  0
  8  7  2  0
 10 12  1  0
 10  9  1  6
 11 10  1  0
 12 13  1  1
 13  7  1  0
 14 16  1  0
 14 12  1  0
 15 14  2  0
M  END
$$$$
