TAQ.pdb
     RDKit          3D

 22 21  0  0  1  0  0  0  0  0999 V2000
   18.1022   -8.6780  -11.5913 C   0  0  0  0  0  0  0  0  0  0  0  0
   16.9581   -9.6299  -11.9161 C   0  0  1  0  0  0  0  0  0  0  0  0
   17.4449  -10.8594  -12.3379 O   0  0  0  0  0  0  0  0  0  0  0  0
   16.1228   -9.8767  -10.6581 C   0  0  2  0  0  0  0  0  0  0  0  0
   15.1488  -10.9227  -10.8843 N   0  0  0  0  0  0  0  0  0  0  0  0
   15.4496   -8.5895  -10.3557 C   0  0  0  0  0  0  0  0  0  0  0  0
   14.7522   -7.9838  -11.2064 O   0  0  0  0  0  0  0  0  0  0  0  0
   14.8355   -6.5659   -7.2090 C   0  0  0  0  0  0  0  0  0  0  0  0
   15.0523   -6.7680   -8.6678 C   0  0  2  0  0  0  0  0  0  0  0  0
   15.6001   -8.0230   -9.0597 N   0  0  0  0  0  0  0  0  0  0  0  0
   15.9033   -5.6587   -9.2785 C   0  0  0  0  0  0  0  0  0  0  0  0
   17.1449   -5.7410   -9.2286 O   0  0  0  0  0  0  0  0  0  0  0  0
   15.5445   -3.4907  -14.8491 N   0  0  0  0  0  0  0  0  0  0  0  0
   16.3029   -2.4631  -14.2552 C   0  0  0  0  0  0  0  0  0  0  0  0
   16.8606   -1.6210  -14.9874 O   0  0  0  0  0  0  0  0  0  0  0  0
   16.4377   -2.3846  -12.7897 C   0  0  0  0  0  0  0  0  0  0  0  0
   15.7850   -3.4902  -12.0256 C   0  0  0  0  0  0  0  0  0  0  0  0
   15.8394   -3.4132  -10.5347 C   0  0  2  0  0  0  0  0  0  0  0  0
   15.2862   -4.5541   -9.8906 N   0  0  0  0  0  0  0  0  0  0  0  0
   15.6095   -2.0810   -9.9581 C   0  0  0  0  0  0  0  0  0  0  0  0
   14.4746   -1.8040   -9.3950 O   0  0  0  0  0  0  0  0  0  0  0  0
   16.4678   -0.9993   -9.9216 O   0  0  0  0  0  0  0  0  0  0  0  0
  2  1  1  1
  2  4  1  0
  3  2  1  0
  4  6  1  0
  4  5  1  6
  6 10  1  0
  7  6  2  0
  9  8  1  1
  9 11  1  0
 10  9  1  0
 11 19  1  0
 11 12  2  0
 14 13  1  0
 15 14  2  0
 16 14  1  0
 18 17  1  6
 17 16  1  0
 18 20  1  0
 19 18  1  0
 20 22  1  0
 21 20  2  0
M  END
$$$$
