TAQ.pdb
     RDKit          3D

 22 21  0  0  1  0  0  0  0  0999 V2000
   19.2375  -12.0288  -14.8507 C   0  0  0  0  0  0  0  0  0  0  0  0
   18.5262  -11.3699  -16.0257 C   0  0  1  0  0  0  0  0  0  0  0  0
   18.6721  -12.1290  -17.1785 O   0  0  0  0  0  0  0  0  0  0  0  0
   17.0282  -11.2725  -15.7297 C   0  0  2  0  0  0  0  0  0  0  0  0
   16.2517  -11.8258  -16.8182 N   0  0  0  0  0  0  0  0  0  0  0  0
   16.7384   -9.8272  -15.5604 C   0  0  0  0  0  0  0  0  0  0  0  0
   16.8528   -9.0073  -16.5047 O   0  0  0  0  0  0  0  0  0  0  0  0
   15.2797   -7.6841  -12.7820 C   0  0  0  0  0  0  0  0  0  0  0  0
   16.1345   -7.9798  -13.9644 C   0  0  2  0  0  0  0  0  0  0  0  0
   16.3179   -9.3551  -14.2862 N   0  0  0  0  0  0  0  0  0  0  0  0
   17.5072   -7.3227  -13.8564 C   0  0  0  0  0  0  0  0  0  0  0  0
   18.5166   -8.0347  -13.6992 O   0  0  0  0  0  0  0  0  0  0  0  0
   21.7975   -5.7299  -12.9420 N   0  0  0  0  0  0  0  0  0  0  0  0
   22.0369   -4.9070  -14.0597 C   0  0  0  0  0  0  0  0  0  0  0  0
   23.0912   -4.2419  -14.1078 O   0  0  0  0  0  0  0  0  0  0  0  0
   21.0550   -4.8308  -15.1561 C   0  0  0  0  0  0  0  0  0  0  0  0
   19.8160   -5.6434  -14.9650 C   0  0  0  0  0  0  0  0  0  0  0  0
   18.7712   -5.0893  -14.0522 C   0  0  2  0  0  0  0  0  0  0  0  0
   17.6261   -5.9243  -13.9332 N   0  0  0  0  0  0  0  0  0  0  0  0
   18.5949   -3.6310  -14.0990 C   0  0  0  0  0  0  0  0  0  0  0  0
   17.6990   -3.1097  -14.8784 O   0  0  0  0  0  0  0  0  0  0  0  0
   19.2823   -2.6582  -13.3995 O   0  0  0  0  0  0  0  0  0  0  0  0
  2  1  1  1
  2  4  1  0
  3  2  1  0
  4  6  1  0
  4  5  1  6
  6 10  1  0
  7  6  2  0
  9  8  1  1
  9 11  1  0
 10  9  1  0
 11 19  1  0
 11 12  2  0
 14 13  1  0
 15 14  2  0
 16 14  1  0
 18 17  1  6
 17 16  1  0
 18 20  1  0
 19 18  1  0
 20 22  1  0
 21 20  2  0
M  END
$$$$
