TAQ.pdb
     RDKit          3D

 22 21  0  0  1  0  0  0  0  0999 V2000
   14.2580  -11.5787  -14.7677 C   0  0  0  0  0  0  0  0  0  0  0  0
   15.3220  -10.5288  -15.0616 C   0  0  1  0  0  0  0  0  0  0  0  0
   16.1106  -10.2999  -13.9427 O   0  0  0  0  0  0  0  0  0  0  0  0
   16.2439  -11.0299  -16.1752 C   0  0  2  0  0  0  0  0  0  0  0  0
   17.0231  -12.1638  -15.7267 N   0  0  0  0  0  0  0  0  0  0  0  0
   17.1278   -9.8886  -16.5183 C   0  0  0  0  0  0  0  0  0  0  0  0
   18.2905   -9.7811  -16.0561 O   0  0  0  0  0  0  0  0  0  0  0  0
   16.8424   -6.9657  -18.9534 C   0  0  0  0  0  0  0  0  0  0  0  0
   17.4027   -7.7567  -17.8236 C   0  0  2  0  0  0  0  0  0  0  0  0
   16.6416   -8.8833  -17.3992 N   0  0  0  0  0  0  0  0  0  0  0  0
   17.6952   -6.8858  -16.6054 C   0  0  0  0  0  0  0  0  0  0  0  0
   16.8792   -6.8534  -15.6653 O   0  0  0  0  0  0  0  0  0  0  0  0
   23.1548   -6.1587  -13.8173 N   0  0  0  0  0  0  0  0  0  0  0  0
   22.4709   -5.0250  -13.3370 C   0  0  0  0  0  0  0  0  0  0  0  0
   22.9982   -4.3328  -12.4431 O   0  0  0  0  0  0  0  0  0  0  0  0
   21.1500   -4.6625  -13.8810 C   0  0  0  0  0  0  0  0  0  0  0  0
   20.6469   -5.5392  -14.9811 C   0  0  0  0  0  0  0  0  0  0  0  0
   19.3337   -5.1776  -15.5946 C   0  0  2  0  0  0  0  0  0  0  0  0
   18.8771   -6.1272  -16.5499 N   0  0  0  0  0  0  0  0  0  0  0  0
   19.1236   -3.7454  -15.8486 C   0  0  0  0  0  0  0  0  0  0  0  0
   18.8830   -2.9391  -14.8618 O   0  0  0  0  0  0  0  0  0  0  0  0
   19.1380   -3.0744  -17.0560 O   0  0  0  0  0  0  0  0  0  0  0  0
  2  1  1  1
  2  4  1  0
  3  2  1  0
  4  6  1  0
  4  5  1  1
  6 10  1  0
  7  6  2  0
  9  8  1  6
  9 11  1  0
 10  9  1  0
 11 19  1  0
 11 12  2  0
 14 13  1  0
 15 14  2  0
 16 14  1  0
 18 17  1  6
 17 16  1  0
 18 20  1  0
 19 18  1  0
 20 22  1  0
 21 20  2  0
M  END
$$$$
