TAQ.pdb
     RDKit          3D

 22 21  0  0  1  0  0  0  0  0999 V2000
   18.8081  -11.6807  -14.7515 C   0  0  0  0  0  0  0  0  0  0  0  0
   18.5360  -12.2025  -16.1566 C   0  0  1  0  0  0  0  0  0  0  0  0
   18.5450  -13.5903  -16.1772 O   0  0  0  0  0  0  0  0  0  0  0  0
   17.1481  -11.7481  -16.6131 C   0  0  2  0  0  0  0  0  0  0  0  0
   16.8279  -12.2989  -17.9124 N   0  0  0  0  0  0  0  0  0  0  0  0
   17.2016  -10.2664  -16.6702 C   0  0  0  0  0  0  0  0  0  0  0  0
   17.9299   -9.6549  -17.4905 O   0  0  0  0  0  0  0  0  0  0  0  0
   15.0960   -7.5041  -15.1443 C   0  0  0  0  0  0  0  0  0  0  0  0
   16.3108   -8.0930  -15.7717 C   0  0  2  0  0  0  0  0  0  0  0  0
   16.4022   -9.5143  -15.7656 N   0  0  0  0  0  0  0  0  0  0  0  0
   17.5950   -7.5247  -15.1754 C   0  0  0  0  0  0  0  0  0  0  0  0
   18.2842   -8.2325  -14.4174 O   0  0  0  0  0  0  0  0  0  0  0  0
   21.2586   -6.4219  -12.6494 N   0  0  0  0  0  0  0  0  0  0  0  0
   22.0113   -5.6025  -13.5129 C   0  0  0  0  0  0  0  0  0  0  0  0
   22.9476   -4.9255  -13.0426 O   0  0  0  0  0  0  0  0  0  0  0  0
   21.6962   -5.5438  -14.9515 C   0  0  0  0  0  0  0  0  0  0  0  0
   20.4262   -6.2176  -15.3578 C   0  0  0  0  0  0  0  0  0  0  0  0
   19.1525   -5.4766  -15.1122 C   0  0  2  0  0  0  0  0  0  0  0  0
   17.9924   -6.2116  -15.4815 N   0  0  0  0  0  0  0  0  0  0  0  0
   19.1986   -4.0304  -15.3698 C   0  0  0  0  0  0  0  0  0  0  0  0
   18.7060   -3.5504  -16.4693 O   0  0  0  0  0  0  0  0  0  0  0  0
   19.7237   -3.0309  -14.5740 O   0  0  0  0  0  0  0  0  0  0  0  0
  2  1  1  1
  2  4  1  0
  3  2  1  0
  4  6  1  0
  4  5  1  6
  6 10  1  0
  7  6  2  0
  9  8  1  1
  9 11  1  0
 10  9  1  0
 11 19  1  0
 11 12  2  0
 14 13  1  0
 15 14  2  0
 16 14  1  0
 18 17  1  6
 17 16  1  0
 18 20  1  0
 19 18  1  0
 20 22  1  0
 21 20  2  0
M  END
$$$$
