TAQ.pdb
     RDKit          3D

 22 21  0  0  1  0  0  0  0  0999 V2000
   26.3489  -20.0901  -18.0011 C   0  0  0  0  0  0  0  0  0  0  0  0
   27.0967  -20.7316  -16.8392 C   0  0  1  0  0  0  0  0  0  0  0  0
   28.2267  -21.4000  -17.2896 O   0  0  0  0  0  0  0  0  0  0  0  0
   27.5651  -19.6459  -15.8682 C   0  0  2  0  0  0  0  0  0  0  0  0
   28.3797  -20.2138  -14.8156 N   0  0  0  0  0  0  0  0  0  0  0  0
   26.3323  -19.0393  -15.3080 C   0  0  0  0  0  0  0  0  0  0  0  0
   25.6192  -19.6340  -14.4625 O   0  0  0  0  0  0  0  0  0  0  0  0
   24.6322  -15.6431  -15.6794 C   0  0  0  0  0  0  0  0  0  0  0  0
   24.7456  -17.0884  -15.3412 C   0  0  2  0  0  0  0  0  0  0  0  0
   25.9454  -17.7418  -15.7439 N   0  0  0  0  0  0  0  0  0  0  0  0
   23.5595  -17.8929  -15.8645 C   0  0  0  0  0  0  0  0  0  0  0  0
   23.6334  -18.4366  -16.9824 O   0  0  0  0  0  0  0  0  0  0  0  0
   22.0550  -22.6568  -14.2673 N   0  0  0  0  0  0  0  0  0  0  0  0
   21.0463  -21.7570  -13.8715 C   0  0  0  0  0  0  0  0  0  0  0  0
   19.8681  -22.1605  -13.8005 O   0  0  0  0  0  0  0  0  0  0  0  0
   21.3774  -20.3578  -13.5478 C   0  0  0  0  0  0  0  0  0  0  0  0
   20.5319  -19.3264  -14.2211 C   0  0  0  0  0  0  0  0  0  0  0  0
   21.1333  -18.6035  -15.3818 C   0  0  2  0  0  0  0  0  0  0  0  0
   22.3945  -18.0156  -15.0878 N   0  0  0  0  0  0  0  0  0  0  0  0
   20.1854  -17.8783  -16.2395 C   0  0  0  0  0  0  0  0  0  0  0  0
   20.1485  -16.5822  -16.2158 O   0  0  0  0  0  0  0  0  0  0  0  0
   19.2594  -18.3931  -17.1258 O   0  0  0  0  0  0  0  0  0  0  0  0
  2  1  1  6
  2  4  1  0
  3  2  1  0
  4  6  1  0
  4  5  1  1
  6 10  1  0
  7  6  2  0
  9  8  1  6
  9 11  1  0
 10  9  1  0
 11 19  1  0
 11 12  2  0
 14 13  1  0
 15 14  2  0
 16 14  1  0
 18 17  1  1
 17 16  1  0
 18 20  1  0
 19 18  1  0
 20 22  1  0
 21 20  2  0
M  END
$$$$
