TAQ.pdb
     RDKit          3D

 22 21  0  0  1  0  0  0  0  0999 V2000
   14.9581  -10.6367  -16.3252 C   0  0  0  0  0  0  0  0  0  0  0  0
   15.2922  -11.9412  -15.6131 C   0  0  1  0  0  0  0  0  0  0  0  0
   14.8128  -13.0298  -16.3283 O   0  0  0  0  0  0  0  0  0  0  0  0
   16.8110  -12.0955  -15.5102 C   0  0  2  0  0  0  0  0  0  0  0  0
   17.1649  -13.4346  -15.0914 N   0  0  0  0  0  0  0  0  0  0  0  0
   17.2560  -11.0972  -14.5067 C   0  0  0  0  0  0  0  0  0  0  0  0
   16.8113  -11.0859  -13.3323 O   0  0  0  0  0  0  0  0  0  0  0  0
   19.8412   -8.2885  -14.5153 C   0  0  0  0  0  0  0  0  0  0  0  0
   18.6625   -9.0648  -14.0421 C   0  0  2  0  0  0  0  0  0  0  0  0
   18.2174  -10.1208  -14.8880 N   0  0  0  0  0  0  0  0  0  0  0  0
   17.4720   -8.1633  -13.7294 C   0  0  0  0  0  0  0  0  0  0  0  0
   16.6330   -7.9259  -14.6185 O   0  0  0  0  0  0  0  0  0  0  0  0
   15.6114   -7.0651   -7.6977 N   0  0  0  0  0  0  0  0  0  0  0  0
   14.8072   -6.1781   -8.4395 C   0  0  0  0  0  0  0  0  0  0  0  0
   13.9574   -5.4870   -7.8424 O   0  0  0  0  0  0  0  0  0  0  0  0
   14.9656   -6.0691   -9.9007 C   0  0  0  0  0  0  0  0  0  0  0  0
   16.0530   -6.9057  -10.4920 C   0  0  0  0  0  0  0  0  0  0  0  0
   16.3811   -6.6792  -11.9317 C   0  0  2  0  0  0  0  0  0  0  0  0
   17.3283   -7.6066  -12.4468 N   0  0  0  0  0  0  0  0  0  0  0  0
   16.4494   -5.2733  -12.3546 C   0  0  0  0  0  0  0  0  0  0  0  0
   17.6008   -4.7017  -12.5259 O   0  0  0  0  0  0  0  0  0  0  0  0
   15.4099   -4.4009  -12.6127 O   0  0  0  0  0  0  0  0  0  0  0  0
  2  1  1  6
  2  4  1  0
  3  2  1  0
  4  6  1  0
  4  5  1  1
  6 10  1  0
  7  6  2  0
  9  8  1  6
  9 11  1  0
 10  9  1  0
 11 19  1  0
 11 12  2  0
 14 13  1  0
 15 14  2  0
 16 14  1  0
 18 17  1  1
 17 16  1  0
 18 20  1  0
 19 18  1  0
 20 22  1  0
 21 20  2  0
M  END
$$$$
