TAQ.pdb
     RDKit          3D

 22 21  0  0  1  0  0  0  0  0999 V2000
   24.7272  -19.8921  -16.6691 C   0  0  0  0  0  0  0  0  0  0  0  0
   26.1896  -19.4707  -16.6014 C   0  0  1  0  0  0  0  0  0  0  0  0
   26.4884  -18.5646  -17.6095 O   0  0  0  0  0  0  0  0  0  0  0  0
   26.4620  -18.7748  -15.2664 C   0  0  2  0  0  0  0  0  0  0  0  0
   26.2366  -19.6790  -14.1594 N   0  0  0  0  0  0  0  0  0  0  0  0
   25.5240  -17.6267  -15.2052 C   0  0  0  0  0  0  0  0  0  0  0  0
   24.2956  -17.7777  -14.9924 O   0  0  0  0  0  0  0  0  0  0  0  0
   25.9811  -13.8370  -15.3358 C   0  0  0  0  0  0  0  0  0  0  0  0
   25.2435  -15.1298  -15.3116 C   0  0  2  0  0  0  0  0  0  0  0  0
   26.0331  -16.3122  -15.3947 N   0  0  0  0  0  0  0  0  0  0  0  0
   24.1653  -15.1933  -16.3893 C   0  0  0  0  0  0  0  0  0  0  0  0
   24.1425  -16.1575  -17.1770 O   0  0  0  0  0  0  0  0  0  0  0  0
   20.8048  -18.0766  -16.9232 N   0  0  0  0  0  0  0  0  0  0  0  0
   19.7035  -17.2138  -17.0851 C   0  0  0  0  0  0  0  0  0  0  0  0
   18.6365  -17.6721  -17.5410 O   0  0  0  0  0  0  0  0  0  0  0  0
   19.8102  -15.7890  -16.7233 C   0  0  0  0  0  0  0  0  0  0  0  0
   21.1193  -15.3730  -16.1358 C   0  0  0  0  0  0  0  0  0  0  0  0
   21.8158  -14.2155  -16.7737 C   0  0  2  0  0  0  0  0  0  0  0  0
   23.2083  -14.1687  -16.4888 N   0  0  0  0  0  0  0  0  0  0  0  0
   21.0504  -12.9618  -16.8234 C   0  0  0  0  0  0  0  0  0  0  0  0
   21.2287  -12.0554  -15.9132 O   0  0  0  0  0  0  0  0  0  0  0  0
   20.1015  -12.5690  -17.7472 O   0  0  0  0  0  0  0  0  0  0  0  0
  2  1  1  1
  2  4  1  0
  3  2  1  0
  4  6  1  0
  4  5  1  1
  6 10  1  0
  7  6  2  0
  9  8  1  6
  9 11  1  0
 10  9  1  0
 11 19  1  0
 11 12  2  0
 14 13  1  0
 15 14  2  0
 16 14  1  0
 18 17  1  1
 17 16  1  0
 18 20  1  0
 19 18  1  0
 20 22  1  0
 21 20  2  0
M  END
$$$$
