TAQ.pdb
     RDKit          3D

 22 21  0  0  1  0  0  0  0  0999 V2000
   23.2125  -12.2995  -21.4938 C   0  0  0  0  0  0  0  0  0  0  0  0
   23.0041  -11.5289  -20.1963 C   0  0  1  0  0  0  0  0  0  0  0  0
   21.7576  -10.9186  -20.1805 O   0  0  0  0  0  0  0  0  0  0  0  0
   23.0542  -12.4956  -19.0114 C   0  0  2  0  0  0  0  0  0  0  0  0
   21.9577  -13.4381  -19.0696 N   0  0  0  0  0  0  0  0  0  0  0  0
   22.9584  -11.6540  -17.7932 C   0  0  0  0  0  0  0  0  0  0  0  0
   21.8645  -11.1929  -17.3835 O   0  0  0  0  0  0  0  0  0  0  0  0
   25.4863  -10.4687  -15.1846 C   0  0  0  0  0  0  0  0  0  0  0  0
   24.1886  -10.5264  -15.9117 C   0  0  2  0  0  0  0  0  0  0  0  0
   24.1450  -11.3594  -17.0662 N   0  0  0  0  0  0  0  0  0  0  0  0
   23.6881   -9.1383  -16.2996 C   0  0  0  0  0  0  0  0  0  0  0  0
   23.8632   -8.7264  -17.4617 O   0  0  0  0  0  0  0  0  0  0  0  0
   19.0090   -4.1986  -17.6603 N   0  0  0  0  0  0  0  0  0  0  0  0
   19.6643   -5.4311  -17.4725 C   0  0  0  0  0  0  0  0  0  0  0  0
   19.1274   -6.4738  -17.8976 O   0  0  0  0  0  0  0  0  0  0  0  0
   20.9650   -5.4888  -16.7818 C   0  0  0  0  0  0  0  0  0  0  0  0
   21.5021   -6.8617  -16.5397 C   0  0  0  0  0  0  0  0  0  0  0  0
   22.5063   -7.0177  -15.4447 C   0  0  2  0  0  0  0  0  0  0  0  0
   23.0362   -8.3340  -15.3489 N   0  0  0  0  0  0  0  0  0  0  0  0
   22.2268   -6.2647  -14.2139 C   0  0  0  0  0  0  0  0  0  0  0  0
   21.8810   -6.8922  -13.1329 O   0  0  0  0  0  0  0  0  0  0  0  0
   22.2727   -4.8991  -14.0115 O   0  0  0  0  0  0  0  0  0  0  0  0
  2  1  1  6
  2  4  1  0
  3  2  1  0
  4  6  1  0
  4  5  1  6
  6 10  1  0
  7  6  2  0
  9  8  1  6
  9 11  1  0
 10  9  1  0
 11 19  1  0
 11 12  2  0
 14 13  1  0
 15 14  2  0
 16 14  1  0
 18 17  1  1
 17 16  1  0
 18 20  1  0
 19 18  1  0
 20 22  1  0
 21 20  2  0
M  END
$$$$
