TAQ.pdb
     RDKit          3D

 22 21  0  0  1  0  0  0  0  0999 V2000
   16.2102  -11.1338  -18.0530 C   0  0  0  0  0  0  0  0  0  0  0  0
   17.1926  -10.3767  -17.1685 C   0  0  1  0  0  0  0  0  0  0  0  0
   16.5350   -9.7753  -16.1043 O   0  0  0  0  0  0  0  0  0  0  0  0
   18.2130  -11.3538  -16.5813 C   0  0  2  0  0  0  0  0  0  0  0  0
   17.5700  -12.2953  -15.6901 N   0  0  0  0  0  0  0  0  0  0  0  0
   19.1975  -10.5230  -15.8451 C   0  0  0  0  0  0  0  0  0  0  0  0
   18.9919  -10.1252  -14.6718 O   0  0  0  0  0  0  0  0  0  0  0  0
   22.7690   -9.4007  -16.5255 C   0  0  0  0  0  0  0  0  0  0  0  0
   21.4184   -9.3443  -15.9020 C   0  0  2  0  0  0  0  0  0  0  0  0
   20.4136  -10.1650  -16.4900 N   0  0  0  0  0  0  0  0  0  0  0  0
   20.8865   -7.9168  -15.8178 C   0  0  0  0  0  0  0  0  0  0  0  0
   19.8874   -7.5947  -16.4877 O   0  0  0  0  0  0  0  0  0  0  0  0
   19.2434   -3.6874  -16.9061 N   0  0  0  0  0  0  0  0  0  0  0  0
   19.1263   -3.0811  -15.6402 C   0  0  0  0  0  0  0  0  0  0  0  0
   18.7311   -1.9000  -15.5682 O   0  0  0  0  0  0  0  0  0  0  0  0
   19.4678   -3.8303  -14.4178 C   0  0  0  0  0  0  0  0  0  0  0  0
   19.8259   -5.2659  -14.6246 C   0  0  0  0  0  0  0  0  0  0  0  0
   21.2750   -5.5904  -14.7876 C   0  0  2  0  0  0  0  0  0  0  0  0
   21.5232   -6.9761  -14.9900 N   0  0  0  0  0  0  0  0  0  0  0  0
   22.1991   -4.8098  -13.9528 C   0  0  0  0  0  0  0  0  0  0  0  0
   22.5963   -5.2784  -12.8107 O   0  0  0  0  0  0  0  0  0  0  0  0
   22.7470   -3.5673  -14.2063 O   0  0  0  0  0  0  0  0  0  0  0  0
  2  1  1  6
  2  4  1  0
  3  2  1  0
  4  6  1  0
  4  5  1  1
  6 10  1  0
  7  6  2  0
  9  8  1  6
  9 11  1  0
 10  9  1  0
 11 19  1  0
 11 12  2  0
 14 13  1  0
 15 14  2  0
 16 14  1  0
 18 17  1  1
 17 16  1  0
 18 20  1  0
 19 18  1  0
 20 22  1  0
 21 20  2  0
M  END
$$$$
