TAQ.pdb
     RDKit          3D

 22 21  0  0  1  0  0  0  0  0999 V2000
   21.7819  -22.8735   -7.7242 C   0  0  0  0  0  0  0  0  0  0  0  0
   21.6114  -22.0752   -9.0104 C   0  0  1  0  0  0  0  0  0  0  0  0
   20.2694  -21.9630   -9.3465 O   0  0  0  0  0  0  0  0  0  0  0  0
   22.1520  -20.6579   -8.8104 C   0  0  2  0  0  0  0  0  0  0  0  0
   21.3048  -19.9064   -7.9097 N   0  0  0  0  0  0  0  0  0  0  0  0
   22.1703  -20.0339  -10.1565 C   0  0  0  0  0  0  0  0  0  0  0  0
   21.1920  -19.3885  -10.6075 O   0  0  0  0  0  0  0  0  0  0  0  0
   24.7542  -19.8762  -12.9696 C   0  0  0  0  0  0  0  0  0  0  0  0
   23.4210  -19.7488  -12.3196 C   0  0  2  0  0  0  0  0  0  0  0  0
   23.3341  -20.1721  -10.9625 N   0  0  0  0  0  0  0  0  0  0  0  0
   22.3270  -20.4541  -13.1156 C   0  0  0  0  0  0  0  0  0  0  0  0
   21.9598  -21.5942  -12.7752 O   0  0  0  0  0  0  0  0  0  0  0  0
   18.1940  -23.1241  -13.9536 N   0  0  0  0  0  0  0  0  0  0  0  0
   17.6465  -22.2901  -14.9478 C   0  0  0  0  0  0  0  0  0  0  0  0
   16.6030  -22.6469  -15.5309 O   0  0  0  0  0  0  0  0  0  0  0  0
   18.2981  -21.0148  -15.2961 C   0  0  0  0  0  0  0  0  0  0  0  0
   19.4525  -20.6272  -14.4306 C   0  0  0  0  0  0  0  0  0  0  0  0
   20.7236  -20.2492  -15.1185 C   0  0  2  0  0  0  0  0  0  0  0  0
   21.7420  -19.8182  -14.2242 N   0  0  0  0  0  0  0  0  0  0  0  0
   20.5684  -19.5688  -16.4119 C   0  0  0  0  0  0  0  0  0  0  0  0
   20.0945  -20.2136  -17.4324 O   0  0  0  0  0  0  0  0  0  0  0  0
   20.8724  -18.2614  -16.7383 O   0  0  0  0  0  0  0  0  0  0  0  0
  2  1  1  1
  2  4  1  0
  3  2  1  0
  4  6  1  0
  4  5  1  1
  6 10  1  0
  7  6  2  0
  9  8  1  6
  9 11  1  0
 10  9  1  0
 11 19  1  0
 11 12  2  0
 14 13  1  0
 15 14  2  0
 16 14  1  0
 18 17  1  1
 17 16  1  0
 18 20  1  0
 19 18  1  0
 20 22  1  0
 21 20  2  0
M  END
$$$$
