TAQ.pdb
     RDKit          3D

 22 21  0  0  1  0  0  0  0  0999 V2000
   27.2271  -18.0756  -13.6502 C   0  0  0  0  0  0  0  0  0  0  0  0
   27.5424  -19.0607  -14.7686 C   0  0  1  0  0  0  0  0  0  0  0  0
   28.5579  -18.5754  -15.5809 O   0  0  0  0  0  0  0  0  0  0  0  0
   28.0299  -20.3807  -14.1677 C   0  0  2  0  0  0  0  0  0  0  0  0
   28.5724  -21.2441  -15.1945 N   0  0  0  0  0  0  0  0  0  0  0  0
   26.8424  -21.0034  -13.5322 C   0  0  0  0  0  0  0  0  0  0  0  0
   26.0162  -21.6874  -14.1854 O   0  0  0  0  0  0  0  0  0  0  0  0
   25.4144  -20.9537   -9.9859 C   0  0  0  0  0  0  0  0  0  0  0  0
   25.4168  -21.1285  -11.4643 C   0  0  2  0  0  0  0  0  0  0  0  0
   26.6331  -20.8189  -12.1375 N   0  0  0  0  0  0  0  0  0  0  0  0
   24.2849  -20.3547  -12.1334 C   0  0  0  0  0  0  0  0  0  0  0  0
   24.5140  -19.2309  -12.6184 O   0  0  0  0  0  0  0  0  0  0  0  0
   23.5212  -21.6762  -17.1902 N   0  0  0  0  0  0  0  0  0  0  0  0
   22.1796  -21.2670  -17.0630 C   0  0  0  0  0  0  0  0  0  0  0  0
   21.4701  -21.1891  -18.0862 O   0  0  0  0  0  0  0  0  0  0  0  0
   21.6218  -20.9334  -15.7402 C   0  0  0  0  0  0  0  0  0  0  0  0
   22.5599  -21.0967  -14.5890 C   0  0  0  0  0  0  0  0  0  0  0  0
   22.0078  -20.8612  -13.2210 C   0  0  2  0  0  0  0  0  0  0  0  0
   22.9952  -20.9096  -12.1985 N   0  0  0  0  0  0  0  0  0  0  0  0
   20.6793  -21.4348  -12.9641 C   0  0  0  0  0  0  0  0  0  0  0  0
   20.5709  -22.5799  -12.3650 O   0  0  0  0  0  0  0  0  0  0  0  0
   19.4407  -20.9146  -13.2855 O   0  0  0  0  0  0  0  0  0  0  0  0
  2  1  1  1
  2  4  1  0
  3  2  1  0
  4  6  1  0
  4  5  1  6
  6 10  1  0
  7  6  2  0
  9  8  1  1
  9 11  1  0
 10  9  1  0
 11 19  1  0
 11 12  2  0
 14 13  1  0
 15 14  2  0
 16 14  1  0
 18 17  1  6
 17 16  1  0
 18 20  1  0
 19 18  1  0
 20 22  1  0
 21 20  2  0
M  END
$$$$
