DYN.pdb
     RDKit          3D

 29 29  0  0  1  0  0  0  0  0999 V2000
   18.9930  -22.4994  -11.2791 N   0  0  0  0  0  0  0  0  0  0  0  0
   19.3588  -22.2894  -12.6507 C   0  0  1  0  0  0  0  0  0  0  0  0
   18.1863  -21.9478  -13.5385 C   0  0  0  0  0  0  0  0  0  0  0  0
   17.2138  -23.0487  -13.4416 C   0  0  0  0  0  0  0  0  0  0  0  0
   17.4775  -24.1541  -13.9476 O   0  0  0  0  0  0  0  0  0  0  0  0
   20.4354  -21.2648  -12.7124 C   0  0  0  0  0  0  0  0  0  0  0  0
   20.3840  -20.2270  -11.9715 O   0  0  0  0  0  0  0  0  0  0  0  0
   16.0178  -22.8562  -12.7941 O   0  0  0  0  0  0  0  0  0  0  0  0
   25.9734  -25.0980  -16.4061 O   0  0  0  0  0  0  0  0  0  0  0  0
   25.4316  -24.1083  -15.5741 C   0  0  0  0  0  0  0  0  0  0  0  0
   24.5333  -24.4193  -14.5805 C   0  0  0  0  0  0  0  0  0  0  0  0
   24.0237  -23.4004  -13.7807 C   0  0  0  0  0  0  0  0  0  0  0  0
   24.3926  -22.0850  -13.9542 C   0  0  0  0  0  0  0  0  0  0  0  0
   23.8382  -21.0286  -13.1309 C   0  0  0  0  0  0  0  0  0  0  0  0
   22.6141  -20.3352  -13.6115 C   0  0  2  0  0  0  0  0  0  0  0  0
   21.5492  -21.3663  -13.5650 N   0  0  0  0  0  0  0  0  0  0  0  0
   22.6519  -19.8124  -14.9830 C   0  0  0  0  0  0  0  0  0  0  0  0
   22.1559  -20.5158  -15.9299 O   0  0  0  0  0  0  0  0  0  0  0  0
   25.2924  -21.7987  -14.9543 C   0  0  0  0  0  0  0  0  0  0  0  0
   25.8015  -22.8026  -15.7506 C   0  0  0  0  0  0  0  0  0  0  0  0
   22.9514  -17.1488  -19.3585 N   0  0  0  0  0  0  0  0  0  0  0  0
   22.7067  -16.2697  -18.2753 C   0  0  0  0  0  0  0  0  0  0  0  0
   22.4271  -15.0678  -18.5303 O   0  0  0  0  0  0  0  0  0  0  0  0
   22.7638  -16.6931  -16.8691 C   0  0  0  0  0  0  0  0  0  0  0  0
   23.1856  -18.1469  -16.7470 C   0  0  2  0  0  0  0  0  0  0  0  0
   23.1975  -18.5642  -15.3711 N   0  0  0  0  0  0  0  0  0  0  0  0
   24.4760  -18.2981  -17.4471 C   0  0  0  0  0  0  0  0  0  0  0  0
   25.4902  -18.5392  -16.7462 O   0  0  0  0  0  0  0  0  0  0  0  0
   24.6576  -18.1959  -18.8129 O   0  0  0  0  0  0  0  0  0  0  0  0
  2  1  1  1
  3  4  1  0
  3  2  1  0
  4  8  1  0
  5  4  2  0
  6  2  1  0
  7  6  2  0
  9 10  1  0
 10 20  2  0
 10 11  1  0
 11 12  2  0
 12 13  1  0
 13 14  1  0
 15 14  1  6
 15 16  1  0
 15 17  1  0
 16  6  1  0
 17 26  1  0
 18 17  2  0
 19 13  2  0
 20 19  1  0
 22 21  1  0
 22 24  1  0
 23 22  2  0
 25 24  1  1
 25 27  1  0
 26 25  1  0
 27 29  1  0
 28 27  2  0
M  END
$$$$
