DYN.pdb
     RDKit          3D

 29 29  0  0  1  0  0  0  0  0999 V2000
   18.0882  -12.7090  -15.8195 N   0  0  0  0  0  0  0  0  0  0  0  0
   19.1563  -12.1860  -16.6225 C   0  0  1  0  0  0  0  0  0  0  0  0
   18.8970  -12.2892  -18.1063 C   0  0  0  0  0  0  0  0  0  0  0  0
   18.8250  -13.7185  -18.4514 C   0  0  0  0  0  0  0  0  0  0  0  0
   17.7310  -14.2284  -18.7525 O   0  0  0  0  0  0  0  0  0  0  0  0
   19.4466  -10.7920  -16.1922 C   0  0  0  0  0  0  0  0  0  0  0  0
   18.5047  -10.0286  -15.7935 O   0  0  0  0  0  0  0  0  0  0  0  0
   19.9630  -14.4877  -18.4414 O   0  0  0  0  0  0  0  0  0  0  0  0
   25.0087   -3.7612  -15.1249 O   0  0  0  0  0  0  0  0  0  0  0  0
   24.3293   -4.9862  -15.1831 C   0  0  0  0  0  0  0  0  0  0  0  0
   23.0805   -5.1408  -14.6289 C   0  0  0  0  0  0  0  0  0  0  0  0
   22.4471   -6.3775  -14.7131 C   0  0  0  0  0  0  0  0  0  0  0  0
   23.0349   -7.4556  -15.3366 C   0  0  0  0  0  0  0  0  0  0  0  0
   22.3765   -8.7455  -15.3983 C   0  0  0  0  0  0  0  0  0  0  0  0
   20.9893   -8.7993  -15.9300 C   0  0  2  0  0  0  0  0  0  0  0  0
   20.7386  -10.2368  -16.1953 N   0  0  0  0  0  0  0  0  0  0  0  0
   20.7384   -8.0768  -17.1833 C   0  0  0  0  0  0  0  0  0  0  0  0
   21.1331   -8.5912  -18.2865 O   0  0  0  0  0  0  0  0  0  0  0  0
   24.2842   -7.2765  -15.8833 C   0  0  0  0  0  0  0  0  0  0  0  0
   24.9177   -6.0544  -15.8039 C   0  0  0  0  0  0  0  0  0  0  0  0
   19.7184   -5.4786  -21.2768 N   0  0  0  0  0  0  0  0  0  0  0  0
   18.7129   -6.3058  -20.7193 C   0  0  0  0  0  0  0  0  0  0  0  0
   17.7574   -6.6676  -21.4568 O   0  0  0  0  0  0  0  0  0  0  0  0
   18.7316   -6.7615  -19.3222 C   0  0  0  0  0  0  0  0  0  0  0  0
   19.9184   -6.1858  -18.5695 C   0  0  2  0  0  0  0  0  0  0  0  0
   20.0779   -6.8287  -17.2934 N   0  0  0  0  0  0  0  0  0  0  0  0
   19.7383   -4.7225  -18.5032 C   0  0  0  0  0  0  0  0  0  0  0  0
   19.1398   -4.2576  -17.5014 O   0  0  0  0  0  0  0  0  0  0  0  0
   20.1762   -3.8224  -19.4555 O   0  0  0  0  0  0  0  0  0  0  0  0
  2  1  1  1
  3  4  1  0
  3  2  1  0
  4  8  1  0
  5  4  2  0
  6  2  1  0
  7  6  2  0
  9 10  1  0
 10 20  2  0
 10 11  1  0
 11 12  2  0
 12 13  1  0
 13 14  1  0
 15 14  1  6
 15 16  1  0
 15 17  1  0
 16  6  1  0
 17 26  1  0
 18 17  2  0
 19 13  2  0
 20 19  1  0
 22 21  1  0
 22 24  1  0
 23 22  2  0
 25 24  1  1
 25 27  1  0
 26 25  1  0
 27 29  1  0
 28 27  2  0
M  END
$$$$
