DYN.pdb
     RDKit          3D

 29 29  0  0  1  0  0  0  0  0999 V2000
   28.0944  -21.4824  -16.5338 N   0  0  0  0  0  0  0  0  0  0  0  0
   27.0920  -20.5146  -16.1904 C   0  0  1  0  0  0  0  0  0  0  0  0
   26.1689  -20.1749  -17.3359 C   0  0  0  0  0  0  0  0  0  0  0  0
   26.9619  -19.4742  -18.3593 C   0  0  0  0  0  0  0  0  0  0  0  0
   26.8327  -19.7786  -19.5585 O   0  0  0  0  0  0  0  0  0  0  0  0
   26.3549  -20.9878  -14.9881 C   0  0  0  0  0  0  0  0  0  0  0  0
   25.9228  -22.1870  -14.9247 O   0  0  0  0  0  0  0  0  0  0  0  0
   27.8426  -18.4863  -17.9913 O   0  0  0  0  0  0  0  0  0  0  0  0
   31.2455  -21.9810  -10.2802 O   0  0  0  0  0  0  0  0  0  0  0  0
   29.9714  -21.5028  -10.6169 C   0  0  0  0  0  0  0  0  0  0  0  0
   29.7434  -20.8400  -11.7999 C   0  0  0  0  0  0  0  0  0  0  0  0
   28.4601  -20.3844  -12.0883 C   0  0  0  0  0  0  0  0  0  0  0  0
   27.4072  -20.5775  -11.2219 C   0  0  0  0  0  0  0  0  0  0  0  0
   26.0796  -20.0785  -11.5213 C   0  0  0  0  0  0  0  0  0  0  0  0
   25.3571  -20.6620  -12.6822 C   0  0  2  0  0  0  0  0  0  0  0  0
   26.0918  -20.1718  -13.8735 N   0  0  0  0  0  0  0  0  0  0  0  0
   23.9523  -20.2678  -12.8464 C   0  0  0  0  0  0  0  0  0  0  0  0
   23.6403  -19.4576  -13.7863 O   0  0  0  0  0  0  0  0  0  0  0  0
   27.6598  -21.2430  -10.0451 C   0  0  0  0  0  0  0  0  0  0  0  0
   28.9284  -21.6972   -9.7525 C   0  0  0  0  0  0  0  0  0  0  0  0
   19.1950  -21.7080  -13.8997 N   0  0  0  0  0  0  0  0  0  0  0  0
   20.3833  -22.3879  -14.2630 C   0  0  0  0  0  0  0  0  0  0  0  0
   20.3227  -23.2548  -15.1754 O   0  0  0  0  0  0  0  0  0  0  0  0
   21.6824  -22.1299  -13.6261 C   0  0  0  0  0  0  0  0  0  0  0  0
   21.5885  -20.9966  -12.6195 C   0  0  2  0  0  0  0  0  0  0  0  0
   22.8749  -20.7144  -12.0426 N   0  0  0  0  0  0  0  0  0  0  0  0
   20.5407  -21.3520  -11.6429 C   0  0  0  0  0  0  0  0  0  0  0  0
   19.3452  -21.2635  -12.0184 O   0  0  0  0  0  0  0  0  0  0  0  0
   20.7699  -21.7750  -10.3477 O   0  0  0  0  0  0  0  0  0  0  0  0
  2  1  1  6
  3  4  1  0
  3  2  1  0
  4  8  1  0
  5  4  2  0
  6  2  1  0
  7  6  2  0
  9 10  1  0
 10 20  2  0
 10 11  1  0
 11 12  2  0
 12 13  1  0
 13 14  1  0
 15 14  1  1
 15 16  1  0
 15 17  1  0
 16  6  1  0
 17 26  1  0
 18 17  2  0
 19 13  2  0
 20 19  1  0
 22 21  1  0
 22 24  1  0
 23 22  2  0
 25 24  1  6
 25 27  1  0
 26 25  1  0
 27 29  1  0
 28 27  2  0
M  END
$$$$
