DYN.pdb
     RDKit          3D

 29 29  0  0  1  0  0  0  0  0999 V2000
   27.7946  -14.9953  -19.1208 N   0  0  0  0  0  0  0  0  0  0  0  0
   26.4691  -14.7576  -18.6251 C   0  0  1  0  0  0  0  0  0  0  0  0
   25.9450  -15.8747  -17.7550 C   0  0  0  0  0  0  0  0  0  0  0  0
   25.9583  -17.1109  -18.5544 C   0  0  0  0  0  0  0  0  0  0  0  0
   26.9846  -17.8129  -18.5919 O   0  0  0  0  0  0  0  0  0  0  0  0
   26.4396  -13.4396  -17.9362 C   0  0  0  0  0  0  0  0  0  0  0  0
   25.3708  -13.0274  -17.3738 O   0  0  0  0  0  0  0  0  0  0  0  0
   24.8403  -17.4886  -19.2574 O   0  0  0  0  0  0  0  0  0  0  0  0
   33.9695  -11.0342  -17.6155 O   0  0  0  0  0  0  0  0  0  0  0  0
   32.6166  -11.0742  -17.2503 C   0  0  0  0  0  0  0  0  0  0  0  0
   31.9187   -9.9265  -16.9563 C   0  0  0  0  0  0  0  0  0  0  0  0
   30.5766  -10.0190  -16.5988 C   0  0  0  0  0  0  0  0  0  0  0  0
   29.9232  -11.2293  -16.5300 C   0  0  0  0  0  0  0  0  0  0  0  0
   28.5315  -11.3165  -16.1341 C   0  0  0  0  0  0  0  0  0  0  0  0
   27.4953  -11.2578  -17.1984 C   0  0  2  0  0  0  0  0  0  0  0  0
   27.5530  -12.5839  -17.8597 N   0  0  0  0  0  0  0  0  0  0  0  0
   27.6845  -10.2436  -18.2431 C   0  0  0  0  0  0  0  0  0  0  0  0
   28.4180  -10.5223  -19.2539 O   0  0  0  0  0  0  0  0  0  0  0  0
   30.6421  -12.3632  -16.8286 C   0  0  0  0  0  0  0  0  0  0  0  0
   31.9718  -12.2795  -17.1835 C   0  0  0  0  0  0  0  0  0  0  0  0
   28.0011   -6.2396  -21.3782 N   0  0  0  0  0  0  0  0  0  0  0  0
   29.0153   -7.0785  -20.8546 C   0  0  0  0  0  0  0  0  0  0  0  0
   30.1771   -6.9843  -21.3331 O   0  0  0  0  0  0  0  0  0  0  0  0
   28.7761   -8.0527  -19.7805 C   0  0  0  0  0  0  0  0  0  0  0  0
   27.3219   -8.0460  -19.3428 C   0  0  2  0  0  0  0  0  0  0  0  0
   27.1128   -8.9477  -18.2426 N   0  0  0  0  0  0  0  0  0  0  0  0
   26.4956   -8.3256  -20.5332 C   0  0  0  0  0  0  0  0  0  0  0  0
   26.5085   -7.4771  -21.4593 O   0  0  0  0  0  0  0  0  0  0  0  0
   25.7087   -9.4473  -20.7106 O   0  0  0  0  0  0  0  0  0  0  0  0
  2  1  1  1
  3  4  1  0
  3  2  1  0
  4  8  1  0
  5  4  2  0
  6  2  1  0
  7  6  2  0
  9 10  1  0
 10 20  2  0
 10 11  1  0
 11 12  2  0
 12 13  1  0
 13 14  1  0
 15 14  1  1
 15 16  1  0
 15 17  1  0
 16  6  1  0
 17 26  1  0
 18 17  2  0
 19 13  2  0
 20 19  1  0
 22 21  1  0
 22 24  1  0
 23 22  2  0
 25 24  1  6
 25 27  1  0
 26 25  1  0
 27 29  1  0
 28 27  2  0
M  END
$$$$
