DYN.pdb
     RDKit          3D

 29 29  0  0  1  0  0  0  0  0999 V2000
   24.9403  -19.7240  -19.5644 N   0  0  0  0  0  0  0  0  0  0  0  0
   24.8726  -18.4758  -18.8597 C   0  0  1  0  0  0  0  0  0  0  0  0
   25.5513  -17.3395  -19.5863 C   0  0  0  0  0  0  0  0  0  0  0  0
   26.9489  -17.7329  -19.8297 C   0  0  0  0  0  0  0  0  0  0  0  0
   27.6666  -18.0889  -18.8780 O   0  0  0  0  0  0  0  0  0  0  0  0
   23.4508  -18.1772  -18.5407 C   0  0  0  0  0  0  0  0  0  0  0  0
   22.5093  -18.7534  -19.1812 O   0  0  0  0  0  0  0  0  0  0  0  0
   27.4596  -17.7072  -21.1045 O   0  0  0  0  0  0  0  0  0  0  0  0
   21.0092  -22.7576  -14.5022 O   0  0  0  0  0  0  0  0  0  0  0  0
   21.0852  -21.3975  -14.8334 C   0  0  0  0  0  0  0  0  0  0  0  0
   19.9703  -20.6887  -15.2148 C   0  0  0  0  0  0  0  0  0  0  0  0
   20.0979  -19.3398  -15.5338 C   0  0  0  0  0  0  0  0  0  0  0  0
   21.3110  -18.6903  -15.4792 C   0  0  0  0  0  0  0  0  0  0  0  0
   21.4369  -17.2910  -15.8360 C   0  0  0  0  0  0  0  0  0  0  0  0
   21.6363  -16.9485  -17.2689 C   0  0  2  0  0  0  0  0  0  0  0  0
   23.0585  -17.2677  -17.5424 N   0  0  0  0  0  0  0  0  0  0  0  0
   21.4273  -15.5443  -17.6432 C   0  0  0  0  0  0  0  0  0  0  0  0
   20.2601  -15.0351  -17.5178 O   0  0  0  0  0  0  0  0  0  0  0  0
   22.4116  -19.4201  -15.0951 C   0  0  0  0  0  0  0  0  0  0  0  0
   22.2931  -20.7566  -14.7775 C   0  0  0  0  0  0  0  0  0  0  0  0
   21.6307  -10.6175  -19.0980 N   0  0  0  0  0  0  0  0  0  0  0  0
   22.1531  -10.9595  -17.8267 C   0  0  0  0  0  0  0  0  0  0  0  0
   22.3572  -10.0358  -16.9944 O   0  0  0  0  0  0  0  0  0  0  0  0
   22.4682  -12.3401  -17.4333 C   0  0  0  0  0  0  0  0  0  0  0  0
   22.1014  -13.3242  -18.5303 C   0  0  2  0  0  0  0  0  0  0  0  0
   22.4243  -14.6702  -18.1415 N   0  0  0  0  0  0  0  0  0  0  0  0
   22.7528  -12.8699  -19.7743 C   0  0  0  0  0  0  0  0  0  0  0  0
   23.5826  -13.6459  -20.3100 O   0  0  0  0  0  0  0  0  0  0  0  0
   22.5221  -11.6584  -20.3972 O   0  0  0  0  0  0  0  0  0  0  0  0
  2  1  1  6
  3  4  1  0
  3  2  1  0
  4  8  1  0
  5  4  2  0
  6  2  1  0
  7  6  2  0
  9 10  1  0
 10 20  2  0
 10 11  1  0
 11 12  2  0
 12 13  1  0
 13 14  1  0
 15 14  1  1
 15 16  1  0
 15 17  1  0
 16  6  1  0
 17 26  1  0
 18 17  2  0
 19 13  2  0
 20 19  1  0
 22 21  1  0
 22 24  1  0
 23 22  2  0
 25 24  1  1
 25 27  1  0
 26 25  1  0
 27 29  1  0
 28 27  2  0
M  END
$$$$
