DYN.pdb
     RDKit          3D

 29 29  0  0  1  0  0  0  0  0999 V2000
   28.2135  -22.6697  -16.9269 N   0  0  0  0  0  0  0  0  0  0  0  0
   27.3387  -21.5648  -16.6564 C   0  0  1  0  0  0  0  0  0  0  0  0
   26.3103  -21.3354  -17.7378 C   0  0  0  0  0  0  0  0  0  0  0  0
   27.0049  -20.7684  -18.9053 C   0  0  0  0  0  0  0  0  0  0  0  0
   28.0959  -20.1896  -18.7558 O   0  0  0  0  0  0  0  0  0  0  0  0
   26.7212  -21.7540  -15.3164 C   0  0  0  0  0  0  0  0  0  0  0  0
   26.2428  -22.8880  -14.9788 O   0  0  0  0  0  0  0  0  0  0  0  0
   26.4502  -20.8780  -20.1572 O   0  0  0  0  0  0  0  0  0  0  0  0
   27.4414  -21.0423   -6.7095 O   0  0  0  0  0  0  0  0  0  0  0  0
   27.2482  -20.7734   -8.0718 C   0  0  0  0  0  0  0  0  0  0  0  0
   28.1346  -21.2194   -9.0237 C   0  0  0  0  0  0  0  0  0  0  0  0
   27.8985  -20.9262  -10.3638 C   0  0  0  0  0  0  0  0  0  0  0  0
   26.8001  -20.2003  -10.7677 C   0  0  0  0  0  0  0  0  0  0  0  0
   26.5759  -19.8806  -12.1636 C   0  0  0  0  0  0  0  0  0  0  0  0
   25.9856  -20.9293  -13.0365 C   0  0  2  0  0  0  0  0  0  0  0  0
   26.6252  -20.7281  -14.3593 N   0  0  0  0  0  0  0  0  0  0  0  0
   24.5332  -20.8698  -13.2434 C   0  0  0  0  0  0  0  0  0  0  0  0
   24.0502  -19.9559  -13.9977 O   0  0  0  0  0  0  0  0  0  0  0  0
   25.9278  -19.7651   -9.7974 C   0  0  0  0  0  0  0  0  0  0  0  0
   26.1551  -20.0517   -8.4680 C   0  0  0  0  0  0  0  0  0  0  0  0
   19.4705  -21.4636  -13.6087 N   0  0  0  0  0  0  0  0  0  0  0  0
   20.0317  -22.7172  -13.2624 C   0  0  0  0  0  0  0  0  0  0  0  0
   19.2910  -23.7360  -13.2988 O   0  0  0  0  0  0  0  0  0  0  0  0
   21.4360  -22.8852  -12.8629 C   0  0  0  0  0  0  0  0  0  0  0  0
   22.1755  -21.5588  -12.8736 C   0  0  2  0  0  0  0  0  0  0  0  0
   23.5858  -21.7557  -12.6745 N   0  0  0  0  0  0  0  0  0  0  0  0
   21.5305  -20.6795  -11.8791 C   0  0  0  0  0  0  0  0  0  0  0  0
   22.0437  -20.6266  -10.7338 O   0  0  0  0  0  0  0  0  0  0  0  0
   20.4067  -19.9090  -12.1077 O   0  0  0  0  0  0  0  0  0  0  0  0
  2  1  1  6
  3  4  1  0
  3  2  1  0
  4  8  1  0
  5  4  2  0
  6  2  1  0
  7  6  2  0
  9 10  1  0
 10 20  2  0
 10 11  1  0
 11 12  2  0
 12 13  1  0
 13 14  1  0
 15 14  1  1
 15 16  1  0
 15 17  1  0
 16  6  1  0
 17 26  1  0
 18 17  2  0
 19 13  2  0
 20 19  1  0
 22 21  1  0
 22 24  1  0
 23 22  2  0
 25 24  1  1
 25 27  1  0
 26 25  1  0
 27 29  1  0
 28 27  2  0
M  END
$$$$
