DYN.pdb
     RDKit          3D

 29 29  0  0  1  0  0  0  0  0999 V2000
   20.1113   -8.8269  -16.5924 N   0  0  0  0  0  0  0  0  0  0  0  0
   18.9639   -8.1768  -16.0266 C   0  0  1  0  0  0  0  0  0  0  0  0
   18.2691   -9.0001  -14.9687 C   0  0  0  0  0  0  0  0  0  0  0  0
   17.6666  -10.1680  -15.6321 C   0  0  0  0  0  0  0  0  0  0  0  0
   17.9777  -10.4429  -16.8047 O   0  0  0  0  0  0  0  0  0  0  0  0
   19.3657   -6.8341  -15.5283 C   0  0  0  0  0  0  0  0  0  0  0  0
   18.5012   -6.0506  -15.0112 O   0  0  0  0  0  0  0  0  0  0  0  0
   16.7629  -10.9528  -14.9581 O   0  0  0  0  0  0  0  0  0  0  0  0
   20.0061   -7.5879   -9.1621 O   0  0  0  0  0  0  0  0  0  0  0  0
   20.5044   -7.0129  -10.3396 C   0  0  0  0  0  0  0  0  0  0  0  0
   20.1763   -5.7286  -10.7054 C   0  0  0  0  0  0  0  0  0  0  0  0
   20.6971   -5.2029  -11.8844 C   0  0  0  0  0  0  0  0  0  0  0  0
   21.5341   -5.9320  -12.6994 C   0  0  0  0  0  0  0  0  0  0  0  0
   22.0522   -5.3832  -13.9370 C   0  0  0  0  0  0  0  0  0  0  0  0
   21.0838   -5.0447  -15.0129 C   0  0  2  0  0  0  0  0  0  0  0  0
   20.6849   -6.3508  -15.5911 N   0  0  0  0  0  0  0  0  0  0  0  0
   21.5907   -4.2188  -16.1160 C   0  0  0  0  0  0  0  0  0  0  0  0
   22.4238   -4.7294  -16.9422 O   0  0  0  0  0  0  0  0  0  0  0  0
   21.8478   -7.2141  -12.3126 C   0  0  0  0  0  0  0  0  0  0  0  0
   21.3358   -7.7417  -11.1461 C   0  0  0  0  0  0  0  0  0  0  0  0
   20.5269   -1.7695  -20.9372 N   0  0  0  0  0  0  0  0  0  0  0  0
   21.4329   -2.4206  -20.0646 C   0  0  0  0  0  0  0  0  0  0  0  0
   22.6454   -2.4878  -20.4008 O   0  0  0  0  0  0  0  0  0  0  0  0
   21.0254   -3.0210  -18.7865 C   0  0  0  0  0  0  0  0  0  0  0  0
   21.5696   -2.2329  -17.6079 C   0  0  2  0  0  0  0  0  0  0  0  0
   21.2328   -2.8710  -16.3643 N   0  0  0  0  0  0  0  0  0  0  0  0
   21.0867   -0.8443  -17.7376 C   0  0  0  0  0  0  0  0  0  0  0  0
   19.9229   -0.5961  -17.3353 O   0  0  0  0  0  0  0  0  0  0  0  0
   21.8133    0.2052  -18.2663 O   0  0  0  0  0  0  0  0  0  0  0  0
  2  1  1  1
  3  4  1  0
  3  2  1  0
  4  8  1  0
  5  4  2  0
  6  2  1  0
  7  6  2  0
  9 10  1  0
 10 20  2  0
 10 11  1  0
 11 12  2  0
 12 13  1  0
 13 14  1  0
 15 14  1  1
 15 16  1  0
 15 17  1  0
 16  6  1  0
 17 26  1  0
 18 17  2  0
 19 13  2  0
 20 19  1  0
 22 21  1  0
 22 24  1  0
 23 22  2  0
 25 24  1  6
 25 27  1  0
 26 25  1  0
 27 29  1  0
 28 27  2  0
M  END
$$$$
