DYN.pdb
     RDKit          3D

 29 29  0  0  1  0  0  0  0  0999 V2000
   18.0594  -13.4001  -15.7875 N   0  0  0  0  0  0  0  0  0  0  0  0
   18.0663  -12.0146  -16.1614 C   0  0  1  0  0  0  0  0  0  0  0  0
   16.8227  -11.2722  -15.7351 C   0  0  0  0  0  0  0  0  0  0  0  0
   15.6717  -11.9047  -16.4003 C   0  0  0  0  0  0  0  0  0  0  0  0
   14.5563  -11.8956  -15.8494 O   0  0  0  0  0  0  0  0  0  0  0  0
   19.3101  -11.3813  -15.6472 C   0  0  0  0  0  0  0  0  0  0  0  0
   19.5065  -11.2673  -14.3913 O   0  0  0  0  0  0  0  0  0  0  0  0
   15.8285  -12.5037  -17.6265 O   0  0  0  0  0  0  0  0  0  0  0  0
   28.0076   -9.4665  -16.2898 O   0  0  0  0  0  0  0  0  0  0  0  0
   26.6754   -9.8873  -16.4064 C   0  0  0  0  0  0  0  0  0  0  0  0
   25.8896   -9.4961  -17.4648 C   0  0  0  0  0  0  0  0  0  0  0  0
   24.5725   -9.9410  -17.5354 C   0  0  0  0  0  0  0  0  0  0  0  0
   24.0296  -10.7641  -16.5741 C   0  0  0  0  0  0  0  0  0  0  0  0
   22.6499  -11.2028  -16.6449 C   0  0  0  0  0  0  0  0  0  0  0  0
   21.6178  -10.3826  -15.9576 C   0  0  2  0  0  0  0  0  0  0  0  0
   20.3235  -10.8802  -16.4835 N   0  0  0  0  0  0  0  0  0  0  0  0
   21.6585   -8.9357  -16.2039 C   0  0  0  0  0  0  0  0  0  0  0  0
   21.3268   -8.4923  -17.3574 O   0  0  0  0  0  0  0  0  0  0  0  0
   24.8350  -11.1419  -15.5252 C   0  0  0  0  0  0  0  0  0  0  0  0
   26.1406  -10.7053  -15.4485 C   0  0  0  0  0  0  0  0  0  0  0  0
   20.6675   -3.9348  -17.0753 N   0  0  0  0  0  0  0  0  0  0  0  0
   20.8966   -4.4341  -15.7698 C   0  0  0  0  0  0  0  0  0  0  0  0
   21.1964   -3.6161  -14.8594 O   0  0  0  0  0  0  0  0  0  0  0  0
   20.8014   -5.8601  -15.4276 C   0  0  0  0  0  0  0  0  0  0  0  0
   22.1311   -6.5660  -15.6280 C   0  0  2  0  0  0  0  0  0  0  0  0
   22.0373   -7.9521  -15.2576 N   0  0  0  0  0  0  0  0  0  0  0  0
   23.1581   -5.8011  -14.8944 C   0  0  0  0  0  0  0  0  0  0  0  0
   23.3797   -6.1257  -13.7014 O   0  0  0  0  0  0  0  0  0  0  0  0
   23.8962   -4.7560  -15.4159 O   0  0  0  0  0  0  0  0  0  0  0  0
  2  1  1  1
  3  4  1  0
  3  2  1  0
  4  8  1  0
  5  4  2  0
  6  2  1  0
  7  6  2  0
  9 10  1  0
 10 20  2  0
 10 11  1  0
 11 12  2  0
 12 13  1  0
 13 14  1  0
 15 14  1  6
 15 16  1  0
 15 17  1  0
 16  6  1  0
 17 26  1  0
 18 17  2  0
 19 13  2  0
 20 19  1  0
 22 21  1  0
 22 24  1  0
 23 22  2  0
 25 24  1  1
 25 27  1  0
 26 25  1  0
 27 29  1  0
 28 27  2  0
M  END
$$$$
