DYN.pdb
     RDKit          3D

 29 29  0  0  1  0  0  0  0  0999 V2000
   18.0671   -9.1095  -16.5926 N   0  0  0  0  0  0  0  0  0  0  0  0
   17.6633  -10.1702  -15.7144 C   0  0  1  0  0  0  0  0  0  0  0  0
   18.2124  -11.5194  -16.1117 C   0  0  0  0  0  0  0  0  0  0  0  0
   17.5282  -11.9371  -17.3464 C   0  0  0  0  0  0  0  0  0  0  0  0
   16.6984  -11.1799  -17.8809 O   0  0  0  0  0  0  0  0  0  0  0  0
   18.0169   -9.8021  -14.3173 C   0  0  0  0  0  0  0  0  0  0  0  0
   17.8213  -10.6256  -13.3621 O   0  0  0  0  0  0  0  0  0  0  0  0
   17.8052  -13.1599  -17.9075 O   0  0  0  0  0  0  0  0  0  0  0  0
   24.6484  -10.4839  -15.0259 O   0  0  0  0  0  0  0  0  0  0  0  0
   23.5782   -9.7483  -14.4977 C   0  0  0  0  0  0  0  0  0  0  0  0
   22.9918   -8.7259  -15.2059 C   0  0  0  0  0  0  0  0  0  0  0  0
   21.9317   -8.0252  -14.6376 C   0  0  0  0  0  0  0  0  0  0  0  0
   21.4500   -8.3252  -13.3829 C   0  0  0  0  0  0  0  0  0  0  0  0
   20.3608   -7.5740  -12.7909 C   0  0  0  0  0  0  0  0  0  0  0  0
   19.0591   -8.2647  -12.5941 C   0  0  2  0  0  0  0  0  0  0  0  0
   18.5737   -8.5600  -13.9639 N   0  0  0  0  0  0  0  0  0  0  0  0
   18.0057   -7.4986  -11.9164 C   0  0  0  0  0  0  0  0  0  0  0  0
   17.5255   -6.4606  -12.4904 O   0  0  0  0  0  0  0  0  0  0  0  0
   22.0526   -9.3519  -12.6940 C   0  0  0  0  0  0  0  0  0  0  0  0
   23.1031  -10.0505  -13.2504 C   0  0  0  0  0  0  0  0  0  0  0  0
   13.2858   -6.7896   -8.9599 N   0  0  0  0  0  0  0  0  0  0  0  0
   14.5831   -6.9565   -8.4164 C   0  0  0  0  0  0  0  0  0  0  0  0
   14.8635   -6.3619   -7.3414 O   0  0  0  0  0  0  0  0  0  0  0  0
   15.6166   -7.7895   -9.0471 C   0  0  0  0  0  0  0  0  0  0  0  0
   16.3969   -7.0069  -10.0887 C   0  0  2  0  0  0  0  0  0  0  0  0
   17.4493   -7.8089  -10.6514 N   0  0  0  0  0  0  0  0  0  0  0  0
   16.8498   -5.7519   -9.4580 C   0  0  0  0  0  0  0  0  0  0  0  0
   15.9737   -4.8978   -9.1735 O   0  0  0  0  0  0  0  0  0  0  0  0
   18.1615   -5.4413   -9.1549 O   0  0  0  0  0  0  0  0  0  0  0  0
  2  1  1  6
  3  4  1  0
  3  2  1  0
  4  8  1  0
  5  4  2  0
  6  2  1  0
  7  6  2  0
  9 10  1  0
 10 20  2  0
 10 11  1  0
 11 12  2  0
 12 13  1  0
 13 14  1  0
 15 14  1  6
 15 16  1  0
 15 17  1  0
 16  6  1  0
 17 26  1  0
 18 17  2  0
 19 13  2  0
 20 19  1  0
 22 21  1  0
 22 24  1  0
 23 22  2  0
 25 24  1  1
 25 27  1  0
 26 25  1  0
 27 29  1  0
 28 27  2  0
M  END
$$$$
