DDT.pdb
     RDKit          3D

 24 23  0  0  1  0  0  0  0  0999 V2000
   10.8476  -17.3388   20.4029 N   0  0  0  0  0  0  0  0  0  0  0  0
    9.5830  -16.7200   20.6452 C   0  0  1  0  0  0  0  0  0  0  0  0
    8.5383  -17.3373   19.7451 C   0  0  0  0  0  0  0  0  0  0  0  0
    9.1006  -17.3932   18.3819 C   0  0  0  0  0  0  0  0  0  0  0  0
   10.2977  -17.1130   18.1689 O   0  0  0  0  0  0  0  0  0  0  0  0
    9.2241  -16.7404   22.0660 C   0  0  0  0  0  0  0  0  0  0  0  0
    8.0698  -16.3639   22.3985 O   0  0  0  0  0  0  0  0  0  0  0  0
    8.2942  -17.7597   17.3270 O   0  0  0  0  0  0  0  0  0  0  0  0
   10.0867  -17.1561   23.1048 N   0  0  0  0  0  0  0  0  0  0  0  0
    9.7617  -17.1089   24.5028 C   0  0  1  0  0  0  0  0  0  0  0  0
   10.7305  -17.8457   25.3582 C   0  0  0  0  0  0  0  0  0  0  0  0
   11.2806  -19.0583   24.7495 C   0  0  0  0  0  0  0  0  0  0  0  0
   10.5858  -20.0420   24.3922 O   0  0  0  0  0  0  0  0  0  0  0  0
    9.5629  -15.7334   25.0029 C   0  0  0  0  0  0  0  0  0  0  0  0
   10.4710  -14.8925   24.7826 O   0  0  0  0  0  0  0  0  0  0  0  0
   12.6489  -19.1503   24.5447 O   0  0  0  0  0  0  0  0  0  0  0  0
    6.7212  -11.9305   25.8913 C   0  0  0  0  0  0  0  0  0  0  0  0
    6.8738  -13.4112   25.6391 C   0  0  1  0  0  0  0  0  0  0  0  0
    6.6610  -13.6123   24.2770 O   0  0  0  0  0  0  0  0  0  0  0  0
    8.2589  -13.8987   26.0193 C   0  0  2  0  0  0  0  0  0  0  0  0
    8.4162  -15.2991   25.7149 N   0  0  0  0  0  0  0  0  0  0  0  0
    8.5338  -13.6399   27.4659 C   0  0  0  0  0  0  0  0  0  0  0  0
    8.6981  -14.5849   28.2757 O   0  0  0  0  0  0  0  0  0  0  0  0
    8.6216  -12.3571   27.9879 O   0  0  0  0  0  0  0  0  0  0  0  0
  2  1  1  1
  2  3  1  0
  3  4  1  0
  4  5  2  0
  4  8  1  0
  6  2  1  0
  6  7  2  0
  9  6  1  0
 10  9  1  0
 10 11  1  1
 12 11  1  0
 12 16  1  0
 13 12  2  0
 14 10  1  0
 14 21  1  0
 15 14  2  0
 18 17  1  6
 18 19  1  0
 18 20  1  0
 20 21  1  1
 20 22  1  0
 22 23  2  0
 22 24  1  0
M  END
$$$$
