DDT.pdb
     RDKit          3D

 24 23  0  0  1  0  0  0  0  0999 V2000
   11.8766  -18.3065   16.7854 N   0  0  0  0  0  0  0  0  0  0  0  0
   10.4773  -18.4747   17.0190 C   0  0  1  0  0  0  0  0  0  0  0  0
   10.0258  -19.7984   16.4474 C   0  0  0  0  0  0  0  0  0  0  0  0
   10.4453  -19.8402   15.0333 C   0  0  0  0  0  0  0  0  0  0  0  0
    9.7437  -19.3241   14.1398 O   0  0  0  0  0  0  0  0  0  0  0  0
   10.1298  -18.2925   18.4311 C   0  0  0  0  0  0  0  0  0  0  0  0
    8.9140  -18.3118   18.7569 O   0  0  0  0  0  0  0  0  0  0  0  0
   11.6282  -20.4576   14.6917 O   0  0  0  0  0  0  0  0  0  0  0  0
   11.0683  -18.0942   19.4684 N   0  0  0  0  0  0  0  0  0  0  0  0
   10.7274  -17.8880   20.8481 C   0  0  1  0  0  0  0  0  0  0  0  0
   11.8026  -18.3027   21.7889 C   0  0  0  0  0  0  0  0  0  0  0  0
   12.1481  -19.7242   21.7303 C   0  0  0  0  0  0  0  0  0  0  0  0
   13.3236  -20.1581   21.6403 O   0  0  0  0  0  0  0  0  0  0  0  0
   10.2863  -16.5075   21.1335 C   0  0  0  0  0  0  0  0  0  0  0  0
   11.1214  -15.5811   20.9768 O   0  0  0  0  0  0  0  0  0  0  0  0
   11.1335  -20.6683   21.7752 O   0  0  0  0  0  0  0  0  0  0  0  0
    7.2557  -12.8467   21.0250 C   0  0  0  0  0  0  0  0  0  0  0  0
    7.5977  -14.3017   20.8117 C   0  0  1  0  0  0  0  0  0  0  0  0
    8.0761  -14.4166   19.5083 O   0  0  0  0  0  0  0  0  0  0  0  0
    8.6572  -14.7714   21.7902 C   0  0  2  0  0  0  0  0  0  0  0  0
    8.9840  -16.1586   21.5724 N   0  0  0  0  0  0  0  0  0  0  0  0
    8.2123  -14.5502   23.2004 C   0  0  0  0  0  0  0  0  0  0  0  0
    7.9463  -15.5157   23.9573 O   0  0  0  0  0  0  0  0  0  0  0  0
    8.0702  -13.2816   23.7446 O   0  0  0  0  0  0  0  0  0  0  0  0
  2  1  1  1
  2  3  1  0
  3  4  1  0
  4  5  2  0
  4  8  1  0
  6  2  1  0
  6  7  2  0
  9  6  1  0
 10  9  1  0
 10 11  1  1
 12 11  1  0
 12 16  1  0
 13 12  2  0
 14 10  1  0
 14 21  1  0
 15 14  2  0
 18 17  1  1
 18 19  1  0
 18 20  1  0
 20 21  1  1
 20 22  1  0
 22 23  2  0
 22 24  1  0
M  END
$$$$
