DDT.pdb
     RDKit          3D

 24 23  0  0  1  0  0  0  0  0999 V2000
   13.3387  -17.4962   18.7904 N   0  0  0  0  0  0  0  0  0  0  0  0
   12.2066  -18.3577   18.9215 C   0  0  1  0  0  0  0  0  0  0  0  0
   12.5198  -19.7003   18.3034 C   0  0  0  0  0  0  0  0  0  0  0  0
   13.2742  -19.4537   17.0594 C   0  0  0  0  0  0  0  0  0  0  0  0
   12.6880  -19.1327   16.0057 O   0  0  0  0  0  0  0  0  0  0  0  0
   11.7369  -18.4413   20.3073 C   0  0  0  0  0  0  0  0  0  0  0  0
   10.5142  -18.6576   20.5142 O   0  0  0  0  0  0  0  0  0  0  0  0
   14.6459  -19.5791   17.0584 O   0  0  0  0  0  0  0  0  0  0  0  0
   12.5633  -18.2958   21.4439 N   0  0  0  0  0  0  0  0  0  0  0  0
   12.0912  -18.2900   22.8001 C   0  0  1  0  0  0  0  0  0  0  0  0
   13.1320  -18.6821   23.7881 C   0  0  0  0  0  0  0  0  0  0  0  0
   12.6611  -18.7547   25.1724 C   0  0  0  0  0  0  0  0  0  0  0  0
   13.4015  -18.5988   26.1751 O   0  0  0  0  0  0  0  0  0  0  0  0
   11.4590  -17.0119   23.1857 C   0  0  0  0  0  0  0  0  0  0  0  0
   12.1879  -15.9888   23.2350 O   0  0  0  0  0  0  0  0  0  0  0  0
   11.3202  -19.0096   25.4172 O   0  0  0  0  0  0  0  0  0  0  0  0
    7.8817  -13.7991   23.3937 C   0  0  0  0  0  0  0  0  0  0  0  0
    8.4306  -15.1464   22.9900 C   0  0  1  0  0  0  0  0  0  0  0  0
    8.8750  -15.0234   21.6753 O   0  0  0  0  0  0  0  0  0  0  0  0
    9.5821  -15.5664   23.8835 C   0  0  2  0  0  0  0  0  0  0  0  0
   10.0854  -16.8629   23.5038 N   0  0  0  0  0  0  0  0  0  0  0  0
    9.1677  -15.5621   25.3200 C   0  0  0  0  0  0  0  0  0  0  0  0
    9.1222  -16.6248   25.9867 O   0  0  0  0  0  0  0  0  0  0  0  0
    8.8147  -14.3983   25.9884 O   0  0  0  0  0  0  0  0  0  0  0  0
  2  1  1  1
  2  3  1  0
  3  4  1  0
  4  5  2  0
  4  8  1  0
  6  2  1  0
  6  7  2  0
  9  6  1  0
 10  9  1  0
 10 11  1  1
 12 11  1  0
 12 16  1  0
 13 12  2  0
 14 10  1  0
 14 21  1  0
 15 14  2  0
 18 17  1  1
 18 19  1  0
 18 20  1  0
 20 21  1  6
 20 22  1  0
 22 23  2  0
 22 24  1  0
M  END
$$$$
