DDT.pdb
     RDKit          3D

 24 23  0  0  1  0  0  0  0  0999 V2000
   10.5742  -19.4322   18.0767 N   0  0  0  0  0  0  0  0  0  0  0  0
   10.0210  -18.3504   18.8281 C   0  0  1  0  0  0  0  0  0  0  0  0
    8.5134  -18.4484   18.8187 C   0  0  0  0  0  0  0  0  0  0  0  0
    8.0591  -18.2083   17.4354 C   0  0  0  0  0  0  0  0  0  0  0  0
    8.8779  -18.1036   16.4996 O   0  0  0  0  0  0  0  0  0  0  0  0
   10.5982  -18.2628   20.1724 C   0  0  0  0  0  0  0  0  0  0  0  0
    9.9982  -18.8326   21.1210 O   0  0  0  0  0  0  0  0  0  0  0  0
    6.7120  -18.0976   17.1703 O   0  0  0  0  0  0  0  0  0  0  0  0
   11.7929  -17.5783   20.4887 N   0  0  0  0  0  0  0  0  0  0  0  0
   12.3210  -17.4301   21.8159 C   0  0  1  0  0  0  0  0  0  0  0  0
   13.7835  -17.1587   21.8411 C   0  0  0  0  0  0  0  0  0  0  0  0
   14.5889  -18.0873   21.0460 C   0  0  0  0  0  0  0  0  0  0  0  0
   14.5511  -19.3365   21.1736 O   0  0  0  0  0  0  0  0  0  0  0  0
   11.5894  -16.4301   22.6199 C   0  0  0  0  0  0  0  0  0  0  0  0
   12.0165  -15.2478   22.6150 O   0  0  0  0  0  0  0  0  0  0  0  0
   15.4535  -17.5814   20.0873 O   0  0  0  0  0  0  0  0  0  0  0  0
    8.5092  -14.6088   22.3659 C   0  0  0  0  0  0  0  0  0  0  0  0
    8.4547  -15.3268   23.6928 C   0  0  1  0  0  0  0  0  0  0  0  0
    7.7239  -16.4953   23.4893 O   0  0  0  0  0  0  0  0  0  0  0  0
    9.8442  -15.6716   24.1942 C   0  0  2  0  0  0  0  0  0  0  0  0
   10.4379  -16.7154   23.3964 N   0  0  0  0  0  0  0  0  0  0  0  0
    9.8050  -16.0678   25.6353 C   0  0  0  0  0  0  0  0  0  0  0  0
   10.2261  -17.1884   26.0132 O   0  0  0  0  0  0  0  0  0  0  0  0
    9.3073  -15.2300   26.6232 O   0  0  0  0  0  0  0  0  0  0  0  0
  2  1  1  1
  2  3  1  0
  3  4  1  0
  4  5  2  0
  4  8  1  0
  6  2  1  0
  6  7  2  0
  9  6  1  0
 10  9  1  0
 10 11  1  6
 12 11  1  0
 12 16  1  0
 13 12  2  0
 14 10  1  0
 14 21  1  0
 15 14  2  0
 18 17  1  6
 18 19  1  0
 18 20  1  0
 20 21  1  6
 20 22  1  0
 22 23  2  0
 22 24  1  0
M  END
$$$$
