DDT.pdb
     RDKit          3D

 24 23  0  0  1  0  0  0  0  0999 V2000
    8.8348  -17.0555   18.4787 N   0  0  0  0  0  0  0  0  0  0  0  0
    8.3812  -16.6688   19.7770 C   0  0  1  0  0  0  0  0  0  0  0  0
    6.9762  -17.1802   19.9937 C   0  0  0  0  0  0  0  0  0  0  0  0
    6.9110  -18.5502   19.4492 C   0  0  0  0  0  0  0  0  0  0  0  0
    7.9087  -19.0778   18.9170 O   0  0  0  0  0  0  0  0  0  0  0  0
    9.3220  -17.0648   20.8287 C   0  0  0  0  0  0  0  0  0  0  0  0
    9.0460  -18.0714   21.5324 O   0  0  0  0  0  0  0  0  0  0  0  0
    5.7328  -19.2592   19.5282 O   0  0  0  0  0  0  0  0  0  0  0  0
   10.5314  -16.3936   21.1166 N   0  0  0  0  0  0  0  0  0  0  0  0
   11.3745  -16.6795   22.2434 C   0  0  1  0  0  0  0  0  0  0  0  0
   12.7370  -16.0942   22.1233 C   0  0  0  0  0  0  0  0  0  0  0  0
   13.6561  -16.4652   23.2008 C   0  0  0  0  0  0  0  0  0  0  0  0
   13.7485  -17.6239   23.6772 O   0  0  0  0  0  0  0  0  0  0  0  0
   10.7582  -16.3098   23.5338 C   0  0  0  0  0  0  0  0  0  0  0  0
   10.5546  -15.0897   23.7581 O   0  0  0  0  0  0  0  0  0  0  0  0
   14.4854  -15.4962   23.7447 O   0  0  0  0  0  0  0  0  0  0  0  0
    8.0146  -15.4092   24.5765 C   0  0  0  0  0  0  0  0  0  0  0  0
    8.2744  -16.5383   25.5445 C   0  0  1  0  0  0  0  0  0  0  0  0
    7.6947  -17.6806   24.9968 O   0  0  0  0  0  0  0  0  0  0  0  0
    9.7606  -16.7641   25.7470 C   0  0  2  0  0  0  0  0  0  0  0  0
   10.3815  -17.2396   24.5358 N   0  0  0  0  0  0  0  0  0  0  0  0
   10.0038  -17.7173   26.8729 C   0  0  0  0  0  0  0  0  0  0  0  0
   10.5136  -18.8464   26.6702 O   0  0  0  0  0  0  0  0  0  0  0  0
    9.6838  -17.4113   28.1880 O   0  0  0  0  0  0  0  0  0  0  0  0
  2  1  1  6
  2  3  1  0
  3  4  1  0
  4  5  2  0
  4  8  1  0
  6  2  1  0
  6  7  2  0
  9  6  1  0
 10  9  1  0
 10 11  1  6
 12 11  1  0
 12 16  1  0
 13 12  2  0
 14 10  1  0
 14 21  1  0
 15 14  2  0
 18 17  1  6
 18 19  1  0
 18 20  1  0
 20 21  1  6
 20 22  1  0
 22 23  2  0
 22 24  1  0
M  END
$$$$
