DDT.pdb
     RDKit          3D

 24 23  0  0  1  0  0  0  0  0999 V2000
   14.7359  -16.9577   17.3108 N   0  0  0  0  0  0  0  0  0  0  0  0
   13.6473  -17.8828   17.2997 C   0  0  1  0  0  0  0  0  0  0  0  0
   14.0077  -19.0761   16.4460 C   0  0  0  0  0  0  0  0  0  0  0  0
   14.2639  -18.5851   15.0782 C   0  0  0  0  0  0  0  0  0  0  0  0
   15.3564  -18.0626   14.7775 O   0  0  0  0  0  0  0  0  0  0  0  0
   13.2122  -18.2361   18.6539 C   0  0  0  0  0  0  0  0  0  0  0  0
   12.0098  -18.5638   18.8312 O   0  0  0  0  0  0  0  0  0  0  0  0
   13.2843  -18.7041   14.1172 O   0  0  0  0  0  0  0  0  0  0  0  0
   14.0510  -18.2367   19.7908 N   0  0  0  0  0  0  0  0  0  0  0  0
   13.6264  -18.5867   21.1172 C   0  0  1  0  0  0  0  0  0  0  0  0
   14.7087  -19.1866   21.9432 C   0  0  0  0  0  0  0  0  0  0  0  0
   15.4048  -20.3094   21.3122 C   0  0  0  0  0  0  0  0  0  0  0  0
   14.8404  -21.3719   20.9508 O   0  0  0  0  0  0  0  0  0  0  0  0
   12.9833  -17.4655   21.8320 C   0  0  0  0  0  0  0  0  0  0  0  0
   13.6059  -16.3751   21.8932 O   0  0  0  0  0  0  0  0  0  0  0  0
   16.7703  -20.2182   21.0893 O   0  0  0  0  0  0  0  0  0  0  0  0
    8.8257  -17.0586   22.4650 C   0  0  0  0  0  0  0  0  0  0  0  0
    9.8548  -15.9571   22.3824 C   0  0  1  0  0  0  0  0  0  0  0  0
    9.3097  -14.8470   23.0239 O   0  0  0  0  0  0  0  0  0  0  0  0
   11.1507  -16.3569   23.0618 C   0  0  2  0  0  0  0  0  0  0  0  0
   11.7109  -17.5378   22.4535 N   0  0  0  0  0  0  0  0  0  0  0  0
   10.9384  -16.5690   24.5264 C   0  0  0  0  0  0  0  0  0  0  0  0
   11.0405  -17.7100   25.0397 O   0  0  0  0  0  0  0  0  0  0  0  0
   10.6206  -15.5299   25.3896 O   0  0  0  0  0  0  0  0  0  0  0  0
  2  1  1  1
  2  3  1  0
  3  4  1  0
  4  5  2  0
  4  8  1  0
  6  2  1  0
  6  7  2  0
  9  6  1  0
 10  9  1  0
 10 11  1  1
 12 11  1  0
 12 16  1  0
 13 12  2  0
 14 10  1  0
 14 21  1  0
 15 14  2  0
 18 17  1  1
 18 19  1  0
 18 20  1  0
 20 21  1  6
 20 22  1  0
 22 23  2  0
 22 24  1  0
M  END
$$$$
