DDT.pdb
     RDKit          3D

 24 23  0  0  1  0  0  0  0  0999 V2000
    8.3825  -15.5524   19.1354 N   0  0  0  0  0  0  0  0  0  0  0  0
    7.3188  -15.9469   20.0037 C   0  0  1  0  0  0  0  0  0  0  0  0
    6.6052  -17.1423   19.4168 C   0  0  0  0  0  0  0  0  0  0  0  0
    7.6021  -17.9358   18.6723 C   0  0  0  0  0  0  0  0  0  0  0  0
    8.5436  -18.5021   19.2637 O   0  0  0  0  0  0  0  0  0  0  0  0
    7.7796  -16.1519   21.3798 C   0  0  0  0  0  0  0  0  0  0  0  0
    6.9241  -16.4086   22.2668 O   0  0  0  0  0  0  0  0  0  0  0  0
    7.4940  -18.0547   17.3043 O   0  0  0  0  0  0  0  0  0  0  0  0
    9.1292  -16.0825   21.7919 N   0  0  0  0  0  0  0  0  0  0  0  0
    9.5724  -16.1873   23.1538 C   0  0  1  0  0  0  0  0  0  0  0  0
   11.0197  -16.5081   23.2793 C   0  0  0  0  0  0  0  0  0  0  0  0
   11.4198  -17.7705   22.6552 C   0  0  0  0  0  0  0  0  0  0  0  0
   10.9014  -18.8825   22.9248 O   0  0  0  0  0  0  0  0  0  0  0  0
    9.2267  -15.0029   23.9660 C   0  0  0  0  0  0  0  0  0  0  0  0
    8.9940  -13.9254   23.3618 O   0  0  0  0  0  0  0  0  0  0  0  0
   12.4303  -17.7640   21.7056 O   0  0  0  0  0  0  0  0  0  0  0  0
    6.8210  -12.1601   26.2777 C   0  0  0  0  0  0  0  0  0  0  0  0
    7.3261  -13.3789   25.5438 C   0  0  1  0  0  0  0  0  0  0  0  0
    7.4261  -13.0275   24.1994 O   0  0  0  0  0  0  0  0  0  0  0  0
    8.6831  -13.8155   26.0621 C   0  0  2  0  0  0  0  0  0  0  0  0
    9.1402  -15.0012   25.3812 N   0  0  0  0  0  0  0  0  0  0  0  0
    8.6395  -14.0403   27.5396 C   0  0  0  0  0  0  0  0  0  0  0  0
    8.8276  -15.1806   28.0295 O   0  0  0  0  0  0  0  0  0  0  0  0
    8.3917  -13.0143   28.4405 O   0  0  0  0  0  0  0  0  0  0  0  0
  2  1  1  6
  2  3  1  0
  3  4  1  0
  4  5  2  0
  4  8  1  0
  6  2  1  0
  6  7  2  0
  9  6  1  0
 10  9  1  0
 10 11  1  6
 12 11  1  0
 12 16  1  0
 13 12  2  0
 14 10  1  0
 14 21  1  0
 15 14  2  0
 18 17  1  1
 18 19  1  0
 18 20  1  0
 20 21  1  6
 20 22  1  0
 22 23  2  0
 22 24  1  0
M  END
$$$$
