DDT.pdb
     RDKit          3D

 24 23  0  0  1  0  0  0  0  0999 V2000
    9.7539  -17.5715   15.5338 N   0  0  0  0  0  0  0  0  0  0  0  0
    8.4746  -17.7513   16.1438 C   0  0  1  0  0  0  0  0  0  0  0  0
    7.7082  -18.8218   15.4028 C   0  0  0  0  0  0  0  0  0  0  0  0
    7.6191  -18.4091   13.9888 C   0  0  0  0  0  0  0  0  0  0  0  0
    8.6128  -18.4746   13.2369 O   0  0  0  0  0  0  0  0  0  0  0  0
    8.5820  -17.9933   17.5853 C   0  0  0  0  0  0  0  0  0  0  0  0
    7.5222  -18.1114   18.2542 O   0  0  0  0  0  0  0  0  0  0  0  0
    6.4228  -17.9443   13.4890 O   0  0  0  0  0  0  0  0  0  0  0  0
    9.8010  -18.1058   18.2906 N   0  0  0  0  0  0  0  0  0  0  0  0
    9.9072  -18.3157   19.7072 C   0  0  1  0  0  0  0  0  0  0  0  0
   11.0671  -19.1641   20.0919 C   0  0  0  0  0  0  0  0  0  0  0  0
   11.1897  -19.4124   21.5295 C   0  0  0  0  0  0  0  0  0  0  0  0
   11.7420  -18.6216   22.3342 O   0  0  0  0  0  0  0  0  0  0  0  0
    9.9012  -17.0565   20.4793 C   0  0  0  0  0  0  0  0  0  0  0  0
   10.8056  -16.2171   20.2388 O   0  0  0  0  0  0  0  0  0  0  0  0
   10.6723  -20.5849   22.0588 O   0  0  0  0  0  0  0  0  0  0  0  0
    7.3811  -14.2861   20.6508 C   0  0  0  0  0  0  0  0  0  0  0  0
    7.6892  -14.7249   22.0621 C   0  0  1  0  0  0  0  0  0  0  0  0
    6.6592  -15.5775   22.4533 O   0  0  0  0  0  0  0  0  0  0  0  0
    9.0164  -15.4552   22.1384 C   0  0  2  0  0  0  0  0  0  0  0  0
    8.9434  -16.7322   21.4732 N   0  0  0  0  0  0  0  0  0  0  0  0
    9.4471  -15.6257   23.5600 C   0  0  0  0  0  0  0  0  0  0  0  0
    9.6096  -16.7667   24.0577 O   0  0  0  0  0  0  0  0  0  0  0  0
    9.6882  -14.5464   24.3981 O   0  0  0  0  0  0  0  0  0  0  0  0
  2  1  1  6
  2  3  1  0
  3  4  1  0
  4  5  2  0
  4  8  1  0
  6  2  1  0
  6  7  2  0
  9  6  1  0
 10  9  1  0
 10 11  1  6
 12 11  1  0
 12 16  1  0
 13 12  2  0
 14 10  1  0
 14 21  1  0
 15 14  2  0
 18 17  1  6
 18 19  1  0
 18 20  1  0
 20 21  1  1
 20 22  1  0
 22 23  2  0
 22 24  1  0
M  END
$$$$
