DDT.pdb
     RDKit          3D

 24 23  0  0  1  0  0  0  0  0999 V2000
   14.0009  -14.0347   18.8718 N   0  0  0  0  0  0  0  0  0  0  0  0
   12.6559  -14.4758   18.6783 C   0  0  1  0  0  0  0  0  0  0  0  0
   12.4486  -14.8414   17.2271 C   0  0  0  0  0  0  0  0  0  0  0  0
   13.3683  -15.9511   16.9107 C   0  0  0  0  0  0  0  0  0  0  0  0
   14.5481  -15.9432   17.3171 O   0  0  0  0  0  0  0  0  0  0  0  0
   12.2869  -15.5419   19.6139 C   0  0  0  0  0  0  0  0  0  0  0  0
   11.0970  -15.9527   19.6161 O   0  0  0  0  0  0  0  0  0  0  0  0
   12.9207  -17.0126   16.1557 O   0  0  0  0  0  0  0  0  0  0  0  0
   13.1772  -16.1518   20.5257 N   0  0  0  0  0  0  0  0  0  0  0  0
   12.8086  -17.1721   21.4666 C   0  0  1  0  0  0  0  0  0  0  0  0
   13.9142  -18.1198   21.7713 C   0  0  0  0  0  0  0  0  0  0  0  0
   13.5761  -19.1558   22.7489 C   0  0  0  0  0  0  0  0  0  0  0  0
   12.4621  -19.7340   22.8026 O   0  0  0  0  0  0  0  0  0  0  0  0
   12.2288  -16.6273   22.7111 C   0  0  0  0  0  0  0  0  0  0  0  0
   12.8912  -15.7607   23.3361 O   0  0  0  0  0  0  0  0  0  0  0  0
   14.5267  -19.5395   23.6826 O   0  0  0  0  0  0  0  0  0  0  0  0
    8.4555  -14.9248   25.1257 C   0  0  0  0  0  0  0  0  0  0  0  0
    9.0537  -15.7062   23.9807 C   0  0  1  0  0  0  0  0  0  0  0  0
    9.1848  -14.8207   22.9131 O   0  0  0  0  0  0  0  0  0  0  0  0
   10.4121  -16.2734   24.3463 C   0  0  2  0  0  0  0  0  0  0  0  0
   10.9753  -17.0170   23.2470 N   0  0  0  0  0  0  0  0  0  0  0  0
   10.3180  -17.1298   25.5682 C   0  0  0  0  0  0  0  0  0  0  0  0
   10.3745  -18.3815   25.4909 O   0  0  0  0  0  0  0  0  0  0  0  0
   10.1649  -16.5960   26.8400 O   0  0  0  0  0  0  0  0  0  0  0  0
  2  1  1  6
  2  3  1  0
  3  4  1  0
  4  5  2  0
  4  8  1  0
  6  2  1  0
  6  7  2  0
  9  6  1  0
 10  9  1  0
 10 11  1  1
 12 11  1  0
 12 16  1  0
 13 12  2  0
 14 10  1  0
 14 21  1  0
 15 14  2  0
 18 17  1  1
 18 19  1  0
 18 20  1  0
 20 21  1  6
 20 22  1  0
 22 23  2  0
 22 24  1  0
M  END
$$$$
