DDT.pdb
     RDKit          3D

 24 23  0  0  1  0  0  0  0  0999 V2000
   13.3973  -15.8008   16.7163 N   0  0  0  0  0  0  0  0  0  0  0  0
   13.7402  -15.7882   18.1031 C   0  0  1  0  0  0  0  0  0  0  0  0
   14.3137  -14.4391   18.4689 C   0  0  0  0  0  0  0  0  0  0  0  0
   15.7678  -14.4908   18.2230 C   0  0  0  0  0  0  0  0  0  0  0  0
   16.2515  -14.0881   17.1455 O   0  0  0  0  0  0  0  0  0  0  0  0
   12.6184  -16.2019   18.9506 C   0  0  0  0  0  0  0  0  0  0  0  0
   11.4604  -16.1981   18.4570 O   0  0  0  0  0  0  0  0  0  0  0  0
   16.6057  -14.9904   19.1953 O   0  0  0  0  0  0  0  0  0  0  0  0
   12.7395  -16.6102   20.2977 N   0  0  0  0  0  0  0  0  0  0  0  0
   11.6726  -17.1699   21.0793 C   0  0  1  0  0  0  0  0  0  0  0  0
   12.1321  -18.1938   22.0558 C   0  0  0  0  0  0  0  0  0  0  0  0
   11.0640  -18.7925   22.8583 C   0  0  0  0  0  0  0  0  0  0  0  0
    9.9355  -19.1057   22.4038 O   0  0  0  0  0  0  0  0  0  0  0  0
   10.8467  -16.1435   21.7472 C   0  0  0  0  0  0  0  0  0  0  0  0
   11.4399  -15.2418   22.3916 O   0  0  0  0  0  0  0  0  0  0  0  0
   11.2875  -19.0384   24.2045 O   0  0  0  0  0  0  0  0  0  0  0  0
    6.9684  -13.2542   21.9201 C   0  0  0  0  0  0  0  0  0  0  0  0
    7.6457  -14.4822   21.3607 C   0  0  1  0  0  0  0  0  0  0  0  0
    8.2045  -14.1133   20.1390 O   0  0  0  0  0  0  0  0  0  0  0  0
    8.7327  -14.9877   22.2900 C   0  0  2  0  0  0  0  0  0  0  0  0
    9.4297  -16.1084   21.7096 N   0  0  0  0  0  0  0  0  0  0  0  0
    8.1629  -15.3546   23.6227 C   0  0  0  0  0  0  0  0  0  0  0  0
    7.5999  -14.4979   24.3473 O   0  0  0  0  0  0  0  0  0  0  0  0
    8.2236  -16.6461   24.1270 O   0  0  0  0  0  0  0  0  0  0  0  0
  2  1  1  6
  2  3  1  0
  3  4  1  0
  4  5  2  0
  4  8  1  0
  6  2  1  0
  6  7  2  0
  9  6  1  0
 10  9  1  0
 10 11  1  1
 12 11  1  0
 12 16  1  0
 13 12  2  0
 14 10  1  0
 14 21  1  0
 15 14  2  0
 18 17  1  1
 18 19  1  0
 18 20  1  0
 20 21  1  6
 20 22  1  0
 22 23  2  0
 22 24  1  0
M  END
$$$$
