DDT.pdb
     RDKit          3D

 24 23  0  0  1  0  0  0  0  0999 V2000
   12.8497  -18.5477   18.5752 N   0  0  0  0  0  0  0  0  0  0  0  0
   11.4718  -18.1711   18.5489 C   0  0  1  0  0  0  0  0  0  0  0  0
   10.7158  -19.0880   17.6160 C   0  0  0  0  0  0  0  0  0  0  0  0
   11.3284  -18.9680   16.2789 C   0  0  0  0  0  0  0  0  0  0  0  0
   12.3722  -18.3061   16.1078 O   0  0  0  0  0  0  0  0  0  0  0  0
   10.8970  -18.0944   19.8949 C   0  0  0  0  0  0  0  0  0  0  0  0
    9.6760  -17.8107   20.0104 O   0  0  0  0  0  0  0  0  0  0  0  0
   10.7414  -19.5949   15.2020 O   0  0  0  0  0  0  0  0  0  0  0  0
   11.6188  -18.3178   21.0887 N   0  0  0  0  0  0  0  0  0  0  0  0
   11.0469  -18.2859   22.4056 C   0  0  1  0  0  0  0  0  0  0  0  0
   11.9283  -18.8820   23.4453 C   0  0  0  0  0  0  0  0  0  0  0  0
   12.2674  -20.2887   23.2224 C   0  0  0  0  0  0  0  0  0  0  0  0
   11.5852  -21.0722   22.5162 O   0  0  0  0  0  0  0  0  0  0  0  0
   10.6010  -16.9366   22.8086 C   0  0  0  0  0  0  0  0  0  0  0  0
   11.4190  -15.9893   22.6905 O   0  0  0  0  0  0  0  0  0  0  0  0
   13.4063  -20.8111   23.8163 O   0  0  0  0  0  0  0  0  0  0  0  0
    7.4696  -13.3640   22.9597 C   0  0  0  0  0  0  0  0  0  0  0  0
    7.8773  -14.7844   22.6503 C   0  0  1  0  0  0  0  0  0  0  0  0
    8.3591  -14.7900   21.3431 O   0  0  0  0  0  0  0  0  0  0  0  0
    8.9580  -15.2699   23.5974 C   0  0  2  0  0  0  0  0  0  0  0  0
    9.3123  -16.6395   23.3197 N   0  0  0  0  0  0  0  0  0  0  0  0
    8.5250  -15.1158   25.0201 C   0  0  0  0  0  0  0  0  0  0  0  0
    8.1413  -16.1033   25.6935 O   0  0  0  0  0  0  0  0  0  0  0  0
    8.5230  -13.8884   25.6676 O   0  0  0  0  0  0  0  0  0  0  0  0
  2  1  1  1
  2  3  1  0
  3  4  1  0
  4  5  2  0
  4  8  1  0
  6  2  1  0
  6  7  2  0
  9  6  1  0
 10  9  1  0
 10 11  1  1
 12 11  1  0
 12 16  1  0
 13 12  2  0
 14 10  1  0
 14 21  1  0
 15 14  2  0
 18 17  1  1
 18 19  1  0
 18 20  1  0
 20 21  1  6
 20 22  1  0
 22 23  2  0
 22 24  1  0
M  END
$$$$
