DDT.pdb
     RDKit          3D

 24 23  0  0  1  0  0  0  0  0999 V2000
   11.5072  -17.1871   20.6152 N   0  0  0  0  0  0  0  0  0  0  0  0
   10.1612  -16.9020   21.0001 C   0  0  1  0  0  0  0  0  0  0  0  0
    9.2085  -17.6298   20.0807 C   0  0  0  0  0  0  0  0  0  0  0  0
    9.5456  -17.2479   18.6957 C   0  0  0  0  0  0  0  0  0  0  0  0
   10.7083  -17.3720   18.2603 O   0  0  0  0  0  0  0  0  0  0  0  0
    9.9279  -17.1685   22.4223 C   0  0  0  0  0  0  0  0  0  0  0  0
    8.7743  -16.9746   22.8874 O   0  0  0  0  0  0  0  0  0  0  0  0
    8.5643  -16.7467   17.8693 O   0  0  0  0  0  0  0  0  0  0  0  0
   10.9124  -17.6327   23.3229 N   0  0  0  0  0  0  0  0  0  0  0  0
   10.6840  -17.8966   24.7159 C   0  0  1  0  0  0  0  0  0  0  0  0
   11.4633  -19.0541   25.2318 C   0  0  0  0  0  0  0  0  0  0  0  0
   12.8594  -19.0924   24.7928 C   0  0  0  0  0  0  0  0  0  0  0  0
   13.2165  -19.1159   23.5886 O   0  0  0  0  0  0  0  0  0  0  0  0
   10.8860  -16.7079   25.5691 C   0  0  0  0  0  0  0  0  0  0  0  0
   11.8222  -15.9240   25.2702 O   0  0  0  0  0  0  0  0  0  0  0  0
   13.8670  -19.1040   25.7454 O   0  0  0  0  0  0  0  0  0  0  0  0
    9.2966  -12.9548   28.0436 C   0  0  0  0  0  0  0  0  0  0  0  0
    9.0826  -14.2600   27.3155 C   0  0  1  0  0  0  0  0  0  0  0  0
    8.8164  -13.9410   25.9857 O   0  0  0  0  0  0  0  0  0  0  0  0
   10.3106  -15.1467   27.3943 C   0  0  2  0  0  0  0  0  0  0  0  0
   10.0943  -16.3929   26.7024 N   0  0  0  0  0  0  0  0  0  0  0  0
   10.6957  -15.3944   28.8176 C   0  0  0  0  0  0  0  0  0  0  0  0
   10.5377  -16.5215   29.3472 O   0  0  0  0  0  0  0  0  0  0  0  0
   11.2422  -14.4050   29.6227 O   0  0  0  0  0  0  0  0  0  0  0  0
  2  1  1  6
  2  3  1  0
  3  4  1  0
  4  5  2  0
  4  8  1  0
  6  2  1  0
  6  7  2  0
  9  6  1  0
 10  9  1  0
 10 11  1  1
 12 11  1  0
 12 16  1  0
 13 12  2  0
 14 10  1  0
 14 21  1  0
 15 14  2  0
 18 17  1  1
 18 19  1  0
 18 20  1  0
 20 21  1  1
 20 22  1  0
 22 23  2  0
 22 24  1  0
M  END
$$$$
