DDT.pdb
     RDKit          3D

 24 23  0  0  1  0  0  0  0  0999 V2000
   12.8264  -17.7676   21.3865 N   0  0  0  0  0  0  0  0  0  0  0  0
   11.5920  -17.0657   21.5429 C   0  0  1  0  0  0  0  0  0  0  0  0
   10.6265  -17.4961   20.4634 C   0  0  0  0  0  0  0  0  0  0  0  0
   11.2181  -17.1273   19.1627 C   0  0  0  0  0  0  0  0  0  0  0  0
   12.3631  -16.6362   19.0941 O   0  0  0  0  0  0  0  0  0  0  0  0
   11.0546  -17.1939   22.9003 C   0  0  0  0  0  0  0  0  0  0  0  0
    9.9440  -16.6606   23.1586 O   0  0  0  0  0  0  0  0  0  0  0  0
   10.4978  -17.3271   18.0058 O   0  0  0  0  0  0  0  0  0  0  0  0
   11.6970  -17.8800   23.9552 N   0  0  0  0  0  0  0  0  0  0  0  0
   11.1650  -18.0174   25.2820 C   0  0  1  0  0  0  0  0  0  0  0  0
   11.8125  -19.1028   26.0669 C   0  0  0  0  0  0  0  0  0  0  0  0
   11.2855  -19.2716   27.4223 C   0  0  0  0  0  0  0  0  0  0  0  0
   10.0612  -19.3290   27.6976 O   0  0  0  0  0  0  0  0  0  0  0  0
   11.1696  -16.7496   26.0399 C   0  0  0  0  0  0  0  0  0  0  0  0
   12.2253  -16.0672   26.0345 O   0  0  0  0  0  0  0  0  0  0  0  0
   12.1719  -19.3769   28.4834 O   0  0  0  0  0  0  0  0  0  0  0  0
    9.0101  -12.7643   27.7553 C   0  0  0  0  0  0  0  0  0  0  0  0
    8.8741  -14.1693   27.2199 C   0  0  1  0  0  0  0  0  0  0  0  0
    8.5836  -14.0571   25.8620 O   0  0  0  0  0  0  0  0  0  0  0  0
   10.1548  -14.9603   27.4067 C   0  0  2  0  0  0  0  0  0  0  0  0
   10.0625  -16.2518   26.7726 N   0  0  0  0  0  0  0  0  0  0  0  0
   10.4800  -15.1082   28.8585 C   0  0  0  0  0  0  0  0  0  0  0  0
   10.6918  -14.1051   29.5828 O   0  0  0  0  0  0  0  0  0  0  0  0
   10.5649  -16.3467   29.4787 O   0  0  0  0  0  0  0  0  0  0  0  0
  2  1  1  1
  2  3  1  0
  3  4  1  0
  4  5  2  0
  4  8  1  0
  6  2  1  0
  6  7  2  0
  9  6  1  0
 10  9  1  0
 10 11  1  1
 12 11  1  0
 12 16  1  0
 13 12  2  0
 14 10  1  0
 14 21  1  0
 15 14  2  0
 18 17  1  6
 18 19  1  0
 18 20  1  0
 20 21  1  1
 20 22  1  0
 22 23  2  0
 22 24  1  0
M  END
$$$$
