DDT.pdb
     RDKit          3D

 24 23  0  0  1  0  0  0  0  0999 V2000
    6.4538  -17.4444   20.0327 N   0  0  0  0  0  0  0  0  0  0  0  0
    7.6460  -16.6914   20.2621 C   0  0  1  0  0  0  0  0  0  0  0  0
    7.5136  -15.3293   19.6220 C   0  0  0  0  0  0  0  0  0  0  0  0
    7.9723  -15.4465   18.2244 C   0  0  0  0  0  0  0  0  0  0  0  0
    7.1551  -15.5234   17.2846 O   0  0  0  0  0  0  0  0  0  0  0  0
    8.0012  -16.6435   21.6832 C   0  0  0  0  0  0  0  0  0  0  0  0
    7.1022  -16.8722   22.5341 O   0  0  0  0  0  0  0  0  0  0  0  0
    9.3219  -15.4717   17.9503 O   0  0  0  0  0  0  0  0  0  0  0  0
    9.2932  -16.3564   22.1773 N   0  0  0  0  0  0  0  0  0  0  0  0
    9.6731  -16.4324   23.5601 C   0  0  1  0  0  0  0  0  0  0  0  0
   11.0794  -16.8739   23.7614 C   0  0  0  0  0  0  0  0  0  0  0  0
   11.3757  -18.2139   23.2515 C   0  0  0  0  0  0  0  0  0  0  0  0
   12.0334  -18.4373   22.2048 O   0  0  0  0  0  0  0  0  0  0  0  0
    9.4057  -15.1831   24.3015 C   0  0  0  0  0  0  0  0  0  0  0  0
    9.8367  -14.1079   23.8131 O   0  0  0  0  0  0  0  0  0  0  0  0
   10.9133  -19.3195   23.9489 O   0  0  0  0  0  0  0  0  0  0  0  0
    7.0578  -12.8726   24.4073 C   0  0  0  0  0  0  0  0  0  0  0  0
    7.1723  -13.2424   25.8666 C   0  0  1  0  0  0  0  0  0  0  0  0
    6.1719  -14.1767   26.1256 O   0  0  0  0  0  0  0  0  0  0  0  0
    8.5290  -13.8430   26.1817 C   0  0  2  0  0  0  0  0  0  0  0  0
    8.6957  -15.1166   25.5270 N   0  0  0  0  0  0  0  0  0  0  0  0
    8.7182  -13.9810   27.6583 C   0  0  0  0  0  0  0  0  0  0  0  0
    8.8443  -15.1088   28.1951 O   0  0  0  0  0  0  0  0  0  0  0  0
    8.7642  -12.8844   28.5075 O   0  0  0  0  0  0  0  0  0  0  0  0
  2  1  1  1
  2  3  1  0
  3  4  1  0
  4  5  2  0
  4  8  1  0
  6  2  1  0
  6  7  2  0
  9  6  1  0
 10  9  1  0
 10 11  1  6
 12 11  1  0
 12 16  1  0
 13 12  2  0
 14 10  1  0
 14 21  1  0
 15 14  2  0
 18 17  1  6
 18 19  1  0
 18 20  1  0
 20 21  1  6
 20 22  1  0
 22 23  2  0
 22 24  1  0
M  END
$$$$
