DDT.pdb
     RDKit          3D

 24 23  0  0  1  0  0  0  0  0999 V2000
   10.4622  -16.7571   20.2310 N   0  0  0  0  0  0  0  0  0  0  0  0
    9.3057  -16.3864   20.9835 C   0  0  1  0  0  0  0  0  0  0  0  0
    8.0691  -16.9369   20.3123 C   0  0  0  0  0  0  0  0  0  0  0  0
    8.3454  -17.0176   18.8650 C   0  0  0  0  0  0  0  0  0  0  0  0
    9.4624  -16.7036   18.4059 O   0  0  0  0  0  0  0  0  0  0  0  0
    9.4259  -16.7593   22.3957 C   0  0  0  0  0  0  0  0  0  0  0  0
    8.3960  -16.7134   23.1180 O   0  0  0  0  0  0  0  0  0  0  0  0
    7.3575  -17.4455   18.0058 O   0  0  0  0  0  0  0  0  0  0  0  0
   10.6261  -17.1718   23.0165 N   0  0  0  0  0  0  0  0  0  0  0  0
   10.7808  -17.3923   24.4271 C   0  0  1  0  0  0  0  0  0  0  0  0
   11.9701  -18.2187   24.7674 C   0  0  0  0  0  0  0  0  0  0  0  0
   11.9717  -19.5569   24.1735 C   0  0  0  0  0  0  0  0  0  0  0  0
   12.9997  -20.1282   23.7322 O   0  0  0  0  0  0  0  0  0  0  0  0
   10.7719  -16.1405   25.2112 C   0  0  0  0  0  0  0  0  0  0  0  0
   10.8742  -15.0555   24.5846 O   0  0  0  0  0  0  0  0  0  0  0  0
   10.7780  -20.2565   24.0816 O   0  0  0  0  0  0  0  0  0  0  0  0
    8.7930  -12.9160   27.4864 C   0  0  0  0  0  0  0  0  0  0  0  0
    9.1334  -14.1797   26.7337 C   0  0  1  0  0  0  0  0  0  0  0  0
    9.3054  -13.8200   25.3988 O   0  0  0  0  0  0  0  0  0  0  0  0
   10.4059  -14.8140   27.2620 C   0  0  2  0  0  0  0  0  0  0  0  0
   10.6558  -16.0820   26.6231 N   0  0  0  0  0  0  0  0  0  0  0  0
   10.3409  -14.9761   28.7469 C   0  0  0  0  0  0  0  0  0  0  0  0
   10.1810  -16.1054   29.2713 O   0  0  0  0  0  0  0  0  0  0  0  0
   10.4522  -13.9012   29.6175 O   0  0  0  0  0  0  0  0  0  0  0  0
  2  1  1  6
  2  3  1  0
  3  4  1  0
  4  5  2  0
  4  8  1  0
  6  2  1  0
  6  7  2  0
  9  6  1  0
 10  9  1  0
 10 11  1  6
 12 11  1  0
 12 16  1  0
 13 12  2  0
 14 10  1  0
 14 21  1  0
 15 14  2  0
 18 17  1  1
 18 19  1  0
 18 20  1  0
 20 21  1  6
 20 22  1  0
 22 23  2  0
 22 24  1  0
M  END
$$$$
