DDT.pdb
     RDKit          3D

 24 23  0  0  1  0  0  0  0  0999 V2000
    9.5405  -17.4600   17.6552 N   0  0  0  0  0  0  0  0  0  0  0  0
    8.5570  -17.7160   18.6593 C   0  0  1  0  0  0  0  0  0  0  0  0
    7.7105  -18.8976   18.2469 C   0  0  0  0  0  0  0  0  0  0  0  0
    7.1314  -18.5918   16.9245 C   0  0  0  0  0  0  0  0  0  0  0  0
    7.8593  -18.4595   15.9197 O   0  0  0  0  0  0  0  0  0  0  0  0
    9.1536  -17.8537   19.9908 C   0  0  0  0  0  0  0  0  0  0  0  0
    8.3870  -17.9405   20.9855 O   0  0  0  0  0  0  0  0  0  0  0  0
    5.7675  -18.4498   16.7946 O   0  0  0  0  0  0  0  0  0  0  0  0
   10.5425  -17.8970   20.2463 N   0  0  0  0  0  0  0  0  0  0  0  0
   11.1285  -17.9934   21.5538 C   0  0  1  0  0  0  0  0  0  0  0  0
   12.5943  -18.2461   21.5253 C   0  0  0  0  0  0  0  0  0  0  0  0
   12.9856  -19.4845   20.8495 C   0  0  0  0  0  0  0  0  0  0  0  0
   13.7324  -19.5280   19.8403 O   0  0  0  0  0  0  0  0  0  0  0  0
   10.8141  -16.8346   22.4140 C   0  0  0  0  0  0  0  0  0  0  0  0
   11.3606  -15.7360   22.1405 O   0  0  0  0  0  0  0  0  0  0  0  0
   12.5163  -20.6958   21.3343 O   0  0  0  0  0  0  0  0  0  0  0  0
    7.2964  -15.6872   23.3410 C   0  0  0  0  0  0  0  0  0  0  0  0
    8.5535  -14.8709   23.5220 C   0  0  1  0  0  0  0  0  0  0  0  0
    8.2048  -13.7565   24.2818 O   0  0  0  0  0  0  0  0  0  0  0  0
    9.6307  -15.6631   24.2380 C   0  0  2  0  0  0  0  0  0  0  0  0
    9.9372  -16.8795   23.5273 N   0  0  0  0  0  0  0  0  0  0  0  0
    9.2219  -15.9635   25.6444 C   0  0  0  0  0  0  0  0  0  0  0  0
    9.0083  -17.1415   26.0219 O   0  0  0  0  0  0  0  0  0  0  0  0
    9.0578  -14.9698   26.5991 O   0  0  0  0  0  0  0  0  0  0  0  0
  2  1  1  6
  2  3  1  0
  3  4  1  0
  4  5  2  0
  4  8  1  0
  6  2  1  0
  6  7  2  0
  9  6  1  0
 10  9  1  0
 10 11  1  6
 12 11  1  0
 12 16  1  0
 13 12  2  0
 14 10  1  0
 14 21  1  0
 15 14  2  0
 18 17  1  1
 18 19  1  0
 18 20  1  0
 20 21  1  6
 20 22  1  0
 22 23  2  0
 22 24  1  0
M  END
$$$$
