PCP.pdb
     RDKit          3D

 21 22  0  0  1  0  0  0  0  0999 V2000
   23.2579  -18.9024  -17.9523 N   0  0  0  0  0  0  0  0  0  0  0  0
   23.0076  -17.8395  -18.8958 C   0  0  0  0  0  0  0  0  0  0  0  0
   23.7186  -18.3131  -20.1685 C   0  0  0  0  0  0  0  0  0  0  0  0
   25.0107  -18.8685  -19.5541 C   0  0  0  0  0  0  0  0  0  0  0  0
   24.4753  -19.5543  -18.3302 C   0  0  1  0  0  0  0  0  0  0  0  0
   25.4296  -19.5340  -17.1917 C   0  0  0  0  0  0  0  0  0  0  0  0
   26.5855  -20.0418  -17.2995 O   0  0  0  0  0  0  0  0  0  0  0  0
   25.1000  -18.9553  -15.9497 N   0  0  0  0  0  0  0  0  0  0  0  0
   25.9905  -18.9757  -14.7816 C   0  0  1  0  0  0  0  0  0  0  0  0
   26.1981  -17.5003  -14.3731 C   0  0  0  0  0  0  0  0  0  0  0  0
   27.0042  -17.2832  -12.7993 S   0  0  0  0  0  0  0  0  0  0  0  0
   25.1733  -19.5747  -13.6614 C   0  0  0  0  0  0  0  0  0  0  0  0
   24.0438  -19.0355  -13.5322 O   0  0  0  0  0  0  0  0  0  0  0  0
   25.6358  -20.6189  -12.8645 N   0  0  0  0  0  0  0  0  0  0  0  0
   26.7625  -21.5156  -13.2115 C   0  0  0  0  0  0  0  0  0  0  0  0
   27.5118  -21.5931  -11.9170 C   0  0  0  0  0  0  0  0  0  0  0  0
   26.6058  -20.9961  -10.8605 C   0  0  0  0  0  0  0  0  0  0  0  0
   25.2309  -21.1043  -11.6043 C   0  0  1  0  0  0  0  0  0  0  0  0
   24.2065  -20.4644  -10.8294 C   0  0  0  0  0  0  0  0  0  0  0  0
   24.3638  -19.0954  -10.5096 O   0  0  0  0  0  0  0  0  0  0  0  0
   23.1874  -20.9911  -10.4064 O   0  0  0  0  0  0  0  0  0  0  0  0
  2  1  1  0
  3  2  1  0
  4  3  1  0
  4  5  1  0
  5  1  1  0
  6  8  1  0
  5  6  1  1
  7  6  2  0
  9  8  1  0
  9 12  1  0
  9 10  1  1
 11 10  1  0
 12 13  2  0
 14 12  1  0
 14 15  1  0
 16 15  1  0
 17 16  1  0
 18 19  1  1
 18 17  1  0
 18 14  1  0
 19 20  1  0
 21 19  2  0
M  END
$$$$
