PCP.pdb
     RDKit          3D

 21 22  0  0  1  0  0  0  0  0999 V2000
   27.1303  -20.8061  -17.0469 N   0  0  0  0  0  0  0  0  0  0  0  0
   28.4656  -20.8478  -17.5926 C   0  0  0  0  0  0  0  0  0  0  0  0
   29.0914  -22.0745  -16.9194 C   0  0  0  0  0  0  0  0  0  0  0  0
   28.5627  -21.8861  -15.4909 C   0  0  0  0  0  0  0  0  0  0  0  0
   27.1555  -21.4376  -15.7622 C   0  0  1  0  0  0  0  0  0  0  0  0
   26.6386  -20.5000  -14.7321 C   0  0  0  0  0  0  0  0  0  0  0  0
   26.6863  -19.2460  -14.9078 O   0  0  0  0  0  0  0  0  0  0  0  0
   26.0762  -20.9539  -13.5224 N   0  0  0  0  0  0  0  0  0  0  0  0
   25.1226  -20.1711  -12.7251 C   0  0  1  0  0  0  0  0  0  0  0  0
   23.8009  -20.1591  -13.5249 C   0  0  0  0  0  0  0  0  0  0  0  0
   22.3870  -19.6045  -12.5938 S   0  0  0  0  0  0  0  0  0  0  0  0
   24.8281  -21.0134  -11.5063 C   0  0  0  0  0  0  0  0  0  0  0  0
   24.0139  -21.9449  -11.7357 O   0  0  0  0  0  0  0  0  0  0  0  0
   25.4093  -20.7727  -10.2639 N   0  0  0  0  0  0  0  0  0  0  0  0
   26.7214  -20.1181  -10.0541 C   0  0  0  0  0  0  0  0  0  0  0  0
   26.4270  -19.1808   -8.9236 C   0  0  0  0  0  0  0  0  0  0  0  0
   25.0741  -19.5828   -8.3743 C   0  0  0  0  0  0  0  0  0  0  0  0
   24.9819  -21.0384   -8.9470 C   0  0  1  0  0  0  0  0  0  0  0  0
   23.6911  -21.5946   -8.6575 C   0  0  0  0  0  0  0  0  0  0  0  0
   23.6101  -22.6478   -7.7166 O   0  0  0  0  0  0  0  0  0  0  0  0
   22.6283  -21.2452   -9.1508 O   0  0  0  0  0  0  0  0  0  0  0  0
  2  1  1  0
  3  2  1  0
  4  3  1  0
  4  5  1  0
  5  1  1  0
  6  8  1  0
  5  6  1  1
  7  6  2  0
  9  8  1  0
  9 12  1  0
  9 10  1  6
 11 10  1  0
 12 13  2  0
 14 12  1  0
 14 15  1  0
 16 15  1  0
 17 16  1  0
 18 19  1  6
 18 17  1  0
 18 14  1  0
 19 20  1  0
 21 19  2  0
M  END
$$$$
