PCP.pdb
     RDKit          3D

 21 22  0  0  1  0  0  0  0  0999 V2000
   26.0136  -19.9800  -12.1805 N   0  0  0  0  0  0  0  0  0  0  0  0
   25.8911  -21.1838  -12.9669 C   0  0  0  0  0  0  0  0  0  0  0  0
   24.8613  -22.0154  -12.1938 C   0  0  0  0  0  0  0  0  0  0  0  0
   25.3445  -21.7611  -10.7595 C   0  0  0  0  0  0  0  0  0  0  0  0
   25.6817  -20.2992  -10.8248 C   0  0  1  0  0  0  0  0  0  0  0  0
   26.8079  -19.9250   -9.9311 C   0  0  0  0  0  0  0  0  0  0  0  0
   27.9990  -19.8883  -10.3620 O   0  0  0  0  0  0  0  0  0  0  0  0
   26.6094  -19.5960   -8.5753 N   0  0  0  0  0  0  0  0  0  0  0  0
   27.6964  -19.2146   -7.6638 C   0  0  1  0  0  0  0  0  0  0  0  0
   27.2304  -17.9233   -6.9551 C   0  0  0  0  0  0  0  0  0  0  0  0
   28.3570  -17.3231   -5.7124 S   0  0  0  0  0  0  0  0  0  0  0  0
   27.7033  -20.2676   -6.5809 C   0  0  0  0  0  0  0  0  0  0  0  0
   26.5482  -20.5993   -6.2081 O   0  0  0  0  0  0  0  0  0  0  0  0
   28.8768  -20.8084   -6.0614 N   0  0  0  0  0  0  0  0  0  0  0  0
   30.1386  -20.9806   -6.8179 C   0  0  0  0  0  0  0  0  0  0  0  0
   31.1625  -20.5095   -5.8314 C   0  0  0  0  0  0  0  0  0  0  0  0
   30.4533  -20.3968   -4.4980 C   0  0  0  0  0  0  0  0  0  0  0  0
   29.2105  -21.3067   -4.7856 C   0  0  1  0  0  0  0  0  0  0  0  0
   28.2994  -21.2505   -3.6783 C   0  0  0  0  0  0  0  0  0  0  0  0
   28.4667  -22.1788   -2.6240 O   0  0  0  0  0  0  0  0  0  0  0  0
   27.3711  -20.4655   -3.5475 O   0  0  0  0  0  0  0  0  0  0  0  0
  2  1  1  0
  3  2  1  0
  4  3  1  0
  4  5  1  0
  5  1  1  0
  6  8  1  0
  5  6  1  1
  7  6  2  0
  9  8  1  0
  9 12  1  0
  9 10  1  1
 11 10  1  0
 12 13  2  0
 14 12  1  0
 14 15  1  0
 16 15  1  0
 17 16  1  0
 18 19  1  1
 18 17  1  0
 18 14  1  0
 19 20  1  0
 21 19  2  0
M  END
$$$$
