PCP.pdb
     RDKit          3D

 21 22  0  0  1  0  0  0  0  0999 V2000
   26.2885  -21.9669  -18.2450 N   0  0  0  0  0  0  0  0  0  0  0  0
   27.1136  -21.8134  -19.4190 C   0  0  0  0  0  0  0  0  0  0  0  0
   27.8135  -23.1711  -19.5471 C   0  0  0  0  0  0  0  0  0  0  0  0
   28.1502  -23.4311  -18.0725 C   0  0  0  0  0  0  0  0  0  0  0  0
   26.8941  -22.9535  -17.4024 C   0  0  1  0  0  0  0  0  0  0  0  0
   27.1402  -22.3792  -16.0544 C   0  0  0  0  0  0  0  0  0  0  0  0
   27.6181  -23.0887  -15.1197 O   0  0  0  0  0  0  0  0  0  0  0  0
   26.8575  -21.0321  -15.7524 N   0  0  0  0  0  0  0  0  0  0  0  0
   26.9909  -20.4552  -14.4080 C   0  0  1  0  0  0  0  0  0  0  0  0
   27.3927  -18.9775  -14.6119 C   0  0  0  0  0  0  0  0  0  0  0  0
   27.0905  -17.9352  -13.1991 S   0  0  0  0  0  0  0  0  0  0  0  0
   25.5879  -20.4000  -13.8513 C   0  0  0  0  0  0  0  0  0  0  0  0
   24.7626  -19.8780  -14.6449 O   0  0  0  0  0  0  0  0  0  0  0  0
   25.2573  -20.8846  -12.5882 N   0  0  0  0  0  0  0  0  0  0  0  0
   26.1535  -21.6920  -11.7285 C   0  0  0  0  0  0  0  0  0  0  0  0
   25.9501  -21.0623  -10.3849 C   0  0  0  0  0  0  0  0  0  0  0  0
   24.7418  -20.1585  -10.5131 C   0  0  0  0  0  0  0  0  0  0  0  0
   24.0931  -20.7712  -11.8012 C   0  0  1  0  0  0  0  0  0  0  0  0
   22.9690  -19.9760  -12.2056 C   0  0  0  0  0  0  0  0  0  0  0  0
   21.8090  -19.9936  -11.3961 O   0  0  0  0  0  0  0  0  0  0  0  0
   22.9072  -19.2679  -13.2004 O   0  0  0  0  0  0  0  0  0  0  0  0
  2  1  1  0
  3  2  1  0
  4  3  1  0
  4  5  1  0
  5  1  1  0
  6  8  1  0
  5  6  1  1
  7  6  2  0
  9  8  1  0
  9 12  1  0
  9 10  1  6
 11 10  1  0
 12 13  2  0
 14 12  1  0
 14 15  1  0
 16 15  1  0
 17 16  1  0
 18 19  1  6
 18 17  1  0
 18 14  1  0
 19 20  1  0
 21 19  2  0
M  END
$$$$
