PCP.pdb
     RDKit          3D

 21 22  0  0  1  0  0  0  0  0999 V2000
   24.0013  -20.9711  -18.3222 N   0  0  0  0  0  0  0  0  0  0  0  0
   23.7789  -20.1185  -19.4650 C   0  0  0  0  0  0  0  0  0  0  0  0
   24.7660  -20.6518  -20.5095 C   0  0  0  0  0  0  0  0  0  0  0  0
   25.9913  -20.8850  -19.6152 C   0  0  0  0  0  0  0  0  0  0  0  0
   25.3456  -21.4595  -18.3872 C   0  0  1  0  0  0  0  0  0  0  0  0
   26.0676  -21.1097  -17.1367 C   0  0  0  0  0  0  0  0  0  0  0  0
   27.2774  -21.4451  -16.9655 O   0  0  0  0  0  0  0  0  0  0  0  0
   25.4493  -20.3955  -16.0910 N   0  0  0  0  0  0  0  0  0  0  0  0
   26.1445  -19.9884  -14.8626 C   0  0  1  0  0  0  0  0  0  0  0  0
   26.1885  -18.4443  -14.8848 C   0  0  0  0  0  0  0  0  0  0  0  0
   27.7697  -17.7508  -14.4460 S   0  0  0  0  0  0  0  0  0  0  0  0
   25.2021  -20.3310  -13.7329 C   0  0  0  0  0  0  0  0  0  0  0  0
   24.0171  -19.9694  -13.9524 O   0  0  0  0  0  0  0  0  0  0  0  0
   25.6175  -20.9837  -12.5750 N   0  0  0  0  0  0  0  0  0  0  0  0
   26.9181  -21.6733  -12.4105 C   0  0  0  0  0  0  0  0  0  0  0  0
   27.3430  -21.2205  -11.0475 C   0  0  0  0  0  0  0  0  0  0  0  0
   26.1324  -20.5646  -10.4167 C   0  0  0  0  0  0  0  0  0  0  0  0
   25.0056  -21.1738  -11.3193 C   0  0  1  0  0  0  0  0  0  0  0  0
   23.7414  -20.5824  -10.9853 C   0  0  0  0  0  0  0  0  0  0  0  0
   23.6335  -19.1720  -11.0083 O   0  0  0  0  0  0  0  0  0  0  0  0
   22.7232  -21.1842  -10.6754 O   0  0  0  0  0  0  0  0  0  0  0  0
  2  1  1  0
  3  2  1  0
  4  3  1  0
  4  5  1  0
  5  1  1  0
  6  8  1  0
  5  6  1  1
  7  6  2  0
  9  8  1  0
  9 12  1  0
  9 10  1  6
 11 10  1  0
 12 13  2  0
 14 12  1  0
 14 15  1  0
 16 15  1  0
 17 16  1  0
 18 19  1  6
 18 17  1  0
 18 14  1  0
 19 20  1  0
 21 19  2  0
M  END
$$$$
