PCP.pdb
     RDKit          3D

 21 22  0  0  1  0  0  0  0  0999 V2000
   24.8198  -21.3511  -10.7039 N   0  0  0  0  0  0  0  0  0  0  0  0
   24.0128  -20.5993  -11.6346 C   0  0  0  0  0  0  0  0  0  0  0  0
   24.6446  -20.9145  -12.9952 C   0  0  0  0  0  0  0  0  0  0  0  0
   26.1301  -20.8382  -12.6169 C   0  0  0  0  0  0  0  0  0  0  0  0
   26.1209  -21.5177  -11.2778 C   0  0  1  0  0  0  0  0  0  0  0  0
   27.1505  -20.9821  -10.3504 C   0  0  0  0  0  0  0  0  0  0  0  0
   28.3347  -20.7639  -10.7450 O   0  0  0  0  0  0  0  0  0  0  0  0
   26.8642  -20.6935   -9.0010 N   0  0  0  0  0  0  0  0  0  0  0  0
   27.7553  -19.9166   -8.1292 C   0  0  1  0  0  0  0  0  0  0  0  0
   27.1996  -18.4751   -8.1209 C   0  0  0  0  0  0  0  0  0  0  0  0
   27.9734  -17.3992   -6.9304 S   0  0  0  0  0  0  0  0  0  0  0  0
   27.5055  -20.4341   -6.7323 C   0  0  0  0  0  0  0  0  0  0  0  0
   26.2838  -20.5933   -6.4765 O   0  0  0  0  0  0  0  0  0  0  0  0
   28.5334  -20.7058   -5.8329 N   0  0  0  0  0  0  0  0  0  0  0  0
   29.9187  -21.0677   -6.2124 C   0  0  0  0  0  0  0  0  0  0  0  0
   30.7302  -20.2369   -5.2667 C   0  0  0  0  0  0  0  0  0  0  0  0
   29.7659  -19.7051   -4.2271 C   0  0  0  0  0  0  0  0  0  0  0  0
   28.5857  -20.7168   -4.4241 C   0  0  1  0  0  0  0  0  0  0  0  0
   27.4687  -20.3257   -3.6125 C   0  0  0  0  0  0  0  0  0  0  0  0
   26.9340  -19.0277   -3.7876 O   0  0  0  0  0  0  0  0  0  0  0  0
   26.9173  -21.0133   -2.7650 O   0  0  0  0  0  0  0  0  0  0  0  0
  2  1  1  0
  3  2  1  0
  4  3  1  0
  4  5  1  0
  5  1  1  0
  6  8  1  0
  5  6  1  1
  7  6  2  0
  9  8  1  0
  9 12  1  0
  9 10  1  1
 11 10  1  0
 12 13  2  0
 14 12  1  0
 14 15  1  0
 16 15  1  0
 17 16  1  0
 18 19  1  1
 18 17  1  0
 18 14  1  0
 19 20  1  0
 21 19  2  0
M  END
$$$$
