PCP.pdb
     RDKit          3D

 21 22  0  0  1  0  0  0  0  0999 V2000
   24.8388  -21.8482  -11.7468 N   0  0  0  0  0  0  0  0  0  0  0  0
   24.2035  -21.6567  -13.0284 C   0  0  0  0  0  0  0  0  0  0  0  0
   25.2790  -22.0891  -14.0314 C   0  0  0  0  0  0  0  0  0  0  0  0
   26.5135  -21.4486  -13.3823 C   0  0  0  0  0  0  0  0  0  0  0  0
   26.2538  -21.7308  -11.9305 C   0  0  1  0  0  0  0  0  0  0  0  0
   26.7907  -20.6768  -11.0314 C   0  0  0  0  0  0  0  0  0  0  0  0
   27.1865  -19.5649  -11.4923 O   0  0  0  0  0  0  0  0  0  0  0  0
   26.8850  -20.8598   -9.6373 N   0  0  0  0  0  0  0  0  0  0  0  0
   27.2894  -19.8000   -8.7040 C   0  0  1  0  0  0  0  0  0  0  0  0
   26.1320  -18.7768   -8.6872 C   0  0  0  0  0  0  0  0  0  0  0  0
   26.1875  -17.6313   -7.3239 S   0  0  0  0  0  0  0  0  0  0  0  0
   27.2615  -20.4361   -7.3342 C   0  0  0  0  0  0  0  0  0  0  0  0
   26.1544  -20.9674   -7.0597 O   0  0  0  0  0  0  0  0  0  0  0  0
   28.3585  -20.4295   -6.4764 N   0  0  0  0  0  0  0  0  0  0  0  0
   29.7690  -20.2844   -6.9048 C   0  0  0  0  0  0  0  0  0  0  0  0
   30.3049  -19.3152   -5.8965 C   0  0  0  0  0  0  0  0  0  0  0  0
   29.2644  -19.2173   -4.8004 C   0  0  0  0  0  0  0  0  0  0  0  0
   28.4705  -20.5399   -5.0754 C   0  0  1  0  0  0  0  0  0  0  0  0
   27.3220  -20.6056   -4.2175 C   0  0  0  0  0  0  0  0  0  0  0  0
   26.3571  -19.5751   -4.3081 O   0  0  0  0  0  0  0  0  0  0  0  0
   27.0842  -21.4800   -3.3965 O   0  0  0  0  0  0  0  0  0  0  0  0
  2  1  1  0
  3  2  1  0
  4  3  1  0
  4  5  1  0
  5  1  1  0
  6  8  1  0
  5  6  1  1
  7  6  2  0
  9  8  1  0
  9 12  1  0
  9 10  1  1
 11 10  1  0
 12 13  2  0
 14 12  1  0
 14 15  1  0
 16 15  1  0
 17 16  1  0
 18 19  1  1
 18 17  1  0
 18 14  1  0
 19 20  1  0
 21 19  2  0
M  END
$$$$
