PCP.pdb
     RDKit          3D

 21 22  0  0  1  0  0  0  0  0999 V2000
   24.6593  -11.3470  -16.2324 N   0  0  0  0  0  0  0  0  0  0  0  0
   24.9096  -12.7187  -15.8603 C   0  0  0  0  0  0  0  0  0  0  0  0
   24.7306  -13.4866  -17.1749 C   0  0  0  0  0  0  0  0  0  0  0  0
   23.4880  -12.7741  -17.7259 C   0  0  0  0  0  0  0  0  0  0  0  0
   23.7952  -11.3470  -17.3740 C   0  0  1  0  0  0  0  0  0  0  0  0
   22.5771  -10.5484  -17.0812 C   0  0  0  0  0  0  0  0  0  0  0  0
   21.6098  -10.5093  -17.8987 O   0  0  0  0  0  0  0  0  0  0  0  0
   22.4389   -9.8035  -15.8930 N   0  0  0  0  0  0  0  0  0  0  0  0
   21.2911   -8.9318  -15.6089 C   0  0  1  0  0  0  0  0  0  0  0  0
   20.5935   -9.5300  -14.3670 C   0  0  0  0  0  0  0  0  0  0  0  0
   21.6913   -9.8791  -13.0081 S   0  0  0  0  0  0  0  0  0  0  0  0
   21.8834   -7.6282  -15.1279 C   0  0  0  0  0  0  0  0  0  0  0  0
   22.8546   -7.7874  -14.3439 O   0  0  0  0  0  0  0  0  0  0  0  0
   21.3951   -6.3856  -15.5239 N   0  0  0  0  0  0  0  0  0  0  0  0
   20.5353   -6.1501  -16.7069 C   0  0  0  0  0  0  0  0  0  0  0  0
   19.5060   -5.2073  -16.1638 C   0  0  0  0  0  0  0  0  0  0  0  0
   20.0212   -4.7378  -14.8193 C   0  0  0  0  0  0  0  0  0  0  0  0
   21.5389   -5.0915  -14.9834 C   0  0  1  0  0  0  0  0  0  0  0  0
   22.2315   -4.8484  -13.7503 C   0  0  0  0  0  0  0  0  0  0  0  0
   22.9538   -3.6398  -13.6135 O   0  0  0  0  0  0  0  0  0  0  0  0
   22.2636   -5.5945  -12.7821 O   0  0  0  0  0  0  0  0  0  0  0  0
  2  1  1  0
  3  2  1  0
  4  3  1  0
  4  5  1  0
  5  1  1  0
  6  8  1  0
  5  6  1  1
  7  6  2  0
  9  8  1  0
  9 12  1  0
  9 10  1  1
 11 10  1  0
 12 13  2  0
 14 12  1  0
 14 15  1  0
 16 15  1  0
 17 16  1  0
 18 19  1  1
 18 17  1  0
 18 14  1  0
 19 20  1  0
 21 19  2  0
M  END
$$$$
