PCP.pdb
     RDKit          3D

 21 22  0  0  1  0  0  0  0  0999 V2000
   24.6650  -21.3732  -10.3917 N   0  0  0  0  0  0  0  0  0  0  0  0
   23.7630  -20.5738  -11.1854 C   0  0  0  0  0  0  0  0  0  0  0  0
   24.2346  -20.8193  -12.6231 C   0  0  0  0  0  0  0  0  0  0  0  0
   25.7538  -20.7639  -12.4122 C   0  0  0  0  0  0  0  0  0  0  0  0
   25.8916  -21.5114  -11.1171 C   0  0  1  0  0  0  0  0  0  0  0  0
   27.0232  -21.0251  -10.2864 C   0  0  0  0  0  0  0  0  0  0  0  0
   28.1417  -20.7397  -10.8091 O   0  0  0  0  0  0  0  0  0  0  0  0
   26.9098  -20.8591   -8.8915 N   0  0  0  0  0  0  0  0  0  0  0  0
   27.7967  -19.9951   -8.1010 C   0  0  1  0  0  0  0  0  0  0  0  0
   27.1906  -18.5759   -8.1729 C   0  0  0  0  0  0  0  0  0  0  0  0
   27.7542  -17.4736   -6.8918 S   0  0  0  0  0  0  0  0  0  0  0  0
   27.6041  -20.4243   -6.6657 C   0  0  0  0  0  0  0  0  0  0  0  0
   26.3944  -20.4704   -6.3228 O   0  0  0  0  0  0  0  0  0  0  0  0
   28.6672  -20.7370   -5.8222 N   0  0  0  0  0  0  0  0  0  0  0  0
   30.0044  -21.1862   -6.2741 C   0  0  0  0  0  0  0  0  0  0  0  0
   30.9172  -20.3851   -5.3976 C   0  0  0  0  0  0  0  0  0  0  0  0
   30.0488  -19.7776   -4.3157 C   0  0  0  0  0  0  0  0  0  0  0  0
   28.8035  -20.7229   -4.4191 C   0  0  1  0  0  0  0  0  0  0  0  0
   27.7612  -20.2515   -3.5525 C   0  0  0  0  0  0  0  0  0  0  0  0
   27.8417  -20.5637   -2.1751 O   0  0  0  0  0  0  0  0  0  0  0  0
   26.7874  -19.5926   -3.8880 O   0  0  0  0  0  0  0  0  0  0  0  0
  2  1  1  0
  3  2  1  0
  4  3  1  0
  4  5  1  0
  5  1  1  0
  6  8  1  0
  5  6  1  1
  7  6  2  0
  9  8  1  0
  9 12  1  0
  9 10  1  1
 11 10  1  0
 12 13  2  0
 14 12  1  0
 14 15  1  0
 16 15  1  0
 17 16  1  0
 18 19  1  1
 18 17  1  0
 18 14  1  0
 19 20  1  0
 21 19  2  0
M  END
$$$$
