PCP.pdb
     RDKit          3D

 21 22  0  0  1  0  0  0  0  0999 V2000
   26.1322  -20.6571  -13.7983 N   0  0  0  0  0  0  0  0  0  0  0  0
   27.2131  -20.3421  -14.7012 C   0  0  0  0  0  0  0  0  0  0  0  0
   28.3096  -21.3400  -14.3118 C   0  0  0  0  0  0  0  0  0  0  0  0
   28.1870  -21.2788  -12.7832 C   0  0  0  0  0  0  0  0  0  0  0  0
   26.6953  -21.2359  -12.6160 C   0  0  1  0  0  0  0  0  0  0  0  0
   26.2691  -20.4575  -11.4245 C   0  0  0  0  0  0  0  0  0  0  0  0
   25.7312  -19.3169  -11.5478 O   0  0  0  0  0  0  0  0  0  0  0  0
   26.4400  -20.9440  -10.1130 N   0  0  0  0  0  0  0  0  0  0  0  0
   25.9961  -20.2213   -8.9137 C   0  0  1  0  0  0  0  0  0  0  0  0
   24.5595  -20.7103   -8.6238 C   0  0  0  0  0  0  0  0  0  0  0  0
   23.9572  -20.2911   -7.0004 S   0  0  0  0  0  0  0  0  0  0  0  0
   26.8272  -20.7726   -7.7793 C   0  0  0  0  0  0  0  0  0  0  0  0
   26.6054  -21.9901   -7.5518 O   0  0  0  0  0  0  0  0  0  0  0  0
   27.7435  -20.0000   -7.0700 N   0  0  0  0  0  0  0  0  0  0  0  0
   28.3566  -18.7453   -7.5639 C   0  0  0  0  0  0  0  0  0  0  0  0
   28.2696  -17.8587   -6.3599 C   0  0  0  0  0  0  0  0  0  0  0  0
   27.9025  -18.7531   -5.1942 C   0  0  0  0  0  0  0  0  0  0  0  0
   28.3170  -20.1417   -5.7900 C   0  0  1  0  0  0  0  0  0  0  0  0
   27.9334  -21.1917   -4.8901 C   0  0  0  0  0  0  0  0  0  0  0  0
   26.5823  -21.6110   -4.8856 O   0  0  0  0  0  0  0  0  0  0  0  0
   28.6696  -21.7759   -4.1080 O   0  0  0  0  0  0  0  0  0  0  0  0
  2  1  1  0
  3  2  1  0
  4  3  1  0
  4  5  1  0
  5  1  1  0
  6  8  1  0
  5  6  1  1
  7  6  2  0
  9  8  1  0
  9 12  1  0
  9 10  1  1
 11 10  1  0
 12 13  2  0
 14 12  1  0
 14 15  1  0
 16 15  1  0
 17 16  1  0
 18 19  1  1
 18 17  1  0
 18 14  1  0
 19 20  1  0
 21 19  2  0
M  END
$$$$
