PCP.pdb
     RDKit          3D

 21 22  0  0  1  0  0  0  0  0999 V2000
   24.4401  -20.0775  -15.2672 N   0  0  0  0  0  0  0  0  0  0  0  0
   25.0932  -19.2729  -16.2716 C   0  0  0  0  0  0  0  0  0  0  0  0
   25.3147  -20.2525  -17.4295 C   0  0  0  0  0  0  0  0  0  0  0  0
   25.7649  -21.4902  -16.6416 C   0  0  0  0  0  0  0  0  0  0  0  0
   24.8278  -21.4409  -15.4692 C   0  0  1  0  0  0  0  0  0  0  0  0
   25.4313  -21.9806  -14.2234 C   0  0  0  0  0  0  0  0  0  0  0  0
   25.8680  -23.1690  -14.1711 O   0  0  0  0  0  0  0  0  0  0  0  0
   25.5464  -21.2062  -13.0517 N   0  0  0  0  0  0  0  0  0  0  0  0
   26.6120  -21.3899  -12.0575 C   0  0  1  0  0  0  0  0  0  0  0  0
   27.9221  -20.9427  -12.7434 C   0  0  0  0  0  0  0  0  0  0  0  0
   29.3084  -20.7779  -11.6367 S   0  0  0  0  0  0  0  0  0  0  0  0
   26.3574  -20.3466  -10.9953 C   0  0  0  0  0  0  0  0  0  0  0  0
   26.5262  -19.1703  -11.4089 O   0  0  0  0  0  0  0  0  0  0  0  0
   25.9723  -20.6699   -9.6966 N   0  0  0  0  0  0  0  0  0  0  0  0
   25.4008  -21.9717   -9.2808 C   0  0  0  0  0  0  0  0  0  0  0  0
   26.1388  -22.2456   -8.0067 C   0  0  0  0  0  0  0  0  0  0  0  0
   26.8410  -20.9571   -7.6321 C   0  0  0  0  0  0  0  0  0  0  0  0
   26.0040  -19.9457   -8.4875 C   0  0  1  0  0  0  0  0  0  0  0  0
   26.5810  -18.6350   -8.3940 C   0  0  0  0  0  0  0  0  0  0  0  0
   25.8937  -17.6514   -7.6447 O   0  0  0  0  0  0  0  0  0  0  0  0
   27.6296  -18.2705   -8.9064 O   0  0  0  0  0  0  0  0  0  0  0  0
  2  1  1  0
  3  2  1  0
  4  3  1  0
  4  5  1  0
  5  1  1  0
  6  8  1  0
  5  6  1  1
  7  6  2  0
  9  8  1  0
  9 12  1  0
  9 10  1  6
 11 10  1  0
 12 13  2  0
 14 12  1  0
 14 15  1  0
 16 15  1  0
 17 16  1  0
 18 19  1  6
 18 17  1  0
 18 14  1  0
 19 20  1  0
 21 19  2  0
M  END
$$$$
