PCP.pdb
     RDKit          3D

 21 22  0  0  1  0  0  0  0  0999 V2000
   15.5979  -22.1653    0.5327 N   0  0  0  0  0  0  0  0  0  0  0  0
   15.5063  -23.6040    0.5990 C   0  0  0  0  0  0  0  0  0  0  0  0
   14.4590  -23.8480    1.6913 C   0  0  0  0  0  0  0  0  0  0  0  0
   14.8974  -22.7908    2.7138 C   0  0  0  0  0  0  0  0  0  0  0  0
   15.2275  -21.6373    1.8109 C   0  0  1  0  0  0  0  0  0  0  0  0
   16.3242  -20.7852    2.3387 C   0  0  0  0  0  0  0  0  0  0  0  0
   17.5105  -20.9088    1.9111 O   0  0  0  0  0  0  0  0  0  0  0  0
   16.1015  -19.8083    3.3297 N   0  0  0  0  0  0  0  0  0  0  0  0
   17.1585  -18.9432    3.8702 C   0  0  1  0  0  0  0  0  0  0  0  0
   16.4644  -17.6299    4.2948 C   0  0  0  0  0  0  0  0  0  0  0  0
   17.4917  -16.5366    5.2555 S   0  0  0  0  0  0  0  0  0  0  0  0
   17.5859  -19.5899    5.1666 C   0  0  0  0  0  0  0  0  0  0  0  0
   16.6154  -19.9250    5.8940 O   0  0  0  0  0  0  0  0  0  0  0  0
   18.9216  -19.7907    5.5057 N   0  0  0  0  0  0  0  0  0  0  0  0
   20.0651  -19.6318    4.5776 C   0  0  0  0  0  0  0  0  0  0  0  0
   21.0544  -18.8902    5.4230 C   0  0  0  0  0  0  0  0  0  0  0  0
   20.5345  -18.9505    6.8442 C   0  0  0  0  0  0  0  0  0  0  0  0
   19.5509  -20.1629    6.7111 C   0  0  1  0  0  0  0  0  0  0  0  0
   18.8217  -20.3349    7.9351 C   0  0  0  0  0  0  0  0  0  0  0  0
   17.8986  -19.3316    8.3127 O   0  0  0  0  0  0  0  0  0  0  0  0
   18.9170  -21.2804    8.7044 O   0  0  0  0  0  0  0  0  0  0  0  0
  2  1  1  0
  3  2  1  0
  4  3  1  0
  4  5  1  0
  5  1  1  0
  6  8  1  0
  5  6  1  1
  7  6  2  0
  9  8  1  0
  9 12  1  0
  9 10  1  1
 11 10  1  0
 12 13  2  0
 14 12  1  0
 14 15  1  0
 16 15  1  0
 17 16  1  0
 18 19  1  1
 18 17  1  0
 18 14  1  0
 19 20  1  0
 21 19  2  0
M  END
$$$$
