PCP.pdb
     RDKit          3D

 21 22  0  0  1  0  0  0  0  0999 V2000
   26.6891  -19.8586  -13.8070 N   0  0  0  0  0  0  0  0  0  0  0  0
   27.9994  -19.9477  -14.4053 C   0  0  0  0  0  0  0  0  0  0  0  0
   28.4655  -21.3621  -14.0421 C   0  0  0  0  0  0  0  0  0  0  0  0
   27.9863  -21.4286  -12.5856 C   0  0  0  0  0  0  0  0  0  0  0  0
   26.6478  -20.7564  -12.6925 C   0  0  1  0  0  0  0  0  0  0  0  0
   26.2746  -20.0119  -11.4621 C   0  0  0  0  0  0  0  0  0  0  0  0
   25.6665  -18.9023  -11.5295 O   0  0  0  0  0  0  0  0  0  0  0  0
   26.5751  -20.4977  -10.1739 N   0  0  0  0  0  0  0  0  0  0  0  0
   25.9418  -19.9950   -8.9475 C   0  0  1  0  0  0  0  0  0  0  0  0
   24.5114  -20.5786   -8.9316 C   0  0  0  0  0  0  0  0  0  0  0  0
   23.6421  -20.3437   -7.3944 S   0  0  0  0  0  0  0  0  0  0  0  0
   26.6543  -20.6899   -7.8112 C   0  0  0  0  0  0  0  0  0  0  0  0
   26.2166  -21.8486   -7.5897 O   0  0  0  0  0  0  0  0  0  0  0  0
   27.6902  -20.0962   -7.0943 N   0  0  0  0  0  0  0  0  0  0  0  0
   28.6812  -19.1523   -7.6607 C   0  0  0  0  0  0  0  0  0  0  0  0
   28.7511  -18.0971   -6.6001 C   0  0  0  0  0  0  0  0  0  0  0  0
   28.0408  -18.6605   -5.3870 C   0  0  0  0  0  0  0  0  0  0  0  0
   28.0848  -20.1856   -5.7438 C   0  0  1  0  0  0  0  0  0  0  0  0
   27.3366  -20.9341   -4.7745 C   0  0  0  0  0  0  0  0  0  0  0  0
   25.9320  -21.0102   -4.9243 O   0  0  0  0  0  0  0  0  0  0  0  0
   27.7971  -21.5272   -3.8096 O   0  0  0  0  0  0  0  0  0  0  0  0
  2  1  1  0
  3  2  1  0
  4  3  1  0
  4  5  1  0
  5  1  1  0
  6  8  1  0
  5  6  1  1
  7  6  2  0
  9  8  1  0
  9 12  1  0
  9 10  1  6
 11 10  1  0
 12 13  2  0
 14 12  1  0
 14 15  1  0
 16 15  1  0
 17 16  1  0
 18 19  1  1
 18 17  1  0
 18 14  1  0
 19 20  1  0
 21 19  2  0
M  END
$$$$
