PCP.pdb
     RDKit          3D

 21 22  0  0  1  0  0  0  0  0999 V2000
   24.6693  -21.2632  -11.2972 N   0  0  0  0  0  0  0  0  0  0  0  0
   24.0403  -20.8243  -12.5196 C   0  0  0  0  0  0  0  0  0  0  0  0
   24.8283  -21.5554  -13.6124 C   0  0  0  0  0  0  0  0  0  0  0  0
   26.2517  -21.3887  -13.0634 C   0  0  0  0  0  0  0  0  0  0  0  0
   26.0231  -21.6196  -11.5973 C   0  0  1  0  0  0  0  0  0  0  0  0
   26.9497  -20.8391  -10.7375 C   0  0  0  0  0  0  0  0  0  0  0  0
   27.7775  -20.0231  -11.2420 O   0  0  0  0  0  0  0  0  0  0  0  0
   26.9537  -20.9663   -9.3340 N   0  0  0  0  0  0  0  0  0  0  0  0
   27.5878  -19.9959   -8.4317 C   0  0  1  0  0  0  0  0  0  0  0  0
   26.7377  -18.7088   -8.5181 C   0  0  0  0  0  0  0  0  0  0  0  0
   27.1701  -17.4642   -7.3190 S   0  0  0  0  0  0  0  0  0  0  0  0
   27.3471  -20.5240   -7.0372 C   0  0  0  0  0  0  0  0  0  0  0  0
   26.1333  -20.7566   -6.8007 O   0  0  0  0  0  0  0  0  0  0  0  0
   28.3747  -20.7302   -6.1202 N   0  0  0  0  0  0  0  0  0  0  0  0
   29.7819  -21.0256   -6.4759 C   0  0  0  0  0  0  0  0  0  0  0  0
   30.5364  -20.1414   -5.5313 C   0  0  0  0  0  0  0  0  0  0  0  0
   29.5315  -19.6458   -4.5125 C   0  0  0  0  0  0  0  0  0  0  0  0
   28.4075  -20.7194   -4.7108 C   0  0  1  0  0  0  0  0  0  0  0  0
   27.2605  -20.3752   -3.9200 C   0  0  0  0  0  0  0  0  0  0  0  0
   26.5748  -19.1747   -4.2197 O   0  0  0  0  0  0  0  0  0  0  0  0
   26.8028  -21.0265   -2.9919 O   0  0  0  0  0  0  0  0  0  0  0  0
  2  1  1  0
  3  2  1  0
  4  3  1  0
  4  5  1  0
  5  1  1  0
  6  8  1  0
  5  6  1  1
  7  6  2  0
  9  8  1  0
  9 12  1  0
  9 10  1  1
 11 10  1  0
 12 13  2  0
 14 12  1  0
 14 15  1  0
 16 15  1  0
 17 16  1  0
 18 19  1  1
 18 17  1  0
 18 14  1  0
 19 20  1  0
 21 19  2  0
M  END
$$$$
