PCP.pdb
     RDKit          3D

 21 22  0  0  1  0  0  0  0  0999 V2000
   32.0870  -28.7477  -20.7685 N   0  0  0  0  0  0  0  0  0  0  0  0
   33.3111  -28.0256  -21.0193 C   0  0  0  0  0  0  0  0  0  0  0  0
   34.4023  -29.0790  -20.7970 C   0  0  0  0  0  0  0  0  0  0  0  0
   33.8464  -29.7699  -19.5443 C   0  0  0  0  0  0  0  0  0  0  0  0
   32.3820  -29.8244  -19.8721 C   0  0  1  0  0  0  0  0  0  0  0  0
   31.5160  -29.7269  -18.6688 C   0  0  0  0  0  0  0  0  0  0  0  0
   31.7440  -30.4325  -17.6413 O   0  0  0  0  0  0  0  0  0  0  0  0
   30.4107  -28.8546  -18.6115 N   0  0  0  0  0  0  0  0  0  0  0  0
   29.5378  -28.7248  -17.4372 C   0  0  1  0  0  0  0  0  0  0  0  0
   29.1662  -27.2283  -17.3406 C   0  0  0  0  0  0  0  0  0  0  0  0
   28.0129  -26.8430  -16.0387 S   0  0  0  0  0  0  0  0  0  0  0  0
   28.2496  -29.4184  -17.8130 C   0  0  0  0  0  0  0  0  0  0  0  0
   27.6577  -28.8699  -18.7785 O   0  0  0  0  0  0  0  0  0  0  0  0
   27.7807  -30.5502  -17.1509 N   0  0  0  0  0  0  0  0  0  0  0  0
   28.6338  -31.5341  -16.4450 C   0  0  0  0  0  0  0  0  0  0  0  0
   27.8655  -31.7650  -15.1802 C   0  0  0  0  0  0  0  0  0  0  0  0
   26.5001  -31.1438  -15.3882 C   0  0  0  0  0  0  0  0  0  0  0  0
   26.4840  -31.0670  -16.9532 C   0  0  1  0  0  0  0  0  0  0  0  0
   25.3072  -30.3742  -17.3945 C   0  0  0  0  0  0  0  0  0  0  0  0
   24.1741  -31.1399  -17.7565 O   0  0  0  0  0  0  0  0  0  0  0  0
   25.1782  -29.1623  -17.4928 O   0  0  0  0  0  0  0  0  0  0  0  0
  2  1  1  0
  3  2  1  0
  4  3  1  0
  4  5  1  0
  5  1  1  0
  6  8  1  0
  5  6  1  1
  7  6  2  0
  9  8  1  0
  9 12  1  0
  9 10  1  6
 11 10  1  0
 12 13  2  0
 14 12  1  0
 14 15  1  0
 16 15  1  0
 17 16  1  0
 18 19  1  1
 18 17  1  0
 18 14  1  0
 19 20  1  0
 21 19  2  0
M  END
$$$$
