KVV.pdb
     RDKit          3D

 24 23  0  0  1  0  0  0  0  0999 V2000
   24.8035  -19.1579  -18.3931 N   0  0  0  0  0  0  0  0  0  0  0  0
   24.9190  -18.3514  -17.2164 C   0  0  1  0  0  0  0  0  0  0  0  0
   23.6114  -17.7149  -16.8738 C   0  0  0  0  0  0  0  0  0  0  0  0
   22.4387  -18.4094  -17.4537 C   0  0  0  0  0  0  0  0  0  0  0  0
   21.1412  -18.2657  -16.7190 C   0  0  0  0  0  0  0  0  0  0  0  0
   20.4092  -16.9881  -17.2205 C   0  0  0  0  0  0  0  0  0  0  0  0
   20.1992  -16.1914  -16.0230 N   0  0  0  0  0  0  0  0  0  0  0  0
   25.3942  -19.2417  -16.0958 C   0  0  0  0  0  0  0  0  0  0  0  0
   24.7428  -20.2649  -15.7842 O   0  0  0  0  0  0  0  0  0  0  0  0
   29.1202  -20.4460  -13.0017 C   0  0  0  0  0  0  0  0  0  0  0  0
   28.5869  -19.7986  -14.2510 C   0  0  1  0  0  0  0  0  0  0  0  0
   29.1656  -20.3660  -15.5116 C   0  0  0  0  0  0  0  0  0  0  0  0
   27.0821  -19.8391  -14.3313 C   0  0  2  0  0  0  0  0  0  0  0  0
   26.5769  -18.9589  -15.3643 N   0  0  0  0  0  0  0  0  0  0  0  0
   26.4372  -19.5876  -13.0219 C   0  0  0  0  0  0  0  0  0  0  0  0
   26.4052  -18.4023  -12.6008 O   0  0  0  0  0  0  0  0  0  0  0  0
   23.3128  -20.4857   -9.4570 C   0  0  0  0  0  0  0  0  0  0  0  0
   23.9084  -20.8378  -10.7790 C   0  0  2  0  0  0  0  0  0  0  0  0
   23.8096  -22.3258  -10.9909 C   0  0  0  0  0  0  0  0  0  0  0  0
   25.3281  -20.3345  -10.8963 C   0  0  2  0  0  0  0  0  0  0  0  0
   25.8557  -20.5867  -12.2137 N   0  0  0  0  0  0  0  0  0  0  0  0
   26.2072  -20.8120   -9.8211 C   0  0  0  0  0  0  0  0  0  0  0  0
   27.2391  -21.7025  -10.0751 O   0  0  0  0  0  0  0  0  0  0  0  0
   26.0589  -20.4329   -8.6315 O   0  0  0  0  0  0  0  0  0  0  0  0
  2  1  1  6
  2  8  1  0
  2  3  1  0
  4  5  1  0
  4  3  1  0
  6  5  1  0
  7  6  1  0
  8 14  1  0
  9  8  2  0
 11 12  1  6
 11 10  1  0
 13 11  1  0
 13 15  1  0
 13 14  1  6
 15 16  2  0
 15 21  1  0
 18 17  1  1
 18 20  1  0
 18 19  1  0
 20 22  1  0
 20 21  1  6
 22 24  2  0
 22 23  1  0
M  END
$$$$
