KVV.pdb
     RDKit          3D

 24 23  0  0  1  0  0  0  0  0999 V2000
   20.2262  -22.2608   -6.7796 N   0  0  0  0  0  0  0  0  0  0  0  0
   20.6095  -22.8019   -8.0480 C   0  0  1  0  0  0  0  0  0  0  0  0
   19.4421  -23.4321   -8.7353 C   0  0  0  0  0  0  0  0  0  0  0  0
   18.9680  -24.6769   -8.0875 C   0  0  0  0  0  0  0  0  0  0  0  0
   17.9153  -24.5267   -7.0323 C   0  0  0  0  0  0  0  0  0  0  0  0
   17.4882  -25.9366   -6.5330 C   0  0  0  0  0  0  0  0  0  0  0  0
   18.2273  -26.1275   -5.2960 N   0  0  0  0  0  0  0  0  0  0  0  0
   21.1765  -21.6750   -8.8743 C   0  0  0  0  0  0  0  0  0  0  0  0
   20.5833  -20.5733   -8.9292 O   0  0  0  0  0  0  0  0  0  0  0  0
   24.6262  -20.0834   -8.7342 C   0  0  0  0  0  0  0  0  0  0  0  0
   24.3757  -20.5086  -10.1557 C   0  0  1  0  0  0  0  0  0  0  0  0
   25.1740  -21.7073  -10.5702 C   0  0  0  0  0  0  0  0  0  0  0  0
   22.9166  -20.7590  -10.4403 C   0  0  2  0  0  0  0  0  0  0  0  0
   22.3826  -21.8172   -9.6084 N   0  0  0  0  0  0  0  0  0  0  0  0
   22.6514  -20.9946  -11.8783 C   0  0  0  0  0  0  0  0  0  0  0  0
   22.9016  -22.1371  -12.3424 O   0  0  0  0  0  0  0  0  0  0  0  0
   19.9434  -18.7235  -14.1777 C   0  0  0  0  0  0  0  0  0  0  0  0
   20.4040  -20.1128  -14.4679 C   0  0  2  0  0  0  0  0  0  0  0  0
   19.5425  -21.0921  -13.7146 C   0  0  0  0  0  0  0  0  0  0  0  0
   21.8727  -20.2834  -14.1574 C   0  0  2  0  0  0  0  0  0  0  0  0
   22.1370  -20.0250  -12.7642 N   0  0  0  0  0  0  0  0  0  0  0  0
   22.7516  -19.5300  -15.0611 C   0  0  0  0  0  0  0  0  0  0  0  0
   22.8668  -19.8660  -16.4014 O   0  0  0  0  0  0  0  0  0  0  0  0
   23.4321  -18.5534  -14.6559 O   0  0  0  0  0  0  0  0  0  0  0  0
  2  1  1  1
  2  8  1  0
  2  3  1  0
  4  5  1  0
  4  3  1  0
  6  5  1  0
  7  6  1  0
  8 14  1  0
  9  8  2  0
 11 12  1  1
 11 10  1  0
 13 11  1  0
 13 15  1  0
 13 14  1  1
 15 16  2  0
 15 21  1  0
 18 17  1  1
 18 20  1  0
 18 19  1  0
 20 22  1  0
 20 21  1  1
 22 24  2  0
 22 23  1  0
M  END
$$$$
