KVV.pdb
     RDKit          3D

 24 23  0  0  1  0  0  0  0  0999 V2000
   24.3166  -22.0206  -13.3791 N   0  0  0  0  0  0  0  0  0  0  0  0
   24.1742  -21.1158  -12.2793 C   0  0  1  0  0  0  0  0  0  0  0  0
   22.8079  -21.2110  -11.6820 C   0  0  0  0  0  0  0  0  0  0  0  0
   21.8188  -20.3013  -12.3049 C   0  0  0  0  0  0  0  0  0  0  0  0
   22.0849  -19.8858  -13.7193 C   0  0  0  0  0  0  0  0  0  0  0  0
   20.9578  -18.9224  -14.1891 C   0  0  0  0  0  0  0  0  0  0  0  0
   21.3285  -18.5576  -15.5464 N   0  0  0  0  0  0  0  0  0  0  0  0
   25.2318  -21.4620  -11.2615 C   0  0  0  0  0  0  0  0  0  0  0  0
   25.1408  -22.5162  -10.5915 O   0  0  0  0  0  0  0  0  0  0  0  0
   29.0263  -19.4712  -11.2792 C   0  0  0  0  0  0  0  0  0  0  0  0
   28.7667  -20.8405  -10.7118 C   0  0  1  0  0  0  0  0  0  0  0  0
   29.8023  -21.2836   -9.7233 C   0  0  0  0  0  0  0  0  0  0  0  0
   27.3991  -20.9635  -10.0896 C   0  0  2  0  0  0  0  0  0  0  0  0
   26.3509  -20.6211  -11.0282 N   0  0  0  0  0  0  0  0  0  0  0  0
   27.2816  -20.2043   -8.8232 C   0  0  0  0  0  0  0  0  0  0  0  0
   26.7489  -19.0652   -8.8685 O   0  0  0  0  0  0  0  0  0  0  0  0
   26.0306  -21.4388   -5.3272 C   0  0  0  0  0  0  0  0  0  0  0  0
   27.3471  -20.7547   -5.1682 C   0  0  2  0  0  0  0  0  0  0  0  0
   27.3540  -19.9789   -3.8772 C   0  0  0  0  0  0  0  0  0  0  0  0
   27.6648  -19.8850   -6.3621 C   0  0  2  0  0  0  0  0  0  0  0  0
   27.7263  -20.6710   -7.5687 N   0  0  0  0  0  0  0  0  0  0  0  0
   28.8457  -19.0341   -6.1665 C   0  0  0  0  0  0  0  0  0  0  0  0
   28.7603  -17.8259   -5.4915 O   0  0  0  0  0  0  0  0  0  0  0  0
   29.9771  -19.3669   -6.6022 O   0  0  0  0  0  0  0  0  0  0  0  0
  2  1  1  6
  2  8  1  0
  2  3  1  0
  4  5  1  0
  4  3  1  0
  6  5  1  0
  7  6  1  0
  8 14  1  0
  9  8  2  0
 11 12  1  1
 11 10  1  0
 13 11  1  0
 13 15  1  0
 13 14  1  6
 15 16  2  0
 15 21  1  0
 18 17  1  6
 18 20  1  0
 18 19  1  0
 20 22  1  0
 20 21  1  6
 22 24  2  0
 22 23  1  0
M  END
$$$$
