KVV.pdb
     RDKit          3D

 24 23  0  0  1  0  0  0  0  0999 V2000
   23.2422  -20.4230  -15.2347 N   0  0  0  0  0  0  0  0  0  0  0  0
   22.7850  -21.4355  -14.3323 C   0  0  1  0  0  0  0  0  0  0  0  0
   22.4333  -22.6878  -15.0675 C   0  0  0  0  0  0  0  0  0  0  0  0
   21.0497  -22.7017  -15.5961 C   0  0  0  0  0  0  0  0  0  0  0  0
   20.8181  -21.9877  -16.8925 C   0  0  0  0  0  0  0  0  0  0  0  0
   21.0776  -22.9703  -18.0700 C   0  0  0  0  0  0  0  0  0  0  0  0
   22.2286  -22.4164  -18.7637 N   0  0  0  0  0  0  0  0  0  0  0  0
   23.8855  -21.6893  -13.3329 C   0  0  0  0  0  0  0  0  0  0  0  0
   23.8367  -22.6905  -12.5822 O   0  0  0  0  0  0  0  0  0  0  0  0
   27.6608  -21.7238  -14.1003 C   0  0  0  0  0  0  0  0  0  0  0  0
   27.4264  -20.8404  -12.9049 C   0  0  1  0  0  0  0  0  0  0  0  0
   27.6013  -19.3810  -13.1972 C   0  0  0  0  0  0  0  0  0  0  0  0
   26.0767  -21.0634  -12.2716 C   0  0  2  0  0  0  0  0  0  0  0  0
   24.9989  -20.8184  -13.2072 N   0  0  0  0  0  0  0  0  0  0  0  0
   25.9065  -20.2988  -11.0145 C   0  0  0  0  0  0  0  0  0  0  0  0
   25.4740  -19.1201  -11.0978 O   0  0  0  0  0  0  0  0  0  0  0  0
   25.8333  -21.9471   -6.9854 C   0  0  0  0  0  0  0  0  0  0  0  0
   25.1939  -20.7074   -7.5155 C   0  0  2  0  0  0  0  0  0  0  0  0
   23.8398  -21.0466   -8.0811 C   0  0  0  0  0  0  0  0  0  0  0  0
   26.0811  -20.0175   -8.5252 C   0  0  2  0  0  0  0  0  0  0  0  0
   26.1964  -20.8018   -9.7290 N   0  0  0  0  0  0  0  0  0  0  0  0
   27.3803  -19.6075   -7.9767 C   0  0  0  0  0  0  0  0  0  0  0  0
   27.4784  -18.5940   -7.0356 O   0  0  0  0  0  0  0  0  0  0  0  0
   28.4514  -20.1581   -8.3380 O   0  0  0  0  0  0  0  0  0  0  0  0
  2  1  1  6
  2  8  1  0
  2  3  1  0
  4  5  1  0
  4  3  1  0
  6  5  1  0
  7  6  1  0
  8 14  1  0
  9  8  2  0
 11 12  1  6
 11 10  1  0
 13 11  1  0
 13 15  1  0
 13 14  1  6
 15 16  2  0
 15 21  1  0
 18 17  1  6
 18 20  1  0
 18 19  1  0
 20 22  1  0
 20 21  1  6
 22 24  2  0
 22 23  1  0
M  END
$$$$
