KVV.pdb
     RDKit          3D

 24 23  0  0  1  0  0  0  0  0999 V2000
   23.4149  -21.5796  -16.1770 N   0  0  0  0  0  0  0  0  0  0  0  0
   24.1522  -20.4815  -15.6300 C   0  0  1  0  0  0  0  0  0  0  0  0
   23.2444  -19.3451  -15.2883 C   0  0  0  0  0  0  0  0  0  0  0  0
   21.8429  -19.5488  -15.7221 C   0  0  0  0  0  0  0  0  0  0  0  0
   20.9208  -20.1961  -14.7347 C   0  0  0  0  0  0  0  0  0  0  0  0
   19.4691  -20.1596  -15.2919 C   0  0  0  0  0  0  0  0  0  0  0  0
   18.6668  -20.8103  -14.2692 N   0  0  0  0  0  0  0  0  0  0  0  0
   24.8749  -20.9804  -14.4040 C   0  0  0  0  0  0  0  0  0  0  0  0
   24.3607  -21.8697  -13.6875 O   0  0  0  0  0  0  0  0  0  0  0  0
   28.7040  -21.9137  -14.2852 C   0  0  0  0  0  0  0  0  0  0  0  0
   28.3495  -21.0251  -13.1237 C   0  0  1  0  0  0  0  0  0  0  0  0
   28.8874  -19.6321  -13.2513 C   0  0  0  0  0  0  0  0  0  0  0  0
   26.8651  -20.9646  -12.8684 C   0  0  2  0  0  0  0  0  0  0  0  0
   26.1429  -20.4704  -14.0221 N   0  0  0  0  0  0  0  0  0  0  0  0
   26.5313  -20.2102  -11.6382 C   0  0  0  0  0  0  0  0  0  0  0  0
   26.3956  -18.9628  -11.7326 O   0  0  0  0  0  0  0  0  0  0  0  0
   25.0159  -21.9014   -7.9507 C   0  0  0  0  0  0  0  0  0  0  0  0
   24.8450  -20.5171   -8.4809 C   0  0  2  0  0  0  0  0  0  0  0  0
   23.6409  -20.4737   -9.3847 C   0  0  0  0  0  0  0  0  0  0  0  0
   26.0983  -20.0319   -9.1710 C   0  0  2  0  0  0  0  0  0  0  0  0
   26.3549  -20.7948  -10.3667 N   0  0  0  0  0  0  0  0  0  0  0  0
   27.2615  -19.9494   -8.2781 C   0  0  0  0  0  0  0  0  0  0  0  0
   27.3214  -19.0141   -7.2563 O   0  0  0  0  0  0  0  0  0  0  0  0
   28.2457  -20.7214   -8.4052 O   0  0  0  0  0  0  0  0  0  0  0  0
  2  1  1  1
  2  8  1  0
  2  3  1  0
  4  5  1  0
  4  3  1  0
  6  5  1  0
  7  6  1  0
  8 14  1  0
  9  8  2  0
 11 12  1  6
 11 10  1  0
 13 11  1  0
 13 15  1  0
 13 14  1  6
 15 16  2  0
 15 21  1  0
 18 17  1  6
 18 20  1  0
 18 19  1  0
 20 22  1  0
 20 21  1  6
 22 24  2  0
 22 23  1  0
M  END
$$$$
