KVV.pdb
     RDKit          3D

 24 23  0  0  1  0  0  0  0  0999 V2000
   26.5332  -19.9640  -15.0785 N   0  0  0  0  0  0  0  0  0  0  0  0
   27.2762  -18.9176  -14.4449 C   0  0  1  0  0  0  0  0  0  0  0  0
   27.1142  -17.6265  -15.1792 C   0  0  0  0  0  0  0  0  0  0  0  0
   27.7520  -17.6152  -16.5159 C   0  0  0  0  0  0  0  0  0  0  0  0
   28.9456  -18.5018  -16.6989 C   0  0  0  0  0  0  0  0  0  0  0  0
   29.4947  -18.3271  -18.1436 C   0  0  0  0  0  0  0  0  0  0  0  0
   30.6200  -19.2438  -18.2221 N   0  0  0  0  0  0  0  0  0  0  0  0
   26.7783  -18.7963  -13.0266 C   0  0  0  0  0  0  0  0  0  0  0  0
   26.9639  -17.7389  -12.3817 O   0  0  0  0  0  0  0  0  0  0  0  0
   23.1761  -19.7003  -12.0811 C   0  0  0  0  0  0  0  0  0  0  0  0
   24.0899  -20.2995  -11.0465 C   0  0  1  0  0  0  0  0  0  0  0  0
   24.1889  -21.7925  -11.1299 C   0  0  0  0  0  0  0  0  0  0  0  0
   25.4751  -19.7057  -11.0788 C   0  0  2  0  0  0  0  0  0  0  0  0
   26.0925  -19.8571  -12.3799 N   0  0  0  0  0  0  0  0  0  0  0  0
   26.3382  -20.2196   -9.9903 C   0  0  0  0  0  0  0  0  0  0  0  0
   26.9833  -21.2789  -10.2027 O   0  0  0  0  0  0  0  0  0  0  0  0
   28.9522  -19.7108   -5.9120 C   0  0  0  0  0  0  0  0  0  0  0  0
   27.9909  -19.1127   -6.8839 C   0  0  2  0  0  0  0  0  0  0  0  0
   27.0641  -18.1742   -6.1565 C   0  0  0  0  0  0  0  0  0  0  0  0
   27.2430  -20.1800   -7.6481 C   0  0  2  0  0  0  0  0  0  0  0  0
   26.4867  -19.6025   -8.7308 N   0  0  0  0  0  0  0  0  0  0  0  0
   26.4406  -21.0596   -6.7882 C   0  0  0  0  0  0  0  0  0  0  0  0
   27.0370  -21.9989   -5.9608 O   0  0  0  0  0  0  0  0  0  0  0  0
   25.1851  -20.9953   -6.7687 O   0  0  0  0  0  0  0  0  0  0  0  0
  2  1  1  6
  2  8  1  0
  2  3  1  0
  4  5  1  0
  4  3  1  0
  6  5  1  0
  7  6  1  0
  8 14  1  0
  9  8  2  0
 11 12  1  6
 11 10  1  0
 13 11  1  0
 13 15  1  0
 13 14  1  6
 15 16  2  0
 15 21  1  0
 18 17  1  1
 18 20  1  0
 18 19  1  0
 20 22  1  0
 20 21  1  6
 22 24  2  0
 22 23  1  0
M  END
$$$$
