KVV.pdb
     RDKit          3D

 24 23  0  0  1  0  0  0  0  0999 V2000
   25.9511  -20.4343  -14.3120 N   0  0  0  0  0  0  0  0  0  0  0  0
   27.0210  -20.2060  -13.3891 C   0  0  1  0  0  0  0  0  0  0  0  0
   27.9296  -19.1264  -13.8804 C   0  0  0  0  0  0  0  0  0  0  0  0
   28.2410  -19.2190  -15.3254 C   0  0  0  0  0  0  0  0  0  0  0  0
   27.5892  -18.2094  -16.2198 C   0  0  0  0  0  0  0  0  0  0  0  0
   28.1604  -18.3579  -17.6589 C   0  0  0  0  0  0  0  0  0  0  0  0
   29.4631  -17.7153  -17.6051 N   0  0  0  0  0  0  0  0  0  0  0  0
   26.4096  -19.8325  -12.0622 C   0  0  0  0  0  0  0  0  0  0  0  0
   25.5051  -18.9681  -12.0059 O   0  0  0  0  0  0  0  0  0  0  0  0
   24.1058  -20.9940   -8.2764 C   0  0  0  0  0  0  0  0  0  0  0  0
   24.8044  -21.0294   -9.6087 C   0  0  1  0  0  0  0  0  0  0  0  0
   23.9515  -20.5488  -10.7434 C   0  0  0  0  0  0  0  0  0  0  0  0
   26.1047  -20.2667   -9.6050 C   0  0  2  0  0  0  0  0  0  0  0  0
   26.8284  -20.4357  -10.8478 N   0  0  0  0  0  0  0  0  0  0  0  0
   26.9437  -20.5814   -8.4256 C   0  0  0  0  0  0  0  0  0  0  0  0
   27.4250  -21.7408   -8.3397 O   0  0  0  0  0  0  0  0  0  0  0  0
   29.8675  -19.2577   -4.7466 C   0  0  0  0  0  0  0  0  0  0  0  0
   28.9360  -18.8658   -5.8445 C   0  0  2  0  0  0  0  0  0  0  0  0
   28.1632  -17.6411   -5.4304 C   0  0  0  0  0  0  0  0  0  0  0  0
   28.0309  -20.0107   -6.2351 C   0  0  2  0  0  0  0  0  0  0  0  0
   27.2405  -19.6697   -7.3912 N   0  0  0  0  0  0  0  0  0  0  0  0
   27.2283  -20.5271   -5.1188 C   0  0  0  0  0  0  0  0  0  0  0  0
   25.8427  -20.4842   -5.1464 O   0  0  0  0  0  0  0  0  0  0  0  0
   27.7648  -21.0269   -4.0974 O   0  0  0  0  0  0  0  0  0  0  0  0
  2  1  1  6
  2  8  1  0
  2  3  1  0
  4  5  1  0
  4  3  1  0
  6  5  1  0
  7  6  1  0
  8 14  1  0
  9  8  2  0
 11 12  1  6
 11 10  1  0
 13 11  1  0
 13 15  1  0
 13 14  1  6
 15 16  2  0
 15 21  1  0
 18 17  1  1
 18 20  1  0
 18 19  1  0
 20 22  1  0
 20 21  1  6
 22 24  2  0
 22 23  1  0
M  END
$$$$
