KVV.pdb
     RDKit          3D

 24 23  0  0  1  0  0  0  0  0999 V2000
   28.6679  -22.5597  -16.2348 N   0  0  0  0  0  0  0  0  0  0  0  0
   27.5691  -21.6438  -16.1877 C   0  0  1  0  0  0  0  0  0  0  0  0
   26.9641  -21.4643  -17.5420 C   0  0  0  0  0  0  0  0  0  0  0  0
   27.7112  -20.5254  -18.4105 C   0  0  0  0  0  0  0  0  0  0  0  0
   28.2103  -19.2676  -17.7680 C   0  0  0  0  0  0  0  0  0  0  0  0
   28.9607  -18.4146  -18.8303 C   0  0  0  0  0  0  0  0  0  0  0  0
   29.4576  -17.2644  -18.0935 N   0  0  0  0  0  0  0  0  0  0  0  0
   26.5566  -22.1927  -15.2143 C   0  0  0  0  0  0  0  0  0  0  0  0
   26.3549  -23.4268  -15.1435 O   0  0  0  0  0  0  0  0  0  0  0  0
   26.5665  -21.8129  -11.5774 C   0  0  0  0  0  0  0  0  0  0  0  0
   25.1729  -21.4287  -11.9951 C   0  0  1  0  0  0  0  0  0  0  0  0
   24.8873  -19.9649  -11.8475 C   0  0  0  0  0  0  0  0  0  0  0  0
   24.8464  -21.8606  -13.4020 C   0  0  2  0  0  0  0  0  0  0  0  0
   25.8066  -21.3469  -14.3565 N   0  0  0  0  0  0  0  0  0  0  0  0
   23.4529  -21.5373  -13.7858 C   0  0  0  0  0  0  0  0  0  0  0  0
   23.2216  -20.3889  -14.2452 O   0  0  0  0  0  0  0  0  0  0  0  0
   20.1972  -24.4281  -14.0444 C   0  0  0  0  0  0  0  0  0  0  0  0
   20.3822  -23.1889  -14.8548 C   0  0  2  0  0  0  0  0  0  0  0  0
   21.1777  -23.5152  -16.0915 C   0  0  0  0  0  0  0  0  0  0  0  0
   21.0155  -22.0859  -14.0395 C   0  0  2  0  0  0  0  0  0  0  0  0
   22.3662  -22.4292  -13.6717 N   0  0  0  0  0  0  0  0  0  0  0  0
   20.1964  -21.6606  -12.8971 C   0  0  0  0  0  0  0  0  0  0  0  0
   19.0818  -20.8541  -13.0692 O   0  0  0  0  0  0  0  0  0  0  0  0
   20.4731  -22.0104  -11.7215 O   0  0  0  0  0  0  0  0  0  0  0  0
  2  1  1  6
  2  8  1  0
  2  3  1  0
  4  5  1  0
  4  3  1  0
  6  5  1  0
  7  6  1  0
  8 14  1  0
  9  8  2  0
 11 12  1  6
 11 10  1  0
 13 11  1  0
 13 15  1  0
 13 14  1  6
 15 16  2  0
 15 21  1  0
 18 17  1  1
 18 20  1  0
 18 19  1  0
 20 22  1  0
 20 21  1  1
 22 24  2  0
 22 23  1  0
M  END
$$$$
