KVV.pdb
     RDKit          3D

 24 23  0  0  1  0  0  0  0  0999 V2000
   22.8970  -18.1567  -17.9267 N   0  0  0  0  0  0  0  0  0  0  0  0
   23.2216  -17.6610  -16.6239 C   0  0  1  0  0  0  0  0  0  0  0  0
   21.9849  -17.4108  -15.8236 C   0  0  0  0  0  0  0  0  0  0  0  0
   20.7618  -17.2597  -16.6453 C   0  0  0  0  0  0  0  0  0  0  0  0
   19.8570  -18.4507  -16.7295 C   0  0  0  0  0  0  0  0  0  0  0  0
   18.5408  -18.0420  -17.4505 C   0  0  0  0  0  0  0  0  0  0  0  0
   18.6222  -18.6810  -18.7535 N   0  0  0  0  0  0  0  0  0  0  0  0
   24.1006  -18.6846  -15.9502 C   0  0  0  0  0  0  0  0  0  0  0  0
   23.6239  -19.7849  -15.5889 O   0  0  0  0  0  0  0  0  0  0  0  0
   27.7528  -19.6700  -17.1345 C   0  0  0  0  0  0  0  0  0  0  0  0
   27.7309  -19.3950  -15.6552 C   0  0  1  0  0  0  0  0  0  0  0  0
   28.3959  -18.1062  -15.2773 C   0  0  0  0  0  0  0  0  0  0  0  0
   26.3387  -19.4254  -15.0777 C   0  0  2  0  0  0  0  0  0  0  0  0
   25.4774  -18.4443  -15.7042 N   0  0  0  0  0  0  0  0  0  0  0  0
   26.3343  -19.3075  -13.6012 C   0  0  0  0  0  0  0  0  0  0  0  0
   26.3632  -18.1519  -13.1041 O   0  0  0  0  0  0  0  0  0  0  0  0
   25.1552  -20.2822   -9.1460 C   0  0  0  0  0  0  0  0  0  0  0  0
   25.1086  -20.6019  -10.6027 C   0  0  2  0  0  0  0  0  0  0  0  0
   24.7203  -22.0458  -10.7849 C   0  0  0  0  0  0  0  0  0  0  0  0
   26.4159  -20.2690  -11.2828 C   0  0  2  0  0  0  0  0  0  0  0  0
   26.2999  -20.4028  -12.7133 N   0  0  0  0  0  0  0  0  0  0  0  0
   27.5648  -20.9952  -10.7263 C   0  0  0  0  0  0  0  0  0  0  0  0
   28.1259  -20.6346   -9.5107 O   0  0  0  0  0  0  0  0  0  0  0  0
   28.0830  -21.9696  -11.3288 O   0  0  0  0  0  0  0  0  0  0  0  0
  2  1  1  6
  2  8  1  0
  2  3  1  0
  4  5  1  0
  4  3  1  0
  6  5  1  0
  7  6  1  0
  8 14  1  0
  9  8  2  0
 11 12  1  6
 11 10  1  0
 13 11  1  0
 13 15  1  0
 13 14  1  6
 15 16  2  0
 15 21  1  0
 18 17  1  1
 18 20  1  0
 18 19  1  0
 20 22  1  0
 20 21  1  6
 22 24  2  0
 22 23  1  0
M  END
$$$$
