TFT.pdb
     RDKit          3D

 26 26  0  0  1  0  0  0  0  0999 V2000
    7.5999  -18.3560   20.7073 C   0  0  0  0  0  0  0  0  0  0  0  0
    8.7633  -17.9475   19.8332 C   0  0  1  0  0  0  0  0  0  0  0  0
    8.7007  -18.6353   18.6406 O   0  0  0  0  0  0  0  0  0  0  0  0
    8.7478  -16.4619   19.6726 C   0  0  2  0  0  0  0  0  0  0  0  0
    9.7211  -15.9868   18.7431 N   0  0  0  0  0  0  0  0  0  0  0  0
    8.9395  -15.7776   20.9888 C   0  0  0  0  0  0  0  0  0  0  0  0
   10.0695  -15.6521   21.5076 O   0  0  0  0  0  0  0  0  0  0  0  0
    7.8538  -15.2345   21.7201 N   0  0  0  0  0  0  0  0  0  0  0  0
    8.0015  -14.6670   23.0265 C   0  0  1  0  0  0  0  0  0  0  0  0
    6.9440  -13.7525   23.4678 C   0  0  0  0  0  0  0  0  0  0  0  0
    7.0159  -13.2432   24.8391 C   0  0  0  0  0  0  0  0  0  0  0  0
    6.2816  -13.7585   25.8944 C   0  0  0  0  0  0  0  0  0  0  0  0
    6.3642  -13.2460   27.1578 C   0  0  0  0  0  0  0  0  0  0  0  0
    7.1958  -12.1833   27.4195 C   0  0  0  0  0  0  0  0  0  0  0  0
    7.9432  -11.6405   26.4001 C   0  0  0  0  0  0  0  0  0  0  0  0
    7.8404  -12.1779   25.1320 C   0  0  0  0  0  0  0  0  0  0  0  0
    8.1728  -15.7935   23.9915 C   0  0  0  0  0  0  0  0  0  0  0  0
    7.2521  -16.6809   24.0889 O   0  0  0  0  0  0  0  0  0  0  0  0
   10.2717  -18.5577   23.8816 C   0  0  0  0  0  0  0  0  0  0  0  0
   10.6195  -18.0170   25.2667 C   0  0  1  0  0  0  0  0  0  0  0  0
   11.9099  -17.4604   25.1441 O   0  0  0  0  0  0  0  0  0  0  0  0
    9.6295  -16.9994   25.7277 C   0  0  2  0  0  0  0  0  0  0  0  0
    9.3011  -15.9638   24.8236 N   0  0  0  0  0  0  0  0  0  0  0  0
    9.8204  -16.6255   27.1557 C   0  0  0  0  0  0  0  0  0  0  0  0
    9.9639  -17.6554   28.1252 O   0  0  0  0  0  0  0  0  0  0  0  0
    9.8744  -15.4864   27.6432 O   0  0  0  0  0  0  0  0  0  0  0  0
  2  1  1  1
  2  3  1  0
  2  4  1  0
  4  6  1  0
  4  5  1  6
  6  7  2  0
  8  9  1  0
  8  6  1  0
  9 10  1  1
 10 11  1  0
 11 16  2  0
 12 11  1  0
 12 13  2  0
 13 14  1  0
 14 15  2  0
 16 15  1  0
 17 18  2  0
 17  9  1  0
 20 19  1  6
 20 22  1  0
 21 20  1  0
 22 24  1  0
 22 23  1  6
 23 17  1  0
 24 25  1  0
 26 24  2  0
M  END
$$$$
