TFT.pdb
     RDKit          3D

 26 26  0  0  1  0  0  0  0  0999 V2000
    7.2991  -14.7232   17.1036 C   0  0  0  0  0  0  0  0  0  0  0  0
    7.7200  -14.8559   18.5491 C   0  0  1  0  0  0  0  0  0  0  0  0
    8.9291  -15.5142   18.6130 O   0  0  0  0  0  0  0  0  0  0  0  0
    7.7407  -13.4978   19.1722 C   0  0  2  0  0  0  0  0  0  0  0  0
    8.6161  -12.5876   18.5073 N   0  0  0  0  0  0  0  0  0  0  0  0
    8.1094  -13.5769   20.6198 C   0  0  0  0  0  0  0  0  0  0  0  0
    9.2923  -13.4591   21.0056 O   0  0  0  0  0  0  0  0  0  0  0  0
    7.1413  -13.7894   21.6327 N   0  0  0  0  0  0  0  0  0  0  0  0
    7.4561  -13.7582   23.0293 C   0  0  1  0  0  0  0  0  0  0  0  0
    6.4494  -13.1662   23.9156 C   0  0  0  0  0  0  0  0  0  0  0  0
    6.7617  -13.0943   25.3446 C   0  0  0  0  0  0  0  0  0  0  0  0
    7.7373  -12.2709   25.8820 C   0  0  0  0  0  0  0  0  0  0  0  0
    8.0105  -12.2430   27.2200 C   0  0  0  0  0  0  0  0  0  0  0  0
    7.3093  -13.0484   28.0855 C   0  0  0  0  0  0  0  0  0  0  0  0
    6.3315  -13.8820   27.5940 C   0  0  0  0  0  0  0  0  0  0  0  0
    6.0758  -13.8905   26.2368 C   0  0  0  0  0  0  0  0  0  0  0  0
    7.7860  -15.1527   23.4491 C   0  0  0  0  0  0  0  0  0  0  0  0
    6.9257  -16.0846   23.2588 O   0  0  0  0  0  0  0  0  0  0  0  0
   10.3056  -17.3443   22.1574 C   0  0  0  0  0  0  0  0  0  0  0  0
   10.5865  -17.4041   23.6571 C   0  0  1  0  0  0  0  0  0  0  0  0
   11.7916  -16.6957   23.8464 O   0  0  0  0  0  0  0  0  0  0  0  0
    9.4736  -16.8068   24.4525 C   0  0  2  0  0  0  0  0  0  0  0  0
    9.0048  -15.5351   24.0512 N   0  0  0  0  0  0  0  0  0  0  0  0
    9.6227  -17.0509   25.9132 C   0  0  0  0  0  0  0  0  0  0  0  0
    9.4893  -15.9579   26.8124 O   0  0  0  0  0  0  0  0  0  0  0  0
    9.8586  -18.1261   26.4846 O   0  0  0  0  0  0  0  0  0  0  0  0
  2  1  1  6
  2  3  1  0
  2  4  1  0
  4  6  1  0
  4  5  1  6
  6  7  2  0
  8  9  1  0
  8  6  1  0
  9 10  1  1
 10 11  1  0
 11 16  2  0
 12 11  1  0
 12 13  2  0
 13 14  1  0
 14 15  2  0
 16 15  1  0
 17 18  2  0
 17  9  1  0
 20 19  1  6
 20 22  1  0
 21 20  1  0
 22 24  1  0
 22 23  1  1
 23 17  1  0
 24 25  1  0
 26 24  2  0
M  END
$$$$
