TFT.pdb
     RDKit          3D

 26 26  0  0  1  0  0  0  0  0999 V2000
    8.5536  -18.4400   18.5710 C   0  0  0  0  0  0  0  0  0  0  0  0
    8.7334  -17.9033   19.9724 C   0  0  1  0  0  0  0  0  0  0  0  0
    9.6376  -18.6923   20.6500 O   0  0  0  0  0  0  0  0  0  0  0  0
    9.1321  -16.4654   19.8909 C   0  0  2  0  0  0  0  0  0  0  0  0
   10.3589  -16.2612   19.1907 N   0  0  0  0  0  0  0  0  0  0  0  0
    9.2287  -15.8570   21.2540 C   0  0  0  0  0  0  0  0  0  0  0  0
   10.3245  -15.7242   21.8400 O   0  0  0  0  0  0  0  0  0  0  0  0
    8.0864  -15.3981   21.9562 N   0  0  0  0  0  0  0  0  0  0  0  0
    8.1642  -14.7534   23.2324 C   0  0  1  0  0  0  0  0  0  0  0  0
    7.0158  -13.9296   23.6222 C   0  0  0  0  0  0  0  0  0  0  0  0
    7.0407  -13.3164   24.9519 C   0  0  0  0  0  0  0  0  0  0  0  0
    6.2959  -13.7720   26.0272 C   0  0  0  0  0  0  0  0  0  0  0  0
    6.3340  -13.1635   27.2494 C   0  0  0  0  0  0  0  0  0  0  0  0
    7.1293  -12.0599   27.4475 C   0  0  0  0  0  0  0  0  0  0  0  0
    7.8855  -11.5737   26.4062 C   0  0  0  0  0  0  0  0  0  0  0  0
    7.8280  -12.2082   25.1808 C   0  0  0  0  0  0  0  0  0  0  0  0
    8.4395  -15.8066   24.2544 C   0  0  0  0  0  0  0  0  0  0  0  0
    7.5481  -16.6973   24.4925 O   0  0  0  0  0  0  0  0  0  0  0  0
   11.3498  -18.0821   24.0816 C   0  0  0  0  0  0  0  0  0  0  0  0
   11.3547  -17.6093   25.5335 C   0  0  1  0  0  0  0  0  0  0  0  0
   12.4727  -16.7572   25.6516 O   0  0  0  0  0  0  0  0  0  0  0  0
   10.0902  -16.9002   25.8886 C   0  0  2  0  0  0  0  0  0  0  0  0
    9.6380  -15.9025   24.9952 N   0  0  0  0  0  0  0  0  0  0  0  0
    9.9894  -16.6106   27.3450 C   0  0  0  0  0  0  0  0  0  0  0  0
   10.2352  -17.6573   28.2751 O   0  0  0  0  0  0  0  0  0  0  0  0
    9.7072  -15.5320   27.8885 O   0  0  0  0  0  0  0  0  0  0  0  0
  2  1  1  6
  2  3  1  0
  2  4  1  0
  4  6  1  0
  4  5  1  1
  6  7  2  0
  8  9  1  0
  8  6  1  0
  9 10  1  1
 10 11  1  0
 11 16  2  0
 12 11  1  0
 12 13  2  0
 13 14  1  0
 14 15  2  0
 16 15  1  0
 17 18  2  0
 17  9  1  0
 20 19  1  6
 20 22  1  0
 21 20  1  0
 22 24  1  0
 22 23  1  6
 23 17  1  0
 24 25  1  0
 26 24  2  0
M  END
$$$$
