TFT.pdb
     RDKit          3D

 26 26  0  0  1  0  0  0  0  0999 V2000
    7.4925  -18.1765   20.4887 C   0  0  0  0  0  0  0  0  0  0  0  0
    8.4157  -17.4665   19.5254 C   0  0  1  0  0  0  0  0  0  0  0  0
    8.3361  -18.0703   18.2891 O   0  0  0  0  0  0  0  0  0  0  0  0
    8.0699  -16.0128   19.5084 C   0  0  2  0  0  0  0  0  0  0  0  0
    8.7022  -15.2970   18.4478 N   0  0  0  0  0  0  0  0  0  0  0  0
    8.4042  -15.3663   20.8152 C   0  0  0  0  0  0  0  0  0  0  0  0
    9.5667  -14.9988   21.0901 O   0  0  0  0  0  0  0  0  0  0  0  0
    7.4246  -15.1345   21.8129 N   0  0  0  0  0  0  0  0  0  0  0  0
    7.7375  -14.5881   23.0990 C   0  0  1  0  0  0  0  0  0  0  0  0
    6.7372  -13.6966   23.6939 C   0  0  0  0  0  0  0  0  0  0  0  0
    6.9857  -13.2082   25.0520 C   0  0  0  0  0  0  0  0  0  0  0  0
    7.6858  -12.0483   25.3401 C   0  0  0  0  0  0  0  0  0  0  0  0
    7.9110  -11.6329   26.6217 C   0  0  0  0  0  0  0  0  0  0  0  0
    7.4385  -12.3712   27.6805 C   0  0  0  0  0  0  0  0  0  0  0  0
    6.7380  -13.5304   27.4395 C   0  0  0  0  0  0  0  0  0  0  0  0
    6.5248  -13.9274   26.1340 C   0  0  0  0  0  0  0  0  0  0  0  0
    8.0485  -15.7289   24.0108 C   0  0  0  0  0  0  0  0  0  0  0  0
    7.1570  -16.6275   24.2170 O   0  0  0  0  0  0  0  0  0  0  0  0
   10.3233  -18.3973   23.5951 C   0  0  0  0  0  0  0  0  0  0  0  0
   10.7295  -17.8921   24.9776 C   0  0  1  0  0  0  0  0  0  0  0  0
   11.9871  -17.2775   24.8030 O   0  0  0  0  0  0  0  0  0  0  0  0
    9.7282  -16.9343   25.5327 C   0  0  2  0  0  0  0  0  0  0  0  0
    9.2814  -15.9014   24.6776 N   0  0  0  0  0  0  0  0  0  0  0  0
   10.0081  -16.5757   26.9500 C   0  0  0  0  0  0  0  0  0  0  0  0
   10.2451  -17.6150   27.8905 O   0  0  0  0  0  0  0  0  0  0  0  0
   10.0664  -15.4425   27.4507 O   0  0  0  0  0  0  0  0  0  0  0  0
  2  1  1  1
  2  3  1  0
  2  4  1  0
  4  6  1  0
  4  5  1  6
  6  7  2  0
  8  9  1  0
  8  6  1  0
  9 10  1  1
 10 11  1  0
 11 16  2  0
 12 11  1  0
 12 13  2  0
 13 14  1  0
 14 15  2  0
 16 15  1  0
 17 18  2  0
 17  9  1  0
 20 19  1  6
 20 22  1  0
 21 20  1  0
 22 24  1  0
 22 23  1  6
 23 17  1  0
 24 25  1  0
 26 24  2  0
M  END
$$$$
