TFT.pdb
     RDKit          3D

 26 26  0  0  1  0  0  0  0  0999 V2000
    8.1399  -18.5848   18.4640 C   0  0  0  0  0  0  0  0  0  0  0  0
    8.3723  -18.0513   19.8589 C   0  0  1  0  0  0  0  0  0  0  0  0
    9.1638  -18.9359   20.5590 O   0  0  0  0  0  0  0  0  0  0  0  0
    8.9490  -16.6763   19.7597 C   0  0  2  0  0  0  0  0  0  0  0  0
   10.1984  -16.6392   19.0708 N   0  0  0  0  0  0  0  0  0  0  0  0
    9.1079  -16.0618   21.1142 C   0  0  0  0  0  0  0  0  0  0  0  0
   10.2223  -15.9804   21.6740 O   0  0  0  0  0  0  0  0  0  0  0  0
    8.0071  -15.5387   21.8374 N   0  0  0  0  0  0  0  0  0  0  0  0
    8.1466  -14.8914   23.1071 C   0  0  1  0  0  0  0  0  0  0  0  0
    7.0942  -13.9404   23.4777 C   0  0  0  0  0  0  0  0  0  0  0  0
    7.1795  -13.3150   24.7992 C   0  0  0  0  0  0  0  0  0  0  0  0
    6.3507  -13.6365   25.8613 C   0  0  0  0  0  0  0  0  0  0  0  0
    6.4507  -13.0194   27.0758 C   0  0  0  0  0  0  0  0  0  0  0  0
    7.3966  -12.0430   27.2790 C   0  0  0  0  0  0  0  0  0  0  0  0
    8.2406  -11.6924   26.2506 C   0  0  0  0  0  0  0  0  0  0  0  0
    8.1175  -12.3321   25.0329 C   0  0  0  0  0  0  0  0  0  0  0  0
    8.2954  -15.9565   24.1430 C   0  0  0  0  0  0  0  0  0  0  0  0
    7.3383  -16.7899   24.3271 O   0  0  0  0  0  0  0  0  0  0  0  0
   10.4339  -18.7580   24.1199 C   0  0  0  0  0  0  0  0  0  0  0  0
   10.7706  -18.1491   25.4792 C   0  0  1  0  0  0  0  0  0  0  0  0
   12.0513  -17.5765   25.3321 O   0  0  0  0  0  0  0  0  0  0  0  0
    9.7627  -17.1290   25.8932 C   0  0  2  0  0  0  0  0  0  0  0  0
    9.4397  -16.1237   24.9536 N   0  0  0  0  0  0  0  0  0  0  0  0
    9.9249  -16.7117   27.3127 C   0  0  0  0  0  0  0  0  0  0  0  0
   10.0468  -17.7114   28.3160 O   0  0  0  0  0  0  0  0  0  0  0  0
    9.9708  -15.5581   27.7661 O   0  0  0  0  0  0  0  0  0  0  0  0
  2  1  1  6
  2  3  1  0
  2  4  1  0
  4  6  1  0
  4  5  1  1
  6  7  2  0
  8  9  1  0
  8  6  1  0
  9 10  1  1
 10 11  1  0
 11 16  2  0
 12 11  1  0
 12 13  2  0
 13 14  1  0
 14 15  2  0
 16 15  1  0
 17 18  2  0
 17  9  1  0
 20 19  1  6
 20 22  1  0
 21 20  1  0
 22 24  1  0
 22 23  1  6
 23 17  1  0
 24 25  1  0
 26 24  2  0
M  END
$$$$
