TFT.pdb
     RDKit          3D

 26 26  0  0  1  0  0  0  0  0999 V2000
    7.4797  -18.6428   18.8360 C   0  0  0  0  0  0  0  0  0  0  0  0
    7.8894  -18.0150   20.1485 C   0  0  1  0  0  0  0  0  0  0  0  0
    8.9930  -18.6749   20.6443 O   0  0  0  0  0  0  0  0  0  0  0  0
    8.1082  -16.5521   19.9360 C   0  0  2  0  0  0  0  0  0  0  0  0
    9.1362  -16.2695   18.9872 N   0  0  0  0  0  0  0  0  0  0  0  0
    8.4178  -15.8627   21.2269 C   0  0  0  0  0  0  0  0  0  0  0  0
    9.5766  -15.4943   21.5156 O   0  0  0  0  0  0  0  0  0  0  0  0
    7.4176  -15.5889   22.1929 N   0  0  0  0  0  0  0  0  0  0  0  0
    7.6990  -14.9595   23.4480 C   0  0  1  0  0  0  0  0  0  0  0  0
    6.5921  -14.2369   24.0822 C   0  0  0  0  0  0  0  0  0  0  0  0
    6.8639  -13.5571   25.3505 C   0  0  0  0  0  0  0  0  0  0  0  0
    6.9509  -14.2052   26.5715 C   0  0  0  0  0  0  0  0  0  0  0  0
    7.1907  -13.5340   27.7367 C   0  0  0  0  0  0  0  0  0  0  0  0
    7.3554  -12.1694   27.7269 C   0  0  0  0  0  0  0  0  0  0  0  0
    7.2766  -11.4857   26.5357 C   0  0  0  0  0  0  0  0  0  0  0  0
    7.0329  -12.1891   25.3724 C   0  0  0  0  0  0  0  0  0  0  0  0
    8.2517  -16.0025   24.3624 C   0  0  0  0  0  0  0  0  0  0  0  0
    7.4887  -16.9516   24.7645 O   0  0  0  0  0  0  0  0  0  0  0  0
   11.5880  -17.8117   23.6823 C   0  0  0  0  0  0  0  0  0  0  0  0
   11.6049  -17.4272   25.1600 C   0  0  1  0  0  0  0  0  0  0  0  0
   12.5633  -16.3985   25.2738 O   0  0  0  0  0  0  0  0  0  0  0  0
   10.2622  -16.9743   25.6290 C   0  0  2  0  0  0  0  0  0  0  0  0
    9.5850  -16.0275   24.8273 N   0  0  0  0  0  0  0  0  0  0  0  0
   10.2086  -16.7842   27.1043 C   0  0  0  0  0  0  0  0  0  0  0  0
   10.6952  -17.8173   27.9510 O   0  0  0  0  0  0  0  0  0  0  0  0
    9.7782  -15.8036   27.7299 O   0  0  0  0  0  0  0  0  0  0  0  0
  2  1  1  6
  2  3  1  0
  2  4  1  0
  4  6  1  0
  4  5  1  6
  6  7  2  0
  8  9  1  0
  8  6  1  0
  9 10  1  1
 10 11  1  0
 11 16  2  0
 12 11  1  0
 12 13  2  0
 13 14  1  0
 14 15  2  0
 16 15  1  0
 17 18  2  0
 17  9  1  0
 20 19  1  6
 20 22  1  0
 21 20  1  0
 22 24  1  0
 22 23  1  6
 23 17  1  0
 24 25  1  0
 26 24  2  0
M  END
$$$$
