TFT.pdb
     RDKit          3D

 26 26  0  0  1  0  0  0  0  0999 V2000
    6.9374  -17.7511   19.1208 C   0  0  0  0  0  0  0  0  0  0  0  0
    7.5828  -17.3543   20.4286 C   0  0  1  0  0  0  0  0  0  0  0  0
    8.7601  -18.0532   20.5862 O   0  0  0  0  0  0  0  0  0  0  0  0
    7.7565  -15.8702   20.4502 C   0  0  2  0  0  0  0  0  0  0  0  0
    8.5531  -15.3819   19.3713 N   0  0  0  0  0  0  0  0  0  0  0  0
    8.3444  -15.4175   21.7490 C   0  0  0  0  0  0  0  0  0  0  0  0
    9.5489  -15.1003   21.8519 O   0  0  0  0  0  0  0  0  0  0  0  0
    7.5713  -15.3228   22.9330 N   0  0  0  0  0  0  0  0  0  0  0  0
    8.1251  -14.9353   24.1954 C   0  0  1  0  0  0  0  0  0  0  0  0
    7.1976  -14.3442   25.1649 C   0  0  0  0  0  0  0  0  0  0  0  0
    7.7468  -13.9080   26.4505 C   0  0  0  0  0  0  0  0  0  0  0  0
    8.1778  -12.6172   26.7087 C   0  0  0  0  0  0  0  0  0  0  0  0
    8.6993  -12.2517   27.9170 C   0  0  0  0  0  0  0  0  0  0  0  0
    8.8122  -13.1751   28.9289 C   0  0  0  0  0  0  0  0  0  0  0  0
    8.3963  -14.4690   28.7151 C   0  0  0  0  0  0  0  0  0  0  0  0
    7.8730  -14.8116   27.4838 C   0  0  0  0  0  0  0  0  0  0  0  0
    8.8141  -16.1281   24.7716 C   0  0  0  0  0  0  0  0  0  0  0  0
    8.1255  -17.1704   25.0616 O   0  0  0  0  0  0  0  0  0  0  0  0
   11.9188  -17.8629   23.3252 C   0  0  0  0  0  0  0  0  0  0  0  0
   12.2137  -17.6334   24.8057 C   0  0  1  0  0  0  0  0  0  0  0  0
   13.1848  -16.6110   24.8455 O   0  0  0  0  0  0  0  0  0  0  0  0
   10.9856  -17.2471   25.5610 C   0  0  2  0  0  0  0  0  0  0  0  0
   10.2016  -16.2005   25.0245 N   0  0  0  0  0  0  0  0  0  0  0  0
   11.1963  -17.2575   27.0344 C   0  0  0  0  0  0  0  0  0  0  0  0
   11.8264  -18.3825   27.6331 O   0  0  0  0  0  0  0  0  0  0  0  0
   10.8844  -16.3803   27.8538 O   0  0  0  0  0  0  0  0  0  0  0  0
  2  1  1  6
  2  3  1  0
  2  4  1  0
  4  6  1  0
  4  5  1  6
  6  7  2  0
  8  9  1  0
  8  6  1  0
  9 10  1  1
 10 11  1  0
 11 16  2  0
 12 11  1  0
 12 13  2  0
 13 14  1  0
 14 15  2  0
 16 15  1  0
 17 18  2  0
 17  9  1  0
 20 19  1  6
 20 22  1  0
 21 20  1  0
 22 24  1  0
 22 23  1  6
 23 17  1  0
 24 25  1  0
 26 24  2  0
M  END
$$$$
