TFT.pdb
     RDKit          3D

 26 26  0  0  1  0  0  0  0  0999 V2000
    7.5546  -18.3599   20.5720 C   0  0  0  0  0  0  0  0  0  0  0  0
    8.6212  -17.9128   19.5989 C   0  0  1  0  0  0  0  0  0  0  0  0
    8.4801  -18.6076   18.4172 O   0  0  0  0  0  0  0  0  0  0  0  0
    8.5368  -16.4294   19.4386 C   0  0  2  0  0  0  0  0  0  0  0  0
    9.4205  -15.9208   18.4399 N   0  0  0  0  0  0  0  0  0  0  0  0
    8.7978  -15.7335   20.7367 C   0  0  0  0  0  0  0  0  0  0  0  0
    9.9571  -15.5633   21.1713 O   0  0  0  0  0  0  0  0  0  0  0  0
    7.7484  -15.2292   21.5448 N   0  0  0  0  0  0  0  0  0  0  0  0
    7.9647  -14.6870   22.8524 C   0  0  1  0  0  0  0  0  0  0  0  0
    6.9193  -13.8033   23.3772 C   0  0  0  0  0  0  0  0  0  0  0  0
    7.0866  -13.2876   24.7377 C   0  0  0  0  0  0  0  0  0  0  0  0
    7.9126  -12.2253   25.0654 C   0  0  0  0  0  0  0  0  0  0  0  0
    8.0546  -11.7824   26.3496 C   0  0  0  0  0  0  0  0  0  0  0  0
    7.3667  -12.3928   27.3712 C   0  0  0  0  0  0  0  0  0  0  0  0
    6.5352  -13.4522   27.0902 C   0  0  0  0  0  0  0  0  0  0  0  0
    6.4103  -13.8798   25.7829 C   0  0  0  0  0  0  0  0  0  0  0  0
    8.2150  -15.8304   23.7796 C   0  0  0  0  0  0  0  0  0  0  0  0
    7.3431  -16.7665   23.8700 O   0  0  0  0  0  0  0  0  0  0  0  0
   10.4698  -18.4204   23.4894 C   0  0  0  0  0  0  0  0  0  0  0  0
   10.8001  -17.9649   24.9089 C   0  0  1  0  0  0  0  0  0  0  0  0
   12.0710  -17.3584   24.8272 O   0  0  0  0  0  0  0  0  0  0  0  0
    9.7769  -17.0151   25.4372 C   0  0  2  0  0  0  0  0  0  0  0  0
    9.3690  -15.9660   24.5822 N   0  0  0  0  0  0  0  0  0  0  0  0
    9.9954  -16.6825   26.8715 C   0  0  0  0  0  0  0  0  0  0  0  0
   10.2454  -17.7355   27.7933 O   0  0  0  0  0  0  0  0  0  0  0  0
    9.9898  -15.5614   27.4019 O   0  0  0  0  0  0  0  0  0  0  0  0
  2  1  1  1
  2  3  1  0
  2  4  1  0
  4  6  1  0
  4  5  1  6
  6  7  2  0
  8  9  1  0
  8  6  1  0
  9 10  1  1
 10 11  1  0
 11 16  2  0
 12 11  1  0
 12 13  2  0
 13 14  1  0
 14 15  2  0
 16 15  1  0
 17 18  2  0
 17  9  1  0
 20 19  1  6
 20 22  1  0
 21 20  1  0
 22 24  1  0
 22 23  1  6
 23 17  1  0
 24 25  1  0
 26 24  2  0
M  END
$$$$
