TFT.pdb
     RDKit          3D

 26 26  0  0  1  0  0  0  0  0999 V2000
    8.3738  -18.4069   18.7634 C   0  0  0  0  0  0  0  0  0  0  0  0
    8.5983  -17.7819   20.1212 C   0  0  1  0  0  0  0  0  0  0  0  0
    9.4819  -18.5581   20.8395 O   0  0  0  0  0  0  0  0  0  0  0  0
    9.0522  -16.3706   19.9336 C   0  0  2  0  0  0  0  0  0  0  0  0
   10.2793  -16.2659   19.2123 N   0  0  0  0  0  0  0  0  0  0  0  0
    9.1853  -15.6703   21.2487 C   0  0  0  0  0  0  0  0  0  0  0  0
   10.2940  -15.5198   21.8055 O   0  0  0  0  0  0  0  0  0  0  0  0
    8.0652  -15.1394   21.9357 N   0  0  0  0  0  0  0  0  0  0  0  0
    8.1452  -14.6128   23.2649 C   0  0  1  0  0  0  0  0  0  0  0  0
    7.0854  -13.6830   23.6670 C   0  0  0  0  0  0  0  0  0  0  0  0
    7.0838  -13.2150   25.0547 C   0  0  0  0  0  0  0  0  0  0  0  0
    6.1595  -13.6169   26.0047 C   0  0  0  0  0  0  0  0  0  0  0  0
    6.1811  -13.1458   27.2866 C   0  0  0  0  0  0  0  0  0  0  0  0
    7.1410  -12.2416   27.6746 C   0  0  0  0  0  0  0  0  0  0  0  0
    8.0786  -11.8153   26.7625 C   0  0  0  0  0  0  0  0  0  0  0  0
    8.0336  -12.3076   25.4729 C   0  0  0  0  0  0  0  0  0  0  0  0
    8.2275  -15.7701   24.2049 C   0  0  0  0  0  0  0  0  0  0  0  0
    7.2430  -16.5885   24.2793 O   0  0  0  0  0  0  0  0  0  0  0  0
   10.0295  -18.7215   24.0882 C   0  0  0  0  0  0  0  0  0  0  0  0
   10.4473  -18.2170   25.4675 C   0  0  1  0  0  0  0  0  0  0  0  0
   11.7853  -17.7926   25.3273 O   0  0  0  0  0  0  0  0  0  0  0  0
    9.5703  -17.1049   25.9387 C   0  0  2  0  0  0  0  0  0  0  0  0
    9.3360  -16.0423   25.0366 N   0  0  0  0  0  0  0  0  0  0  0  0
    9.8156  -16.7508   27.3634 C   0  0  0  0  0  0  0  0  0  0  0  0
    9.8981  -17.7915   28.3285 O   0  0  0  0  0  0  0  0  0  0  0  0
    9.9654  -15.6205   27.8515 O   0  0  0  0  0  0  0  0  0  0  0  0
  2  1  1  6
  2  3  1  0
  2  4  1  0
  4  6  1  0
  4  5  1  1
  6  7  2  0
  8  9  1  0
  8  6  1  0
  9 10  1  1
 10 11  1  0
 11 16  2  0
 12 11  1  0
 12 13  2  0
 13 14  1  0
 14 15  2  0
 16 15  1  0
 17 18  2  0
 17  9  1  0
 20 19  1  6
 20 22  1  0
 21 20  1  0
 22 24  1  0
 22 23  1  6
 23 17  1  0
 24 25  1  0
 26 24  2  0
M  END
$$$$
