TFT.pdb
     RDKit          3D

 26 26  0  0  1  0  0  0  0  0999 V2000
    8.3574  -18.7041   21.1889 C   0  0  0  0  0  0  0  0  0  0  0  0
    9.6083  -18.3126   20.4362 C   0  0  1  0  0  0  0  0  0  0  0  0
    9.6742  -19.0267   19.2595 O   0  0  0  0  0  0  0  0  0  0  0  0
    9.6105  -16.8309   20.2418 C   0  0  2  0  0  0  0  0  0  0  0  0
   10.6943  -16.3716   19.4347 N   0  0  0  0  0  0  0  0  0  0  0  0
    9.6299  -16.1171   21.5562 C   0  0  0  0  0  0  0  0  0  0  0  0
   10.6773  -16.0030   22.2284 O   0  0  0  0  0  0  0  0  0  0  0  0
    8.4652  -15.5314   22.1121 N   0  0  0  0  0  0  0  0  0  0  0  0
    8.4516  -14.8900   23.3923 C   0  0  1  0  0  0  0  0  0  0  0  0
    7.3547  -13.9503   23.6435 C   0  0  0  0  0  0  0  0  0  0  0  0
    7.2969  -13.3110   24.9598 C   0  0  0  0  0  0  0  0  0  0  0  0
    6.1983  -13.3721   25.8011 C   0  0  0  0  0  0  0  0  0  0  0  0
    6.1762  -12.7491   27.0164 C   0  0  0  0  0  0  0  0  0  0  0  0
    7.2669  -12.0302   27.4444 C   0  0  0  0  0  0  0  0  0  0  0  0
    8.3795  -11.9433   26.6399 C   0  0  0  0  0  0  0  0  0  0  0  0
    8.3749  -12.5828   25.4158 C   0  0  0  0  0  0  0  0  0  0  0  0
    8.4900  -15.9595   24.4336 C   0  0  0  0  0  0  0  0  0  0  0  0
    7.4330  -16.6482   24.6641 O   0  0  0  0  0  0  0  0  0  0  0  0
   10.6740  -18.9114   24.4232 C   0  0  0  0  0  0  0  0  0  0  0  0
   10.8718  -18.3367   25.8240 C   0  0  1  0  0  0  0  0  0  0  0  0
   12.1694  -17.7835   25.8279 O   0  0  0  0  0  0  0  0  0  0  0  0
    9.8408  -17.3080   26.1505 C   0  0  2  0  0  0  0  0  0  0  0  0
    9.6307  -16.2821   25.2012 N   0  0  0  0  0  0  0  0  0  0  0  0
    9.8611  -16.9171   27.5866 C   0  0  0  0  0  0  0  0  0  0  0  0
    9.8440  -15.5368   27.9260 O   0  0  0  0  0  0  0  0  0  0  0  0
    9.8925  -17.6624   28.5775 O   0  0  0  0  0  0  0  0  0  0  0  0
  2  1  1  6
  2  3  1  0
  2  4  1  0
  4  6  1  0
  4  5  1  6
  6  7  2  0
  8  9  1  0
  8  6  1  0
  9 10  1  1
 10 11  1  0
 11 16  2  0
 12 11  1  0
 12 13  2  0
 13 14  1  0
 14 15  2  0
 16 15  1  0
 17 18  2  0
 17  9  1  0
 20 19  1  6
 20 22  1  0
 21 20  1  0
 22 24  1  0
 22 23  1  6
 23 17  1  0
 24 25  1  0
 26 24  2  0
M  END
$$$$
