TFT.pdb
     RDKit          3D

 26 26  0  0  1  0  0  0  0  0999 V2000
    7.5152  -16.6081   17.8297 C   0  0  0  0  0  0  0  0  0  0  0  0
    7.8712  -16.3684   19.2789 C   0  0  1  0  0  0  0  0  0  0  0  0
    8.8787  -17.2325   19.6496 O   0  0  0  0  0  0  0  0  0  0  0  0
    8.2194  -14.9262   19.4580 C   0  0  2  0  0  0  0  0  0  0  0  0
    9.2990  -14.5012   18.6268 N   0  0  0  0  0  0  0  0  0  0  0  0
    8.5420  -14.6253   20.8873 C   0  0  0  0  0  0  0  0  0  0  0  0
    9.7209  -14.5607   21.2969 O   0  0  0  0  0  0  0  0  0  0  0  0
    7.5321  -14.3971   21.8550 N   0  0  0  0  0  0  0  0  0  0  0  0
    7.8205  -14.1011   23.2261 C   0  0  1  0  0  0  0  0  0  0  0  0
    6.8599  -13.2444   23.9282 C   0  0  0  0  0  0  0  0  0  0  0  0
    7.1552  -12.8917   25.3186 C   0  0  0  0  0  0  0  0  0  0  0  0
    8.3645  -12.3659   25.7424 C   0  0  0  0  0  0  0  0  0  0  0  0
    8.6082  -12.0637   27.0520 C   0  0  0  0  0  0  0  0  0  0  0  0
    7.6388  -12.2782   28.0027 C   0  0  0  0  0  0  0  0  0  0  0  0
    6.4228  -12.7993   27.6252 C   0  0  0  0  0  0  0  0  0  0  0  0
    6.2032  -13.0961   26.2944 C   0  0  0  0  0  0  0  0  0  0  0  0
    8.0018  -15.3999   23.9401 C   0  0  0  0  0  0  0  0  0  0  0  0
    7.0221  -16.2255   23.9978 O   0  0  0  0  0  0  0  0  0  0  0  0
   10.2693  -18.1145   23.0679 C   0  0  0  0  0  0  0  0  0  0  0  0
   10.5971  -17.8504   24.5357 C   0  0  1  0  0  0  0  0  0  0  0  0
   11.8460  -17.1946   24.5338 O   0  0  0  0  0  0  0  0  0  0  0  0
    9.5474  -17.0199   25.1961 C   0  0  2  0  0  0  0  0  0  0  0  0
    9.2006  -15.8014   24.5693 N   0  0  0  0  0  0  0  0  0  0  0  0
    9.6754  -17.0139   26.6790 C   0  0  0  0  0  0  0  0  0  0  0  0
    9.8717  -18.2466   27.3594 O   0  0  0  0  0  0  0  0  0  0  0  0
    9.6327  -16.0373   27.4424 O   0  0  0  0  0  0  0  0  0  0  0  0
  2  1  1  6
  2  3  1  0
  2  4  1  0
  4  6  1  0
  4  5  1  6
  6  7  2  0
  8  9  1  0
  8  6  1  0
  9 10  1  1
 10 11  1  0
 11 16  2  0
 12 11  1  0
 12 13  2  0
 13 14  1  0
 14 15  2  0
 16 15  1  0
 17 18  2  0
 17  9  1  0
 20 19  1  6
 20 22  1  0
 21 20  1  0
 22 24  1  0
 22 23  1  6
 23 17  1  0
 24 25  1  0
 26 24  2  0
M  END
$$$$
