TFT.pdb
     RDKit          3D

 26 26  0  0  1  0  0  0  0  0999 V2000
    9.4996  -18.8943   19.2411 C   0  0  0  0  0  0  0  0  0  0  0  0
    9.5594  -18.2491   20.6066 C   0  0  1  0  0  0  0  0  0  0  0  0
   10.5093  -18.8900   21.3722 O   0  0  0  0  0  0  0  0  0  0  0  0
    9.8096  -16.7855   20.4382 C   0  0  2  0  0  0  0  0  0  0  0  0
   11.0363  -16.4986   19.7674 N   0  0  0  0  0  0  0  0  0  0  0  0
    9.7863  -16.0816   21.7578 C   0  0  0  0  0  0  0  0  0  0  0  0
   10.8272  -15.8971   22.4245 O   0  0  0  0  0  0  0  0  0  0  0  0
    8.5862  -15.5854   22.3253 N   0  0  0  0  0  0  0  0  0  0  0  0
    8.5398  -14.9284   23.5968 C   0  0  1  0  0  0  0  0  0  0  0  0
    7.4012  -14.0353   23.8324 C   0  0  0  0  0  0  0  0  0  0  0  0
    7.3074  -13.3866   25.1420 C   0  0  0  0  0  0  0  0  0  0  0  0
    8.3045  -12.5928   25.6844 C   0  0  0  0  0  0  0  0  0  0  0  0
    8.1868  -12.0166   26.9172 C   0  0  0  0  0  0  0  0  0  0  0  0
    7.0517  -12.2141   27.6668 C   0  0  0  0  0  0  0  0  0  0  0  0
    6.0364  -12.9959   27.1662 C   0  0  0  0  0  0  0  0  0  0  0  0
    6.1817  -13.5667   25.9170 C   0  0  0  0  0  0  0  0  0  0  0  0
    8.6224  -15.9812   24.6524 C   0  0  0  0  0  0  0  0  0  0  0  0
    7.6272  -16.7702   24.8301 O   0  0  0  0  0  0  0  0  0  0  0  0
   10.7634  -18.8379   24.7360 C   0  0  0  0  0  0  0  0  0  0  0  0
   11.0302  -18.2113   26.1028 C   0  0  1  0  0  0  0  0  0  0  0  0
   12.3175  -17.6413   26.0145 O   0  0  0  0  0  0  0  0  0  0  0  0
   10.0035  -17.1852   26.4507 C   0  0  2  0  0  0  0  0  0  0  0  0
    9.7422  -16.1829   25.4890 N   0  0  0  0  0  0  0  0  0  0  0  0
   10.0813  -16.7621   27.8756 C   0  0  0  0  0  0  0  0  0  0  0  0
   10.0332  -15.3759   28.1871 O   0  0  0  0  0  0  0  0  0  0  0  0
   10.1876  -17.4836   28.8788 O   0  0  0  0  0  0  0  0  0  0  0  0
  2  1  1  6
  2  3  1  0
  2  4  1  0
  4  6  1  0
  4  5  1  1
  6  7  2  0
  8  9  1  0
  8  6  1  0
  9 10  1  1
 10 11  1  0
 11 16  2  0
 12 11  1  0
 12 13  2  0
 13 14  1  0
 14 15  2  0
 16 15  1  0
 17 18  2  0
 17  9  1  0
 20 19  1  6
 20 22  1  0
 21 20  1  0
 22 24  1  0
 22 23  1  6
 23 17  1  0
 24 25  1  0
 26 24  2  0
M  END
$$$$
