PKR.pdb
     RDKit          3D

 28 28  0  0  1  0  0  0  0  0999 V2000
   27.0488  -21.3195  -14.7559 N   0  0  0  0  0  0  0  0  0  0  0  0
   28.2881  -20.8175  -15.2794 C   0  0  0  0  0  0  0  0  0  0  0  0
   28.8241  -19.8009  -14.3325 C   0  0  0  0  0  0  0  0  0  0  0  0
   27.9220  -19.8181  -13.1468 C   0  0  0  0  0  0  0  0  0  0  0  0
   26.9391  -20.9126  -13.3992 C   0  0  1  0  0  0  0  0  0  0  0  0
   25.5264  -20.4473  -13.1362 C   0  0  0  0  0  0  0  0  0  0  0  0
   25.2350  -19.9615  -12.0131 O   0  0  0  0  0  0  0  0  0  0  0  0
   24.5819  -20.5752  -14.1660 N   0  0  0  0  0  0  0  0  0  0  0  0
   23.2115  -20.1579  -14.1004 C   0  0  1  0  0  0  0  0  0  0  0  0
   22.7745  -19.2950  -15.2913 C   0  0  0  0  0  0  0  0  0  0  0  0
   21.3779  -18.7687  -15.0923 C   0  0  0  0  0  0  0  0  0  0  0  0
   20.9813  -17.9230  -16.2648 C   0  0  0  0  0  0  0  0  0  0  0  0
   19.6060  -17.3480  -16.0767 C   0  0  0  0  0  0  0  0  0  0  0  0
   19.2436  -16.5020  -17.1933 N   0  0  0  0  0  0  0  0  0  0  0  0
   22.2402  -21.2102  -13.8320 C   0  0  0  0  0  0  0  0  0  0  0  0
   22.1942  -22.2395  -14.5798 O   0  0  0  0  0  0  0  0  0  0  0  0
   19.3392  -24.7118   -7.4720 N   0  0  0  0  0  0  0  0  0  0  0  0
   18.0973  -25.0045   -8.1142 C   0  0  0  0  0  0  0  0  0  0  0  0
   17.5541  -26.1328   -7.9023 N   0  0  0  0  0  0  0  0  0  0  0  0
   17.5070  -24.0422   -8.9622 N   0  0  0  0  0  0  0  0  0  0  0  0
   18.2661  -22.9205   -9.4208 C   0  0  0  0  0  0  0  0  0  0  0  0
   19.0010  -23.2781  -10.6985 C   0  0  0  0  0  0  0  0  0  0  0  0
   19.7477  -22.0276  -11.1480 C   0  0  0  0  0  0  0  0  0  0  0  0
   20.4603  -22.3422  -12.4621 C   0  0  2  0  0  0  0  0  0  0  0  0
   21.3049  -21.1833  -12.7656 N   0  0  0  0  0  0  0  0  0  0  0  0
   19.4007  -22.5185  -13.4858 C   0  0  0  0  0  0  0  0  0  0  0  0
   18.9520  -21.5852  -14.1667 O   0  0  0  0  0  0  0  0  0  0  0  0
   18.9017  -23.8121  -13.6706 O   0  0  0  0  0  0  0  0  0  0  0  0
  1  2  1  0
  3  2  1  0
  4  3  1  0
  5  4  1  0
  5  1  1  0
  6  8  1  0
  5  6  1  6
  7  6  2  0
  9  8  1  0
 10 11  1  0
  9 10  1  6
 12 11  1  0
 13 14  1  0
 13 12  1  0
 15 16  2  0
 15  9  1  0
 17 18  1  0
 18 19  2  0
 20 18  1  0
 20 21  1  0
 21 22  1  0
 22 23  1  0
 24 23  1  1
 24 25  1  0
 24 26  1  0
 25 15  1  0
 26 28  1  0
 27 26  2  0
M  END
$$$$
