PKR.pdb
     RDKit          3D

 28 28  0  0  1  0  0  0  0  0999 V2000
   26.0818  -21.5874  -12.0354 N   0  0  0  0  0  0  0  0  0  0  0  0
   26.7002  -21.4108  -10.7516 C   0  0  0  0  0  0  0  0  0  0  0  0
   26.3549  -20.0545  -10.2429 C   0  0  0  0  0  0  0  0  0  0  0  0
   25.3844  -19.4784  -11.2158 C   0  0  0  0  0  0  0  0  0  0  0  0
   25.1219  -20.5556  -12.2149 C   0  0  1  0  0  0  0  0  0  0  0  0
   25.2242  -20.0264  -13.6259 C   0  0  0  0  0  0  0  0  0  0  0  0
   24.4910  -19.0678  -13.9808 O   0  0  0  0  0  0  0  0  0  0  0  0
   26.1436  -20.6301  -14.4972 N   0  0  0  0  0  0  0  0  0  0  0  0
   26.4170  -20.2156  -15.8426 C   0  0  1  0  0  0  0  0  0  0  0  0
   27.7738  -20.6994  -16.3705 C   0  0  0  0  0  0  0  0  0  0  0  0
   28.0958  -20.0609  -17.6955 C   0  0  0  0  0  0  0  0  0  0  0  0
   29.4348  -20.5339  -18.1760 C   0  0  0  0  0  0  0  0  0  0  0  0
   29.7862  -19.9116  -19.4976 C   0  0  0  0  0  0  0  0  0  0  0  0
   31.1094  -20.3152  -19.9220 N   0  0  0  0  0  0  0  0  0  0  0  0
   25.3584  -20.4672  -16.8113 C   0  0  0  0  0  0  0  0  0  0  0  0
   24.7546  -21.5880  -16.8174 O   0  0  0  0  0  0  0  0  0  0  0  0
   18.3237  -18.9112  -16.3146 N   0  0  0  0  0  0  0  0  0  0  0  0
   18.5399  -20.0978  -15.5493 C   0  0  0  0  0  0  0  0  0  0  0  0
   17.5551  -20.8703  -15.3336 N   0  0  0  0  0  0  0  0  0  0  0  0
   19.8312  -20.3826  -15.0545 N   0  0  0  0  0  0  0  0  0  0  0  0
   20.9213  -19.4988  -15.3287 C   0  0  0  0  0  0  0  0  0  0  0  0
   21.5801  -19.8782  -16.6411 C   0  0  0  0  0  0  0  0  0  0  0  0
   22.8102  -18.9913  -16.7951 C   0  0  0  0  0  0  0  0  0  0  0  0
   23.5059  -19.3610  -18.1038 C   0  0  2  0  0  0  0  0  0  0  0  0
   24.9266  -19.5316  -17.7865 N   0  0  0  0  0  0  0  0  0  0  0  0
   23.2948  -18.2218  -19.0310 C   0  0  0  0  0  0  0  0  0  0  0  0
   22.9201  -18.3612  -20.2041 O   0  0  0  0  0  0  0  0  0  0  0  0
   23.5380  -16.9386  -18.5302 O   0  0  0  0  0  0  0  0  0  0  0  0
  1  2  1  0
  3  2  1  0
  4  3  1  0
  5  4  1  0
  5  1  1  0
  6  8  1  0
  5  6  1  6
  7  6  2  0
  9  8  1  0
 10 11  1  0
  9 10  1  6
 12 11  1  0
 13 14  1  0
 13 12  1  0
 15 16  2  0
 15  9  1  0
 17 18  1  0
 18 19  2  0
 20 18  1  0
 20 21  1  0
 21 22  1  0
 22 23  1  0
 24 23  1  1
 24 25  1  0
 24 26  1  0
 25 15  1  0
 26 28  1  0
 27 26  2  0
M  END
$$$$
