PKR.pdb
     RDKit          3D

 28 28  0  0  1  0  0  0  0  0999 V2000
   26.6692  -21.5890  -13.8808 N   0  0  0  0  0  0  0  0  0  0  0  0
   28.0187  -21.1348  -14.0664 C   0  0  0  0  0  0  0  0  0  0  0  0
   28.4180  -20.3387  -12.8730 C   0  0  0  0  0  0  0  0  0  0  0  0
   27.2961  -20.4545  -11.8994 C   0  0  0  0  0  0  0  0  0  0  0  0
   26.3149  -21.3931  -12.5190 C   0  0  1  0  0  0  0  0  0  0  0  0
   24.9117  -20.8386  -12.4489 C   0  0  0  0  0  0  0  0  0  0  0  0
   24.4540  -20.4541  -11.3421 O   0  0  0  0  0  0  0  0  0  0  0  0
   24.1635  -20.7718  -13.6341 N   0  0  0  0  0  0  0  0  0  0  0  0
   22.8134  -20.3010  -13.7453 C   0  0  1  0  0  0  0  0  0  0  0  0
   22.5506  -19.4841  -15.0170 C   0  0  0  0  0  0  0  0  0  0  0  0
   21.1588  -18.9098  -15.0112 C   0  0  0  0  0  0  0  0  0  0  0  0
   20.9157  -18.1528  -16.2821 C   0  0  0  0  0  0  0  0  0  0  0  0
   19.5278  -17.5781  -16.3125 C   0  0  0  0  0  0  0  0  0  0  0  0
   19.3012  -16.8423  -17.5377 N   0  0  0  0  0  0  0  0  0  0  0  0
   21.7740  -21.3014  -13.5416 C   0  0  0  0  0  0  0  0  0  0  0  0
   21.8043  -22.3929  -14.1962 O   0  0  0  0  0  0  0  0  0  0  0  0
   17.3832  -25.6778   -8.8023 N   0  0  0  0  0  0  0  0  0  0  0  0
   18.2805  -24.8045   -8.1150 C   0  0  0  0  0  0  0  0  0  0  0  0
   18.9653  -25.2708   -7.1523 N   0  0  0  0  0  0  0  0  0  0  0  0
   18.3853  -23.4552   -8.5174 N   0  0  0  0  0  0  0  0  0  0  0  0
   17.4719  -22.9137   -9.4750 C   0  0  0  0  0  0  0  0  0  0  0  0
   18.0195  -23.0981  -10.8773 C   0  0  0  0  0  0  0  0  0  0  0  0
   19.0681  -22.0131  -11.0926 C   0  0  0  0  0  0  0  0  0  0  0  0
   19.6864  -22.2127  -12.4751 C   0  0  2  0  0  0  0  0  0  0  0  0
   20.6887  -21.1560  -12.6396 N   0  0  0  0  0  0  0  0  0  0  0  0
   18.5832  -22.0654  -13.4566 C   0  0  0  0  0  0  0  0  0  0  0  0
   18.1760  -20.9669  -13.8609 O   0  0  0  0  0  0  0  0  0  0  0  0
   17.9920  -23.2403  -13.9324 O   0  0  0  0  0  0  0  0  0  0  0  0
  1  2  1  0
  3  2  1  0
  4  3  1  0
  5  4  1  0
  5  1  1  0
  6  8  1  0
  5  6  1  6
  7  6  2  0
  9  8  1  0
 10 11  1  0
  9 10  1  6
 12 11  1  0
 13 14  1  0
 13 12  1  0
 15 16  2  0
 15  9  1  0
 17 18  1  0
 18 19  2  0
 20 18  1  0
 20 21  1  0
 21 22  1  0
 22 23  1  0
 24 23  1  1
 24 25  1  0
 24 26  1  0
 25 15  1  0
 26 28  1  0
 27 26  2  0
M  END
$$$$
