PKR.pdb
     RDKit          3D

 28 28  0  0  1  0  0  0  0  0999 V2000
   26.8921  -15.3755  -15.6394 N   0  0  0  0  0  0  0  0  0  0  0  0
   27.9184  -14.5190  -16.1639 C   0  0  0  0  0  0  0  0  0  0  0  0
   27.5830  -14.1895  -17.5768 C   0  0  0  0  0  0  0  0  0  0  0  0
   26.2356  -14.7720  -17.8328 C   0  0  0  0  0  0  0  0  0  0  0  0
   25.7856  -15.3443  -16.5299 C   0  0  1  0  0  0  0  0  0  0  0  0
   25.2540  -16.7471  -16.7059 C   0  0  0  0  0  0  0  0  0  0  0  0
   24.2262  -16.9349  -17.4062 O   0  0  0  0  0  0  0  0  0  0  0  0
   25.9345  -17.7997  -16.0751 N   0  0  0  0  0  0  0  0  0  0  0  0
   25.5550  -19.1822  -16.1126 C   0  0  1  0  0  0  0  0  0  0  0  0
   26.7482  -20.1456  -16.1571 C   0  0  0  0  0  0  0  0  0  0  0  0
   26.2999  -21.5445  -16.4874 C   0  0  0  0  0  0  0  0  0  0  0  0
   27.4917  -22.4465  -16.6029 C   0  0  0  0  0  0  0  0  0  0  0  0
   27.0821  -23.8358  -17.0022 C   0  0  0  0  0  0  0  0  0  0  0  0
   28.2392  -24.6921  -17.1503 N   0  0  0  0  0  0  0  0  0  0  0  0
   24.5818  -19.6002  -15.1122 C   0  0  0  0  0  0  0  0  0  0  0  0
   24.8585  -19.4983  -13.8737 O   0  0  0  0  0  0  0  0  0  0  0  0
   19.2912  -24.5153  -13.3838 N   0  0  0  0  0  0  0  0  0  0  0  0
   18.1432  -23.7222  -13.0782 C   0  0  0  0  0  0  0  0  0  0  0  0
   17.3281  -24.1448  -12.2007 N   0  0  0  0  0  0  0  0  0  0  0  0
   17.9420  -22.4979  -13.7521 N   0  0  0  0  0  0  0  0  0  0  0  0
   18.9041  -22.0283  -14.7000 C   0  0  0  0  0  0  0  0  0  0  0  0
   20.1800  -21.6224  -13.9876 C   0  0  0  0  0  0  0  0  0  0  0  0
   21.1473  -21.1239  -15.0549 C   0  0  0  0  0  0  0  0  0  0  0  0
   22.4195  -20.6418  -14.3603 C   0  0  2  0  0  0  0  0  0  0  0  0
   23.3015  -20.1317  -15.4139 N   0  0  0  0  0  0  0  0  0  0  0  0
   23.0105  -21.8269  -13.6908 C   0  0  0  0  0  0  0  0  0  0  0  0
   23.7763  -22.6174  -14.2606 O   0  0  0  0  0  0  0  0  0  0  0  0
   22.6697  -22.0382  -12.3508 O   0  0  0  0  0  0  0  0  0  0  0  0
  1  2  1  0
  3  2  1  0
  4  3  1  0
  5  4  1  0
  5  1  1  0
  6  8  1  0
  5  6  1  6
  7  6  2  0
  9  8  1  0
 10 11  1  0
  9 10  1  1
 12 11  1  0
 13 14  1  0
 13 12  1  0
 15 16  2  0
 15  9  1  0
 17 18  1  0
 18 19  2  0
 20 18  1  0
 20 21  1  0
 21 22  1  0
 22 23  1  0
 24 23  1  6
 24 25  1  0
 24 26  1  0
 25 15  1  0
 26 28  1  0
 27 26  2  0
M  END
$$$$
