PKR.pdb
     RDKit          3D

 28 28  0  0  1  0  0  0  0  0999 V2000
   25.4095  -14.0790  -19.4580 N   0  0  0  0  0  0  0  0  0  0  0  0
   25.6282  -15.2210  -20.3006 C   0  0  0  0  0  0  0  0  0  0  0  0
   24.6212  -15.1992  -21.3973 C   0  0  0  0  0  0  0  0  0  0  0  0
   23.8778  -13.9156  -21.2561 C   0  0  0  0  0  0  0  0  0  0  0  0
   24.5381  -13.1844  -20.1350 C   0  0  1  0  0  0  0  0  0  0  0  0
   23.5181  -12.6532  -19.1557 C   0  0  0  0  0  0  0  0  0  0  0  0
   22.5858  -11.9186  -19.5724 O   0  0  0  0  0  0  0  0  0  0  0  0
   23.6499  -13.0033  -17.8034 N   0  0  0  0  0  0  0  0  0  0  0  0
   22.7643  -12.6077  -16.7470 C   0  0  1  0  0  0  0  0  0  0  0  0
   22.7722  -13.5650  -15.5481 C   0  0  0  0  0  0  0  0  0  0  0  0
   22.1084  -14.8708  -15.8963 C   0  0  0  0  0  0  0  0  0  0  0  0
   21.9914  -15.7247  -14.6697 C   0  0  0  0  0  0  0  0  0  0  0  0
   21.2849  -17.0153  -14.9742 C   0  0  0  0  0  0  0  0  0  0  0  0
   21.1825  -17.8392  -13.7890 N   0  0  0  0  0  0  0  0  0  0  0  0
   22.8761  -11.2220  -16.3112 C   0  0  0  0  0  0  0  0  0  0  0  0
   24.0239  -10.7061  -16.1187 O   0  0  0  0  0  0  0  0  0  0  0  0
   20.8535   -3.6948  -19.3577 N   0  0  0  0  0  0  0  0  0  0  0  0
   21.5369   -3.3697  -18.1463 C   0  0  0  0  0  0  0  0  0  0  0  0
   21.8704   -2.1615  -17.9415 N   0  0  0  0  0  0  0  0  0  0  0  0
   21.8236   -4.3891  -17.2123 N   0  0  0  0  0  0  0  0  0  0  0  0
   21.4613   -5.7446  -17.4882 C   0  0  0  0  0  0  0  0  0  0  0  0
   21.8529   -6.6342  -16.3240 C   0  0  0  0  0  0  0  0  0  0  0  0
   21.5757   -8.0716  -16.7485 C   0  0  0  0  0  0  0  0  0  0  0  0
   21.9566   -8.9941  -15.5920 C   0  0  2  0  0  0  0  0  0  0  0  0
   21.7701  -10.3655  -16.0744 N   0  0  0  0  0  0  0  0  0  0  0  0
   21.0250   -8.6838  -14.4794 C   0  0  0  0  0  0  0  0  0  0  0  0
   19.9876   -9.3263  -14.2629 O   0  0  0  0  0  0  0  0  0  0  0  0
   21.3587   -7.6082  -13.6497 O   0  0  0  0  0  0  0  0  0  0  0  0
  1  2  1  0
  3  2  1  0
  4  3  1  0
  5  4  1  0
  5  1  1  0
  6  8  1  0
  5  6  1  1
  7  6  2  0
  9  8  1  0
 10 11  1  0
  9 10  1  1
 12 11  1  0
 13 14  1  0
 13 12  1  0
 15 16  2  0
 15  9  1  0
 17 18  1  0
 18 19  2  0
 20 18  1  0
 20 21  1  0
 21 22  1  0
 22 23  1  0
 24 23  1  6
 24 25  1  0
 24 26  1  0
 25 15  1  0
 26 28  1  0
 27 26  2  0
M  END
$$$$
