PKR.pdb
     RDKit          3D

 28 28  0  0  1  0  0  0  0  0999 V2000
   35.6963   -9.5529  -15.0717 N   0  0  0  0  0  0  0  0  0  0  0  0
   37.0883   -9.2905  -14.8363 C   0  0  0  0  0  0  0  0  0  0  0  0
   37.4508   -8.0162  -15.5162 C   0  0  0  0  0  0  0  0  0  0  0  0
   36.1798   -7.4524  -16.0516 C   0  0  0  0  0  0  0  0  0  0  0  0
   35.0993   -8.3708  -15.5859 C   0  0  1  0  0  0  0  0  0  0  0  0
   34.1717   -8.7393  -16.7195 C   0  0  0  0  0  0  0  0  0  0  0  0
   33.5957   -7.8279  -17.3675 O   0  0  0  0  0  0  0  0  0  0  0  0
   33.9856  -10.0993  -17.0107 N   0  0  0  0  0  0  0  0  0  0  0  0
   33.2749  -10.6229  -18.1409 C   0  0  1  0  0  0  0  0  0  0  0  0
   33.7401  -12.0221  -18.5646 C   0  0  0  0  0  0  0  0  0  0  0  0
   35.0620  -11.9567  -19.2824 C   0  0  0  0  0  0  0  0  0  0  0  0
   35.4529  -13.3249  -19.7541 C   0  0  0  0  0  0  0  0  0  0  0  0
   36.7989  -13.3033  -20.4212 C   0  0  0  0  0  0  0  0  0  0  0  0
   37.1372  -14.6102  -20.9424 N   0  0  0  0  0  0  0  0  0  0  0  0
   31.8216  -10.5556  -18.0630 C   0  0  0  0  0  0  0  0  0  0  0  0
   31.2221  -10.9454  -17.0098 O   0  0  0  0  0  0  0  0  0  0  0  0
   25.8356   -5.8157  -19.4078 N   0  0  0  0  0  0  0  0  0  0  0  0
   25.0035   -6.7710  -20.0675 C   0  0  0  0  0  0  0  0  0  0  0  0
   23.7430   -6.6545  -19.9633 N   0  0  0  0  0  0  0  0  0  0  0  0
   25.5950   -7.8136  -20.8136 N   0  0  0  0  0  0  0  0  0  0  0  0
   27.0179   -7.9393  -20.8772 C   0  0  0  0  0  0  0  0  0  0  0  0
   27.4932   -8.9745  -19.8759 C   0  0  0  0  0  0  0  0  0  0  0  0
   29.0089   -9.0627  -20.0113 C   0  0  0  0  0  0  0  0  0  0  0  0
   29.5279  -10.0362  -18.9547 C   0  0  2  0  0  0  0  0  0  0  0  0
   30.9856  -10.0731  -19.1028 N   0  0  0  0  0  0  0  0  0  0  0  0
   28.9224  -11.3557  -19.2621 C   0  0  0  0  0  0  0  0  0  0  0  0
   29.2476  -12.0405  -20.2425 O   0  0  0  0  0  0  0  0  0  0  0  0
   27.9388  -11.8255  -18.3856 O   0  0  0  0  0  0  0  0  0  0  0  0
  1  2  1  0
  3  2  1  0
  4  3  1  0
  5  4  1  0
  5  1  1  0
  6  8  1  0
  5  6  1  6
  7  6  2  0
  9  8  1  0
 10 11  1  0
  9 10  1  1
 12 11  1  0
 13 14  1  0
 13 12  1  0
 15 16  2  0
 15  9  1  0
 17 18  1  0
 18 19  2  0
 20 18  1  0
 20 21  1  0
 21 22  1  0
 22 23  1  0
 24 23  1  6
 24 25  1  0
 24 26  1  0
 25 15  1  0
 26 28  1  0
 27 26  2  0
M  END
$$$$
