PKR.pdb
     RDKit          3D

 28 28  0  0  1  0  0  0  0  0999 V2000
   25.9595  -20.4751  -16.0291 N   0  0  0  0  0  0  0  0  0  0  0  0
   27.0869  -19.7722  -16.5741 C   0  0  0  0  0  0  0  0  0  0  0  0
   27.7457  -19.0118  -15.4763 C   0  0  0  0  0  0  0  0  0  0  0  0
   27.0469  -19.4028  -14.2197 C   0  0  0  0  0  0  0  0  0  0  0  0
   26.0607  -20.4521  -14.6123 C   0  0  1  0  0  0  0  0  0  0  0  0
   24.6988  -20.1666  -14.0248 C   0  0  0  0  0  0  0  0  0  0  0  0
   24.5949  -19.9258  -12.7945 O   0  0  0  0  0  0  0  0  0  0  0  0
   23.5887  -20.1802  -14.8829 N   0  0  0  0  0  0  0  0  0  0  0  0
   22.2303  -19.9304  -14.4969 C   0  0  1  0  0  0  0  0  0  0  0  0
   21.4619  -19.0487  -15.4898 C   0  0  0  0  0  0  0  0  0  0  0  0
   21.9906  -17.6390  -15.4806 C   0  0  0  0  0  0  0  0  0  0  0  0
   21.0933  -16.7540  -16.2923 C   0  0  0  0  0  0  0  0  0  0  0  0
   21.6301  -15.3522  -16.3567 C   0  0  0  0  0  0  0  0  0  0  0  0
   20.7773  -14.5101  -17.1676 N   0  0  0  0  0  0  0  0  0  0  0  0
   21.4502  -21.1038  -14.1262 C   0  0  0  0  0  0  0  0  0  0  0  0
   21.5935  -22.1926  -14.7701 O   0  0  0  0  0  0  0  0  0  0  0  0
   16.9182  -25.8861  -10.0001 N   0  0  0  0  0  0  0  0  0  0  0  0
   18.0551  -25.9896   -9.1416 C   0  0  0  0  0  0  0  0  0  0  0  0
   18.3725  -27.1325   -8.6876 N   0  0  0  0  0  0  0  0  0  0  0  0
   18.7939  -24.8301   -8.8200 N   0  0  0  0  0  0  0  0  0  0  0  0
   18.4614  -23.5733   -9.4154 C   0  0  0  0  0  0  0  0  0  0  0  0
   18.7262  -23.6194  -10.9081 C   0  0  0  0  0  0  0  0  0  0  0  0
   19.4719  -22.3397  -11.2682 C   0  0  0  0  0  0  0  0  0  0  0  0
   19.7298  -22.3437  -12.7739 C   0  0  2  0  0  0  0  0  0  0  0  0
   20.5076  -21.1364  -13.0663 N   0  0  0  0  0  0  0  0  0  0  0  0
   18.3998  -22.2990  -13.4306 C   0  0  0  0  0  0  0  0  0  0  0  0
   17.8303  -21.2428  -13.7403 O   0  0  0  0  0  0  0  0  0  0  0  0
   17.7813  -23.5239  -13.7019 O   0  0  0  0  0  0  0  0  0  0  0  0
  1  2  1  0
  3  2  1  0
  4  3  1  0
  5  4  1  0
  5  1  1  0
  6  8  1  0
  5  6  1  1
  7  6  2  0
  9  8  1  0
 10 11  1  0
  9 10  1  6
 12 11  1  0
 13 14  1  0
 13 12  1  0
 15 16  2  0
 15  9  1  0
 17 18  1  0
 18 19  2  0
 20 18  1  0
 20 21  1  0
 21 22  1  0
 22 23  1  0
 24 23  1  1
 24 25  1  0
 24 26  1  0
 25 15  1  0
 26 28  1  0
 27 26  2  0
M  END
$$$$
