PKR.pdb
     RDKit          3D

 28 28  0  0  1  0  0  0  0  0999 V2000
   22.7777  -21.1135  -13.8487 N   0  0  0  0  0  0  0  0  0  0  0  0
   23.4351  -20.7704  -15.0783 C   0  0  0  0  0  0  0  0  0  0  0  0
   22.7688  -19.5683  -15.6513 C   0  0  0  0  0  0  0  0  0  0  0  0
   21.7723  -19.1206  -14.6381 C   0  0  0  0  0  0  0  0  0  0  0  0
   21.9537  -20.0225  -13.4629 C   0  0  1  0  0  0  0  0  0  0  0  0
   20.6269  -20.5546  -12.9748 C   0  0  0  0  0  0  0  0  0  0  0  0
   19.7534  -19.7499  -12.5604 O   0  0  0  0  0  0  0  0  0  0  0  0
   20.4162  -21.9415  -13.0029 N   0  0  0  0  0  0  0  0  0  0  0  0
   19.2273  -22.6157  -12.5685 C   0  0  1  0  0  0  0  0  0  0  0  0
   18.4875  -23.3450  -13.6974 C   0  0  0  0  0  0  0  0  0  0  0  0
   17.7329  -22.3723  -14.5643 C   0  0  0  0  0  0  0  0  0  0  0  0
   17.1200  -23.0954  -15.7256 C   0  0  0  0  0  0  0  0  0  0  0  0
   16.4513  -22.1359  -16.6687 C   0  0  0  0  0  0  0  0  0  0  0  0
   15.8535  -22.8399  -17.7827 N   0  0  0  0  0  0  0  0  0  0  0  0
   19.3754  -23.4733  -11.4001 C   0  0  0  0  0  0  0  0  0  0  0  0
   20.4217  -24.1852  -11.2618 O   0  0  0  0  0  0  0  0  0  0  0  0
   15.5855  -24.6003   -3.6960 N   0  0  0  0  0  0  0  0  0  0  0  0
   15.5436  -23.5985   -4.7133 C   0  0  0  0  0  0  0  0  0  0  0  0
   15.2282  -22.4125   -4.3864 N   0  0  0  0  0  0  0  0  0  0  0  0
   15.8509  -23.9458   -6.0470 N   0  0  0  0  0  0  0  0  0  0  0  0
   16.2541  -25.2786   -6.3720 C   0  0  0  0  0  0  0  0  0  0  0  0
   17.5722  -25.2543   -7.1218 C   0  0  0  0  0  0  0  0  0  0  0  0
   17.3539  -24.4226   -8.3802 C   0  0  0  0  0  0  0  0  0  0  0  0
   18.6387  -24.4577   -9.2059 C   0  0  2  0  0  0  0  0  0  0  0  0
   18.4142  -23.5860  -10.3627 N   0  0  0  0  0  0  0  0  0  0  0  0
   18.8335  -25.8679   -9.6246 C   0  0  0  0  0  0  0  0  0  0  0  0
   18.2548  -26.3740  -10.5967 O   0  0  0  0  0  0  0  0  0  0  0  0
   19.7194  -26.6412   -8.8673 O   0  0  0  0  0  0  0  0  0  0  0  0
  1  2  1  0
  3  2  1  0
  4  3  1  0
  5  4  1  0
  5  1  1  0
  6  8  1  0
  5  6  1  6
  7  6  2  0
  9  8  1  0
 10 11  1  0
  9 10  1  6
 12 11  1  0
 13 14  1  0
 13 12  1  0
 15 16  2  0
 15  9  1  0
 17 18  1  0
 18 19  2  0
 20 18  1  0
 20 21  1  0
 21 22  1  0
 22 23  1  0
 24 23  1  1
 24 25  1  0
 24 26  1  0
 25 15  1  0
 26 28  1  0
 27 26  2  0
M  END
$$$$
