PKR.pdb
     RDKit          3D

 28 28  0  0  1  0  0  0  0  0999 V2000
   29.6624  -20.3376   -9.8514 N   0  0  0  0  0  0  0  0  0  0  0  0
   30.8268  -20.9559   -9.2823 C   0  0  0  0  0  0  0  0  0  0  0  0
   31.2544  -22.0694  -10.1739 C   0  0  0  0  0  0  0  0  0  0  0  0
   30.3780  -22.0010  -11.3769 C   0  0  0  0  0  0  0  0  0  0  0  0
   29.5260  -20.7897  -11.1913 C   0  0  1  0  0  0  0  0  0  0  0  0
   28.0727  -21.0994  -11.4621 C   0  0  0  0  0  0  0  0  0  0  0  0
   27.7427  -21.5943  -12.5705 O   0  0  0  0  0  0  0  0  0  0  0  0
   27.1351  -20.8209  -10.4560 N   0  0  0  0  0  0  0  0  0  0  0  0
   25.7237  -21.0610  -10.5386 C   0  0  1  0  0  0  0  0  0  0  0  0
   24.9799  -20.8108   -9.2202 C   0  0  0  0  0  0  0  0  0  0  0  0
   23.5663  -21.3240   -9.2927 C   0  0  0  0  0  0  0  0  0  0  0  0
   22.8608  -21.0554   -7.9975 C   0  0  0  0  0  0  0  0  0  0  0  0
   21.4428  -21.5502   -8.0410 C   0  0  0  0  0  0  0  0  0  0  0  0
   20.7727  -21.3066   -6.7818 N   0  0  0  0  0  0  0  0  0  0  0  0
   25.0367  -20.4265  -11.6558 C   0  0  0  0  0  0  0  0  0  0  0  0
   25.1275  -19.1682  -11.8268 O   0  0  0  0  0  0  0  0  0  0  0  0
   23.0389  -19.1579  -18.6128 N   0  0  0  0  0  0  0  0  0  0  0  0
   24.3837  -18.7526  -18.8728 C   0  0  0  0  0  0  0  0  0  0  0  0
   24.5832  -17.7745  -19.6581 N   0  0  0  0  0  0  0  0  0  0  0  0
   25.4510  -19.4418  -18.2569 N   0  0  0  0  0  0  0  0  0  0  0  0
   25.1904  -20.4494  -17.2764 C   0  0  0  0  0  0  0  0  0  0  0  0
   25.1559  -19.8306  -15.8921 C   0  0  0  0  0  0  0  0  0  0  0  0
   24.9221  -20.9658  -14.9022 C   0  0  0  0  0  0  0  0  0  0  0  0
   23.8774  -20.5074  -13.8864 C   0  0  2  0  0  0  0  0  0  0  0  0
   24.2442  -21.1201  -12.6064 N   0  0  0  0  0  0  0  0  0  0  0  0
   22.5684  -21.0126  -14.3691 C   0  0  0  0  0  0  0  0  0  0  0  0
   22.1268  -22.1352  -14.0848 O   0  0  0  0  0  0  0  0  0  0  0  0
   21.8165  -20.1592  -15.1834 O   0  0  0  0  0  0  0  0  0  0  0  0
  1  2  1  0
  3  2  1  0
  4  3  1  0
  5  4  1  0
  5  1  1  0
  6  8  1  0
  5  6  1  1
  7  6  2  0
  9  8  1  0
 10 11  1  0
  9 10  1  1
 12 11  1  0
 13 14  1  0
 13 12  1  0
 15 16  2  0
 15  9  1  0
 17 18  1  0
 18 19  2  0
 20 18  1  0
 20 21  1  0
 21 22  1  0
 22 23  1  0
 24 23  1  6
 24 25  1  0
 24 26  1  0
 25 15  1  0
 26 28  1  0
 27 26  2  0
M  END
$$$$
