PKR.pdb
     RDKit          3D

 28 28  0  0  1  0  0  0  0  0999 V2000
   22.9632  -21.2558  -10.9561 N   0  0  0  0  0  0  0  0  0  0  0  0
   23.2055  -21.6019   -9.5838 C   0  0  0  0  0  0  0  0  0  0  0  0
   23.8637  -20.4464   -8.9137 C   0  0  0  0  0  0  0  0  0  0  0  0
   23.8771  -19.3385   -9.9099 C   0  0  0  0  0  0  0  0  0  0  0  0
   23.1410  -19.8538  -11.1016 C   0  0  1  0  0  0  0  0  0  0  0  0
   23.9078  -19.5830  -12.3744 C   0  0  0  0  0  0  0  0  0  0  0  0
   24.2894  -18.4116  -12.6284 O   0  0  0  0  0  0  0  0  0  0  0  0
   24.1690  -20.6601  -13.2350 N   0  0  0  0  0  0  0  0  0  0  0  0
   24.8729  -20.5825  -14.4820 C   0  0  1  0  0  0  0  0  0  0  0  0
   25.9644  -21.6493  -14.6386 C   0  0  0  0  0  0  0  0  0  0  0  0
   26.7733  -21.4141  -15.8865 C   0  0  0  0  0  0  0  0  0  0  0  0
   27.8331  -22.4671  -16.0115 C   0  0  0  0  0  0  0  0  0  0  0  0
   28.6742  -22.2454  -17.2366 C   0  0  0  0  0  0  0  0  0  0  0  0
   29.6918  -23.2674  -17.3553 N   0  0  0  0  0  0  0  0  0  0  0  0
   24.0415  -20.5050  -15.6759 C   0  0  0  0  0  0  0  0  0  0  0  0
   23.2097  -21.4337  -15.9334 O   0  0  0  0  0  0  0  0  0  0  0  0
   21.2001  -13.5617  -19.9977 N   0  0  0  0  0  0  0  0  0  0  0  0
   20.2312  -14.4539  -19.4450 C   0  0  0  0  0  0  0  0  0  0  0  0
   19.0857  -13.9963  -19.1425 N   0  0  0  0  0  0  0  0  0  0  0  0
   20.5653  -15.8117  -19.2493 N   0  0  0  0  0  0  0  0  0  0  0  0
   21.8808  -16.2831  -19.5523 C   0  0  0  0  0  0  0  0  0  0  0  0
   21.9927  -17.7590  -19.2218 C   0  0  0  0  0  0  0  0  0  0  0  0
   22.9866  -17.8845  -18.0730 C   0  0  0  0  0  0  0  0  0  0  0  0
   23.1309  -19.3647  -17.7244 C   0  0  2  0  0  0  0  0  0  0  0  0
   24.0824  -19.4399  -16.6121 N   0  0  0  0  0  0  0  0  0  0  0  0
   23.6657  -20.0340  -18.9361 C   0  0  0  0  0  0  0  0  0  0  0  0
   24.8435  -19.9280  -19.3067 O   0  0  0  0  0  0  0  0  0  0  0  0
   22.7748  -20.8170  -19.6776 O   0  0  0  0  0  0  0  0  0  0  0  0
  1  2  1  0
  3  2  1  0
  4  3  1  0
  5  4  1  0
  5  1  1  0
  6  8  1  0
  5  6  1  6
  7  6  2  0
  9  8  1  0
 10 11  1  0
  9 10  1  6
 12 11  1  0
 13 14  1  0
 13 12  1  0
 15 16  2  0
 15  9  1  0
 17 18  1  0
 18 19  2  0
 20 18  1  0
 20 21  1  0
 21 22  1  0
 22 23  1  0
 24 23  1  6
 24 25  1  0
 24 26  1  0
 25 15  1  0
 26 28  1  0
 27 26  2  0
M  END
$$$$
