PKR.pdb
     RDKit          3D

 28 28  0  0  1  0  0  0  0  0999 V2000
   29.9322  -24.5541  -16.2734 N   0  0  0  0  0  0  0  0  0  0  0  0
   30.0876  -25.8081  -16.9555 C   0  0  0  0  0  0  0  0  0  0  0  0
   29.2304  -25.7936  -18.1730 C   0  0  0  0  0  0  0  0  0  0  0  0
   28.6619  -24.4195  -18.2670 C   0  0  0  0  0  0  0  0  0  0  0  0
   29.2804  -23.6461  -17.1503 C   0  0  1  0  0  0  0  0  0  0  0  0
   28.2358  -22.8767  -16.3768 C   0  0  0  0  0  0  0  0  0  0  0  0
   27.6439  -23.4332  -15.4164 O   0  0  0  0  0  0  0  0  0  0  0  0
   27.9623  -21.5556  -16.7623 N   0  0  0  0  0  0  0  0  0  0  0  0
   26.9851  -20.6945  -16.1621 C   0  0  1  0  0  0  0  0  0  0  0  0
   27.2186  -19.2058  -16.4501 C   0  0  0  0  0  0  0  0  0  0  0  0
   26.1476  -18.3592  -15.8153 C   0  0  0  0  0  0  0  0  0  0  0  0
   26.4517  -16.9073  -16.0323 C   0  0  0  0  0  0  0  0  0  0  0  0
   25.4456  -16.0340  -15.3377 C   0  0  0  0  0  0  0  0  0  0  0  0
   25.7761  -14.6349  -15.5025 N   0  0  0  0  0  0  0  0  0  0  0  0
   25.5931  -21.0597  -16.3892 C   0  0  0  0  0  0  0  0  0  0  0  0
   25.1639  -21.2242  -17.5764 O   0  0  0  0  0  0  0  0  0  0  0  0
   21.4971  -27.2071  -12.5550 N   0  0  0  0  0  0  0  0  0  0  0  0
   20.6943  -26.0870  -12.1793 C   0  0  0  0  0  0  0  0  0  0  0  0
   19.7100  -26.2783  -11.3996 N   0  0  0  0  0  0  0  0  0  0  0  0
   21.0097  -24.8043  -12.6781 N   0  0  0  0  0  0  0  0  0  0  0  0
   22.0074  -24.6481  -13.6905 C   0  0  0  0  0  0  0  0  0  0  0  0
   22.0513  -23.2061  -14.1584 C   0  0  0  0  0  0  0  0  0  0  0  0
   23.1322  -23.1178  -15.2294 C   0  0  0  0  0  0  0  0  0  0  0  0
   23.2616  -21.6577  -15.6596 C   0  0  2  0  0  0  0  0  0  0  0  0
   24.6383  -21.2552  -15.3582 N   0  0  0  0  0  0  0  0  0  0  0  0
   22.2863  -20.8897  -14.8465 C   0  0  0  0  0  0  0  0  0  0  0  0
   22.6156  -20.1627  -13.8984 O   0  0  0  0  0  0  0  0  0  0  0  0
   20.9355  -21.0105  -15.1890 O   0  0  0  0  0  0  0  0  0  0  0  0
  1  2  1  0
  3  2  1  0
  4  3  1  0
  5  4  1  0
  5  1  1  0
  6  8  1  0
  5  6  1  1
  7  6  2  0
  9  8  1  0
 10 11  1  0
  9 10  1  6
 12 11  1  0
 13 14  1  0
 13 12  1  0
 15 16  2  0
 15  9  1  0
 17 18  1  0
 18 19  2  0
 20 18  1  0
 20 21  1  0
 21 22  1  0
 22 23  1  0
 24 23  1  1
 24 25  1  0
 24 26  1  0
 25 15  1  0
 26 28  1  0
 27 26  2  0
M  END
$$$$
