PKR.pdb
     RDKit          3D

 28 28  0  0  1  0  0  0  0  0999 V2000
   27.6485  -20.6322  -16.9856 N   0  0  0  0  0  0  0  0  0  0  0  0
   29.0401  -20.2853  -17.0567 C   0  0  0  0  0  0  0  0  0  0  0  0
   29.8441  -21.4693  -16.6455 C   0  0  0  0  0  0  0  0  0  0  0  0
   28.8766  -22.5872  -16.4607 C   0  0  0  0  0  0  0  0  0  0  0  0
   27.5455  -22.0436  -16.8610 C   0  0  1  0  0  0  0  0  0  0  0  0
   26.4908  -22.3724  -15.8308 C   0  0  0  0  0  0  0  0  0  0  0  0
   26.2721  -23.5747  -15.5327 O   0  0  0  0  0  0  0  0  0  0  0  0
   25.7874  -21.3127  -15.2383 N   0  0  0  0  0  0  0  0  0  0  0  0
   24.7853  -21.4398  -14.2203 C   0  0  1  0  0  0  0  0  0  0  0  0
   24.9920  -20.4903  -13.0331 C   0  0  0  0  0  0  0  0  0  0  0  0
   25.3223  -21.2573  -11.7802 C   0  0  0  0  0  0  0  0  0  0  0  0
   25.4643  -20.3103  -10.6267 C   0  0  0  0  0  0  0  0  0  0  0  0
   25.8210  -21.0439   -9.3650 C   0  0  0  0  0  0  0  0  0  0  0  0
   25.9412  -20.1272   -8.2519 N   0  0  0  0  0  0  0  0  0  0  0  0
   23.4040  -21.4073  -14.6823 C   0  0  0  0  0  0  0  0  0  0  0  0
   23.0000  -20.4465  -15.4133 O   0  0  0  0  0  0  0  0  0  0  0  0
   16.0460  -24.9675  -11.1975 N   0  0  0  0  0  0  0  0  0  0  0  0
   16.9709  -25.3410  -12.2199 C   0  0  0  0  0  0  0  0  0  0  0  0
   16.7044  -26.3515  -12.9417 N   0  0  0  0  0  0  0  0  0  0  0  0
   18.1496  -24.5856  -12.4037 N   0  0  0  0  0  0  0  0  0  0  0  0
   18.1098  -23.1577  -12.3404 C   0  0  0  0  0  0  0  0  0  0  0  0
   18.7876  -22.5645  -13.5607 C   0  0  0  0  0  0  0  0  0  0  0  0
   20.2907  -22.6717  -13.3319 C   0  0  0  0  0  0  0  0  0  0  0  0
   21.0029  -22.1490  -14.5782 C   0  0  2  0  0  0  0  0  0  0  0  0
   22.4334  -22.3952  -14.3744 N   0  0  0  0  0  0  0  0  0  0  0  0
   20.7124  -20.6957  -14.6526 C   0  0  0  0  0  0  0  0  0  0  0  0
   21.1673  -19.8700  -13.8481 O   0  0  0  0  0  0  0  0  0  0  0  0
   19.8816  -20.2640  -15.6918 O   0  0  0  0  0  0  0  0  0  0  0  0
  1  2  1  0
  3  2  1  0
  4  3  1  0
  5  4  1  0
  5  1  1  0
  6  8  1  0
  5  6  1  1
  7  6  2  0
  9  8  1  0
 10 11  1  0
  9 10  1  1
 12 11  1  0
 13 14  1  0
 13 12  1  0
 15 16  2  0
 15  9  1  0
 17 18  1  0
 18 19  2  0
 20 18  1  0
 20 21  1  0
 21 22  1  0
 22 23  1  0
 24 23  1  1
 24 25  1  0
 24 26  1  0
 25 15  1  0
 26 28  1  0
 27 26  2  0
M  END
$$$$
