PKR.pdb
     RDKit          3D

 28 28  0  0  1  0  0  0  0  0999 V2000
   24.7520  -22.2723  -14.9565 N   0  0  0  0  0  0  0  0  0  0  0  0
   25.9284  -21.8105  -15.6383 C   0  0  0  0  0  0  0  0  0  0  0  0
   26.2919  -20.4707  -15.0995 C   0  0  0  0  0  0  0  0  0  0  0  0
   25.3628  -20.2113  -13.9639 C   0  0  0  0  0  0  0  0  0  0  0  0
   24.5452  -21.4511  -13.8158 C   0  0  1  0  0  0  0  0  0  0  0  0
   23.0749  -21.1236  -13.7036 C   0  0  0  0  0  0  0  0  0  0  0  0
   22.6833  -20.3429  -12.7984 O   0  0  0  0  0  0  0  0  0  0  0  0
   22.1916  -21.7087  -14.6235 N   0  0  0  0  0  0  0  0  0  0  0  0
   20.7623  -21.5939  -14.5996 C   0  0  1  0  0  0  0  0  0  0  0  0
   20.1499  -21.2610  -15.9663 C   0  0  0  0  0  0  0  0  0  0  0  0
   18.6699  -21.0110  -15.8477 C   0  0  0  0  0  0  0  0  0  0  0  0
   18.1072  -20.6431  -17.1876 C   0  0  0  0  0  0  0  0  0  0  0  0
   16.6325  -20.3699  -17.0987 C   0  0  0  0  0  0  0  0  0  0  0  0
   16.1028  -19.9743  -18.3860 N   0  0  0  0  0  0  0  0  0  0  0  0
   20.0485  -22.6907  -13.9592 C   0  0  0  0  0  0  0  0  0  0  0  0
   20.3412  -23.8954  -14.2486 O   0  0  0  0  0  0  0  0  0  0  0  0
   19.0899  -25.7244   -6.8423 N   0  0  0  0  0  0  0  0  0  0  0  0
   17.7024  -25.3869   -6.8792 C   0  0  0  0  0  0  0  0  0  0  0  0
   16.8932  -26.0617   -6.1700 N   0  0  0  0  0  0  0  0  0  0  0  0
   17.2656  -24.3209   -7.6955 N   0  0  0  0  0  0  0  0  0  0  0  0
   18.1872  -23.6435   -8.5537 C   0  0  0  0  0  0  0  0  0  0  0  0
   17.6670  -23.6443   -9.9784 C   0  0  0  0  0  0  0  0  0  0  0  0
   18.8833  -23.6642  -10.8969 C   0  0  0  0  0  0  0  0  0  0  0  0
   18.3909  -23.6734  -12.3429 C   0  0  2  0  0  0  0  0  0  0  0  0
   19.0144  -22.5227  -13.0025 N   0  0  0  0  0  0  0  0  0  0  0  0
   16.9152  -23.5274  -12.2877 C   0  0  0  0  0  0  0  0  0  0  0  0
   16.3318  -22.4498  -12.4731 O   0  0  0  0  0  0  0  0  0  0  0  0
   16.1705  -24.6787  -12.0111 O   0  0  0  0  0  0  0  0  0  0  0  0
  1  2  1  0
  3  2  1  0
  4  3  1  0
  5  4  1  0
  5  1  1  0
  6  8  1  0
  5  6  1  6
  7  6  2  0
  9  8  1  0
 10 11  1  0
  9 10  1  6
 12 11  1  0
 13 14  1  0
 13 12  1  0
 15 16  2  0
 15  9  1  0
 17 18  1  0
 18 19  2  0
 20 18  1  0
 20 21  1  0
 21 22  1  0
 22 23  1  0
 24 23  1  1
 24 25  1  0
 24 26  1  0
 25 15  1  0
 26 28  1  0
 27 26  2  0
M  END
$$$$
