PKR.pdb
     RDKit          3D

 28 28  0  0  1  0  0  0  0  0999 V2000
   26.6050  -20.6854  -15.5545 N   0  0  0  0  0  0  0  0  0  0  0  0
   27.8366  -20.1431  -16.0554 C   0  0  0  0  0  0  0  0  0  0  0  0
   28.4685  -19.3315  -14.9785 C   0  0  0  0  0  0  0  0  0  0  0  0
   27.6307  -19.5273  -13.7621 C   0  0  0  0  0  0  0  0  0  0  0  0
   26.5863  -20.5231  -14.1433 C   0  0  1  0  0  0  0  0  0  0  0  0
   25.2125  -20.0615  -13.7177 C   0  0  0  0  0  0  0  0  0  0  0  0
   25.0299  -19.6741  -12.5350 O   0  0  0  0  0  0  0  0  0  0  0  0
   24.1805  -20.0819  -14.6681 N   0  0  0  0  0  0  0  0  0  0  0  0
   22.8134  -19.7228  -14.4259 C   0  0  1  0  0  0  0  0  0  0  0  0
   22.2256  -18.7888  -15.4916 C   0  0  0  0  0  0  0  0  0  0  0  0
   23.1774  -17.6661  -15.8091 C   0  0  0  0  0  0  0  0  0  0  0  0
   22.6381  -16.8474  -16.9432 C   0  0  0  0  0  0  0  0  0  0  0  0
   23.5782  -15.7310  -17.2997 C   0  0  0  0  0  0  0  0  0  0  0  0
   23.1384  -15.0491  -18.4977 N   0  0  0  0  0  0  0  0  0  0  0  0
   21.9080  -20.8284  -14.1419 C   0  0  0  0  0  0  0  0  0  0  0  0
   21.9321  -21.8734  -14.8687 O   0  0  0  0  0  0  0  0  0  0  0  0
   16.6375  -25.0003   -8.4631 N   0  0  0  0  0  0  0  0  0  0  0  0
   18.0521  -25.1853   -8.3932 C   0  0  0  0  0  0  0  0  0  0  0  0
   18.5036  -26.1912   -7.7628 N   0  0  0  0  0  0  0  0  0  0  0  0
   18.9089  -24.2546   -9.0205 N   0  0  0  0  0  0  0  0  0  0  0  0
   18.3695  -23.1055   -9.6786 C   0  0  0  0  0  0  0  0  0  0  0  0
   18.7276  -23.1350  -11.1521 C   0  0  0  0  0  0  0  0  0  0  0  0
   19.6732  -21.9665  -11.4045 C   0  0  0  0  0  0  0  0  0  0  0  0
   20.0517  -21.9681  -12.8844 C   0  0  2  0  0  0  0  0  0  0  0  0
   20.9650  -20.8389  -13.0820 N   0  0  0  0  0  0  0  0  0  0  0  0
   18.7906  -21.7791  -13.6433 C   0  0  0  0  0  0  0  0  0  0  0  0
   18.2851  -20.6674  -13.8547 O   0  0  0  0  0  0  0  0  0  0  0  0
   18.1625  -22.9291  -14.1327 O   0  0  0  0  0  0  0  0  0  0  0  0
  1  2  1  0
  3  2  1  0
  4  3  1  0
  5  4  1  0
  5  1  1  0
  6  8  1  0
  5  6  1  6
  7  6  2  0
  9  8  1  0
 10 11  1  0
  9 10  1  6
 12 11  1  0
 13 14  1  0
 13 12  1  0
 15 16  2  0
 15  9  1  0
 17 18  1  0
 18 19  2  0
 20 18  1  0
 20 21  1  0
 21 22  1  0
 22 23  1  0
 24 23  1  1
 24 25  1  0
 24 26  1  0
 25 15  1  0
 26 28  1  0
 27 26  2  0
M  END
$$$$
