PKR.pdb
     RDKit          3D

 28 28  0  0  1  0  0  0  0  0999 V2000
   27.9876  -21.7524  -16.8753 N   0  0  0  0  0  0  0  0  0  0  0  0
   27.8433  -21.2974  -18.2295 C   0  0  0  0  0  0  0  0  0  0  0  0
   27.0680  -20.0260  -18.2212 C   0  0  0  0  0  0  0  0  0  0  0  0
   26.8753  -19.6640  -16.7888 C   0  0  0  0  0  0  0  0  0  0  0  0
   27.6262  -20.6888  -16.0055 C   0  0  1  0  0  0  0  0  0  0  0  0
   26.7839  -21.2376  -14.8782 C   0  0  0  0  0  0  0  0  0  0  0  0
   26.1897  -22.3359  -15.0293 O   0  0  0  0  0  0  0  0  0  0  0  0
   26.6954  -20.4938  -13.6917 N   0  0  0  0  0  0  0  0  0  0  0  0
   25.9661  -20.8761  -12.5176 C   0  0  1  0  0  0  0  0  0  0  0  0
   26.5541  -20.3107  -11.2182 C   0  0  0  0  0  0  0  0  0  0  0  0
   25.7931  -20.8111  -10.0193 C   0  0  0  0  0  0  0  0  0  0  0  0
   26.2753  -20.1132   -8.7832 C   0  0  0  0  0  0  0  0  0  0  0  0
   25.6436  -20.6965   -7.5511 C   0  0  0  0  0  0  0  0  0  0  0  0
   26.0203  -19.9450   -6.3733 N   0  0  0  0  0  0  0  0  0  0  0  0
   24.5245  -20.6726  -12.5719 C   0  0  0  0  0  0  0  0  0  0  0  0
   24.0540  -19.5491  -12.9422 O   0  0  0  0  0  0  0  0  0  0  0  0
   17.4917  -25.5642  -10.2257 N   0  0  0  0  0  0  0  0  0  0  0  0
   16.9642  -24.5834  -11.1201 C   0  0  0  0  0  0  0  0  0  0  0  0
   15.7302  -24.6318  -11.4167 N   0  0  0  0  0  0  0  0  0  0  0  0
   17.8182  -23.5913  -11.6493 N   0  0  0  0  0  0  0  0  0  0  0  0
   19.2333  -23.6829  -11.4654 C   0  0  0  0  0  0  0  0  0  0  0  0
   19.9116  -22.4500  -12.0312 C   0  0  0  0  0  0  0  0  0  0  0  0
   21.4146  -22.6815  -11.9284 C   0  0  0  0  0  0  0  0  0  0  0  0
   22.1269  -21.4083  -12.3813 C   0  0  2  0  0  0  0  0  0  0  0  0
   23.5633  -21.6598  -12.2339 N   0  0  0  0  0  0  0  0  0  0  0  0
   21.6745  -20.3252  -11.4734 C   0  0  0  0  0  0  0  0  0  0  0  0
   20.7309  -19.5667  -11.7383 O   0  0  0  0  0  0  0  0  0  0  0  0
   22.3647  -20.1755  -10.2660 O   0  0  0  0  0  0  0  0  0  0  0  0
  1  2  1  0
  3  2  1  0
  4  3  1  0
  5  4  1  0
  5  1  1  0
  6  8  1  0
  5  6  1  1
  7  6  2  0
  9  8  1  0
 10 11  1  0
  9 10  1  1
 12 11  1  0
 13 14  1  0
 13 12  1  0
 15 16  2  0
 15  9  1  0
 17 18  1  0
 18 19  2  0
 20 18  1  0
 20 21  1  0
 21 22  1  0
 22 23  1  0
 24 23  1  1
 24 25  1  0
 24 26  1  0
 25 15  1  0
 26 28  1  0
 27 26  2  0
M  END
$$$$
