PKR.pdb
     RDKit          3D

 28 28  0  0  1  0  0  0  0  0999 V2000
   26.6432  -16.7458  -21.0274 N   0  0  0  0  0  0  0  0  0  0  0  0
   27.7508  -16.3080  -21.8295 C   0  0  0  0  0  0  0  0  0  0  0  0
   27.5670  -16.8268  -23.2131 C   0  0  0  0  0  0  0  0  0  0  0  0
   26.2267  -17.4771  -23.2405 C   0  0  0  0  0  0  0  0  0  0  0  0
   25.6296  -17.2353  -21.8942 C   0  0  1  0  0  0  0  0  0  0  0  0
   25.0576  -18.5079  -21.3155 C   0  0  0  0  0  0  0  0  0  0  0  0
   24.0991  -19.0758  -21.8996 O   0  0  0  0  0  0  0  0  0  0  0  0
   25.6234  -19.0146  -20.1357 N   0  0  0  0  0  0  0  0  0  0  0  0
   25.1804  -20.1818  -19.4301 C   0  0  1  0  0  0  0  0  0  0  0  0
   26.3271  -21.0787  -18.9456 C   0  0  0  0  0  0  0  0  0  0  0  0
   25.8124  -22.4263  -18.5142 C   0  0  0  0  0  0  0  0  0  0  0  0
   26.9628  -23.3234  -18.1692 C   0  0  0  0  0  0  0  0  0  0  0  0
   26.4827  -24.6907  -17.7726 C   0  0  0  0  0  0  0  0  0  0  0  0
   27.5989  -25.5803  -17.5345 N   0  0  0  0  0  0  0  0  0  0  0  0
   24.2116  -19.9506  -18.3668 C   0  0  0  0  0  0  0  0  0  0  0  0
   24.5226  -19.2228  -17.3697 O   0  0  0  0  0  0  0  0  0  0  0  0
   16.8772  -23.8141  -16.2639 N   0  0  0  0  0  0  0  0  0  0  0  0
   16.4649  -22.4475  -16.2105 C   0  0  0  0  0  0  0  0  0  0  0  0
   15.2444  -22.1893  -15.9718 N   0  0  0  0  0  0  0  0  0  0  0  0
   17.4142  -21.4240  -16.4222 N   0  0  0  0  0  0  0  0  0  0  0  0
   18.8109  -21.6923  -16.2748 C   0  0  0  0  0  0  0  0  0  0  0  0
   19.6139  -20.4383  -16.5629 C   0  0  0  0  0  0  0  0  0  0  0  0
   20.6268  -20.7962  -17.6441 C   0  0  0  0  0  0  0  0  0  0  0  0
   21.9872  -20.2390  -17.2288 C   0  0  2  0  0  0  0  0  0  0  0  0
   22.8992  -20.4893  -18.3486 N   0  0  0  0  0  0  0  0  0  0  0  0
   22.4010  -20.9923  -16.0192 C   0  0  0  0  0  0  0  0  0  0  0  0
   22.9484  -22.1033  -16.0651 O   0  0  0  0  0  0  0  0  0  0  0  0
   22.1490  -20.3958  -14.7794 O   0  0  0  0  0  0  0  0  0  0  0  0
  1  2  1  0
  3  2  1  0
  4  3  1  0
  5  4  1  0
  5  1  1  0
  6  8  1  0
  5  6  1  1
  7  6  2  0
  9  8  1  0
 10 11  1  0
  9 10  1  1
 12 11  1  0
 13 14  1  0
 13 12  1  0
 15 16  2  0
 15  9  1  0
 17 18  1  0
 18 19  2  0
 20 18  1  0
 20 21  1  0
 21 22  1  0
 22 23  1  0
 24 23  1  6
 24 25  1  0
 24 26  1  0
 25 15  1  0
 26 28  1  0
 27 26  2  0
M  END
$$$$
