VWW.pdb
     RDKit          3D

 36 39  0  0  1  0  0  0  0  0999 V2000
   29.3165  -19.5013  -14.2461 C   0  0  0  0  0  0  0  0  0  0  0  0
   28.1547  -20.1742  -13.5310 C   0  0  2  0  0  0  0  0  0  0  0  0
   27.1167  -19.1258  -13.2155 C   0  0  0  0  0  0  0  0  0  0  0  0
   28.6644  -20.7170  -12.2091 C   0  0  2  0  0  0  0  0  0  0  0  0
   29.7009  -21.6800  -12.4930 N   0  0  0  0  0  0  0  0  0  0  0  0
   27.5846  -21.3923  -11.4525 C   0  0  0  0  0  0  0  0  0  0  0  0
   27.2418  -22.5553  -11.7762 O   0  0  0  0  0  0  0  0  0  0  0  0
   26.9749  -20.6854  -10.3783 N   0  0  0  0  0  0  0  0  0  0  0  0
   25.7856  -21.1924   -9.7721 C   0  0  1  0  0  0  0  0  0  0  0  0
   25.6421  -20.7946   -8.3234 C   0  0  0  0  0  0  0  0  0  0  0  0
   26.7046  -19.9197   -7.8495 C   0  0  0  0  0  0  0  0  0  0  0  0
   27.0504  -18.6951   -8.3327 C   0  0  0  0  0  0  0  0  0  0  0  0
   28.0891  -18.1881   -7.6327 N   0  0  0  0  0  0  0  0  0  0  0  0
   28.4246  -19.1008   -6.6767 C   0  0  0  0  0  0  0  0  0  0  0  0
   29.4047  -19.0815   -5.7053 C   0  0  0  0  0  0  0  0  0  0  0  0
   29.4730  -20.1911   -4.8841 C   0  0  0  0  0  0  0  0  0  0  0  0
   28.6377  -21.2670   -4.9937 C   0  0  0  0  0  0  0  0  0  0  0  0
   27.6669  -21.2721   -5.9655 C   0  0  0  0  0  0  0  0  0  0  0  0
   27.5623  -20.1882   -6.8058 C   0  0  0  0  0  0  0  0  0  0  0  0
   24.6190  -20.5837  -10.4871 C   0  0  0  0  0  0  0  0  0  0  0  0
   24.7486  -19.4553  -11.0487 O   0  0  0  0  0  0  0  0  0  0  0  0
   23.3673  -21.2159  -10.5662 N   0  0  0  0  0  0  0  0  0  0  0  0
   22.3222  -20.6461  -11.4224 C   0  0  1  0  0  0  0  0  0  0  0  0
   22.8410  -20.4473  -12.8240 C   0  0  0  0  0  0  0  0  0  0  0  0
   23.3740  -21.7429  -13.3169 C   0  0  0  0  0  0  0  0  0  0  0  0
   22.8085  -22.9929  -13.0767 C   0  0  0  0  0  0  0  0  0  0  0  0
   23.5618  -23.9296  -13.6721 N   0  0  0  0  0  0  0  0  0  0  0  0
   24.6088  -23.3636  -14.3021 C   0  0  0  0  0  0  0  0  0  0  0  0
   25.6477  -23.8900  -15.0430 C   0  0  0  0  0  0  0  0  0  0  0  0
   26.6097  -23.0672  -15.5900 C   0  0  0  0  0  0  0  0  0  0  0  0
   26.4812  -21.7137  -15.3621 C   0  0  0  0  0  0  0  0  0  0  0  0
   25.4409  -21.1731  -14.6188 C   0  0  0  0  0  0  0  0  0  0  0  0
   24.4933  -22.0043  -14.0820 C   0  0  0  0  0  0  0  0  0  0  0  0
   21.1077  -21.4960  -11.4005 C   0  0  0  0  0  0  0  0  0  0  0  0
   20.0564  -21.1107  -11.9868 O   0  0  0  0  0  0  0  0  0  0  0  0
   21.0552  -22.7176  -10.7598 O   0  0  0  0  0  0  0  0  0  0  0  0
  2  1  1  1
  3  2  1  0
  4  6  1  0
  4  5  1  6
  4  2  1  0
  6  7  2  0
  8  9  1  0
  8  6  1  0
  9 20  1  0
 10 11  1  0
  9 10  1  1
 11 19  1  0
 12 11  2  0
 12 13  1  0
 13 14  1  0
 14 15  2  0
 15 16  1  0
 17 16  2  0
 18 17  1  0
 19 18  2  0
 19 14  1  0
 20 21  2  0
 20 22  1  0
 22 23  1  0
 23 34  1  0
 23 24  1  6
 25 24  1  0
 26 25  2  0
 27 28  1  0
 27 26  1  0
 28 33  2  0
 29 28  1  0
 29 30  2  0
 30 31  1  0
 31 32  2  0
 33 25  1  0
 33 32  1  0
 34 35  2  0
 34 36  1  0
M  END
$$$$
