VWW.pdb
     RDKit          3D

 36 39  0  0  1  0  0  0  0  0999 V2000
   26.3832  -19.7588  -18.1281 C   0  0  0  0  0  0  0  0  0  0  0  0
   27.1419  -21.0709  -18.2588 C   0  0  2  0  0  0  0  0  0  0  0  0
   26.5636  -21.8431  -19.4186 C   0  0  0  0  0  0  0  0  0  0  0  0
   26.8933  -21.8870  -17.0042 C   0  0  2  0  0  0  0  0  0  0  0  0
   25.4694  -22.0814  -16.8740 N   0  0  0  0  0  0  0  0  0  0  0  0
   27.3878  -21.1835  -15.7980 C   0  0  0  0  0  0  0  0  0  0  0  0
   28.6126  -20.9314  -15.6923 O   0  0  0  0  0  0  0  0  0  0  0  0
   26.4422  -20.8192  -14.7988 N   0  0  0  0  0  0  0  0  0  0  0  0
   26.8731  -20.1362  -13.6212 C   0  0  1  0  0  0  0  0  0  0  0  0
   26.1514  -18.8302  -13.3952 C   0  0  0  0  0  0  0  0  0  0  0  0
   26.2850  -17.8901  -14.4986 C   0  0  0  0  0  0  0  0  0  0  0  0
   25.3274  -17.0713  -15.0134 C   0  0  0  0  0  0  0  0  0  0  0  0
   25.8295  -16.3420  -16.0343 N   0  0  0  0  0  0  0  0  0  0  0  0
   27.1383  -16.6940  -16.1855 C   0  0  0  0  0  0  0  0  0  0  0  0
   28.1007  -16.2566  -17.0727 C   0  0  0  0  0  0  0  0  0  0  0  0
   29.3513  -16.8323  -16.9503 C   0  0  0  0  0  0  0  0  0  0  0  0
   29.6593  -17.7833  -16.0186 C   0  0  0  0  0  0  0  0  0  0  0  0
   28.6910  -18.2088  -15.1422 C   0  0  0  0  0  0  0  0  0  0  0  0
   27.4314  -17.6630  -15.2276 C   0  0  0  0  0  0  0  0  0  0  0  0
   26.5383  -21.0039  -12.4474 C   0  0  0  0  0  0  0  0  0  0  0  0
   25.7915  -22.0146  -12.6091 O   0  0  0  0  0  0  0  0  0  0  0  0
   27.0219  -20.7458  -11.1544 N   0  0  0  0  0  0  0  0  0  0  0  0
   26.5738  -21.5798  -10.0348 C   0  0  1  0  0  0  0  0  0  0  0  0
   27.6707  -21.7178   -9.0097 C   0  0  0  0  0  0  0  0  0  0  0  0
   27.5690  -20.5839   -8.0559 C   0  0  0  0  0  0  0  0  0  0  0  0
   26.9775  -19.3521   -8.3255 C   0  0  0  0  0  0  0  0  0  0  0  0
   27.0749  -18.5780   -7.2344 N   0  0  0  0  0  0  0  0  0  0  0  0
   27.7059  -19.2358   -6.2432 C   0  0  0  0  0  0  0  0  0  0  0  0
   28.0428  -18.8789   -4.9531 C   0  0  0  0  0  0  0  0  0  0  0  0
   28.7029  -19.7645   -4.1274 C   0  0  0  0  0  0  0  0  0  0  0  0
   29.0032  -21.0045   -4.6493 C   0  0  0  0  0  0  0  0  0  0  0  0
   28.6693  -21.3745   -5.9449 C   0  0  0  0  0  0  0  0  0  0  0  0
   28.0137  -20.4830   -6.7526 C   0  0  0  0  0  0  0  0  0  0  0  0
   25.3307  -21.0326   -9.4404 C   0  0  0  0  0  0  0  0  0  0  0  0
   24.7385  -21.6658   -8.5206 O   0  0  0  0  0  0  0  0  0  0  0  0
   24.7656  -19.8393   -9.8430 O   0  0  0  0  0  0  0  0  0  0  0  0
  2  1  1  1
  3  2  1  0
  4  6  1  0
  4  5  1  1
  4  2  1  0
  6  7  2  0
  8  9  1  0
  8  6  1  0
  9 20  1  0
 10 11  1  0
  9 10  1  1
 11 19  1  0
 12 11  2  0
 12 13  1  0
 13 14  1  0
 14 15  2  0
 15 16  1  0
 17 16  2  0
 18 17  1  0
 19 18  2  0
 19 14  1  0
 20 21  2  0
 20 22  1  0
 22 23  1  0
 23 34  1  0
 23 24  1  1
 25 24  1  0
 26 25  2  0
 27 28  1  0
 27 26  1  0
 28 33  2  0
 29 28  1  0
 29 30  2  0
 30 31  1  0
 31 32  2  0
 33 25  1  0
 33 32  1  0
 34 35  2  0
 34 36  1  0
M  END
$$$$
