VWW.pdb
     RDKit          3D

 36 39  0  0  1  0  0  0  0  0999 V2000
   26.9723  -20.7590  -18.0627 C   0  0  0  0  0  0  0  0  0  0  0  0
   27.4579  -22.1884  -17.8754 C   0  0  2  0  0  0  0  0  0  0  0  0
   26.8824  -23.0368  -18.9822 C   0  0  0  0  0  0  0  0  0  0  0  0
   26.8950  -22.7107  -16.5669 C   0  0  2  0  0  0  0  0  0  0  0  0
   25.4615  -22.5487  -16.6024 N   0  0  0  0  0  0  0  0  0  0  0  0
   27.4290  -21.9535  -15.4111 C   0  0  0  0  0  0  0  0  0  0  0  0
   28.6571  -22.0038  -15.1578 O   0  0  0  0  0  0  0  0  0  0  0  0
   26.5163  -21.1924  -14.6281 N   0  0  0  0  0  0  0  0  0  0  0  0
   26.9919  -20.4171  -13.5273 C   0  0  1  0  0  0  0  0  0  0  0  0
   26.6359  -18.9545  -13.6340 C   0  0  0  0  0  0  0  0  0  0  0  0
   27.3843  -18.2441  -14.6608 C   0  0  0  0  0  0  0  0  0  0  0  0
   28.3620  -18.7384  -15.4684 C   0  0  0  0  0  0  0  0  0  0  0  0
   28.8213  -17.7748  -16.2970 N   0  0  0  0  0  0  0  0  0  0  0  0
   28.1287  -16.6327  -16.0223 C   0  0  0  0  0  0  0  0  0  0  0  0
   28.2036  -15.3693  -16.5727 C   0  0  0  0  0  0  0  0  0  0  0  0
   27.3408  -14.4236  -16.0514 C   0  0  0  0  0  0  0  0  0  0  0  0
   26.4495  -14.6827  -15.0486 C   0  0  0  0  0  0  0  0  0  0  0  0
   26.3863  -15.9450  -14.5105 C   0  0  0  0  0  0  0  0  0  0  0  0
   27.2267  -16.9182  -14.9987 C   0  0  0  0  0  0  0  0  0  0  0  0
   26.3112  -20.9210  -12.2922 C   0  0  0  0  0  0  0  0  0  0  0  0
   25.0939  -21.2685  -12.3461 O   0  0  0  0  0  0  0  0  0  0  0  0
   26.9700  -21.0286  -11.0565 N   0  0  0  0  0  0  0  0  0  0  0  0
   26.2415  -21.5380   -9.8905 C   0  0  1  0  0  0  0  0  0  0  0  0
   27.1974  -21.8440   -8.7655 C   0  0  0  0  0  0  0  0  0  0  0  0
   27.3111  -20.6398   -7.9036 C   0  0  0  0  0  0  0  0  0  0  0  0
   26.7506  -19.3945   -8.1777 C   0  0  0  0  0  0  0  0  0  0  0  0
   27.0633  -18.5514   -7.1823 N   0  0  0  0  0  0  0  0  0  0  0  0
   27.8093  -19.1758   -6.2512 C   0  0  0  0  0  0  0  0  0  0  0  0
   28.3678  -18.7494   -5.0632 C   0  0  0  0  0  0  0  0  0  0  0  0
   29.1038  -19.6143   -4.2808 C   0  0  0  0  0  0  0  0  0  0  0  0
   29.2496  -20.9059   -4.7398 C   0  0  0  0  0  0  0  0  0  0  0  0
   28.6925  -21.3460   -5.9327 C   0  0  0  0  0  0  0  0  0  0  0  0
   27.9642  -20.4741   -6.6985 C   0  0  0  0  0  0  0  0  0  0  0  0
   25.1887  -20.5812   -9.4732 C   0  0  0  0  0  0  0  0  0  0  0  0
   25.2219  -19.3865   -9.8844 O   0  0  0  0  0  0  0  0  0  0  0  0
   24.1449  -20.9273   -8.6387 O   0  0  0  0  0  0  0  0  0  0  0  0
  2  1  1  6
  3  2  1  0
  4  6  1  0
  4  5  1  6
  4  2  1  0
  6  7  2  0
  8  9  1  0
  8  6  1  0
  9 20  1  0
 10 11  1  0
  9 10  1  6
 11 19  1  0
 12 11  2  0
 12 13  1  0
 13 14  1  0
 14 15  2  0
 15 16  1  0
 17 16  2  0
 18 17  1  0
 19 18  2  0
 19 14  1  0
 20 21  2  0
 20 22  1  0
 22 23  1  0
 23 34  1  0
 23 24  1  1
 25 24  1  0
 26 25  2  0
 27 28  1  0
 27 26  1  0
 28 33  2  0
 29 28  1  0
 29 30  2  0
 30 31  1  0
 31 32  2  0
 33 25  1  0
 33 32  1  0
 34 35  2  0
 34 36  1  0
M  END
$$$$
