VWW.pdb
     RDKit          3D

 36 39  0  0  1  0  0  0  0  0999 V2000
   25.9295  -21.8337  -17.5338 C   0  0  0  0  0  0  0  0  0  0  0  0
   27.1861  -21.0384  -17.2137 C   0  0  2  0  0  0  0  0  0  0  0  0
   28.0235  -20.9450  -18.4652 C   0  0  0  0  0  0  0  0  0  0  0  0
   27.9900  -21.8176  -16.1898 C   0  0  2  0  0  0  0  0  0  0  0  0
   28.3371  -23.0916  -16.7717 N   0  0  0  0  0  0  0  0  0  0  0  0
   27.2033  -22.0579  -14.9578 C   0  0  0  0  0  0  0  0  0  0  0  0
   26.5600  -23.1288  -14.8384 O   0  0  0  0  0  0  0  0  0  0  0  0
   27.2104  -21.0527  -13.9504 N   0  0  0  0  0  0  0  0  0  0  0  0
   26.3289  -21.1549  -12.8317 C   0  0  1  0  0  0  0  0  0  0  0  0
   26.6548  -20.1782  -11.7284 C   0  0  0  0  0  0  0  0  0  0  0  0
   27.6522  -20.6693  -10.7887 C   0  0  0  0  0  0  0  0  0  0  0  0
   28.7868  -21.3666  -11.0699 C   0  0  0  0  0  0  0  0  0  0  0  0
   29.4618  -21.6472   -9.9334 N   0  0  0  0  0  0  0  0  0  0  0  0
   28.7519  -21.1222   -8.8940 C   0  0  0  0  0  0  0  0  0  0  0  0
   28.9930  -21.1247   -7.5352 C   0  0  0  0  0  0  0  0  0  0  0  0
   28.0523  -20.4895   -6.7465 C   0  0  0  0  0  0  0  0  0  0  0  0
   26.9337  -19.8816   -7.2432 C   0  0  0  0  0  0  0  0  0  0  0  0
   26.7071  -19.8873   -8.5979 C   0  0  0  0  0  0  0  0  0  0  0  0
   27.6172  -20.5081   -9.4213 C   0  0  0  0  0  0  0  0  0  0  0  0
   24.9533  -20.8010  -13.3064 C   0  0  0  0  0  0  0  0  0  0  0  0
   24.6490  -20.9698  -14.5247 O   0  0  0  0  0  0  0  0  0  0  0  0
   23.9683  -20.2828  -12.4499 N   0  0  0  0  0  0  0  0  0  0  0  0
   22.5965  -20.7940  -12.5325 C   0  0  1  0  0  0  0  0  0  0  0  0
   22.5633  -22.2657  -12.2069 C   0  0  0  0  0  0  0  0  0  0  0  0
   21.1786  -22.7622  -12.4123 C   0  0  0  0  0  0  0  0  0  0  0  0
   20.6105  -23.0848  -13.6424 C   0  0  0  0  0  0  0  0  0  0  0  0
   19.3484  -23.4926  -13.4417 N   0  0  0  0  0  0  0  0  0  0  0  0
   19.0437  -23.4583  -12.1304 C   0  0  0  0  0  0  0  0  0  0  0  0
   17.8972  -23.7750  -11.4302 C   0  0  0  0  0  0  0  0  0  0  0  0
   17.8521  -23.6461  -10.0580 C   0  0  0  0  0  0  0  0  0  0  0  0
   18.9937  -23.1922   -9.4325 C   0  0  0  0  0  0  0  0  0  0  0  0
   20.1523  -22.8708  -10.1262 C   0  0  0  0  0  0  0  0  0  0  0  0
   20.1807  -23.0043  -11.4894 C   0  0  0  0  0  0  0  0  0  0  0  0
   21.6945  -20.0149  -11.6509 C   0  0  0  0  0  0  0  0  0  0  0  0
   20.4591  -19.9499  -11.9101 O   0  0  0  0  0  0  0  0  0  0  0  0
   22.1359  -19.3370  -10.5324 O   0  0  0  0  0  0  0  0  0  0  0  0
  2  1  1  6
  3  2  1  0
  4  6  1  0
  4  5  1  6
  4  2  1  0
  6  7  2  0
  8  9  1  0
  8  6  1  0
  9 20  1  0
 10 11  1  0
  9 10  1  1
 11 19  1  0
 12 11  2  0
 12 13  1  0
 13 14  1  0
 14 15  2  0
 15 16  1  0
 17 16  2  0
 18 17  1  0
 19 18  2  0
 19 14  1  0
 20 21  2  0
 20 22  1  0
 22 23  1  0
 23 34  1  0
 23 24  1  1
 25 24  1  0
 26 25  2  0
 27 28  1  0
 27 26  1  0
 28 33  2  0
 29 28  1  0
 29 30  2  0
 30 31  1  0
 31 32  2  0
 33 25  1  0
 33 32  1  0
 34 35  2  0
 34 36  1  0
M  END
$$$$
