VWW.pdb
     RDKit          3D

 36 39  0  0  1  0  0  0  0  0999 V2000
   26.4543  -20.4978  -17.8608 C   0  0  0  0  0  0  0  0  0  0  0  0
   27.9111  -20.8671  -17.6256 C   0  0  2  0  0  0  0  0  0  0  0  0
   28.3492  -21.8042  -18.7237 C   0  0  0  0  0  0  0  0  0  0  0  0
   27.9994  -21.6313  -16.3179 C   0  0  2  0  0  0  0  0  0  0  0  0
   26.9962  -22.6683  -16.3394 N   0  0  0  0  0  0  0  0  0  0  0  0
   27.7408  -20.7458  -15.1588 C   0  0  0  0  0  0  0  0  0  0  0  0
   28.5350  -19.8054  -14.9145 O   0  0  0  0  0  0  0  0  0  0  0  0
   26.5895  -21.0021  -14.3624 N   0  0  0  0  0  0  0  0  0  0  0  0
   26.2884  -20.1605  -13.2488 C   0  0  1  0  0  0  0  0  0  0  0  0
   24.9335  -19.5036  -13.3510 C   0  0  0  0  0  0  0  0  0  0  0  0
   24.7904  -18.6364  -14.5114 C   0  0  0  0  0  0  0  0  0  0  0  0
   23.8315  -18.6900  -15.4758 C   0  0  0  0  0  0  0  0  0  0  0  0
   24.0298  -17.7174  -16.3927 N   0  0  0  0  0  0  0  0  0  0  0  0
   25.1389  -17.0187  -16.0167 C   0  0  0  0  0  0  0  0  0  0  0  0
   25.7716  -15.9372  -16.5953 C   0  0  0  0  0  0  0  0  0  0  0  0
   26.8943  -15.4648  -15.9420 C   0  0  0  0  0  0  0  0  0  0  0  0
   27.3834  -16.0081  -14.7874 C   0  0  0  0  0  0  0  0  0  0  0  0
   26.7430  -17.0844  -14.2232 C   0  0  0  0  0  0  0  0  0  0  0  0
   25.6213  -17.5880  -14.8395 C   0  0  0  0  0  0  0  0  0  0  0  0
   26.2386  -21.0267  -12.0282 C   0  0  0  0  0  0  0  0  0  0  0  0
   25.9511  -22.2553  -12.1439 O   0  0  0  0  0  0  0  0  0  0  0  0
   26.5007  -20.5329  -10.7398 N   0  0  0  0  0  0  0  0  0  0  0  0
   26.3316  -21.4134   -9.5796 C   0  0  1  0  0  0  0  0  0  0  0  0
   27.6248  -21.5275   -8.8130 C   0  0  0  0  0  0  0  0  0  0  0  0
   27.6732  -20.4367   -7.8063 C   0  0  0  0  0  0  0  0  0  0  0  0
   27.2535  -19.1252   -8.0156 C   0  0  0  0  0  0  0  0  0  0  0  0
   27.4503  -18.4236   -6.8894 N   0  0  0  0  0  0  0  0  0  0  0  0
   27.9838  -19.2064   -5.9323 C   0  0  0  0  0  0  0  0  0  0  0  0
   28.3612  -18.9595   -4.6278 C   0  0  0  0  0  0  0  0  0  0  0  0
   28.8935  -19.9638   -3.8468 C   0  0  0  0  0  0  0  0  0  0  0  0
   29.0262  -21.2068   -4.4277 C   0  0  0  0  0  0  0  0  0  0  0  0
   28.6501  -21.4669   -5.7384 C   0  0  0  0  0  0  0  0  0  0  0  0
   28.1230  -20.4581   -6.5010 C   0  0  0  0  0  0  0  0  0  0  0  0
   25.2221  -20.9371   -8.7193 C   0  0  0  0  0  0  0  0  0  0  0  0
   24.5657  -19.9079   -9.0472 O   0  0  0  0  0  0  0  0  0  0  0  0
   24.8529  -21.5684   -7.5486 O   0  0  0  0  0  0  0  0  0  0  0  0
  2  1  1  6
  3  2  1  0
  4  6  1  0
  4  5  1  6
  4  2  1  0
  6  7  2  0
  8  9  1  0
  8  6  1  0
  9 20  1  0
 10 11  1  0
  9 10  1  6
 11 19  1  0
 12 11  2  0
 12 13  1  0
 13 14  1  0
 14 15  2  0
 15 16  1  0
 17 16  2  0
 18 17  1  0
 19 18  2  0
 19 14  1  0
 20 21  2  0
 20 22  1  0
 22 23  1  0
 23 34  1  0
 23 24  1  1
 25 24  1  0
 26 25  2  0
 27 28  1  0
 27 26  1  0
 28 33  2  0
 29 28  1  0
 29 30  2  0
 30 31  1  0
 31 32  2  0
 33 25  1  0
 33 32  1  0
 34 35  2  0
 34 36  1  0
M  END
$$$$
