VWW.pdb
     RDKit          3D

 36 39  0  0  1  0  0  0  0  0999 V2000
   25.6129  -17.8787  -18.2249 C   0  0  0  0  0  0  0  0  0  0  0  0
   26.9366  -17.4117  -17.6385 C   0  0  2  0  0  0  0  0  0  0  0  0
   27.6636  -16.6040  -18.6849 C   0  0  0  0  0  0  0  0  0  0  0  0
   27.7820  -18.6371  -17.3460 C   0  0  2  0  0  0  0  0  0  0  0  0
   27.9842  -19.3452  -18.5869 N   0  0  0  0  0  0  0  0  0  0  0  0
   27.1045  -19.5422  -16.3889 C   0  0  0  0  0  0  0  0  0  0  0  0
   26.4167  -20.4963  -16.8266 O   0  0  0  0  0  0  0  0  0  0  0  0
   27.2641  -19.2885  -14.9977 N   0  0  0  0  0  0  0  0  0  0  0  0
   26.5794  -20.0966  -14.0400 C   0  0  1  0  0  0  0  0  0  0  0  0
   27.2405  -20.0973  -12.6834 C   0  0  0  0  0  0  0  0  0  0  0  0
   26.5057  -20.8480  -11.6755 C   0  0  0  0  0  0  0  0  0  0  0  0
   25.9247  -22.0715  -11.8099 C   0  0  0  0  0  0  0  0  0  0  0  0
   25.3333  -22.4424  -10.6529 N   0  0  0  0  0  0  0  0  0  0  0  0
   25.5340  -21.4406   -9.7496 C   0  0  0  0  0  0  0  0  0  0  0  0
   25.1430  -21.3123   -8.4324 C   0  0  0  0  0  0  0  0  0  0  0  0
   25.5200  -20.1459   -7.7939 C   0  0  0  0  0  0  0  0  0  0  0  0
   26.2387  -19.1515   -8.3956 C   0  0  0  0  0  0  0  0  0  0  0  0
   26.6209  -19.2933   -9.7073 C   0  0  0  0  0  0  0  0  0  0  0  0
   26.2675  -20.4383  -10.3823 C   0  0  0  0  0  0  0  0  0  0  0  0
   25.2190  -19.5038  -13.8385 C   0  0  0  0  0  0  0  0  0  0  0  0
   25.0865  -18.2448  -13.7861 O   0  0  0  0  0  0  0  0  0  0  0  0
   24.0639  -20.2911  -13.7032 N   0  0  0  0  0  0  0  0  0  0  0  0
   22.7706  -19.6427  -13.4648 C   0  0  1  0  0  0  0  0  0  0  0  0
   22.4859  -18.6255  -14.5406 C   0  0  0  0  0  0  0  0  0  0  0  0
   21.6947  -19.2824  -15.6120 C   0  0  0  0  0  0  0  0  0  0  0  0
   20.5191  -20.0046  -15.4208 C   0  0  0  0  0  0  0  0  0  0  0  0
   20.0891  -20.4529  -16.6097 N   0  0  0  0  0  0  0  0  0  0  0  0
   20.9242  -20.0633  -17.5916 C   0  0  0  0  0  0  0  0  0  0  0  0
   20.9180  -20.2660  -18.9569 C   0  0  0  0  0  0  0  0  0  0  0  0
   21.9176  -19.7438  -19.7506 C   0  0  0  0  0  0  0  0  0  0  0  0
   22.9067  -19.0204  -19.1192 C   0  0  0  0  0  0  0  0  0  0  0  0
   22.9232  -18.8100  -17.7472 C   0  0  0  0  0  0  0  0  0  0  0  0
   21.9228  -19.3357  -16.9728 C   0  0  0  0  0  0  0  0  0  0  0  0
   21.6904  -20.6530  -13.3628 C   0  0  0  0  0  0  0  0  0  0  0  0
   21.8842  -21.8295  -13.7822 O   0  0  0  0  0  0  0  0  0  0  0  0
   20.4506  -20.3774  -12.8220 O   0  0  0  0  0  0  0  0  0  0  0  0
  2  1  1  6
  3  2  1  0
  4  6  1  0
  4  5  1  6
  4  2  1  0
  6  7  2  0
  8  9  1  0
  8  6  1  0
  9 20  1  0
 10 11  1  0
  9 10  1  1
 11 19  1  0
 12 11  2  0
 12 13  1  0
 13 14  1  0
 14 15  2  0
 15 16  1  0
 17 16  2  0
 18 17  1  0
 19 18  2  0
 19 14  1  0
 20 21  2  0
 20 22  1  0
 22 23  1  0
 23 34  1  0
 23 24  1  6
 25 24  1  0
 26 25  2  0
 27 28  1  0
 27 26  1  0
 28 33  2  0
 29 28  1  0
 29 30  2  0
 30 31  1  0
 31 32  2  0
 33 25  1  0
 33 32  1  0
 34 35  2  0
 34 36  1  0
M  END
$$$$
