VWW.pdb
     RDKit          3D

 36 39  0  0  1  0  0  0  0  0999 V2000
   26.3716  -30.9493  -22.7418 C   0  0  0  0  0  0  0  0  0  0  0  0
   27.0960  -29.6121  -22.7798 C   0  0  2  0  0  0  0  0  0  0  0  0
   27.4979  -29.3274  -24.2058 C   0  0  0  0  0  0  0  0  0  0  0  0
   28.3714  -29.7428  -21.9687 C   0  0  2  0  0  0  0  0  0  0  0  0
   29.2614  -30.6300  -22.6780 N   0  0  0  0  0  0  0  0  0  0  0  0
   28.1010  -30.3143  -20.6291 C   0  0  0  0  0  0  0  0  0  0  0  0
   28.2357  -31.5489  -20.4489 O   0  0  0  0  0  0  0  0  0  0  0  0
   27.6952  -29.4289  -19.5914 N   0  0  0  0  0  0  0  0  0  0  0  0
   27.3750  -29.9420  -18.2979 C   0  0  1  0  0  0  0  0  0  0  0  0
   28.3288  -29.4800  -17.2235 C   0  0  0  0  0  0  0  0  0  0  0  0
   29.6626  -30.0513  -17.3409 C   0  0  0  0  0  0  0  0  0  0  0  0
   30.6441  -29.6980  -18.2150 C   0  0  0  0  0  0  0  0  0  0  0  0
   31.7453  -30.4565  -18.0195 N   0  0  0  0  0  0  0  0  0  0  0  0
   31.4737  -31.3191  -16.9989 C   0  0  0  0  0  0  0  0  0  0  0  0
   32.2450  -32.2982  -16.4063 C   0  0  0  0  0  0  0  0  0  0  0  0
   31.6515  -33.0039  -15.3768 C   0  0  0  0  0  0  0  0  0  0  0  0
   30.3768  -32.7773  -14.9396 C   0  0  0  0  0  0  0  0  0  0  0  0
   29.6210  -31.7995  -15.5391 C   0  0  0  0  0  0  0  0  0  0  0  0
   30.1713  -31.0719  -16.5684 C   0  0  0  0  0  0  0  0  0  0  0  0
   26.0300  -29.4036  -17.9184 C   0  0  0  0  0  0  0  0  0  0  0  0
   25.5979  -28.3504  -18.4745 O   0  0  0  0  0  0  0  0  0  0  0  0
   25.2114  -30.0222  -16.9593 N   0  0  0  0  0  0  0  0  0  0  0  0
   23.8493  -29.5248  -16.7422 C   0  0  1  0  0  0  0  0  0  0  0  0
   23.5487  -28.3865  -17.6839 C   0  0  0  0  0  0  0  0  0  0  0  0
   22.1190  -28.4668  -18.0782 C   0  0  0  0  0  0  0  0  0  0  0  0
   21.0341  -28.3166  -17.2178 C   0  0  0  0  0  0  0  0  0  0  0  0
   19.9013  -28.4559  -17.9224 N   0  0  0  0  0  0  0  0  0  0  0  0
   20.1775  -28.6930  -19.2189 C   0  0  0  0  0  0  0  0  0  0  0  0
   19.3734  -28.9022  -20.3211 C   0  0  0  0  0  0  0  0  0  0  0  0
   19.9272  -29.1270  -21.5639 C   0  0  0  0  0  0  0  0  0  0  0  0
   21.3032  -29.1312  -21.6463 C   0  0  0  0  0  0  0  0  0  0  0  0
   22.1218  -28.9219  -20.5449 C   0  0  0  0  0  0  0  0  0  0  0  0
   21.5559  -28.7001  -19.3171 C   0  0  0  0  0  0  0  0  0  0  0  0
   22.8640  -30.6245  -16.8757 C   0  0  0  0  0  0  0  0  0  0  0  0
   23.0659  -31.5562  -17.7055 O   0  0  0  0  0  0  0  0  0  0  0  0
   21.7066  -30.6933  -16.1265 O   0  0  0  0  0  0  0  0  0  0  0  0
  2  1  1  6
  3  2  1  0
  4  6  1  0
  4  5  1  6
  4  2  1  0
  6  7  2  0
  8  9  1  0
  8  6  1  0
  9 20  1  0
 10 11  1  0
  9 10  1  1
 11 19  1  0
 12 11  2  0
 12 13  1  0
 13 14  1  0
 14 15  2  0
 15 16  1  0
 17 16  2  0
 18 17  1  0
 19 18  2  0
 19 14  1  0
 20 21  2  0
 20 22  1  0
 22 23  1  0
 23 34  1  0
 23 24  1  6
 25 24  1  0
 26 25  2  0
 27 28  1  0
 27 26  1  0
 28 33  2  0
 29 28  1  0
 29 30  2  0
 30 31  1  0
 31 32  2  0
 33 25  1  0
 33 32  1  0
 34 35  2  0
 34 36  1  0
M  END
$$$$
