VWW.pdb
     RDKit          3D

 36 39  0  0  1  0  0  0  0  0999 V2000
   26.5786  -18.7842  -17.0588 C   0  0  0  0  0  0  0  0  0  0  0  0
   27.8307  -18.1485  -16.4738 C   0  0  2  0  0  0  0  0  0  0  0  0
   28.9362  -18.2432  -17.4961 C   0  0  0  0  0  0  0  0  0  0  0  0
   28.2576  -18.9672  -15.2700 C   0  0  2  0  0  0  0  0  0  0  0  0
   28.4681  -20.3261  -15.7074 N   0  0  0  0  0  0  0  0  0  0  0  0
   27.2134  -18.9639  -14.2194 C   0  0  0  0  0  0  0  0  0  0  0  0
   26.8456  -17.8721  -13.7217 O   0  0  0  0  0  0  0  0  0  0  0  0
   26.6652  -20.2132  -13.8144 N   0  0  0  0  0  0  0  0  0  0  0  0
   25.6258  -20.2548  -12.8361 C   0  0  1  0  0  0  0  0  0  0  0  0
   24.3582  -20.8972  -13.3442 C   0  0  0  0  0  0  0  0  0  0  0  0
   23.4462  -19.9623  -13.9869 C   0  0  0  0  0  0  0  0  0  0  0  0
   23.5594  -19.4092  -15.2254 C   0  0  0  0  0  0  0  0  0  0  0  0
   22.5153  -18.5876  -15.4722 N   0  0  0  0  0  0  0  0  0  0  0  0
   21.7085  -18.6074  -14.3730 C   0  0  0  0  0  0  0  0  0  0  0  0
   20.5234  -17.9537  -14.1031 C   0  0  0  0  0  0  0  0  0  0  0  0
   19.9560  -18.2024  -12.8676 C   0  0  0  0  0  0  0  0  0  0  0  0
   20.5040  -19.0401  -11.9374 C   0  0  0  0  0  0  0  0  0  0  0  0
   21.6840  -19.6838  -12.2201 C   0  0  0  0  0  0  0  0  0  0  0  0
   22.2844  -19.4659  -13.4382 C   0  0  0  0  0  0  0  0  0  0  0  0
   26.1027  -21.1143  -11.7063 C   0  0  0  0  0  0  0  0  0  0  0  0
   27.0722  -21.9089  -11.8905 O   0  0  0  0  0  0  0  0  0  0  0  0
   25.5162  -21.0798  -10.4306 N   0  0  0  0  0  0  0  0  0  0  0  0
   26.3344  -21.3748   -9.2502 C   0  0  1  0  0  0  0  0  0  0  0  0
   27.5389  -20.4691   -9.2056 C   0  0  0  0  0  0  0  0  0  0  0  0
   28.3420  -20.8126   -8.0044 C   0  0  0  0  0  0  0  0  0  0  0  0
   29.2140  -21.8934   -7.8978 C   0  0  0  0  0  0  0  0  0  0  0  0
   29.7583  -21.8902   -6.6718 N   0  0  0  0  0  0  0  0  0  0  0  0
   29.2903  -20.8543   -5.9498 C   0  0  0  0  0  0  0  0  0  0  0  0
   29.5396  -20.4266   -4.6614 C   0  0  0  0  0  0  0  0  0  0  0  0
   28.9111  -19.3075   -4.1572 C   0  0  0  0  0  0  0  0  0  0  0  0
   28.0355  -18.6490   -4.9939 C   0  0  0  0  0  0  0  0  0  0  0  0
   27.7770  -19.0698   -6.2912 C   0  0  0  0  0  0  0  0  0  0  0  0
   28.4096  -20.1837   -6.7771 C   0  0  0  0  0  0  0  0  0  0  0  0
   25.5233  -21.2732   -8.0134 C   0  0  0  0  0  0  0  0  0  0  0  0
   24.6679  -20.3506   -7.8930 O   0  0  0  0  0  0  0  0  0  0  0  0
   25.6504  -22.1511   -6.9557 O   0  0  0  0  0  0  0  0  0  0  0  0
  2  1  1  6
  3  2  1  0
  4  6  1  0
  4  5  1  6
  4  2  1  0
  6  7  2  0
  8  9  1  0
  8  6  1  0
  9 20  1  0
 10 11  1  0
  9 10  1  6
 11 19  1  0
 12 11  2  0
 12 13  1  0
 13 14  1  0
 14 15  2  0
 15 16  1  0
 17 16  2  0
 18 17  1  0
 19 18  2  0
 19 14  1  0
 20 21  2  0
 20 22  1  0
 22 23  1  0
 23 34  1  0
 23 24  1  1
 25 24  1  0
 26 25  2  0
 27 28  1  0
 27 26  1  0
 28 33  2  0
 29 28  1  0
 29 30  2  0
 30 31  1  0
 31 32  2  0
 33 25  1  0
 33 32  1  0
 34 35  2  0
 34 36  1  0
M  END
$$$$
