VWW.pdb
     RDKit          3D

 36 39  0  0  1  0  0  0  0  0999 V2000
   27.1185  -20.1292  -13.9752 C   0  0  0  0  0  0  0  0  0  0  0  0
   27.6847  -19.0527  -13.0615 C   0  0  2  0  0  0  0  0  0  0  0  0
   28.6948  -18.2478  -13.8410 C   0  0  0  0  0  0  0  0  0  0  0  0
   28.4286  -19.7370  -11.9301 C   0  0  2  0  0  0  0  0  0  0  0  0
   29.4568  -20.5666  -12.5106 N   0  0  0  0  0  0  0  0  0  0  0  0
   27.5225  -20.5946  -11.1315 C   0  0  0  0  0  0  0  0  0  0  0  0
   27.5913  -21.8419  -11.2526 O   0  0  0  0  0  0  0  0  0  0  0  0
   26.6019  -19.9606  -10.2507 N   0  0  0  0  0  0  0  0  0  0  0  0
   25.7182  -20.7480   -9.4519 C   0  0  1  0  0  0  0  0  0  0  0  0
   25.5097  -20.1851   -8.0673 C   0  0  0  0  0  0  0  0  0  0  0  0
   26.7429  -19.7760   -7.4108 C   0  0  0  0  0  0  0  0  0  0  0  0
   27.4022  -18.5927   -7.5437 C   0  0  0  0  0  0  0  0  0  0  0  0
   28.5121  -18.5821   -6.7730 N   0  0  0  0  0  0  0  0  0  0  0  0
   28.5750  -19.7815   -6.1272 C   0  0  0  0  0  0  0  0  0  0  0  0
   29.4962  -20.2844   -5.2310 C   0  0  0  0  0  0  0  0  0  0  0  0
   29.2554  -21.5608   -4.7588 C   0  0  0  0  0  0  0  0  0  0  0  0
   28.1794  -22.3159   -5.1320 C   0  0  0  0  0  0  0  0  0  0  0  0
   27.2708  -21.8021   -6.0249 C   0  0  0  0  0  0  0  0  0  0  0  0
   27.4706  -20.5350   -6.5212 C   0  0  0  0  0  0  0  0  0  0  0  0
   24.3748  -20.7312  -10.1134 C   0  0  0  0  0  0  0  0  0  0  0  0
   23.3646  -21.1740   -9.4898 O   0  0  0  0  0  0  0  0  0  0  0  0
   24.1789  -20.2388  -11.4140 N   0  0  0  0  0  0  0  0  0  0  0  0
   22.8169  -20.1127  -11.9420 C   0  0  1  0  0  0  0  0  0  0  0  0
   22.7206  -18.9297  -12.8718 C   0  0  0  0  0  0  0  0  0  0  0  0
   23.5801  -19.1896  -14.0548 C   0  0  0  0  0  0  0  0  0  0  0  0
   23.6369  -20.3866  -14.7647 C   0  0  0  0  0  0  0  0  0  0  0  0
   24.5228  -20.2551  -15.7633 N   0  0  0  0  0  0  0  0  0  0  0  0
   25.0638  -19.0219  -15.7556 C   0  0  0  0  0  0  0  0  0  0  0  0
   26.0024  -18.4097  -16.5614 C   0  0  0  0  0  0  0  0  0  0  0  0
   26.3875  -17.1062  -16.3282 C   0  0  0  0  0  0  0  0  0  0  0  0
   25.7953  -16.4574  -15.2658 C   0  0  0  0  0  0  0  0  0  0  0  0
   24.8503  -17.0628  -14.4488 C   0  0  0  0  0  0  0  0  0  0  0  0
   24.4786  -18.3585  -14.6939 C   0  0  0  0  0  0  0  0  0  0  0  0
   22.3950  -21.3697  -12.6052 C   0  0  0  0  0  0  0  0  0  0  0  0
   21.1954  -21.5168  -12.9753 O   0  0  0  0  0  0  0  0  0  0  0  0
   23.2586  -22.4185  -12.8495 O   0  0  0  0  0  0  0  0  0  0  0  0
  2  1  1  6
  3  2  1  0
  4  6  1  0
  4  5  1  6
  4  2  1  0
  6  7  2  0
  8  9  1  0
  8  6  1  0
  9 20  1  0
 10 11  1  0
  9 10  1  1
 11 19  1  0
 12 11  2  0
 12 13  1  0
 13 14  1  0
 14 15  2  0
 15 16  1  0
 17 16  2  0
 18 17  1  0
 19 18  2  0
 19 14  1  0
 20 21  2  0
 20 22  1  0
 22 23  1  0
 23 34  1  0
 23 24  1  6
 25 24  1  0
 26 25  2  0
 27 28  1  0
 27 26  1  0
 28 33  2  0
 29 28  1  0
 29 30  2  0
 30 31  1  0
 31 32  2  0
 33 25  1  0
 33 32  1  0
 34 35  2  0
 34 36  1  0
M  END
$$$$
