VWW.pdb
     RDKit          3D

 36 39  0  0  1  0  0  0  0  0999 V2000
   26.4071  -19.2642  -15.7002 C   0  0  0  0  0  0  0  0  0  0  0  0
   27.3608  -18.8985  -14.5729 C   0  0  2  0  0  0  0  0  0  0  0  0
   28.5380  -18.1626  -15.1635 C   0  0  0  0  0  0  0  0  0  0  0  0
   27.8903  -20.1844  -13.9665 C   0  0  2  0  0  0  0  0  0  0  0  0
   28.3163  -21.0432  -15.0451 N   0  0  0  0  0  0  0  0  0  0  0  0
   26.8415  -20.8846  -13.1893 C   0  0  0  0  0  0  0  0  0  0  0  0
   26.2698  -21.8836  -13.6893 O   0  0  0  0  0  0  0  0  0  0  0  0
   26.5230  -20.3889  -11.8938 N   0  0  0  0  0  0  0  0  0  0  0  0
   25.5701  -21.0739  -11.0803 C   0  0  1  0  0  0  0  0  0  0  0  0
   25.7512  -20.8107   -9.6053 C   0  0  0  0  0  0  0  0  0  0  0  0
   27.1331  -20.9116   -9.1589 C   0  0  0  0  0  0  0  0  0  0  0  0
   28.1728  -21.5095   -9.8024 C   0  0  0  0  0  0  0  0  0  0  0  0
   29.3053  -21.3983   -9.0735 N   0  0  0  0  0  0  0  0  0  0  0  0
   28.9951  -20.7152   -7.9347 C   0  0  0  0  0  0  0  0  0  0  0  0
   29.7753  -20.3346   -6.8618 C   0  0  0  0  0  0  0  0  0  0  0  0
   29.1323  -19.6401   -5.8547 C   0  0  0  0  0  0  0  0  0  0  0  0
   27.8022  -19.3276   -5.8801 C   0  0  0  0  0  0  0  0  0  0  0  0
   27.0382  -19.7132   -6.9546 C   0  0  0  0  0  0  0  0  0  0  0  0
   27.6366  -20.4068   -7.9805 C   0  0  0  0  0  0  0  0  0  0  0  0
   24.2133  -20.5467  -11.4324 C   0  0  0  0  0  0  0  0  0  0  0  0
   23.9292  -19.3365  -11.1872 O   0  0  0  0  0  0  0  0  0  0  0  0
   23.2249  -21.3441  -12.0321 N   0  0  0  0  0  0  0  0  0  0  0  0
   21.9120  -20.7644  -12.3325 C   0  0  1  0  0  0  0  0  0  0  0  0
   22.0581  -19.5814  -13.2557 C   0  0  0  0  0  0  0  0  0  0  0  0
   22.6135  -20.0584  -14.5479 C   0  0  0  0  0  0  0  0  0  0  0  0
   22.4552  -21.3394  -15.0714 C   0  0  0  0  0  0  0  0  0  0  0  0
   23.0952  -21.4072  -16.2483 N   0  0  0  0  0  0  0  0  0  0  0  0
   23.6764  -20.2277  -16.5388 C   0  0  0  0  0  0  0  0  0  0  0  0
   24.4323  -19.7989  -17.6111 C   0  0  0  0  0  0  0  0  0  0  0  0
   24.9163  -18.5085  -17.6600 C   0  0  0  0  0  0  0  0  0  0  0  0
   24.6103  -17.6830  -16.5993 C   0  0  0  0  0  0  0  0  0  0  0  0
   23.8511  -18.1031  -15.5157 C   0  0  0  0  0  0  0  0  0  0  0  0
   23.3778  -19.3883  -15.4824 C   0  0  0  0  0  0  0  0  0  0  0  0
   21.0032  -21.7921  -12.8945 C   0  0  0  0  0  0  0  0  0  0  0  0
   19.7910  -21.5104  -13.1156 O   0  0  0  0  0  0  0  0  0  0  0  0
   21.4136  -23.0743  -13.1993 O   0  0  0  0  0  0  0  0  0  0  0  0
  2  1  1  6
  3  2  1  0
  4  6  1  0
  4  5  1  6
  4  2  1  0
  6  7  2  0
  8  9  1  0
  8  6  1  0
  9 20  1  0
 10 11  1  0
  9 10  1  1
 11 19  1  0
 12 11  2  0
 12 13  1  0
 13 14  1  0
 14 15  2  0
 15 16  1  0
 17 16  2  0
 18 17  1  0
 19 18  2  0
 19 14  1  0
 20 21  2  0
 20 22  1  0
 22 23  1  0
 23 34  1  0
 23 24  1  6
 25 24  1  0
 26 25  2  0
 27 28  1  0
 27 26  1  0
 28 33  2  0
 29 28  1  0
 29 30  2  0
 30 31  1  0
 31 32  2  0
 33 25  1  0
 33 32  1  0
 34 35  2  0
 34 36  1  0
M  END
$$$$
