VWW.pdb
     RDKit          3D

 36 39  0  0  1  0  0  0  0  0999 V2000
   29.4682  -18.2596  -15.8555 C   0  0  0  0  0  0  0  0  0  0  0  0
   28.7341  -19.0213  -16.9486 C   0  0  2  0  0  0  0  0  0  0  0  0
   28.5555  -18.1034  -18.1325 C   0  0  0  0  0  0  0  0  0  0  0  0
   27.3499  -19.3690  -16.4339 C   0  0  2  0  0  0  0  0  0  0  0  0
   26.6138  -18.1388  -16.2698 N   0  0  0  0  0  0  0  0  0  0  0  0
   27.4201  -20.0575  -15.1242 C   0  0  0  0  0  0  0  0  0  0  0  0
   27.8704  -21.2276  -15.0683 O   0  0  0  0  0  0  0  0  0  0  0  0
   26.9689  -19.3549  -13.9718 N   0  0  0  0  0  0  0  0  0  0  0  0
   26.9890  -19.9903  -12.6932 C   0  0  1  0  0  0  0  0  0  0  0  0
   27.8521  -19.2701  -11.6863 C   0  0  0  0  0  0  0  0  0  0  0  0
   28.2426  -20.0968  -10.5535 C   0  0  0  0  0  0  0  0  0  0  0  0
   28.8303  -21.3240  -10.5837 C   0  0  0  0  0  0  0  0  0  0  0  0
   29.0415  -21.7768   -9.3282 N   0  0  0  0  0  0  0  0  0  0  0  0
   28.5819  -20.8255   -8.4659 C   0  0  0  0  0  0  0  0  0  0  0  0
   28.5560  -20.7849   -7.0867 C   0  0  0  0  0  0  0  0  0  0  0  0
   28.0096  -19.6493   -6.5191 C   0  0  0  0  0  0  0  0  0  0  0  0
   27.5124  -18.6039   -7.2451 C   0  0  0  0  0  0  0  0  0  0  0  0
   27.5450  -18.6585   -8.6173 C   0  0  0  0  0  0  0  0  0  0  0  0
   28.0800  -19.7701   -9.2254 C   0  0  0  0  0  0  0  0  0  0  0  0
   25.5949  -19.9522  -12.1476 C   0  0  0  0  0  0  0  0  0  0  0  0
   24.9937  -18.8417  -12.0438 O   0  0  0  0  0  0  0  0  0  0  0  0
   24.9111  -21.1090  -11.7393 N   0  0  0  0  0  0  0  0  0  0  0  0
   23.6633  -20.9814  -10.9801 C   0  0  1  0  0  0  0  0  0  0  0  0
   22.5077  -21.5424  -11.7693 C   0  0  0  0  0  0  0  0  0  0  0  0
   22.1648  -20.5820  -12.8491 C   0  0  0  0  0  0  0  0  0  0  0  0
   22.5871  -20.6712  -14.1734 C   0  0  0  0  0  0  0  0  0  0  0  0
   22.0876  -19.6308  -14.8572 N   0  0  0  0  0  0  0  0  0  0  0  0
   21.3479  -18.8465  -14.0502 C   0  0  0  0  0  0  0  0  0  0  0  0
   20.6396  -17.6830  -14.2732 C   0  0  0  0  0  0  0  0  0  0  0  0
   19.9524  -17.0696  -13.2469 C   0  0  0  0  0  0  0  0  0  0  0  0
   20.0088  -17.6698  -12.0072 C   0  0  0  0  0  0  0  0  0  0  0  0
   20.7176  -18.8398  -11.7712 C   0  0  0  0  0  0  0  0  0  0  0  0
   21.3951  -19.4367  -12.8016 C   0  0  0  0  0  0  0  0  0  0  0  0
   23.7902  -21.6305   -9.6532 C   0  0  0  0  0  0  0  0  0  0  0  0
   24.7817  -22.3745   -9.4062 O   0  0  0  0  0  0  0  0  0  0  0  0
   22.8638  -21.4661   -8.6431 O   0  0  0  0  0  0  0  0  0  0  0  0
  2  1  1  1
  3  2  1  0
  4  6  1  0
  4  5  1  1
  4  2  1  0
  6  7  2  0
  8  9  1  0
  8  6  1  0
  9 20  1  0
 10 11  1  0
  9 10  1  1
 11 19  1  0
 12 11  2  0
 12 13  1  0
 13 14  1  0
 14 15  2  0
 15 16  1  0
 17 16  2  0
 18 17  1  0
 19 18  2  0
 19 14  1  0
 20 21  2  0
 20 22  1  0
 22 23  1  0
 23 34  1  0
 23 24  1  6
 25 24  1  0
 26 25  2  0
 27 28  1  0
 27 26  1  0
 28 33  2  0
 29 28  1  0
 29 30  2  0
 30 31  1  0
 31 32  2  0
 33 25  1  0
 33 32  1  0
 34 35  2  0
 34 36  1  0
M  END
$$$$
