VWW.pdb
     RDKit          3D

 36 39  0  0  1  0  0  0  0  0999 V2000
   28.1485  -22.5633  -19.5753 C   0  0  0  0  0  0  0  0  0  0  0  0
   29.6526  -22.5649  -19.3476 C   0  0  2  0  0  0  0  0  0  0  0  0
   30.2447  -23.7446  -20.0783 C   0  0  0  0  0  0  0  0  0  0  0  0
   29.9059  -22.7775  -17.8669 C   0  0  2  0  0  0  0  0  0  0  0  0
   29.1811  -23.9555  -17.4557 N   0  0  0  0  0  0  0  0  0  0  0  0
   29.4287  -21.6246  -17.0685 C   0  0  0  0  0  0  0  0  0  0  0  0
   29.9830  -20.5076  -17.2097 O   0  0  0  0  0  0  0  0  0  0  0  0
   28.3494  -21.8350  -16.1651 N   0  0  0  0  0  0  0  0  0  0  0  0
   27.7890  -20.7326  -15.4512 C   0  0  1  0  0  0  0  0  0  0  0  0
   26.9170  -19.8507  -16.3111 C   0  0  0  0  0  0  0  0  0  0  0  0
   26.3720  -18.7004  -15.6046 C   0  0  0  0  0  0  0  0  0  0  0  0
   27.0550  -17.7599  -14.8965 C   0  0  0  0  0  0  0  0  0  0  0  0
   26.2030  -16.8451  -14.3833 N   0  0  0  0  0  0  0  0  0  0  0  0
   24.9425  -17.1982  -14.7654 C   0  0  0  0  0  0  0  0  0  0  0  0
   23.7186  -16.6117  -14.5147 C   0  0  0  0  0  0  0  0  0  0  0  0
   22.6163  -17.2401  -15.0627 C   0  0  0  0  0  0  0  0  0  0  0  0
   22.6897  -18.3782  -15.8155 C   0  0  0  0  0  0  0  0  0  0  0  0
   23.9149  -18.9507  -16.0566 C   0  0  0  0  0  0  0  0  0  0  0  0
   25.0396  -18.3591  -15.5306 C   0  0  0  0  0  0  0  0  0  0  0  0
   26.8943  -21.2906  -14.3878 C   0  0  0  0  0  0  0  0  0  0  0  0
   26.1846  -22.3098  -14.6385 O   0  0  0  0  0  0  0  0  0  0  0  0
   26.8040  -20.7280  -13.1041 N   0  0  0  0  0  0  0  0  0  0  0  0
   26.0334  -21.4177  -12.0648 C   0  0  1  0  0  0  0  0  0  0  0  0
   26.9576  -22.0192  -11.0366 C   0  0  0  0  0  0  0  0  0  0  0  0
   27.1519  -21.0324   -9.9437 C   0  0  0  0  0  0  0  0  0  0  0  0
   26.3320  -19.9352   -9.6910 C   0  0  0  0  0  0  0  0  0  0  0  0
   26.8160  -19.2690   -8.6321 N   0  0  0  0  0  0  0  0  0  0  0  0
   27.9252  -19.8707   -8.1621 C   0  0  0  0  0  0  0  0  0  0  0  0
   28.7715  -19.5783   -7.1116 C   0  0  0  0  0  0  0  0  0  0  0  0
   29.8615  -20.3789   -6.8420 C   0  0  0  0  0  0  0  0  0  0  0  0
   30.0581  -21.4688   -7.6629 C   0  0  0  0  0  0  0  0  0  0  0  0
   29.2137  -21.7726   -8.7220 C   0  0  0  0  0  0  0  0  0  0  0  0
   28.1352  -20.9671   -8.9767 C   0  0  0  0  0  0  0  0  0  0  0  0
   25.0478  -20.4980  -11.4479 C   0  0  0  0  0  0  0  0  0  0  0  0
   24.0793  -20.9638  -10.7827 O   0  0  0  0  0  0  0  0  0  0  0  0
   25.1272  -19.1244  -11.5598 O   0  0  0  0  0  0  0  0  0  0  0  0
  2  1  1  1
  3  2  1  0
  4  6  1  0
  4  5  1  1
  4  2  1  0
  6  7  2  0
  8  9  1  0
  8  6  1  0
  9 20  1  0
 10 11  1  0
  9 10  1  6
 11 19  1  0
 12 11  2  0
 12 13  1  0
 13 14  1  0
 14 15  2  0
 15 16  1  0
 17 16  2  0
 18 17  1  0
 19 18  2  0
 19 14  1  0
 20 21  2  0
 20 22  1  0
 22 23  1  0
 23 34  1  0
 23 24  1  1
 25 24  1  0
 26 25  2  0
 27 28  1  0
 27 26  1  0
 28 33  2  0
 29 28  1  0
 29 30  2  0
 30 31  1  0
 31 32  2  0
 33 25  1  0
 33 32  1  0
 34 35  2  0
 34 36  1  0
M  END
$$$$
