VWW.pdb
     RDKit          3D

 36 39  0  0  1  0  0  0  0  0999 V2000
   28.6535  -21.3938  -13.5784 C   0  0  0  0  0  0  0  0  0  0  0  0
   27.6614  -21.9948  -14.5626 C   0  0  2  0  0  0  0  0  0  0  0  0
   28.0061  -21.5044  -15.9471 C   0  0  0  0  0  0  0  0  0  0  0  0
   26.2810  -21.4628  -14.2259 C   0  0  2  0  0  0  0  0  0  0  0  0
   26.2587  -20.0538  -14.5364 N   0  0  0  0  0  0  0  0  0  0  0  0
   25.9740  -21.6359  -12.7871 C   0  0  0  0  0  0  0  0  0  0  0  0
   26.0027  -22.7864  -12.2865 O   0  0  0  0  0  0  0  0  0  0  0  0
   25.6559  -20.4770  -12.0248 N   0  0  0  0  0  0  0  0  0  0  0  0
   25.2598  -20.6058  -10.6589 C   0  0  1  0  0  0  0  0  0  0  0  0
   25.9604  -19.6315   -9.7437 C   0  0  0  0  0  0  0  0  0  0  0  0
   27.2053  -20.1427   -9.1886 C   0  0  0  0  0  0  0  0  0  0  0  0
   28.1317  -20.9249   -9.8069 C   0  0  0  0  0  0  0  0  0  0  0  0
   29.1557  -21.1961   -8.9679 N   0  0  0  0  0  0  0  0  0  0  0  0
   28.8892  -20.5781   -7.7818 C   0  0  0  0  0  0  0  0  0  0  0  0
   29.6006  -20.5333   -6.6000 C   0  0  0  0  0  0  0  0  0  0  0  0
   29.0339  -19.8020   -5.5732 C   0  0  0  0  0  0  0  0  0  0  0  0
   27.8399  -19.1460   -5.6799 C   0  0  0  0  0  0  0  0  0  0  0  0
   27.1431  -19.1997   -6.8624 C   0  0  0  0  0  0  0  0  0  0  0  0
   27.6695  -19.9163   -7.9118 C   0  0  0  0  0  0  0  0  0  0  0  0
   23.8013  -20.2758  -10.5781 C   0  0  0  0  0  0  0  0  0  0  0  0
   23.3861  -19.1631  -11.0197 O   0  0  0  0  0  0  0  0  0  0  0  0
   22.8564  -21.1568  -10.0272 N   0  0  0  0  0  0  0  0  0  0  0  0
   21.6132  -21.4310  -10.7546 C   0  0  1  0  0  0  0  0  0  0  0  0
   21.9160  -21.9150  -12.1500 C   0  0  0  0  0  0  0  0  0  0  0  0
   21.4988  -20.8647  -13.1135 C   0  0  0  0  0  0  0  0  0  0  0  0
   21.1508  -19.5573  -12.7826 C   0  0  0  0  0  0  0  0  0  0  0  0
   20.8269  -18.8989  -13.9056 N   0  0  0  0  0  0  0  0  0  0  0  0
   20.9423  -19.7068  -14.9768 C   0  0  0  0  0  0  0  0  0  0  0  0
   20.7281  -19.5048  -16.3253 C   0  0  0  0  0  0  0  0  0  0  0  0
   20.9259  -20.5264  -17.2302 C   0  0  0  0  0  0  0  0  0  0  0  0
   21.3424  -21.7398  -16.7257 C   0  0  0  0  0  0  0  0  0  0  0  0
   21.5611  -21.9545  -15.3719 C   0  0  0  0  0  0  0  0  0  0  0  0
   21.3599  -20.9292  -14.4857 C   0  0  0  0  0  0  0  0  0  0  0  0
   20.7727  -22.3969  -10.0073 C   0  0  0  0  0  0  0  0  0  0  0  0
   19.6262  -22.7047  -10.4415 O   0  0  0  0  0  0  0  0  0  0  0  0
   21.1790  -22.9969   -8.8324 O   0  0  0  0  0  0  0  0  0  0  0  0
  2  1  1  1
  3  2  1  0
  4  6  1  0
  4  5  1  1
  4  2  1  0
  6  7  2  0
  8  9  1  0
  8  6  1  0
  9 20  1  0
 10 11  1  0
  9 10  1  1
 11 19  1  0
 12 11  2  0
 12 13  1  0
 13 14  1  0
 14 15  2  0
 15 16  1  0
 17 16  2  0
 18 17  1  0
 19 18  2  0
 19 14  1  0
 20 21  2  0
 20 22  1  0
 22 23  1  0
 23 34  1  0
 23 24  1  6
 25 24  1  0
 26 25  2  0
 27 28  1  0
 27 26  1  0
 28 33  2  0
 29 28  1  0
 29 30  2  0
 30 31  1  0
 31 32  2  0
 33 25  1  0
 33 32  1  0
 34 35  2  0
 34 36  1  0
M  END
$$$$
