VWW.pdb
     RDKit          3D

 36 39  0  0  1  0  0  0  0  0999 V2000
   29.4242  -23.1157  -19.2028 C   0  0  0  0  0  0  0  0  0  0  0  0
   29.7152  -22.6716  -17.7772 C   0  0  2  0  0  0  0  0  0  0  0  0
   30.4996  -23.7610  -17.0887 C   0  0  0  0  0  0  0  0  0  0  0  0
   28.3930  -22.5361  -17.0457 C   0  0  2  0  0  0  0  0  0  0  0  0
   27.6081  -21.5345  -17.7262 N   0  0  0  0  0  0  0  0  0  0  0  0
   28.5959  -22.1065  -15.6426 C   0  0  0  0  0  0  0  0  0  0  0  0
   29.2261  -22.8541  -14.8559 O   0  0  0  0  0  0  0  0  0  0  0  0
   28.0616  -20.8499  -15.2417 N   0  0  0  0  0  0  0  0  0  0  0  0
   28.2850  -20.3677  -13.9164 C   0  0  1  0  0  0  0  0  0  0  0  0
   28.2869  -18.8613  -13.8256 C   0  0  0  0  0  0  0  0  0  0  0  0
   27.1851  -18.2313  -14.5386 C   0  0  0  0  0  0  0  0  0  0  0  0
   25.9083  -18.0511  -14.1031 C   0  0  0  0  0  0  0  0  0  0  0  0
   25.1717  -17.4257  -15.0477 N   0  0  0  0  0  0  0  0  0  0  0  0
   25.9856  -17.1954  -16.1174 C   0  0  0  0  0  0  0  0  0  0  0  0
   25.7390  -16.5936  -17.3346 C   0  0  0  0  0  0  0  0  0  0  0  0
   26.8074  -16.5223  -18.2085 C   0  0  0  0  0  0  0  0  0  0  0  0
   28.0527  -17.0075  -17.9235 C   0  0  0  0  0  0  0  0  0  0  0  0
   28.2831  -17.6041  -16.7078 C   0  0  0  0  0  0  0  0  0  0  0  0
   27.2483  -17.6971  -15.8066 C   0  0  0  0  0  0  0  0  0  0  0  0
   27.1424  -20.8331  -13.0674 C   0  0  0  0  0  0  0  0  0  0  0  0
   26.0645  -21.2065  -13.6190 O   0  0  0  0  0  0  0  0  0  0  0  0
   27.2111  -20.8764  -11.6654 N   0  0  0  0  0  0  0  0  0  0  0  0
   26.1373  -21.5275  -10.9085 C   0  0  1  0  0  0  0  0  0  0  0  0
   26.6447  -21.9872   -9.5652 C   0  0  0  0  0  0  0  0  0  0  0  0
   26.8234  -20.7959   -8.6966 C   0  0  0  0  0  0  0  0  0  0  0  0
   26.0406  -19.6444   -8.7338 C   0  0  0  0  0  0  0  0  0  0  0  0
   26.4959  -18.7825   -7.8123 N   0  0  0  0  0  0  0  0  0  0  0  0
   27.5503  -19.3046   -7.1572 C   0  0  0  0  0  0  0  0  0  0  0  0
   28.3508  -18.8210   -6.1421 C   0  0  0  0  0  0  0  0  0  0  0  0
   29.3880  -19.5795   -5.6415 C   0  0  0  0  0  0  0  0  0  0  0  0
   29.5799  -20.8257   -6.1987 C   0  0  0  0  0  0  0  0  0  0  0  0
   28.7813  -21.3224   -7.2198 C   0  0  0  0  0  0  0  0  0  0  0  0
   27.7550  -20.5562   -7.7061 C   0  0  0  0  0  0  0  0  0  0  0  0
   24.9694  -20.6241  -10.7758 C   0  0  0  0  0  0  0  0  0  0  0  0
   23.8621  -21.0787  -10.3697 O   0  0  0  0  0  0  0  0  0  0  0  0
   25.0206  -19.2781  -11.0779 O   0  0  0  0  0  0  0  0  0  0  0  0
  2  1  1  6
  3  2  1  0
  4  6  1  0
  4  5  1  6
  4  2  1  0
  6  7  2  0
  8  9  1  0
  8  6  1  0
  9 20  1  0
 10 11  1  0
  9 10  1  6
 11 19  1  0
 12 11  2  0
 12 13  1  0
 13 14  1  0
 14 15  2  0
 15 16  1  0
 17 16  2  0
 18 17  1  0
 19 18  2  0
 19 14  1  0
 20 21  2  0
 20 22  1  0
 22 23  1  0
 23 34  1  0
 23 24  1  1
 25 24  1  0
 26 25  2  0
 27 28  1  0
 27 26  1  0
 28 33  2  0
 29 28  1  0
 29 30  2  0
 30 31  1  0
 31 32  2  0
 33 25  1  0
 33 32  1  0
 34 35  2  0
 34 36  1  0
M  END
$$$$
