ADH.pdb
     RDKit          3D

 24 24  0  0  1  0  0  0  0  0999 V2000
   15.0275  -13.9758  -18.3272 C   0  0  0  0  0  0  0  0  0  0  0  0
   16.2521  -13.8004  -17.4542 C   0  0  2  0  0  0  0  0  0  0  0  0
   15.9833  -14.3586  -16.1452 N   0  0  0  0  0  0  0  0  0  0  0  0
   16.5313  -12.3294  -17.3173 C   0  0  0  0  0  0  0  0  0  0  0  0
   16.9326  -11.7124  -18.3490 O   0  0  0  0  0  0  0  0  0  0  0  0
   16.3508  -11.6638  -16.0785 N   0  0  0  0  0  0  0  0  0  0  0  0
   16.7729  -10.2558  -15.9904 C   0  0  1  0  0  0  0  0  0  0  0  0
   15.6391   -9.5049  -15.3633 C   0  0  0  0  0  0  0  0  0  0  0  0
   15.9534   -8.0902  -15.1781 C   0  0  0  0  0  0  0  0  0  0  0  0
   16.9811   -7.6905  -14.6128 O   0  0  0  0  0  0  0  0  0  0  0  0
   18.0230  -10.2169  -15.1551 C   0  0  0  0  0  0  0  0  0  0  0  0
   18.3687  -11.1496  -14.3956 O   0  0  0  0  0  0  0  0  0  0  0  0
   15.0521   -7.1135  -15.6612 O   0  0  0  0  0  0  0  0  0  0  0  0
   18.8658   -9.0717  -15.2181 N   0  0  0  0  0  0  0  0  0  0  0  0
   20.2930   -9.1469  -14.7773 C   0  0  1  0  0  0  0  0  0  0  0  0
   20.9622  -10.0620  -15.7385 C   0  0  0  0  0  0  0  0  0  0  0  0
   22.4043  -10.2087  -15.5654 C   0  0  0  0  0  0  0  0  0  0  0  0
   23.1422  -10.2537  -14.4131 C   0  0  0  0  0  0  0  0  0  0  0  0
   24.4553  -10.4733  -14.7411 N   0  0  0  0  0  0  0  0  0  0  0  0
   24.5295  -10.5639  -16.0687 C   0  0  0  0  0  0  0  0  0  0  0  0
   23.3123  -10.4071  -16.5575 N   0  0  0  0  0  0  0  0  0  0  0  0
   20.8311   -7.7494  -14.9957 C   0  0  0  0  0  0  0  0  0  0  0  0
   20.3148   -7.0501  -15.9306 O   0  0  0  0  0  0  0  0  0  0  0  0
   21.8304   -7.1982  -14.2570 O   0  0  0  0  0  0  0  0  0  0  0  0
  2  1  1  6
  2  3  1  0
  4  2  1  0
  5  4  2  0
  6  4  1  0
  7 11  1  0
  7  6  1  0
  7  8  1  1
  9  8  1  0
 10  9  2  0
 11 14  1  0
 12 11  2  0
 13  9  1  0
 14 15  1  0
 15 22  1  0
 15 16  1  6
 16 17  1  0
 17 21  1  0
 17 18  2  0
 18 19  1  0
 20 19  1  0
 21 20  2  0
 22 23  2  0
 22 24  1  0
M  END
$$$$
