ADH.pdb
     RDKit          3D

 24 24  0  0  1  0  0  0  0  0999 V2000
   31.5470  -36.5874    6.4885 C   0  0  0  0  0  0  0  0  0  0  0  0
   32.4390  -36.1867    5.3326 C   0  0  2  0  0  0  0  0  0  0  0  0
   33.7263  -35.7720    5.8507 N   0  0  0  0  0  0  0  0  0  0  0  0
   31.7980  -35.0307    4.6162 C   0  0  0  0  0  0  0  0  0  0  0  0
   32.0112  -33.8685    5.0744 O   0  0  0  0  0  0  0  0  0  0  0  0
   30.9869  -35.2395    3.4722 N   0  0  0  0  0  0  0  0  0  0  0  0
   30.3828  -34.0565    2.8366 C   0  0  1  0  0  0  0  0  0  0  0  0
   30.4866  -34.2624    1.3569 C   0  0  0  0  0  0  0  0  0  0  0  0
   29.5961  -35.3206    0.8861 C   0  0  0  0  0  0  0  0  0  0  0  0
   29.7537  -36.5170    1.1675 O   0  0  0  0  0  0  0  0  0  0  0  0
   28.9573  -33.9757    3.3095 C   0  0  0  0  0  0  0  0  0  0  0  0
   28.2656  -34.9843    3.5750 O   0  0  0  0  0  0  0  0  0  0  0  0
   28.4939  -34.9822    0.0675 O   0  0  0  0  0  0  0  0  0  0  0  0
   28.3488  -32.6989    3.4681 N   0  0  0  0  0  0  0  0  0  0  0  0
   26.9008  -32.5804    3.8235 C   0  0  1  0  0  0  0  0  0  0  0  0
   26.7296  -31.2033    4.3556 C   0  0  0  0  0  0  0  0  0  0  0  0
   25.3775  -30.8602    4.7857 C   0  0  0  0  0  0  0  0  0  0  0  0
   24.2768  -31.6634    4.9196 C   0  0  0  0  0  0  0  0  0  0  0  0
   23.2445  -30.9133    5.4213 N   0  0  0  0  0  0  0  0  0  0  0  0
   23.6961  -29.6716    5.5960 C   0  0  0  0  0  0  0  0  0  0  0  0
   24.9619  -29.6405    5.2191 N   0  0  0  0  0  0  0  0  0  0  0  0
   26.1765  -32.6730    2.4979 C   0  0  0  0  0  0  0  0  0  0  0  0
   26.8195  -32.3526    1.4426 O   0  0  0  0  0  0  0  0  0  0  0  0
   24.8846  -33.0751    2.3669 O   0  0  0  0  0  0  0  0  0  0  0  0
  2  1  1  1
  2  3  1  0
  4  2  1  0
  5  4  2  0
  6  4  1  0
  7 11  1  0
  7  6  1  0
  7  8  1  6
  9  8  1  0
 10  9  2  0
 11 14  1  0
 12 11  2  0
 13  9  1  0
 14 15  1  0
 15 22  1  0
 15 16  1  6
 16 17  1  0
 17 21  1  0
 17 18  2  0
 18 19  1  0
 20 19  1  0
 21 20  2  0
 22 23  2  0
 22 24  1  0
M  END
$$$$
