ADH.pdb
     RDKit          3D

 24 24  0  0  1  0  0  0  0  0999 V2000
   31.9004  -33.6960   -5.3286 C   0  0  0  0  0  0  0  0  0  0  0  0
   30.6739  -34.5677   -5.1606 C   0  0  2  0  0  0  0  0  0  0  0  0
   29.4960  -33.7971   -5.5018 N   0  0  0  0  0  0  0  0  0  0  0  0
   30.5872  -34.9937   -3.7214 C   0  0  0  0  0  0  0  0  0  0  0  0
   30.0456  -34.1892   -2.9056 O   0  0  0  0  0  0  0  0  0  0  0  0
   31.0938  -36.2488   -3.2993 N   0  0  0  0  0  0  0  0  0  0  0  0
   30.9918  -36.5818   -1.8685 C   0  0  1  0  0  0  0  0  0  0  0  0
   30.5501  -38.0105   -1.7894 C   0  0  0  0  0  0  0  0  0  0  0  0
   30.1766  -38.3952   -0.4303 C   0  0  0  0  0  0  0  0  0  0  0  0
   30.2119  -37.6143    0.5312 O   0  0  0  0  0  0  0  0  0  0  0  0
   32.3508  -36.3634   -1.2622 C   0  0  0  0  0  0  0  0  0  0  0  0
   33.3859  -36.9296   -1.6793 O   0  0  0  0  0  0  0  0  0  0  0  0
   29.7511  -39.7202   -0.1800 O   0  0  0  0  0  0  0  0  0  0  0  0
   32.4852  -35.4733   -0.1597 N   0  0  0  0  0  0  0  0  0  0  0  0
   33.8358  -35.1110    0.3708 C   0  0  1  0  0  0  0  0  0  0  0  0
   33.8831  -33.6256    0.3674 C   0  0  0  0  0  0  0  0  0  0  0  0
   34.5116  -33.0203   -0.8030 C   0  0  0  0  0  0  0  0  0  0  0  0
   35.0104  -33.6177   -1.9294 C   0  0  0  0  0  0  0  0  0  0  0  0
   35.4402  -32.6410   -2.7905 N   0  0  0  0  0  0  0  0  0  0  0  0
   35.2115  -31.4630   -2.2105 C   0  0  0  0  0  0  0  0  0  0  0  0
   34.6602  -31.6884   -1.0314 N   0  0  0  0  0  0  0  0  0  0  0  0
   33.8177  -35.5844    1.8081 C   0  0  0  0  0  0  0  0  0  0  0  0
   32.7850  -36.2143    2.2163 O   0  0  0  0  0  0  0  0  0  0  0  0
   34.8337  -35.3769    2.6871 O   0  0  0  0  0  0  0  0  0  0  0  0
  2  1  1  1
  2  3  1  0
  4  2  1  0
  5  4  2  0
  6  4  1  0
  7 11  1  0
  7  6  1  0
  7  8  1  6
  9  8  1  0
 10  9  2  0
 11 14  1  0
 12 11  2  0
 13  9  1  0
 14 15  1  0
 15 22  1  0
 15 16  1  1
 16 17  1  0
 17 21  1  0
 17 18  2  0
 18 19  1  0
 20 19  1  0
 21 20  2  0
 22 23  2  0
 22 24  1  0
M  END
$$$$
