ADH.pdb
     RDKit          3D

 24 24  0  0  1  0  0  0  0  0999 V2000
   13.0328   -9.0114  -10.4683 C   0  0  0  0  0  0  0  0  0  0  0  0
   13.2728   -9.8469  -11.7080 C   0  0  2  0  0  0  0  0  0  0  0  0
   12.8105  -11.1976  -11.4644 N   0  0  0  0  0  0  0  0  0  0  0  0
   14.7501   -9.8717  -11.9857 C   0  0  0  0  0  0  0  0  0  0  0  0
   15.5302   -9.6084  -11.0222 O   0  0  0  0  0  0  0  0  0  0  0  0
   15.2454  -10.1785  -13.2783 N   0  0  0  0  0  0  0  0  0  0  0  0
   16.7015  -10.3330  -13.4342 C   0  0  1  0  0  0  0  0  0  0  0  0
   16.9152  -11.4967  -14.3521 C   0  0  0  0  0  0  0  0  0  0  0  0
   16.6319  -12.7717  -13.6974 C   0  0  0  0  0  0  0  0  0  0  0  0
   17.0783  -13.0774  -12.5827 O   0  0  0  0  0  0  0  0  0  0  0  0
   17.2279   -9.0443  -14.0039 C   0  0  0  0  0  0  0  0  0  0  0  0
   16.5581   -8.3057  -14.7602 O   0  0  0  0  0  0  0  0  0  0  0  0
   15.8092  -13.7168  -14.3528 O   0  0  0  0  0  0  0  0  0  0  0  0
   18.5496   -8.6289  -13.6783 N   0  0  0  0  0  0  0  0  0  0  0  0
   19.1345   -7.3934  -14.2851 C   0  0  1  0  0  0  0  0  0  0  0  0
   20.4294   -7.1782  -13.5879 C   0  0  0  0  0  0  0  0  0  0  0  0
   21.2577   -6.1007  -14.1209 C   0  0  0  0  0  0  0  0  0  0  0  0
   22.3033   -6.1617  -15.0027 C   0  0  0  0  0  0  0  0  0  0  0  0
   22.7305   -4.8857  -15.2658 N   0  0  0  0  0  0  0  0  0  0  0  0
   21.9649   -4.0512  -14.5630 C   0  0  0  0  0  0  0  0  0  0  0  0
   21.0909   -4.7724  -13.8840 N   0  0  0  0  0  0  0  0  0  0  0  0
   19.4235   -7.7765  -15.7204 C   0  0  0  0  0  0  0  0  0  0  0  0
   19.7153   -8.9948  -15.9660 O   0  0  0  0  0  0  0  0  0  0  0  0
   19.3917   -6.9006  -16.7595 O   0  0  0  0  0  0  0  0  0  0  0  0
  2  1  1  1
  2  3  1  0
  4  2  1  0
  5  4  2  0
  6  4  1  0
  7 11  1  0
  7  6  1  0
  7  8  1  6
  9  8  1  0
 10  9  2  0
 11 14  1  0
 12 11  2  0
 13  9  1  0
 14 15  1  0
 15 22  1  0
 15 16  1  1
 16 17  1  0
 17 21  1  0
 17 18  2  0
 18 19  1  0
 20 19  1  0
 21 20  2  0
 22 23  2  0
 22 24  1  0
M  END
$$$$
