ADH.pdb
     RDKit          3D

 24 24  0  0  1  0  0  0  0  0999 V2000
   17.5913  -12.4332  -17.2040 C   0  0  0  0  0  0  0  0  0  0  0  0
   19.0305  -11.9729  -17.1075 C   0  0  2  0  0  0  0  0  0  0  0  0
   19.8186  -13.0137  -16.4806 N   0  0  0  0  0  0  0  0  0  0  0  0
   19.0773  -10.7352  -16.2553 C   0  0  0  0  0  0  0  0  0  0  0  0
   18.3021  -10.6856  -15.2539 O   0  0  0  0  0  0  0  0  0  0  0  0
   19.9573   -9.6676  -16.5654 N   0  0  0  0  0  0  0  0  0  0  0  0
   20.0134   -8.5329  -15.6285 C   0  0  1  0  0  0  0  0  0  0  0  0
   21.4591   -8.1761  -15.4704 C   0  0  0  0  0  0  0  0  0  0  0  0
   22.1642   -9.1146  -14.6006 C   0  0  0  0  0  0  0  0  0  0  0  0
   23.0294   -9.9019  -15.0095 O   0  0  0  0  0  0  0  0  0  0  0  0
   19.2061   -7.4165  -16.2320 C   0  0  0  0  0  0  0  0  0  0  0  0
   19.3012   -7.0735  -17.4318 O   0  0  0  0  0  0  0  0  0  0  0  0
   21.8578   -9.1407  -13.2204 O   0  0  0  0  0  0  0  0  0  0  0  0
   18.2846   -6.7042  -15.4140 N   0  0  0  0  0  0  0  0  0  0  0  0
   17.5589   -5.5078  -15.9423 C   0  0  1  0  0  0  0  0  0  0  0  0
   16.2482   -5.4918  -15.2416 C   0  0  0  0  0  0  0  0  0  0  0  0
   15.3870   -4.3534  -15.5474 C   0  0  0  0  0  0  0  0  0  0  0  0
   15.4697   -3.4506  -16.5734 C   0  0  0  0  0  0  0  0  0  0  0  0
   14.3991   -2.5976  -16.4947 N   0  0  0  0  0  0  0  0  0  0  0  0
   13.6675   -2.9647  -15.4429 C   0  0  0  0  0  0  0  0  0  0  0  0
   14.2538   -4.0068  -14.8813 N   0  0  0  0  0  0  0  0  0  0  0  0
   18.3728   -4.3271  -15.4587 C   0  0  0  0  0  0  0  0  0  0  0  0
   18.2464   -3.2197  -16.0812 O   0  0  0  0  0  0  0  0  0  0  0  0
   19.2290   -4.3781  -14.4040 O   0  0  0  0  0  0  0  0  0  0  0  0
  2  1  1  1
  2  3  1  0
  4  2  1  0
  5  4  2  0
  6  4  1  0
  7 11  1  0
  7  6  1  0
  7  8  1  6
  9  8  1  0
 10  9  2  0
 11 14  1  0
 12 11  2  0
 13  9  1  0
 14 15  1  0
 15 22  1  0
 15 16  1  1
 16 17  1  0
 17 21  1  0
 17 18  2  0
 18 19  1  0
 20 19  1  0
 21 20  2  0
 22 23  2  0
 22 24  1  0
M  END
$$$$
