ADH.pdb
     RDKit          3D

 24 24  0  0  1  0  0  0  0  0999 V2000
   16.0165  -14.6162  -17.9382 C   0  0  0  0  0  0  0  0  0  0  0  0
   15.7646  -13.1256  -18.0218 C   0  0  2  0  0  0  0  0  0  0  0  0
   15.5789  -12.7547  -19.4094 N   0  0  0  0  0  0  0  0  0  0  0  0
   16.9676  -12.4089  -17.4745 C   0  0  0  0  0  0  0  0  0  0  0  0
   17.2348  -12.5698  -16.2462 O   0  0  0  0  0  0  0  0  0  0  0  0
   17.7685  -11.5859  -18.3060 N   0  0  0  0  0  0  0  0  0  0  0  0
   18.8250  -10.7862  -17.6636 C   0  0  1  0  0  0  0  0  0  0  0  0
   20.1209  -11.2052  -18.2862 C   0  0  0  0  0  0  0  0  0  0  0  0
   21.2481  -10.4196  -17.7893 C   0  0  0  0  0  0  0  0  0  0  0  0
   21.5677   -9.3178  -18.2577 O   0  0  0  0  0  0  0  0  0  0  0  0
   18.5044   -9.3387  -17.9170 C   0  0  0  0  0  0  0  0  0  0  0  0
   18.2363   -8.8851  -19.0521 O   0  0  0  0  0  0  0  0  0  0  0  0
   22.0247  -10.9251  -16.7213 O   0  0  0  0  0  0  0  0  0  0  0  0
   18.5015   -8.4259  -16.8250 N   0  0  0  0  0  0  0  0  0  0  0  0
   18.2477   -6.9687  -17.0466 C   0  0  1  0  0  0  0  0  0  0  0  0
   16.8740   -6.7187  -16.5374 C   0  0  0  0  0  0  0  0  0  0  0  0
   16.4317   -5.3281  -16.5816 C   0  0  0  0  0  0  0  0  0  0  0  0
   17.0353   -4.2408  -17.1542 C   0  0  0  0  0  0  0  0  0  0  0  0
   16.2143   -3.1531  -17.0036 N   0  0  0  0  0  0  0  0  0  0  0  0
   15.1240   -3.5579  -16.3526 C   0  0  0  0  0  0  0  0  0  0  0  0
   15.2532   -4.8486  -16.1026 N   0  0  0  0  0  0  0  0  0  0  0  0
   19.2301   -6.2697  -16.1319 C   0  0  0  0  0  0  0  0  0  0  0  0
   19.9133   -6.9888  -15.3282 O   0  0  0  0  0  0  0  0  0  0  0  0
   19.4251   -4.9245  -16.1158 O   0  0  0  0  0  0  0  0  0  0  0  0
  2  1  1  6
  2  3  1  0
  4  2  1  0
  5  4  2  0
  6  4  1  0
  7 11  1  0
  7  6  1  0
  7  8  1  6
  9  8  1  0
 10  9  2  0
 11 14  1  0
 12 11  2  0
 13  9  1  0
 14 15  1  0
 15 22  1  0
 15 16  1  1
 16 17  1  0
 17 21  1  0
 17 18  2  0
 18 19  1  0
 20 19  1  0
 21 20  2  0
 22 23  2  0
 22 24  1  0
M  END
$$$$
