ADH.pdb
     RDKit          3D

 24 24  0  0  1  0  0  0  0  0999 V2000
   19.7234  -15.1006  -18.8887 C   0  0  0  0  0  0  0  0  0  0  0  0
   18.8689  -14.3638  -17.8790 C   0  0  2  0  0  0  0  0  0  0  0  0
   17.4776  -14.6963  -18.1050 N   0  0  0  0  0  0  0  0  0  0  0  0
   19.0638  -12.8866  -18.0794 C   0  0  0  0  0  0  0  0  0  0  0  0
   19.0494  -12.4515  -19.2697 O   0  0  0  0  0  0  0  0  0  0  0  0
   19.2560  -12.0186  -16.9749 N   0  0  0  0  0  0  0  0  0  0  0  0
   19.3285  -10.5729  -17.2452 C   0  0  1  0  0  0  0  0  0  0  0  0
   17.9174  -10.0863  -17.3669 C   0  0  0  0  0  0  0  0  0  0  0  0
   17.8502   -8.6393  -17.5568 C   0  0  0  0  0  0  0  0  0  0  0  0
   18.6488   -8.0086  -18.2638 O   0  0  0  0  0  0  0  0  0  0  0  0
   20.0598   -9.9403  -16.0932 C   0  0  0  0  0  0  0  0  0  0  0  0
   19.8308  -10.2263  -14.8966 O   0  0  0  0  0  0  0  0  0  0  0  0
   16.8299   -7.9046  -16.9096 O   0  0  0  0  0  0  0  0  0  0  0  0
   21.0640   -8.9670  -16.3577 N   0  0  0  0  0  0  0  0  0  0  0  0
   21.8088   -8.3125  -15.2379 C   0  0  1  0  0  0  0  0  0  0  0  0
   23.2340   -8.2968  -15.6590 C   0  0  0  0  0  0  0  0  0  0  0  0
   23.9601   -9.5481  -15.4639 C   0  0  0  0  0  0  0  0  0  0  0  0
   23.5179  -10.7408  -14.9574 C   0  0  0  0  0  0  0  0  0  0  0  0
   24.5377  -11.6542  -15.0315 N   0  0  0  0  0  0  0  0  0  0  0  0
   25.5895  -11.0411  -15.5739 C   0  0  0  0  0  0  0  0  0  0  0  0
   25.2463   -9.7915  -15.8306 N   0  0  0  0  0  0  0  0  0  0  0  0
   21.2992   -6.8875  -15.2259 C   0  0  0  0  0  0  0  0  0  0  0  0
   21.7809   -6.0885  -14.3545 O   0  0  0  0  0  0  0  0  0  0  0  0
   20.3601   -6.4114  -16.0857 O   0  0  0  0  0  0  0  0  0  0  0  0
  2  1  1  6
  2  3  1  0
  4  2  1  0
  5  4  2  0
  6  4  1  0
  7 11  1  0
  7  6  1  0
  7  8  1  1
  9  8  1  0
 10  9  2  0
 11 14  1  0
 12 11  2  0
 13  9  1  0
 14 15  1  0
 15 22  1  0
 15 16  1  6
 16 17  1  0
 17 21  1  0
 17 18  2  0
 18 19  1  0
 20 19  1  0
 21 20  2  0
 22 23  2  0
 22 24  1  0
M  END
$$$$
