ADH.pdb
     RDKit          3D

 24 24  0  0  1  0  0  0  0  0999 V2000
   22.0834  -12.4172  -18.1505 C   0  0  0  0  0  0  0  0  0  0  0  0
   20.8176  -12.4813  -17.3222 C   0  0  2  0  0  0  0  0  0  0  0  0
   19.7921  -13.1695  -18.0787 N   0  0  0  0  0  0  0  0  0  0  0  0
   20.3641  -11.0764  -17.0378 C   0  0  0  0  0  0  0  0  0  0  0  0
   20.5997  -10.1967  -17.9191 O   0  0  0  0  0  0  0  0  0  0  0  0
   19.6989  -10.7543  -15.8279 N   0  0  0  0  0  0  0  0  0  0  0  0
   19.3513   -9.3428  -15.5928 C   0  0  1  0  0  0  0  0  0  0  0  0
   18.1495   -9.3382  -14.6994 C   0  0  0  0  0  0  0  0  0  0  0  0
   16.9636   -9.8636  -15.3718 C   0  0  0  0  0  0  0  0  0  0  0  0
   16.4631   -9.3384  -16.3764 O   0  0  0  0  0  0  0  0  0  0  0  0
   20.5469   -8.6898  -14.9553 C   0  0  0  0  0  0  0  0  0  0  0  0
   21.2149   -9.2260  -14.0429 O   0  0  0  0  0  0  0  0  0  0  0  0
   16.3420  -11.0285  -14.8658 O   0  0  0  0  0  0  0  0  0  0  0  0
   20.9526   -7.3994  -15.3978 N   0  0  0  0  0  0  0  0  0  0  0  0
   22.2167   -6.7798  -14.8928 C   0  0  1  0  0  0  0  0  0  0  0  0
   22.9054   -6.2377  -16.0931 C   0  0  0  0  0  0  0  0  0  0  0  0
   23.5389   -7.2308  -16.9554 C   0  0  0  0  0  0  0  0  0  0  0  0
   23.6444   -8.5858  -16.7903 C   0  0  0  0  0  0  0  0  0  0  0  0
   24.2629   -9.1155  -17.8935 N   0  0  0  0  0  0  0  0  0  0  0  0
   24.5338   -8.1101  -18.7254 C   0  0  0  0  0  0  0  0  0  0  0  0
   24.1038   -6.9920  -18.1686 N   0  0  0  0  0  0  0  0  0  0  0  0
   21.7549   -5.6167  -14.0418 C   0  0  0  0  0  0  0  0  0  0  0  0
   20.5172   -5.3058  -14.0766 O   0  0  0  0  0  0  0  0  0  0  0  0
   22.5797   -4.8854  -13.2463 O   0  0  0  0  0  0  0  0  0  0  0  0
  2  1  1  6
  2  3  1  0
  4  2  1  0
  5  4  2  0
  6  4  1  0
  7 11  1  0
  7  6  1  0
  7  8  1  1
  9  8  1  0
 10  9  2  0
 11 14  1  0
 12 11  2  0
 13  9  1  0
 14 15  1  0
 15 22  1  0
 15 16  1  6
 16 17  1  0
 17 21  1  0
 17 18  2  0
 18 19  1  0
 20 19  1  0
 21 20  2  0
 22 23  2  0
 22 24  1  0
M  END
$$$$
