ADH.pdb
     RDKit          3D

 24 24  0  0  1  0  0  0  0  0999 V2000
   16.9923  -12.3374  -17.6110 C   0  0  0  0  0  0  0  0  0  0  0  0
   18.0027  -12.0184  -16.5293 C   0  0  2  0  0  0  0  0  0  0  0  0
   17.3703  -12.1628  -15.2344 N   0  0  0  0  0  0  0  0  0  0  0  0
   18.4529  -10.5947  -16.7045 C   0  0  0  0  0  0  0  0  0  0  0  0
   19.1323  -10.3198  -17.7384 O   0  0  0  0  0  0  0  0  0  0  0  0
   18.1266   -9.6022  -15.7460 N   0  0  0  0  0  0  0  0  0  0  0  0
   18.5942   -8.2286  -15.9970 C   0  0  1  0  0  0  0  0  0  0  0  0
   17.4202   -7.3264  -15.7729 C   0  0  0  0  0  0  0  0  0  0  0  0
   17.7480   -5.9255  -16.0272 C   0  0  0  0  0  0  0  0  0  0  0  0
   18.3428   -5.5403  -17.0437 O   0  0  0  0  0  0  0  0  0  0  0  0
   19.7207   -7.9591  -15.0374 C   0  0  0  0  0  0  0  0  0  0  0  0
   19.9822   -8.6994  -14.0629 O   0  0  0  0  0  0  0  0  0  0  0  0
   17.3761   -4.9459  -15.0777 O   0  0  0  0  0  0  0  0  0  0  0  0
   20.5392   -6.8110  -15.2311 N   0  0  0  0  0  0  0  0  0  0  0  0
   21.7889   -6.6188  -14.4323 C   0  0  1  0  0  0  0  0  0  0  0  0
   22.8988   -7.0808  -15.3062 C   0  0  0  0  0  0  0  0  0  0  0  0
   23.1185   -8.5238  -15.3318 C   0  0  0  0  0  0  0  0  0  0  0  0
   22.6309   -9.4931  -14.4969 C   0  0  0  0  0  0  0  0  0  0  0  0
   23.0504  -10.7164  -14.9524 N   0  0  0  0  0  0  0  0  0  0  0  0
   23.7815  -10.5098  -16.0475 C   0  0  0  0  0  0  0  0  0  0  0  0
   23.8214   -9.2087  -16.2725 N   0  0  0  0  0  0  0  0  0  0  0  0
   21.9054   -5.1191  -14.2660 C   0  0  0  0  0  0  0  0  0  0  0  0
   21.1482   -4.3787  -14.9790 O   0  0  0  0  0  0  0  0  0  0  0  0
   22.7681   -4.5169  -13.4051 O   0  0  0  0  0  0  0  0  0  0  0  0
  2  1  1  6
  2  3  1  0
  4  2  1  0
  5  4  2  0
  6  4  1  0
  7 11  1  0
  7  6  1  0
  7  8  1  1
  9  8  1  0
 10  9  2  0
 11 14  1  0
 12 11  2  0
 13  9  1  0
 14 15  1  0
 15 22  1  0
 15 16  1  6
 16 17  1  0
 17 21  1  0
 17 18  2  0
 18 19  1  0
 20 19  1  0
 21 20  2  0
 22 23  2  0
 22 24  1  0
M  END
$$$$
