ADH.pdb
     RDKit          3D

 24 24  0  0  1  0  0  0  0  0999 V2000
   17.4408   -8.3924  -10.9001 C   0  0  0  0  0  0  0  0  0  0  0  0
   16.7103   -8.7771  -12.1694 C   0  0  2  0  0  0  0  0  0  0  0  0
   16.8905  -10.1942  -12.4074 N   0  0  0  0  0  0  0  0  0  0  0  0
   17.3052   -8.0034  -13.3130 C   0  0  0  0  0  0  0  0  0  0  0  0
   18.3147   -8.5028  -13.8939 O   0  0  0  0  0  0  0  0  0  0  0  0
   16.7532   -6.7628  -13.7211 N   0  0  0  0  0  0  0  0  0  0  0  0
   17.4247   -6.0420  -14.8156 C   0  0  1  0  0  0  0  0  0  0  0  0
   16.3577   -5.3042  -15.5638 C   0  0  0  0  0  0  0  0  0  0  0  0
   15.5306   -6.2011  -16.3675 C   0  0  0  0  0  0  0  0  0  0  0  0
   14.2919   -6.1948  -16.3353 O   0  0  0  0  0  0  0  0  0  0  0  0
   18.4333   -5.1191  -14.1885 C   0  0  0  0  0  0  0  0  0  0  0  0
   18.2094   -4.4685  -13.1432 O   0  0  0  0  0  0  0  0  0  0  0  0
   16.1566   -7.1295  -17.2310 O   0  0  0  0  0  0  0  0  0  0  0  0
   19.7093   -4.9652  -14.7999 N   0  0  0  0  0  0  0  0  0  0  0  0
   20.7775   -4.1480  -14.1457 C   0  0  1  0  0  0  0  0  0  0  0  0
   22.0470   -4.8840  -14.3817 C   0  0  0  0  0  0  0  0  0  0  0  0
   22.1134   -6.2225  -13.8029 C   0  0  0  0  0  0  0  0  0  0  0  0
   21.8548   -6.6304  -12.5218 C   0  0  0  0  0  0  0  0  0  0  0  0
   21.9812   -7.9943  -12.4616 N   0  0  0  0  0  0  0  0  0  0  0  0
   22.3097   -8.4231  -13.6800 C   0  0  0  0  0  0  0  0  0  0  0  0
   22.3878   -7.3715  -14.4757 N   0  0  0  0  0  0  0  0  0  0  0  0
   20.8150   -2.8636  -14.9452 C   0  0  0  0  0  0  0  0  0  0  0  0
   20.1533   -2.8198  -16.0361 O   0  0  0  0  0  0  0  0  0  0  0  0
   21.5117   -1.7580  -14.5707 O   0  0  0  0  0  0  0  0  0  0  0  0
  2  1  1  1
  2  3  1  0
  4  2  1  0
  5  4  2  0
  6  4  1  0
  7 11  1  0
  7  6  1  0
  7  8  1  1
  9  8  1  0
 10  9  2  0
 11 14  1  0
 12 11  2  0
 13  9  1  0
 14 15  1  0
 15 22  1  0
 15 16  1  6
 16 17  1  0
 17 21  1  0
 17 18  2  0
 18 19  1  0
 20 19  1  0
 21 20  2  0
 22 23  2  0
 22 24  1  0
M  END
$$$$
