ADH.pdb
     RDKit          3D

 24 24  0  0  1  0  0  0  0  0999 V2000
   17.9104  -11.6275  -15.8578 C   0  0  0  0  0  0  0  0  0  0  0  0
   18.1270  -10.5419  -16.8908 C   0  0  2  0  0  0  0  0  0  0  0  0
   19.2209  -10.9266  -17.7585 N   0  0  0  0  0  0  0  0  0  0  0  0
   18.4868   -9.2697  -16.1749 C   0  0  0  0  0  0  0  0  0  0  0  0
   17.6130   -8.7627  -15.4096 O   0  0  0  0  0  0  0  0  0  0  0  0
   19.7568   -8.6651  -16.3534 N   0  0  0  0  0  0  0  0  0  0  0  0
   19.9907   -7.3616  -15.7095 C   0  0  1  0  0  0  0  0  0  0  0  0
   21.3644   -7.4150  -15.1156 C   0  0  0  0  0  0  0  0  0  0  0  0
   21.4100   -8.2406  -13.9111 C   0  0  0  0  0  0  0  0  0  0  0  0
   20.7368   -8.0031  -12.8983 O   0  0  0  0  0  0  0  0  0  0  0  0
   19.8635   -6.3087  -16.7760 C   0  0  0  0  0  0  0  0  0  0  0  0
   20.0151   -6.5469  -17.9952 O   0  0  0  0  0  0  0  0  0  0  0  0
   22.2588   -9.3712  -13.8806 O   0  0  0  0  0  0  0  0  0  0  0  0
   19.5568   -4.9710  -16.3990 N   0  0  0  0  0  0  0  0  0  0  0  0
   19.2359   -3.9392  -17.4331 C   0  0  1  0  0  0  0  0  0  0  0  0
   17.9121   -4.3250  -17.9877 C   0  0  0  0  0  0  0  0  0  0  0  0
   17.3631   -3.4173  -18.9906 C   0  0  0  0  0  0  0  0  0  0  0  0
   17.6356   -3.3326  -20.3297 C   0  0  0  0  0  0  0  0  0  0  0  0
   16.8260   -2.3740  -20.8825 N   0  0  0  0  0  0  0  0  0  0  0  0
   16.0667   -1.8760  -19.9070 C   0  0  0  0  0  0  0  0  0  0  0  0
   16.3854   -2.4955  -18.7846 N   0  0  0  0  0  0  0  0  0  0  0  0
   19.0688   -2.6558  -16.6486 C   0  0  0  0  0  0  0  0  0  0  0  0
   18.4160   -2.7066  -15.5527 O   0  0  0  0  0  0  0  0  0  0  0  0
   19.5708   -1.4557  -17.0433 O   0  0  0  0  0  0  0  0  0  0  0  0
  2  1  1  1
  2  3  1  0
  4  2  1  0
  5  4  2  0
  6  4  1  0
  7 11  1  0
  7  6  1  0
  7  8  1  6
  9  8  1  0
 10  9  2  0
 11 14  1  0
 12 11  2  0
 13  9  1  0
 14 15  1  0
 15 22  1  0
 15 16  1  1
 16 17  1  0
 17 21  1  0
 17 18  2  0
 18 19  1  0
 20 19  1  0
 21 20  2  0
 22 23  2  0
 22 24  1  0
M  END
$$$$
