ADH.pdb
     RDKit          3D

 24 24  0  0  1  0  0  0  0  0999 V2000
   17.8164  -12.0891  -20.2547 C   0  0  0  0  0  0  0  0  0  0  0  0
   18.9314  -11.0768  -20.0978 C   0  0  2  0  0  0  0  0  0  0  0  0
   20.1782  -11.6769  -20.5253 N   0  0  0  0  0  0  0  0  0  0  0  0
   19.0339  -10.7042  -18.6449 C   0  0  0  0  0  0  0  0  0  0  0  0
   18.0344  -10.1313  -18.1167 O   0  0  0  0  0  0  0  0  0  0  0  0
   20.2068  -10.9855  -17.8995 N   0  0  0  0  0  0  0  0  0  0  0  0
   20.2109  -10.6305  -16.4704 C   0  0  1  0  0  0  0  0  0  0  0  0
   20.6726  -11.8453  -15.7263 C   0  0  0  0  0  0  0  0  0  0  0  0
   19.6345  -12.8705  -15.6511 C   0  0  0  0  0  0  0  0  0  0  0  0
   18.4374  -12.6131  -15.4615 O   0  0  0  0  0  0  0  0  0  0  0  0
   21.1439   -9.4626  -16.3042 C   0  0  0  0  0  0  0  0  0  0  0  0
   22.2205   -9.3511  -16.9324 O   0  0  0  0  0  0  0  0  0  0  0  0
   19.9945  -14.2299  -15.7998 O   0  0  0  0  0  0  0  0  0  0  0  0
   20.8026   -8.4245  -15.3922 N   0  0  0  0  0  0  0  0  0  0  0  0
   21.6259   -7.1787  -15.3083 C   0  0  1  0  0  0  0  0  0  0  0  0
   21.4016   -6.4622  -16.5910 C   0  0  0  0  0  0  0  0  0  0  0  0
   22.0410   -5.1544  -16.6996 C   0  0  0  0  0  0  0  0  0  0  0  0
   23.3696   -4.8281  -16.6449 C   0  0  0  0  0  0  0  0  0  0  0  0
   23.5002   -3.4813  -16.8661 N   0  0  0  0  0  0  0  0  0  0  0  0
   22.2785   -2.9834  -17.0554 C   0  0  0  0  0  0  0  0  0  0  0  0
   21.4129   -3.9765  -16.9568 N   0  0  0  0  0  0  0  0  0  0  0  0
   20.9865   -6.3763  -14.1957 C   0  0  0  0  0  0  0  0  0  0  0  0
   19.7617   -6.6081  -13.9203 O   0  0  0  0  0  0  0  0  0  0  0  0
   21.6388   -5.4252  -13.4761 O   0  0  0  0  0  0  0  0  0  0  0  0
  2  1  1  1
  2  3  1  0
  4  2  1  0
  5  4  2  0
  6  4  1  0
  7 11  1  0
  7  6  1  0
  7  8  1  1
  9  8  1  0
 10  9  2  0
 11 14  1  0
 12 11  2  0
 13  9  1  0
 14 15  1  0
 15 22  1  0
 15 16  1  6
 16 17  1  0
 17 21  1  0
 17 18  2  0
 18 19  1  0
 20 19  1  0
 21 20  2  0
 22 23  2  0
 22 24  1  0
M  END
$$$$
