ADH.pdb
     RDKit          3D

 24 24  0  0  1  0  0  0  0  0999 V2000
   25.4117  -12.4731  -15.2281 C   0  0  0  0  0  0  0  0  0  0  0  0
   24.0033  -12.9273  -15.5484 C   0  0  2  0  0  0  0  0  0  0  0  0
   24.0578  -13.9498  -16.5727 N   0  0  0  0  0  0  0  0  0  0  0  0
   23.2299  -11.7472  -16.0676 C   0  0  0  0  0  0  0  0  0  0  0  0
   23.3690  -11.4503  -17.2918 O   0  0  0  0  0  0  0  0  0  0  0  0
   22.3791  -10.9991  -15.2151 N   0  0  0  0  0  0  0  0  0  0  0  0
   21.6016   -9.9022  -15.8157 C   0  0  1  0  0  0  0  0  0  0  0  0
   20.2047  -10.0267  -15.2905 C   0  0  0  0  0  0  0  0  0  0  0  0
   19.4585  -11.0883  -15.9618 C   0  0  0  0  0  0  0  0  0  0  0  0
   19.1366  -12.1484  -15.4068 O   0  0  0  0  0  0  0  0  0  0  0  0
   22.2595   -8.6133  -15.4057 C   0  0  0  0  0  0  0  0  0  0  0  0
   22.6917   -8.4021  -14.2504 O   0  0  0  0  0  0  0  0  0  0  0  0
   19.0756  -10.9158  -17.3120 O   0  0  0  0  0  0  0  0  0  0  0  0
   22.4061   -7.5718  -16.3647 N   0  0  0  0  0  0  0  0  0  0  0  0
   23.1339   -6.3115  -16.0202 C   0  0  1  0  0  0  0  0  0  0  0  0
   23.2570   -5.5578  -17.2952 C   0  0  0  0  0  0  0  0  0  0  0  0
   23.8176   -4.2149  -17.1789 C   0  0  0  0  0  0  0  0  0  0  0  0
   25.1241   -3.8095  -17.2365 C   0  0  0  0  0  0  0  0  0  0  0  0
   25.1634   -2.4418  -17.1474 N   0  0  0  0  0  0  0  0  0  0  0  0
   23.9078   -2.0086  -17.0383 C   0  0  0  0  0  0  0  0  0  0  0  0
   23.1095   -3.0609  -17.0573 N   0  0  0  0  0  0  0  0  0  0  0  0
   22.1835   -5.5612  -15.1124 C   0  0  0  0  0  0  0  0  0  0  0  0
   20.9339   -5.6379  -15.3620 O   0  0  0  0  0  0  0  0  0  0  0  0
   22.5826   -4.8116  -14.0509 O   0  0  0  0  0  0  0  0  0  0  0  0
  2  1  1  6
  2  3  1  0
  4  2  1  0
  5  4  2  0
  6  4  1  0
  7 11  1  0
  7  6  1  0
  7  8  1  1
  9  8  1  0
 10  9  2  0
 11 14  1  0
 12 11  2  0
 13  9  1  0
 14 15  1  0
 15 22  1  0
 15 16  1  6
 16 17  1  0
 17 21  1  0
 17 18  2  0
 18 19  1  0
 20 19  1  0
 21 20  2  0
 22 23  2  0
 22 24  1  0
M  END
$$$$
