IVW.pdb
     RDKit          3D

 30 31  0  0  1  0  0  0  0  0999 V2000
    6.3256  -11.1494   27.3711 C   0  0  0  0  0  0  0  0  0  0  0  0
    5.7465  -12.3534   26.6996 C   0  0  0  0  0  0  0  0  0  0  0  0
    6.8084  -13.2237   26.0159 C   0  0  2  0  0  0  0  0  0  0  0  0
    7.6708  -12.3654   25.1256 C   0  0  0  0  0  0  0  0  0  0  0  0
    6.1355  -14.3165   25.2041 C   0  0  2  0  0  0  0  0  0  0  0  0
    5.5279  -15.2709   26.1647 N   0  0  0  0  0  0  0  0  0  0  0  0
    7.1076  -15.1231   24.4257 C   0  0  0  0  0  0  0  0  0  0  0  0
    7.6146  -16.1573   24.9276 O   0  0  0  0  0  0  0  0  0  0  0  0
    7.2025  -15.0540   20.3351 C   0  0  0  0  0  0  0  0  0  0  0  0
    8.5852  -15.1349   20.9758 C   0  0  2  0  0  0  0  0  0  0  0  0
    9.4419  -15.9712   20.0920 C   0  0  0  0  0  0  0  0  0  0  0  0
    8.4569  -15.6544   22.4094 C   0  0  2  0  0  0  0  0  0  0  0  0
    7.5102  -14.7926   23.1145 N   0  0  0  0  0  0  0  0  0  0  0  0
    9.7712  -15.6357   23.0677 C   0  0  0  0  0  0  0  0  0  0  0  0
   10.2754  -14.4805   23.2933 O   0  0  0  0  0  0  0  0  0  0  0  0
   10.5391  -16.7312   23.4841 N   0  0  0  0  0  0  0  0  0  0  0  0
   11.8959  -16.5988   24.0747 C   0  0  1  0  0  0  0  0  0  0  0  0
   11.9421  -17.2694   25.3941 C   0  0  0  0  0  0  0  0  0  0  0  0
   10.8182  -16.8649   26.2525 C   0  0  0  0  0  0  0  0  0  0  0  0
    9.6056  -17.5380   26.4475 C   0  0  0  0  0  0  0  0  0  0  0  0
    8.8213  -16.8387   27.2760 N   0  0  0  0  0  0  0  0  0  0  0  0
    9.4578  -15.7189   27.6491 C   0  0  0  0  0  0  0  0  0  0  0  0
    9.0250  -14.7130   28.5115 C   0  0  0  0  0  0  0  0  0  0  0  0
    9.8853  -13.6697   28.7479 C   0  0  0  0  0  0  0  0  0  0  0  0
   11.1243  -13.6406   28.1440 C   0  0  0  0  0  0  0  0  0  0  0  0
   11.5293  -14.6446   27.2959 C   0  0  0  0  0  0  0  0  0  0  0  0
   10.6855  -15.7135   27.0337 C   0  0  0  0  0  0  0  0  0  0  0  0
   12.9534  -16.8790   23.1145 C   0  0  0  0  0  0  0  0  0  0  0  0
   12.6720  -17.3557   21.8630 O   0  0  0  0  0  0  0  0  0  0  0  0
   14.1572  -16.6897   23.4117 O   0  0  0  0  0  0  0  0  0  0  0  0
  2  1  1  0
  3  5  1  0
  3  2  1  0
  3  4  1  6
  5  6  1  1
  5  7  1  0
  7  8  2  0
 10 12  1  0
 10  9  1  6
 11 10  1  0
 13  7  1  0
 12 13  1  1
 14 12  1  0
 14 15  2  0
 16 14  1  0
 17 16  1  0
 17 28  1  0
 17 18  1  1
 19 27  1  0
 19 18  1  0
 20 19  2  0
 21 20  1  0
 21 22  1  0
 22 23  1  0
 22 27  2  0
 23 24  2  0
 24 25  1  0
 26 25  2  0
 27 26  1  0
 28 30  2  0
 28 29  1  0
M  END
$$$$
