IVW.pdb
     RDKit          3D

 30 31  0  0  1  0  0  0  0  0999 V2000
    8.1961  -20.5128   25.3407 C   0  0  0  0  0  0  0  0  0  0  0  0
    7.9487  -20.1678   23.9070 C   0  0  0  0  0  0  0  0  0  0  0  0
    6.5280  -19.6476   23.6551 C   0  0  2  0  0  0  0  0  0  0  0  0
    5.5266  -20.7196   24.0030 C   0  0  0  0  0  0  0  0  0  0  0  0
    6.3786  -19.2381   22.2004 C   0  0  2  0  0  0  0  0  0  0  0  0
    6.7246  -20.4190   21.3706 N   0  0  0  0  0  0  0  0  0  0  0  0
    7.3536  -18.1924   21.8040 C   0  0  0  0  0  0  0  0  0  0  0  0
    8.4577  -18.5173   21.2999 O   0  0  0  0  0  0  0  0  0  0  0  0
    6.5570  -14.6267   20.1444 C   0  0  0  0  0  0  0  0  0  0  0  0
    7.4853  -14.5020   21.3493 C   0  0  2  0  0  0  0  0  0  0  0  0
    8.4310  -13.3863   21.0746 C   0  0  0  0  0  0  0  0  0  0  0  0
    8.1576  -15.8495   21.6209 C   0  0  2  0  0  0  0  0  0  0  0  0
    7.1107  -16.8113   21.9604 N   0  0  0  0  0  0  0  0  0  0  0  0
    9.1210  -15.7149   22.7230 C   0  0  0  0  0  0  0  0  0  0  0  0
   10.2026  -15.0834   22.4560 O   0  0  0  0  0  0  0  0  0  0  0  0
    8.9974  -16.1906   24.0351 N   0  0  0  0  0  0  0  0  0  0  0  0
   10.0767  -16.0755   25.0495 C   0  0  1  0  0  0  0  0  0  0  0  0
    9.8192  -14.9165   25.9344 C   0  0  0  0  0  0  0  0  0  0  0  0
    8.3796  -14.6661   26.1024 C   0  0  0  0  0  0  0  0  0  0  0  0
    7.3392  -15.6032   26.0719 C   0  0  0  0  0  0  0  0  0  0  0  0
    6.1622  -14.9866   26.2299 N   0  0  0  0  0  0  0  0  0  0  0  0
    6.3672  -13.6685   26.3669 C   0  0  0  0  0  0  0  0  0  0  0  0
    5.4325  -12.6544   26.5696 C   0  0  0  0  0  0  0  0  0  0  0  0
    5.9082  -11.3735   26.7008 C   0  0  0  0  0  0  0  0  0  0  0  0
    7.2625  -11.1248   26.6313 C   0  0  0  0  0  0  0  0  0  0  0  0
    8.1660  -12.1419   26.4299 C   0  0  0  0  0  0  0  0  0  0  0  0
    7.7207  -13.4481   26.2923 C   0  0  0  0  0  0  0  0  0  0  0  0
   10.4105  -17.3549   25.6582 C   0  0  0  0  0  0  0  0  0  0  0  0
   11.4768  -17.4842   26.5061 O   0  0  0  0  0  0  0  0  0  0  0  0
    9.7251  -18.3778   25.4194 O   0  0  0  0  0  0  0  0  0  0  0  0
  2  1  1  0
  3  5  1  0
  3  2  1  0
  3  4  1  6
  5  6  1  6
  5  7  1  0
  7  8  2  0
 10 12  1  0
 10  9  1  6
 11 10  1  0
 13  7  1  0
 12 13  1  1
 14 12  1  0
 14 15  2  0
 16 14  1  0
 17 16  1  0
 17 28  1  0
 17 18  1  1
 19 27  1  0
 19 18  1  0
 20 19  2  0
 21 20  1  0
 21 22  1  0
 22 23  1  0
 22 27  2  0
 23 24  2  0
 24 25  1  0
 26 25  2  0
 27 26  1  0
 28 30  2  0
 28 29  1  0
M  END
$$$$
