IVW.pdb
     RDKit          3D

 30 31  0  0  1  0  0  0  0  0999 V2000
    6.7058  -22.2585   23.2472 C   0  0  0  0  0  0  0  0  0  0  0  0
    6.3618  -21.3018   22.1508 C   0  0  0  0  0  0  0  0  0  0  0  0
    7.3313  -20.1162   22.0675 C   0  0  2  0  0  0  0  0  0  0  0  0
    7.4201  -19.4385   23.4113 C   0  0  0  0  0  0  0  0  0  0  0  0
    6.8558  -19.1338   21.0116 C   0  0  2  0  0  0  0  0  0  0  0  0
    6.9526  -19.8159   19.6970 N   0  0  0  0  0  0  0  0  0  0  0  0
    7.7456  -17.9522   20.8965 C   0  0  0  0  0  0  0  0  0  0  0  0
    8.8928  -18.0721   20.3981 O   0  0  0  0  0  0  0  0  0  0  0  0
    8.3835  -13.0590   20.8938 C   0  0  0  0  0  0  0  0  0  0  0  0
    7.4640  -14.2765   20.9273 C   0  0  2  0  0  0  0  0  0  0  0  0
    6.4339  -14.0334   21.9733 C   0  0  0  0  0  0  0  0  0  0  0  0
    8.2965  -15.5427   21.1405 C   0  0  2  0  0  0  0  0  0  0  0  0
    7.3724  -16.6602   21.3233 N   0  0  0  0  0  0  0  0  0  0  0  0
    9.1605  -15.3808   22.3189 C   0  0  0  0  0  0  0  0  0  0  0  0
   10.0723  -14.4857   22.2342 O   0  0  0  0  0  0  0  0  0  0  0  0
    9.1043  -16.0855   23.5286 N   0  0  0  0  0  0  0  0  0  0  0  0
   10.0197  -15.8227   24.6688 C   0  0  1  0  0  0  0  0  0  0  0  0
    9.2922  -15.9775   25.9492 C   0  0  0  0  0  0  0  0  0  0  0  0
    7.9898  -15.2942   25.9240 C   0  0  0  0  0  0  0  0  0  0  0  0
    6.7330  -15.8578   25.6707 C   0  0  0  0  0  0  0  0  0  0  0  0
    5.7903  -14.9087   25.7020 N   0  0  0  0  0  0  0  0  0  0  0  0
    6.3618  -13.7250   25.9675 C   0  0  0  0  0  0  0  0  0  0  0  0
    5.7603  -12.4755   26.1084 C   0  0  0  0  0  0  0  0  0  0  0  0
    6.5755  -11.4115   26.4048 C   0  0  0  0  0  0  0  0  0  0  0  0
    7.9336  -11.5970   26.5528 C   0  0  0  0  0  0  0  0  0  0  0  0
    8.5047  -12.8397   26.4083 C   0  0  0  0  0  0  0  0  0  0  0  0
    7.7114  -13.9369   26.1081 C   0  0  0  0  0  0  0  0  0  0  0  0
   11.3073  -16.4841   24.5160 C   0  0  0  0  0  0  0  0  0  0  0  0
   11.5597  -17.3177   23.4605 O   0  0  0  0  0  0  0  0  0  0  0  0
   12.2241  -16.3058   25.3532 O   0  0  0  0  0  0  0  0  0  0  0  0
  2  1  1  0
  3  5  1  0
  3  2  1  0
  3  4  1  1
  5  6  1  6
  5  7  1  0
  7  8  2  0
 10 12  1  0
 10  9  1  1
 11 10  1  0
 13  7  1  0
 12 13  1  1
 14 12  1  0
 14 15  2  0
 16 14  1  0
 17 16  1  0
 17 28  1  0
 17 18  1  1
 19 27  1  0
 19 18  1  0
 20 19  2  0
 21 20  1  0
 21 22  1  0
 22 23  1  0
 22 27  2  0
 23 24  2  0
 24 25  1  0
 26 25  2  0
 27 26  1  0
 28 30  2  0
 28 29  1  0
M  END
$$$$
