IVW.pdb
     RDKit          3D

 30 31  0  0  1  0  0  0  0  0999 V2000
    7.5054  -11.4840   19.6836 C   0  0  0  0  0  0  0  0  0  0  0  0
    7.8441  -12.8778   19.2614 C   0  0  0  0  0  0  0  0  0  0  0  0
    7.8951  -13.8615   20.4372 C   0  0  2  0  0  0  0  0  0  0  0  0
    8.9981  -13.4624   21.3844 C   0  0  0  0  0  0  0  0  0  0  0  0
    8.1269  -15.2708   19.9213 C   0  0  2  0  0  0  0  0  0  0  0  0
    6.9153  -15.6690   19.1622 N   0  0  0  0  0  0  0  0  0  0  0  0
    8.2355  -16.2641   21.0182 C   0  0  0  0  0  0  0  0  0  0  0  0
    7.2239  -16.5640   21.7004 O   0  0  0  0  0  0  0  0  0  0  0  0
    9.8287  -19.7701   21.0128 C   0  0  0  0  0  0  0  0  0  0  0  0
   10.4143  -18.9715   22.1739 C   0  0  2  0  0  0  0  0  0  0  0  0
   10.6488  -19.9183   23.2977 C   0  0  0  0  0  0  0  0  0  0  0  0
    9.4858  -17.8034   22.5134 C   0  0  2  0  0  0  0  0  0  0  0  0
    9.4412  -16.9157   21.3531 N   0  0  0  0  0  0  0  0  0  0  0  0
    9.9894  -17.0917   23.6969 C   0  0  0  0  0  0  0  0  0  0  0  0
   11.0275  -16.3628   23.5206 O   0  0  0  0  0  0  0  0  0  0  0  0
    9.4675  -17.1100   24.9971 N   0  0  0  0  0  0  0  0  0  0  0  0
   10.2620  -16.7511   26.2000 C   0  0  1  0  0  0  0  0  0  0  0  0
    9.8908  -15.3959   26.6671 C   0  0  0  0  0  0  0  0  0  0  0  0
    8.4639  -15.1139   26.4478 C   0  0  0  0  0  0  0  0  0  0  0  0
    7.4289  -16.0380   26.2572 C   0  0  0  0  0  0  0  0  0  0  0  0
    6.2724  -15.3957   26.0558 N   0  0  0  0  0  0  0  0  0  0  0  0
    6.4859  -14.0727   26.1037 C   0  0  0  0  0  0  0  0  0  0  0  0
    5.5679  -13.0331   25.9644 C   0  0  0  0  0  0  0  0  0  0  0  0
    6.0438  -11.7505   26.0773 C   0  0  0  0  0  0  0  0  0  0  0  0
    7.3822  -11.5248   26.3194 C   0  0  0  0  0  0  0  0  0  0  0  0
    8.2696  -12.5670   26.4525 C   0  0  0  0  0  0  0  0  0  0  0  0
    7.8237  -13.8757   26.3435 C   0  0  0  0  0  0  0  0  0  0  0  0
   10.3200  -17.8310   27.1743 C   0  0  0  0  0  0  0  0  0  0  0  0
   11.1952  -17.7963   28.2258 O   0  0  0  0  0  0  0  0  0  0  0  0
    9.5646  -18.8274   27.0742 O   0  0  0  0  0  0  0  0  0  0  0  0
  2  1  1  0
  3  5  1  0
  3  2  1  0
  3  4  1  1
  5  6  1  6
  5  7  1  0
  7  8  2  0
 10 12  1  0
 10  9  1  6
 11 10  1  0
 13  7  1  0
 12 13  1  6
 14 12  1  0
 14 15  2  0
 16 14  1  0
 17 16  1  0
 17 28  1  0
 17 18  1  1
 19 27  1  0
 19 18  1  0
 20 19  2  0
 21 20  1  0
 21 22  1  0
 22 23  1  0
 22 27  2  0
 23 24  2  0
 24 25  1  0
 26 25  2  0
 27 26  1  0
 28 30  2  0
 28 29  1  0
M  END
$$$$
