IVW.pdb
     RDKit          3D

 30 31  0  0  1  0  0  0  0  0999 V2000
    4.7365  -21.7556   22.6027 C   0  0  0  0  0  0  0  0  0  0  0  0
    4.7878  -20.6525   21.5946 C   0  0  0  0  0  0  0  0  0  0  0  0
    5.9520  -19.6823   21.8305 C   0  0  2  0  0  0  0  0  0  0  0  0
    5.8306  -19.0689   23.2024 C   0  0  0  0  0  0  0  0  0  0  0  0
    5.9452  -18.5994   20.7659 C   0  0  2  0  0  0  0  0  0  0  0  0
    6.0853  -19.2716   19.4501 N   0  0  0  0  0  0  0  0  0  0  0  0
    7.1224  -17.7015   20.8647 C   0  0  0  0  0  0  0  0  0  0  0  0
    8.2688  -18.1304   20.5808 O   0  0  0  0  0  0  0  0  0  0  0  0
    6.9526  -13.4338   21.6615 C   0  0  0  0  0  0  0  0  0  0  0  0
    7.9626  -14.1727   20.7880 C   0  0  2  0  0  0  0  0  0  0  0  0
    7.4201  -14.2050   19.4027 C   0  0  0  0  0  0  0  0  0  0  0  0
    8.2489  -15.5509   21.3882 C   0  0  2  0  0  0  0  0  0  0  0  0
    7.0327  -16.3525   21.2681 N   0  0  0  0  0  0  0  0  0  0  0  0
    8.6454  -15.4105   22.7968 C   0  0  0  0  0  0  0  0  0  0  0  0
    7.7559  -14.9455   23.5921 O   0  0  0  0  0  0  0  0  0  0  0  0
    9.8800  -15.7291   23.3777 N   0  0  0  0  0  0  0  0  0  0  0  0
   10.1854  -15.5116   24.8152 C   0  0  1  0  0  0  0  0  0  0  0  0
    9.1615  -16.1721   25.6566 C   0  0  0  0  0  0  0  0  0  0  0  0
    7.9661  -15.3314   25.8238 C   0  0  0  0  0  0  0  0  0  0  0  0
    6.6321  -15.6839   25.5836 C   0  0  0  0  0  0  0  0  0  0  0  0
    5.8320  -14.6375   25.8187 N   0  0  0  0  0  0  0  0  0  0  0  0
    6.5741  -13.5911   26.2094 C   0  0  0  0  0  0  0  0  0  0  0  0
    6.1587  -12.3107   26.5712 C   0  0  0  0  0  0  0  0  0  0  0  0
    7.1269  -11.4177   26.9576 C   0  0  0  0  0  0  0  0  0  0  0  0
    8.4524  -11.7963   26.9790 C   0  0  0  0  0  0  0  0  0  0  0  0
    8.8387  -13.0656   26.6169 C   0  0  0  0  0  0  0  0  0  0  0  0
    7.8872  -13.9934   26.2204 C   0  0  0  0  0  0  0  0  0  0  0  0
   11.5900  -15.7314   25.1278 C   0  0  0  0  0  0  0  0  0  0  0  0
   12.0780  -15.5366   26.3913 O   0  0  0  0  0  0  0  0  0  0  0  0
   12.3939  -16.1071   24.2413 O   0  0  0  0  0  0  0  0  0  0  0  0
  2  1  1  0
  3  5  1  0
  3  2  1  0
  3  4  1  1
  5  6  1  6
  5  7  1  0
  7  8  2  0
 10 12  1  0
 10  9  1  1
 11 10  1  0
 13  7  1  0
 12 13  1  1
 14 12  1  0
 14 15  2  0
 16 14  1  0
 17 16  1  0
 17 28  1  0
 17 18  1  1
 19 27  1  0
 19 18  1  0
 20 19  2  0
 21 20  1  0
 21 22  1  0
 22 23  1  0
 22 27  2  0
 23 24  2  0
 24 25  1  0
 26 25  2  0
 27 26  1  0
 28 30  2  0
 28 29  1  0
M  END
$$$$
