IVW.pdb
     RDKit          3D

 30 31  0  0  1  0  0  0  0  0999 V2000
    8.9079  -21.6023   19.0469 C   0  0  0  0  0  0  0  0  0  0  0  0
    8.7079  -20.3608   18.2379 C   0  0  0  0  0  0  0  0  0  0  0  0
    9.1166  -19.0872   18.9887 C   0  0  2  0  0  0  0  0  0  0  0  0
    8.3532  -18.9963   20.2856 C   0  0  0  0  0  0  0  0  0  0  0  0
    8.8390  -17.8683   18.1265 C   0  0  2  0  0  0  0  0  0  0  0  0
    9.7322  -17.9502   16.9440 N   0  0  0  0  0  0  0  0  0  0  0  0
    9.2124  -16.6009   18.8016 C   0  0  0  0  0  0  0  0  0  0  0  0
   10.4223  -16.2890   18.9339 O   0  0  0  0  0  0  0  0  0  0  0  0
    8.1046  -12.0445   20.2431 C   0  0  0  0  0  0  0  0  0  0  0  0
    7.7187  -13.3493   19.5520 C   0  0  2  0  0  0  0  0  0  0  0  0
    6.3066  -13.6489   19.9133 C   0  0  0  0  0  0  0  0  0  0  0  0
    8.7160  -14.4459   19.9321 C   0  0  2  0  0  0  0  0  0  0  0  0
    8.2642  -15.6935   19.3193 N   0  0  0  0  0  0  0  0  0  0  0  0
    8.7827  -14.5763   21.3949 C   0  0  0  0  0  0  0  0  0  0  0  0
    8.0338  -13.7858   22.0688 O   0  0  0  0  0  0  0  0  0  0  0  0
    9.5646  -15.4660   22.1433 N   0  0  0  0  0  0  0  0  0  0  0  0
    9.3280  -15.7474   23.5828 C   0  0  1  0  0  0  0  0  0  0  0  0
    7.8738  -15.7993   23.8569 C   0  0  0  0  0  0  0  0  0  0  0  0
    7.5533  -15.3019   25.2036 C   0  0  0  0  0  0  0  0  0  0  0  0
    7.3360  -16.0551   26.3642 C   0  0  0  0  0  0  0  0  0  0  0  0
    7.0356  -15.2455   27.3864 N   0  0  0  0  0  0  0  0  0  0  0  0
    7.0423  -13.9737   26.9613 C   0  0  0  0  0  0  0  0  0  0  0  0
    6.8027  -12.8078   27.6866 C   0  0  0  0  0  0  0  0  0  0  0  0
    6.8925  -11.6149   27.0134 C   0  0  0  0  0  0  0  0  0  0  0  0
    7.2091  -11.5965   25.6717 C   0  0  0  0  0  0  0  0  0  0  0  0
    7.4408  -12.7603   24.9765 C   0  0  0  0  0  0  0  0  0  0  0  0
    7.3579  -13.9836   25.6247 C   0  0  0  0  0  0  0  0  0  0  0  0
   10.1700  -16.8219   24.0880 C   0  0  0  0  0  0  0  0  0  0  0  0
   10.3427  -17.9830   23.3847 O   0  0  0  0  0  0  0  0  0  0  0  0
   10.7623  -16.7103   25.1880 O   0  0  0  0  0  0  0  0  0  0  0  0
  2  1  1  0
  3  5  1  0
  3  2  1  0
  3  4  1  1
  5  6  1  6
  5  7  1  0
  7  8  2  0
 10 12  1  0
 10  9  1  1
 11 10  1  0
 13  7  1  0
 12 13  1  6
 14 12  1  0
 14 15  2  0
 16 14  1  0
 17 16  1  0
 17 28  1  0
 17 18  1  6
 19 27  1  0
 19 18  1  0
 20 19  2  0
 21 20  1  0
 21 22  1  0
 22 23  1  0
 22 27  2  0
 23 24  2  0
 24 25  1  0
 26 25  2  0
 27 26  1  0
 28 30  2  0
 28 29  1  0
M  END
$$$$
