IVW.pdb
     RDKit          3D

 30 31  0  0  1  0  0  0  0  0999 V2000
    7.0746  -11.9617   19.0947 C   0  0  0  0  0  0  0  0  0  0  0  0
    7.6928  -13.2566   18.6744 C   0  0  0  0  0  0  0  0  0  0  0  0
    7.8763  -14.2363   19.8402 C   0  0  2  0  0  0  0  0  0  0  0  0
    8.7706  -13.6188   20.8852 C   0  0  0  0  0  0  0  0  0  0  0  0
    8.4768  -15.5356   19.3329 C   0  0  2  0  0  0  0  0  0  0  0  0
    7.5143  -16.1199   18.3658 N   0  0  0  0  0  0  0  0  0  0  0  0
    8.6095  -16.5537   20.4039 C   0  0  0  0  0  0  0  0  0  0  0  0
    7.5851  -17.0910   20.8945 O   0  0  0  0  0  0  0  0  0  0  0  0
   12.3135  -18.2264   21.5238 C   0  0  0  0  0  0  0  0  0  0  0  0
   10.9843  -18.9381   21.7596 C   0  0  2  0  0  0  0  0  0  0  0  0
   10.7202  -19.8009   20.5763 C   0  0  0  0  0  0  0  0  0  0  0  0
    9.8926  -17.9048   22.0461 C   0  0  2  0  0  0  0  0  0  0  0  0
    9.8535  -16.9718   20.9218 N   0  0  0  0  0  0  0  0  0  0  0  0
   10.1889  -17.1989   23.3011 C   0  0  0  0  0  0  0  0  0  0  0  0
   10.9330  -16.1612   23.2053 O   0  0  0  0  0  0  0  0  0  0  0  0
    9.7509  -17.5216   24.5923 N   0  0  0  0  0  0  0  0  0  0  0  0
   10.0916  -16.7172   25.7940 C   0  0  1  0  0  0  0  0  0  0  0  0
    9.9116  -15.2757   25.5068 C   0  0  0  0  0  0  0  0  0  0  0  0
    8.5044  -14.8654   25.6296 C   0  0  0  0  0  0  0  0  0  0  0  0
    7.3648  -15.6082   25.2963 C   0  0  0  0  0  0  0  0  0  0  0  0
    6.2632  -14.8818   25.5181 N   0  0  0  0  0  0  0  0  0  0  0  0
    6.6145  -13.6764   25.9892 C   0  0  0  0  0  0  0  0  0  0  0  0
    5.7966  -12.6135   26.3689 C   0  0  0  0  0  0  0  0  0  0  0  0
    6.4111  -11.4818   26.8442 C   0  0  0  0  0  0  0  0  0  0  0  0
    7.7856  -11.4229   26.9335 C   0  0  0  0  0  0  0  0  0  0  0  0
    8.5723  -12.4846   26.5521 C   0  0  0  0  0  0  0  0  0  0  0  0
    7.9853  -13.6434   26.0665 C   0  0  0  0  0  0  0  0  0  0  0  0
    9.5125  -17.2612   27.0136 C   0  0  0  0  0  0  0  0  0  0  0  0
    8.6330  -18.3091   26.9793 O   0  0  0  0  0  0  0  0  0  0  0  0
    9.8065  -16.7802   28.1341 O   0  0  0  0  0  0  0  0  0  0  0  0
  2  1  1  0
  3  5  1  0
  3  2  1  0
  3  4  1  1
  5  6  1  6
  5  7  1  0
  7  8  2  0
 10 12  1  0
 10  9  1  6
 11 10  1  0
 13  7  1  0
 12 13  1  6
 14 12  1  0
 14 15  2  0
 16 14  1  0
 17 16  1  0
 17 28  1  0
 17 18  1  6
 19 27  1  0
 19 18  1  0
 20 19  2  0
 21 20  1  0
 21 22  1  0
 22 23  1  0
 22 27  2  0
 23 24  2  0
 24 25  1  0
 26 25  2  0
 27 26  1  0
 28 30  2  0
 28 29  1  0
M  END
$$$$
