IVW.pdb
     RDKit          3D

 30 31  0  0  1  0  0  0  0  0999 V2000
    7.2864  -12.6884   17.4455 C   0  0  0  0  0  0  0  0  0  0  0  0
    8.5029  -13.0978   18.2124 C   0  0  0  0  0  0  0  0  0  0  0  0
    8.1909  -14.0863   19.3429 C   0  0  2  0  0  0  0  0  0  0  0  0
    7.2374  -13.4510   20.3229 C   0  0  0  0  0  0  0  0  0  0  0  0
    9.4757  -14.4912   20.0438 C   0  0  2  0  0  0  0  0  0  0  0  0
   10.3583  -15.1130   19.0253 N   0  0  0  0  0  0  0  0  0  0  0  0
    9.2567  -15.5507   21.0592 C   0  0  0  0  0  0  0  0  0  0  0  0
    8.4004  -15.3899   21.9645 O   0  0  0  0  0  0  0  0  0  0  0  0
   12.0487  -18.6147   21.7541 C   0  0  0  0  0  0  0  0  0  0  0  0
   10.5695  -18.9794   21.8435 C   0  0  2  0  0  0  0  0  0  0  0  0
   10.1969  -19.6607   20.5740 C   0  0  0  0  0  0  0  0  0  0  0  0
    9.7495  -17.7252   22.1534 C   0  0  2  0  0  0  0  0  0  0  0  0
    9.9706  -16.7675   21.0716 N   0  0  0  0  0  0  0  0  0  0  0  0
   10.1674  -17.1607   23.4447 C   0  0  0  0  0  0  0  0  0  0  0  0
   11.0954  -16.2793   23.4040 O   0  0  0  0  0  0  0  0  0  0  0  0
    9.6690  -17.4670   24.7179 N   0  0  0  0  0  0  0  0  0  0  0  0
   10.0768  -16.7429   25.9494 C   0  0  1  0  0  0  0  0  0  0  0  0
    9.9219  -15.2833   25.7541 C   0  0  0  0  0  0  0  0  0  0  0  0
    8.5152  -14.8649   25.8524 C   0  0  0  0  0  0  0  0  0  0  0  0
    7.3763  -15.6091   25.5198 C   0  0  0  0  0  0  0  0  0  0  0  0
    6.2754  -14.8740   25.7146 N   0  0  0  0  0  0  0  0  0  0  0  0
    6.6264  -13.6614   26.1670 C   0  0  0  0  0  0  0  0  0  0  0  0
    5.8089  -12.5880   26.5167 C   0  0  0  0  0  0  0  0  0  0  0  0
    6.4227  -11.4500   26.9778 C   0  0  0  0  0  0  0  0  0  0  0  0
    7.7963  -11.3952   27.0822 C   0  0  0  0  0  0  0  0  0  0  0  0
    8.5827  -12.4672   26.7304 C   0  0  0  0  0  0  0  0  0  0  0  0
    7.9964  -13.6326   26.2598 C   0  0  0  0  0  0  0  0  0  0  0  0
    9.5327  -17.3447   27.1579 C   0  0  0  0  0  0  0  0  0  0  0  0
    9.9452  -16.9467   28.4005 O   0  0  0  0  0  0  0  0  0  0  0  0
    8.6663  -18.2493   27.0907 O   0  0  0  0  0  0  0  0  0  0  0  0
  2  1  1  0
  3  5  1  0
  3  2  1  0
  3  4  1  1
  5  6  1  6
  5  7  1  0
  7  8  2  0
 10 12  1  0
 10  9  1  6
 11 10  1  0
 13  7  1  0
 12 13  1  6
 14 12  1  0
 14 15  2  0
 16 14  1  0
 17 16  1  0
 17 28  1  0
 17 18  1  6
 19 27  1  0
 19 18  1  0
 20 19  2  0
 21 20  1  0
 21 22  1  0
 22 23  1  0
 22 27  2  0
 23 24  2  0
 24 25  1  0
 26 25  2  0
 27 26  1  0
 28 30  2  0
 28 29  1  0
M  END
$$$$
