IVW.pdb
     RDKit          3D

 30 31  0  0  1  0  0  0  0  0999 V2000
    6.0650  -21.8399   22.8231 C   0  0  0  0  0  0  0  0  0  0  0  0
    5.8154  -20.8296   21.7495 C   0  0  0  0  0  0  0  0  0  0  0  0
    6.7012  -19.5847   21.8841 C   0  0  2  0  0  0  0  0  0  0  0  0
    6.4770  -18.9464   23.2314 C   0  0  0  0  0  0  0  0  0  0  0  0
    6.3798  -18.6000   20.7736 C   0  0  2  0  0  0  0  0  0  0  0  0
    6.6566  -19.2812   19.4844 N   0  0  0  0  0  0  0  0  0  0  0  0
    7.2801  -17.4208   20.7850 C   0  0  0  0  0  0  0  0  0  0  0  0
    8.4925  -17.5494   20.4813 O   0  0  0  0  0  0  0  0  0  0  0  0
    6.6555  -13.7563   19.5034 C   0  0  0  0  0  0  0  0  0  0  0  0
    7.1382  -13.7275   20.9509 C   0  0  2  0  0  0  0  0  0  0  0  0
    7.9997  -12.5251   21.1137 C   0  0  0  0  0  0  0  0  0  0  0  0
    7.8281  -15.0511   21.2883 C   0  0  2  0  0  0  0  0  0  0  0  0
    6.8466  -16.1217   21.1242 N   0  0  0  0  0  0  0  0  0  0  0  0
    8.3351  -15.0137   22.6676 C   0  0  0  0  0  0  0  0  0  0  0  0
    8.1416  -13.9247   23.3130 O   0  0  0  0  0  0  0  0  0  0  0  0
    9.0018  -16.0293   23.3657 N   0  0  0  0  0  0  0  0  0  0  0  0
    9.9103  -15.7700   24.5122 C   0  0  1  0  0  0  0  0  0  0  0  0
    9.2065  -16.0376   25.7873 C   0  0  0  0  0  0  0  0  0  0  0  0
    8.0236  -15.1786   25.9495 C   0  0  0  0  0  0  0  0  0  0  0  0
    6.6768  -15.5505   25.8528 C   0  0  0  0  0  0  0  0  0  0  0  0
    5.8922  -14.4809   26.0290 N   0  0  0  0  0  0  0  0  0  0  0  0
    6.6571  -13.4003   26.2420 C   0  0  0  0  0  0  0  0  0  0  0  0
    6.2646  -12.0857   26.4882 C   0  0  0  0  0  0  0  0  0  0  0  0
    7.2554  -11.1589   26.6969 C   0  0  0  0  0  0  0  0  0  0  0  0
    8.5804  -11.5380   26.6597 C   0  0  0  0  0  0  0  0  0  0  0  0
    8.9437  -12.8415   26.4141 C   0  0  0  0  0  0  0  0  0  0  0  0
    7.9690  -13.8042   26.1980 C   0  0  0  0  0  0  0  0  0  0  0  0
   11.2351  -16.3402   24.3159 C   0  0  0  0  0  0  0  0  0  0  0  0
   12.2484  -16.1125   25.2070 O   0  0  0  0  0  0  0  0  0  0  0  0
   11.4833  -17.0592   23.3186 O   0  0  0  0  0  0  0  0  0  0  0  0
  2  1  1  0
  3  5  1  0
  3  2  1  0
  3  4  1  1
  5  6  1  6
  5  7  1  0
  7  8  2  0
 10 12  1  0
 10  9  1  6
 11 10  1  0
 13  7  1  0
 12 13  1  1
 14 12  1  0
 14 15  2  0
 16 14  1  0
 17 16  1  0
 17 28  1  0
 17 18  1  1
 19 27  1  0
 19 18  1  0
 20 19  2  0
 21 20  1  0
 21 22  1  0
 22 23  1  0
 22 27  2  0
 23 24  2  0
 24 25  1  0
 26 25  2  0
 27 26  1  0
 28 30  2  0
 28 29  1  0
M  END
$$$$
