FRA.pdb
     RDKit          3D

 28 28  0  0  1  0  0  0  0  0999 V2000
   15.8047  -14.5410    6.0266 N   0  0  0  0  0  0  0  0  0  0  0  0
   16.3584  -15.4334    5.0287 C   0  0  1  0  0  0  0  0  0  0  0  0
   17.8694  -15.4309    5.0851 C   0  0  0  0  0  0  0  0  0  0  0  0
   18.3481  -14.1486    4.5059 C   0  0  0  0  0  0  0  0  0  0  0  0
   18.4880  -14.0157    3.1209 C   0  0  0  0  0  0  0  0  0  0  0  0
   18.9331  -12.8211    2.5936 C   0  0  0  0  0  0  0  0  0  0  0  0
   19.2528  -11.7314    3.3776 C   0  0  0  0  0  0  0  0  0  0  0  0
   19.1166  -11.8574    4.7425 C   0  0  0  0  0  0  0  0  0  0  0  0
   18.6701  -13.0535    5.2840 C   0  0  0  0  0  0  0  0  0  0  0  0
   15.8098  -16.8163    5.1753 C   0  0  0  0  0  0  0  0  0  0  0  0
   15.6973  -17.3627    6.3041 O   0  0  0  0  0  0  0  0  0  0  0  0
   15.9726  -23.7049    1.3967 N   0  0  0  0  0  0  0  0  0  0  0  0
   14.6007  -23.9903    1.6278 C   0  0  0  0  0  0  0  0  0  0  0  0
   14.2380  -25.2258    1.8023 N   0  0  0  0  0  0  0  0  0  0  0  0
   13.6120  -22.9698    1.6747 N   0  0  0  0  0  0  0  0  0  0  0  0
   14.0037  -21.5879    1.5212 C   0  0  0  0  0  0  0  0  0  0  0  0
   14.4650  -21.0718    2.8766 C   0  0  0  0  0  0  0  0  0  0  0  0
   14.7172  -19.5884    2.8369 C   0  0  0  0  0  0  0  0  0  0  0  0
   15.0881  -19.0268    4.1786 C   0  0  2  0  0  0  0  0  0  0  0  0
   15.3889  -17.5825    4.0567 N   0  0  0  0  0  0  0  0  0  0  0  0
   16.2901  -19.6646    4.7454 C   0  0  0  0  0  0  0  0  0  0  0  0
   17.4507  -19.4160    4.3404 O   0  0  0  0  0  0  0  0  0  0  0  0
   13.2494  -25.5070    1.8813 C   0  0  0  0  0  0  0  0  0  0  0  0
   17.2413  -21.5745    7.8342 C   0  0  1  0  0  0  0  0  0  0  0  0
   17.4309  -21.2158    6.3809 N   0  0  0  0  0  0  0  0  0  0  0  0
   16.2299  -20.6310    5.8163 C   0  0  0  0  0  0  0  0  0  0  0  0
   17.7420  -22.4713    5.6373 O   0  0  0  0  0  0  0  0  0  0  0  0
   16.9125  -22.9904    4.8265 O   0  0  0  0  0  0  0  0  0  0  0  0
  2  1  1  1
  2 10  1  0
  2  3  1  0
  3  4  1  0
  4  9  2  0
  5  4  1  0
  5  6  2  0
  6  7  1  0
  7  8  2  0
  9  8  1  0
 10 11  2  0
 13 15  1  0
 13 12  1  0
 14 13  2  0
 16 17  1  0
 16 15  1  0
 17 18  1  0
 19 18  1  6
 20 10  1  0
 20 19  1  0
 21 22  2  0
 21 19  1  0
 24 23  1  1
 24 25  1  0
 25 21  1  0
 26 24  1  0
 26 28  1  0
 27 26  2  0
M  END
$$$$
