FRA.pdb
     RDKit          3D

 28 28  0  0  1  0  0  0  0  0999 V2000
   26.5688  -24.5752  -23.3590 N   0  0  0  0  0  0  0  0  0  0  0  0
   25.8276  -23.6230  -22.5573 C   0  0  1  0  0  0  0  0  0  0  0  0
   24.5821  -23.1651  -23.2819 C   0  0  0  0  0  0  0  0  0  0  0  0
   25.0048  -22.3570  -24.4555 C   0  0  0  0  0  0  0  0  0  0  0  0
   25.1333  -22.9604  -25.7104 C   0  0  0  0  0  0  0  0  0  0  0  0
   25.5262  -22.2013  -26.7933 C   0  0  0  0  0  0  0  0  0  0  0  0
   25.8037  -20.8529  -26.6991 C   0  0  0  0  0  0  0  0  0  0  0  0
   25.6786  -20.2539  -25.4649 C   0  0  0  0  0  0  0  0  0  0  0  0
   25.2843  -21.0070  -24.3692 C   0  0  0  0  0  0  0  0  0  0  0  0
   25.4995  -24.1873  -21.2124 C   0  0  0  0  0  0  0  0  0  0  0  0
   25.1589  -25.3911  -21.0699 O   0  0  0  0  0  0  0  0  0  0  0  0
   29.1563  -27.2079  -16.3366 N   0  0  0  0  0  0  0  0  0  0  0  0
   29.8947  -26.0165  -16.5656 C   0  0  0  0  0  0  0  0  0  0  0  0
   31.1861  -26.0422  -16.4239 N   0  0  0  0  0  0  0  0  0  0  0  0
   29.2683  -24.7980  -16.9448 N   0  0  0  0  0  0  0  0  0  0  0  0
   27.8270  -24.7253  -17.0090 C   0  0  0  0  0  0  0  0  0  0  0  0
   27.4466  -23.3937  -17.6403 C   0  0  0  0  0  0  0  0  0  0  0  0
   25.9547  -23.1940  -17.6316 C   0  0  0  0  0  0  0  0  0  0  0  0
   25.2576  -23.9818  -18.7025 C   0  0  2  0  0  0  0  0  0  0  0  0
   25.5541  -23.4012  -20.0315 N   0  0  0  0  0  0  0  0  0  0  0  0
   23.7914  -23.9677  -18.5504 C   0  0  0  0  0  0  0  0  0  0  0  0
   23.1056  -22.9215  -18.6378 O   0  0  0  0  0  0  0  0  0  0  0  0
   31.7790  -25.2169  -16.5974 C   0  0  0  0  0  0  0  0  0  0  0  0
   20.8918  -24.6139  -19.3581 C   0  0  2  0  0  0  0  0  0  0  0  0
   21.5832  -25.1148  -18.1140 N   0  0  0  0  0  0  0  0  0  0  0  0
   23.0223  -25.1609  -18.2873 C   0  0  0  0  0  0  0  0  0  0  0  0
   21.0931  -26.4980  -17.8446 O   0  0  0  0  0  0  0  0  0  0  0  0
   21.8632  -27.5061  -17.9208 O   0  0  0  0  0  0  0  0  0  0  0  0
  2  1  1  6
  2 10  1  0
  2  3  1  0
  3  4  1  0
  4  9  2  0
  5  4  1  0
  5  6  2  0
  6  7  1  0
  7  8  2  0
  9  8  1  0
 10 11  2  0
 13 15  1  0
 13 12  1  0
 14 13  2  0
 16 17  1  0
 16 15  1  0
 17 18  1  0
 19 18  1  1
 20 10  1  0
 20 19  1  0
 21 22  2  0
 21 19  1  0
 24 23  1  1
 24 25  1  0
 25 21  1  0
 26 24  1  0
 26 28  1  0
 27 26  2  0
M  END
$$$$
