FRA.pdb
     RDKit          3D

 28 28  0  0  1  0  0  0  0  0999 V2000
   25.7860  -19.1934  -10.9281 N   0  0  0  0  0  0  0  0  0  0  0  0
   26.7562  -20.2460  -11.1507 C   0  0  1  0  0  0  0  0  0  0  0  0
   26.5598  -21.3749  -10.1642 C   0  0  0  0  0  0  0  0  0  0  0  0
   26.8409  -20.8488   -8.8029 C   0  0  0  0  0  0  0  0  0  0  0  0
   25.7856  -20.5755   -7.9270 C   0  0  0  0  0  0  0  0  0  0  0  0
   26.0574  -20.0875   -6.6656 C   0  0  0  0  0  0  0  0  0  0  0  0
   27.3406  -19.8513   -6.2165 C   0  0  0  0  0  0  0  0  0  0  0  0
   28.3836  -20.1189   -7.0756 C   0  0  0  0  0  0  0  0  0  0  0  0
   28.1224  -20.6097   -8.3461 C   0  0  0  0  0  0  0  0  0  0  0  0
   26.7054  -20.7395  -12.5609 C   0  0  0  0  0  0  0  0  0  0  0  0
   25.6611  -20.6354  -13.2567 O   0  0  0  0  0  0  0  0  0  0  0  0
   31.4211  -25.0139  -15.3473 N   0  0  0  0  0  0  0  0  0  0  0  0
   30.9093  -25.0830  -16.6703 C   0  0  0  0  0  0  0  0  0  0  0  0
   30.6219  -26.2468  -17.1715 N   0  0  0  0  0  0  0  0  0  0  0  0
   30.7012  -23.9218  -17.4637 N   0  0  0  0  0  0  0  0  0  0  0  0
   30.8594  -22.6139  -16.8713 C   0  0  0  0  0  0  0  0  0  0  0  0
   29.4770  -22.0783  -16.5271 C   0  0  0  0  0  0  0  0  0  0  0  0
   29.3081  -21.9243  -15.0393 C   0  0  0  0  0  0  0  0  0  0  0  0
   27.9576  -21.3894  -14.6610 C   0  0  2  0  0  0  0  0  0  0  0  0
   27.8248  -21.3479  -13.1872 N   0  0  0  0  0  0  0  0  0  0  0  0
   26.8559  -22.2303  -15.1632 C   0  0  0  0  0  0  0  0  0  0  0  0
   26.6578  -23.4040  -14.7685 O   0  0  0  0  0  0  0  0  0  0  0  0
   30.2151  -26.3599  -18.1119 C   0  0  0  0  0  0  0  0  0  0  0  0
   23.5444  -21.7933  -16.7704 C   0  0  1  0  0  0  0  0  0  0  0  0
   24.8070  -22.6003  -16.5942 N   0  0  0  0  0  0  0  0  0  0  0  0
   25.9118  -21.7703  -16.1539 C   0  0  0  0  0  0  0  0  0  0  0  0
   25.1577  -23.1945  -17.9170 O   0  0  0  0  0  0  0  0  0  0  0  0
   26.0111  -22.6529  -18.6874 O   0  0  0  0  0  0  0  0  0  0  0  0
  2  1  1  6
  2 10  1  0
  2  3  1  0
  3  4  1  0
  4  9  2  0
  5  4  1  0
  5  6  2  0
  6  7  1  0
  7  8  2  0
  9  8  1  0
 10 11  2  0
 13 15  1  0
 13 12  1  0
 14 13  2  0
 16 17  1  0
 16 15  1  0
 17 18  1  0
 19 18  1  1
 20 10  1  0
 20 19  1  0
 21 22  2  0
 21 19  1  0
 24 23  1  1
 24 25  1  0
 25 21  1  0
 26 24  1  0
 26 28  1  0
 27 26  2  0
M  END
$$$$
