FRA.pdb
     RDKit          3D

 28 28  0  0  1  0  0  0  0  0999 V2000
   28.6844  -20.8268   -8.7025 N   0  0  0  0  0  0  0  0  0  0  0  0
   27.2868  -20.4521   -8.6311 C   0  0  1  0  0  0  0  0  0  0  0  0
   27.1199  -19.1357   -7.9064 C   0  0  0  0  0  0  0  0  0  0  0  0
   27.7015  -19.2835   -6.5466 C   0  0  0  0  0  0  0  0  0  0  0  0
   29.0192  -18.8843   -6.3023 C   0  0  0  0  0  0  0  0  0  0  0  0
   29.5494  -19.0257   -5.0365 C   0  0  0  0  0  0  0  0  0  0  0  0
   28.8325  -19.5504   -3.9807 C   0  0  0  0  0  0  0  0  0  0  0  0
   27.5339  -19.9452   -4.2163 C   0  0  0  0  0  0  0  0  0  0  0  0
   26.9903  -19.8078   -5.4847 C   0  0  0  0  0  0  0  0  0  0  0  0
   26.6682  -20.4077   -9.9913 C   0  0  0  0  0  0  0  0  0  0  0  0
   27.1817  -19.7378  -10.9255 O   0  0  0  0  0  0  0  0  0  0  0  0
   22.7566  -25.6510  -14.8128 N   0  0  0  0  0  0  0  0  0  0  0  0
   23.1814  -24.7330  -15.8097 C   0  0  0  0  0  0  0  0  0  0  0  0
   22.4808  -24.6207  -16.8982 N   0  0  0  0  0  0  0  0  0  0  0  0
   24.3469  -23.9335  -15.6562 N   0  0  0  0  0  0  0  0  0  0  0  0
   25.0048  -23.8686  -14.3717 C   0  0  0  0  0  0  0  0  0  0  0  0
   24.6174  -22.5561  -13.7058 C   0  0  0  0  0  0  0  0  0  0  0  0
   25.2512  -22.4278  -12.3465 C   0  0  0  0  0  0  0  0  0  0  0  0
   24.9201  -21.1282  -11.6723 C   0  0  2  0  0  0  0  0  0  0  0  0
   25.4762  -21.1142  -10.3004 N   0  0  0  0  0  0  0  0  0  0  0  0
   23.4676  -20.9122  -11.5440 C   0  0  0  0  0  0  0  0  0  0  0  0
   22.7761  -21.4376  -10.6393 O   0  0  0  0  0  0  0  0  0  0  0  0
   22.7180  -23.9486  -17.6429 C   0  0  0  0  0  0  0  0  0  0  0  0
   20.7652  -18.8704  -13.2969 C   0  0  1  0  0  0  0  0  0  0  0  0
   21.2948  -19.8599  -12.2884 N   0  0  0  0  0  0  0  0  0  0  0  0
   22.7195  -20.0756  -12.4523 C   0  0  0  0  0  0  0  0  0  0  0  0
   20.5902  -21.1567  -12.5074 O   0  0  0  0  0  0  0  0  0  0  0  0
   21.0427  -22.0361  -13.3056 O   0  0  0  0  0  0  0  0  0  0  0  0
  2  1  1  6
  2 10  1  0
  2  3  1  0
  3  4  1  0
  4  9  2  0
  5  4  1  0
  5  6  2  0
  6  7  1  0
  7  8  2  0
  9  8  1  0
 10 11  2  0
 13 15  1  0
 13 12  1  0
 14 13  2  0
 16 17  1  0
 16 15  1  0
 17 18  1  0
 19 18  1  1
 20 10  1  0
 20 19  1  0
 21 22  2  0
 21 19  1  0
 24 23  1  1
 24 25  1  0
 25 21  1  0
 26 24  1  0
 26 28  1  0
 27 26  2  0
M  END
$$$$
