FRA.pdb
     RDKit          3D

 28 28  0  0  1  0  0  0  0  0999 V2000
   28.6396  -21.2229   -9.4027 N   0  0  0  0  0  0  0  0  0  0  0  0
   27.2752  -20.7357   -9.4016 C   0  0  1  0  0  0  0  0  0  0  0  0
   27.1611  -19.4598   -8.5984 C   0  0  0  0  0  0  0  0  0  0  0  0
   27.5552  -19.7624   -7.1976 C   0  0  0  0  0  0  0  0  0  0  0  0
   26.6648  -20.4272   -6.3487 C   0  0  0  0  0  0  0  0  0  0  0  0
   27.0405  -20.7034   -5.0503 C   0  0  0  0  0  0  0  0  0  0  0  0
   28.2722  -20.3506   -4.5379 C   0  0  0  0  0  0  0  0  0  0  0  0
   29.1529  -19.6956   -5.3703 C   0  0  0  0  0  0  0  0  0  0  0  0
   28.7861  -19.4126   -6.6775 C   0  0  0  0  0  0  0  0  0  0  0  0
   26.7657  -20.5503  -10.7947 C   0  0  0  0  0  0  0  0  0  0  0  0
   27.4672  -19.9994  -11.6834 O   0  0  0  0  0  0  0  0  0  0  0  0
   23.8128  -26.7895  -13.6333 N   0  0  0  0  0  0  0  0  0  0  0  0
   23.0188  -25.7625  -14.2093 C   0  0  0  0  0  0  0  0  0  0  0  0
   21.7631  -25.9988  -14.4456 N   0  0  0  0  0  0  0  0  0  0  0  0
   23.5519  -24.4856  -14.5355 N   0  0  0  0  0  0  0  0  0  0  0  0
   24.8439  -24.0975  -14.0189 C   0  0  0  0  0  0  0  0  0  0  0  0
   24.6305  -23.0125  -12.9731 C   0  0  0  0  0  0  0  0  0  0  0  0
   25.0508  -21.6644  -13.4943 C   0  0  0  0  0  0  0  0  0  0  0  0
   24.8791  -20.5711  -12.4802 C   0  0  2  0  0  0  0  0  0  0  0  0
   25.4718  -20.9826  -11.1876 N   0  0  0  0  0  0  0  0  0  0  0  0
   23.4620  -20.2610  -12.2181 C   0  0  0  0  0  0  0  0  0  0  0  0
   22.8377  -20.7056  -11.2256 O   0  0  0  0  0  0  0  0  0  0  0  0
   21.1276  -25.2837  -14.8296 C   0  0  0  0  0  0  0  0  0  0  0  0
   20.7161  -18.1184  -13.7664 C   0  0  1  0  0  0  0  0  0  0  0  0
   21.2718  -19.1566  -12.8230 N   0  0  0  0  0  0  0  0  0  0  0  0
   22.6741  -19.4175  -13.0854 C   0  0  0  0  0  0  0  0  0  0  0  0
   20.5067  -20.4203  -13.0324 O   0  0  0  0  0  0  0  0  0  0  0  0
   20.9123  -21.3221  -13.8306 O   0  0  0  0  0  0  0  0  0  0  0  0
  2  1  1  6
  2 10  1  0
  2  3  1  0
  3  4  1  0
  4  9  2  0
  5  4  1  0
  5  6  2  0
  6  7  1  0
  7  8  2  0
  9  8  1  0
 10 11  2  0
 13 15  1  0
 13 12  1  0
 14 13  2  0
 16 17  1  0
 16 15  1  0
 17 18  1  0
 19 18  1  6
 20 10  1  0
 20 19  1  0
 21 22  2  0
 21 19  1  0
 24 23  1  1
 24 25  1  0
 25 21  1  0
 26 24  1  0
 26 28  1  0
 27 26  2  0
M  END
$$$$
