FRA.pdb
     RDKit          3D

 28 28  0  0  1  0  0  0  0  0999 V2000
   27.4014  -18.2402   -8.3291 N   0  0  0  0  0  0  0  0  0  0  0  0
   27.2447  -19.6641   -8.5449 C   0  0  1  0  0  0  0  0  0  0  0  0
   26.8313  -20.3588   -7.2672 C   0  0  0  0  0  0  0  0  0  0  0  0
   27.8970  -20.1323   -6.2562 C   0  0  0  0  0  0  0  0  0  0  0  0
   29.1615  -20.7023   -6.4333 C   0  0  0  0  0  0  0  0  0  0  0  0
   30.1437  -20.4858   -5.4889 C   0  0  0  0  0  0  0  0  0  0  0  0
   29.9376  -19.7217   -4.3585 C   0  0  0  0  0  0  0  0  0  0  0  0
   28.6935  -19.1581   -4.1795 C   0  0  0  0  0  0  0  0  0  0  0  0
   27.6984  -19.3689   -5.1222 C   0  0  0  0  0  0  0  0  0  0  0  0
   26.2796  -19.9407   -9.6526 C   0  0  0  0  0  0  0  0  0  0  0  0
   25.1490  -19.3878   -9.6928 O   0  0  0  0  0  0  0  0  0  0  0  0
   24.5874  -25.2675  -14.8581 N   0  0  0  0  0  0  0  0  0  0  0  0
   24.0611  -24.3241  -15.7800 C   0  0  0  0  0  0  0  0  0  0  0  0
   22.9466  -24.5974  -16.3894 N   0  0  0  0  0  0  0  0  0  0  0  0
   24.7127  -23.0915  -16.0577 N   0  0  0  0  0  0  0  0  0  0  0  0
   25.8028  -22.6542  -15.2167 C   0  0  0  0  0  0  0  0  0  0  0  0
   25.2803  -22.5206  -13.7936 C   0  0  0  0  0  0  0  0  0  0  0  0
   26.3158  -21.9079  -12.8891 C   0  0  0  0  0  0  0  0  0  0  0  0
   25.7290  -20.9265  -11.9166 C   0  0  2  0  0  0  0  0  0  0  0  0
   26.5842  -20.8357  -10.7117 N   0  0  0  0  0  0  0  0  0  0  0  0
   24.3861  -21.3222  -11.4554 C   0  0  0  0  0  0  0  0  0  0  0  0
   24.1797  -21.8795  -10.3510 O   0  0  0  0  0  0  0  0  0  0  0  0
   22.5559  -23.9928  -17.1273 C   0  0  0  0  0  0  0  0  0  0  0  0
   21.5421  -20.5291  -10.5283 C   0  0  1  0  0  0  0  0  0  0  0  0
   21.8744  -21.3968  -11.7172 N   0  0  0  0  0  0  0  0  0  0  0  0
   23.1944  -21.1004  -12.2397 C   0  0  0  0  0  0  0  0  0  0  0  0
   20.8683  -21.1167  -12.7827 O   0  0  0  0  0  0  0  0  0  0  0  0
   21.1906  -20.5484  -13.8727 O   0  0  0  0  0  0  0  0  0  0  0  0
  2  1  1  1
  2 10  1  0
  2  3  1  0
  3  4  1  0
  4  9  2  0
  5  4  1  0
  5  6  2  0
  6  7  1  0
  7  8  2  0
  9  8  1  0
 10 11  2  0
 13 15  1  0
 13 12  1  0
 14 13  2  0
 16 17  1  0
 16 15  1  0
 17 18  1  0
 19 18  1  6
 20 10  1  0
 20 19  1  0
 21 22  2  0
 21 19  1  0
 24 23  1  1
 24 25  1  0
 25 21  1  0
 26 24  1  0
 26 28  1  0
 27 26  2  0
M  END
$$$$
