FRA.pdb
     RDKit          3D

 28 28  0  0  1  0  0  0  0  0999 V2000
   24.5710  -12.0550  -17.6355 N   0  0  0  0  0  0  0  0  0  0  0  0
   23.5247  -11.7129  -16.6936 C   0  0  1  0  0  0  0  0  0  0  0  0
   23.9642  -11.9989  -15.2755 C   0  0  0  0  0  0  0  0  0  0  0  0
   24.1234  -13.4696  -15.1321 C   0  0  0  0  0  0  0  0  0  0  0  0
   25.3986  -14.0237  -14.9823 C   0  0  0  0  0  0  0  0  0  0  0  0
   25.5353  -15.3901  -14.8500 C   0  0  0  0  0  0  0  0  0  0  0  0
   24.4585  -16.2529  -14.8580 C   0  0  0  0  0  0  0  0  0  0  0  0
   23.2002  -15.7119  -15.0053 C   0  0  0  0  0  0  0  0  0  0  0  0
   23.0505  -14.3397  -15.1392 C   0  0  0  0  0  0  0  0  0  0  0  0
   23.0954  -10.2900  -16.8548 C   0  0  0  0  0  0  0  0  0  0  0  0
   23.9342   -9.3639  -17.0107 O   0  0  0  0  0  0  0  0  0  0  0  0
   20.0467   -8.0118  -21.8018 N   0  0  0  0  0  0  0  0  0  0  0  0
   19.2751   -9.1988  -21.9138 C   0  0  0  0  0  0  0  0  0  0  0  0
   19.3069   -9.8644  -23.0293 N   0  0  0  0  0  0  0  0  0  0  0  0
   18.4698   -9.6825  -20.8468 N   0  0  0  0  0  0  0  0  0  0  0  0
   18.4732   -8.9907  -19.5787 C   0  0  0  0  0  0  0  0  0  0  0  0
   19.8861   -9.0392  -19.0152 C   0  0  0  0  0  0  0  0  0  0  0  0
   19.9415   -8.4451  -17.6333 C   0  0  0  0  0  0  0  0  0  0  0  0
   21.3161   -8.5004  -17.0326 C   0  0  2  0  0  0  0  0  0  0  0  0
   21.7278   -9.9093  -16.8410 N   0  0  0  0  0  0  0  0  0  0  0  0
   21.3805   -7.8552  -15.7088 C   0  0  0  0  0  0  0  0  0  0  0  0
   21.0342   -8.4317  -14.6503 O   0  0  0  0  0  0  0  0  0  0  0  0
   18.7272  -10.7012  -23.1918 C   0  0  0  0  0  0  0  0  0  0  0  0
   22.5608   -4.5342  -14.2549 C   0  0  1  0  0  0  0  0  0  0  0  0
   21.9075   -5.8935  -14.2067 N   0  0  0  0  0  0  0  0  0  0  0  0
   21.8489   -6.5025  -15.5216 C   0  0  0  0  0  0  0  0  0  0  0  0
   20.5141   -5.7130  -13.7048 O   0  0  0  0  0  0  0  0  0  0  0  0
   19.5273   -5.6045  -14.4982 O   0  0  0  0  0  0  0  0  0  0  0  0
  2  1  1  6
  2 10  1  0
  2  3  1  0
  3  4  1  0
  4  9  2  0
  5  4  1  0
  5  6  2  0
  6  7  1  0
  7  8  2  0
  9  8  1  0
 10 11  2  0
 13 15  1  0
 13 12  1  0
 14 13  2  0
 16 17  1  0
 16 15  1  0
 17 18  1  0
 19 18  1  1
 20 10  1  0
 20 19  1  0
 21 22  2  0
 21 19  1  0
 24 23  1  1
 24 25  1  0
 25 21  1  0
 26 24  1  0
 26 28  1  0
 27 26  2  0
M  END
$$$$
