FRA.pdb
     RDKit          3D

 28 28  0  0  1  0  0  0  0  0999 V2000
   26.8671  -19.1507  -16.2682 N   0  0  0  0  0  0  0  0  0  0  0  0
   25.7006  -18.6696  -15.5566 C   0  0  1  0  0  0  0  0  0  0  0  0
   25.0555  -17.5203  -16.2975 C   0  0  0  0  0  0  0  0  0  0  0  0
   25.9890  -16.3645  -16.2539 C   0  0  0  0  0  0  0  0  0  0  0  0
   26.1442  -15.6351  -15.0709 C   0  0  0  0  0  0  0  0  0  0  0  0
   27.0132  -14.5641  -15.0412 C   0  0  0  0  0  0  0  0  0  0  0  0
   27.7501  -14.1692  -16.1389 C   0  0  0  0  0  0  0  0  0  0  0  0
   27.6007  -14.8846  -17.3066 C   0  0  0  0  0  0  0  0  0  0  0  0
   26.7299  -15.9632  -17.3484 C   0  0  0  0  0  0  0  0  0  0  0  0
   24.7245  -19.7743  -15.3080 C   0  0  0  0  0  0  0  0  0  0  0  0
   24.8333  -20.8894  -15.8827 O   0  0  0  0  0  0  0  0  0  0  0  0
   18.6712  -21.6620  -10.6478 N   0  0  0  0  0  0  0  0  0  0  0  0
   19.6465  -22.6511  -10.3519 C   0  0  0  0  0  0  0  0  0  0  0  0
   19.2589  -23.8766  -10.1615 N   0  0  0  0  0  0  0  0  0  0  0  0
   21.0315  -22.3450  -10.2573 N   0  0  0  0  0  0  0  0  0  0  0  0
   21.4820  -20.9925  -10.4910 C   0  0  0  0  0  0  0  0  0  0  0  0
   21.4149  -20.7217  -11.9872 C   0  0  0  0  0  0  0  0  0  0  0  0
   22.7189  -21.0574  -12.6599 C   0  0  0  0  0  0  0  0  0  0  0  0
   22.7098  -20.7499  -14.1291 C   0  0  2  0  0  0  0  0  0  0  0  0
   23.6298  -19.6262  -14.4164 N   0  0  0  0  0  0  0  0  0  0  0  0
   21.3782  -20.3428  -14.6130 C   0  0  0  0  0  0  0  0  0  0  0  0
   20.8612  -19.2337  -14.3384 O   0  0  0  0  0  0  0  0  0  0  0  0
   19.9109  -24.6283   -9.8924 C   0  0  0  0  0  0  0  0  0  0  0  0
   18.8726  -21.5572  -17.1807 C   0  0  1  0  0  0  0  0  0  0  0  0
   19.2993  -20.7249  -15.9967 N   0  0  0  0  0  0  0  0  0  0  0  0
   20.5572  -21.1902  -15.4451 C   0  0  0  0  0  0  0  0  0  0  0  0
   18.2460  -20.8496  -14.9474 O   0  0  0  0  0  0  0  0  0  0  0  0
   18.3509  -21.6799  -13.9910 O   0  0  0  0  0  0  0  0  0  0  0  0
  2  1  1  6
  2 10  1  0
  2  3  1  0
  3  4  1  0
  4  9  2  0
  5  4  1  0
  5  6  2  0
  6  7  1  0
  7  8  2  0
  9  8  1  0
 10 11  2  0
 13 15  1  0
 13 12  1  0
 14 13  2  0
 16 17  1  0
 16 15  1  0
 17 18  1  0
 19 18  1  1
 20 10  1  0
 20 19  1  0
 21 22  2  0
 21 19  1  0
 24 23  1  6
 24 25  1  0
 25 21  1  0
 26 24  1  0
 26 28  1  0
 27 26  2  0
M  END
$$$$
