FRA.pdb
     RDKit          3D

 28 28  0  0  1  0  0  0  0  0999 V2000
   22.5797  -20.0983   -9.8832 N   0  0  0  0  0  0  0  0  0  0  0  0
   23.0910  -21.0058  -10.8900 C   0  0  1  0  0  0  0  0  0  0  0  0
   22.0678  -21.2302  -11.9803 C   0  0  0  0  0  0  0  0  0  0  0  0
   20.9452  -22.0140  -11.4019 C   0  0  0  0  0  0  0  0  0  0  0  0
   19.9324  -22.5028  -12.2329 C   0  0  0  0  0  0  0  0  0  0  0  0
   18.8949  -23.2292  -11.6859 C   0  0  0  0  0  0  0  0  0  0  0  0
   18.8046  -23.5027  -10.3364 C   0  0  0  0  0  0  0  0  0  0  0  0
   19.8000  -23.0233   -9.5136 C   0  0  0  0  0  0  0  0  0  0  0  0
   20.8478  -22.2918  -10.0523 C   0  0  0  0  0  0  0  0  0  0  0  0
   24.3873  -20.5165  -11.4513 C   0  0  0  0  0  0  0  0  0  0  0  0
   24.5548  -19.3078  -11.7618 O   0  0  0  0  0  0  0  0  0  0  0  0
   31.1917  -22.7820   -9.3080 N   0  0  0  0  0  0  0  0  0  0  0  0
   31.8217  -22.5125  -10.5519 C   0  0  0  0  0  0  0  0  0  0  0  0
   32.7405  -23.3261  -10.9787 N   0  0  0  0  0  0  0  0  0  0  0  0
   31.4805  -21.3830  -11.3450 N   0  0  0  0  0  0  0  0  0  0  0  0
   30.2021  -20.7374  -11.1564 C   0  0  0  0  0  0  0  0  0  0  0  0
   29.2454  -21.2596  -12.2187 C   0  0  0  0  0  0  0  0  0  0  0  0
   27.9196  -21.6410  -11.6168 C   0  0  0  0  0  0  0  0  0  0  0  0
   26.7707  -20.8836  -12.2164 C   0  0  2  0  0  0  0  0  0  0  0  0
   25.4918  -21.3830  -11.6630 N   0  0  0  0  0  0  0  0  0  0  0  0
   26.6913  -21.0428  -13.6797 C   0  0  0  0  0  0  0  0  0  0  0  0
   26.4955  -22.1492  -14.2368 O   0  0  0  0  0  0  0  0  0  0  0  0
   33.2870  -23.1451  -11.8339 C   0  0  0  0  0  0  0  0  0  0  0  0
   26.8791  -18.8130  -16.7680 C   0  0  1  0  0  0  0  0  0  0  0  0
   26.8121  -20.1282  -16.0316 N   0  0  0  0  0  0  0  0  0  0  0  0
   26.8330  -19.9348  -14.5945 C   0  0  0  0  0  0  0  0  0  0  0  0
   28.0086  -20.9305  -16.4199 O   0  0  0  0  0  0  0  0  0  0  0  0
   29.1050  -20.8457  -15.7830 O   0  0  0  0  0  0  0  0  0  0  0  0
  2  1  1  1
  2 10  1  0
  2  3  1  0
  3  4  1  0
  4  9  2  0
  5  4  1  0
  5  6  2  0
  6  7  1  0
  7  8  2  0
  9  8  1  0
 10 11  2  0
 13 15  1  0
 13 12  1  0
 14 13  2  0
 16 17  1  0
 16 15  1  0
 17 18  1  0
 19 18  1  1
 20 10  1  0
 20 19  1  0
 21 22  2  0
 21 19  1  0
 24 23  1  1
 24 25  1  0
 25 21  1  0
 26 24  1  0
 26 28  1  0
 27 26  2  0
M  END
$$$$
