FRA.pdb
     RDKit          3D

 28 28  0  0  1  0  0  0  0  0999 V2000
   17.3143  -15.7499    6.7543 N   0  0  0  0  0  0  0  0  0  0  0  0
   17.8954  -17.0318    6.4110 C   0  0  1  0  0  0  0  0  0  0  0  0
   18.6435  -17.6151    7.5884 C   0  0  0  0  0  0  0  0  0  0  0  0
   20.0364  -17.0981    7.5488 C   0  0  0  0  0  0  0  0  0  0  0  0
   21.0373  -17.8332    6.9061 C   0  0  0  0  0  0  0  0  0  0  0  0
   22.3270  -17.3443    6.8751 C   0  0  0  0  0  0  0  0  0  0  0  0
   22.6856  -16.1454    7.4565 C   0  0  0  0  0  0  0  0  0  0  0  0
   21.7031  -15.4175    8.0909 C   0  0  0  0  0  0  0  0  0  0  0  0
   20.4031  -15.8990    8.1285 C   0  0  0  0  0  0  0  0  0  0  0  0
   16.8561  -17.9784    5.9024 C   0  0  0  0  0  0  0  0  0  0  0  0
   15.6678  -17.9343    6.3164 O   0  0  0  0  0  0  0  0  0  0  0  0
   15.0068  -22.2203   -1.7042 N   0  0  0  0  0  0  0  0  0  0  0  0
   14.0335  -22.5773   -0.7335 C   0  0  0  0  0  0  0  0  0  0  0  0
   13.0330  -23.3239   -1.0939 N   0  0  0  0  0  0  0  0  0  0  0  0
   14.1176  -22.1452    0.6183 N   0  0  0  0  0  0  0  0  0  0  0  0
   15.2180  -21.3062    1.0331 C   0  0  0  0  0  0  0  0  0  0  0  0
   15.1384  -21.1309    2.5428 C   0  0  0  0  0  0  0  0  0  0  0  0
   16.1796  -20.1610    3.0335 C   0  0  0  0  0  0  0  0  0  0  0  0
   16.1440  -19.9759    4.5227 C   0  0  2  0  0  0  0  0  0  0  0  0
   17.1515  -18.9713    4.9316 N   0  0  0  0  0  0  0  0  0  0  0  0
   16.4599  -21.2162    5.2540 C   0  0  0  0  0  0  0  0  0  0  0  0
   17.6334  -21.6047    5.4651 O   0  0  0  0  0  0  0  0  0  0  0  0
   12.2940  -23.6149   -0.4368 C   0  0  0  0  0  0  0  0  0  0  0  0
   16.5884  -24.2317    5.5171 C   0  0  2  0  0  0  0  0  0  0  0  0
   15.7762  -23.3456    6.4291 N   0  0  0  0  0  0  0  0  0  0  0  0
   15.4410  -22.0882    5.7888 C   0  0  0  0  0  0  0  0  0  0  0  0
   16.6005  -23.0572    7.6387 O   0  0  0  0  0  0  0  0  0  0  0  0
   16.9246  -21.8708    7.9589 O   0  0  0  0  0  0  0  0  0  0  0  0
  2  1  1  1
  2 10  1  0
  2  3  1  0
  3  4  1  0
  4  9  2  0
  5  4  1  0
  5  6  2  0
  6  7  1  0
  7  8  2  0
  9  8  1  0
 10 11  2  0
 13 15  1  0
 13 12  1  0
 14 13  2  0
 16 17  1  0
 16 15  1  0
 17 18  1  0
 19 18  1  6
 20 10  1  0
 20 19  1  0
 21 22  2  0
 21 19  1  0
 24 23  1  6
 24 25  1  0
 25 21  1  0
 26 24  1  0
 26 28  1  0
 27 26  2  0
M  END
$$$$
