FRA.pdb
     RDKit          3D

 28 28  0  0  1  0  0  0  0  0999 V2000
   16.6492  -13.9271    6.9829 N   0  0  0  0  0  0  0  0  0  0  0  0
   17.0016  -15.2156    6.4222 C   0  0  1  0  0  0  0  0  0  0  0  0
   18.4482  -15.2325    5.9827 C   0  0  0  0  0  0  0  0  0  0  0  0
   18.5865  -14.3123    4.8237 C   0  0  0  0  0  0  0  0  0  0  0  0
   18.2953  -14.7644    3.5330 C   0  0  0  0  0  0  0  0  0  0  0  0
   18.4269  -13.9021    2.4642 C   0  0  0  0  0  0  0  0  0  0  0  0
   18.8386  -12.5928    2.6070 C   0  0  0  0  0  0  0  0  0  0  0  0
   19.1267  -12.1426    3.8766 C   0  0  0  0  0  0  0  0  0  0  0  0
   18.9980  -13.0005    4.9586 C   0  0  0  0  0  0  0  0  0  0  0  0
   16.7113  -16.3222    7.3845 C   0  0  0  0  0  0  0  0  0  0  0  0
   16.8351  -16.1621    8.6273 O   0  0  0  0  0  0  0  0  0  0  0  0
   16.3683  -23.7496    5.9341 N   0  0  0  0  0  0  0  0  0  0  0  0
   15.5989  -24.1728    7.0503 C   0  0  0  0  0  0  0  0  0  0  0  0
   15.8504  -25.3312    7.5823 N   0  0  0  0  0  0  0  0  0  0  0  0
   14.5636  -23.3714    7.6044 N   0  0  0  0  0  0  0  0  0  0  0  0
   14.3226  -22.0491    7.0749 C   0  0  0  0  0  0  0  0  0  0  0  0
   15.3000  -21.0878    7.7357 C   0  0  0  0  0  0  0  0  0  0  0  0
   15.0282  -19.6661    7.3225 C   0  0  0  0  0  0  0  0  0  0  0  0
   16.0049  -18.6927    7.9156 C   0  0  2  0  0  0  0  0  0  0  0  0
   16.2832  -17.6046    6.9513 N   0  0  0  0  0  0  0  0  0  0  0  0
   17.3009  -19.3174    8.2367 C   0  0  0  0  0  0  0  0  0  0  0  0
   18.1419  -19.6342    7.3620 O   0  0  0  0  0  0  0  0  0  0  0  0
   15.3459  -25.6820    8.4100 C   0  0  0  0  0  0  0  0  0  0  0  0
   19.3884  -19.9572   11.3353 C   0  0  1  0  0  0  0  0  0  0  0  0
   19.0242  -20.1531    9.8842 N   0  0  0  0  0  0  0  0  0  0  0  0
   17.7096  -19.6169    9.5887 C   0  0  0  0  0  0  0  0  0  0  0  0
   19.0110  -21.6198    9.6106 O   0  0  0  0  0  0  0  0  0  0  0  0
   17.9293  -22.2866    9.5952 O   0  0  0  0  0  0  0  0  0  0  0  0
  2  1  1  1
  2 10  1  0
  2  3  1  0
  3  4  1  0
  4  9  2  0
  5  4  1  0
  5  6  2  0
  6  7  1  0
  7  8  2  0
  9  8  1  0
 10 11  2  0
 13 15  1  0
 13 12  1  0
 14 13  2  0
 16 17  1  0
 16 15  1  0
 17 18  1  0
 19 18  1  6
 20 10  1  0
 20 19  1  0
 21 22  2  0
 21 19  1  0
 24 23  1  6
 24 25  1  0
 25 21  1  0
 26 24  1  0
 26 28  1  0
 27 26  2  0
M  END
$$$$
