FRA.pdb
     RDKit          3D

 28 28  0  0  1  0  0  0  0  0999 V2000
   31.1763  -32.0535  -17.3836 N   0  0  0  0  0  0  0  0  0  0  0  0
   30.7414  -30.8451  -18.0539 C   0  0  1  0  0  0  0  0  0  0  0  0
   30.9335  -30.9615  -19.5491 C   0  0  0  0  0  0  0  0  0  0  0  0
   32.3850  -30.8226  -19.8375 C   0  0  0  0  0  0  0  0  0  0  0  0
   33.1435  -31.9502  -20.1670 C   0  0  0  0  0  0  0  0  0  0  0  0
   34.4900  -31.8103  -20.4330 C   0  0  0  0  0  0  0  0  0  0  0  0
   35.1375  -30.5926  -20.3895 C   0  0  0  0  0  0  0  0  0  0  0  0
   34.3945  -29.4788  -20.0654 C   0  0  0  0  0  0  0  0  0  0  0  0
   33.0402  -29.6073  -19.7961 C   0  0  0  0  0  0  0  0  0  0  0  0
   29.3243  -30.5158  -17.7105 C   0  0  0  0  0  0  0  0  0  0  0  0
   28.4799  -31.4179  -17.4682 O   0  0  0  0  0  0  0  0  0  0  0  0
   27.9296  -23.5332  -16.4371 N   0  0  0  0  0  0  0  0  0  0  0  0
   27.1031  -23.8015  -17.5604 C   0  0  0  0  0  0  0  0  0  0  0  0
   27.2890  -23.1219  -18.6522 N   0  0  0  0  0  0  0  0  0  0  0  0
   26.0800  -24.7881  -17.5300 N   0  0  0  0  0  0  0  0  0  0  0  0
   25.8250  -25.5155  -16.3082 C   0  0  0  0  0  0  0  0  0  0  0  0
   25.9177  -27.0036  -16.6137 C   0  0  0  0  0  0  0  0  0  0  0  0
   27.3346  -27.4089  -16.9202 C   0  0  0  0  0  0  0  0  0  0  0  0
   27.4601  -28.8646  -17.2644 C   0  0  2  0  0  0  0  0  0  0  0  0
   28.8576  -29.1769  -17.6395 N   0  0  0  0  0  0  0  0  0  0  0  0
   26.6167  -29.2490  -18.4107 C   0  0  0  0  0  0  0  0  0  0  0  0
   26.9198  -28.9886  -19.5994 O   0  0  0  0  0  0  0  0  0  0  0  0
   26.7450  -23.2934  -19.5109 C   0  0  0  0  0  0  0  0  0  0  0  0
   23.6892  -31.5332  -19.0863 C   0  0  1  0  0  0  0  0  0  0  0  0
   24.5739  -30.3533  -19.4055 N   0  0  0  0  0  0  0  0  0  0  0  0
   25.3686  -29.9586  -18.2585 C   0  0  0  0  0  0  0  0  0  0  0  0
   23.6925  -29.2117  -19.7876 O   0  0  0  0  0  0  0  0  0  0  0  0
   23.1074  -28.4981  -18.9139 O   0  0  0  0  0  0  0  0  0  0  0  0
  2  1  1  1
  2 10  1  0
  2  3  1  0
  3  4  1  0
  4  9  2  0
  5  4  1  0
  5  6  2  0
  6  7  1  0
  7  8  2  0
  9  8  1  0
 10 11  2  0
 13 15  1  0
 13 12  1  0
 14 13  2  0
 16 17  1  0
 16 15  1  0
 17 18  1  0
 19 18  1  6
 20 10  1  0
 20 19  1  0
 21 22  2  0
 21 19  1  0
 24 23  1  6
 24 25  1  0
 25 21  1  0
 26 24  1  0
 26 28  1  0
 27 26  2  0
M  END
$$$$
