FRA.pdb
     RDKit          3D

 28 28  0  0  1  0  0  0  0  0999 V2000
   25.5539  -21.2142   -7.0032 N   0  0  0  0  0  0  0  0  0  0  0  0
   26.2761  -20.5057   -8.0402 C   0  0  1  0  0  0  0  0  0  0  0  0
   27.7691  -20.6344   -7.8388 C   0  0  0  0  0  0  0  0  0  0  0  0
   28.1215  -19.9488   -6.5680 C   0  0  0  0  0  0  0  0  0  0  0  0
   28.7709  -20.6537   -5.5498 C   0  0  0  0  0  0  0  0  0  0  0  0
   29.0936  -20.0078   -4.3742 C   0  0  0  0  0  0  0  0  0  0  0  0
   28.8029  -18.6780   -4.1483 C   0  0  0  0  0  0  0  0  0  0  0  0
   28.1631  -17.9792   -5.1483 C   0  0  0  0  0  0  0  0  0  0  0  0
   27.8338  -18.6180   -6.3344 C   0  0  0  0  0  0  0  0  0  0  0  0
   25.8673  -20.9728   -9.4001 C   0  0  0  0  0  0  0  0  0  0  0  0
   25.9544  -22.1840   -9.7329 O   0  0  0  0  0  0  0  0  0  0  0  0
   20.0557  -21.4044  -15.2329 N   0  0  0  0  0  0  0  0  0  0  0  0
   19.9158  -20.6880  -14.0147 C   0  0  0  0  0  0  0  0  0  0  0  0
   18.7275  -20.5287  -13.5138 N   0  0  0  0  0  0  0  0  0  0  0  0
   21.0320  -20.1397  -13.3256 N   0  0  0  0  0  0  0  0  0  0  0  0
   22.1288  -19.5752  -14.0773 C   0  0  0  0  0  0  0  0  0  0  0  0
   23.4118  -20.2641  -13.6348 C   0  0  0  0  0  0  0  0  0  0  0  0
   23.7449  -19.9278  -12.2060 C   0  0  0  0  0  0  0  0  0  0  0  0
   25.0358  -20.5439  -11.7507 C   0  0  2  0  0  0  0  0  0  0  0  0
   25.3622  -20.0814  -10.3829 N   0  0  0  0  0  0  0  0  0  0  0  0
   26.1743  -20.1690  -12.6087 C   0  0  0  0  0  0  0  0  0  0  0  0
   26.7123  -19.0367  -12.5737 O   0  0  0  0  0  0  0  0  0  0  0  0
   18.5674  -20.0826  -12.5983 C   0  0  0  0  0  0  0  0  0  0  0  0
   28.7426  -21.8979  -14.7466 C   0  0  1  0  0  0  0  0  0  0  0  0
   27.9127  -20.6972  -14.3641 N   0  0  0  0  0  0  0  0  0  0  0  0
   26.7652  -21.0772  -13.5629 C   0  0  0  0  0  0  0  0  0  0  0  0
   27.4235  -20.0607  -15.6217 O   0  0  0  0  0  0  0  0  0  0  0  0
   26.2132  -20.1633  -15.9953 O   0  0  0  0  0  0  0  0  0  0  0  0
  2  1  1  1
  2 10  1  0
  2  3  1  0
  3  4  1  0
  4  9  2  0
  5  4  1  0
  5  6  2  0
  6  7  1  0
  7  8  2  0
  9  8  1  0
 10 11  2  0
 13 15  1  0
 13 12  1  0
 14 13  2  0
 16 17  1  0
 16 15  1  0
 17 18  1  0
 19 18  1  6
 20 10  1  0
 20 19  1  0
 21 22  2  0
 21 19  1  0
 24 23  1  1
 24 25  1  0
 25 21  1  0
 26 24  1  0
 26 28  1  0
 27 26  2  0
M  END
$$$$
