FRA.pdb
     RDKit          3D

 28 28  0  0  1  0  0  0  0  0999 V2000
   25.4948  -19.8822  -16.1277 N   0  0  0  0  0  0  0  0  0  0  0  0
   24.4913  -19.2755  -15.2769 C   0  0  1  0  0  0  0  0  0  0  0  0
   24.1040  -17.9084  -15.7939 C   0  0  0  0  0  0  0  0  0  0  0  0
   25.3154  -17.0476  -15.7672 C   0  0  0  0  0  0  0  0  0  0  0  0
   25.7207  -16.4475  -14.5710 C   0  0  0  0  0  0  0  0  0  0  0  0
   26.8466  -15.6504  -14.5572 C   0  0  0  0  0  0  0  0  0  0  0  0
   27.6064  -15.4111  -15.6839 C   0  0  0  0  0  0  0  0  0  0  0  0
   27.2112  -16.0000  -16.8648 C   0  0  0  0  0  0  0  0  0  0  0  0
   26.0810  -16.8033  -16.8908 C   0  0  0  0  0  0  0  0  0  0  0  0
   23.2964  -20.1622  -15.1324 C   0  0  0  0  0  0  0  0  0  0  0  0
   23.0091  -21.0253  -16.0030 O   0  0  0  0  0  0  0  0  0  0  0  0
   17.2518  -23.9086  -10.9348 N   0  0  0  0  0  0  0  0  0  0  0  0
   18.4481  -24.5224  -10.4777 C   0  0  0  0  0  0  0  0  0  0  0  0
   18.4387  -25.7944  -10.2130 N   0  0  0  0  0  0  0  0  0  0  0  0
   19.6547  -23.7917  -10.3005 N   0  0  0  0  0  0  0  0  0  0  0  0
   19.6876  -22.3809  -10.6095 C   0  0  0  0  0  0  0  0  0  0  0  0
   19.9469  -22.2276  -12.1013 C   0  0  0  0  0  0  0  0  0  0  0  0
   21.0338  -21.2200  -12.3639 C   0  0  0  0  0  0  0  0  0  0  0  0
   21.3130  -21.0358  -13.8272 C   0  0  2  0  0  0  0  0  0  0  0  0
   22.4273  -20.0791  -14.0130 N   0  0  0  0  0  0  0  0  0  0  0  0
   20.1564  -20.4878  -14.5585 C   0  0  0  0  0  0  0  0  0  0  0  0
   19.8429  -19.2739  -14.5301 O   0  0  0  0  0  0  0  0  0  0  0  0
   19.2811  -26.3023   -9.9043 C   0  0  0  0  0  0  0  0  0  0  0  0
   17.3746  -19.7998  -15.1250 C   0  0  2  0  0  0  0  0  0  0  0  0
   18.1182  -20.7534  -16.0275 N   0  0  0  0  0  0  0  0  0  0  0  0
   19.2867  -21.3062  -15.3699 C   0  0  0  0  0  0  0  0  0  0  0  0
   18.5662  -19.9902  -17.2286 O   0  0  0  0  0  0  0  0  0  0  0  0
   18.0731  -20.2066  -18.3797 O   0  0  0  0  0  0  0  0  0  0  0  0
  2  1  1  6
  2 10  1  0
  2  3  1  0
  3  4  1  0
  4  9  2  0
  5  4  1  0
  5  6  2  0
  6  7  1  0
  7  8  2  0
  9  8  1  0
 10 11  2  0
 13 15  1  0
 13 12  1  0
 14 13  2  0
 16 17  1  0
 16 15  1  0
 17 18  1  0
 19 18  1  1
 20 10  1  0
 20 19  1  0
 21 22  2  0
 21 19  1  0
 24 23  1  1
 24 25  1  0
 25 21  1  0
 26 24  1  0
 26 28  1  0
 27 26  2  0
M  END
$$$$
