FRA.pdb
     RDKit          3D

 28 28  0  0  1  0  0  0  0  0999 V2000
   28.3680  -20.3042  -10.9060 N   0  0  0  0  0  0  0  0  0  0  0  0
   27.0416  -20.8169  -10.6293 C   0  0  1  0  0  0  0  0  0  0  0  0
   26.4858  -20.2119   -9.3600 C   0  0  0  0  0  0  0  0  0  0  0  0
   27.5477  -20.2680   -8.3216 C   0  0  0  0  0  0  0  0  0  0  0  0
   28.6314  -21.1382   -8.4758 C   0  0  0  0  0  0  0  0  0  0  0  0
   29.6117  -21.1825   -7.5061 C   0  0  0  0  0  0  0  0  0  0  0  0
   29.5763  -20.3976   -6.3717 C   0  0  0  0  0  0  0  0  0  0  0  0
   28.5108  -19.5387   -6.2152 C   0  0  0  0  0  0  0  0  0  0  0  0
   27.5194  -19.4856   -7.1835 C   0  0  0  0  0  0  0  0  0  0  0  0
   26.1227  -20.5939  -11.7872 C   0  0  0  0  0  0  0  0  0  0  0  0
   26.2111  -19.5652  -12.5080 O   0  0  0  0  0  0  0  0  0  0  0  0
   22.8984  -27.1581  -13.7239 N   0  0  0  0  0  0  0  0  0  0  0  0
   22.2450  -26.1771  -14.5162 C   0  0  0  0  0  0  0  0  0  0  0  0
   20.9738  -26.3065  -14.7521 N   0  0  0  0  0  0  0  0  0  0  0  0
   22.9352  -25.0592  -15.0593 N   0  0  0  0  0  0  0  0  0  0  0  0
   24.3032  -24.8062  -14.6702 C   0  0  0  0  0  0  0  0  0  0  0  0
   24.3011  -23.7127  -13.6116 C   0  0  0  0  0  0  0  0  0  0  0  0
   24.1831  -22.3492  -14.2380 C   0  0  0  0  0  0  0  0  0  0  0  0
   24.1431  -21.2452  -13.2216 C   0  0  2  0  0  0  0  0  0  0  0  0
   25.1078  -21.5240  -12.1339 N   0  0  0  0  0  0  0  0  0  0  0  0
   22.8186  -21.1069  -12.5895 C   0  0  0  0  0  0  0  0  0  0  0  0
   22.4998  -21.7042  -11.5338 O   0  0  0  0  0  0  0  0  0  0  0  0
   20.4314  -25.5985  -15.2689 C   0  0  0  0  0  0  0  0  0  0  0  0
   19.7407  -18.9275  -12.9405 C   0  0  1  0  0  0  0  0  0  0  0  0
   20.4718  -20.1752  -12.5095 N   0  0  0  0  0  0  0  0  0  0  0  0
   21.7765  -20.2702  -13.1356 C   0  0  0  0  0  0  0  0  0  0  0  0
   19.6562  -21.3512  -12.9313 O   0  0  0  0  0  0  0  0  0  0  0  0
   19.9940  -22.0795  -13.9164 O   0  0  0  0  0  0  0  0  0  0  0  0
  2  1  1  6
  2 10  1  0
  2  3  1  0
  3  4  1  0
  4  9  2  0
  5  4  1  0
  5  6  2  0
  6  7  1  0
  7  8  2  0
  9  8  1  0
 10 11  2  0
 13 15  1  0
 13 12  1  0
 14 13  2  0
 16 17  1  0
 16 15  1  0
 17 18  1  0
 19 18  1  6
 20 10  1  0
 20 19  1  0
 21 22  2  0
 21 19  1  0
 24 23  1  1
 24 25  1  0
 25 21  1  0
 26 24  1  0
 26 28  1  0
 27 26  2  0
M  END
$$$$
