RNK.pdb
     RDKit          3D

 29 28  0  0  1  0  0  0  0  0999 V2000
    8.5473  -12.7057   20.6088 N   0  0  0  0  0  0  0  0  0  0  0  0
    8.6453  -12.8519   19.2027 C   0  0  0  0  0  0  0  0  0  0  0  0
    8.8698  -11.8741   18.3949 N   0  0  0  0  0  0  0  0  0  0  0  0
    8.4878  -14.1487   18.6483 N   0  0  0  0  0  0  0  0  0  0  0  0
    8.0280  -15.2619   19.4746 C   0  0  0  0  0  0  0  0  0  0  0  0
    7.6117  -14.7974   20.8451 C   0  0  0  0  0  0  0  0  0  0  0  0
    6.3428  -15.5267   21.2530 C   0  0  0  0  0  0  0  0  0  0  0  0
    6.6829  -16.7774   22.0542 C   0  0  2  0  0  0  0  0  0  0  0  0
    5.5080  -17.4994   22.4598 N   0  0  0  0  0  0  0  0  0  0  0  0
    7.4691  -16.3625   23.2598 C   0  0  0  0  0  0  0  0  0  0  0  0
    8.7056  -16.1119   23.1742 O   0  0  0  0  0  0  0  0  0  0  0  0
    8.9928  -12.0825   17.3846 N   0  0  0  0  0  0  0  0  0  0  0  0
    5.5209  -12.8753   25.5887 C   0  0  0  0  0  0  0  0  0  0  0  0
    6.7416  -13.4814   25.8825 O   0  0  0  0  0  0  0  0  0  0  0  0
    7.8021  -12.8672   25.5611 C   0  0  0  0  0  0  0  0  0  0  0  0
    6.9216  -14.7935   26.5438 C   0  0  2  0  0  0  0  0  0  0  0  0
    7.6339  -15.7914   25.6760 N   0  0  0  0  0  0  0  0  0  0  0  0
    6.8910  -16.2272   24.5451 C   0  0  0  0  0  0  0  0  0  0  0  0
    8.1665  -16.9372   26.4447 O   0  0  0  0  0  0  0  0  0  0  0  0
    7.3602  -17.7560   26.9389 N   0  0  0  0  0  0  0  0  0  0  0  0
    9.5521  -17.1467   26.6450 C   0  0  1  0  0  0  0  0  0  0  0  0
   10.0833  -18.2738   27.3845 C   0  0  0  0  0  0  0  0  0  0  0  0
   10.9771  -19.0825   26.4699 C   0  0  0  0  0  0  0  0  0  0  0  0
   11.5551  -20.2851   27.1706 C   0  0  0  0  0  0  0  0  0  0  0  0
   12.4657  -21.0844   26.2705 C   0  0  0  0  0  0  0  0  0  0  0  0
   13.0355  -22.3108   26.9423 N   0  0  0  0  0  0  0  0  0  0  0  0
   13.8087  -23.1167   26.0249 C   0  0  0  0  0  0  0  0  0  0  0  0
   10.7721  -17.8299   28.6110 O   0  0  0  0  0  0  0  0  0  0  0  0
   11.0782  -16.6133   28.7137 O   0  0  0  0  0  0  0  0  0  0  0  0
  1  2  1  0
  2  3  2  0
  4  5  1  0
  4  2  1  0
  6  7  1  0
  6  5  1  0
  8  9  1  1
  8  7  1  0
 10 11  2  0
 10  8  1  0
 12 13  1  0
 13 15  1  0
 13 14  2  0
 16 15  1  6
 16 18  1  0
 16 17  1  0
 17 10  1  0
 18 20  1  0
 19 18  2  0
 20 21  1  0
 21 27  1  0
 21 22  1  1
 23 22  1  0
 24 25  1  0
 24 23  1  0
 26 25  1  0
 27 28  2  0
 27 29  1  0
M  END
$$$$
