RNK.pdb
     RDKit          3D

 29 28  0  0  1  0  0  0  0  0999 V2000
    7.1929  -12.1821   18.6244 N   0  0  0  0  0  0  0  0  0  0  0  0
    8.0556  -13.2485   18.2683 C   0  0  0  0  0  0  0  0  0  0  0  0
    9.3350  -13.2132   18.4124 N   0  0  0  0  0  0  0  0  0  0  0  0
    7.4809  -14.4250   17.7212 N   0  0  0  0  0  0  0  0  0  0  0  0
    7.5740  -15.6990   18.4294 C   0  0  0  0  0  0  0  0  0  0  0  0
    6.8872  -15.6383   19.7680 C   0  0  0  0  0  0  0  0  0  0  0  0
    7.7218  -16.3920   20.7896 C   0  0  0  0  0  0  0  0  0  0  0  0
    8.2371  -15.4396   21.8616 C   0  0  2  0  0  0  0  0  0  0  0  0
    8.9948  -14.3524   21.3044 N   0  0  0  0  0  0  0  0  0  0  0  0
    9.0896  -16.2216   22.8131 C   0  0  0  0  0  0  0  0  0  0  0  0
    8.5835  -17.1054   23.5626 O   0  0  0  0  0  0  0  0  0  0  0  0
    9.8945  -14.0247   18.0840 N   0  0  0  0  0  0  0  0  0  0  0  0
   13.0294  -15.0889   21.7483 C   0  0  0  0  0  0  0  0  0  0  0  0
   13.3728  -15.8120   22.8899 O   0  0  0  0  0  0  0  0  0  0  0  0
   14.3577  -15.4063   23.5757 C   0  0  0  0  0  0  0  0  0  0  0  0
   12.6875  -17.0267   23.3860 C   0  0  1  0  0  0  0  0  0  0  0  0
   11.2859  -16.7561   23.8533 N   0  0  0  0  0  0  0  0  0  0  0  0
   10.4868  -16.0258   22.9320 C   0  0  0  0  0  0  0  0  0  0  0  0
   11.2418  -16.1512   25.2021 O   0  0  0  0  0  0  0  0  0  0  0  0
   12.1587  -15.3705   25.5407 N   0  0  0  0  0  0  0  0  0  0  0  0
   10.2045  -16.4187   26.1275 C   0  0  1  0  0  0  0  0  0  0  0  0
   10.1985  -15.9015   27.4809 C   0  0  0  0  0  0  0  0  0  0  0  0
    8.9025  -15.1565   27.7151 C   0  0  0  0  0  0  0  0  0  0  0  0
    8.6856  -14.0728   26.6905 C   0  0  0  0  0  0  0  0  0  0  0  0
    7.3662  -13.3652   26.8819 C   0  0  0  0  0  0  0  0  0  0  0  0
    7.1574  -12.2277   25.9111 N   0  0  0  0  0  0  0  0  0  0  0  0
    5.8420  -11.6433   26.0415 C   0  0  0  0  0  0  0  0  0  0  0  0
   10.4249  -16.9776   28.4640 O   0  0  0  0  0  0  0  0  0  0  0  0
   10.5665  -16.6580   29.6732 O   0  0  0  0  0  0  0  0  0  0  0  0
  1  2  1  0
  2  3  2  0
  4  5  1  0
  4  2  1  0
  6  7  1  0
  6  5  1  0
  8  9  1  6
  8  7  1  0
 10 11  2  0
 10  8  1  0
 12 13  1  0
 13 15  1  0
 13 14  2  0
 16 15  1  6
 16 18  1  0
 16 17  1  0
 17 10  1  0
 18 20  1  0
 19 18  2  0
 20 21  1  0
 21 27  1  0
 21 22  1  1
 23 22  1  0
 24 25  1  0
 24 23  1  0
 26 25  1  0
 27 28  2  0
 27 29  1  0
M  END
$$$$
