RNK.pdb
     RDKit          3D

 29 28  0  0  1  0  0  0  0  0999 V2000
    7.8869  -13.4462   15.4405 N   0  0  0  0  0  0  0  0  0  0  0  0
    7.8554  -13.5102   16.8558 C   0  0  0  0  0  0  0  0  0  0  0  0
    8.3530  -12.6048   17.6249 N   0  0  0  0  0  0  0  0  0  0  0  0
    7.2411  -14.6351   17.4651 N   0  0  0  0  0  0  0  0  0  0  0  0
    7.2436  -14.7902   18.9174 C   0  0  0  0  0  0  0  0  0  0  0  0
    8.6321  -15.0392   19.4440 C   0  0  0  0  0  0  0  0  0  0  0  0
    8.5609  -15.2699   20.9440 C   0  0  0  0  0  0  0  0  0  0  0  0
    9.9471  -15.5679   21.5022 C   0  0  2  0  0  0  0  0  0  0  0  0
   10.6631  -16.5214   20.6992 N   0  0  0  0  0  0  0  0  0  0  0  0
    9.7884  -16.0913   22.8967 C   0  0  0  0  0  0  0  0  0  0  0  0
    8.9897  -15.5428   23.7093 O   0  0  0  0  0  0  0  0  0  0  0  0
    8.3848  -12.7842   18.6477 N   0  0  0  0  0  0  0  0  0  0  0  0
   10.7472  -20.8778   23.0745 C   0  0  0  0  0  0  0  0  0  0  0  0
   10.1360  -20.0682   24.0311 O   0  0  0  0  0  0  0  0  0  0  0  0
    8.8790  -20.1522   24.1645 C   0  0  0  0  0  0  0  0  0  0  0  0
   10.8242  -19.1050   24.9198 C   0  0  2  0  0  0  0  0  0  0  0  0
   10.3639  -17.6900   24.7144 N   0  0  0  0  0  0  0  0  0  0  0  0
   10.5070  -17.2095   23.3843 C   0  0  0  0  0  0  0  0  0  0  0  0
   10.9544  -16.7511   25.6928 O   0  0  0  0  0  0  0  0  0  0  0  0
   12.1874  -16.5429   25.6570 N   0  0  0  0  0  0  0  0  0  0  0  0
   10.1823  -16.0772   26.6693 C   0  0  1  0  0  0  0  0  0  0  0  0
   10.7582  -15.1911   27.6604 C   0  0  0  0  0  0  0  0  0  0  0  0
   10.0169  -13.8724   27.6288 C   0  0  0  0  0  0  0  0  0  0  0  0
    8.6301  -14.0223   27.0584 C   0  0  0  0  0  0  0  0  0  0  0  0
    7.8498  -12.7315   27.1142 C   0  0  0  0  0  0  0  0  0  0  0  0
    6.4437  -12.8654   26.5802 N   0  0  0  0  0  0  0  0  0  0  0  0
    5.7010  -11.6317   26.7045 C   0  0  0  0  0  0  0  0  0  0  0  0
   10.7585  -15.8147   28.9973 O   0  0  0  0  0  0  0  0  0  0  0  0
   10.1770  -16.9223   29.1366 O   0  0  0  0  0  0  0  0  0  0  0  0
  1  2  1  0
  2  3  2  0
  4  5  1  0
  4  2  1  0
  6  7  1  0
  6  5  1  0
  8  9  1  6
  8  7  1  0
 10 11  2  0
 10  8  1  0
 12 13  1  0
 13 15  1  0
 13 14  2  0
 16 15  1  6
 16 18  1  0
 16 17  1  0
 17 10  1  0
 18 20  1  0
 19 18  2  0
 20 21  1  0
 21 27  1  0
 21 22  1  1
 23 22  1  0
 24 25  1  0
 24 23  1  0
 26 25  1  0
 27 28  2  0
 27 29  1  0
M  END
$$$$
