RNK.pdb
     RDKit          3D

 29 28  0  0  1  0  0  0  0  0999 V2000
    7.6167  -14.5444   17.6371 N   0  0  0  0  0  0  0  0  0  0  0  0
    8.2130  -13.4423   18.2988 C   0  0  0  0  0  0  0  0  0  0  0  0
    8.5343  -12.3423   17.7108 N   0  0  0  0  0  0  0  0  0  0  0  0
    8.4729  -13.5526   19.6895 N   0  0  0  0  0  0  0  0  0  0  0  0
    7.3794  -13.7384   20.6398 C   0  0  0  0  0  0  0  0  0  0  0  0
    6.8820  -15.1596   20.6386 C   0  0  0  0  0  0  0  0  0  0  0  0
    7.5190  -15.9102   21.7957 C   0  0  0  0  0  0  0  0  0  0  0  0
    8.6539  -16.7950   21.2947 C   0  0  2  0  0  0  0  0  0  0  0  0
    8.1713  -17.9526   20.5921 N   0  0  0  0  0  0  0  0  0  0  0  0
    9.4740  -17.2186   22.4743 C   0  0  0  0  0  0  0  0  0  0  0  0
    8.9237  -17.6699   23.5196 O   0  0  0  0  0  0  0  0  0  0  0  0
    9.0301  -11.6123   18.2591 N   0  0  0  0  0  0  0  0  0  0  0  0
   12.5386  -19.4473   21.9264 C   0  0  0  0  0  0  0  0  0  0  0  0
   13.4544  -18.5879   22.5319 O   0  0  0  0  0  0  0  0  0  0  0  0
   14.6839  -18.7540   22.2752 C   0  0  0  0  0  0  0  0  0  0  0  0
   13.1244  -17.4832   23.4602 C   0  0  2  0  0  0  0  0  0  0  0  0
   11.6468  -17.3291   23.6820 N   0  0  0  0  0  0  0  0  0  0  0  0
   10.8877  -17.1426   22.4947 C   0  0  0  0  0  0  0  0  0  0  0  0
   11.3268  -16.2985   24.6933 O   0  0  0  0  0  0  0  0  0  0  0  0
   11.4513  -15.0931   24.3829 N   0  0  0  0  0  0  0  0  0  0  0  0
   10.8851  -16.6189   25.9995 C   0  0  1  0  0  0  0  0  0  0  0  0
   10.3701  -15.6307   26.9254 C   0  0  0  0  0  0  0  0  0  0  0  0
    9.2079  -14.9105   26.2773 C   0  0  0  0  0  0  0  0  0  0  0  0
    8.5805  -13.9061   27.2093 C   0  0  0  0  0  0  0  0  0  0  0  0
    7.4230  -13.1805   26.5675 C   0  0  0  0  0  0  0  0  0  0  0  0
    6.8186  -12.1228   27.4596 N   0  0  0  0  0  0  0  0  0  0  0  0
    5.6339  -11.5374   26.8740 C   0  0  0  0  0  0  0  0  0  0  0  0
   10.0125  -16.2459   28.2176 O   0  0  0  0  0  0  0  0  0  0  0  0
    9.6093  -15.4937   29.1427 O   0  0  0  0  0  0  0  0  0  0  0  0
  1  2  1  0
  2  3  2  0
  4  5  1  0
  4  2  1  0
  6  7  1  0
  6  5  1  0
  8  9  1  1
  8  7  1  0
 10 11  2  0
 10  8  1  0
 12 13  1  0
 13 15  1  0
 13 14  2  0
 16 15  1  6
 16 18  1  0
 16 17  1  0
 17 10  1  0
 18 20  1  0
 19 18  2  0
 20 21  1  0
 21 27  1  0
 21 22  1  1
 23 22  1  0
 24 25  1  0
 24 23  1  0
 26 25  1  0
 27 28  2  0
 27 29  1  0
M  END
$$$$
