RNK.pdb
     RDKit          3D

 29 28  0  0  1  0  0  0  0  0999 V2000
    7.9381  -12.6753   15.3028 N   0  0  0  0  0  0  0  0  0  0  0  0
    8.6639  -13.8037   15.7589 C   0  0  0  0  0  0  0  0  0  0  0  0
    8.6695  -14.9426   15.1574 N   0  0  0  0  0  0  0  0  0  0  0  0
    9.4302  -13.6759   16.9464 N   0  0  0  0  0  0  0  0  0  0  0  0
    8.7915  -13.3221   18.2114 C   0  0  0  0  0  0  0  0  0  0  0  0
    7.5148  -14.0927   18.4202 C   0  0  0  0  0  0  0  0  0  0  0  0
    7.3116  -14.3244   19.9078 C   0  0  0  0  0  0  0  0  0  0  0  0
    8.2613  -15.4040   20.4121 C   0  0  2  0  0  0  0  0  0  0  0  0
    7.9199  -16.7067   19.9090 N   0  0  0  0  0  0  0  0  0  0  0  0
    8.2156  -15.4066   21.9093 C   0  0  0  0  0  0  0  0  0  0  0  0
    8.4207  -14.3463   22.5672 O   0  0  0  0  0  0  0  0  0  0  0  0
    9.2658  -15.7031   15.5389 N   0  0  0  0  0  0  0  0  0  0  0  0
    6.5223  -15.5513   27.0542 C   0  0  0  0  0  0  0  0  0  0  0  0
    6.5577  -16.6256   26.1662 O   0  0  0  0  0  0  0  0  0  0  0  0
    6.6061  -17.7952   26.6509 C   0  0  0  0  0  0  0  0  0  0  0  0
    6.5442  -16.5308   24.6891 C   0  0  1  0  0  0  0  0  0  0  0  0
    7.9208  -16.5695   24.0893 N   0  0  0  0  0  0  0  0  0  0  0  0
    7.9459  -16.5712   22.6680 C   0  0  0  0  0  0  0  0  0  0  0  0
    8.7536  -17.6585   24.6440 O   0  0  0  0  0  0  0  0  0  0  0  0
    8.5380  -18.8315   24.2666 N   0  0  0  0  0  0  0  0  0  0  0  0
    9.7857  -17.4293   25.5853 C   0  0  1  0  0  0  0  0  0  0  0  0
   10.6540  -18.4788   26.0790 C   0  0  0  0  0  0  0  0  0  0  0  0
   12.0441  -18.2685   25.5196 C   0  0  0  0  0  0  0  0  0  0  0  0
   12.1767  -18.8219   24.1241 C   0  0  0  0  0  0  0  0  0  0  0  0
   13.5482  -18.5772   23.5434 C   0  0  0  0  0  0  0  0  0  0  0  0
   13.6428  -18.9294   22.0781 N   0  0  0  0  0  0  0  0  0  0  0  0
   14.9676  -18.6912   21.5518 C   0  0  0  0  0  0  0  0  0  0  0  0
   10.6339  -18.5384   27.5527 O   0  0  0  0  0  0  0  0  0  0  0  0
   11.3539  -19.3991   28.1227 O   0  0  0  0  0  0  0  0  0  0  0  0
  1  2  1  0
  2  3  2  0
  4  5  1  0
  4  2  1  0
  6  7  1  0
  6  5  1  0
  8  9  1  6
  8  7  1  0
 10 11  2  0
 10  8  1  0
 12 13  1  0
 13 15  1  0
 13 14  2  0
 16 15  1  6
 16 18  1  0
 16 17  1  0
 17 10  1  0
 18 20  1  0
 19 18  2  0
 20 21  1  0
 21 27  1  0
 21 22  1  1
 23 22  1  0
 24 25  1  0
 24 23  1  0
 26 25  1  0
 27 28  2  0
 27 29  1  0
M  END
$$$$
