RNK.pdb
     RDKit          3D

 29 28  0  0  1  0  0  0  0  0999 V2000
    6.2666  -14.8500   13.9548 N   0  0  0  0  0  0  0  0  0  0  0  0
    6.8787  -14.0804   14.9752 C   0  0  0  0  0  0  0  0  0  0  0  0
    7.7811  -13.1879   14.7553 N   0  0  0  0  0  0  0  0  0  0  0  0
    6.4773  -14.3024   16.3181 N   0  0  0  0  0  0  0  0  0  0  0  0
    7.1933  -13.6720   17.4241 C   0  0  0  0  0  0  0  0  0  0  0  0
    8.6697  -13.5772   17.1438 C   0  0  0  0  0  0  0  0  0  0  0  0
    9.3954  -14.6547   17.9315 C   0  0  0  0  0  0  0  0  0  0  0  0
   10.0029  -14.0677   19.1996 C   0  0  2  0  0  0  0  0  0  0  0  0
   10.2813  -12.6634   19.0696 N   0  0  0  0  0  0  0  0  0  0  0  0
   11.2664  -14.8130   19.5027 C   0  0  0  0  0  0  0  0  0  0  0  0
   11.2389  -16.0381   19.8146 O   0  0  0  0  0  0  0  0  0  0  0  0
    8.2767  -12.7718   15.5680 N   0  0  0  0  0  0  0  0  0  0  0  0
   14.9979  -13.6390   16.6044 C   0  0  0  0  0  0  0  0  0  0  0  0
   14.8841  -14.6312   17.5774 O   0  0  0  0  0  0  0  0  0  0  0  0
   14.6994  -15.8235   17.1908 C   0  0  0  0  0  0  0  0  0  0  0  0
   14.9594  -14.4234   19.0410 C   0  0  2  0  0  0  0  0  0  0  0  0
   13.7387  -14.9168   19.7640 N   0  0  0  0  0  0  0  0  0  0  0  0
   12.5453  -14.2068   19.4604 C   0  0  0  0  0  0  0  0  0  0  0  0
   13.9456  -15.0229   21.2246 O   0  0  0  0  0  0  0  0  0  0  0  0
   14.4081  -14.0364   21.8391 N   0  0  0  0  0  0  0  0  0  0  0  0
   13.6418  -16.1953   21.9575 C   0  0  1  0  0  0  0  0  0  0  0  0
   13.8690  -16.3185   23.3831 C   0  0  0  0  0  0  0  0  0  0  0  0
   12.8219  -17.2408   23.9683 C   0  0  0  0  0  0  0  0  0  0  0  0
   12.9998  -17.4199   25.4541 C   0  0  0  0  0  0  0  0  0  0  0  0
   11.9238  -18.2915   26.0545 C   0  0  0  0  0  0  0  0  0  0  0  0
   12.0188  -18.3996   27.5577 N   0  0  0  0  0  0  0  0  0  0  0  0
   11.0313  -19.3077   28.0955 C   0  0  0  0  0  0  0  0  0  0  0  0
   15.2462  -16.7640   23.6671 O   0  0  0  0  0  0  0  0  0  0  0  0
   15.7367  -16.4967   24.7950 O   0  0  0  0  0  0  0  0  0  0  0  0
  1  2  1  0
  2  3  2  0
  4  5  1  0
  4  2  1  0
  6  7  1  0
  6  5  1  0
  8  9  1  6
  8  7  1  0
 10 11  2  0
 10  8  1  0
 12 13  1  0
 13 15  1  0
 13 14  2  0
 16 15  1  6
 16 18  1  0
 16 17  1  0
 17 10  1  0
 18 20  1  0
 19 18  2  0
 20 21  1  0
 21 27  1  0
 21 22  1  1
 23 22  1  0
 24 25  1  0
 24 23  1  0
 26 25  1  0
 27 28  2  0
 27 29  1  0
M  END
$$$$
