RNK.pdb
     RDKit          3D

 29 28  0  0  1  0  0  0  0  0999 V2000
    9.3269  -12.6287   17.9577 N   0  0  0  0  0  0  0  0  0  0  0  0
    8.2490  -13.1810   17.2219 C   0  0  0  0  0  0  0  0  0  0  0  0
    8.0441  -12.9521   15.9710 N   0  0  0  0  0  0  0  0  0  0  0  0
    7.3406  -14.0360   17.8983 N   0  0  0  0  0  0  0  0  0  0  0  0
    7.7037  -14.6510   19.1724 C   0  0  0  0  0  0  0  0  0  0  0  0
    7.3250  -13.7745   20.3367 C   0  0  0  0  0  0  0  0  0  0  0  0
    6.3628  -14.5313   21.2364 C   0  0  0  0  0  0  0  0  0  0  0  0
    6.6369  -16.0286   21.1673 C   0  0  2  0  0  0  0  0  0  0  0  0
    5.5028  -16.7671   20.6826 N   0  0  0  0  0  0  0  0  0  0  0  0
    7.0057  -16.5016   22.5399 C   0  0  0  0  0  0  0  0  0  0  0  0
    6.1188  -16.6956   23.4202 O   0  0  0  0  0  0  0  0  0  0  0  0
    7.3093  -13.4982   15.4799 N   0  0  0  0  0  0  0  0  0  0  0  0
    9.4085  -19.4091   26.1545 C   0  0  0  0  0  0  0  0  0  0  0  0
    8.3994  -19.7240   25.2453 O   0  0  0  0  0  0  0  0  0  0  0  0
    7.8071  -20.8361   25.3775 C   0  0  0  0  0  0  0  0  0  0  0  0
    7.9460  -18.8717   24.1232 C   0  0  1  0  0  0  0  0  0  0  0  0
    8.6692  -17.5567   24.0601 N   0  0  0  0  0  0  0  0  0  0  0  0
    8.3422  -16.7564   22.9317 C   0  0  0  0  0  0  0  0  0  0  0  0
   10.1332  -17.7038   24.2100 O   0  0  0  0  0  0  0  0  0  0  0  0
   10.6305  -18.8504   24.1554 N   0  0  0  0  0  0  0  0  0  0  0  0
   10.9965  -16.6005   24.4130 C   0  0  2  0  0  0  0  0  0  0  0  0
   11.6622  -16.3377   25.6728 C   0  0  0  0  0  0  0  0  0  0  0  0
   10.7228  -15.5632   26.5712 C   0  0  0  0  0  0  0  0  0  0  0  0
   11.2793  -15.4072   27.9630 C   0  0  0  0  0  0  0  0  0  0  0  0
   10.3603  -14.6107   28.8568 C   0  0  0  0  0  0  0  0  0  0  0  0
   10.9124  -14.4118   30.2481 N   0  0  0  0  0  0  0  0  0  0  0  0
   10.0792  -13.5333   31.0374 C   0  0  0  0  0  0  0  0  0  0  0  0
   12.1449  -17.5868   26.2915 O   0  0  0  0  0  0  0  0  0  0  0  0
   13.3310  -17.6225   26.7112 O   0  0  0  0  0  0  0  0  0  0  0  0
  1  2  1  0
  2  3  2  0
  4  5  1  0
  4  2  1  0
  6  7  1  0
  6  5  1  0
  8  9  1  1
  8  7  1  0
 10 11  2  0
 10  8  1  0
 12 13  1  0
 13 15  1  0
 13 14  2  0
 16 15  1  1
 16 18  1  0
 16 17  1  0
 17 10  1  0
 18 20  1  0
 19 18  2  0
 20 21  1  0
 21 27  1  0
 21 22  1  6
 23 22  1  0
 24 25  1  0
 24 23  1  0
 26 25  1  0
 27 28  2  0
 27 29  1  0
M  END
$$$$
