RNK.pdb
     RDKit          3D

 29 28  0  0  1  0  0  0  0  0999 V2000
    8.2582  -13.0115   13.6109 N   0  0  0  0  0  0  0  0  0  0  0  0
    8.2577  -13.9791   14.6461 C   0  0  0  0  0  0  0  0  0  0  0  0
    9.1763  -14.8697   14.7944 N   0  0  0  0  0  0  0  0  0  0  0  0
    7.1852  -13.9700   15.5754 N   0  0  0  0  0  0  0  0  0  0  0  0
    7.3596  -13.4017   16.9095 C   0  0  0  0  0  0  0  0  0  0  0  0
    8.7055  -13.7513   17.4873 C   0  0  0  0  0  0  0  0  0  0  0  0
    8.5060  -14.5386   18.7712 C   0  0  0  0  0  0  0  0  0  0  0  0
    9.8071  -14.6048   19.5615 C   0  0  2  0  0  0  0  0  0  0  0  0
   10.8608  -15.2440   18.8216 N   0  0  0  0  0  0  0  0  0  0  0  0
    9.5466  -15.3553   20.8314 C   0  0  0  0  0  0  0  0  0  0  0  0
    8.5416  -15.0865   21.5503 O   0  0  0  0  0  0  0  0  0  0  0  0
    9.0282  -15.6248   15.4925 N   0  0  0  0  0  0  0  0  0  0  0  0
   10.4569  -18.9595   20.2837 C   0  0  0  0  0  0  0  0  0  0  0  0
   11.0736  -19.1955   21.5117 O   0  0  0  0  0  0  0  0  0  0  0  0
   11.7615  -20.2520   21.6372 C   0  0  0  0  0  0  0  0  0  0  0  0
   11.0015  -18.3178   22.7014 C   0  0  2  0  0  0  0  0  0  0  0  0
   10.1214  -17.1191   22.4897 N   0  0  0  0  0  0  0  0  0  0  0  0
   10.3906  -16.3917   21.2986 C   0  0  0  0  0  0  0  0  0  0  0  0
   10.0810  -16.2266   23.6684 O   0  0  0  0  0  0  0  0  0  0  0  0
   11.0909  -15.5386   23.9359 N   0  0  0  0  0  0  0  0  0  0  0  0
    8.9463  -16.1180   24.5077 C   0  0  1  0  0  0  0  0  0  0  0  0
    8.8804  -15.2113   25.6359 C   0  0  0  0  0  0  0  0  0  0  0  0
    7.5347  -14.5195   25.6307 C   0  0  0  0  0  0  0  0  0  0  0  0
    7.5561  -13.2452   26.4349 C   0  0  0  0  0  0  0  0  0  0  0  0
    6.2323  -12.5216   26.3891 C   0  0  0  0  0  0  0  0  0  0  0  0
    6.2268  -11.2445   27.1948 N   0  0  0  0  0  0  0  0  0  0  0  0
    4.9924  -10.5105   27.0316 C   0  0  0  0  0  0  0  0  0  0  0  0
    9.1564  -15.9151   26.9025 O   0  0  0  0  0  0  0  0  0  0  0  0
    9.2495  -15.2307   27.9548 O   0  0  0  0  0  0  0  0  0  0  0  0
  1  2  1  0
  2  3  2  0
  4  5  1  0
  4  2  1  0
  6  7  1  0
  6  5  1  0
  8  9  1  6
  8  7  1  0
 10 11  2  0
 10  8  1  0
 12 13  1  0
 13 15  1  0
 13 14  2  0
 16 15  1  6
 16 18  1  0
 16 17  1  0
 17 10  1  0
 18 20  1  0
 19 18  2  0
 20 21  1  0
 21 27  1  0
 21 22  1  1
 23 22  1  0
 24 25  1  0
 24 23  1  0
 26 25  1  0
 27 28  2  0
 27 29  1  0
M  END
$$$$
