RNK.pdb
     RDKit          3D

 29 28  0  0  1  0  0  0  0  0999 V2000
    9.0603  -15.1006   15.4631 N   0  0  0  0  0  0  0  0  0  0  0  0
    8.1395  -14.0333   15.6083 C   0  0  0  0  0  0  0  0  0  0  0  0
    6.9846  -14.0014   15.0390 N   0  0  0  0  0  0  0  0  0  0  0  0
    8.5069  -12.9342   16.4274 N   0  0  0  0  0  0  0  0  0  0  0  0
    8.6147  -13.0873   17.8760 C   0  0  0  0  0  0  0  0  0  0  0  0
    7.4265  -13.8171   18.4443 C   0  0  0  0  0  0  0  0  0  0  0  0
    7.5853  -13.9278   19.9512 C   0  0  0  0  0  0  0  0  0  0  0  0
    8.9971  -14.3790   20.3050 C   0  0  2  0  0  0  0  0  0  0  0  0
    9.7291  -14.8288   19.1525 N   0  0  0  0  0  0  0  0  0  0  0  0
    8.8977  -15.4848   21.3105 C   0  0  0  0  0  0  0  0  0  0  0  0
    8.1004  -15.4035   22.2887 O   0  0  0  0  0  0  0  0  0  0  0  0
    6.3770  -13.1730   15.1939 N   0  0  0  0  0  0  0  0  0  0  0  0
   10.8560  -21.0748   23.0509 C   0  0  0  0  0  0  0  0  0  0  0  0
    9.9203  -20.0633   22.8380 O   0  0  0  0  0  0  0  0  0  0  0  0
    8.9351  -19.9893   23.6311 C   0  0  0  0  0  0  0  0  0  0  0  0
    9.9671  -19.0517   21.7584 C   0  0  2  0  0  0  0  0  0  0  0  0
    9.6490  -17.6660   22.2430 N   0  0  0  0  0  0  0  0  0  0  0  0
    9.6734  -16.6667   21.2323 C   0  0  0  0  0  0  0  0  0  0  0  0
   10.4643  -17.2700   23.4117 O   0  0  0  0  0  0  0  0  0  0  0  0
   11.6870  -17.0619   23.2486 N   0  0  0  0  0  0  0  0  0  0  0  0
    9.9187  -17.1163   24.7089 C   0  0  1  0  0  0  0  0  0  0  0  0
   10.7072  -16.7163   25.8567 C   0  0  0  0  0  0  0  0  0  0  0  0
    9.8605  -15.8363   26.7502 C   0  0  0  0  0  0  0  0  0  0  0  0
   10.6127  -15.3970   27.9800 C   0  0  0  0  0  0  0  0  0  0  0  0
    9.7895  -14.4819   28.8534 C   0  0  0  0  0  0  0  0  0  0  0  0
   10.5147  -14.0456   30.1039 N   0  0  0  0  0  0  0  0  0  0  0  0
    9.7214  -13.1327   30.8954 C   0  0  0  0  0  0  0  0  0  0  0  0
   11.2543  -17.8900   26.5631 O   0  0  0  0  0  0  0  0  0  0  0  0
   10.5009  -18.8831   26.7377 O   0  0  0  0  0  0  0  0  0  0  0  0
  1  2  1  0
  2  3  2  0
  4  5  1  0
  4  2  1  0
  6  7  1  0
  6  5  1  0
  8  9  1  6
  8  7  1  0
 10 11  2  0
 10  8  1  0
 12 13  1  0
 13 15  1  0
 13 14  2  0
 16 15  1  6
 16 18  1  0
 16 17  1  0
 17 10  1  0
 18 20  1  0
 19 18  2  0
 20 21  1  0
 21 27  1  0
 21 22  1  1
 23 22  1  0
 24 25  1  0
 24 23  1  0
 26 25  1  0
 27 28  2  0
 27 29  1  0
M  END
$$$$
