SAS.pdb
     RDKit          3D

 18 17  0  0  1  0  0  0  0  0999 V2000
   10.8295  -22.8878   12.6844 O   0  0  0  0  0  0  0  0  0  0  0  0
    9.5966  -23.2928   13.1381 C   0  0  0  0  0  0  0  0  0  0  0  0
    8.8476  -22.2218   13.8912 C   0  0  2  0  0  0  0  0  0  0  0  0
    8.5637  -21.0904   13.0621 N   0  0  0  0  0  0  0  0  0  0  0  0
    9.4837  -21.8642   15.1746 C   0  0  0  0  0  0  0  0  0  0  0  0
   10.1736  -20.8131   15.2124 O   0  0  0  0  0  0  0  0  0  0  0  0
    9.5433  -23.0808   18.7822 C   0  0  0  0  0  0  0  0  0  0  0  0
   10.0033  -22.2769   17.6105 C   0  0  2  0  0  0  0  0  0  0  0  0
    9.3757  -22.6178   16.3704 N   0  0  0  0  0  0  0  0  0  0  0  0
   11.4780  -22.3118   17.5600 C   0  0  0  0  0  0  0  0  0  0  0  0
   11.9903  -23.1042   16.7263 O   0  0  0  0  0  0  0  0  0  0  0  0
   13.9449  -19.6754   16.9116 O   0  0  0  0  0  0  0  0  0  0  0  0
   14.3746  -20.1779   18.1553 C   0  0  0  0  0  0  0  0  0  0  0  0
   13.7522  -21.5348   18.3121 C   0  0  2  0  0  0  0  0  0  0  0  0
   12.3227  -21.5178   18.3824 N   0  0  0  0  0  0  0  0  0  0  0  0
   14.3669  -22.1816   19.5115 C   0  0  0  0  0  0  0  0  0  0  0  0
   13.7047  -22.5014   20.5290 O   0  0  0  0  0  0  0  0  0  0  0  0
   15.7300  -22.4288   19.4743 O   0  0  0  0  0  0  0  0  0  0  0  0
  2  1  1  0
  3  2  1  0
  3  4  1  6
  5  6  2  0
  5  3  1  0
  8  7  1  1
  8  9  1  0
  9  5  1  0
 10  8  1  0
 10 15  1  0
 11 10  2  0
 12 13  1  0
 14 13  1  1
 14 15  1  0
 14 16  1  0
 16 17  2  0
 16 18  1  0
M  END
$$$$
