SAS.pdb
     RDKit          3D

 18 17  0  0  1  0  0  0  0  0999 V2000
    6.9282  -17.6675   15.5028 O   0  0  0  0  0  0  0  0  0  0  0  0
    7.4298  -17.2036   16.6957 C   0  0  0  0  0  0  0  0  0  0  0  0
    8.3072  -15.9854   16.5500 C   0  0  2  0  0  0  0  0  0  0  0  0
    9.3961  -16.2205   15.6516 N   0  0  0  0  0  0  0  0  0  0  0  0
    8.7278  -15.4168   17.8459 C   0  0  0  0  0  0  0  0  0  0  0  0
    9.7736  -15.8750   18.3737 O   0  0  0  0  0  0  0  0  0  0  0  0
    7.5332  -12.7951   20.3463 C   0  0  0  0  0  0  0  0  0  0  0  0
    8.4099  -13.8884   19.8301 C   0  0  2  0  0  0  0  0  0  0  0  0
    8.0404  -14.3910   18.5422 N   0  0  0  0  0  0  0  0  0  0  0  0
    8.5253  -14.9338   20.8658 C   0  0  0  0  0  0  0  0  0  0  0  0
    7.5205  -15.6756   21.0257 O   0  0  0  0  0  0  0  0  0  0  0  0
   11.1108  -17.4872   21.0859 O   0  0  0  0  0  0  0  0  0  0  0  0
    9.9815  -17.5668   21.9239 C   0  0  0  0  0  0  0  0  0  0  0  0
    9.8369  -16.2262   22.5835 C   0  0  2  0  0  0  0  0  0  0  0  0
    9.6811  -15.1376   21.6674 N   0  0  0  0  0  0  0  0  0  0  0  0
   11.0107  -16.0357   23.4894 C   0  0  0  0  0  0  0  0  0  0  0  0
   11.7765  -15.0437   23.4148 O   0  0  0  0  0  0  0  0  0  0  0  0
   11.2428  -17.0113   24.4459 O   0  0  0  0  0  0  0  0  0  0  0  0
  2  1  1  0
  3  2  1  0
  3  4  1  6
  5  6  2  0
  5  3  1  0
  8  7  1  1
  8  9  1  0
  9  5  1  0
 10  8  1  0
 10 15  1  0
 11 10  2  0
 12 13  1  0
 14 13  1  6
 14 15  1  0
 14 16  1  0
 16 17  2  0
 16 18  1  0
M  END
$$$$
