SAS.pdb
     RDKit          3D

 18 17  0  0  1  0  0  0  0  0999 V2000
    7.9475  -17.3023   16.1835 O   0  0  0  0  0  0  0  0  0  0  0  0
    7.4307  -16.0971   15.7710 C   0  0  0  0  0  0  0  0  0  0  0  0
    8.4207  -14.9608   15.8352 C   0  0  2  0  0  0  0  0  0  0  0  0
    9.4922  -15.1378   14.9032 N   0  0  0  0  0  0  0  0  0  0  0  0
    8.8788  -14.6692   17.2080 C   0  0  0  0  0  0  0  0  0  0  0  0
    9.9685  -15.1752   17.5807 O   0  0  0  0  0  0  0  0  0  0  0  0
    7.6575  -12.7844   20.2913 C   0  0  0  0  0  0  0  0  0  0  0  0
    8.5845  -13.6443   19.4964 C   0  0  2  0  0  0  0  0  0  0  0  0
    8.1819  -13.8600   18.1403 N   0  0  0  0  0  0  0  0  0  0  0  0
    8.8381  -14.8898   20.2468 C   0  0  0  0  0  0  0  0  0  0  0  0
    7.9473  -15.7767   20.1753 O   0  0  0  0  0  0  0  0  0  0  0  0
   12.0891  -16.9208   20.5706 O   0  0  0  0  0  0  0  0  0  0  0  0
   10.8779  -17.4294   21.0785 C   0  0  0  0  0  0  0  0  0  0  0  0
   10.2107  -16.3040   21.8143 C   0  0  2  0  0  0  0  0  0  0  0  0
   10.0043  -15.1293   21.0232 N   0  0  0  0  0  0  0  0  0  0  0  0
   11.0164  -16.0216   23.0414 C   0  0  0  0  0  0  0  0  0  0  0  0
   11.4527  -14.8787   23.3233 O   0  0  0  0  0  0  0  0  0  0  0  0
   11.2801  -17.0853   23.8898 O   0  0  0  0  0  0  0  0  0  0  0  0
  2  1  1  0
  3  2  1  0
  3  4  1  6
  5  6  2  0
  5  3  1  0
  8  7  1  1
  8  9  1  0
  9  5  1  0
 10  8  1  0
 10 15  1  0
 11 10  2  0
 12 13  1  0
 14 13  1  6
 14 15  1  0
 14 16  1  0
 16 17  2  0
 16 18  1  0
M  END
$$$$
