SAS.pdb
     RDKit          3D

 18 17  0  0  1  0  0  0  0  0999 V2000
    9.8521  -18.2031   13.8008 O   0  0  0  0  0  0  0  0  0  0  0  0
    9.7433  -18.0249   15.1596 C   0  0  0  0  0  0  0  0  0  0  0  0
    8.3287  -17.7897   15.6274 C   0  0  2  0  0  0  0  0  0  0  0  0
    7.7063  -16.7158   14.9150 N   0  0  0  0  0  0  0  0  0  0  0  0
    8.2176  -17.6635   17.0941 C   0  0  0  0  0  0  0  0  0  0  0  0
    8.1623  -16.5041   17.5787 O   0  0  0  0  0  0  0  0  0  0  0  0
    7.7310  -19.8938   20.1366 C   0  0  0  0  0  0  0  0  0  0  0  0
    8.0793  -18.6291   19.4227 C   0  0  2  0  0  0  0  0  0  0  0  0
    8.1683  -18.7529   17.9998 N   0  0  0  0  0  0  0  0  0  0  0  0
    9.2849  -18.0484   20.0457 C   0  0  0  0  0  0  0  0  0  0  0  0
   10.3807  -18.2899   19.4747 O   0  0  0  0  0  0  0  0  0  0  0  0
    9.1838  -15.9149   23.6327 O   0  0  0  0  0  0  0  0  0  0  0  0
   10.1619  -15.5036   22.7064 C   0  0  0  0  0  0  0  0  0  0  0  0
   10.4388  -16.6814   21.8180 C   0  0  2  0  0  0  0  0  0  0  0  0
    9.2691  -17.2535   21.2239 N   0  0  0  0  0  0  0  0  0  0  0  0
   11.2113  -17.6818   22.6161 C   0  0  0  0  0  0  0  0  0  0  0  0
   10.7689  -18.8242   22.8906 O   0  0  0  0  0  0  0  0  0  0  0  0
   12.4692  -17.3079   23.0615 O   0  0  0  0  0  0  0  0  0  0  0  0
  2  1  1  0
  3  2  1  0
  3  4  1  6
  5  6  2  0
  5  3  1  0
  8  7  1  1
  8  9  1  0
  9  5  1  0
 10  8  1  0
 10 15  1  0
 11 10  2  0
 12 13  1  0
 14 13  1  1
 14 15  1  0
 14 16  1  0
 16 17  2  0
 16 18  1  0
M  END
$$$$
