SAS.pdb
     RDKit          3D

 18 17  0  0  1  0  0  0  0  0999 V2000
    7.5844  -17.6599   10.0641 O   0  0  0  0  0  0  0  0  0  0  0  0
    7.2557  -17.9755   11.3611 C   0  0  0  0  0  0  0  0  0  0  0  0
    6.0338  -17.2513   11.8687 C   0  0  2  0  0  0  0  0  0  0  0  0
    6.1375  -15.8370   11.6763 N   0  0  0  0  0  0  0  0  0  0  0  0
    5.6672  -17.6309   13.2475 C   0  0  0  0  0  0  0  0  0  0  0  0
    5.9394  -16.8194   14.1694 O   0  0  0  0  0  0  0  0  0  0  0  0
    3.8011  -20.4183   15.0504 C   0  0  0  0  0  0  0  0  0  0  0  0
    4.6701  -19.2079   14.9483 C   0  0  2  0  0  0  0  0  0  0  0  0
    5.0303  -18.8437   13.6121 N   0  0  0  0  0  0  0  0  0  0  0  0
    5.8258  -19.3752   15.8511 C   0  0  0  0  0  0  0  0  0  0  0  0
    6.8833  -19.8164   15.3295 O   0  0  0  0  0  0  0  0  0  0  0  0
    5.7081  -18.6715   20.0158 O   0  0  0  0  0  0  0  0  0  0  0  0
    6.8708  -18.2941   19.3162 C   0  0  0  0  0  0  0  0  0  0  0  0
    6.9449  -19.1671   18.0973 C   0  0  2  0  0  0  0  0  0  0  0  0
    5.8032  -19.0717   17.2395 N   0  0  0  0  0  0  0  0  0  0  0  0
    7.1887  -20.5689   18.5557 C   0  0  0  0  0  0  0  0  0  0  0  0
    6.3516  -21.4920   18.4036 O   0  0  0  0  0  0  0  0  0  0  0  0
    8.4003  -20.8362   19.1731 O   0  0  0  0  0  0  0  0  0  0  0  0
  2  1  1  0
  3  2  1  0
  3  4  1  1
  5  6  2  0
  5  3  1  0
  8  7  1  6
  8  9  1  0
  9  5  1  0
 10  8  1  0
 10 15  1  0
 11 10  2  0
 12 13  1  0
 14 13  1  1
 14 15  1  0
 14 16  1  0
 16 17  2  0
 16 18  1  0
M  END
$$$$
