SAS.pdb
     RDKit          3D

 18 17  0  0  1  0  0  0  0  0999 V2000
    6.7304  -18.7371   20.3064 O   0  0  0  0  0  0  0  0  0  0  0  0
    6.0113  -17.6541   19.8595 C   0  0  0  0  0  0  0  0  0  0  0  0
    6.8717  -16.4905   19.4342 C   0  0  2  0  0  0  0  0  0  0  0  0
    7.5525  -16.7563   18.2037 N   0  0  0  0  0  0  0  0  0  0  0  0
    7.7644  -16.0084   20.5066 C   0  0  0  0  0  0  0  0  0  0  0  0
    8.9906  -16.2716   20.4093 O   0  0  0  0  0  0  0  0  0  0  0  0
    7.5309  -14.0202   23.7533 C   0  0  0  0  0  0  0  0  0  0  0  0
    8.2010  -14.8468   22.7052 C   0  0  2  0  0  0  0  0  0  0  0  0
    7.3432  -15.2694   21.6406 N   0  0  0  0  0  0  0  0  0  0  0  0
    8.9226  -15.9539   23.3627 C   0  0  0  0  0  0  0  0  0  0  0  0
    8.2914  -17.0361   23.4881 O   0  0  0  0  0  0  0  0  0  0  0  0
   12.9214  -18.2915   24.2979 O   0  0  0  0  0  0  0  0  0  0  0  0
   12.4048  -17.0595   23.8517 C   0  0  0  0  0  0  0  0  0  0  0  0
   10.9974  -16.9688   24.3658 C   0  0  2  0  0  0  0  0  0  0  0  0
   10.2556  -15.8602   23.8469 N   0  0  0  0  0  0  0  0  0  0  0  0
   11.0585  -16.9553   25.8594 C   0  0  0  0  0  0  0  0  0  0  0  0
   10.6374  -15.9959   26.5510 O   0  0  0  0  0  0  0  0  0  0  0  0
   11.6088  -18.0627   26.4850 O   0  0  0  0  0  0  0  0  0  0  0  0
  2  1  1  0
  3  2  1  0
  3  4  1  6
  5  6  2  0
  5  3  1  0
  8  7  1  1
  8  9  1  0
  9  5  1  0
 10  8  1  0
 10 15  1  0
 11 10  2  0
 12 13  1  0
 14 13  1  6
 14 15  1  0
 14 16  1  0
 16 17  2  0
 16 18  1  0
M  END
$$$$
