SAS.pdb
     RDKit          3D

 18 17  0  0  1  0  0  0  0  0999 V2000
    2.2970  -19.2484   22.9283 O   0  0  0  0  0  0  0  0  0  0  0  0
    2.1869  -19.6850   21.6294 C   0  0  0  0  0  0  0  0  0  0  0  0
    3.0543  -18.9222   20.6594 C   0  0  2  0  0  0  0  0  0  0  0  0
    2.9815  -19.4697   19.3391 N   0  0  0  0  0  0  0  0  0  0  0  0
    4.4370  -18.7359   21.1422 C   0  0  0  0  0  0  0  0  0  0  0  0
    5.2094  -19.7279   21.1008 O   0  0  0  0  0  0  0  0  0  0  0  0
    6.6666  -15.9434   22.4641 C   0  0  0  0  0  0  0  0  0  0  0  0
    6.2818  -17.3576   22.1769 C   0  0  2  0  0  0  0  0  0  0  0  0
    4.9613  -17.5208   21.6503 N   0  0  0  0  0  0  0  0  0  0  0  0
    6.5492  -18.1756   23.3761 C   0  0  0  0  0  0  0  0  0  0  0  0
    5.7393  -18.0482   24.3316 O   0  0  0  0  0  0  0  0  0  0  0  0
    6.5678  -21.5755   23.8903 O   0  0  0  0  0  0  0  0  0  0  0  0
    7.8232  -21.3250   24.4778 C   0  0  0  0  0  0  0  0  0  0  0  0
    7.9190  -19.8404   24.6774 C   0  0  2  0  0  0  0  0  0  0  0  0
    7.6441  -19.0733   23.5008 N   0  0  0  0  0  0  0  0  0  0  0  0
    9.2718  -19.5431   25.2397 C   0  0  0  0  0  0  0  0  0  0  0  0
   10.0504  -18.6981   24.7339 O   0  0  0  0  0  0  0  0  0  0  0  0
    9.6608  -20.2446   26.3698 O   0  0  0  0  0  0  0  0  0  0  0  0
  2  1  1  0
  3  2  1  0
  3  4  1  6
  5  6  2  0
  5  3  1  0
  8  7  1  1
  8  9  1  0
  9  5  1  0
 10  8  1  0
 10 15  1  0
 11 10  2  0
 12 13  1  0
 14 13  1  6
 14 15  1  0
 14 16  1  0
 16 17  2  0
 16 18  1  0
M  END
$$$$
