SAS.pdb
     RDKit          3D

 18 17  0  0  1  0  0  0  0  0999 V2000
   12.6496  -17.5012   16.5004 O   0  0  0  0  0  0  0  0  0  0  0  0
   12.2572  -17.4368   17.8163 C   0  0  0  0  0  0  0  0  0  0  0  0
   11.3129  -18.5413   18.2206 C   0  0  2  0  0  0  0  0  0  0  0  0
   10.0813  -18.4783   17.4944 N   0  0  0  0  0  0  0  0  0  0  0  0
   11.1282  -18.6388   19.6820 C   0  0  0  0  0  0  0  0  0  0  0  0
   10.0820  -18.1429   20.1737 O   0  0  0  0  0  0  0  0  0  0  0  0
   12.8088  -20.2562   22.6877 C   0  0  0  0  0  0  0  0  0  0  0  0
   11.8806  -19.3126   21.9959 C   0  0  2  0  0  0  0  0  0  0  0  0
   12.0431  -19.2506   20.5755 N   0  0  0  0  0  0  0  0  0  0  0  0
   11.9575  -17.9972   22.6613 C   0  0  0  0  0  0  0  0  0  0  0  0
   12.8679  -17.2229   22.2654 O   0  0  0  0  0  0  0  0  0  0  0  0
    8.7997  -16.2005   24.5225 O   0  0  0  0  0  0  0  0  0  0  0  0
    9.8976  -15.4477   24.0624 C   0  0  0  0  0  0  0  0  0  0  0  0
   11.1237  -16.2795   24.3030 C   0  0  2  0  0  0  0  0  0  0  0  0
   11.0798  -17.5751   23.6965 N   0  0  0  0  0  0  0  0  0  0  0  0
   11.3385  -16.3568   25.7804 C   0  0  0  0  0  0  0  0  0  0  0  0
   11.5701  -15.3475   26.4901 O   0  0  0  0  0  0  0  0  0  0  0  0
   11.2742  -17.6096   26.3693 O   0  0  0  0  0  0  0  0  0  0  0  0
  2  1  1  0
  3  2  1  0
  3  4  1  6
  5  6  2  0
  5  3  1  0
  8  7  1  1
  8  9  1  0
  9  5  1  0
 10  8  1  0
 10 15  1  0
 11 10  2  0
 12 13  1  0
 14 13  1  1
 14 15  1  0
 14 16  1  0
 16 17  2  0
 16 18  1  0
M  END
$$$$
