SAS.pdb
     RDKit          3D

 18 17  0  0  1  0  0  0  0  0999 V2000
   11.7481  -12.8709   17.6317 O   0  0  0  0  0  0  0  0  0  0  0  0
   11.0417  -13.2285   18.7555 C   0  0  0  0  0  0  0  0  0  0  0  0
    9.8441  -14.0986   18.4658 C   0  0  2  0  0  0  0  0  0  0  0  0
    8.7995  -13.3647   17.8191 N   0  0  0  0  0  0  0  0  0  0  0  0
    9.3839  -14.8606   19.6435 C   0  0  0  0  0  0  0  0  0  0  0  0
    8.4402  -14.3774   20.3204 O   0  0  0  0  0  0  0  0  0  0  0  0
    9.8315  -18.3144   21.1385 C   0  0  0  0  0  0  0  0  0  0  0  0
    9.4262  -16.8771   21.1620 C   0  0  2  0  0  0  0  0  0  0  0  0
    9.9264  -16.0988   20.0703 N   0  0  0  0  0  0  0  0  0  0  0  0
    9.7460  -16.3150   22.4889 C   0  0  0  0  0  0  0  0  0  0  0  0
   10.9106  -15.8601   22.6373 O   0  0  0  0  0  0  0  0  0  0  0  0
    6.7990  -15.4240   24.8183 O   0  0  0  0  0  0  0  0  0  0  0  0
    7.9576  -14.9493   25.4633 C   0  0  0  0  0  0  0  0  0  0  0  0
    9.1226  -15.6610   24.8394 C   0  0  2  0  0  0  0  0  0  0  0  0
    8.8302  -16.2640   23.5747 N   0  0  0  0  0  0  0  0  0  0  0  0
    9.6334  -16.6551   25.8321 C   0  0  0  0  0  0  0  0  0  0  0  0
    9.7317  -17.8813   25.5813 O   0  0  0  0  0  0  0  0  0  0  0  0
   10.0089  -16.1772   27.0775 O   0  0  0  0  0  0  0  0  0  0  0  0
  2  1  1  0
  3  2  1  0
  3  4  1  1
  5  6  2  0
  5  3  1  0
  8  7  1  1
  8  9  1  0
  9  5  1  0
 10  8  1  0
 10 15  1  0
 11 10  2  0
 12 13  1  0
 14 13  1  1
 14 15  1  0
 14 16  1  0
 16 17  2  0
 16 18  1  0
M  END
$$$$
