SAS.pdb
     RDKit          3D

 18 17  0  0  1  0  0  0  0  0999 V2000
    8.2693  -17.3353   18.1896 O   0  0  0  0  0  0  0  0  0  0  0  0
    9.0214  -17.2129   17.0454 C   0  0  0  0  0  0  0  0  0  0  0  0
    9.1066  -15.7993   16.5260 C   0  0  2  0  0  0  0  0  0  0  0  0
   10.0665  -15.6788   15.4714 N   0  0  0  0  0  0  0  0  0  0  0  0
    9.2827  -14.7988   17.5971 C   0  0  0  0  0  0  0  0  0  0  0  0
   10.4528  -14.5726   17.9994 O   0  0  0  0  0  0  0  0  0  0  0  0
    7.1753  -12.4054   19.6809 C   0  0  0  0  0  0  0  0  0  0  0  0
    8.3775  -13.2295   19.3556 C   0  0  2  0  0  0  0  0  0  0  0  0
    8.2302  -14.0719   18.2082 N   0  0  0  0  0  0  0  0  0  0  0  0
    8.8027  -13.9501   20.5717 C   0  0  0  0  0  0  0  0  0  0  0  0
    9.0311  -13.2440   21.5887 O   0  0  0  0  0  0  0  0  0  0  0  0
    9.0241  -18.0795   20.7017 O   0  0  0  0  0  0  0  0  0  0  0  0
    8.7310  -17.4500   21.9271 C   0  0  0  0  0  0  0  0  0  0  0  0
    9.2997  -16.0632   21.8480 C   0  0  2  0  0  0  0  0  0  0  0  0
    8.9623  -15.3604   20.6477 N   0  0  0  0  0  0  0  0  0  0  0  0
   10.7782  -16.1658   22.0433 C   0  0  0  0  0  0  0  0  0  0  0  0
   11.2979  -16.6524   23.0773 O   0  0  0  0  0  0  0  0  0  0  0  0
   11.5902  -15.6959   21.0233 O   0  0  0  0  0  0  0  0  0  0  0  0
  2  1  1  0
  3  2  1  0
  3  4  1  6
  5  6  2  0
  5  3  1  0
  8  7  1  1
  8  9  1  0
  9  5  1  0
 10  8  1  0
 10 15  1  0
 11 10  2  0
 12 13  1  0
 14 13  1  6
 14 15  1  0
 14 16  1  0
 16 17  2  0
 16 18  1  0
M  END
$$$$
