SAS.pdb
     RDKit          3D

 18 17  0  0  1  0  0  0  0  0999 V2000
    8.1234  -17.3644   15.7437 O   0  0  0  0  0  0  0  0  0  0  0  0
    7.3284  -16.3165   15.3441 C   0  0  0  0  0  0  0  0  0  0  0  0
    8.0810  -15.0223   15.1601 C   0  0  2  0  0  0  0  0  0  0  0  0
    8.9022  -15.0484   13.9884 N   0  0  0  0  0  0  0  0  0  0  0  0
    8.8041  -14.5956   16.3744 C   0  0  0  0  0  0  0  0  0  0  0  0
   10.0411  -14.8177   16.4267 O   0  0  0  0  0  0  0  0  0  0  0  0
    8.0707  -12.8248   19.6721 C   0  0  0  0  0  0  0  0  0  0  0  0
    8.9099  -13.5427   18.6666 C   0  0  2  0  0  0  0  0  0  0  0  0
    8.2084  -13.9529   17.4887 N   0  0  0  0  0  0  0  0  0  0  0  0
    9.6278  -14.6403   19.3438 C   0  0  0  0  0  0  0  0  0  0  0  0
    9.0258  -15.7439   19.4117 O   0  0  0  0  0  0  0  0  0  0  0  0
   13.4945  -14.2041   20.7705 O   0  0  0  0  0  0  0  0  0  0  0  0
   13.1125  -15.5171   20.4331 C   0  0  0  0  0  0  0  0  0  0  0  0
   11.6187  -15.5807   20.5658 C   0  0  2  0  0  0  0  0  0  0  0  0
   10.9272  -14.5152   19.9062 N   0  0  0  0  0  0  0  0  0  0  0  0
   11.2935  -15.6453   22.0234 C   0  0  0  0  0  0  0  0  0  0  0  0
   10.4986  -14.8496   22.5812 O   0  0  0  0  0  0  0  0  0  0  0  0
   11.9097  -16.6363   22.7709 O   0  0  0  0  0  0  0  0  0  0  0  0
  2  1  1  0
  3  2  1  0
  3  4  1  6
  5  6  2  0
  5  3  1  0
  8  7  1  1
  8  9  1  0
  9  5  1  0
 10  8  1  0
 10 15  1  0
 11 10  2  0
 12 13  1  0
 14 13  1  1
 14 15  1  0
 14 16  1  0
 16 17  2  0
 16 18  1  0
M  END
$$$$
