SAS.pdb
     RDKit          3D

 18 17  0  0  1  0  0  0  0  0999 V2000
    9.7197  -11.8536   19.4485 O   0  0  0  0  0  0  0  0  0  0  0  0
    9.7690  -13.0159   18.7163 C   0  0  0  0  0  0  0  0  0  0  0  0
    8.5254  -13.8609   18.8383 C   0  0  2  0  0  0  0  0  0  0  0  0
    7.3362  -13.0689   18.7571 N   0  0  0  0  0  0  0  0  0  0  0  0
    8.5512  -14.7632   20.0065 C   0  0  0  0  0  0  0  0  0  0  0  0
    7.7670  -14.5115   20.9572 O   0  0  0  0  0  0  0  0  0  0  0  0
   10.2823  -17.9836   21.0911 C   0  0  0  0  0  0  0  0  0  0  0  0
    9.3596  -16.8176   21.2312 C   0  0  2  0  0  0  0  0  0  0  0  0
    9.3949  -15.8947   20.1381 N   0  0  0  0  0  0  0  0  0  0  0  0
    9.5847  -16.1891   22.5477 C   0  0  0  0  0  0  0  0  0  0  0  0
   10.5059  -15.3329   22.6082 O   0  0  0  0  0  0  0  0  0  0  0  0
    6.7671  -16.1667   25.3560 O   0  0  0  0  0  0  0  0  0  0  0  0
    7.8286  -15.2741   25.6012 C   0  0  0  0  0  0  0  0  0  0  0  0
    9.0567  -15.8843   24.9910 C   0  0  2  0  0  0  0  0  0  0  0  0
    8.8345  -16.4946   23.7156 N   0  0  0  0  0  0  0  0  0  0  0  0
    9.6282  -16.8456   25.9829 C   0  0  0  0  0  0  0  0  0  0  0  0
    9.8297  -18.0569   25.7214 O   0  0  0  0  0  0  0  0  0  0  0  0
    9.9413  -16.3537   27.2401 O   0  0  0  0  0  0  0  0  0  0  0  0
  2  1  1  0
  3  2  1  0
  3  4  1  1
  5  6  2  0
  5  3  1  0
  8  7  1  6
  8  9  1  0
  9  5  1  0
 10  8  1  0
 10 15  1  0
 11 10  2  0
 12 13  1  0
 14 13  1  1
 14 15  1  0
 14 16  1  0
 16 17  2  0
 16 18  1  0
M  END
$$$$
