SAS.pdb
     RDKit          3D

 18 17  0  0  1  0  0  0  0  0999 V2000
    9.7918  -16.6728   10.7979 O   0  0  0  0  0  0  0  0  0  0  0  0
    9.0944  -17.8467   10.9574 C   0  0  0  0  0  0  0  0  0  0  0  0
    7.7824  -17.6771   11.6819 C   0  0  2  0  0  0  0  0  0  0  0  0
    7.3291  -16.3201   11.6474 N   0  0  0  0  0  0  0  0  0  0  0  0
    7.7911  -18.2588   13.0388 C   0  0  0  0  0  0  0  0  0  0  0  0
    7.0072  -17.7672   13.8908 O   0  0  0  0  0  0  0  0  0  0  0  0
    9.2504  -21.2612   14.8473 C   0  0  0  0  0  0  0  0  0  0  0  0
    8.5991  -19.9200   14.7597 C   0  0  2  0  0  0  0  0  0  0  0  0
    8.6183  -19.3321   13.4551 N   0  0  0  0  0  0  0  0  0  0  0  0
    9.1594  -19.0501   15.8123 C   0  0  0  0  0  0  0  0  0  0  0  0
   10.1113  -18.3005   15.4701 O   0  0  0  0  0  0  0  0  0  0  0  0
    7.6680  -18.9715   19.7119 O   0  0  0  0  0  0  0  0  0  0  0  0
    8.1783  -17.7602   19.2057 C   0  0  0  0  0  0  0  0  0  0  0  0
    9.1853  -18.1214   18.1528 C   0  0  2  0  0  0  0  0  0  0  0  0
    8.6903  -19.0187   17.1537 N   0  0  0  0  0  0  0  0  0  0  0  0
   10.3943  -18.6624   18.8458 C   0  0  0  0  0  0  0  0  0  0  0  0
   10.7958  -19.8424   18.6963 O   0  0  0  0  0  0  0  0  0  0  0  0
   11.0857  -17.8035   19.6854 O   0  0  0  0  0  0  0  0  0  0  0  0
  2  1  1  0
  3  2  1  0
  3  4  1  1
  5  6  2  0
  5  3  1  0
  8  7  1  6
  8  9  1  0
  9  5  1  0
 10  8  1  0
 10 15  1  0
 11 10  2  0
 12 13  1  0
 14 13  1  1
 14 15  1  0
 14 16  1  0
 16 17  2  0
 16 18  1  0
M  END
$$$$
