SAS.pdb
     RDKit          3D

 18 17  0  0  1  0  0  0  0  0999 V2000
   -2.0234  -25.0448   30.8136 O   0  0  0  0  0  0  0  0  0  0  0  0
   -1.6303  -25.4707   29.5670 C   0  0  0  0  0  0  0  0  0  0  0  0
   -2.5087  -26.5545   28.9934 C   0  0  2  0  0  0  0  0  0  0  0  0
   -1.9925  -27.0562   27.7565 N   0  0  0  0  0  0  0  0  0  0  0  0
   -3.9320  -26.1689   28.9222 C   0  0  0  0  0  0  0  0  0  0  0  0
   -4.2660  -25.3239   28.0524 O   0  0  0  0  0  0  0  0  0  0  0  0
   -7.2433  -27.0730   30.5742 C   0  0  0  0  0  0  0  0  0  0  0  0
   -6.3144  -26.2387   29.7547 C   0  0  2  0  0  0  0  0  0  0  0  0
   -4.9531  -26.6800   29.7621 N   0  0  0  0  0  0  0  0  0  0  0  0
   -6.4829  -24.8235   30.1388 C   0  0  0  0  0  0  0  0  0  0  0  0
   -5.7372  -24.4021   31.0616 O   0  0  0  0  0  0  0  0  0  0  0  0
   -6.4882  -21.9077   27.8317 O   0  0  0  0  0  0  0  0  0  0  0  0
   -7.6256  -21.6625   28.6254 C   0  0  0  0  0  0  0  0  0  0  0  0
   -7.5070  -22.5431   29.8352 C   0  0  2  0  0  0  0  0  0  0  0  0
   -7.4184  -23.9398   29.5353 N   0  0  0  0  0  0  0  0  0  0  0  0
   -8.6574  -22.2333   30.7381 C   0  0  0  0  0  0  0  0  0  0  0  0
   -9.5636  -23.0624   30.9979 O   0  0  0  0  0  0  0  0  0  0  0  0
   -8.7031  -20.9679   31.3014 O   0  0  0  0  0  0  0  0  0  0  0  0
  2  1  1  0
  3  2  1  0
  3  4  1  6
  5  6  2  0
  5  3  1  0
  8  7  1  1
  8  9  1  0
  9  5  1  0
 10  8  1  0
 10 15  1  0
 11 10  2  0
 12 13  1  0
 14 13  1  6
 14 15  1  0
 14 16  1  0
 16 17  2  0
 16 18  1  0
M  END
$$$$
