SAS.pdb
     RDKit          3D

 18 17  0  0  1  0  0  0  0  0999 V2000
    7.7274  -17.6839   16.7691 O   0  0  0  0  0  0  0  0  0  0  0  0
    7.4860  -16.5670   16.0048 C   0  0  0  0  0  0  0  0  0  0  0  0
    8.5887  -15.5399   16.0694 C   0  0  2  0  0  0  0  0  0  0  0  0
    9.7310  -15.9394   15.3054 N   0  0  0  0  0  0  0  0  0  0  0  0
    8.9190  -15.1315   17.4491 C   0  0  0  0  0  0  0  0  0  0  0  0
    9.9056  -15.6823   18.0018 O   0  0  0  0  0  0  0  0  0  0  0  0
    7.6374  -12.7110   20.1046 C   0  0  0  0  0  0  0  0  0  0  0  0
    8.5411  -13.7517   19.5294 C   0  0  2  0  0  0  0  0  0  0  0  0
    8.2066  -14.1630   18.2002 N   0  0  0  0  0  0  0  0  0  0  0  0
    8.6497  -14.8689   20.4880 C   0  0  0  0  0  0  0  0  0  0  0  0
    7.8506  -15.8276   20.3220 O   0  0  0  0  0  0  0  0  0  0  0  0
   11.0428  -18.2271   21.9381 O   0  0  0  0  0  0  0  0  0  0  0  0
   10.7251  -17.0661   21.2068 C   0  0  0  0  0  0  0  0  0  0  0  0
   10.0513  -16.1242   22.1617 C   0  0  2  0  0  0  0  0  0  0  0  0
    9.5849  -14.9134   21.5574 N   0  0  0  0  0  0  0  0  0  0  0  0
   10.9990  -15.8623   23.2876 C   0  0  0  0  0  0  0  0  0  0  0  0
   11.4100  -14.7128   23.5805 O   0  0  0  0  0  0  0  0  0  0  0  0
   11.4287  -16.9534   24.0262 O   0  0  0  0  0  0  0  0  0  0  0  0
  2  1  1  0
  3  2  1  0
  3  4  1  1
  5  6  2  0
  5  3  1  0
  8  7  1  1
  8  9  1  0
  9  5  1  0
 10  8  1  0
 10 15  1  0
 11 10  2  0
 12 13  1  0
 14 13  1  6
 14 15  1  0
 14 16  1  0
 16 17  2  0
 16 18  1  0
M  END
$$$$
