DNE.pdb
     RDKit          3D

 26 25  0  0  1  0  0  0  0  0999 V2000
   15.7911  -13.2542  -15.8344 N   0  0  0  0  0  0  0  0  0  0  0  0
   17.1771  -13.2899  -15.4526 C   0  0  1  0  0  0  0  0  0  0  0  0
   17.7510  -14.6670  -15.6135 C   0  0  0  0  0  0  0  0  0  0  0  0
   17.0624  -15.6782  -14.8018 C   0  0  0  0  0  0  0  0  0  0  0  0
   15.8258  -15.7666  -14.7863 O   0  0  0  0  0  0  0  0  0  0  0  0
   17.9992  -12.2840  -16.1437 C   0  0  0  0  0  0  0  0  0  0  0  0
   18.8929  -12.7211  -16.9583 O   0  0  0  0  0  0  0  0  0  0  0  0
   17.8708  -16.5482  -14.0360 O   0  0  0  0  0  0  0  0  0  0  0  0
   20.2383   -9.2608  -19.6762 N   0  0  0  0  0  0  0  0  0  0  0  0
   19.0096   -8.9939  -19.0304 C   0  0  0  0  0  0  0  0  0  0  0  0
   18.5017   -7.8557  -19.1745 O   0  0  0  0  0  0  0  0  0  0  0  0
   18.2958   -9.9658  -18.2067 C   0  0  0  0  0  0  0  0  0  0  0  0
   18.6158   -9.9764  -16.7590 C   0  0  2  0  0  0  0  0  0  0  0  0
   17.8645  -10.8865  -15.9583 N   0  0  0  0  0  0  0  0  0  0  0  0
   18.4468   -8.5516  -16.2806 C   0  0  0  0  0  0  0  0  0  0  0  0
   17.3444   -8.0640  -16.0040 O   0  0  0  0  0  0  0  0  0  0  0  0
   19.5972   -7.7454  -16.1447 N   0  0  0  0  0  0  0  0  0  0  0  0
   19.5408   -6.4610  -15.4892 C   0  0  1  0  0  0  0  0  0  0  0  0
   20.8262   -6.3327  -14.6998 C   0  0  0  0  0  0  0  0  0  0  0  0
   20.7729   -4.9454  -14.0376 C   0  0  0  0  0  0  0  0  0  0  0  0
   22.0082   -4.6876  -13.2757 C   0  0  0  0  0  0  0  0  0  0  0  0
   22.7961   -5.6351  -13.0606 O   0  0  0  0  0  0  0  0  0  0  0  0
   19.2977   -5.3469  -16.3889 C   0  0  0  0  0  0  0  0  0  0  0  0
   19.7203   -5.3836  -17.5577 O   0  0  0  0  0  0  0  0  0  0  0  0
   22.3252   -3.4317  -12.7945 O   0  0  0  0  0  0  0  0  0  0  0  0
   18.6010   -4.2397  -15.9678 O   0  0  0  0  0  0  0  0  0  0  0  0
  2  3  1  0
  2  1  1  6
  4  8  1  0
  4  3  1  0
  5  4  2  0
  6  2  1  0
  7  6  2  0
  9 10  1  0
 10 12  1  0
 11 10  2  0
 13 12  1  6
 13 14  1  0
 14  6  1  0
 15 17  1  0
 15 13  1  0
 16 15  2  0
 18 23  1  0
 18 17  1  0
 18 19  1  6
 19 20  1  0
 21 22  2  0
 21 20  1  0
 23 26  1  0
 24 23  2  0
 25 21  1  0
M  END
$$$$
