DNE.pdb
     RDKit          3D

 26 25  0  0  1  0  0  0  0  0999 V2000
   18.4748  -10.6079  -16.5564 N   0  0  0  0  0  0  0  0  0  0  0  0
   19.7544  -11.2609  -16.4906 C   0  0  1  0  0  0  0  0  0  0  0  0
   20.0185  -12.0675  -17.7280 C   0  0  0  0  0  0  0  0  0  0  0  0
   19.0302  -13.1311  -17.9461 C   0  0  0  0  0  0  0  0  0  0  0  0
   18.2738  -13.1232  -18.9285 O   0  0  0  0  0  0  0  0  0  0  0  0
   20.8659  -10.3398  -16.2053 C   0  0  0  0  0  0  0  0  0  0  0  0
   20.8681   -9.7677  -15.0538 O   0  0  0  0  0  0  0  0  0  0  0  0
   18.9767  -14.1665  -16.9860 O   0  0  0  0  0  0  0  0  0  0  0  0
   25.0958   -7.2085  -16.3076 N   0  0  0  0  0  0  0  0  0  0  0  0
   25.2728   -8.3113  -17.1739 C   0  0  0  0  0  0  0  0  0  0  0  0
   26.4067   -8.4877  -17.6813 O   0  0  0  0  0  0  0  0  0  0  0  0
   24.2137   -9.2583  -17.5118 C   0  0  0  0  0  0  0  0  0  0  0  0
   22.9379   -9.1258  -16.7679 C   0  0  2  0  0  0  0  0  0  0  0  0
   21.9106  -10.0513  -17.1169 N   0  0  0  0  0  0  0  0  0  0  0  0
   22.4831   -7.6968  -16.9645 C   0  0  0  0  0  0  0  0  0  0  0  0
   22.1336   -7.2501  -18.0637 O   0  0  0  0  0  0  0  0  0  0  0  0
   22.4571   -6.8377  -15.8451 N   0  0  0  0  0  0  0  0  0  0  0  0
   21.9949   -5.4750  -15.9550 C   0  0  1  0  0  0  0  0  0  0  0  0
   20.4828   -5.5371  -15.9144 C   0  0  0  0  0  0  0  0  0  0  0  0
   20.0016   -4.0814  -16.0378 C   0  0  0  0  0  0  0  0  0  0  0  0
   18.5318   -4.0127  -15.9497 C   0  0  0  0  0  0  0  0  0  0  0  0
   18.0108   -3.3114  -15.0543 O   0  0  0  0  0  0  0  0  0  0  0  0
   22.5662   -4.5745  -14.9689 C   0  0  0  0  0  0  0  0  0  0  0  0
   22.9205   -3.4293  -15.2991 O   0  0  0  0  0  0  0  0  0  0  0  0
   17.7111   -4.6956  -16.8268 O   0  0  0  0  0  0  0  0  0  0  0  0
   22.7244   -4.9688  -13.6619 O   0  0  0  0  0  0  0  0  0  0  0  0
  2  3  1  0
  2  1  1  6
  4  8  1  0
  4  3  1  0
  5  4  2  0
  6  2  1  0
  7  6  2  0
  9 10  1  0
 10 12  1  0
 11 10  2  0
 13 12  1  6
 13 14  1  0
 14  6  1  0
 15 17  1  0
 15 13  1  0
 16 15  2  0
 18 23  1  0
 18 17  1  0
 18 19  1  1
 19 20  1  0
 21 22  2  0
 21 20  1  0
 23 26  1  0
 24 23  2  0
 25 21  1  0
M  END
$$$$
