DNE.pdb
     RDKit          3D

 26 25  0  0  1  0  0  0  0  0999 V2000
   17.3524  -12.9044  -17.0752 N   0  0  0  0  0  0  0  0  0  0  0  0
   16.6899  -12.1310  -16.0599 C   0  0  1  0  0  0  0  0  0  0  0  0
   17.0997  -12.5716  -14.6854 C   0  0  0  0  0  0  0  0  0  0  0  0
   16.6738  -13.9399  -14.3664 C   0  0  0  0  0  0  0  0  0  0  0  0
   15.8078  -14.5231  -15.0351 O   0  0  0  0  0  0  0  0  0  0  0  0
   16.8591  -10.6790  -16.2286 C   0  0  0  0  0  0  0  0  0  0  0  0
   17.9687  -10.2767  -16.7388 O   0  0  0  0  0  0  0  0  0  0  0  0
   17.2936  -14.5655  -13.2613 O   0  0  0  0  0  0  0  0  0  0  0  0
   12.5469   -7.8931  -17.0637 N   0  0  0  0  0  0  0  0  0  0  0  0
   13.9457   -7.8406  -17.2603 C   0  0  0  0  0  0  0  0  0  0  0  0
   14.3925   -8.1151  -18.4002 O   0  0  0  0  0  0  0  0  0  0  0  0
   14.9011   -7.4841  -16.2151 C   0  0  0  0  0  0  0  0  0  0  0  0
   16.1122   -8.3318  -16.1008 C   0  0  2  0  0  0  0  0  0  0  0  0
   15.8851   -9.7191  -15.8606 N   0  0  0  0  0  0  0  0  0  0  0  0
   16.9563   -7.7137  -15.0085 C   0  0  0  0  0  0  0  0  0  0  0  0
   16.7768   -7.9506  -13.8080 O   0  0  0  0  0  0  0  0  0  0  0  0
   17.9926   -6.8292  -15.3767 N   0  0  0  0  0  0  0  0  0  0  0  0
   18.7747   -6.1339  -14.3830 C   0  0  1  0  0  0  0  0  0  0  0  0
   20.1977   -6.1191  -14.8997 C   0  0  0  0  0  0  0  0  0  0  0  0
   21.0397   -5.4740  -13.7859 C   0  0  0  0  0  0  0  0  0  0  0  0
   22.4498   -5.3636  -14.2008 C   0  0  0  0  0  0  0  0  0  0  0  0
   23.0631   -6.3985  -14.5440 O   0  0  0  0  0  0  0  0  0  0  0  0
   18.2659   -4.8163  -14.0442 C   0  0  0  0  0  0  0  0  0  0  0  0
   18.5230   -4.3125  -12.9369 O   0  0  0  0  0  0  0  0  0  0  0  0
   23.1149   -4.1527  -14.2261 O   0  0  0  0  0  0  0  0  0  0  0  0
   17.4963   -4.1072  -14.9351 O   0  0  0  0  0  0  0  0  0  0  0  0
  2  3  1  0
  2  1  1  6
  4  8  1  0
  4  3  1  0
  5  4  2  0
  6  2  1  0
  7  6  2  0
  9 10  1  0
 10 12  1  0
 11 10  2  0
 13 12  1  1
 13 14  1  0
 14  6  1  0
 15 17  1  0
 15 13  1  0
 16 15  2  0
 18 23  1  0
 18 17  1  0
 18 19  1  6
 19 20  1  0
 21 22  2  0
 21 20  1  0
 23 26  1  0
 24 23  2  0
 25 21  1  0
M  END
$$$$
