DNE.pdb
     RDKit          3D

 26 25  0  0  1  0  0  0  0  0999 V2000
   15.5336  -10.8428  -13.3458 N   0  0  0  0  0  0  0  0  0  0  0  0
   14.9381   -9.5560  -13.5856 C   0  0  1  0  0  0  0  0  0  0  0  0
   13.5131   -9.5194  -13.1171 C   0  0  0  0  0  0  0  0  0  0  0  0
   12.6781  -10.5626  -13.7254 C   0  0  0  0  0  0  0  0  0  0  0  0
   13.1449  -11.3792  -14.5333 O   0  0  0  0  0  0  0  0  0  0  0  0
   15.7146   -8.4395  -13.0235 C   0  0  0  0  0  0  0  0  0  0  0  0
   15.3002   -7.2509  -13.2857 O   0  0  0  0  0  0  0  0  0  0  0  0
   11.3159  -10.5961  -13.3511 O   0  0  0  0  0  0  0  0  0  0  0  0
   15.3654   -6.6635  -10.1838 N   0  0  0  0  0  0  0  0  0  0  0  0
   16.6228   -6.9426   -9.6015 C   0  0  0  0  0  0  0  0  0  0  0  0
   16.7174   -6.8985   -8.3512 O   0  0  0  0  0  0  0  0  0  0  0  0
   17.8178   -7.2808  -10.3698 C   0  0  0  0  0  0  0  0  0  0  0  0
   17.6417   -7.4670  -11.8301 C   0  0  2  0  0  0  0  0  0  0  0  0
   16.8754   -8.6018  -12.2288 N   0  0  0  0  0  0  0  0  0  0  0  0
   19.0339   -7.5067  -12.4198 C   0  0  0  0  0  0  0  0  0  0  0  0
   19.4839   -8.4965  -13.0092 O   0  0  0  0  0  0  0  0  0  0  0  0
   19.8532   -6.3648  -12.2908 N   0  0  0  0  0  0  0  0  0  0  0  0
   20.9629   -6.1322  -13.1836 C   0  0  1  0  0  0  0  0  0  0  0  0
   20.3996   -6.2089  -14.5868 C   0  0  0  0  0  0  0  0  0  0  0  0
   21.6005   -6.0226  -15.5296 C   0  0  0  0  0  0  0  0  0  0  0  0
   21.1604   -6.0303  -16.9364 C   0  0  0  0  0  0  0  0  0  0  0  0
   22.0241   -6.0232  -17.8413 O   0  0  0  0  0  0  0  0  0  0  0  0
   21.6911   -4.9043  -12.9160 C   0  0  0  0  0  0  0  0  0  0  0  0
   21.0874   -3.8942  -12.5146 O   0  0  0  0  0  0  0  0  0  0  0  0
   19.8240   -6.0488  -17.2873 O   0  0  0  0  0  0  0  0  0  0  0  0
   23.0514   -4.8369  -13.1002 O   0  0  0  0  0  0  0  0  0  0  0  0
  2  3  1  0
  2  1  1  1
  4  8  1  0
  4  3  1  0
  5  4  2  0
  6  2  1  0
  7  6  2  0
  9 10  1  0
 10 12  1  0
 11 10  2  0
 13 12  1  1
 13 14  1  0
 14  6  1  0
 15 17  1  0
 15 13  1  0
 16 15  2  0
 18 23  1  0
 18 17  1  0
 18 19  1  6
 19 20  1  0
 21 22  2  0
 21 20  1  0
 23 26  1  0
 24 23  2  0
 25 21  1  0
M  END
$$$$
