DNE.pdb
     RDKit          3D

 26 25  0  0  1  0  0  0  0  0999 V2000
   15.9170  -10.7712  -10.1411 N   0  0  0  0  0  0  0  0  0  0  0  0
   14.9837   -9.9929  -10.9100 C   0  0  1  0  0  0  0  0  0  0  0  0
   13.5808  -10.4956  -10.7347 C   0  0  0  0  0  0  0  0  0  0  0  0
   13.4213  -11.9059  -11.1106 C   0  0  0  0  0  0  0  0  0  0  0  0
   14.3283  -12.5336  -11.6768 O   0  0  0  0  0  0  0  0  0  0  0  0
   15.0708   -8.5480  -10.6452 C   0  0  0  0  0  0  0  0  0  0  0  0
   14.3910   -7.7724  -11.4130 O   0  0  0  0  0  0  0  0  0  0  0  0
   12.1866  -12.5189  -10.7999 O   0  0  0  0  0  0  0  0  0  0  0  0
   13.1949   -5.9097   -8.8147 N   0  0  0  0  0  0  0  0  0  0  0  0
   14.2322   -5.7402   -7.8695 C   0  0  0  0  0  0  0  0  0  0  0  0
   13.9240   -5.3462   -6.7188 O   0  0  0  0  0  0  0  0  0  0  0  0
   15.6412   -5.9983   -8.1532 C   0  0  0  0  0  0  0  0  0  0  0  0
   15.9611   -6.5603   -9.4874 C   0  0  2  0  0  0  0  0  0  0  0  0
   15.8536   -7.9769   -9.6124 N   0  0  0  0  0  0  0  0  0  0  0  0
   17.3562   -6.0813   -9.8219 C   0  0  0  0  0  0  0  0  0  0  0  0
   18.3489   -6.3887   -9.1512 O   0  0  0  0  0  0  0  0  0  0  0  0
   17.5309   -5.2481  -10.9475 N   0  0  0  0  0  0  0  0  0  0  0  0
   18.8111   -5.1307  -11.6033 C   0  0  1  0  0  0  0  0  0  0  0  0
   19.2355   -6.5402  -11.9569 C   0  0  0  0  0  0  0  0  0  0  0  0
   20.5770   -6.3992  -12.6963 C   0  0  0  0  0  0  0  0  0  0  0  0
   21.0503   -7.7141  -13.1653 C   0  0  0  0  0  0  0  0  0  0  0  0
   20.5275   -8.7489  -12.6956 O   0  0  0  0  0  0  0  0  0  0  0  0
   18.8153   -4.2211  -12.7357 C   0  0  0  0  0  0  0  0  0  0  0  0
   19.8682   -3.6569  -13.0805 O   0  0  0  0  0  0  0  0  0  0  0  0
   22.0509   -7.8398  -14.1099 O   0  0  0  0  0  0  0  0  0  0  0  0
   17.6636   -3.9694  -13.4420 O   0  0  0  0  0  0  0  0  0  0  0  0
  2  3  1  0
  2  1  1  1
  4  8  1  0
  4  3  1  0
  5  4  2  0
  6  2  1  0
  7  6  2  0
  9 10  1  0
 10 12  1  0
 11 10  2  0
 13 12  1  1
 13 14  1  0
 14  6  1  0
 15 17  1  0
 15 13  1  0
 16 15  2  0
 18 23  1  0
 18 17  1  0
 18 19  1  6
 19 20  1  0
 21 22  2  0
 21 20  1  0
 23 26  1  0
 24 23  2  0
 25 21  1  0
M  END
$$$$
