DNE.pdb
     RDKit          3D

 26 25  0  0  1  0  0  0  0  0999 V2000
   19.7467  -10.5858  -16.3753 N   0  0  0  0  0  0  0  0  0  0  0  0
   18.7023   -9.8210  -15.7491 C   0  0  1  0  0  0  0  0  0  0  0  0
   17.9414  -10.6493  -14.7559 C   0  0  0  0  0  0  0  0  0  0  0  0
   17.4842  -11.9325  -15.3035 C   0  0  0  0  0  0  0  0  0  0  0  0
   17.0293  -12.0228  -16.4534 O   0  0  0  0  0  0  0  0  0  0  0  0
   19.1789   -8.5665  -15.1456 C   0  0  0  0  0  0  0  0  0  0  0  0
   18.7807   -8.3060  -13.9511 O   0  0  0  0  0  0  0  0  0  0  0  0
   17.5839  -13.0633  -14.4620 O   0  0  0  0  0  0  0  0  0  0  0  0
   21.7915   -4.3762  -13.5471 N   0  0  0  0  0  0  0  0  0  0  0  0
   22.0837   -5.7290  -13.2599 C   0  0  0  0  0  0  0  0  0  0  0  0
   22.8758   -5.9751  -12.3184 O   0  0  0  0  0  0  0  0  0  0  0  0
   21.5167   -6.8571  -13.9937 C   0  0  0  0  0  0  0  0  0  0  0  0
   20.5739   -6.5331  -15.0912 C   0  0  2  0  0  0  0  0  0  0  0  0
   20.0324   -7.6455  -15.8005 N   0  0  0  0  0  0  0  0  0  0  0  0
   21.3144   -5.5952  -16.0184 C   0  0  0  0  0  0  0  0  0  0  0  0
   22.4593   -5.8226  -16.4270 O   0  0  0  0  0  0  0  0  0  0  0  0
   20.6699   -4.4103  -16.4339 N   0  0  0  0  0  0  0  0  0  0  0  0
   21.2741   -3.5268  -17.4018 C   0  0  1  0  0  0  0  0  0  0  0  0
   20.2009   -2.5343  -17.7957 C   0  0  0  0  0  0  0  0  0  0  0  0
   19.1019   -3.3598  -18.4861 C   0  0  0  0  0  0  0  0  0  0  0  0
   17.9428   -2.5093  -18.8116 C   0  0  0  0  0  0  0  0  0  0  0  0
   17.9674   -1.8270  -19.8598 O   0  0  0  0  0  0  0  0  0  0  0  0
   22.5043   -2.9025  -16.9472 C   0  0  0  0  0  0  0  0  0  0  0  0
   23.2026   -2.2467  -17.7398 O   0  0  0  0  0  0  0  0  0  0  0  0
   16.8284   -2.4442  -17.9972 O   0  0  0  0  0  0  0  0  0  0  0  0
   22.9161   -3.0243  -15.6417 O   0  0  0  0  0  0  0  0  0  0  0  0
  2  3  1  0
  2  1  1  1
  4  8  1  0
  4  3  1  0
  5  4  2  0
  6  2  1  0
  7  6  2  0
  9 10  1  0
 10 12  1  0
 11 10  2  0
 13 12  1  1
 13 14  1  0
 14  6  1  0
 15 17  1  0
 15 13  1  0
 16 15  2  0
 18 23  1  0
 18 17  1  0
 18 19  1  1
 19 20  1  0
 21 22  2  0
 21 20  1  0
 23 26  1  0
 24 23  2  0
 25 21  1  0
M  END
$$$$
