DNE.pdb
     RDKit          3D

 26 25  0  0  1  0  0  0  0  0999 V2000
   23.1217  -21.9974  -14.7444 N   0  0  0  0  0  0  0  0  0  0  0  0
   23.1077  -20.6339  -14.2876 C   0  0  1  0  0  0  0  0  0  0  0  0
   23.1615  -19.6732  -15.4389 C   0  0  0  0  0  0  0  0  0  0  0  0
   24.2817  -19.9291  -16.3528 C   0  0  0  0  0  0  0  0  0  0  0  0
   24.5362  -19.1674  -17.2974 O   0  0  0  0  0  0  0  0  0  0  0  0
   21.9817  -20.3304  -13.3902 C   0  0  0  0  0  0  0  0  0  0  0  0
   21.8002  -19.0961  -13.0792 O   0  0  0  0  0  0  0  0  0  0  0  0
   25.0591  -21.0839  -16.1103 O   0  0  0  0  0  0  0  0  0  0  0  0
   17.2736  -18.3227  -12.5624 N   0  0  0  0  0  0  0  0  0  0  0  0
   17.7177  -19.6630  -12.4944 C   0  0  0  0  0  0  0  0  0  0  0  0
   17.0138  -20.4868  -11.8618 O   0  0  0  0  0  0  0  0  0  0  0  0
   18.9467  -20.1452  -13.1185 C   0  0  0  0  0  0  0  0  0  0  0  0
   19.8715  -20.9219  -12.2583 C   0  0  2  0  0  0  0  0  0  0  0  0
   21.1072  -21.3082  -12.8564 N   0  0  0  0  0  0  0  0  0  0  0  0
   19.0901  -22.1254  -11.7802 C   0  0  0  0  0  0  0  0  0  0  0  0
   18.5607  -22.9313  -12.5547 O   0  0  0  0  0  0  0  0  0  0  0  0
   18.9603  -22.3361  -10.3908 N   0  0  0  0  0  0  0  0  0  0  0  0
   18.6618  -23.6421   -9.8541 C   0  0  1  0  0  0  0  0  0  0  0  0
   18.7516  -23.5108   -8.3485 C   0  0  0  0  0  0  0  0  0  0  0  0
   18.4822  -24.9183   -7.7898 C   0  0  0  0  0  0  0  0  0  0  0  0
   18.5360  -24.9096   -6.3168 C   0  0  0  0  0  0  0  0  0  0  0  0
   18.7460  -23.8279   -5.7246 O   0  0  0  0  0  0  0  0  0  0  0  0
   17.4014  -24.1978  -10.3147 C   0  0  0  0  0  0  0  0  0  0  0  0
   17.2932  -25.4201  -10.5154 O   0  0  0  0  0  0  0  0  0  0  0  0
   18.3585  -26.0579   -5.5690 O   0  0  0  0  0  0  0  0  0  0  0  0
   16.3128  -23.3885  -10.5356 O   0  0  0  0  0  0  0  0  0  0  0  0
  2  3  1  0
  2  1  1  6
  4  8  1  0
  4  3  1  0
  5  4  2  0
  6  2  1  0
  7  6  2  0
  9 10  1  0
 10 12  1  0
 11 10  2  0
 13 12  1  6
 13 14  1  0
 14  6  1  0
 15 17  1  0
 15 13  1  0
 16 15  2  0
 18 23  1  0
 18 17  1  0
 18 19  1  1
 19 20  1  0
 21 22  2  0
 21 20  1  0
 23 26  1  0
 24 23  2  0
 25 21  1  0
M  END
$$$$
