DNE.pdb
     RDKit          3D

 26 25  0  0  1  0  0  0  0  0999 V2000
   33.0407  -10.4336  -19.5372 N   0  0  0  0  0  0  0  0  0  0  0  0
   32.2259  -10.5029  -18.3544 C   0  0  1  0  0  0  0  0  0  0  0  0
   32.3752  -11.8284  -17.6671 C   0  0  0  0  0  0  0  0  0  0  0  0
   31.9867  -12.9643  -18.5123 C   0  0  0  0  0  0  0  0  0  0  0  0
   32.6428  -14.0163  -18.5282 O   0  0  0  0  0  0  0  0  0  0  0  0
   32.4549   -9.3882  -17.4215 C   0  0  0  0  0  0  0  0  0  0  0  0
   31.7579   -9.3794  -16.3411 O   0  0  0  0  0  0  0  0  0  0  0  0
   30.8310  -12.8071  -19.3100 O   0  0  0  0  0  0  0  0  0  0  0  0
   34.3234   -9.0015  -14.4429 N   0  0  0  0  0  0  0  0  0  0  0  0
   35.2320   -8.0721  -14.9987 C   0  0  0  0  0  0  0  0  0  0  0  0
   36.3906   -8.0202  -14.5199 O   0  0  0  0  0  0  0  0  0  0  0  0
   34.9017   -7.1699  -16.0984 C   0  0  0  0  0  0  0  0  0  0  0  0
   33.5469   -7.3024  -16.6862 C   0  0  2  0  0  0  0  0  0  0  0  0
   33.3810   -8.3412  -17.6491 N   0  0  0  0  0  0  0  0  0  0  0  0
   33.2081   -5.9492  -17.2707 C   0  0  0  0  0  0  0  0  0  0  0  0
   33.8015   -5.4729  -18.2457 O   0  0  0  0  0  0  0  0  0  0  0  0
   32.1705   -5.1992  -16.6768 N   0  0  0  0  0  0  0  0  0  0  0  0
   31.7478   -3.9343  -17.2283 C   0  0  1  0  0  0  0  0  0  0  0  0
   30.2782   -4.0871  -17.5580 C   0  0  0  0  0  0  0  0  0  0  0  0
   29.8771   -2.7935  -18.2872 C   0  0  0  0  0  0  0  0  0  0  0  0
   28.4684   -2.8566  -18.7165 C   0  0  0  0  0  0  0  0  0  0  0  0
   27.8716   -3.9553  -18.6765 O   0  0  0  0  0  0  0  0  0  0  0  0
   32.0372   -2.7918  -16.3795 C   0  0  0  0  0  0  0  0  0  0  0  0
   32.0849   -2.9267  -15.1444 O   0  0  0  0  0  0  0  0  0  0  0  0
   27.7851   -1.7400  -19.1586 O   0  0  0  0  0  0  0  0  0  0  0  0
   32.2622   -1.5493  -16.9221 O   0  0  0  0  0  0  0  0  0  0  0  0
  2  3  1  0
  2  1  1  6
  4  8  1  0
  4  3  1  0
  5  4  2  0
  6  2  1  0
  7  6  2  0
  9 10  1  0
 10 12  1  0
 11 10  2  0
 13 12  1  6
 13 14  1  0
 14  6  1  0
 15 17  1  0
 15 13  1  0
 16 15  2  0
 18 23  1  0
 18 17  1  0
 18 19  1  1
 19 20  1  0
 21 22  2  0
 21 20  1  0
 23 26  1  0
 24 23  2  0
 25 21  1  0
M  END
$$$$
