DNE.pdb
     RDKit          3D

 26 25  0  0  1  0  0  0  0  0999 V2000
   16.1120   -7.9659   -8.8514 N   0  0  0  0  0  0  0  0  0  0  0  0
   15.9307   -8.3915  -10.2130 C   0  0  1  0  0  0  0  0  0  0  0  0
   14.5232   -8.1535  -10.6751 C   0  0  0  0  0  0  0  0  0  0  0  0
   13.5279   -8.9183   -9.9135 C   0  0  0  0  0  0  0  0  0  0  0  0
   13.5396  -10.1579   -9.8912 O   0  0  0  0  0  0  0  0  0  0  0  0
   16.9060   -7.8018  -11.1437 C   0  0  0  0  0  0  0  0  0  0  0  0
   17.3603   -6.6352  -10.8504 O   0  0  0  0  0  0  0  0  0  0  0  0
   12.5529   -8.1798   -9.2059 O   0  0  0  0  0  0  0  0  0  0  0  0
   21.0362   -8.3928  -12.4842 N   0  0  0  0  0  0  0  0  0  0  0  0
   20.4316   -8.9688  -13.6248 C   0  0  0  0  0  0  0  0  0  0  0  0
   21.0934   -9.8062  -14.2845 O   0  0  0  0  0  0  0  0  0  0  0  0
   19.0816   -8.6476  -14.0794 C   0  0  0  0  0  0  0  0  0  0  0  0
   18.2711   -7.7733  -13.1979 C   0  0  2  0  0  0  0  0  0  0  0  0
   17.3580   -8.4367  -12.3261 N   0  0  0  0  0  0  0  0  0  0  0  0
   17.5556   -6.8029  -14.1112 C   0  0  0  0  0  0  0  0  0  0  0  0
   16.6743   -7.1549  -14.9044 O   0  0  0  0  0  0  0  0  0  0  0  0
   17.9099   -5.4380  -14.0546 N   0  0  0  0  0  0  0  0  0  0  0  0
   17.2688   -4.4601  -14.9005 C   0  0  1  0  0  0  0  0  0  0  0  0
   16.5941   -3.4744  -13.9705 C   0  0  0  0  0  0  0  0  0  0  0  0
   15.9264   -2.4304  -14.8816 C   0  0  0  0  0  0  0  0  0  0  0  0
   15.3126   -1.3583  -14.0775 C   0  0  0  0  0  0  0  0  0  0  0  0
   15.6407   -0.1716  -14.2989 O   0  0  0  0  0  0  0  0  0  0  0  0
   18.1589   -3.8351  -15.8632 C   0  0  0  0  0  0  0  0  0  0  0  0
   19.3840   -3.8039  -15.6534 O   0  0  0  0  0  0  0  0  0  0  0  0
   14.3837   -1.6221  -13.0892 O   0  0  0  0  0  0  0  0  0  0  0  0
   17.6668   -3.2709  -17.0157 O   0  0  0  0  0  0  0  0  0  0  0  0
  2  3  1  0
  2  1  1  1
  4  8  1  0
  4  3  1  0
  5  4  2  0
  6  2  1  0
  7  6  2  0
  9 10  1  0
 10 12  1  0
 11 10  2  0
 13 12  1  6
 13 14  1  0
 14  6  1  0
 15 17  1  0
 15 13  1  0
 16 15  2  0
 18 23  1  0
 18 17  1  0
 18 19  1  1
 19 20  1  0
 21 22  2  0
 21 20  1  0
 23 26  1  0
 24 23  2  0
 25 21  1  0
M  END
$$$$
