DNE.pdb
     RDKit          3D

 26 25  0  0  1  0  0  0  0  0999 V2000
   17.3946  -11.2556  -13.6447 N   0  0  0  0  0  0  0  0  0  0  0  0
   16.3681  -10.4004  -14.1765 C   0  0  1  0  0  0  0  0  0  0  0  0
   15.0289  -11.0766  -14.1516 C   0  0  0  0  0  0  0  0  0  0  0  0
   15.0257  -12.3771  -14.8331 C   0  0  0  0  0  0  0  0  0  0  0  0
   15.7240  -12.5864  -15.8361 O   0  0  0  0  0  0  0  0  0  0  0  0
   16.3129   -9.0810  -13.5271 C   0  0  0  0  0  0  0  0  0  0  0  0
   15.4776   -8.2294  -14.0070 O   0  0  0  0  0  0  0  0  0  0  0  0
   14.1899  -13.3824  -14.2969 O   0  0  0  0  0  0  0  0  0  0  0  0
   16.5254   -4.9578  -10.3158 N   0  0  0  0  0  0  0  0  0  0  0  0
   17.2336   -6.0381   -9.7419 C   0  0  0  0  0  0  0  0  0  0  0  0
   17.6758   -5.9014   -8.5757 O   0  0  0  0  0  0  0  0  0  0  0  0
   17.4796   -7.3045  -10.4262 C   0  0  0  0  0  0  0  0  0  0  0  0
   16.9437   -7.4343  -11.8026 C   0  0  2  0  0  0  0  0  0  0  0  0
   17.1201   -8.7048  -12.4260 N   0  0  0  0  0  0  0  0  0  0  0  0
   17.5875   -6.3294  -12.6103 C   0  0  0  0  0  0  0  0  0  0  0  0
   18.7766   -6.3533  -12.9499 O   0  0  0  0  0  0  0  0  0  0  0  0
   16.7964   -5.2247  -12.9917 N   0  0  0  0  0  0  0  0  0  0  0  0
   17.3295   -4.1693  -13.8191 C   0  0  1  0  0  0  0  0  0  0  0  0
   16.1940   -3.7191  -14.7135 C   0  0  0  0  0  0  0  0  0  0  0  0
   16.8015   -2.6756  -15.6664 C   0  0  0  0  0  0  0  0  0  0  0  0
   15.7661   -2.1255  -16.5597 C   0  0  0  0  0  0  0  0  0  0  0  0
   15.8120   -0.9134  -16.8660 O   0  0  0  0  0  0  0  0  0  0  0  0
   17.9462   -3.0862  -13.0733 C   0  0  0  0  0  0  0  0  0  0  0  0
   18.7907   -2.3538  -13.6177 O   0  0  0  0  0  0  0  0  0  0  0  0
   14.7482   -2.9068  -17.0724 O   0  0  0  0  0  0  0  0  0  0  0  0
   17.6099   -2.8526  -11.7614 O   0  0  0  0  0  0  0  0  0  0  0  0
  2  3  1  0
  2  1  1  1
  4  8  1  0
  4  3  1  0
  5  4  2  0
  6  2  1  0
  7  6  2  0
  9 10  1  0
 10 12  1  0
 11 10  2  0
 13 12  1  1
 13 14  1  0
 14  6  1  0
 15 17  1  0
 15 13  1  0
 16 15  2  0
 18 23  1  0
 18 17  1  0
 18 19  1  1
 19 20  1  0
 21 22  2  0
 21 20  1  0
 23 26  1  0
 24 23  2  0
 25 21  1  0
M  END
$$$$
