DNE.pdb
     RDKit          3D

 26 25  0  0  1  0  0  0  0  0999 V2000
   17.9957  -13.6122  -16.1811 N   0  0  0  0  0  0  0  0  0  0  0  0
   16.8670  -12.7289  -16.2986 C   0  0  1  0  0  0  0  0  0  0  0  0
   16.0079  -12.7764  -15.0694 C   0  0  0  0  0  0  0  0  0  0  0  0
   15.5007  -14.1214  -14.7707 C   0  0  0  0  0  0  0  0  0  0  0  0
   15.1839  -14.9111  -15.6726 O   0  0  0  0  0  0  0  0  0  0  0  0
   17.2404  -11.3463  -16.6369 C   0  0  0  0  0  0  0  0  0  0  0  0
   18.4652  -11.1374  -16.9675 O   0  0  0  0  0  0  0  0  0  0  0  0
   15.3875  -14.4785  -13.4082 O   0  0  0  0  0  0  0  0  0  0  0  0
   16.7377   -6.6207  -19.5718 N   0  0  0  0  0  0  0  0  0  0  0  0
   16.1966   -6.8612  -18.2883 C   0  0  0  0  0  0  0  0  0  0  0  0
   16.0731   -5.8869  -17.5074 O   0  0  0  0  0  0  0  0  0  0  0  0
   15.7714   -8.1769  -17.8184 C   0  0  0  0  0  0  0  0  0  0  0  0
   16.7625   -8.9608  -17.0429 C   0  0  2  0  0  0  0  0  0  0  0  0
   16.3402  -10.2533  -16.6126 N   0  0  0  0  0  0  0  0  0  0  0  0
   17.1611   -8.0922  -15.8706 C   0  0  0  0  0  0  0  0  0  0  0  0
   16.5542   -8.1013  -14.7930 O   0  0  0  0  0  0  0  0  0  0  0  0
   18.2732   -7.2352  -16.0143 N   0  0  0  0  0  0  0  0  0  0  0  0
   18.7534   -6.4369  -14.9121 C   0  0  1  0  0  0  0  0  0  0  0  0
   20.2644   -6.4561  -15.0033 C   0  0  0  0  0  0  0  0  0  0  0  0
   20.7668   -5.6763  -13.7764 C   0  0  0  0  0  0  0  0  0  0  0  0
   22.2378   -5.7270  -13.6973 C   0  0  0  0  0  0  0  0  0  0  0  0
   22.8595   -4.7098  -13.3182 O   0  0  0  0  0  0  0  0  0  0  0  0
   18.1912   -5.0986  -14.8609 C   0  0  0  0  0  0  0  0  0  0  0  0
   17.7254   -4.6565  -13.7963 O   0  0  0  0  0  0  0  0  0  0  0  0
   22.9517   -6.8637  -14.0253 O   0  0  0  0  0  0  0  0  0  0  0  0
   18.1643   -4.3020  -15.9804 O   0  0  0  0  0  0  0  0  0  0  0  0
  2  3  1  0
  2  1  1  1
  4  8  1  0
  4  3  1  0
  5  4  2  0
  6  2  1  0
  7  6  2  0
  9 10  1  0
 10 12  1  0
 11 10  2  0
 13 12  1  1
 13 14  1  0
 14  6  1  0
 15 17  1  0
 15 13  1  0
 16 15  2  0
 18 23  1  0
 18 17  1  0
 18 19  1  6
 19 20  1  0
 21 22  2  0
 21 20  1  0
 23 26  1  0
 24 23  2  0
 25 21  1  0
M  END
$$$$
