DNE.pdb
     RDKit          3D

 26 25  0  0  1  0  0  0  0  0999 V2000
   16.6157  -12.2234  -13.8926 N   0  0  0  0  0  0  0  0  0  0  0  0
   16.3249  -11.1501  -14.8044 C   0  0  1  0  0  0  0  0  0  0  0  0
   14.8656  -10.8012  -14.7873 C   0  0  0  0  0  0  0  0  0  0  0  0
   13.9990  -11.9230  -15.1695 C   0  0  0  0  0  0  0  0  0  0  0  0
   12.7696  -11.8756  -15.0159 O   0  0  0  0  0  0  0  0  0  0  0  0
   17.1619   -9.9589  -14.5901 C   0  0  0  0  0  0  0  0  0  0  0  0
   17.2821   -9.5408  -13.3802 O   0  0  0  0  0  0  0  0  0  0  0  0
   14.6271  -13.0627  -15.7203 O   0  0  0  0  0  0  0  0  0  0  0  0
   21.1514  -10.6680  -15.9150 N   0  0  0  0  0  0  0  0  0  0  0  0
   20.7865   -9.5443  -15.1390 C   0  0  0  0  0  0  0  0  0  0  0  0
   21.0492   -9.5634  -13.9122 O   0  0  0  0  0  0  0  0  0  0  0  0
   20.1232   -8.3619  -15.6816 C   0  0  0  0  0  0  0  0  0  0  0  0
   18.6973   -8.1726  -15.3217 C   0  0  2  0  0  0  0  0  0  0  0  0
   17.8249   -9.2586  -15.6272 N   0  0  0  0  0  0  0  0  0  0  0  0
   18.2556   -6.8999  -16.0093 C   0  0  0  0  0  0  0  0  0  0  0  0
   17.8245   -6.8795  -17.1683 O   0  0  0  0  0  0  0  0  0  0  0  0
   18.3399   -5.6847  -15.2966 N   0  0  0  0  0  0  0  0  0  0  0  0
   17.9678   -4.4301  -15.9050 C   0  0  1  0  0  0  0  0  0  0  0  0
   17.5289   -3.5255  -14.7732 C   0  0  0  0  0  0  0  0  0  0  0  0
   16.1255   -4.0103  -14.3714 C   0  0  0  0  0  0  0  0  0  0  0  0
   15.6160   -3.2311  -13.2286 C   0  0  0  0  0  0  0  0  0  0  0  0
   15.6909   -3.7209  -12.0799 O   0  0  0  0  0  0  0  0  0  0  0  0
   19.0007   -3.8500  -16.7454 C   0  0  0  0  0  0  0  0  0  0  0  0
   20.1941   -4.1487  -16.5653 O   0  0  0  0  0  0  0  0  0  0  0  0
   15.0615   -1.9752  -13.3853 O   0  0  0  0  0  0  0  0  0  0  0  0
   18.6800   -2.9666  -17.7481 O   0  0  0  0  0  0  0  0  0  0  0  0
  2  3  1  0
  2  1  1  1
  4  8  1  0
  4  3  1  0
  5  4  2  0
  6  2  1  0
  7  6  2  0
  9 10  1  0
 10 12  1  0
 11 10  2  0
 13 12  1  6
 13 14  1  0
 14  6  1  0
 15 17  1  0
 15 13  1  0
 16 15  2  0
 18 23  1  0
 18 17  1  0
 18 19  1  1
 19 20  1  0
 21 22  2  0
 21 20  1  0
 23 26  1  0
 24 23  2  0
 25 21  1  0
M  END
$$$$
