DNE.pdb
     RDKit          3D

 26 25  0  0  1  0  0  0  0  0999 V2000
   15.7090  -10.8168   -9.8701 N   0  0  0  0  0  0  0  0  0  0  0  0
   15.3468  -10.1379  -11.0849 C   0  0  1  0  0  0  0  0  0  0  0  0
   13.8615  -10.1564  -11.2971 C   0  0  0  0  0  0  0  0  0  0  0  0
   13.2840  -11.5042  -11.2224 C   0  0  0  0  0  0  0  0  0  0  0  0
   13.8457  -12.4809  -11.7399 O   0  0  0  0  0  0  0  0  0  0  0  0
   15.8822   -8.7699  -11.1711 C   0  0  0  0  0  0  0  0  0  0  0  0
   15.6932   -8.1383  -12.2750 O   0  0  0  0  0  0  0  0  0  0  0  0
   12.0570  -11.6412  -10.5351 O   0  0  0  0  0  0  0  0  0  0  0  0
   17.7412   -3.9553  -10.4586 N   0  0  0  0  0  0  0  0  0  0  0  0
   17.3011   -4.5165   -9.2382 C   0  0  0  0  0  0  0  0  0  0  0  0
   17.2312   -3.7666   -8.2346 O   0  0  0  0  0  0  0  0  0  0  0  0
   16.9215   -5.9173   -9.0772 C   0  0  0  0  0  0  0  0  0  0  0  0
   17.0353   -6.7815  -10.2766 C   0  0  2  0  0  0  0  0  0  0  0  0
   16.5862   -8.1265  -10.1243 N   0  0  0  0  0  0  0  0  0  0  0  0
   18.4875   -6.7291  -10.6962 C   0  0  0  0  0  0  0  0  0  0  0  0
   19.3883   -7.2941  -10.0645 O   0  0  0  0  0  0  0  0  0  0  0  0
   18.8275   -6.0039  -11.8582 N   0  0  0  0  0  0  0  0  0  0  0  0
   20.1688   -6.0243  -12.3905 C   0  0  1  0  0  0  0  0  0  0  0  0
   20.1591   -7.0298  -13.5222 C   0  0  0  0  0  0  0  0  0  0  0  0
   21.3452   -7.9717  -13.2540 C   0  0  0  0  0  0  0  0  0  0  0  0
   21.4651   -8.9723  -14.3297 C   0  0  0  0  0  0  0  0  0  0  0  0
   20.6121   -8.9833  -15.2447 O   0  0  0  0  0  0  0  0  0  0  0  0
   20.6721   -4.7181  -12.7780 C   0  0  0  0  0  0  0  0  0  0  0  0
   19.8811   -3.8076  -13.0802 O   0  0  0  0  0  0  0  0  0  0  0  0
   22.4919   -9.8965  -14.3614 O   0  0  0  0  0  0  0  0  0  0  0  0
   22.0226   -4.4662  -12.8174 O   0  0  0  0  0  0  0  0  0  0  0  0
  2  3  1  0
  2  1  1  1
  4  8  1  0
  4  3  1  0
  5  4  2  0
  6  2  1  0
  7  6  2  0
  9 10  1  0
 10 12  1  0
 11 10  2  0
 13 12  1  1
 13 14  1  0
 14  6  1  0
 15 17  1  0
 15 13  1  0
 16 15  2  0
 18 23  1  0
 18 17  1  0
 18 19  1  6
 19 20  1  0
 21 22  2  0
 21 20  1  0
 23 26  1  0
 24 23  2  0
 25 21  1  0
M  END
$$$$
