DNE.pdb
     RDKit          3D

 26 25  0  0  1  0  0  0  0  0999 V2000
   25.9398  -22.0474  -10.7843 N   0  0  0  0  0  0  0  0  0  0  0  0
   25.7868  -20.6222  -10.6686 C   0  0  1  0  0  0  0  0  0  0  0  0
   26.7743  -20.0455   -9.6971 C   0  0  0  0  0  0  0  0  0  0  0  0
   26.4493  -20.3445   -8.2970 C   0  0  0  0  0  0  0  0  0  0  0  0
   25.4366  -20.9902   -7.9890 O   0  0  0  0  0  0  0  0  0  0  0  0
   25.8383  -19.9226  -11.9621 C   0  0  0  0  0  0  0  0  0  0  0  0
   25.6428  -18.6518  -11.9459 O   0  0  0  0  0  0  0  0  0  0  0  0
   27.3413  -19.8630   -7.3125 O   0  0  0  0  0  0  0  0  0  0  0  0
   28.5800  -20.4044  -13.2679 N   0  0  0  0  0  0  0  0  0  0  0  0
   28.4305  -20.1614  -14.6524 C   0  0  0  0  0  0  0  0  0  0  0  0
   29.4452  -20.2656  -15.3832 O   0  0  0  0  0  0  0  0  0  0  0  0
   27.1642  -19.7978  -15.2822 C   0  0  0  0  0  0  0  0  0  0  0  0
   25.9556  -19.8413  -14.4245 C   0  0  2  0  0  0  0  0  0  0  0  0
   26.0816  -20.5636  -13.2013 N   0  0  0  0  0  0  0  0  0  0  0  0
   24.8484  -20.4054  -15.2866 C   0  0  0  0  0  0  0  0  0  0  0  0
   24.6226  -21.6180  -15.3787 O   0  0  0  0  0  0  0  0  0  0  0  0
   24.0393  -19.5086  -16.0166 N   0  0  0  0  0  0  0  0  0  0  0  0
   22.6185  -19.7208  -16.1542 C   0  0  1  0  0  0  0  0  0  0  0  0
   22.0597  -19.7650  -14.7479 C   0  0  0  0  0  0  0  0  0  0  0  0
   20.5669  -20.1019  -14.9021 C   0  0  0  0  0  0  0  0  0  0  0  0
   19.8890  -20.0606  -13.5938 C   0  0  0  0  0  0  0  0  0  0  0  0
   19.5921  -18.9501  -13.1002 O   0  0  0  0  0  0  0  0  0  0  0  0
   21.9557  -18.7547  -17.0127 C   0  0  0  0  0  0  0  0  0  0  0  0
   22.2733  -17.5536  -16.9640 O   0  0  0  0  0  0  0  0  0  0  0  0
   19.5678  -21.2097  -12.8969 O   0  0  0  0  0  0  0  0  0  0  0  0
   20.9723  -19.1477  -17.8886 O   0  0  0  0  0  0  0  0  0  0  0  0
  2  3  1  0
  2  1  1  6
  4  8  1  0
  4  3  1  0
  5  4  2  0
  6  2  1  0
  7  6  2  0
  9 10  1  0
 10 12  1  0
 11 10  2  0
 13 12  1  6
 13 14  1  0
 14  6  1  0
 15 17  1  0
 15 13  1  0
 16 15  2  0
 18 23  1  0
 18 17  1  0
 18 19  1  1
 19 20  1  0
 21 22  2  0
 21 20  1  0
 23 26  1  0
 24 23  2  0
 25 21  1  0
M  END
$$$$
