DNE.pdb
     RDKit          3D

 26 25  0  0  1  0  0  0  0  0999 V2000
   19.4114  -11.4324  -17.6536 N   0  0  0  0  0  0  0  0  0  0  0  0
   19.1134  -10.8858  -16.3574 C   0  0  1  0  0  0  0  0  0  0  0  0
   18.7802  -11.9683  -15.3732 C   0  0  0  0  0  0  0  0  0  0  0  0
   17.5115  -12.6460  -15.6674 C   0  0  0  0  0  0  0  0  0  0  0  0
   16.7593  -12.2525  -16.5711 O   0  0  0  0  0  0  0  0  0  0  0  0
   20.1686   -9.9997  -15.8408 C   0  0  0  0  0  0  0  0  0  0  0  0
   20.1235   -9.7073  -14.5895 O   0  0  0  0  0  0  0  0  0  0  0  0
   17.1825  -13.7682  -14.8742 O   0  0  0  0  0  0  0  0  0  0  0  0
   23.6280  -11.2269  -16.0187 N   0  0  0  0  0  0  0  0  0  0  0  0
   24.2170  -10.0845  -16.6071 C   0  0  0  0  0  0  0  0  0  0  0  0
   25.3545  -10.2057  -17.1226 O   0  0  0  0  0  0  0  0  0  0  0  0
   23.5785   -8.7719  -16.6515 C   0  0  0  0  0  0  0  0  0  0  0  0
   22.2323   -8.6637  -16.0396 C   0  0  2  0  0  0  0  0  0  0  0  0
   21.2082   -9.4577  -16.6351 N   0  0  0  0  0  0  0  0  0  0  0  0
   21.8759   -7.1940  -16.0652 C   0  0  0  0  0  0  0  0  0  0  0  0
   21.8829   -6.5209  -17.1028 O   0  0  0  0  0  0  0  0  0  0  0  0
   21.5204   -6.5655  -14.8526 N   0  0  0  0  0  0  0  0  0  0  0  0
   21.1888   -5.1619  -14.8034 C   0  0  1  0  0  0  0  0  0  0  0  0
   19.7773   -5.0799  -14.2621 C   0  0  0  0  0  0  0  0  0  0  0  0
   18.8603   -5.5074  -15.4207 C   0  0  0  0  0  0  0  0  0  0  0  0
   17.4443   -5.4113  -15.0227 C   0  0  0  0  0  0  0  0  0  0  0  0
   16.6587   -4.7474  -15.7347 O   0  0  0  0  0  0  0  0  0  0  0  0
   22.1425   -4.3534  -14.0642 C   0  0  0  0  0  0  0  0  0  0  0  0
   22.8105   -4.8586  -13.1452 O   0  0  0  0  0  0  0  0  0  0  0  0
   16.9563   -6.0341  -13.8899 O   0  0  0  0  0  0  0  0  0  0  0  0
   22.3230   -3.0246  -14.3650 O   0  0  0  0  0  0  0  0  0  0  0  0
  2  3  1  0
  2  1  1  6
  4  8  1  0
  4  3  1  0
  5  4  2  0
  6  2  1  0
  7  6  2  0
  9 10  1  0
 10 12  1  0
 11 10  2  0
 13 12  1  6
 13 14  1  0
 14  6  1  0
 15 17  1  0
 15 13  1  0
 16 15  2  0
 18 23  1  0
 18 17  1  0
 18 19  1  1
 19 20  1  0
 21 22  2  0
 21 20  1  0
 23 26  1  0
 24 23  2  0
 25 21  1  0
M  END
$$$$
