DNE.pdb
     RDKit          3D

 26 25  0  0  1  0  0  0  0  0999 V2000
   13.9182  -10.7795  -10.8449 N   0  0  0  0  0  0  0  0  0  0  0  0
   15.2254  -10.3212  -10.4588 C   0  0  1  0  0  0  0  0  0  0  0  0
   16.2959  -10.9659  -11.2894 C   0  0  0  0  0  0  0  0  0  0  0  0
   16.2248  -12.4324  -11.2863 C   0  0  0  0  0  0  0  0  0  0  0  0
   16.2342  -13.0853  -12.3403 O   0  0  0  0  0  0  0  0  0  0  0  0
   15.3552   -8.8555  -10.4634 C   0  0  0  0  0  0  0  0  0  0  0  0
   14.8692   -8.2302  -11.4764 O   0  0  0  0  0  0  0  0  0  0  0  0
   16.1438  -13.0700  -10.0278 O   0  0  0  0  0  0  0  0  0  0  0  0
   13.2648   -6.2454   -8.8672 N   0  0  0  0  0  0  0  0  0  0  0  0
   14.2932   -5.7999   -8.0057 C   0  0  0  0  0  0  0  0  0  0  0  0
   13.9633   -5.2580   -6.9231 O   0  0  0  0  0  0  0  0  0  0  0  0
   15.7169   -5.9348   -8.3009 C   0  0  0  0  0  0  0  0  0  0  0  0
   16.0759   -6.6915   -9.5244 C   0  0  2  0  0  0  0  0  0  0  0  0
   15.9802   -8.1115   -9.4331 N   0  0  0  0  0  0  0  0  0  0  0  0
   17.4766   -6.2555   -9.8926 C   0  0  0  0  0  0  0  0  0  0  0  0
   18.4753   -6.5940   -9.2462 O   0  0  0  0  0  0  0  0  0  0  0  0
   17.6496   -5.4270  -11.0219 N   0  0  0  0  0  0  0  0  0  0  0  0
   18.9261   -5.3209  -11.6868 C   0  0  1  0  0  0  0  0  0  0  0  0
   19.3191   -6.7306  -12.0743 C   0  0  0  0  0  0  0  0  0  0  0  0
   20.7123   -6.6143  -12.7157 C   0  0  0  0  0  0  0  0  0  0  0  0
   21.2330   -7.9475  -13.0680 C   0  0  0  0  0  0  0  0  0  0  0  0
   22.2646   -8.0285  -13.7710 O   0  0  0  0  0  0  0  0  0  0  0  0
   18.9384   -4.3875  -12.7996 C   0  0  0  0  0  0  0  0  0  0  0  0
   17.8927   -4.1514  -13.4293 O   0  0  0  0  0  0  0  0  0  0  0  0
   20.6198   -9.1107  -12.6436 O   0  0  0  0  0  0  0  0  0  0  0  0
   20.0982   -3.7523  -13.1741 O   0  0  0  0  0  0  0  0  0  0  0  0
  2  3  1  0
  2  1  1  6
  4  8  1  0
  4  3  1  0
  5  4  2  0
  6  2  1  0
  7  6  2  0
  9 10  1  0
 10 12  1  0
 11 10  2  0
 13 12  1  1
 13 14  1  0
 14  6  1  0
 15 17  1  0
 15 13  1  0
 16 15  2  0
 18 23  1  0
 18 17  1  0
 18 19  1  6
 19 20  1  0
 21 22  2  0
 21 20  1  0
 23 26  1  0
 24 23  2  0
 25 21  1  0
M  END
$$$$
