DNE.pdb
     RDKit          3D

 26 25  0  0  1  0  0  0  0  0999 V2000
   18.7983  -12.9375  -15.1988 N   0  0  0  0  0  0  0  0  0  0  0  0
   18.1338  -11.6688  -15.3285 C   0  0  1  0  0  0  0  0  0  0  0  0
   16.6470  -11.8160  -15.1898 C   0  0  0  0  0  0  0  0  0  0  0  0
   16.0747  -12.7991  -16.1180 C   0  0  0  0  0  0  0  0  0  0  0  0
   16.3400  -12.7799  -17.3290 O   0  0  0  0  0  0  0  0  0  0  0  0
   18.6567  -10.6398  -14.4157 C   0  0  0  0  0  0  0  0  0  0  0  0
   18.6475  -10.9155  -13.1598 O   0  0  0  0  0  0  0  0  0  0  0  0
   15.2056  -13.7700  -15.5716 O   0  0  0  0  0  0  0  0  0  0  0  0
   22.7956   -8.9555  -15.4650 N   0  0  0  0  0  0  0  0  0  0  0  0
   22.1156   -8.6146  -14.2735 C   0  0  0  0  0  0  0  0  0  0  0  0
   22.5641   -9.0599  -13.1896 O   0  0  0  0  0  0  0  0  0  0  0  0
   20.9228   -7.7734  -14.2300 C   0  0  0  0  0  0  0  0  0  0  0  0
   19.6459   -8.4435  -13.8854 C   0  0  2  0  0  0  0  0  0  0  0  0
   19.1548   -9.3835  -14.8388 N   0  0  0  0  0  0  0  0  0  0  0  0
   18.6450   -7.3376  -13.6350 C   0  0  0  0  0  0  0  0  0  0  0  0
   18.0488   -6.7541  -14.5482 O   0  0  0  0  0  0  0  0  0  0  0  0
   18.3812   -6.9564  -12.3020 N   0  0  0  0  0  0  0  0  0  0  0  0
   17.4537   -5.8945  -11.9943 C   0  0  1  0  0  0  0  0  0  0  0  0
   17.1674   -6.0001  -10.5115 C   0  0  0  0  0  0  0  0  0  0  0  0
   16.1206   -4.9141  -10.2099 C   0  0  0  0  0  0  0  0  0  0  0  0
   15.8144   -4.8762   -8.7685 C   0  0  0  0  0  0  0  0  0  0  0  0
   14.9852   -4.0396   -8.3472 O   0  0  0  0  0  0  0  0  0  0  0  0
   17.9040   -4.5766  -12.4068 C   0  0  0  0  0  0  0  0  0  0  0  0
   19.1169   -4.3032  -12.4105 O   0  0  0  0  0  0  0  0  0  0  0  0
   16.4118   -5.7376   -7.8683 O   0  0  0  0  0  0  0  0  0  0  0  0
   17.0040   -3.6145  -12.7980 O   0  0  0  0  0  0  0  0  0  0  0  0
  2  3  1  0
  2  1  1  1
  4  8  1  0
  4  3  1  0
  5  4  2  0
  6  2  1  0
  7  6  2  0
  9 10  1  0
 10 12  1  0
 11 10  2  0
 13 12  1  6
 13 14  1  0
 14  6  1  0
 15 17  1  0
 15 13  1  0
 16 15  2  0
 18 23  1  0
 18 17  1  0
 18 19  1  1
 19 20  1  0
 21 22  2  0
 21 20  1  0
 23 26  1  0
 24 23  2  0
 25 21  1  0
M  END
$$$$
