RHK.pdb
     RDKit          3D

 31 31  0  0  1  0  0  0  0  0999 V2000
   28.4269  -28.3656  -16.0450 N   0  0  0  0  0  0  0  0  0  0  0  0
   27.8888  -29.5128  -16.7266 C   0  0  0  0  0  0  0  0  0  0  0  0
   28.5291  -30.6452  -16.6011 N   0  0  0  0  0  0  0  0  0  0  0  0
   26.7245  -29.4228  -17.5012 N   0  0  0  0  0  0  0  0  0  0  0  0
   25.7723  -28.3526  -17.3722 C   0  0  0  0  0  0  0  0  0  0  0  0
   26.1597  -27.1674  -18.2284 C   0  0  0  0  0  0  0  0  0  0  0  0
   25.1971  -26.0362  -18.1558 C   0  0  0  0  0  0  0  0  0  0  0  0
   25.6956  -24.7986  -17.4872 C   0  0  2  0  0  0  0  0  0  0  0  0
   26.7771  -25.0355  -16.5718 N   0  0  0  0  0  0  0  0  0  0  0  0
   24.5513  -24.1981  -16.7346 C   0  0  0  0  0  0  0  0  0  0  0  0
   24.5953  -24.0211  -15.4924 O   0  0  0  0  0  0  0  0  0  0  0  0
   28.1827  -31.5074  -17.0938 N   0  0  0  0  0  0  0  0  0  0  0  0
   23.3975  -23.8225  -17.4381 C   0  0  2  0  0  0  0  0  0  0  0  0
   22.2556  -23.1091  -16.9231 C   0  0  0  0  0  0  0  0  0  0  0  0
   21.6596  -22.2515  -17.9622 C   0  0  0  0  0  0  0  0  0  0  0  0
   22.2858  -20.9162  -18.1206 C   0  0  0  0  0  0  0  0  0  0  0  0
   23.2795  -20.4750  -17.2404 N   0  0  0  0  0  0  0  0  0  0  0  0
   23.6596  -19.2544  -17.6157 C   0  0  0  0  0  0  0  0  0  0  0  0
   22.9293  -18.9467  -18.6929 N   0  0  0  0  0  0  0  0  0  0  0  0
   22.0933  -19.9375  -19.0126 C   0  0  0  0  0  0  0  0  0  0  0  0
   21.2449  -24.0410  -16.3525 O   0  0  0  0  0  0  0  0  0  0  0  0
   21.3083  -25.3066  -16.5405 N   0  0  0  0  0  0  0  0  0  0  0  0
   20.1512  -23.6026  -15.5685 C   0  0  1  0  0  0  0  0  0  0  0  0
   19.3382  -24.5032  -14.7917 C   0  0  0  0  0  0  0  0  0  0  0  0
   20.0894  -25.2029  -13.6848 C   0  0  0  0  0  0  0  0  0  0  0  0
   19.1327  -26.0404  -12.8551 C   0  0  0  0  0  0  0  0  0  0  0  0
   19.9152  -26.8011  -11.8253 C   0  0  0  0  0  0  0  0  0  0  0  0
   19.0379  -27.6646  -10.9531 N   0  0  0  0  0  0  0  0  0  0  0  0
   19.7599  -28.3971   -9.9541 C   0  0  0  0  0  0  0  0  0  0  0  0
   18.1903  -23.7317  -14.1800 O   0  0  0  0  0  0  0  0  0  0  0  0
   17.1024  -24.3233  -13.9999 O   0  0  0  0  0  0  0  0  0  0  0  0
  1  2  1  0
  2  3  2  0
  4  2  1  0
  4  5  1  0
  5  6  1  0
  6  7  1  0
  7  8  1  0
  8 10  1  0
  8  9  1  1
 10 11  2  0
 10 12  1  0
 12 13  1  0
 13 20  1  0
 13 14  1  1
 15 14  1  0
 16 15  2  0
 17 18  1  0
 17 16  1  0
 18 19  2  0
 19 15  1  0
 20 21  2  0
 20 22  1  0
 22 23  1  0
 23 29  1  0
 23 24  1  6
 25 24  1  0
 25 26  1  0
 27 26  1  0
 27 28  1  0
 29 31  1  0
 30 29  2  0
M  END
$$$$
