RHK.pdb
     RDKit          3D

 31 31  0  0  1  0  0  0  0  0999 V2000
   22.3402  -26.7051  -16.1435 N   0  0  0  0  0  0  0  0  0  0  0  0
   22.4056  -26.0686  -14.8548 C   0  0  0  0  0  0  0  0  0  0  0  0
   21.3446  -26.1335  -14.0945 N   0  0  0  0  0  0  0  0  0  0  0  0
   23.5604  -25.3986  -14.4286 N   0  0  0  0  0  0  0  0  0  0  0  0
   24.5831  -24.9390  -15.3293 C   0  0  0  0  0  0  0  0  0  0  0  0
   24.2954  -23.5360  -15.8160 C   0  0  0  0  0  0  0  0  0  0  0  0
   25.2345  -23.0627  -16.8675 C   0  0  0  0  0  0  0  0  0  0  0  0
   26.5745  -22.6123  -16.3893 C   0  0  2  0  0  0  0  0  0  0  0  0
   27.2971  -23.6229  -15.6680 N   0  0  0  0  0  0  0  0  0  0  0  0
   26.3627  -21.4373  -15.4888 C   0  0  0  0  0  0  0  0  0  0  0  0
   27.0589  -21.2573  -14.4596 O   0  0  0  0  0  0  0  0  0  0  0  0
   21.3361  -25.6611  -13.1549 N   0  0  0  0  0  0  0  0  0  0  0  0
   25.3576  -20.5114  -15.8047 C   0  0  2  0  0  0  0  0  0  0  0  0
   25.4264  -19.0762  -15.6889 C   0  0  0  0  0  0  0  0  0  0  0  0
   26.5813  -18.5438  -16.4326 C   0  0  0  0  0  0  0  0  0  0  0  0
   26.7440  -17.0703  -16.3844 C   0  0  0  0  0  0  0  0  0  0  0  0
   27.0412  -16.4148  -15.1849 N   0  0  0  0  0  0  0  0  0  0  0  0
   27.1315  -15.1088  -15.4324 C   0  0  0  0  0  0  0  0  0  0  0  0
   26.9002  -14.9562  -16.7407 N   0  0  0  0  0  0  0  0  0  0  0  0
   26.6633  -16.1293  -17.3325 C   0  0  0  0  0  0  0  0  0  0  0  0
   24.1597  -18.4338  -16.1345 O   0  0  0  0  0  0  0  0  0  0  0  0
   23.7588  -18.4980  -17.3495 N   0  0  0  0  0  0  0  0  0  0  0  0
   23.3138  -17.7128  -15.2584 C   0  0  2  0  0  0  0  0  0  0  0  0
   22.1479  -16.9987  -15.7124 C   0  0  0  0  0  0  0  0  0  0  0  0
   22.1190  -15.5484  -15.2941 C   0  0  0  0  0  0  0  0  0  0  0  0
   20.8605  -14.8805  -15.8184 C   0  0  0  0  0  0  0  0  0  0  0  0
   20.8417  -13.4496  -15.3672 C   0  0  0  0  0  0  0  0  0  0  0  0
   19.6868  -12.6737  -15.9507 N   0  0  0  0  0  0  0  0  0  0  0  0
   19.5068  -11.3782  -15.3635 C   0  0  0  0  0  0  0  0  0  0  0  0
   22.0836  -17.0644  -17.2220 O   0  0  0  0  0  0  0  0  0  0  0  0
   21.0187  -17.4451  -17.7578 O   0  0  0  0  0  0  0  0  0  0  0  0
  1  2  1  0
  2  3  2  0
  4  2  1  0
  4  5  1  0
  5  6  1  0
  6  7  1  0
  7  8  1  0
  8 10  1  0
  8  9  1  1
 10 11  2  0
 10 12  1  0
 12 13  1  0
 13 20  1  0
 13 14  1  6
 15 14  1  0
 16 15  2  0
 17 18  1  0
 17 16  1  0
 18 19  2  0
 19 15  1  0
 20 21  2  0
 20 22  1  0
 22 23  1  0
 23 29  1  0
 23 24  1  6
 25 24  1  0
 25 26  1  0
 27 26  1  0
 27 28  1  0
 29 31  1  0
 30 29  2  0
M  END
$$$$
