RHK.pdb
     RDKit          3D

 31 31  0  0  1  0  0  0  0  0999 V2000
   30.5426  -20.9860  -20.0372 N   0  0  0  0  0  0  0  0  0  0  0  0
   29.6810  -20.2572  -20.9297 C   0  0  0  0  0  0  0  0  0  0  0  0
   30.1705  -19.9064  -22.0896 N   0  0  0  0  0  0  0  0  0  0  0  0
   28.3666  -19.9292  -20.5708 N   0  0  0  0  0  0  0  0  0  0  0  0
   27.7269  -20.4246  -19.3818 C   0  0  0  0  0  0  0  0  0  0  0  0
   28.1508  -19.6370  -18.1620 C   0  0  0  0  0  0  0  0  0  0  0  0
   27.4579  -20.0496  -16.9125 C   0  0  0  0  0  0  0  0  0  0  0  0
   27.8824  -21.3580  -16.3338 C   0  0  2  0  0  0  0  0  0  0  0  0
   27.7860  -22.4537  -17.2580 N   0  0  0  0  0  0  0  0  0  0  0  0
   27.0014  -21.6409  -15.1590 C   0  0  0  0  0  0  0  0  0  0  0  0
   27.0599  -22.7280  -14.5335 O   0  0  0  0  0  0  0  0  0  0  0  0
   31.1608  -20.1534  -22.3436 N   0  0  0  0  0  0  0  0  0  0  0  0
   26.0850  -20.6629  -14.7456 C   0  0  2  0  0  0  0  0  0  0  0  0
   25.3737  -20.6082  -13.4930 C   0  0  0  0  0  0  0  0  0  0  0  0
   26.3001  -20.7486  -12.3561 C   0  0  0  0  0  0  0  0  0  0  0  0
   25.6669  -20.7356  -11.0148 C   0  0  0  0  0  0  0  0  0  0  0  0
   25.1447  -21.9043  -10.4508 N   0  0  0  0  0  0  0  0  0  0  0  0
   24.6439  -21.6040   -9.2532 C   0  0  0  0  0  0  0  0  0  0  0  0
   24.8486  -20.2943   -9.0767 N   0  0  0  0  0  0  0  0  0  0  0  0
   25.4644  -19.7522  -10.1301 C   0  0  0  0  0  0  0  0  0  0  0  0
   24.5700  -19.3605  -13.3786 O   0  0  0  0  0  0  0  0  0  0  0  0
   24.7462  -18.5269  -12.4219 N   0  0  0  0  0  0  0  0  0  0  0  0
   23.5631  -19.0068  -14.3081 C   0  0  2  0  0  0  0  0  0  0  0  0
   22.2914  -19.6805  -14.3739 C   0  0  0  0  0  0  0  0  0  0  0  0
   22.4015  -21.1797  -14.5136 C   0  0  0  0  0  0  0  0  0  0  0  0
   21.0187  -21.8063  -14.5033 C   0  0  0  0  0  0  0  0  0  0  0  0
   20.9979  -22.9617  -15.4603 C   0  0  0  0  0  0  0  0  0  0  0  0
   19.6670  -23.6720  -15.4815 N   0  0  0  0  0  0  0  0  0  0  0  0
   19.6015  -24.7466  -16.4284 C   0  0  0  0  0  0  0  0  0  0  0  0
   21.5020  -19.3716  -13.1214 O   0  0  0  0  0  0  0  0  0  0  0  0
   20.6962  -18.4144  -13.1449 O   0  0  0  0  0  0  0  0  0  0  0  0
  1  2  1  0
  2  3  2  0
  4  2  1  0
  4  5  1  0
  5  6  1  0
  6  7  1  0
  7  8  1  0
  8 10  1  0
  8  9  1  6
 10 11  2  0
 10 12  1  0
 12 13  1  0
 13 20  1  0
 13 14  1  1
 15 14  1  0
 16 15  2  0
 17 18  1  0
 17 16  1  0
 18 19  2  0
 19 15  1  0
 20 21  2  0
 20 22  1  0
 22 23  1  0
 23 29  1  0
 23 24  1  6
 25 24  1  0
 25 26  1  0
 27 26  1  0
 27 28  1  0
 29 31  1  0
 30 29  2  0
M  END
$$$$
