RHK.pdb
     RDKit          3D

 31 31  0  0  1  0  0  0  0  0999 V2000
   44.6665   -4.3289  -14.0191 N   0  0  0  0  0  0  0  0  0  0  0  0
   44.2241   -3.4184  -12.9967 C   0  0  0  0  0  0  0  0  0  0  0  0
   45.0453   -2.4666  -12.6390 N   0  0  0  0  0  0  0  0  0  0  0  0
   42.9625   -3.5465  -12.4003 N   0  0  0  0  0  0  0  0  0  0  0  0
   42.0195   -4.5703  -12.7623 C   0  0  0  0  0  0  0  0  0  0  0  0
   40.7106   -4.3963  -12.0244 C   0  0  0  0  0  0  0  0  0  0  0  0
   39.7161   -5.4646  -12.3093 C   0  0  0  0  0  0  0  0  0  0  0  0
   38.3757   -5.2925  -11.6761 C   0  0  2  0  0  0  0  0  0  0  0  0
   38.0008   -3.9185  -11.4882 N   0  0  0  0  0  0  0  0  0  0  0  0
   38.4150   -5.9670  -10.3420 C   0  0  0  0  0  0  0  0  0  0  0  0
   38.3713   -5.3164   -9.2690 O   0  0  0  0  0  0  0  0  0  0  0  0
   44.7465   -1.7460  -11.9336 N   0  0  0  0  0  0  0  0  0  0  0  0
   38.5031   -7.3659  -10.2900 C   0  0  2  0  0  0  0  0  0  0  0  0
   38.5794   -8.1916   -9.1110 C   0  0  0  0  0  0  0  0  0  0  0  0
   37.9025   -9.4819   -9.3284 C   0  0  0  0  0  0  0  0  0  0  0  0
   37.7992  -10.3549   -8.1337 C   0  0  0  0  0  0  0  0  0  0  0  0
   38.3274   -9.9579   -6.9006 N   0  0  0  0  0  0  0  0  0  0  0  0
   38.0933  -10.9243   -6.0139 C   0  0  0  0  0  0  0  0  0  0  0  0
   37.4406  -11.8889   -6.6712 N   0  0  0  0  0  0  0  0  0  0  0  0
   37.2544  -11.5637   -7.9527 C   0  0  0  0  0  0  0  0  0  0  0  0
   39.9896   -8.3924   -8.6786 O   0  0  0  0  0  0  0  0  0  0  0  0
   40.9341   -8.5926   -9.5207 N   0  0  0  0  0  0  0  0  0  0  0  0
   40.3868   -8.3769   -7.3204 C   0  0  2  0  0  0  0  0  0  0  0  0
   41.7563   -8.5470   -6.9067 C   0  0  0  0  0  0  0  0  0  0  0  0
   42.3515   -9.8779   -7.2989 C   0  0  0  0  0  0  0  0  0  0  0  0
   43.7884   -9.9676   -6.8169 C   0  0  0  0  0  0  0  0  0  0  0  0
   44.3704  -11.2793   -7.2551 C   0  0  0  0  0  0  0  0  0  0  0  0
   45.8141  -11.4375   -6.8465 N   0  0  0  0  0  0  0  0  0  0  0  0
   46.3276  -12.7617   -7.0428 C   0  0  0  0  0  0  0  0  0  0  0  0
   42.5975   -7.4469   -7.5145 O   0  0  0  0  0  0  0  0  0  0  0  0
   42.7918   -6.4064   -6.8470 O   0  0  0  0  0  0  0  0  0  0  0  0
  1  2  1  0
  2  3  2  0
  4  2  1  0
  4  5  1  0
  5  6  1  0
  6  7  1  0
  7  8  1  0
  8 10  1  0
  8  9  1  1
 10 11  2  0
 10 12  1  0
 12 13  1  0
 13 20  1  0
 13 14  1  6
 15 14  1  0
 16 15  2  0
 17 18  1  0
 17 16  1  0
 18 19  2  0
 19 15  1  0
 20 21  2  0
 20 22  1  0
 22 23  1  0
 23 29  1  0
 23 24  1  6
 25 24  1  0
 25 26  1  0
 27 26  1  0
 27 28  1  0
 29 31  1  0
 30 29  2  0
M  END
$$$$
