RHK.pdb
     RDKit          3D

 31 31  0  0  1  0  0  0  0  0999 V2000
   28.8690  -18.0876  -17.9160 N   0  0  0  0  0  0  0  0  0  0  0  0
   28.7031  -19.5160  -17.8706 C   0  0  0  0  0  0  0  0  0  0  0  0
   29.5753  -20.2461  -18.5144 N   0  0  0  0  0  0  0  0  0  0  0  0
   27.6445  -20.1068  -17.1677 N   0  0  0  0  0  0  0  0  0  0  0  0
   26.7326  -19.3611  -16.3424 C   0  0  0  0  0  0  0  0  0  0  0  0
   25.6732  -20.2602  -15.7447 C   0  0  0  0  0  0  0  0  0  0  0  0
   25.9033  -20.5863  -14.3121 C   0  0  0  0  0  0  0  0  0  0  0  0
   24.8474  -21.4102  -13.6538 C   0  0  2  0  0  0  0  0  0  0  0  0
   24.4191  -22.5323  -14.4419 N   0  0  0  0  0  0  0  0  0  0  0  0
   23.6708  -20.5219  -13.4024 C   0  0  0  0  0  0  0  0  0  0  0  0
   23.7222  -19.5695  -12.5859 O   0  0  0  0  0  0  0  0  0  0  0  0
   29.4486  -21.2880  -18.5806 N   0  0  0  0  0  0  0  0  0  0  0  0
   22.4775  -20.7611  -14.0995 C   0  0  1  0  0  0  0  0  0  0  0  0
   21.2144  -20.0893  -13.9224 C   0  0  0  0  0  0  0  0  0  0  0  0
   20.8946  -19.2544  -15.0933 C   0  0  0  0  0  0  0  0  0  0  0  0
   19.6643  -18.4347  -14.9725 C   0  0  0  0  0  0  0  0  0  0  0  0
   18.8737  -18.4833  -13.8194 N   0  0  0  0  0  0  0  0  0  0  0  0
   17.8438  -17.6539  -13.9824 C   0  0  0  0  0  0  0  0  0  0  0  0
   17.9887  -17.1066  -15.1940 N   0  0  0  0  0  0  0  0  0  0  0  0
   19.0817  -17.5663  -15.8076 C   0  0  0  0  0  0  0  0  0  0  0  0
   20.1195  -21.0569  -13.6389 O   0  0  0  0  0  0  0  0  0  0  0  0
   19.9522  -22.1152  -14.3413 N   0  0  0  0  0  0  0  0  0  0  0  0
   19.1926  -20.8815  -12.5839 C   0  0  1  0  0  0  0  0  0  0  0  0
   18.1373  -21.8230  -12.3087 C   0  0  0  0  0  0  0  0  0  0  0  0
   18.0139  -22.1921  -10.8500 C   0  0  0  0  0  0  0  0  0  0  0  0
   18.2505  -23.6807  -10.6681 C   0  0  0  0  0  0  0  0  0  0  0  0
   18.0027  -24.0438   -9.2335 C   0  0  0  0  0  0  0  0  0  0  0  0
   18.1426  -25.5243   -8.9786 N   0  0  0  0  0  0  0  0  0  0  0  0
   18.0066  -25.8874   -7.5982 C   0  0  0  0  0  0  0  0  0  0  0  0
   16.8204  -21.2395  -12.7694 O   0  0  0  0  0  0  0  0  0  0  0  0
   16.5970  -20.0271  -12.5541 O   0  0  0  0  0  0  0  0  0  0  0  0
  1  2  1  0
  2  3  2  0
  4  2  1  0
  4  5  1  0
  5  6  1  0
  6  7  1  0
  7  8  1  0
  8 10  1  0
  8  9  1  6
 10 11  2  0
 10 12  1  0
 12 13  1  0
 13 20  1  0
 13 14  1  1
 15 14  1  0
 16 15  2  0
 17 18  1  0
 17 16  1  0
 18 19  2  0
 19 15  1  0
 20 21  2  0
 20 22  1  0
 22 23  1  0
 23 29  1  0
 23 24  1  6
 25 24  1  0
 25 26  1  0
 27 26  1  0
 27 28  1  0
 29 31  1  0
 30 29  2  0
M  END
$$$$
