RHK.pdb
     RDKit          3D

 31 31  0  0  1  0  0  0  0  0999 V2000
   33.1613  -32.9658  -17.1223 N   0  0  0  0  0  0  0  0  0  0  0  0
   33.7443  -33.5617  -18.2949 C   0  0  0  0  0  0  0  0  0  0  0  0
   34.1466  -34.8020  -18.2057 N   0  0  0  0  0  0  0  0  0  0  0  0
   33.8822  -32.8413  -19.4890 N   0  0  0  0  0  0  0  0  0  0  0  0
   33.3776  -31.5063  -19.6672 C   0  0  0  0  0  0  0  0  0  0  0  0
   34.2130  -30.4984  -18.9095 C   0  0  0  0  0  0  0  0  0  0  0  0
   33.4782  -29.2536  -18.5599 C   0  0  0  0  0  0  0  0  0  0  0  0
   33.5406  -28.1553  -19.5683 C   0  0  2  0  0  0  0  0  0  0  0  0
   34.6103  -27.2242  -19.3387 N   0  0  0  0  0  0  0  0  0  0  0  0
   32.2409  -27.4174  -19.5153 C   0  0  0  0  0  0  0  0  0  0  0  0
   32.0740  -26.4223  -18.7681 O   0  0  0  0  0  0  0  0  0  0  0  0
   34.5240  -35.2990  -19.0522 N   0  0  0  0  0  0  0  0  0  0  0  0
   31.1801  -27.8505  -20.3241 C   0  0  2  0  0  0  0  0  0  0  0  0
   29.9007  -27.2103  -20.5012 C   0  0  0  0  0  0  0  0  0  0  0  0
   29.7681  -26.6696  -21.8651 C   0  0  0  0  0  0  0  0  0  0  0  0
   30.4400  -25.3684  -22.1012 C   0  0  0  0  0  0  0  0  0  0  0  0
   30.9834  -24.6330  -21.0425 N   0  0  0  0  0  0  0  0  0  0  0  0
   31.5201  -23.5189  -21.5383 C   0  0  0  0  0  0  0  0  0  0  0  0
   31.3195  -23.5597  -22.8599 N   0  0  0  0  0  0  0  0  0  0  0  0
   30.6682  -24.6686  -23.2187 C   0  0  0  0  0  0  0  0  0  0  0  0
   28.7806  -28.1367  -20.1806 O   0  0  0  0  0  0  0  0  0  0  0  0
   28.9736  -29.3857  -19.9711 N   0  0  0  0  0  0  0  0  0  0  0  0
   27.4343  -27.7108  -20.0845 C   0  0  1  0  0  0  0  0  0  0  0  0
   26.3507  -28.6126  -19.7879 C   0  0  0  0  0  0  0  0  0  0  0  0
   26.5270  -29.3747  -18.4966 C   0  0  0  0  0  0  0  0  0  0  0  0
   25.3514  -30.3107  -18.2800 C   0  0  0  0  0  0  0  0  0  0  0  0
   25.6072  -31.1428  -17.0579 C   0  0  0  0  0  0  0  0  0  0  0  0
   24.5915  -32.2449  -16.8850 N   0  0  0  0  0  0  0  0  0  0  0  0
   24.8257  -33.0703  -15.7363 C   0  0  0  0  0  0  0  0  0  0  0  0
   25.0604  -27.8277  -19.7099 O   0  0  0  0  0  0  0  0  0  0  0  0
   23.9861  -28.4567  -19.5825 O   0  0  0  0  0  0  0  0  0  0  0  0
  1  2  1  0
  2  3  2  0
  4  2  1  0
  4  5  1  0
  5  6  1  0
  6  7  1  0
  7  8  1  0
  8 10  1  0
  8  9  1  1
 10 11  2  0
 10 12  1  0
 12 13  1  0
 13 20  1  0
 13 14  1  1
 15 14  1  0
 16 15  2  0
 17 18  1  0
 17 16  1  0
 18 19  2  0
 19 15  1  0
 20 21  2  0
 20 22  1  0
 22 23  1  0
 23 29  1  0
 23 24  1  6
 25 24  1  0
 25 26  1  0
 27 26  1  0
 27 28  1  0
 29 31  1  0
 30 29  2  0
M  END
$$$$
