RHK.pdb
     RDKit          3D

 31 31  0  0  1  0  0  0  0  0999 V2000
   25.2666  -24.3092  -15.0647 N   0  0  0  0  0  0  0  0  0  0  0  0
   26.5107  -24.0369  -15.7342 C   0  0  0  0  0  0  0  0  0  0  0  0
   27.2168  -25.0604  -16.1364 N   0  0  0  0  0  0  0  0  0  0  0  0
   26.9550  -22.7246  -15.9449 N   0  0  0  0  0  0  0  0  0  0  0  0
   26.0706  -21.5917  -15.9984 C   0  0  0  0  0  0  0  0  0  0  0  0
   25.1115  -21.6990  -17.1630 C   0  0  0  0  0  0  0  0  0  0  0  0
   24.0431  -20.6645  -17.1562 C   0  0  0  0  0  0  0  0  0  0  0  0
   24.4479  -19.3069  -17.6254 C   0  0  2  0  0  0  0  0  0  0  0  0
   25.8678  -19.0899  -17.6013 N   0  0  0  0  0  0  0  0  0  0  0  0
   23.7928  -18.3042  -16.7300 C   0  0  0  0  0  0  0  0  0  0  0  0
   24.4051  -17.2921  -16.3090 O   0  0  0  0  0  0  0  0  0  0  0  0
   28.1262  -24.9107  -16.6430 N   0  0  0  0  0  0  0  0  0  0  0  0
   22.4570  -18.5016  -16.3511 C   0  0  1  0  0  0  0  0  0  0  0  0
   21.5487  -17.5198  -15.8134 C   0  0  0  0  0  0  0  0  0  0  0  0
   21.5789  -16.2827  -16.6128 C   0  0  0  0  0  0  0  0  0  0  0  0
   20.7041  -15.1888  -16.1245 C   0  0  0  0  0  0  0  0  0  0  0  0
   19.9455  -15.3360  -14.9584 N   0  0  0  0  0  0  0  0  0  0  0  0
   19.2622  -14.2099  -14.7583 C   0  0  0  0  0  0  0  0  0  0  0  0
   19.5851  -13.3893  -15.7636 N   0  0  0  0  0  0  0  0  0  0  0  0
   20.4541  -13.9630  -16.5994 C   0  0  0  0  0  0  0  0  0  0  0  0
   20.1648  -18.0582  -15.7111 O   0  0  0  0  0  0  0  0  0  0  0  0
   19.5566  -18.5589  -16.7214 N   0  0  0  0  0  0  0  0  0  0  0  0
   19.4268  -18.0571  -14.5036 C   0  0  1  0  0  0  0  0  0  0  0  0
   18.1061  -18.6227  -14.3966 C   0  0  0  0  0  0  0  0  0  0  0  0
   18.0780  -19.9917  -13.7607 C   0  0  0  0  0  0  0  0  0  0  0  0
   16.6931  -20.5992  -13.8941 C   0  0  0  0  0  0  0  0  0  0  0  0
   16.7111  -21.9878  -13.3259 C   0  0  0  0  0  0  0  0  0  0  0  0
   15.3829  -22.6890  -13.4687 N   0  0  0  0  0  0  0  0  0  0  0  0
   15.3278  -23.9604  -12.8083 C   0  0  0  0  0  0  0  0  0  0  0  0
   17.2350  -17.6955  -13.5789 O   0  0  0  0  0  0  0  0  0  0  0  0
   15.9946  -17.7496  -13.7354 O   0  0  0  0  0  0  0  0  0  0  0  0
  1  2  1  0
  2  3  2  0
  4  2  1  0
  4  5  1  0
  5  6  1  0
  6  7  1  0
  7  8  1  0
  8 10  1  0
  8  9  1  1
 10 11  2  0
 10 12  1  0
 12 13  1  0
 13 20  1  0
 13 14  1  1
 15 14  1  0
 16 15  2  0
 17 18  1  0
 17 16  1  0
 18 19  2  0
 19 15  1  0
 20 21  2  0
 20 22  1  0
 22 23  1  0
 23 29  1  0
 23 24  1  6
 25 24  1  0
 25 26  1  0
 27 26  1  0
 27 28  1  0
 29 31  1  0
 30 29  2  0
M  END
$$$$
