RHK.pdb
     RDKit          3D

 31 31  0  0  1  0  0  0  0  0999 V2000
   26.4214  -17.3840  -19.5339 N   0  0  0  0  0  0  0  0  0  0  0  0
   27.5049  -16.6826  -18.8981 C   0  0  0  0  0  0  0  0  0  0  0  0
   28.1201  -15.7632  -19.5939 N   0  0  0  0  0  0  0  0  0  0  0  0
   27.8927  -16.9746  -17.5835 N   0  0  0  0  0  0  0  0  0  0  0  0
   27.9810  -18.3137  -17.0664 C   0  0  0  0  0  0  0  0  0  0  0  0
   26.9407  -19.2141  -17.6947 C   0  0  0  0  0  0  0  0  0  0  0  0
   25.9037  -19.6881  -16.7399 C   0  0  0  0  0  0  0  0  0  0  0  0
   26.3155  -20.7948  -15.8274 C   0  0  2  0  0  0  0  0  0  0  0  0
   26.8284  -21.9467  -16.5159 N   0  0  0  0  0  0  0  0  0  0  0  0
   25.1126  -21.2024  -15.0380 C   0  0  0  0  0  0  0  0  0  0  0  0
   24.2249  -21.9478  -15.5204 O   0  0  0  0  0  0  0  0  0  0  0  0
   28.9036  -15.2087  -19.1641 N   0  0  0  0  0  0  0  0  0  0  0  0
   24.9741  -20.7379  -13.7218 C   0  0  2  0  0  0  0  0  0  0  0  0
   23.9071  -21.0360  -12.7996 C   0  0  0  0  0  0  0  0  0  0  0  0
   24.2669  -20.6285  -11.4303 C   0  0  0  0  0  0  0  0  0  0  0  0
   23.2303  -20.8794  -10.3994 C   0  0  0  0  0  0  0  0  0  0  0  0
   21.9922  -21.4347  -10.7395 N   0  0  0  0  0  0  0  0  0  0  0  0
   21.2652  -21.5492   -9.6289 C   0  0  0  0  0  0  0  0  0  0  0  0
   22.0245  -21.0830   -8.6316 N   0  0  0  0  0  0  0  0  0  0  0  0
   23.2145  -20.6731   -9.0773 C   0  0  0  0  0  0  0  0  0  0  0  0
   22.6276  -20.4069  -13.2273 O   0  0  0  0  0  0  0  0  0  0  0  0
   22.5956  -19.2678  -13.8128 N   0  0  0  0  0  0  0  0  0  0  0  0
   21.3659  -21.0140  -13.0213 C   0  0  1  0  0  0  0  0  0  0  0  0
   20.1743  -20.5886  -13.7103 C   0  0  0  0  0  0  0  0  0  0  0  0
   20.3532  -20.4360  -15.2016 C   0  0  0  0  0  0  0  0  0  0  0  0
   20.4072  -18.9645  -15.5714 C   0  0  0  0  0  0  0  0  0  0  0  0
   20.5936  -18.8394  -17.0550 C   0  0  0  0  0  0  0  0  0  0  0  0
   20.6299  -17.4029  -17.5148 N   0  0  0  0  0  0  0  0  0  0  0  0
   20.7242  -17.2548  -18.9378 C   0  0  0  0  0  0  0  0  0  0  0  0
   19.0718  -21.5928  -13.4591 O   0  0  0  0  0  0  0  0  0  0  0  0
   19.3893  -22.7571  -13.1279 O   0  0  0  0  0  0  0  0  0  0  0  0
  1  2  1  0
  2  3  2  0
  4  2  1  0
  4  5  1  0
  5  6  1  0
  6  7  1  0
  7  8  1  0
  8 10  1  0
  8  9  1  6
 10 11  2  0
 10 12  1  0
 12 13  1  0
 13 20  1  0
 13 14  1  1
 15 14  1  0
 16 15  2  0
 17 18  1  0
 17 16  1  0
 18 19  2  0
 19 15  1  0
 20 21  2  0
 20 22  1  0
 22 23  1  0
 23 29  1  0
 23 24  1  1
 25 24  1  0
 25 26  1  0
 27 26  1  0
 27 28  1  0
 29 31  1  0
 30 29  2  0
M  END
$$$$
