RHK.pdb
     RDKit          3D

 31 31  0  0  1  0  0  0  0  0999 V2000
   24.5410  -21.0946   -8.4701 N   0  0  0  0  0  0  0  0  0  0  0  0
   25.9473  -20.8001   -8.5436 C   0  0  0  0  0  0  0  0  0  0  0  0
   26.5951  -20.6614   -7.4169 N   0  0  0  0  0  0  0  0  0  0  0  0
   26.6015  -20.6615   -9.7751 N   0  0  0  0  0  0  0  0  0  0  0  0
   25.9365  -20.8073  -11.0420 C   0  0  0  0  0  0  0  0  0  0  0  0
   26.8829  -20.5431  -12.1920 C   0  0  0  0  0  0  0  0  0  0  0  0
   26.2431  -20.6486  -13.5303 C   0  0  0  0  0  0  0  0  0  0  0  0
   25.0221  -21.5036  -13.6031 C   0  0  2  0  0  0  0  0  0  0  0  0
   25.2731  -22.8217  -14.1165 N   0  0  0  0  0  0  0  0  0  0  0  0
   24.0411  -20.8172  -14.4991 C   0  0  0  0  0  0  0  0  0  0  0  0
   23.9576  -19.5656  -14.5545 O   0  0  0  0  0  0  0  0  0  0  0  0
   27.6257  -20.4521   -7.4203 N   0  0  0  0  0  0  0  0  0  0  0  0
   23.1916  -21.5950  -15.2993 C   0  0  1  0  0  0  0  0  0  0  0  0
   22.2614  -21.1264  -16.2958 C   0  0  0  0  0  0  0  0  0  0  0  0
   21.9039  -22.2075  -17.2306 C   0  0  0  0  0  0  0  0  0  0  0  0
   22.8929  -22.4728  -18.3037 C   0  0  0  0  0  0  0  0  0  0  0  0
   24.0365  -21.6796  -18.4449 N   0  0  0  0  0  0  0  0  0  0  0  0
   24.7407  -22.1399  -19.4779 C   0  0  0  0  0  0  0  0  0  0  0  0
   24.0604  -23.1844  -19.9624 N   0  0  0  0  0  0  0  0  0  0  0  0
   22.9413  -23.4005  -19.2670 C   0  0  0  0  0  0  0  0  0  0  0  0
   21.0469  -20.5355  -15.6700 O   0  0  0  0  0  0  0  0  0  0  0  0
   20.5632  -20.9858  -14.5725 N   0  0  0  0  0  0  0  0  0  0  0  0
   20.3445  -19.4444  -16.2349 C   0  0  2  0  0  0  0  0  0  0  0  0
   19.1548  -18.8910  -15.6400 C   0  0  0  0  0  0  0  0  0  0  0  0
   18.4619  -17.8640  -16.5028 C   0  0  0  0  0  0  0  0  0  0  0  0
   17.3517  -17.1886  -15.7179 C   0  0  0  0  0  0  0  0  0  0  0  0
   16.6605  -16.1948  -16.6044 C   0  0  0  0  0  0  0  0  0  0  0  0
   15.6295  -15.3783  -15.8650 N   0  0  0  0  0  0  0  0  0  0  0  0
   14.9127  -14.4602  -16.7011 C   0  0  0  0  0  0  0  0  0  0  0  0
   18.1801  -20.0101  -15.3489 O   0  0  0  0  0  0  0  0  0  0  0  0
   17.9877  -20.8780  -16.2298 O   0  0  0  0  0  0  0  0  0  0  0  0
  1  2  1  0
  2  3  2  0
  4  2  1  0
  4  5  1  0
  5  6  1  0
  6  7  1  0
  7  8  1  0
  8 10  1  0
  8  9  1  6
 10 11  2  0
 10 12  1  0
 12 13  1  0
 13 20  1  0
 13 14  1  6
 15 14  1  0
 16 15  2  0
 17 18  1  0
 17 16  1  0
 18 19  2  0
 19 15  1  0
 20 21  2  0
 20 22  1  0
 22 23  1  0
 23 29  1  0
 23 24  1  6
 25 24  1  0
 25 26  1  0
 27 26  1  0
 27 28  1  0
 29 31  1  0
 30 29  2  0
M  END
$$$$
