RHK.pdb
     RDKit          3D

 31 31  0  0  1  0  0  0  0  0999 V2000
   28.6490  -27.4120  -16.0477 N   0  0  0  0  0  0  0  0  0  0  0  0
   28.7971  -27.3278  -17.4764 C   0  0  0  0  0  0  0  0  0  0  0  0
   29.3388  -28.3476  -18.0886 N   0  0  0  0  0  0  0  0  0  0  0  0
   28.3819  -26.1945  -18.1885 N   0  0  0  0  0  0  0  0  0  0  0  0
   27.4713  -25.2177  -17.6547 C   0  0  0  0  0  0  0  0  0  0  0  0
   26.1272  -25.8356  -17.3391 C   0  0  0  0  0  0  0  0  0  0  0  0
   25.1304  -24.8648  -16.8141 C   0  0  0  0  0  0  0  0  0  0  0  0
   25.1888  -23.4920  -17.3963 C   0  0  2  0  0  0  0  0  0  0  0  0
   26.4589  -23.1711  -17.9860 N   0  0  0  0  0  0  0  0  0  0  0  0
   24.9110  -22.5203  -16.2941 C   0  0  0  0  0  0  0  0  0  0  0  0
   25.1557  -22.7929  -15.0931 O   0  0  0  0  0  0  0  0  0  0  0  0
   29.5339  -28.3034  -19.1211 N   0  0  0  0  0  0  0  0  0  0  0  0
   24.3619  -21.2697  -16.6129 C   0  0  1  0  0  0  0  0  0  0  0  0
   23.9561  -20.2356  -15.6941 C   0  0  0  0  0  0  0  0  0  0  0  0
   24.6082  -18.9559  -16.0220 C   0  0  0  0  0  0  0  0  0  0  0  0
   26.0903  -18.9647  -15.9646 C   0  0  0  0  0  0  0  0  0  0  0  0
   26.7890  -20.0842  -15.5003 N   0  0  0  0  0  0  0  0  0  0  0  0
   28.0932  -19.8180  -15.5588 C   0  0  0  0  0  0  0  0  0  0  0  0
   28.2031  -18.5767  -16.0441 N   0  0  0  0  0  0  0  0  0  0  0  0
   27.0044  -18.0447  -16.2945 C   0  0  0  0  0  0  0  0  0  0  0  0
   22.4751  -20.0894  -15.6605 O   0  0  0  0  0  0  0  0  0  0  0  0
   21.7972  -19.8192  -16.7134 N   0  0  0  0  0  0  0  0  0  0  0  0
   21.7149  -20.2365  -14.4759 C   0  0  1  0  0  0  0  0  0  0  0  0
   20.2860  -20.0558  -14.4391 C   0  0  0  0  0  0  0  0  0  0  0  0
   19.5076  -21.3493  -14.4233 C   0  0  0  0  0  0  0  0  0  0  0  0
   19.9610  -22.2155  -13.2618 C   0  0  0  0  0  0  0  0  0  0  0  0
   19.1141  -23.4531  -13.2147 C   0  0  0  0  0  0  0  0  0  0  0  0
   19.4553  -24.3438  -12.0457 N   0  0  0  0  0  0  0  0  0  0  0  0
   18.6195  -25.5042  -11.9412 C   0  0  0  0  0  0  0  0  0  0  0  0
   19.9191  -19.2595  -13.2069 O   0  0  0  0  0  0  0  0  0  0  0  0
   18.7287  -18.9025  -13.0598 O   0  0  0  0  0  0  0  0  0  0  0  0
  1  2  1  0
  2  3  2  0
  4  2  1  0
  4  5  1  0
  5  6  1  0
  6  7  1  0
  7  8  1  0
  8 10  1  0
  8  9  1  1
 10 11  2  0
 10 12  1  0
 12 13  1  0
 13 20  1  0
 13 14  1  1
 15 14  1  0
 16 15  2  0
 17 18  1  0
 17 16  1  0
 18 19  2  0
 19 15  1  0
 20 21  2  0
 20 22  1  0
 22 23  1  0
 23 29  1  0
 23 24  1  1
 25 24  1  0
 25 26  1  0
 27 26  1  0
 27 28  1  0
 29 31  1  0
 30 29  2  0
M  END
$$$$
