LDR.pdb
     RDKit          3D

 28 27  0  0  1  0  0  0  0  0999 V2000
   28.0042  -12.0047  -15.0113 C   0  0  0  0  0  0  0  0  0  0  0  0
   27.2148  -11.6140  -16.2246 C   0  0  2  0  0  0  0  0  0  0  0  0
   28.1939  -11.1323  -17.2900 C   0  0  0  0  0  0  0  0  0  0  0  0
   26.2528  -10.4988  -15.9764 C   0  0  0  0  0  0  0  0  0  0  0  0
   25.1419  -10.4023  -16.9890 C   0  0  2  0  0  0  0  0  0  0  0  0
   25.6711  -10.6338  -18.2990 N   0  0  0  0  0  0  0  0  0  0  0  0
   24.5271   -9.0583  -16.8320 C   0  0  0  0  0  0  0  0  0  0  0  0
   23.9998   -8.7959  -15.7220 O   0  0  0  0  0  0  0  0  0  0  0  0
   24.4956   -8.0629  -17.8379 N   0  0  0  0  0  0  0  0  0  0  0  0
   23.8398   -6.7690  -17.6223 C   0  0  1  0  0  0  0  0  0  0  0  0
   24.2966   -5.7815  -18.6595 C   0  0  0  0  0  0  0  0  0  0  0  0
   23.7863   -4.4238  -18.4398 C   0  0  0  0  0  0  0  0  0  0  0  0
   23.0196   -4.0708  -17.5145 O   0  0  0  0  0  0  0  0  0  0  0  0
   22.3724   -6.9056  -17.5661 C   0  0  0  0  0  0  0  0  0  0  0  0
   21.7584   -7.5303  -18.4523 O   0  0  0  0  0  0  0  0  0  0  0  0
   24.2007   -3.4434  -19.3519 O   0  0  0  0  0  0  0  0  0  0  0  0
   17.2599  -12.4607  -15.4029 N   0  0  0  0  0  0  0  0  0  0  0  0
   16.3359  -11.4149  -15.2174 C   0  0  0  0  0  0  0  0  0  0  0  0
   15.0943  -11.6662  -14.9822 N   0  0  0  0  0  0  0  0  0  0  0  0
   16.7860  -10.0713  -15.2939 N   0  0  0  0  0  0  0  0  0  0  0  0
   18.0702   -9.6855  -15.7185 C   0  0  0  0  0  0  0  0  0  0  0  0
   18.4324   -8.2493  -15.8022 C   0  0  0  0  0  0  0  0  0  0  0  0
   19.8245   -7.9336  -16.2169 C   0  0  0  0  0  0  0  0  0  0  0  0
   20.1813   -6.4901  -16.3623 C   0  0  2  0  0  0  0  0  0  0  0  0
   21.6382   -6.3331  -16.5112 N   0  0  0  0  0  0  0  0  0  0  0  0
   19.8431   -5.7234  -15.1378 C   0  0  0  0  0  0  0  0  0  0  0  0
   18.5774   -5.2153  -14.9676 O   0  0  0  0  0  0  0  0  0  0  0  0
   20.6914   -5.5328  -14.2597 O   0  0  0  0  0  0  0  0  0  0  0  0
  2  1  1  1
  2  3  1  0
  4  2  1  0
  5  4  1  0
  5  6  1  6
  7  5  1  0
  7  8  2  0
  9  7  1  0
 10  9  1  0
 10 11  1  6
 12 11  1  0
 12 16  1  0
 13 12  2  0
 14 10  1  0
 15 14  2  0
 18 20  1  0
 18 17  1  0
 19 18  2  0
 21 22  1  0
 21 20  1  0
 22 23  1  0
 24 23  1  1
 24 25  1  0
 24 26  1  0
 25 14  1  0
 26 28  2  0
 26 27  1  0
M  END
$$$$
