LDR.pdb
     RDKit          3D

 28 27  0  0  1  0  0  0  0  0999 V2000
   28.4189  -20.3980   -4.7838 C   0  0  0  0  0  0  0  0  0  0  0  0
   28.8000  -19.4487   -5.8799 C   0  0  2  0  0  0  0  0  0  0  0  0
   29.0814  -18.0886   -5.2501 C   0  0  0  0  0  0  0  0  0  0  0  0
   27.7237  -19.2477   -6.8956 C   0  0  0  0  0  0  0  0  0  0  0  0
   27.2207  -20.5202   -7.5251 C   0  0  2  0  0  0  0  0  0  0  0  0
   28.2780  -21.4849   -7.5580 N   0  0  0  0  0  0  0  0  0  0  0  0
   26.7073  -20.1639   -8.8737 C   0  0  0  0  0  0  0  0  0  0  0  0
   25.9768  -19.1450   -8.9576 O   0  0  0  0  0  0  0  0  0  0  0  0
   26.9829  -20.8871  -10.0590 N   0  0  0  0  0  0  0  0  0  0  0  0
   26.4623  -20.4598  -11.3618 C   0  0  1  0  0  0  0  0  0  0  0  0
   27.5743  -20.4209  -12.3725 C   0  0  0  0  0  0  0  0  0  0  0  0
   27.1419  -19.9751  -13.7015 C   0  0  0  0  0  0  0  0  0  0  0  0
   26.2935  -19.0837  -13.9343 O   0  0  0  0  0  0  0  0  0  0  0  0
   25.3237  -21.2925  -11.7921 C   0  0  0  0  0  0  0  0  0  0  0  0
   25.4028  -22.5359  -11.7716 O   0  0  0  0  0  0  0  0  0  0  0  0
   27.7382  -20.6095  -14.8000 O   0  0  0  0  0  0  0  0  0  0  0  0
   16.9631  -21.6754   -9.8301 N   0  0  0  0  0  0  0  0  0  0  0  0
   17.0723  -22.6745  -10.8159 C   0  0  0  0  0  0  0  0  0  0  0  0
   16.1146  -23.5136  -11.0130 N   0  0  0  0  0  0  0  0  0  0  0  0
   18.2553  -22.7517  -11.5958 N   0  0  0  0  0  0  0  0  0  0  0  0
   19.4271  -22.0177  -11.3384 C   0  0  0  0  0  0  0  0  0  0  0  0
   20.5906  -22.1173  -12.2535 C   0  0  0  0  0  0  0  0  0  0  0  0
   21.8072  -21.3519  -11.8744 C   0  0  0  0  0  0  0  0  0  0  0  0
   22.9941  -21.4697  -12.7741 C   0  0  2  0  0  0  0  0  0  0  0  0
   24.1271  -20.6989  -12.2341 N   0  0  0  0  0  0  0  0  0  0  0  0
   22.7274  -20.8663  -14.1031 C   0  0  0  0  0  0  0  0  0  0  0  0
   22.0898  -21.5955  -15.0782 O   0  0  0  0  0  0  0  0  0  0  0  0
   23.0738  -19.7059  -14.3489 O   0  0  0  0  0  0  0  0  0  0  0  0
  2  1  1  1
  2  3  1  0
  4  2  1  0
  5  4  1  0
  5  6  1  6
  7  5  1  0
  7  8  2  0
  9  7  1  0
 10  9  1  0
 10 11  1  6
 12 11  1  0
 12 16  1  0
 13 12  2  0
 14 10  1  0
 15 14  2  0
 18 20  1  0
 18 17  1  0
 19 18  2  0
 21 22  1  0
 21 20  1  0
 22 23  1  0
 24 23  1  1
 24 25  1  0
 24 26  1  0
 25 14  1  0
 26 28  2  0
 26 27  1  0
M  END
$$$$
