LDR.pdb
     RDKit          3D

 28 27  0  0  1  0  0  0  0  0999 V2000
   27.7249  -21.1244   -6.4441 C   0  0  0  0  0  0  0  0  0  0  0  0
   27.9677  -20.1033   -7.5148 C   0  0  2  0  0  0  0  0  0  0  0  0
   28.2326  -18.7628   -6.8377 C   0  0  0  0  0  0  0  0  0  0  0  0
   26.8033  -19.9103   -8.4298 C   0  0  0  0  0  0  0  0  0  0  0  0
   26.5561  -21.0616   -9.3691 C   0  0  2  0  0  0  0  0  0  0  0  0
   27.8081  -21.5496   -9.8630 N   0  0  0  0  0  0  0  0  0  0  0  0
   25.6555  -20.5618  -10.4406 C   0  0  0  0  0  0  0  0  0  0  0  0
   24.9612  -19.5478  -10.1786 O   0  0  0  0  0  0  0  0  0  0  0  0
   25.5279  -21.1444  -11.7244 N   0  0  0  0  0  0  0  0  0  0  0  0
   24.6874  -20.5424  -12.7646 C   0  0  1  0  0  0  0  0  0  0  0  0
   25.3288  -20.7220  -14.1121 C   0  0  0  0  0  0  0  0  0  0  0  0
   24.5756  -20.0998  -15.2064 C   0  0  0  0  0  0  0  0  0  0  0  0
   24.5168  -18.8726  -15.4494 O   0  0  0  0  0  0  0  0  0  0  0  0
   23.3061  -21.0565  -12.7127 C   0  0  0  0  0  0  0  0  0  0  0  0
   23.0527  -22.1412  -12.1543 O   0  0  0  0  0  0  0  0  0  0  0  0
   23.8631  -20.9652  -16.0480 O   0  0  0  0  0  0  0  0  0  0  0  0
   19.0007  -24.3957  -10.3984 N   0  0  0  0  0  0  0  0  0  0  0  0
   18.0503  -23.5793   -9.7565 C   0  0  0  0  0  0  0  0  0  0  0  0
   17.5749  -23.9025   -8.6034 N   0  0  0  0  0  0  0  0  0  0  0  0
   17.6154  -22.3891  -10.3952 N   0  0  0  0  0  0  0  0  0  0  0  0
   18.3327  -21.7191  -11.4026 C   0  0  0  0  0  0  0  0  0  0  0  0
   19.5491  -20.9396  -11.0652 C   0  0  0  0  0  0  0  0  0  0  0  0
   20.1155  -20.0847  -12.1413 C   0  0  0  0  0  0  0  0  0  0  0  0
   20.8447  -20.7756  -13.2473 C   0  0  2  0  0  0  0  0  0  0  0  0
   22.2485  -20.3322  -13.2931 N   0  0  0  0  0  0  0  0  0  0  0  0
   20.2902  -20.4077  -14.5733 C   0  0  0  0  0  0  0  0  0  0  0  0
   19.5146  -21.3027  -15.2711 O   0  0  0  0  0  0  0  0  0  0  0  0
   20.5177  -19.2971  -15.0651 O   0  0  0  0  0  0  0  0  0  0  0  0
  2  1  1  1
  2  3  1  0
  4  2  1  0
  5  4  1  0
  5  6  1  6
  7  5  1  0
  7  8  2  0
  9  7  1  0
 10  9  1  0
 10 11  1  6
 12 11  1  0
 12 16  1  0
 13 12  2  0
 14 10  1  0
 15 14  2  0
 18 20  1  0
 18 17  1  0
 19 18  2  0
 21 22  1  0
 21 20  1  0
 22 23  1  0
 24 23  1  1
 24 25  1  0
 24 26  1  0
 25 14  1  0
 26 28  2  0
 26 27  1  0
M  END
$$$$
