LDR.pdb
     RDKit          3D

 28 27  0  0  1  0  0  0  0  0999 V2000
   26.9225  -27.3882  -16.4704 C   0  0  0  0  0  0  0  0  0  0  0  0
   26.4950  -26.0523  -17.0000 C   0  0  2  0  0  0  0  0  0  0  0  0
   27.5785  -25.5520  -17.9494 C   0  0  0  0  0  0  0  0  0  0  0  0
   26.3290  -25.0152  -15.9382 C   0  0  0  0  0  0  0  0  0  0  0  0
   25.8391  -23.6837  -16.4442 C   0  0  2  0  0  0  0  0  0  0  0  0
   26.9420  -22.7756  -16.5378 N   0  0  0  0  0  0  0  0  0  0  0  0
   24.7789  -23.2271  -15.5080 C   0  0  0  0  0  0  0  0  0  0  0  0
   25.0547  -22.2555  -14.7604 O   0  0  0  0  0  0  0  0  0  0  0  0
   23.4916  -23.8063  -15.4022 N   0  0  0  0  0  0  0  0  0  0  0  0
   22.4724  -23.2614  -14.4994 C   0  0  1  0  0  0  0  0  0  0  0  0
   22.1609  -21.8393  -14.8739 C   0  0  0  0  0  0  0  0  0  0  0  0
   21.0998  -21.2384  -14.0584 C   0  0  0  0  0  0  0  0  0  0  0  0
   20.9722  -21.3596  -12.8184 O   0  0  0  0  0  0  0  0  0  0  0  0
   21.2735  -24.1188  -14.4519 C   0  0  0  0  0  0  0  0  0  0  0  0
   20.6901  -24.4533  -15.5009 O   0  0  0  0  0  0  0  0  0  0  0  0
   20.1510  -20.4618  -14.7379 O   0  0  0  0  0  0  0  0  0  0  0  0
   18.6859  -24.5916   -6.2889 N   0  0  0  0  0  0  0  0  0  0  0  0
   18.8677  -25.3715   -7.4467 C   0  0  0  0  0  0  0  0  0  0  0  0
   19.0917  -26.6374   -7.3604 N   0  0  0  0  0  0  0  0  0  0  0  0
   18.8035  -24.7472   -8.7194 N   0  0  0  0  0  0  0  0  0  0  0  0
   17.8060  -24.9977   -9.6789 C   0  0  0  0  0  0  0  0  0  0  0  0
   18.0994  -24.8394  -11.1246 C   0  0  0  0  0  0  0  0  0  0  0  0
   19.2208  -25.6471  -11.6719 C   0  0  0  0  0  0  0  0  0  0  0  0
   19.5756  -25.4352  -13.1077 C   0  0  2  0  0  0  0  0  0  0  0  0
   20.7655  -24.5748  -13.2216 N   0  0  0  0  0  0  0  0  0  0  0  0
   18.5072  -24.6973  -13.8256 C   0  0  0  0  0  0  0  0  0  0  0  0
   17.5323  -25.3837  -14.5095 O   0  0  0  0  0  0  0  0  0  0  0  0
   18.4806  -23.4619  -13.8180 O   0  0  0  0  0  0  0  0  0  0  0  0
  2  1  1  1
  2  3  1  0
  4  2  1  0
  5  4  1  0
  5  6  1  1
  7  5  1  0
  7  8  2  0
  9  7  1  0
 10  9  1  0
 10 11  1  6
 12 11  1  0
 12 16  1  0
 13 12  2  0
 14 10  1  0
 15 14  2  0
 18 20  1  0
 18 17  1  0
 19 18  2  0
 21 22  1  0
 21 20  1  0
 22 23  1  0
 24 23  1  1
 24 25  1  0
 24 26  1  0
 25 14  1  0
 26 28  2  0
 26 27  1  0
M  END
$$$$
