LDR.pdb
     RDKit          3D

 28 27  0  0  1  0  0  0  0  0999 V2000
   27.3864  -16.2557  -17.5832 C   0  0  0  0  0  0  0  0  0  0  0  0
   26.8282  -15.2112  -16.6638 C   0  0  2  0  0  0  0  0  0  0  0  0
   27.7155  -15.1495  -15.4251 C   0  0  0  0  0  0  0  0  0  0  0  0
   25.4414  -15.5083  -16.1959 C   0  0  0  0  0  0  0  0  0  0  0  0
   24.4795  -15.8674  -17.2979 C   0  0  2  0  0  0  0  0  0  0  0  0
   24.1452  -14.6895  -18.0400 N   0  0  0  0  0  0  0  0  0  0  0  0
   23.3040  -16.5112  -16.6553 C   0  0  0  0  0  0  0  0  0  0  0  0
   22.6133  -15.8008  -15.8824 O   0  0  0  0  0  0  0  0  0  0  0  0
   22.9130  -17.8572  -16.8527 N   0  0  0  0  0  0  0  0  0  0  0  0
   21.7484  -18.4302  -16.1698 C   0  0  1  0  0  0  0  0  0  0  0  0
   20.7206  -18.8605  -17.1788 C   0  0  0  0  0  0  0  0  0  0  0  0
   19.4997  -19.4050  -16.5747 C   0  0  0  0  0  0  0  0  0  0  0  0
   19.2319  -19.4193  -15.3514 O   0  0  0  0  0  0  0  0  0  0  0  0
   22.1372  -19.5137  -15.2480 C   0  0  0  0  0  0  0  0  0  0  0  0
   22.9003  -20.4242  -15.6240 O   0  0  0  0  0  0  0  0  0  0  0  0
   18.5568  -19.9547  -17.4543 O   0  0  0  0  0  0  0  0  0  0  0  0
   26.5519  -22.1774  -11.8059 N   0  0  0  0  0  0  0  0  0  0  0  0
   26.6938  -20.7950  -11.5811 C   0  0  0  0  0  0  0  0  0  0  0  0
   27.6398  -20.1286  -12.1479 N   0  0  0  0  0  0  0  0  0  0  0  0
   25.7807  -20.1364  -10.7173 N   0  0  0  0  0  0  0  0  0  0  0  0
   24.6439  -20.7409  -10.1513 C   0  0  0  0  0  0  0  0  0  0  0  0
   23.5049  -21.1480  -11.0104 C   0  0  0  0  0  0  0  0  0  0  0  0
   23.0919  -20.1920  -12.0711 C   0  0  0  0  0  0  0  0  0  0  0  0
   21.9751  -20.6127  -12.9700 C   0  0  2  0  0  0  0  0  0  0  0  0
   21.6537  -19.5401  -13.9269 N   0  0  0  0  0  0  0  0  0  0  0  0
   20.7197  -20.8271  -12.2089 C   0  0  0  0  0  0  0  0  0  0  0  0
   20.2018  -22.0929  -12.0717 O   0  0  0  0  0  0  0  0  0  0  0  0
   20.1265  -19.8747  -11.6913 O   0  0  0  0  0  0  0  0  0  0  0  0
  2  1  1  6
  2  3  1  0
  4  2  1  0
  5  4  1  0
  5  6  1  1
  7  5  1  0
  7  8  2  0
  9  7  1  0
 10  9  1  0
 10 11  1  6
 12 11  1  0
 12 16  1  0
 13 12  2  0
 14 10  1  0
 15 14  2  0
 18 20  1  0
 18 17  1  0
 19 18  2  0
 21 22  1  0
 21 20  1  0
 22 23  1  0
 24 23  1  1
 24 25  1  0
 24 26  1  0
 25 14  1  0
 26 28  2  0
 26 27  1  0
M  END
$$$$
