LDR.pdb
     RDKit          3D

 28 27  0  0  1  0  0  0  0  0999 V2000
   28.9589  -18.3704  -17.6077 C   0  0  0  0  0  0  0  0  0  0  0  0
   27.7328  -17.5950  -17.9861 C   0  0  2  0  0  0  0  0  0  0  0  0
   28.1474  -16.1491  -18.2374 C   0  0  0  0  0  0  0  0  0  0  0  0
   26.6883  -17.5728  -16.9189 C   0  0  0  0  0  0  0  0  0  0  0  0
   26.2227  -18.9362  -16.4795 C   0  0  2  0  0  0  0  0  0  0  0  0
   26.5524  -19.8988  -17.4866 N   0  0  0  0  0  0  0  0  0  0  0  0
   24.7630  -18.8334  -16.2194 C   0  0  0  0  0  0  0  0  0  0  0  0
   24.3982  -18.0588  -15.2997 O   0  0  0  0  0  0  0  0  0  0  0  0
   23.7648  -19.5417  -16.9306 N   0  0  0  0  0  0  0  0  0  0  0  0
   22.3404  -19.3931  -16.6146 C   0  0  1  0  0  0  0  0  0  0  0  0
   21.5087  -19.7143  -17.8249 C   0  0  0  0  0  0  0  0  0  0  0  0
   20.0727  -19.4917  -17.6240 C   0  0  0  0  0  0  0  0  0  0  0  0
   19.5398  -19.0463  -16.5819 O   0  0  0  0  0  0  0  0  0  0  0  0
   21.9606  -20.1850  -15.4299 C   0  0  0  0  0  0  0  0  0  0  0  0
   22.4323  -21.3242  -15.2497 O   0  0  0  0  0  0  0  0  0  0  0  0
   19.2329  -19.8087  -18.7006 O   0  0  0  0  0  0  0  0  0  0  0  0
   20.0881  -22.1533   -7.7383 N   0  0  0  0  0  0  0  0  0  0  0  0
   19.7764  -22.8160   -8.9406 C   0  0  0  0  0  0  0  0  0  0  0  0
   18.7724  -23.6206   -9.0088 N   0  0  0  0  0  0  0  0  0  0  0  0
   20.5841  -22.5903  -10.0853 N   0  0  0  0  0  0  0  0  0  0  0  0
   21.4198  -21.4728  -10.2615 C   0  0  0  0  0  0  0  0  0  0  0  0
   20.8549  -20.1780  -10.7149 C   0  0  0  0  0  0  0  0  0  0  0  0
   21.2805  -19.6951  -12.0548 C   0  0  0  0  0  0  0  0  0  0  0  0
   20.6923  -20.3810  -13.2446 C   0  0  2  0  0  0  0  0  0  0  0  0
   21.0584  -19.6696  -14.4812 N   0  0  0  0  0  0  0  0  0  0  0  0
   19.2094  -20.3424  -13.2129 C   0  0  0  0  0  0  0  0  0  0  0  0
   18.5084  -21.2810  -12.4941 O   0  0  0  0  0  0  0  0  0  0  0  0
   18.5888  -19.4698  -13.8297 O   0  0  0  0  0  0  0  0  0  0  0  0
  2  1  1  1
  2  3  1  0
  4  2  1  0
  5  4  1  0
  5  6  1  6
  7  5  1  0
  7  8  2  0
  9  7  1  0
 10  9  1  0
 10 11  1  6
 12 11  1  0
 12 16  1  0
 13 12  2  0
 14 10  1  0
 15 14  2  0
 18 20  1  0
 18 17  1  0
 19 18  2  0
 21 22  1  0
 21 20  1  0
 22 23  1  0
 24 23  1  1
 24 25  1  0
 24 26  1  0
 25 14  1  0
 26 28  2  0
 26 27  1  0
M  END
$$$$
