LDR.pdb
     RDKit          3D

 28 27  0  0  1  0  0  0  0  0999 V2000
   29.1642  -17.9963  -16.5529 C   0  0  0  0  0  0  0  0  0  0  0  0
   27.7097  -17.7542  -16.8244 C   0  0  2  0  0  0  0  0  0  0  0  0
   27.3249  -16.4245  -16.1846 C   0  0  0  0  0  0  0  0  0  0  0  0
   26.8128  -18.7970  -16.2424 C   0  0  0  0  0  0  0  0  0  0  0  0
   27.5280  -19.8496  -15.4368 C   0  0  2  0  0  0  0  0  0  0  0  0
   28.0343  -20.8594  -16.3165 N   0  0  0  0  0  0  0  0  0  0  0  0
   26.5546  -20.3705  -14.4418 C   0  0  0  0  0  0  0  0  0  0  0  0
   25.5650  -21.0046  -14.8863 O   0  0  0  0  0  0  0  0  0  0  0  0
   26.6651  -20.2028  -13.0405 N   0  0  0  0  0  0  0  0  0  0  0  0
   25.6347  -20.6962  -12.1210 C   0  0  1  0  0  0  0  0  0  0  0  0
   26.1250  -20.6064  -10.7028 C   0  0  0  0  0  0  0  0  0  0  0  0
   25.1539  -21.0914   -9.7161 C   0  0  0  0  0  0  0  0  0  0  0  0
   24.0367  -21.5949   -9.9748 O   0  0  0  0  0  0  0  0  0  0  0  0
   24.3466  -20.0086  -12.3281 C   0  0  0  0  0  0  0  0  0  0  0  0
   24.2544  -18.7748  -12.1802 O   0  0  0  0  0  0  0  0  0  0  0  0
   25.5199  -20.9765   -8.3679 O   0  0  0  0  0  0  0  0  0  0  0  0
   18.3801  -19.9659  -18.2384 N   0  0  0  0  0  0  0  0  0  0  0  0
   17.6622  -20.7008  -17.2758 C   0  0  0  0  0  0  0  0  0  0  0  0
   16.5954  -21.3465  -17.6001 N   0  0  0  0  0  0  0  0  0  0  0  0
   18.1256  -20.7236  -15.9348 N   0  0  0  0  0  0  0  0  0  0  0  0
   19.2789  -20.0592  -15.4802 C   0  0  0  0  0  0  0  0  0  0  0  0
   20.3546  -20.8117  -14.7891 C   0  0  0  0  0  0  0  0  0  0  0  0
   21.5281  -20.0264  -14.3245 C   0  0  0  0  0  0  0  0  0  0  0  0
   21.8738  -20.1118  -12.8736 C   0  0  2  0  0  0  0  0  0  0  0  0
   23.1977  -20.7325  -12.6963 N   0  0  0  0  0  0  0  0  0  0  0  0
   20.9386  -21.0050  -12.1464 C   0  0  0  0  0  0  0  0  0  0  0  0
   21.1721  -22.3586  -12.0977 O   0  0  0  0  0  0  0  0  0  0  0  0
   19.9422  -20.5453  -11.5781 O   0  0  0  0  0  0  0  0  0  0  0  0
  2  1  1  1
  2  3  1  0
  4  2  1  0
  5  4  1  0
  5  6  1  6
  7  5  1  0
  7  8  2  0
  9  7  1  0
 10  9  1  0
 10 11  1  1
 12 11  1  0
 12 16  1  0
 13 12  2  0
 14 10  1  0
 15 14  2  0
 18 20  1  0
 18 17  1  0
 19 18  2  0
 21 22  1  0
 21 20  1  0
 22 23  1  0
 24 23  1  6
 24 25  1  0
 24 26  1  0
 25 14  1  0
 26 28  2  0
 26 27  1  0
M  END
$$$$
