LDR.pdb
     RDKit          3D

 28 27  0  0  1  0  0  0  0  0999 V2000
   28.2657  -17.5700  -16.3703 C   0  0  0  0  0  0  0  0  0  0  0  0
   28.2748  -18.6819  -17.3760 C   0  0  2  0  0  0  0  0  0  0  0  0
   28.2227  -18.0604  -18.7676 C   0  0  0  0  0  0  0  0  0  0  0  0
   27.1021  -19.5996  -17.2611 C   0  0  0  0  0  0  0  0  0  0  0  0
   26.7931  -20.0364  -15.8531 C   0  0  2  0  0  0  0  0  0  0  0  0
   27.9426  -20.6788  -15.2913 N   0  0  0  0  0  0  0  0  0  0  0  0
   25.6011  -20.9212  -15.9249 C   0  0  0  0  0  0  0  0  0  0  0  0
   24.5857  -20.4678  -16.5101 O   0  0  0  0  0  0  0  0  0  0  0  0
   25.5321  -22.2277  -15.3845 N   0  0  0  0  0  0  0  0  0  0  0  0
   24.3250  -23.0512  -15.5089 C   0  0  1  0  0  0  0  0  0  0  0  0
   24.5967  -24.4416  -15.0063 C   0  0  0  0  0  0  0  0  0  0  0  0
   23.4782  -25.3678  -15.2137 C   0  0  0  0  0  0  0  0  0  0  0  0
   22.3899  -25.0889  -15.7671 O   0  0  0  0  0  0  0  0  0  0  0  0
   23.1655  -22.4193  -14.8521 C   0  0  0  0  0  0  0  0  0  0  0  0
   23.1972  -22.1410  -13.6380 O   0  0  0  0  0  0  0  0  0  0  0  0
   23.6548  -26.6779  -14.7476 O   0  0  0  0  0  0  0  0  0  0  0  0
   19.2879  -20.8771  -10.2193 N   0  0  0  0  0  0  0  0  0  0  0  0
   19.1989  -19.4931  -10.4612 C   0  0  0  0  0  0  0  0  0  0  0  0
   18.1542  -18.8277  -10.1062 N   0  0  0  0  0  0  0  0  0  0  0  0
   20.2765  -18.8319  -11.1055 N   0  0  0  0  0  0  0  0  0  0  0  0
   21.0132  -19.3690  -12.1765 C   0  0  0  0  0  0  0  0  0  0  0  0
   20.4609  -19.3449  -13.5533 C   0  0  0  0  0  0  0  0  0  0  0  0
   21.2684  -20.0096  -14.6096 C   0  0  0  0  0  0  0  0  0  0  0  0
   20.8568  -21.3870  -15.0163 C   0  0  2  0  0  0  0  0  0  0  0  0
   22.0018  -22.1192  -15.5838 N   0  0  0  0  0  0  0  0  0  0  0  0
   19.8536  -21.3513  -16.1088 C   0  0  0  0  0  0  0  0  0  0  0  0
   18.5153  -21.4802  -15.8234 O   0  0  0  0  0  0  0  0  0  0  0  0
   20.2071  -21.2060  -17.2840 O   0  0  0  0  0  0  0  0  0  0  0  0
  2  1  1  1
  2  3  1  0
  4  2  1  0
  5  4  1  0
  5  6  1  6
  7  5  1  0
  7  8  2  0
  9  7  1  0
 10  9  1  0
 10 11  1  1
 12 11  1  0
 12 16  1  0
 13 12  2  0
 14 10  1  0
 15 14  2  0
 18 20  1  0
 18 17  1  0
 19 18  2  0
 21 22  1  0
 21 20  1  0
 22 23  1  0
 24 23  1  6
 24 25  1  0
 24 26  1  0
 25 14  1  0
 26 28  2  0
 26 27  1  0
M  END
$$$$
