LDR.pdb
     RDKit          3D

 28 27  0  0  1  0  0  0  0  0999 V2000
   30.2080  -22.6230   -9.4541 C   0  0  0  0  0  0  0  0  0  0  0  0
   30.0047  -21.2076   -9.9048 C   0  0  2  0  0  0  0  0  0  0  0  0
   30.3370  -20.2873   -8.7351 C   0  0  0  0  0  0  0  0  0  0  0  0
   28.5999  -20.9079  -10.3136 C   0  0  0  0  0  0  0  0  0  0  0  0
   28.0974  -21.7432  -11.4619 C   0  0  2  0  0  0  0  0  0  0  0  0
   29.1466  -21.9136  -12.4210 N   0  0  0  0  0  0  0  0  0  0  0  0
   26.9035  -21.0503  -12.0128 C   0  0  0  0  0  0  0  0  0  0  0  0
   25.9623  -20.8098  -11.2158 O   0  0  0  0  0  0  0  0  0  0  0  0
   26.7558  -20.6463  -13.3614 N   0  0  0  0  0  0  0  0  0  0  0  0
   25.5669  -19.9231  -13.8242 C   0  0  1  0  0  0  0  0  0  0  0  0
   25.7648  -19.4607  -15.2407 C   0  0  0  0  0  0  0  0  0  0  0  0
   24.7072  -18.5622  -15.7163 C   0  0  0  0  0  0  0  0  0  0  0  0
   23.7141  -18.1852  -15.0529 O   0  0  0  0  0  0  0  0  0  0  0  0
   24.3406  -20.7230  -13.6470 C   0  0  0  0  0  0  0  0  0  0  0  0
   24.3293  -21.9378  -13.9238 O   0  0  0  0  0  0  0  0  0  0  0  0
   24.8300  -18.0901  -17.0303 O   0  0  0  0  0  0  0  0  0  0  0  0
   19.2237  -23.6036   -8.6298 N   0  0  0  0  0  0  0  0  0  0  0  0
   18.5234  -23.9885   -9.7887 C   0  0  0  0  0  0  0  0  0  0  0  0
   17.4021  -24.6173   -9.7031 N   0  0  0  0  0  0  0  0  0  0  0  0
   19.0672  -23.6774  -11.0620 N   0  0  0  0  0  0  0  0  0  0  0  0
   20.2580  -22.9567  -11.2639 C   0  0  0  0  0  0  0  0  0  0  0  0
   20.2901  -21.4880  -11.0561 C   0  0  0  0  0  0  0  0  0  0  0  0
   21.5287  -20.7803  -11.4738 C   0  0  0  0  0  0  0  0  0  0  0  0
   21.9206  -20.8841  -12.9118 C   0  0  2  0  0  0  0  0  0  0  0  0
   23.1604  -20.1296  -13.1625 N   0  0  0  0  0  0  0  0  0  0  0  0
   20.9098  -20.2518  -13.7948 C   0  0  0  0  0  0  0  0  0  0  0  0
   19.8770  -20.9986  -14.3094 O   0  0  0  0  0  0  0  0  0  0  0  0
   20.9835  -19.0511  -14.0777 O   0  0  0  0  0  0  0  0  0  0  0  0
  2  1  1  1
  2  3  1  0
  4  2  1  0
  5  4  1  0
  5  6  1  6
  7  5  1  0
  7  8  2  0
  9  7  1  0
 10  9  1  0
 10 11  1  6
 12 11  1  0
 12 16  1  0
 13 12  2  0
 14 10  1  0
 15 14  2  0
 18 20  1  0
 18 17  1  0
 19 18  2  0
 21 22  1  0
 21 20  1  0
 22 23  1  0
 24 23  1  1
 24 25  1  0
 24 26  1  0
 25 14  1  0
 26 28  2  0
 26 27  1  0
M  END
$$$$
