LDR.pdb
     RDKit          3D

 28 27  0  0  1  0  0  0  0  0999 V2000
   17.6732  -12.2684  -19.8068 C   0  0  0  0  0  0  0  0  0  0  0  0
   17.3572  -13.3585  -18.8272 C   0  0  2  0  0  0  0  0  0  0  0  0
   15.8558  -13.6204  -18.8802 C   0  0  0  0  0  0  0  0  0  0  0  0
   17.6915  -13.0063  -17.4148 C   0  0  0  0  0  0  0  0  0  0  0  0
   19.1243  -12.5932  -17.2020 C   0  0  2  0  0  0  0  0  0  0  0  0
   19.9298  -13.7588  -16.9967 N   0  0  0  0  0  0  0  0  0  0  0  0
   19.1392  -11.6570  -16.0478 C   0  0  0  0  0  0  0  0  0  0  0  0
   18.9235  -12.1463  -14.9107 O   0  0  0  0  0  0  0  0  0  0  0  0
   19.3776  -10.2648  -16.1411 N   0  0  0  0  0  0  0  0  0  0  0  0
   19.3353   -9.3943  -14.9616 C   0  0  1  0  0  0  0  0  0  0  0  0
   20.5040   -8.4491  -14.9775 C   0  0  0  0  0  0  0  0  0  0  0  0
   20.6020   -7.6192  -13.7718 C   0  0  0  0  0  0  0  0  0  0  0  0
   19.8685   -7.7080  -12.7605 O   0  0  0  0  0  0  0  0  0  0  0  0
   18.0383   -8.7023  -14.8426 C   0  0  0  0  0  0  0  0  0  0  0  0
   17.6358   -7.9477  -15.7488 O   0  0  0  0  0  0  0  0  0  0  0  0
   21.6095   -6.6448  -13.7620 O   0  0  0  0  0  0  0  0  0  0  0  0
    9.9773   -9.3705   -9.4298 N   0  0  0  0  0  0  0  0  0  0  0  0
   11.2276   -8.7426   -9.2741 C   0  0  0  0  0  0  0  0  0  0  0  0
   11.7301   -8.5557   -8.1024 N   0  0  0  0  0  0  0  0  0  0  0  0
   11.9349   -8.3123  -10.4265 N   0  0  0  0  0  0  0  0  0  0  0  0
   13.2123   -8.7722  -10.7938 C   0  0  0  0  0  0  0  0  0  0  0  0
   13.8798   -8.2421  -12.0081 C   0  0  0  0  0  0  0  0  0  0  0  0
   15.2172   -8.8026  -12.3349 C   0  0  0  0  0  0  0  0  0  0  0  0
   15.8974   -8.2744  -13.5557 C   0  0  2  0  0  0  0  0  0  0  0  0
   17.2314   -8.8808  -13.7039 N   0  0  0  0  0  0  0  0  0  0  0  0
   16.1562   -6.8178  -13.4433 C   0  0  0  0  0  0  0  0  0  0  0  0
   17.2663   -6.3623  -12.7729 O   0  0  0  0  0  0  0  0  0  0  0  0
   15.3803   -5.9994  -13.9485 O   0  0  0  0  0  0  0  0  0  0  0  0
  2  1  1  6
  2  3  1  0
  4  2  1  0
  5  4  1  0
  5  6  1  1
  7  5  1  0
  7  8  2  0
  9  7  1  0
 10  9  1  0
 10 11  1  6
 12 11  1  0
 12 16  1  0
 13 12  2  0
 14 10  1  0
 15 14  2  0
 18 20  1  0
 18 17  1  0
 19 18  2  0
 21 22  1  0
 21 20  1  0
 22 23  1  0
 24 23  1  1
 24 25  1  0
 24 26  1  0
 25 14  1  0
 26 28  2  0
 26 27  1  0
M  END
$$$$
