LDR.pdb
     RDKit          3D

 28 27  0  0  1  0  0  0  0  0999 V2000
   27.1785  -19.3098   -6.7690 C   0  0  0  0  0  0  0  0  0  0  0  0
   27.2463  -20.6671   -7.4022 C   0  0  2  0  0  0  0  0  0  0  0  0
   28.7162  -21.0336   -7.5775 C   0  0  0  0  0  0  0  0  0  0  0  0
   26.6150  -20.7266   -8.7544 C   0  0  0  0  0  0  0  0  0  0  0  0
   25.1989  -20.2155   -8.7998 C   0  0  2  0  0  0  0  0  0  0  0  0
   24.4244  -20.8699   -7.7890 N   0  0  0  0  0  0  0  0  0  0  0  0
   24.6941  -20.4577  -10.1766 C   0  0  0  0  0  0  0  0  0  0  0  0
   25.5284  -20.3859  -11.1134 O   0  0  0  0  0  0  0  0  0  0  0  0
   23.3501  -20.7610  -10.5016 N   0  0  0  0  0  0  0  0  0  0  0  0
   22.9365  -21.0534  -11.8779 C   0  0  1  0  0  0  0  0  0  0  0  0
   21.4961  -21.4827  -11.9020 C   0  0  0  0  0  0  0  0  0  0  0  0
   21.0303  -21.8944  -13.2308 C   0  0  0  0  0  0  0  0  0  0  0  0
   21.7346  -21.9643  -14.2640 O   0  0  0  0  0  0  0  0  0  0  0  0
   23.2137  -19.9212  -12.7813 C   0  0  0  0  0  0  0  0  0  0  0  0
   22.8921  -18.7605  -12.4619 O   0  0  0  0  0  0  0  0  0  0  0  0
   19.6759  -22.2381  -13.3413 O   0  0  0  0  0  0  0  0  0  0  0  0
   30.1125  -18.7992  -18.1135 N   0  0  0  0  0  0  0  0  0  0  0  0
   29.3041  -17.7097  -18.4896 C   0  0  0  0  0  0  0  0  0  0  0  0
   29.7359  -16.8240  -19.3198 N   0  0  0  0  0  0  0  0  0  0  0  0
   28.0004  -17.5930  -17.9415 N   0  0  0  0  0  0  0  0  0  0  0  0
   27.4743  -18.4429  -16.9522 C   0  0  0  0  0  0  0  0  0  0  0  0
   26.0883  -18.2517  -16.4587 C   0  0  0  0  0  0  0  0  0  0  0  0
   25.6139  -19.1966  -15.4139 C   0  0  0  0  0  0  0  0  0  0  0  0
   24.2066  -19.0360  -14.9385 C   0  0  2  0  0  0  0  0  0  0  0  0
   23.8461  -20.1301  -14.0207 N   0  0  0  0  0  0  0  0  0  0  0  0
   23.2408  -19.1507  -16.0589 C   0  0  0  0  0  0  0  0  0  0  0  0
   22.7341  -18.0199  -16.6537 O   0  0  0  0  0  0  0  0  0  0  0  0
   22.8813  -20.2593  -16.4696 O   0  0  0  0  0  0  0  0  0  0  0  0
  2  1  1  6
  2  3  1  0
  4  2  1  0
  5  4  1  0
  5  6  1  1
  7  5  1  0
  7  8  2  0
  9  7  1  0
 10  9  1  0
 10 11  1  1
 12 11  1  0
 12 16  1  0
 13 12  2  0
 14 10  1  0
 15 14  2  0
 18 20  1  0
 18 17  1  0
 19 18  2  0
 21 22  1  0
 21 20  1  0
 22 23  1  0
 24 23  1  6
 24 25  1  0
 24 26  1  0
 25 14  1  0
 26 28  2  0
 26 27  1  0
M  END
$$$$
