DMS.pdb
     RDKit          3D

 23 22  0  0  1  0  0  0  0  0999 V2000
   20.0043  -12.6795  -15.5377 N   0  0  0  0  0  0  0  0  0  0  0  0
   19.7619  -11.3366  -15.9993 C   0  0  1  0  0  0  0  0  0  0  0  0
   18.2786  -11.0704  -15.8617 C   0  0  0  0  0  0  0  0  0  0  0  0
   17.5325  -12.0761  -16.6653 C   0  0  0  0  0  0  0  0  0  0  0  0
   17.9069  -12.3501  -17.8280 O   0  0  0  0  0  0  0  0  0  0  0  0
   20.5854  -10.3386  -15.2937 C   0  0  0  0  0  0  0  0  0  0  0  0
   20.6360  -10.2364  -14.0442 O   0  0  0  0  0  0  0  0  0  0  0  0
   16.4045  -12.7452  -16.1676 O   0  0  0  0  0  0  0  0  0  0  0  0
   26.2440  -10.7518  -16.4852 C   0  0  0  0  0  0  0  0  0  0  0  0
   25.9615   -9.9069  -14.9086 S   0  0  0  0  0  0  0  0  0  0  0  0
   24.1757   -9.7104  -14.5952 C   0  0  0  0  0  0  0  0  0  0  0  0
   23.6668   -8.6665  -15.5742 C   0  0  0  0  0  0  0  0  0  0  0  0
   22.1834   -8.4283  -15.4093 C   0  0  2  0  0  0  0  0  0  0  0  0
   21.3767   -9.4275  -16.0354 N   0  0  0  0  0  0  0  0  0  0  0  0
   21.8027   -7.0481  -15.7991 C   0  0  0  0  0  0  0  0  0  0  0  0
   21.8012   -6.7475  -17.0172 O   0  0  0  0  0  0  0  0  0  0  0  0
   19.7132   -2.8187  -14.8779 O   0  0  0  0  0  0  0  0  0  0  0  0
   20.0965   -4.0433  -14.3262 C   0  0  0  0  0  0  0  0  0  0  0  0
   21.0502   -4.6952  -15.3028 C   0  0  2  0  0  0  0  0  0  0  0  0
   21.4327   -6.0210  -14.8928 N   0  0  0  0  0  0  0  0  0  0  0  0
   22.2718   -3.8723  -15.4362 C   0  0  0  0  0  0  0  0  0  0  0  0
   22.4535   -2.9944  -16.4941 O   0  0  0  0  0  0  0  0  0  0  0  0
   23.2109   -3.9284  -14.5929 O   0  0  0  0  0  0  0  0  0  0  0  0
  2  1  1  1
  3  2  1  0
  4  3  1  0
  5  4  2  0
  6  2  1  0
  7  6  2  0
  8  4  1  0
 10  9  1  0
 10 11  1  0
 11 12  1  0
 13 12  1  6
 13 15  1  0
 13 14  1  0
 14  6  1  0
 15 20  1  0
 16 15  2  0
 18 17  1  0
 19 18  1  1
 19 21  1  0
 20 19  1  0
 21 23  2  0
 21 22  1  0
M  END
$$$$
