DMS.pdb
     RDKit          3D

 23 22  0  0  1  0  0  0  0  0999 V2000
   17.8427  -12.3202  -15.6458 N   0  0  0  0  0  0  0  0  0  0  0  0
   17.9793  -10.9005  -15.8480 C   0  0  1  0  0  0  0  0  0  0  0  0
   16.7103  -10.2465  -15.3461 C   0  0  0  0  0  0  0  0  0  0  0  0
   15.5589  -10.7604  -16.1362 C   0  0  0  0  0  0  0  0  0  0  0  0
   15.7143  -11.0694  -17.3394 O   0  0  0  0  0  0  0  0  0  0  0  0
   19.1903  -10.3524  -15.2114 C   0  0  0  0  0  0  0  0  0  0  0  0
   19.3957  -10.3732  -13.9738 O   0  0  0  0  0  0  0  0  0  0  0  0
   14.2802  -10.9176  -15.5814 O   0  0  0  0  0  0  0  0  0  0  0  0
   26.8443   -9.9656  -15.0780 C   0  0  0  0  0  0  0  0  0  0  0  0
   25.2869  -10.5103  -15.8244 S   0  0  0  0  0  0  0  0  0  0  0  0
   23.9028   -9.4658  -15.2591 C   0  0  0  0  0  0  0  0  0  0  0  0
   22.6363  -10.0412  -15.8691 C   0  0  0  0  0  0  0  0  0  0  0  0
   21.4145   -9.2530  -15.4566 C   0  0  2  0  0  0  0  0  0  0  0  0
   20.1995   -9.7613  -16.0103 N   0  0  0  0  0  0  0  0  0  0  0  0
   21.5945   -7.7989  -15.6912 C   0  0  0  0  0  0  0  0  0  0  0  0
   21.5120   -7.3660  -16.8659 O   0  0  0  0  0  0  0  0  0  0  0  0
   21.9920   -3.2632  -14.0335 O   0  0  0  0  0  0  0  0  0  0  0  0
   21.8644   -4.6049  -13.6668 C   0  0  0  0  0  0  0  0  0  0  0  0
   21.9769   -5.4271  -14.9315 C   0  0  2  0  0  0  0  0  0  0  0  0
   21.8566   -6.8392  -14.6795 N   0  0  0  0  0  0  0  0  0  0  0  0
   23.2816   -5.1737  -15.5803 C   0  0  0  0  0  0  0  0  0  0  0  0
   23.4384   -4.2045  -16.5595 O   0  0  0  0  0  0  0  0  0  0  0  0
   24.3183   -5.8280  -15.2747 O   0  0  0  0  0  0  0  0  0  0  0  0
  2  1  1  1
  3  2  1  0
  4  3  1  0
  5  4  2  0
  6  2  1  0
  7  6  2  0
  8  4  1  0
 10  9  1  0
 10 11  1  0
 11 12  1  0
 13 12  1  6
 13 15  1  0
 13 14  1  0
 14  6  1  0
 15 20  1  0
 16 15  2  0
 18 17  1  0
 19 18  1  1
 19 21  1  0
 20 19  1  0
 21 23  2  0
 21 22  1  0
M  END
$$$$
