DMS.pdb
     RDKit          3D

 23 22  0  0  1  0  0  0  0  0999 V2000
   21.3979  -14.2817  -19.5294 N   0  0  0  0  0  0  0  0  0  0  0  0
   21.3250  -12.8649  -19.7794 C   0  0  1  0  0  0  0  0  0  0  0  0
   19.8749  -12.5254  -20.0470 C   0  0  0  0  0  0  0  0  0  0  0  0
   19.4382  -13.2223  -21.2870 C   0  0  0  0  0  0  0  0  0  0  0  0
   20.0760  -13.0618  -22.3522 O   0  0  0  0  0  0  0  0  0  0  0  0
   21.9017  -12.0666  -18.6828 C   0  0  0  0  0  0  0  0  0  0  0  0
   21.6499  -12.2664  -17.4700 O   0  0  0  0  0  0  0  0  0  0  0  0
   18.3204  -14.0691  -21.3163 O   0  0  0  0  0  0  0  0  0  0  0  0
   26.5874  -10.1331  -14.2984 C   0  0  0  0  0  0  0  0  0  0  0  0
   25.8950  -10.7352  -15.8596 S   0  0  0  0  0  0  0  0  0  0  0  0
   25.5422   -9.3444  -16.9854 C   0  0  0  0  0  0  0  0  0  0  0  0
   24.8654   -9.9295  -18.2129 C   0  0  0  0  0  0  0  0  0  0  0  0
   23.4029  -10.2129  -17.9575 C   0  0  2  0  0  0  0  0  0  0  0  0
   22.7937  -11.0066  -18.9774 N   0  0  0  0  0  0  0  0  0  0  0  0
   22.6470   -8.9709  -17.6607 C   0  0  0  0  0  0  0  0  0  0  0  0
   22.3994   -8.1798  -18.6023 O   0  0  0  0  0  0  0  0  0  0  0  0
   19.7127   -6.4631  -14.7774 O   0  0  0  0  0  0  0  0  0  0  0  0
   20.6586   -7.4907  -14.7944 C   0  0  0  0  0  0  0  0  0  0  0  0
   21.3540   -7.4366  -16.1367 C   0  0  2  0  0  0  0  0  0  0  0  0
   22.1715   -8.5967  -16.3773 N   0  0  0  0  0  0  0  0  0  0  0  0
   22.2105   -6.2331  -16.2098 C   0  0  0  0  0  0  0  0  0  0  0  0
   21.8076   -5.0848  -16.8745 O   0  0  0  0  0  0  0  0  0  0  0  0
   23.3522   -6.1914  -15.6704 O   0  0  0  0  0  0  0  0  0  0  0  0
  2  1  1  1
  3  2  1  0
  4  3  1  0
  5  4  2  0
  6  2  1  0
  7  6  2  0
  8  4  1  0
 10  9  1  0
 10 11  1  0
 11 12  1  0
 13 12  1  6
 13 15  1  0
 13 14  1  0
 14  6  1  0
 15 20  1  0
 16 15  2  0
 18 17  1  0
 19 18  1  1
 19 21  1  0
 20 19  1  0
 21 23  2  0
 21 22  1  0
M  END
$$$$
