DMS.pdb
     RDKit          3D

 23 22  0  0  1  0  0  0  0  0999 V2000
   20.8260  -13.6810  -18.8579 N   0  0  0  0  0  0  0  0  0  0  0  0
   20.9444  -12.2993  -19.2475 C   0  0  1  0  0  0  0  0  0  0  0  0
   19.5596  -11.8104  -19.6120 C   0  0  0  0  0  0  0  0  0  0  0  0
   19.1671  -12.4058  -20.9179 C   0  0  0  0  0  0  0  0  0  0  0  0
   18.3518  -13.3552  -20.9527 O   0  0  0  0  0  0  0  0  0  0  0  0
   21.5833  -11.4715  -18.2088 C   0  0  0  0  0  0  0  0  0  0  0  0
   21.3081  -11.5531  -16.9874 O   0  0  0  0  0  0  0  0  0  0  0  0
   19.6805  -11.9408  -22.1377 O   0  0  0  0  0  0  0  0  0  0  0  0
   26.9123  -10.1129  -14.4557 C   0  0  0  0  0  0  0  0  0  0  0  0
   25.9509  -10.5121  -15.9375 S   0  0  0  0  0  0  0  0  0  0  0  0
   25.5772   -9.0012  -16.8881 C   0  0  0  0  0  0  0  0  0  0  0  0
   24.7021   -9.4190  -18.0572 C   0  0  0  0  0  0  0  0  0  0  0  0
   23.3034   -9.7707  -17.6050 C   0  0  2  0  0  0  0  0  0  0  0  0
   22.5672  -10.5200  -18.5734 N   0  0  0  0  0  0  0  0  0  0  0  0
   22.5692   -8.5781  -17.1146 C   0  0  0  0  0  0  0  0  0  0  0  0
   22.1113   -7.7677  -17.9557 O   0  0  0  0  0  0  0  0  0  0  0  0
   20.4165   -6.1316  -13.5276 O   0  0  0  0  0  0  0  0  0  0  0  0
   21.0311   -7.3299  -13.8981 C   0  0  0  0  0  0  0  0  0  0  0  0
   21.5566   -7.1471  -15.3048 C   0  0  2  0  0  0  0  0  0  0  0  0
   22.3369   -8.2723  -15.7487 N   0  0  0  0  0  0  0  0  0  0  0  0
   22.3990   -5.9334  -15.3719 C   0  0  0  0  0  0  0  0  0  0  0  0
   21.8557   -4.6726  -15.5671 O   0  0  0  0  0  0  0  0  0  0  0  0
   23.6560   -5.9849  -15.2550 O   0  0  0  0  0  0  0  0  0  0  0  0
  2  1  1  1
  3  2  1  0
  4  3  1  0
  5  4  2  0
  6  2  1  0
  7  6  2  0
  8  4  1  0
 10  9  1  0
 10 11  1  0
 11 12  1  0
 13 12  1  6
 13 15  1  0
 13 14  1  0
 14  6  1  0
 15 20  1  0
 16 15  2  0
 18 17  1  0
 19 18  1  1
 19 21  1  0
 20 19  1  0
 21 23  2  0
 21 22  1  0
M  END
$$$$
