DMS.pdb
     RDKit          3D

 23 22  0  0  1  0  0  0  0  0999 V2000
   17.2477  -12.4410  -15.2550 N   0  0  0  0  0  0  0  0  0  0  0  0
   17.0338  -11.0188  -15.3373 C   0  0  1  0  0  0  0  0  0  0  0  0
   15.5436  -10.7909  -15.4680 C   0  0  0  0  0  0  0  0  0  0  0  0
   15.0891  -11.3207  -16.7820 C   0  0  0  0  0  0  0  0  0  0  0  0
   15.6112  -10.9015  -17.8399 O   0  0  0  0  0  0  0  0  0  0  0  0
   17.6213  -10.2917  -14.1978 C   0  0  0  0  0  0  0  0  0  0  0  0
   17.5824  -10.7055  -13.0139 O   0  0  0  0  0  0  0  0  0  0  0  0
   14.0805  -12.2895  -16.8908 O   0  0  0  0  0  0  0  0  0  0  0  0
   24.1264   -9.9011  -13.9578 C   0  0  0  0  0  0  0  0  0  0  0  0
   22.9212   -8.5556  -14.0856 S   0  0  0  0  0  0  0  0  0  0  0  0
   21.2418   -9.1584  -13.7084 C   0  0  0  0  0  0  0  0  0  0  0  0
   20.3336   -7.9416  -13.6673 C   0  0  0  0  0  0  0  0  0  0  0  0
   18.9049   -8.3261  -13.3584 C   0  0  2  0  0  0  0  0  0  0  0  0
   18.2738   -9.0533  -14.4139 N   0  0  0  0  0  0  0  0  0  0  0  0
   18.1093   -7.1598  -12.9017 C   0  0  0  0  0  0  0  0  0  0  0  0
   17.6304   -6.3853  -13.7647 O   0  0  0  0  0  0  0  0  0  0  0  0
   17.6548   -6.3129   -8.9488 O   0  0  0  0  0  0  0  0  0  0  0  0
   16.5917   -5.8101   -9.7025 C   0  0  0  0  0  0  0  0  0  0  0  0
   17.0714   -5.6964  -11.1326 C   0  0  2  0  0  0  0  0  0  0  0  0
   17.8394   -6.8417  -11.5456 N   0  0  0  0  0  0  0  0  0  0  0  0
   17.9089   -4.4871  -11.2862 C   0  0  0  0  0  0  0  0  0  0  0  0
   17.4033   -3.2129  -11.0776 O   0  0  0  0  0  0  0  0  0  0  0  0
   19.1267   -4.5549  -11.6155 O   0  0  0  0  0  0  0  0  0  0  0  0
  2  1  1  1
  3  2  1  0
  4  3  1  0
  5  4  2  0
  6  2  1  0
  7  6  2  0
  8  4  1  0
 10  9  1  0
 10 11  1  0
 11 12  1  0
 13 12  1  6
 13 15  1  0
 13 14  1  0
 14  6  1  0
 15 20  1  0
 16 15  2  0
 18 17  1  0
 19 18  1  1
 19 21  1  0
 20 19  1  0
 21 23  2  0
 21 22  1  0
M  END
$$$$
