DMS.pdb
     RDKit          3D

 23 22  0  0  1  0  0  0  0  0999 V2000
   20.3095  -11.6779  -17.0829 N   0  0  0  0  0  0  0  0  0  0  0  0
   19.6047  -10.8107  -16.1740 C   0  0  1  0  0  0  0  0  0  0  0  0
   18.9921  -11.6818  -15.0989 C   0  0  0  0  0  0  0  0  0  0  0  0
   18.0765  -12.6644  -15.7392 C   0  0  0  0  0  0  0  0  0  0  0  0
   17.0009  -12.2769  -16.2492 O   0  0  0  0  0  0  0  0  0  0  0  0
   20.4659   -9.7495  -15.6222 C   0  0  0  0  0  0  0  0  0  0  0  0
   20.1358   -9.0162  -14.6592 O   0  0  0  0  0  0  0  0  0  0  0  0
   18.3712  -14.0346  -15.7985 O   0  0  0  0  0  0  0  0  0  0  0  0
   26.9815  -11.7143  -14.9566 C   0  0  0  0  0  0  0  0  0  0  0  0
   26.3071  -10.2257  -15.7368 S   0  0  0  0  0  0  0  0  0  0  0  0
   24.5559   -9.9978  -15.2810 C   0  0  0  0  0  0  0  0  0  0  0  0
   24.0709   -8.7496  -15.9978 C   0  0  0  0  0  0  0  0  0  0  0  0
   22.6103   -8.4812  -15.7170 C   0  0  2  0  0  0  0  0  0  0  0  0
   21.7443   -9.5163  -16.1858 N   0  0  0  0  0  0  0  0  0  0  0  0
   22.2021   -7.1311  -16.1780 C   0  0  0  0  0  0  0  0  0  0  0  0
   22.0717   -6.9316  -17.4097 O   0  0  0  0  0  0  0  0  0  0  0  0
   19.8041   -4.7547  -14.1657 O   0  0  0  0  0  0  0  0  0  0  0  0
   20.0126   -4.5241  -15.5274 C   0  0  0  0  0  0  0  0  0  0  0  0
   21.4842   -4.7459  -15.7985 C   0  0  2  0  0  0  0  0  0  0  0  0
   21.9414   -6.0265  -15.3264 N   0  0  0  0  0  0  0  0  0  0  0  0
   22.2808   -3.6886  -15.1390 C   0  0  0  0  0  0  0  0  0  0  0  0
   22.1163   -2.3464  -15.4461 O   0  0  0  0  0  0  0  0  0  0  0  0
   23.1511   -3.9558  -14.2630 O   0  0  0  0  0  0  0  0  0  0  0  0
  2  1  1  6
  3  2  1  0
  4  3  1  0
  5  4  2  0
  6  2  1  0
  7  6  2  0
  8  4  1  0
 10  9  1  0
 10 11  1  0
 11 12  1  0
 13 12  1  6
 13 15  1  0
 13 14  1  0
 14  6  1  0
 15 20  1  0
 16 15  2  0
 18 17  1  0
 19 18  1  1
 19 21  1  0
 20 19  1  0
 21 23  2  0
 21 22  1  0
M  END
$$$$
