DMS.pdb
     RDKit          3D

 23 22  0  0  1  0  0  0  0  0999 V2000
   21.0662  -11.7186  -19.0783 N   0  0  0  0  0  0  0  0  0  0  0  0
   21.7763  -10.4666  -19.0192 C   0  0  1  0  0  0  0  0  0  0  0  0
   21.7149   -9.8448  -20.3974 C   0  0  0  0  0  0  0  0  0  0  0  0
   22.5489  -10.6528  -21.3277 C   0  0  0  0  0  0  0  0  0  0  0  0
   22.3385  -10.6020  -22.5608 O   0  0  0  0  0  0  0  0  0  0  0  0
   21.2582   -9.5715  -17.9692 C   0  0  0  0  0  0  0  0  0  0  0  0
   20.1252   -9.0341  -18.0100 O   0  0  0  0  0  0  0  0  0  0  0  0
   23.5825  -11.4863  -20.8754 O   0  0  0  0  0  0  0  0  0  0  0  0
   22.9568  -12.7374  -13.5024 C   0  0  0  0  0  0  0  0  0  0  0  0
   23.3069  -11.1294  -14.2581 S   0  0  0  0  0  0  0  0  0  0  0  0
   22.0342   -9.9091  -13.7922 C   0  0  0  0  0  0  0  0  0  0  0  0
   22.3880   -8.6102  -14.4957 C   0  0  0  0  0  0  0  0  0  0  0  0
   21.6003   -8.4397  -15.7743 C   0  0  2  0  0  0  0  0  0  0  0  0
   22.0567   -9.2791  -16.8365 N   0  0  0  0  0  0  0  0  0  0  0  0
   21.4950   -7.0128  -16.1677 C   0  0  0  0  0  0  0  0  0  0  0  0
   22.4842   -6.4660  -16.7122 O   0  0  0  0  0  0  0  0  0  0  0  0
   19.2452   -3.3220  -17.9051 O   0  0  0  0  0  0  0  0  0  0  0  0
   19.3108   -4.6840  -17.6025 C   0  0  0  0  0  0  0  0  0  0  0  0
   20.2518   -4.8367  -16.4280 C   0  0  2  0  0  0  0  0  0  0  0  0
   20.3477   -6.2001  -15.9765 N   0  0  0  0  0  0  0  0  0  0  0  0
   19.7879   -3.9985  -15.3012 C   0  0  0  0  0  0  0  0  0  0  0  0
   20.2816   -2.7209  -15.0849 O   0  0  0  0  0  0  0  0  0  0  0  0
   18.9188   -4.4051  -14.4793 O   0  0  0  0  0  0  0  0  0  0  0  0
  2  1  1  6
  3  2  1  0
  4  3  1  0
  5  4  2  0
  6  2  1  0
  7  6  2  0
  8  4  1  0
 10  9  1  0
 10 11  1  0
 11 12  1  0
 13 12  1  1
 13 15  1  0
 13 14  1  0
 14  6  1  0
 15 20  1  0
 16 15  2  0
 18 17  1  0
 19 18  1  6
 19 21  1  0
 20 19  1  0
 21 23  2  0
 21 22  1  0
M  END
$$$$
