DMS.pdb
     RDKit          3D

 23 22  0  0  1  0  0  0  0  0999 V2000
   22.5313  -14.1684  -17.6731 N   0  0  0  0  0  0  0  0  0  0  0  0
   22.6373  -12.8506  -18.2451 C   0  0  1  0  0  0  0  0  0  0  0  0
   21.4680  -12.6701  -19.1885 C   0  0  0  0  0  0  0  0  0  0  0  0
   21.5286  -13.7238  -20.2373 C   0  0  0  0  0  0  0  0  0  0  0  0
   22.4867  -13.7502  -21.0427 O   0  0  0  0  0  0  0  0  0  0  0  0
   22.7082  -11.7934  -17.2206 C   0  0  0  0  0  0  0  0  0  0  0  0
   21.8767  -11.6704  -16.2892 O   0  0  0  0  0  0  0  0  0  0  0  0
   20.5394  -14.7099  -20.3666 O   0  0  0  0  0  0  0  0  0  0  0  0
   27.6326  -12.8350  -15.2046 C   0  0  0  0  0  0  0  0  0  0  0  0
   27.4134  -11.1533  -15.8395 S   0  0  0  0  0  0  0  0  0  0  0  0
   26.0201  -10.3263  -15.0024 C   0  0  0  0  0  0  0  0  0  0  0  0
   25.3525   -9.4321  -16.0328 C   0  0  0  0  0  0  0  0  0  0  0  0
   23.9132   -9.8315  -16.2642 C   0  0  2  0  0  0  0  0  0  0  0  0
   23.7603  -10.8457  -17.2588 N   0  0  0  0  0  0  0  0  0  0  0  0
   23.0477   -8.6501  -16.5033 C   0  0  0  0  0  0  0  0  0  0  0  0
   23.0841   -8.0978  -17.6292 O   0  0  0  0  0  0  0  0  0  0  0  0
   19.3816   -8.2330  -15.1490 O   0  0  0  0  0  0  0  0  0  0  0  0
   20.0401   -7.0190  -14.9406 C   0  0  0  0  0  0  0  0  0  0  0  0
   21.2545   -7.0081  -15.8424 C   0  0  2  0  0  0  0  0  0  0  0  0
   22.1655   -8.0829  -15.5477 N   0  0  0  0  0  0  0  0  0  0  0  0
   21.9761   -5.7253  -15.6967 C   0  0  0  0  0  0  0  0  0  0  0  0
   21.3832   -4.5105  -16.0057 O   0  0  0  0  0  0  0  0  0  0  0  0
   23.1689   -5.6726  -15.2835 O   0  0  0  0  0  0  0  0  0  0  0  0
  2  1  1  1
  3  2  1  0
  4  3  1  0
  5  4  2  0
  6  2  1  0
  7  6  2  0
  8  4  1  0
 10  9  1  0
 10 11  1  0
 11 12  1  0
 13 12  1  6
 13 15  1  0
 13 14  1  0
 14  6  1  0
 15 20  1  0
 16 15  2  0
 18 17  1  0
 19 18  1  1
 19 21  1  0
 20 19  1  0
 21 23  2  0
 21 22  1  0
M  END
$$$$
