DMS.pdb
     RDKit          3D

 23 22  0  0  1  0  0  0  0  0999 V2000
   32.4123  -38.5315   -6.0254 N   0  0  0  0  0  0  0  0  0  0  0  0
   32.3364  -39.0422   -4.6805 C   0  0  1  0  0  0  0  0  0  0  0  0
   33.6407  -39.7525   -4.3906 C   0  0  0  0  0  0  0  0  0  0  0  0
   33.6636  -41.0401   -5.1358 C   0  0  0  0  0  0  0  0  0  0  0  0
   34.7324  -41.6839   -5.2394 O   0  0  0  0  0  0  0  0  0  0  0  0
   32.0306  -37.9917   -3.6930 C   0  0  0  0  0  0  0  0  0  0  0  0
   32.4856  -37.9824   -2.5238 O   0  0  0  0  0  0  0  0  0  0  0  0
   32.5170  -41.5765   -5.7401 O   0  0  0  0  0  0  0  0  0  0  0  0
   33.2952  -32.4055   -6.7563 C   0  0  0  0  0  0  0  0  0  0  0  0
   31.8106  -33.2140   -6.1069 S   0  0  0  0  0  0  0  0  0  0  0  0
   32.1714  -34.0460   -4.5246 C   0  0  0  0  0  0  0  0  0  0  0  0
   30.8394  -34.4865   -3.9425 C   0  0  0  0  0  0  0  0  0  0  0  0
   30.9664  -35.7931   -3.1935 C   0  0  2  0  0  0  0  0  0  0  0  0
   31.1788  -36.9175   -4.0489 N   0  0  0  0  0  0  0  0  0  0  0  0
   29.8446  -35.9919   -2.2427 C   0  0  0  0  0  0  0  0  0  0  0  0
   28.9019  -36.7491   -2.5771 O   0  0  0  0  0  0  0  0  0  0  0  0
   30.0444  -36.2710    1.6150 O   0  0  0  0  0  0  0  0  0  0  0  0
   28.9842  -35.3958    1.3681 C   0  0  0  0  0  0  0  0  0  0  0  0
   28.6131  -35.5428   -0.0910 C   0  0  2  0  0  0  0  0  0  0  0  0
   29.7474  -35.3864   -0.9632 N   0  0  0  0  0  0  0  0  0  0  0  0
   27.5963  -34.5320   -0.4542 C   0  0  0  0  0  0  0  0  0  0  0  0
   27.7973  -33.6262   -1.4847 O   0  0  0  0  0  0  0  0  0  0  0  0
   26.4940  -34.4434    0.1567 O   0  0  0  0  0  0  0  0  0  0  0  0
  2  1  1  6
  3  2  1  0
  4  3  1  0
  5  4  2  0
  6  2  1  0
  7  6  2  0
  8  4  1  0
 10  9  1  0
 10 11  1  0
 11 12  1  0
 13 12  1  6
 13 15  1  0
 13 14  1  0
 14  6  1  0
 15 20  1  0
 16 15  2  0
 18 17  1  0
 19 18  1  1
 19 21  1  0
 20 19  1  0
 21 23  2  0
 21 22  1  0
M  END
$$$$
