DMS.pdb
     RDKit          3D

 23 22  0  0  1  0  0  0  0  0999 V2000
   22.9914  -11.8971  -20.1259 N   0  0  0  0  0  0  0  0  0  0  0  0
   23.7854  -11.1269  -19.2032 C   0  0  1  0  0  0  0  0  0  0  0  0
   24.7011  -10.2424  -20.0212 C   0  0  0  0  0  0  0  0  0  0  0  0
   25.9588  -10.9845  -20.3062 C   0  0  0  0  0  0  0  0  0  0  0  0
   26.5866  -11.5332  -19.3723 O   0  0  0  0  0  0  0  0  0  0  0  0
   22.9617  -10.3628  -18.2493 C   0  0  0  0  0  0  0  0  0  0  0  0
   21.7082  -10.3240  -18.2879 O   0  0  0  0  0  0  0  0  0  0  0  0
   26.4836  -11.0994  -21.6020 O   0  0  0  0  0  0  0  0  0  0  0  0
   22.1064  -13.0504  -12.6875 C   0  0  0  0  0  0  0  0  0  0  0  0
   22.6952  -11.3581  -12.9498 S   0  0  0  0  0  0  0  0  0  0  0  0
   22.4679  -10.8605  -14.6896 C   0  0  0  0  0  0  0  0  0  0  0  0
   23.0409   -9.4606  -14.8279 C   0  0  0  0  0  0  0  0  0  0  0  0
   22.8410   -8.9150  -16.2232 C   0  0  2  0  0  0  0  0  0  0  0  0
   23.5862   -9.6189  -17.2183 N   0  0  0  0  0  0  0  0  0  0  0  0
   23.0499   -7.4467  -16.2733 C   0  0  0  0  0  0  0  0  0  0  0  0
   24.2244   -7.0095  -16.3297 O   0  0  0  0  0  0  0  0  0  0  0  0
   20.9656   -4.9069  -18.3031 O   0  0  0  0  0  0  0  0  0  0  0  0
   21.1156   -4.3310  -17.0395 C   0  0  0  0  0  0  0  0  0  0  0  0
   22.2457   -5.0600  -16.3468 C   0  0  2  0  0  0  0  0  0  0  0  0
   22.0132   -6.4781  -16.2633 N   0  0  0  0  0  0  0  0  0  0  0  0
   22.4201   -4.5294  -14.9774 C   0  0  0  0  0  0  0  0  0  0  0  0
   23.2038   -3.4158  -14.7159 O   0  0  0  0  0  0  0  0  0  0  0  0
   21.8638   -5.0648  -13.9773 O   0  0  0  0  0  0  0  0  0  0  0  0
  2  1  1  6
  3  2  1  0
  4  3  1  0
  5  4  2  0
  6  2  1  0
  7  6  2  0
  8  4  1  0
 10  9  1  0
 10 11  1  0
 11 12  1  0
 13 12  1  1
 13 15  1  0
 13 14  1  0
 14  6  1  0
 15 20  1  0
 16 15  2  0
 18 17  1  0
 19 18  1  1
 19 21  1  0
 20 19  1  0
 21 23  2  0
 21 22  1  0
M  END
$$$$
