DMS.pdb
     RDKit          3D

 23 22  0  0  1  0  0  0  0  0999 V2000
   19.0100  -12.6321  -16.3012 N   0  0  0  0  0  0  0  0  0  0  0  0
   18.9193  -11.2178  -16.5593 C   0  0  1  0  0  0  0  0  0  0  0  0
   17.7405  -10.6876  -15.7724 C   0  0  0  0  0  0  0  0  0  0  0  0
   16.5070  -11.3868  -16.2235 C   0  0  0  0  0  0  0  0  0  0  0  0
   15.6819  -11.8062  -15.3805 O   0  0  0  0  0  0  0  0  0  0  0  0
   20.1727  -10.5053  -16.2530 C   0  0  0  0  0  0  0  0  0  0  0  0
   20.7503  -10.5609  -15.1406 O   0  0  0  0  0  0  0  0  0  0  0  0
   16.2210  -11.6013  -17.5800 O   0  0  0  0  0  0  0  0  0  0  0  0
   25.2665  -11.9762  -20.1793 C   0  0  0  0  0  0  0  0  0  0  0  0
   24.6221  -10.3300  -19.7868 S   0  0  0  0  0  0  0  0  0  0  0  0
   23.4851  -10.4071  -18.3629 C   0  0  0  0  0  0  0  0  0  0  0  0
   22.9669   -8.9978  -18.1336 C   0  0  0  0  0  0  0  0  0  0  0  0
   21.9750   -8.9503  -16.9942 C   0  0  2  0  0  0  0  0  0  0  0  0
   20.7875   -9.7037  -17.2458 N   0  0  0  0  0  0  0  0  0  0  0  0
   21.6975   -7.5569  -16.5660 C   0  0  0  0  0  0  0  0  0  0  0  0
   20.9564   -6.8446  -17.2853 O   0  0  0  0  0  0  0  0  0  0  0  0
   21.9473   -3.9756  -13.3176 O   0  0  0  0  0  0  0  0  0  0  0  0
   22.3043   -5.3008  -13.5772 C   0  0  0  0  0  0  0  0  0  0  0  0
   21.9584   -5.5825  -15.0226 C   0  0  2  0  0  0  0  0  0  0  0  0
   22.2092   -6.9517  -15.3891 N   0  0  0  0  0  0  0  0  0  0  0  0
   22.7525   -4.7043  -15.9088 C   0  0  0  0  0  0  0  0  0  0  0  0
   22.2294   -3.5383  -16.4471 O   0  0  0  0  0  0  0  0  0  0  0  0
   23.9472   -4.9729  -16.2199 O   0  0  0  0  0  0  0  0  0  0  0  0
  2  1  1  1
  3  2  1  0
  4  3  1  0
  5  4  2  0
  6  2  1  0
  7  6  2  0
  8  4  1  0
 10  9  1  0
 10 11  1  0
 11 12  1  0
 13 12  1  6
 13 15  1  0
 13 14  1  0
 14  6  1  0
 15 20  1  0
 16 15  2  0
 18 17  1  0
 19 18  1  1
 19 21  1  0
 20 19  1  0
 21 23  2  0
 21 22  1  0
M  END
$$$$
