ESL.pdb
     RDKit          3D

 24 23  0  0  1  0  0  0  0  0999 V2000
    9.1714  -19.4720   18.8098 N   0  0  0  0  0  0  0  0  0  0  0  0
    9.0536  -18.0972   19.1221 C   0  0  1  0  0  0  0  0  0  0  0  0
    8.4062  -17.2927   18.0401 C   0  0  0  0  0  0  0  0  0  0  0  0
    8.2883  -17.8981   16.7021 C   0  0  0  0  0  0  0  0  0  0  0  0
    7.6965  -17.0816   15.6360 C   0  0  0  0  0  0  0  0  0  0  0  0
    7.2869  -15.9158   15.7608 O   0  0  0  0  0  0  0  0  0  0  0  0
    8.2636  -17.8511   20.3794 C   0  0  0  0  0  0  0  0  0  0  0  0
    7.0131  -17.7806   20.2710 O   0  0  0  0  0  0  0  0  0  0  0  0
    7.5694  -17.6433   14.3484 O   0  0  0  0  0  0  0  0  0  0  0  0
    9.5675  -19.0877   23.9017 O   0  0  0  0  0  0  0  0  0  0  0  0
    8.2373  -18.8144   23.6866 C   0  0  0  0  0  0  0  0  0  0  0  0
    8.0825  -17.5510   22.8864 C   0  0  2  0  0  0  0  0  0  0  0  0
    8.8522  -17.6963   21.6577 N   0  0  0  0  0  0  0  0  0  0  0  0
    8.5228  -16.3506   23.6390 C   0  0  0  0  0  0  0  0  0  0  0  0
    9.7507  -15.9905   23.6040 O   0  0  0  0  0  0  0  0  0  0  0  0
    6.0443  -11.7279   26.7744 C   0  0  0  0  0  0  0  0  0  0  0  0
    7.2975  -12.3360   26.1227 C   0  0  2  0  0  0  0  0  0  0  0  0
    7.5224  -11.6704   24.7971 C   0  0  0  0  0  0  0  0  0  0  0  0
    7.1265  -13.8220   26.0810 C   0  0  0  0  0  0  0  0  0  0  0  0
    8.2091  -14.6083   25.4160 C   0  0  2  0  0  0  0  0  0  0  0  0
    7.6860  -15.5255   24.4270 N   0  0  0  0  0  0  0  0  0  0  0  0
    8.9913  -15.3932   26.4511 C   0  0  0  0  0  0  0  0  0  0  0  0
    8.6341  -16.5360   26.8313 O   0  0  0  0  0  0  0  0  0  0  0  0
   10.1417  -14.8634   27.0168 O   0  0  0  0  0  0  0  0  0  0  0  0
  2  1  1  6
  2  7  1  0
  3  2  1  0
  3  4  1  0
  5  4  1  0
  5  9  1  0
  6  5  2  0
  7  8  2  0
 10 11  1  0
 12 11  1  1
 12 14  1  0
 13  7  1  0
 13 12  1  0
 14 15  2  0
 17 16  1  6
 17 18  1  0
 19 17  1  0
 20 19  1  1
 20 22  1  0
 21 14  1  0
 21 20  1  0
 22 23  2  0
 22 24  1  0
M  END
$$$$
