ESL.pdb
     RDKit          3D

 24 23  0  0  1  0  0  0  0  0999 V2000
    9.9117  -16.0163   18.0007 N   0  0  0  0  0  0  0  0  0  0  0  0
   10.4555  -16.1883   19.2954 C   0  0  1  0  0  0  0  0  0  0  0  0
   11.6384  -15.3141   19.5668 C   0  0  0  0  0  0  0  0  0  0  0  0
   12.9504  -15.7432   19.0519 C   0  0  0  0  0  0  0  0  0  0  0  0
   14.0920  -14.8470   19.2682 C   0  0  0  0  0  0  0  0  0  0  0  0
   14.0421  -13.7295   19.8079 O   0  0  0  0  0  0  0  0  0  0  0  0
    9.4556  -15.9191   20.3876 C   0  0  0  0  0  0  0  0  0  0  0  0
    8.6594  -14.9611   20.2182 O   0  0  0  0  0  0  0  0  0  0  0  0
   15.3682  -15.2645   18.8362 O   0  0  0  0  0  0  0  0  0  0  0  0
    8.7536  -18.6483   23.5011 O   0  0  0  0  0  0  0  0  0  0  0  0
    7.7776  -17.8914   22.8970 C   0  0  0  0  0  0  0  0  0  0  0  0
    8.3051  -16.5245   22.5597 C   0  0  2  0  0  0  0  0  0  0  0  0
    9.3710  -16.6803   21.5784 N   0  0  0  0  0  0  0  0  0  0  0  0
    8.7997  -15.8010   23.7568 C   0  0  0  0  0  0  0  0  0  0  0  0
   10.0577  -15.7233   23.9809 O   0  0  0  0  0  0  0  0  0  0  0  0
    7.5398  -11.7415   25.3670 C   0  0  0  0  0  0  0  0  0  0  0  0
    6.6345  -12.8524   25.9252 C   0  0  2  0  0  0  0  0  0  0  0  0
    5.5160  -12.2191   26.6987 C   0  0  0  0  0  0  0  0  0  0  0  0
    7.4914  -13.8104   26.6916 C   0  0  0  0  0  0  0  0  0  0  0  0
    8.5292  -14.5565   25.9178 C   0  0  2  0  0  0  0  0  0  0  0  0
    7.9861  -15.1584   24.7196 N   0  0  0  0  0  0  0  0  0  0  0  0
    9.1399  -15.6427   26.7817 C   0  0  0  0  0  0  0  0  0  0  0  0
    9.7948  -15.3789   27.8208 O   0  0  0  0  0  0  0  0  0  0  0  0
    8.9906  -16.9798   26.4442 O   0  0  0  0  0  0  0  0  0  0  0  0
  2  1  1  6
  2  7  1  0
  3  2  1  0
  3  4  1  0
  5  4  1  0
  5  9  1  0
  6  5  2  0
  7  8  2  0
 10 11  1  0
 12 11  1  1
 12 14  1  0
 13  7  1  0
 13 12  1  0
 14 15  2  0
 17 16  1  1
 17 18  1  0
 19 17  1  0
 20 19  1  1
 20 22  1  0
 21 14  1  0
 21 20  1  0
 22 23  2  0
 22 24  1  0
M  END
$$$$
