ESL.pdb
     RDKit          3D

 24 23  0  0  1  0  0  0  0  0999 V2000
   12.7827  -19.7114   21.2085 N   0  0  0  0  0  0  0  0  0  0  0  0
   13.1987  -18.3987   21.5329 C   0  0  1  0  0  0  0  0  0  0  0  0
   13.4253  -17.5315   20.3355 C   0  0  0  0  0  0  0  0  0  0  0  0
   14.3285  -18.0262   19.2820 C   0  0  0  0  0  0  0  0  0  0  0  0
   14.4805  -17.2047   18.0755 C   0  0  0  0  0  0  0  0  0  0  0  0
   13.8990  -17.3930   16.9944 O   0  0  0  0  0  0  0  0  0  0  0  0
   12.2145  -17.6766   22.4133 C   0  0  0  0  0  0  0  0  0  0  0  0
   12.4583  -16.4740   22.6866 O   0  0  0  0  0  0  0  0  0  0  0  0
   15.3559  -16.0995   18.1183 O   0  0  0  0  0  0  0  0  0  0  0  0
    8.9446  -19.5794   24.2571 O   0  0  0  0  0  0  0  0  0  0  0  0
    8.7727  -18.3355   23.6971 C   0  0  0  0  0  0  0  0  0  0  0  0
   10.0593  -17.5586   23.7359 C   0  0  2  0  0  0  0  0  0  0  0  0
   11.0465  -18.2779   22.9413 N   0  0  0  0  0  0  0  0  0  0  0  0
   10.5521  -17.3548   25.1204 C   0  0  0  0  0  0  0  0  0  0  0  0
   11.5613  -18.0195   25.5427 O   0  0  0  0  0  0  0  0  0  0  0  0
   11.2759  -13.3972   27.9105 C   0  0  0  0  0  0  0  0  0  0  0  0
    9.8582  -13.9300   27.6435 C   0  0  2  0  0  0  0  0  0  0  0  0
    8.8637  -12.9436   28.1808 C   0  0  0  0  0  0  0  0  0  0  0  0
    9.7671  -15.3138   28.2057 C   0  0  0  0  0  0  0  0  0  0  0  0
   10.4461  -16.4010   27.4379 C   0  0  2  0  0  0  0  0  0  0  0  0
    9.9955  -16.4599   26.0644 N   0  0  0  0  0  0  0  0  0  0  0  0
   10.1895  -17.7413   28.0987 C   0  0  0  0  0  0  0  0  0  0  0  0
   10.8455  -18.1289   29.0975 O   0  0  0  0  0  0  0  0  0  0  0  0
    9.2077  -18.5915   27.6115 O   0  0  0  0  0  0  0  0  0  0  0  0
  2  1  1  6
  2  7  1  0
  3  2  1  0
  3  4  1  0
  5  4  1  0
  5  9  1  0
  6  5  2  0
  7  8  2  0
 10 11  1  0
 12 11  1  1
 12 14  1  0
 13  7  1  0
 13 12  1  0
 14 15  2  0
 17 16  1  1
 17 18  1  0
 19 17  1  0
 20 19  1  1
 20 22  1  0
 21 14  1  0
 21 20  1  0
 22 23  2  0
 22 24  1  0
M  END
$$$$
