ESL.pdb
     RDKit          3D

 24 23  0  0  1  0  0  0  0  0999 V2000
    9.9166  -17.5083   19.1665 N   0  0  0  0  0  0  0  0  0  0  0  0
    9.9633  -18.0803   20.4595 C   0  0  1  0  0  0  0  0  0  0  0  0
   11.3439  -18.1536   21.0302 C   0  0  0  0  0  0  0  0  0  0  0  0
   11.9550  -16.9093   21.5290 C   0  0  0  0  0  0  0  0  0  0  0  0
   13.3525  -16.9683   21.9728 C   0  0  0  0  0  0  0  0  0  0  0  0
   13.8159  -16.4080   22.9796 O   0  0  0  0  0  0  0  0  0  0  0  0
    9.1189  -17.3343   21.4574 C   0  0  0  0  0  0  0  0  0  0  0  0
    8.8752  -16.1246   21.2176 O   0  0  0  0  0  0  0  0  0  0  0  0
   14.2711  -17.7186   21.2094 O   0  0  0  0  0  0  0  0  0  0  0  0
    7.6013  -19.0519   25.0447 O   0  0  0  0  0  0  0  0  0  0  0  0
    6.8081  -18.3402   24.1760 C   0  0  0  0  0  0  0  0  0  0  0  0
    7.6093  -17.2698   23.4885 C   0  0  2  0  0  0  0  0  0  0  0  0
    8.5953  -17.9202   22.6352 N   0  0  0  0  0  0  0  0  0  0  0  0
    8.2737  -16.3578   24.4518 C   0  0  0  0  0  0  0  0  0  0  0  0
    9.5214  -16.4945   24.7034 O   0  0  0  0  0  0  0  0  0  0  0  0
    6.4543  -11.2162   26.4331 C   0  0  0  0  0  0  0  0  0  0  0  0
    7.6070  -12.1346   25.9938 C   0  0  2  0  0  0  0  0  0  0  0  0
    7.6132  -12.2170   24.4959 C   0  0  0  0  0  0  0  0  0  0  0  0
    7.4641  -13.4385   26.7141 C   0  0  0  0  0  0  0  0  0  0  0  0
    8.2942  -14.5781   26.2193 C   0  0  2  0  0  0  0  0  0  0  0  0
    7.6404  -15.3043   25.1525 N   0  0  0  0  0  0  0  0  0  0  0  0
    8.5921  -15.5354   27.3568 C   0  0  0  0  0  0  0  0  0  0  0  0
    7.9248  -16.5843   27.5378 O   0  0  0  0  0  0  0  0  0  0  0  0
    9.6264  -15.2765   28.2441 O   0  0  0  0  0  0  0  0  0  0  0  0
  2  1  1  6
  2  7  1  0
  3  2  1  0
  3  4  1  0
  5  4  1  0
  5  9  1  0
  6  5  2  0
  7  8  2  0
 10 11  1  0
 12 11  1  1
 12 14  1  0
 13  7  1  0
 13 12  1  0
 14 15  2  0
 17 16  1  6
 17 18  1  0
 19 17  1  0
 20 19  1  1
 20 22  1  0
 21 14  1  0
 21 20  1  0
 22 23  2  0
 22 24  1  0
M  END
$$$$
