ESL.pdb
     RDKit          3D

 24 23  0  0  1  0  0  0  0  0999 V2000
   10.0112  -16.3168   19.3779 N   0  0  0  0  0  0  0  0  0  0  0  0
    8.6420  -16.0111   19.5601 C   0  0  1  0  0  0  0  0  0  0  0  0
    7.7379  -16.7335   18.6125 C   0  0  0  0  0  0  0  0  0  0  0  0
    8.3523  -17.4784   17.4998 C   0  0  0  0  0  0  0  0  0  0  0  0
    7.4590  -18.2223   16.6042 C   0  0  0  0  0  0  0  0  0  0  0  0
    7.2248  -17.9394   15.4178 O   0  0  0  0  0  0  0  0  0  0  0  0
    8.1553  -16.3234   20.9497 C   0  0  0  0  0  0  0  0  0  0  0  0
    6.9143  -16.2915   21.1475 O   0  0  0  0  0  0  0  0  0  0  0  0
    6.7956  -19.3610   17.1071 O   0  0  0  0  0  0  0  0  0  0  0  0
   10.3731  -18.3891   23.5631 O   0  0  0  0  0  0  0  0  0  0  0  0
    9.0245  -18.2609   23.7980 C   0  0  0  0  0  0  0  0  0  0  0  0
    8.5456  -16.8971   23.3841 C   0  0  2  0  0  0  0  0  0  0  0  0
    9.0148  -16.6451   22.0278 N   0  0  0  0  0  0  0  0  0  0  0  0
    9.0149  -15.8325   24.3047 C   0  0  0  0  0  0  0  0  0  0  0  0
   10.1932  -15.3498   24.1742 O   0  0  0  0  0  0  0  0  0  0  0  0
    7.9011  -11.6358   25.1868 C   0  0  0  0  0  0  0  0  0  0  0  0
    6.9623  -12.6202   25.9041 C   0  0  2  0  0  0  0  0  0  0  0  0
    5.8184  -11.8508   26.4958 C   0  0  0  0  0  0  0  0  0  0  0  0
    7.7766  -13.4185   26.8731 C   0  0  0  0  0  0  0  0  0  0  0  0
    8.8187  -14.3211   26.2970 C   0  0  2  0  0  0  0  0  0  0  0  0
    8.2584  -15.2704   25.3600 N   0  0  0  0  0  0  0  0  0  0  0  0
    9.5197  -15.0796   27.4071 C   0  0  0  0  0  0  0  0  0  0  0  0
    9.3612  -16.3145   27.5743 O   0  0  0  0  0  0  0  0  0  0  0  0
   10.3694  -14.4212   28.2838 O   0  0  0  0  0  0  0  0  0  0  0  0
  2  1  1  1
  2  7  1  0
  3  2  1  0
  3  4  1  0
  5  4  1  0
  5  9  1  0
  6  5  2  0
  7  8  2  0
 10 11  1  0
 12 11  1  1
 12 14  1  0
 13  7  1  0
 13 12  1  0
 14 15  2  0
 17 16  1  1
 17 18  1  0
 19 17  1  0
 20 19  1  1
 20 22  1  0
 21 14  1  0
 21 20  1  0
 22 23  2  0
 22 24  1  0
M  END
$$$$
