ESL.pdb
     RDKit          3D

 24 23  0  0  1  0  0  0  0  0999 V2000
    9.0098  -14.1067   18.0764 N   0  0  0  0  0  0  0  0  0  0  0  0
    9.5568  -14.9032   19.1097 C   0  0  1  0  0  0  0  0  0  0  0  0
   10.9135  -14.4561   19.5532 C   0  0  0  0  0  0  0  0  0  0  0  0
   12.0609  -14.7492   18.6769 C   0  0  0  0  0  0  0  0  0  0  0  0
   13.3928  -14.3466   19.1431 C   0  0  0  0  0  0  0  0  0  0  0  0
   13.6505  -13.8434   20.2489 O   0  0  0  0  0  0  0  0  0  0  0  0
    8.6878  -14.9409   20.3380 C   0  0  0  0  0  0  0  0  0  0  0  0
    8.1053  -13.8762   20.6661 O   0  0  0  0  0  0  0  0  0  0  0  0
   14.4941  -14.5356   18.2822 O   0  0  0  0  0  0  0  0  0  0  0  0
    8.1102  -18.4172   22.7400 O   0  0  0  0  0  0  0  0  0  0  0  0
    7.0918  -17.5524   22.4155 C   0  0  0  0  0  0  0  0  0  0  0  0
    7.6144  -16.1486   22.2867 C   0  0  2  0  0  0  0  0  0  0  0  0
    8.4990  -16.0993   21.1298 N   0  0  0  0  0  0  0  0  0  0  0  0
    8.3272  -15.6993   23.5079 C   0  0  0  0  0  0  0  0  0  0  0  0
    9.6066  -15.7223   23.5449 O   0  0  0  0  0  0  0  0  0  0  0  0
    8.1153  -11.5962   25.5037 C   0  0  0  0  0  0  0  0  0  0  0  0
    7.0369  -12.6281   25.8745 C   0  0  2  0  0  0  0  0  0  0  0  0
    5.9260  -11.9254   26.5976 C   0  0  0  0  0  0  0  0  0  0  0  0
    7.6965  -13.7418   26.6254 C   0  0  0  0  0  0  0  0  0  0  0  0
    8.4678  -14.7360   25.8196 C   0  0  2  0  0  0  0  0  0  0  0  0
    7.7092  -15.2259   24.6894 N   0  0  0  0  0  0  0  0  0  0  0  0
    8.8690  -15.9107   26.6905 C   0  0  0  0  0  0  0  0  0  0  0  0
    9.6200  -15.7752   27.6884 O   0  0  0  0  0  0  0  0  0  0  0  0
    8.4112  -17.1887   26.4057 O   0  0  0  0  0  0  0  0  0  0  0  0
  2  1  1  6
  2  7  1  0
  3  2  1  0
  3  4  1  0
  5  4  1  0
  5  9  1  0
  6  5  2  0
  7  8  2  0
 10 11  1  0
 12 11  1  1
 12 14  1  0
 13  7  1  0
 13 12  1  0
 14 15  2  0
 17 16  1  1
 17 18  1  0
 19 17  1  0
 20 19  1  1
 20 22  1  0
 21 14  1  0
 21 20  1  0
 22 23  2  0
 22 24  1  0
M  END
$$$$
