ESL.pdb
     RDKit          3D

 24 23  0  0  1  0  0  0  0  0999 V2000
    9.6553  -15.0748   18.6659 N   0  0  0  0  0  0  0  0  0  0  0  0
    8.7552  -14.1235   19.2010 C   0  0  1  0  0  0  0  0  0  0  0  0
    7.6542  -13.7488   18.2606 C   0  0  0  0  0  0  0  0  0  0  0  0
    8.0235  -13.2041   16.9424 C   0  0  0  0  0  0  0  0  0  0  0  0
    8.5631  -14.1382   15.9476 C   0  0  0  0  0  0  0  0  0  0  0  0
    8.0953  -15.2564   15.6770 O   0  0  0  0  0  0  0  0  0  0  0  0
    8.1008  -14.5920   20.4729 C   0  0  0  0  0  0  0  0  0  0  0  0
    7.3466  -13.7804   21.0670 O   0  0  0  0  0  0  0  0  0  0  0  0
    9.7115  -13.7601   15.2211 O   0  0  0  0  0  0  0  0  0  0  0  0
    9.1459  -18.1668   22.4217 O   0  0  0  0  0  0  0  0  0  0  0  0
    7.8165  -17.8247   22.3449 C   0  0  0  0  0  0  0  0  0  0  0  0
    7.6615  -16.3317   22.2585 C   0  0  2  0  0  0  0  0  0  0  0  0
    8.2921  -15.8819   21.0242 N   0  0  0  0  0  0  0  0  0  0  0  0
    8.2510  -15.6361   23.4289 C   0  0  0  0  0  0  0  0  0  0  0  0
    9.4848  -15.2955   23.4140 O   0  0  0  0  0  0  0  0  0  0  0  0
    6.1253  -11.8769   27.4586 C   0  0  0  0  0  0  0  0  0  0  0  0
    7.3146  -12.4097   26.6421 C   0  0  2  0  0  0  0  0  0  0  0  0
    7.3404  -11.7096   25.3155 C   0  0  0  0  0  0  0  0  0  0  0  0
    7.2100  -13.9014   26.5858 C   0  0  0  0  0  0  0  0  0  0  0  0
    8.1961  -14.6155   25.7196 C   0  0  2  0  0  0  0  0  0  0  0  0
    7.5569  -15.2947   24.6137 N   0  0  0  0  0  0  0  0  0  0  0  0
    8.9691  -15.6295   26.5403 C   0  0  0  0  0  0  0  0  0  0  0  0
    8.6244  -16.8357   26.6068 O   0  0  0  0  0  0  0  0  0  0  0  0
   10.0968  -15.2483   27.2524 O   0  0  0  0  0  0  0  0  0  0  0  0
  2  1  1  6
  2  7  1  0
  3  2  1  0
  3  4  1  0
  5  4  1  0
  5  9  1  0
  6  5  2  0
  7  8  2  0
 10 11  1  0
 12 11  1  1
 12 14  1  0
 13  7  1  0
 13 12  1  0
 14 15  2  0
 17 16  1  1
 17 18  1  0
 19 17  1  0
 20 19  1  1
 20 22  1  0
 21 14  1  0
 21 20  1  0
 22 23  2  0
 22 24  1  0
M  END
$$$$
