ESL.pdb
     RDKit          3D

 24 23  0  0  1  0  0  0  0  0999 V2000
   11.7527  -18.8729   21.4065 N   0  0  0  0  0  0  0  0  0  0  0  0
   11.3232  -17.6117   20.9307 C   0  0  1  0  0  0  0  0  0  0  0  0
   10.9522  -17.6153   19.4818 C   0  0  0  0  0  0  0  0  0  0  0  0
   11.3239  -18.7897   18.6737 C   0  0  0  0  0  0  0  0  0  0  0  0
   12.0913  -18.5546   17.4452 C   0  0  0  0  0  0  0  0  0  0  0  0
   12.4925  -17.4500   17.0433 O   0  0  0  0  0  0  0  0  0  0  0  0
   10.1334  -17.0795   21.6834 C   0  0  0  0  0  0  0  0  0  0  0  0
    9.6295  -16.0012   21.2789 O   0  0  0  0  0  0  0  0  0  0  0  0
   12.4155  -19.6597   16.6308 O   0  0  0  0  0  0  0  0  0  0  0  0
    8.4426  -19.0180   25.0583 O   0  0  0  0  0  0  0  0  0  0  0  0
    7.6718  -18.3408   24.1432 C   0  0  0  0  0  0  0  0  0  0  0  0
    8.4389  -17.1862   23.5610 C   0  0  2  0  0  0  0  0  0  0  0  0
    9.5645  -17.7243   22.8082 N   0  0  0  0  0  0  0  0  0  0  0  0
    8.9119  -16.2421   24.6031 C   0  0  0  0  0  0  0  0  0  0  0  0
   10.1611  -16.1602   24.8704 O   0  0  0  0  0  0  0  0  0  0  0  0
    7.7204  -11.7389   25.5227 C   0  0  0  0  0  0  0  0  0  0  0  0
    6.7579  -12.7802   26.1180 C   0  0  2  0  0  0  0  0  0  0  0  0
    5.6054  -12.0620   26.7557 C   0  0  0  0  0  0  0  0  0  0  0  0
    7.5433  -13.6769   27.0227 C   0  0  0  0  0  0  0  0  0  0  0  0
    8.6123  -14.5068   26.3894 C   0  0  2  0  0  0  0  0  0  0  0  0
    8.0857  -15.3837   25.3663 N   0  0  0  0  0  0  0  0  0  0  0  0
    9.3124  -15.3432   27.4427 C   0  0  0  0  0  0  0  0  0  0  0  0
   10.0501  -14.8295   28.3203 O   0  0  0  0  0  0  0  0  0  0  0  0
    9.1561  -16.7212   27.4679 O   0  0  0  0  0  0  0  0  0  0  0  0
  2  1  1  1
  2  7  1  0
  3  2  1  0
  3  4  1  0
  5  4  1  0
  5  9  1  0
  6  5  2  0
  7  8  2  0
 10 11  1  0
 12 11  1  1
 12 14  1  0
 13  7  1  0
 13 12  1  0
 14 15  2  0
 17 16  1  1
 17 18  1  0
 19 17  1  0
 20 19  1  1
 20 22  1  0
 21 14  1  0
 21 20  1  0
 22 23  2  0
 22 24  1  0
M  END
$$$$
