ESL.pdb
     RDKit          3D

 24 23  0  0  1  0  0  0  0  0999 V2000
   11.4792  -19.3612   20.5090 N   0  0  0  0  0  0  0  0  0  0  0  0
   11.6141  -17.9531   20.4933 C   0  0  1  0  0  0  0  0  0  0  0  0
   11.7865  -17.3854   19.1203 C   0  0  0  0  0  0  0  0  0  0  0  0
   12.0931  -18.3149   18.0191 C   0  0  0  0  0  0  0  0  0  0  0  0
   12.2587  -17.7470   16.6761 C   0  0  0  0  0  0  0  0  0  0  0  0
   13.3151  -17.2908   16.2090 O   0  0  0  0  0  0  0  0  0  0  0  0
   10.4365  -17.2482   21.1110 C   0  0  0  0  0  0  0  0  0  0  0  0
    9.9272  -16.2986   20.4634 O   0  0  0  0  0  0  0  0  0  0  0  0
   11.1384  -17.7025   15.8202 O   0  0  0  0  0  0  0  0  0  0  0  0
    8.2453  -19.0019   24.0485 O   0  0  0  0  0  0  0  0  0  0  0  0
    7.6930  -18.0479   23.2269 C   0  0  0  0  0  0  0  0  0  0  0  0
    8.6950  -16.9679   22.9267 C   0  0  2  0  0  0  0  0  0  0  0  0
    9.8844  -17.5969   22.3672 N   0  0  0  0  0  0  0  0  0  0  0  0
    9.0425  -16.1725   24.1299 C   0  0  0  0  0  0  0  0  0  0  0  0
   10.2373  -16.1984   24.5887 O   0  0  0  0  0  0  0  0  0  0  0  0
    8.2194  -11.7492   25.6704 C   0  0  0  0  0  0  0  0  0  0  0  0
    7.0178  -12.7029   25.7794 C   0  0  2  0  0  0  0  0  0  0  0  0
    5.8252  -11.9235   26.2492 C   0  0  0  0  0  0  0  0  0  0  0  0
    7.4174  -13.8588   26.6416 C   0  0  0  0  0  0  0  0  0  0  0  0
    8.5005  -14.7470   26.1214 C   0  0  2  0  0  0  0  0  0  0  0  0
    8.1476  -15.3506   24.8549 N   0  0  0  0  0  0  0  0  0  0  0  0
    8.7984  -15.8444   27.1244 C   0  0  0  0  0  0  0  0  0  0  0  0
    9.4146  -15.6194   28.1958 O   0  0  0  0  0  0  0  0  0  0  0  0
    8.3928  -17.1489   26.8839 O   0  0  0  0  0  0  0  0  0  0  0  0
  2  1  1  6
  2  7  1  0
  3  2  1  0
  3  4  1  0
  5  4  1  0
  5  9  1  0
  6  5  2  0
  7  8  2  0
 10 11  1  0
 12 11  1  1
 12 14  1  0
 13  7  1  0
 13 12  1  0
 14 15  2  0
 17 16  1  1
 17 18  1  0
 19 17  1  0
 20 19  1  1
 20 22  1  0
 21 14  1  0
 21 20  1  0
 22 23  2  0
 22 24  1  0
M  END
$$$$
