ESL.pdb
     RDKit          3D

 24 23  0  0  1  0  0  0  0  0999 V2000
   11.2858  -19.4989   21.2995 N   0  0  0  0  0  0  0  0  0  0  0  0
   11.9936  -18.2909   21.5022 C   0  0  1  0  0  0  0  0  0  0  0  0
   12.9663  -17.9786   20.4097 C   0  0  0  0  0  0  0  0  0  0  0  0
   12.4917  -18.0519   19.0169 C   0  0  0  0  0  0  0  0  0  0  0  0
   13.4338  -17.6750   17.9568 C   0  0  0  0  0  0  0  0  0  0  0  0
   14.1631  -18.4574   17.3256 O   0  0  0  0  0  0  0  0  0  0  0  0
   11.0850  -17.0979   21.6302 C   0  0  0  0  0  0  0  0  0  0  0  0
   11.6262  -15.9743   21.7889 O   0  0  0  0  0  0  0  0  0  0  0  0
   13.5415  -16.3137   17.6033 O   0  0  0  0  0  0  0  0  0  0  0  0
    6.8626  -17.3706   21.9880 O   0  0  0  0  0  0  0  0  0  0  0  0
    7.4379  -16.3994   21.2032 C   0  0  0  0  0  0  0  0  0  0  0  0
    8.7936  -16.0270   21.7359 C   0  0  2  0  0  0  0  0  0  0  0  0
    9.6723  -17.1793   21.5826 N   0  0  0  0  0  0  0  0  0  0  0  0
    8.7418  -15.5957   23.1545 C   0  0  0  0  0  0  0  0  0  0  0  0
    9.4250  -16.2222   24.0373 O   0  0  0  0  0  0  0  0  0  0  0  0
    5.7526  -11.5603   26.8392 C   0  0  0  0  0  0  0  0  0  0  0  0
    6.8844  -12.5987   26.7624 C   0  0  2  0  0  0  0  0  0  0  0  0
    8.1103  -12.0238   27.4082 C   0  0  0  0  0  0  0  0  0  0  0  0
    7.0390  -13.0143   25.3331 C   0  0  0  0  0  0  0  0  0  0  0  0
    7.9125  -14.1963   25.0640 C   0  0  2  0  0  0  0  0  0  0  0  0
    7.9800  -14.5130   23.6540 N   0  0  0  0  0  0  0  0  0  0  0  0
    7.3946  -15.4065   25.8167 C   0  0  0  0  0  0  0  0  0  0  0  0
    7.8893  -15.7726   26.9119 O   0  0  0  0  0  0  0  0  0  0  0  0
    6.3433  -16.1559   25.3096 O   0  0  0  0  0  0  0  0  0  0  0  0
  2  1  1  6
  2  7  1  0
  3  2  1  0
  3  4  1  0
  5  4  1  0
  5  9  1  0
  6  5  2  0
  7  8  2  0
 10 11  1  0
 12 11  1  1
 12 14  1  0
 13  7  1  0
 13 12  1  0
 14 15  2  0
 17 16  1  6
 17 18  1  0
 19 17  1  0
 20 19  1  6
 20 22  1  0
 21 14  1  0
 21 20  1  0
 22 23  2  0
 22 24  1  0
M  END
$$$$
