ESL.pdb
     RDKit          3D

 24 23  0  0  1  0  0  0  0  0999 V2000
    9.5221  -20.5365   21.8247 N   0  0  0  0  0  0  0  0  0  0  0  0
    8.6372  -19.6067   22.4193 C   0  0  1  0  0  0  0  0  0  0  0  0
    8.5479  -19.7350   23.9068 C   0  0  0  0  0  0  0  0  0  0  0  0
    9.7696  -20.0979   24.6461 C   0  0  0  0  0  0  0  0  0  0  0  0
    9.6773  -20.1918   26.1076 C   0  0  0  0  0  0  0  0  0  0  0  0
    9.4141  -21.2210   26.7510 O   0  0  0  0  0  0  0  0  0  0  0  0
    9.0107  -18.1782   22.1272 C   0  0  0  0  0  0  0  0  0  0  0  0
   10.2200  -17.8598   22.2562 O   0  0  0  0  0  0  0  0  0  0  0  0
    9.9021  -19.0288   26.8734 O   0  0  0  0  0  0  0  0  0  0  0  0
    6.1580  -15.4068   20.9864 O   0  0  0  0  0  0  0  0  0  0  0  0
    7.4010  -15.3056   20.4077 C   0  0  0  0  0  0  0  0  0  0  0  0
    8.4580  -15.8385   21.3347 C   0  0  2  0  0  0  0  0  0  0  0  0
    8.0799  -17.1914   21.7220 N   0  0  0  0  0  0  0  0  0  0  0  0
    8.6380  -14.9836   22.5338 C   0  0  0  0  0  0  0  0  0  0  0  0
    9.1037  -13.7979   22.4080 O   0  0  0  0  0  0  0  0  0  0  0  0
    6.0256  -12.1357   26.7186 C   0  0  0  0  0  0  0  0  0  0  0  0
    7.4068  -12.7777   26.5064 C   0  0  2  0  0  0  0  0  0  0  0  0
    8.4300  -11.6882   26.3780 C   0  0  0  0  0  0  0  0  0  0  0  0
    7.3106  -13.7167   25.3452 C   0  0  0  0  0  0  0  0  0  0  0  0
    8.5450  -14.4796   24.9893 C   0  0  2  0  0  0  0  0  0  0  0  0
    8.3331  -15.3621   23.8626 N   0  0  0  0  0  0  0  0  0  0  0  0
    9.0089  -15.2998   26.1772 C   0  0  0  0  0  0  0  0  0  0  0  0
    9.7274  -14.8116   27.0849 O   0  0  0  0  0  0  0  0  0  0  0  0
    8.6477  -16.6336   26.2978 O   0  0  0  0  0  0  0  0  0  0  0  0
  2  1  1  1
  2  7  1  0
  3  2  1  0
  3  4  1  0
  5  4  1  0
  5  9  1  0
  6  5  2  0
  7  8  2  0
 10 11  1  0
 12 11  1  6
 12 14  1  0
 13  7  1  0
 13 12  1  0
 14 15  2  0
 17 16  1  6
 17 18  1  0
 19 17  1  0
 20 19  1  1
 20 22  1  0
 21 14  1  0
 21 20  1  0
 22 23  2  0
 22 24  1  0
M  END
$$$$
