ESL.pdb
     RDKit          3D

 24 23  0  0  1  0  0  0  0  0999 V2000
   12.2587  -16.4984   19.3432 N   0  0  0  0  0  0  0  0  0  0  0  0
   11.5268  -17.0472   20.4223 C   0  0  1  0  0  0  0  0  0  0  0  0
   12.3913  -17.5644   21.5280 C   0  0  0  0  0  0  0  0  0  0  0  0
   13.7594  -17.9970   21.1939 C   0  0  0  0  0  0  0  0  0  0  0  0
   14.6155  -18.4550   22.2943 C   0  0  0  0  0  0  0  0  0  0  0  0
   15.0786  -17.7384   23.1968 O   0  0  0  0  0  0  0  0  0  0  0  0
   10.5729  -16.0608   21.0407 C   0  0  0  0  0  0  0  0  0  0  0  0
   10.9462  -14.8624   21.1101 O   0  0  0  0  0  0  0  0  0  0  0  0
   14.9584  -19.8218   22.3577 O   0  0  0  0  0  0  0  0  0  0  0  0
    6.6875  -17.1051   21.6480 O   0  0  0  0  0  0  0  0  0  0  0  0
    6.9867  -15.7806   21.4329 C   0  0  0  0  0  0  0  0  0  0  0  0
    8.3255  -15.4404   22.0266 C   0  0  2  0  0  0  0  0  0  0  0  0
    9.2961  -16.4128   21.5412 N   0  0  0  0  0  0  0  0  0  0  0  0
    8.2965  -15.4281   23.5099 C   0  0  0  0  0  0  0  0  0  0  0  0
    9.1063  -16.1677   24.1701 O   0  0  0  0  0  0  0  0  0  0  0  0
    5.4526  -11.6486   26.6061 C   0  0  0  0  0  0  0  0  0  0  0  0
    6.6666  -12.5825   26.7449 C   0  0  2  0  0  0  0  0  0  0  0  0
    7.8168  -11.9941   25.9825 C   0  0  0  0  0  0  0  0  0  0  0  0
    6.2472  -13.9568   26.3270 C   0  0  0  0  0  0  0  0  0  0  0  0
    7.3018  -14.8341   25.7347 C   0  0  2  0  0  0  0  0  0  0  0  0
    7.4258  -14.6465   24.3056 N   0  0  0  0  0  0  0  0  0  0  0  0
    6.9836  -16.2899   26.0149 C   0  0  0  0  0  0  0  0  0  0  0  0
    6.3835  -17.0137   25.1818 O   0  0  0  0  0  0  0  0  0  0  0  0
    7.3517  -16.8734   27.2183 O   0  0  0  0  0  0  0  0  0  0  0  0
  2  1  1  6
  2  7  1  0
  3  2  1  0
  3  4  1  0
  5  4  1  0
  5  9  1  0
  6  5  2  0
  7  8  2  0
 10 11  1  0
 12 11  1  6
 12 14  1  0
 13  7  1  0
 13 12  1  0
 14 15  2  0
 17 16  1  6
 17 18  1  0
 19 17  1  0
 20 19  1  6
 20 22  1  0
 21 14  1  0
 21 20  1  0
 22 23  2  0
 22 24  1  0
M  END
$$$$
