ESL.pdb
     RDKit          3D

 24 23  0  0  1  0  0  0  0  0999 V2000
    8.6805  -19.2516   19.4942 N   0  0  0  0  0  0  0  0  0  0  0  0
    9.3903  -19.1160   20.7104 C   0  0  1  0  0  0  0  0  0  0  0  0
   10.8100  -18.6822   20.5277 C   0  0  0  0  0  0  0  0  0  0  0  0
   11.0676  -17.4704   19.7304 C   0  0  0  0  0  0  0  0  0  0  0  0
   12.4578  -17.0150   19.6152 C   0  0  0  0  0  0  0  0  0  0  0  0
   12.8273  -15.8317   19.5400 O   0  0  0  0  0  0  0  0  0  0  0  0
    8.7514  -18.1298   21.6508 C   0  0  0  0  0  0  0  0  0  0  0  0
    8.6403  -16.9421   21.2539 O   0  0  0  0  0  0  0  0  0  0  0  0
   13.4838  -17.9825   19.5847 O   0  0  0  0  0  0  0  0  0  0  0  0
    7.2061  -19.3497   25.3212 O   0  0  0  0  0  0  0  0  0  0  0  0
    6.4891  -18.4781   24.5360 C   0  0  0  0  0  0  0  0  0  0  0  0
    7.4162  -17.6053   23.7366 C   0  0  2  0  0  0  0  0  0  0  0  0
    8.2782  -18.4700   22.9412 N   0  0  0  0  0  0  0  0  0  0  0  0
    8.2273  -16.7094   24.5972 C   0  0  0  0  0  0  0  0  0  0  0  0
    9.4972  -16.8596   24.6568 O   0  0  0  0  0  0  0  0  0  0  0  0
    7.8139  -12.1000   25.0360 C   0  0  0  0  0  0  0  0  0  0  0  0
    6.9210  -12.9074   25.9930 C   0  0  2  0  0  0  0  0  0  0  0  0
    5.9912  -11.9632   26.6962 C   0  0  0  0  0  0  0  0  0  0  0  0
    7.8077  -13.7243   26.8795 C   0  0  0  0  0  0  0  0  0  0  0  0
    8.5647  -14.8396   26.2349 C   0  0  2  0  0  0  0  0  0  0  0  0
    7.7175  -15.6577   25.3947 N   0  0  0  0  0  0  0  0  0  0  0  0
    9.2007  -15.7165   27.2959 C   0  0  0  0  0  0  0  0  0  0  0  0
   10.1142  -15.2961   28.0488 O   0  0  0  0  0  0  0  0  0  0  0  0
    8.7856  -17.0288   27.4683 O   0  0  0  0  0  0  0  0  0  0  0  0
  2  1  1  6
  2  7  1  0
  3  2  1  0
  3  4  1  0
  5  4  1  0
  5  9  1  0
  6  5  2  0
  7  8  2  0
 10 11  1  0
 12 11  1  1
 12 14  1  0
 13  7  1  0
 13 12  1  0
 14 15  2  0
 17 16  1  6
 17 18  1  0
 19 17  1  0
 20 19  1  1
 20 22  1  0
 21 14  1  0
 21 20  1  0
 22 23  2  0
 22 24  1  0
M  END
$$$$
