MVY.pdb
     RDKit          3D

 28 28  0  0  1  0  0  0  0  0999 V2000
    6.0118  -10.6974   25.2399 C   0  0  0  0  0  0  0  0  0  0  0  0
    5.9805  -11.2526   26.9545 S   0  0  0  0  0  0  0  0  0  0  0  0
    5.7161  -13.0194   27.1059 C   0  0  0  0  0  0  0  0  0  0  0  0
    6.8034  -13.8229   26.4199 C   0  0  0  0  0  0  0  0  0  0  0  0
    6.2414  -14.9465   25.5981 C   0  0  2  0  0  0  0  0  0  0  0  0
    5.6745  -15.9051   26.5203 N   0  0  0  0  0  0  0  0  0  0  0  0
    7.3041  -15.5785   24.7520 C   0  0  0  0  0  0  0  0  0  0  0  0
    7.9774  -16.5487   25.1696 O   0  0  0  0  0  0  0  0  0  0  0  0
    6.7725  -15.3372   20.8271 C   0  0  0  0  0  0  0  0  0  0  0  0
    8.2122  -15.1760   21.1843 C   0  0  2  0  0  0  0  0  0  0  0  0
    9.1313  -15.7490   20.1234 C   0  0  0  0  0  0  0  0  0  0  0  0
    8.5448  -15.6041   22.5521 C   0  0  2  0  0  0  0  0  0  0  0  0
    7.5511  -15.0733   23.4641 N   0  0  0  0  0  0  0  0  0  0  0  0
    9.9130  -15.5561   23.0262 C   0  0  0  0  0  0  0  0  0  0  0  0
   10.4564  -14.4154   23.2377 O   0  0  0  0  0  0  0  0  0  0  0  0
    9.2399  -14.9400   29.3001 O   0  0  0  0  0  0  0  0  0  0  0  0
    9.9810  -15.4758   28.2677 C   0  0  0  0  0  0  0  0  0  0  0  0
    9.7753  -16.7935   27.9213 C   0  0  0  0  0  0  0  0  0  0  0  0
   10.4983  -17.3621   26.8941 C   0  0  0  0  0  0  0  0  0  0  0  0
   11.4566  -16.6609   26.1607 C   0  0  0  0  0  0  0  0  0  0  0  0
   12.2362  -17.2990   25.0833 C   0  0  0  0  0  0  0  0  0  0  0  0
   12.0935  -16.5434   23.8125 C   0  0  2  0  0  0  0  0  0  0  0  0
   10.7207  -16.6561   23.2842 N   0  0  0  0  0  0  0  0  0  0  0  0
   12.9907  -17.0797   22.7822 C   0  0  0  0  0  0  0  0  0  0  0  0
   12.5485  -17.6454   21.7628 O   0  0  0  0  0  0  0  0  0  0  0  0
   11.6362  -15.3303   26.5413 C   0  0  0  0  0  0  0  0  0  0  0  0
   10.9190  -14.7547   27.5651 C   0  0  0  0  0  0  0  0  0  0  0  0
   14.3634  -16.9736   22.9115 O   0  0  0  0  0  0  0  0  0  0  0  0
  1  2  1  0
  3  2  1  0
  4  3  1  0
  5  4  1  0
  5  6  1  1
  7  5  1  0
  8  7  2  0
 10  9  1  6
 10 12  1  0
 11 10  1  0
 12 14  1  0
 12 13  1  1
 13  7  1  0
 14 23  1  0
 15 14  2  0
 17 16  1  0
 17 18  2  0
 19 18  1  0
 20 19  2  0
 21 20  1  0
 22 24  1  0
 22 21  1  1
 23 22  1  0
 24 25  2  0
 24 28  1  0
 26 27  2  0
 26 20  1  0
 27 17  1  0
M  END
$$$$
