MVY.pdb
     RDKit          3D

 28 28  0  0  1  0  0  0  0  0999 V2000
    8.6208  -22.0643   25.9927 C   0  0  0  0  0  0  0  0  0  0  0  0
    7.1352  -22.7244   25.2141 S   0  0  0  0  0  0  0  0  0  0  0  0
    5.8391  -21.4975   25.0432 C   0  0  0  0  0  0  0  0  0  0  0  0
    6.3522  -20.1999   24.4506 C   0  0  0  0  0  0  0  0  0  0  0  0
    5.2884  -19.1416   24.4030 C   0  0  2  0  0  0  0  0  0  0  0  0
    4.2716  -19.6024   23.4841 N   0  0  0  0  0  0  0  0  0  0  0  0
    5.8558  -17.8273   23.9615 C   0  0  0  0  0  0  0  0  0  0  0  0
    5.9435  -17.5309   22.7476 O   0  0  0  0  0  0  0  0  0  0  0  0
    5.6013  -14.3256   25.8939 C   0  0  0  0  0  0  0  0  0  0  0  0
    7.0104  -14.7792   25.7067 C   0  0  2  0  0  0  0  0  0  0  0  0
    7.9755  -13.6150   25.5990 C   0  0  0  0  0  0  0  0  0  0  0  0
    7.1819  -15.7921   24.6534 C   0  0  2  0  0  0  0  0  0  0  0  0
    6.2987  -16.9080   24.9278 N   0  0  0  0  0  0  0  0  0  0  0  0
    8.5052  -16.1472   24.1822 C   0  0  0  0  0  0  0  0  0  0  0  0
    9.1764  -17.0289   24.8250 O   0  0  0  0  0  0  0  0  0  0  0  0
    7.9402  -11.8920   18.4859 O   0  0  0  0  0  0  0  0  0  0  0  0
    8.5171  -12.9901   19.0888 C   0  0  0  0  0  0  0  0  0  0  0  0
    7.6952  -13.9532   19.6326 C   0  0  0  0  0  0  0  0  0  0  0  0
    8.2374  -15.0643   20.2429 C   0  0  0  0  0  0  0  0  0  0  0  0
    9.6125  -15.2792   20.3464 C   0  0  0  0  0  0  0  0  0  0  0  0
   10.1687  -16.4634   21.0276 C   0  0  0  0  0  0  0  0  0  0  0  0
   10.3586  -16.1960   22.4763 C   0  0  2  0  0  0  0  0  0  0  0  0
    9.1396  -15.6128   23.0683 N   0  0  0  0  0  0  0  0  0  0  0  0
   11.4406  -15.2279   22.6914 C   0  0  0  0  0  0  0  0  0  0  0  0
   11.2228  -14.1077   23.1940 O   0  0  0  0  0  0  0  0  0  0  0  0
   10.4113  -14.2822   19.7845 C   0  0  0  0  0  0  0  0  0  0  0  0
    9.8787  -13.1701   19.1733 C   0  0  0  0  0  0  0  0  0  0  0  0
   12.7436  -15.5304   22.3409 O   0  0  0  0  0  0  0  0  0  0  0  0
  1  2  1  0
  3  2  1  0
  4  3  1  0
  5  4  1  0
  5  6  1  6
  7  5  1  0
  8  7  2  0
 10  9  1  6
 10 12  1  0
 11 10  1  0
 12 14  1  0
 12 13  1  1
 13  7  1  0
 14 23  1  0
 15 14  2  0
 17 16  1  0
 17 18  2  0
 19 18  1  0
 20 19  2  0
 21 20  1  0
 22 24  1  0
 22 21  1  6
 23 22  1  0
 24 25  2  0
 24 28  1  0
 26 27  2  0
 26 20  1  0
 27 17  1  0
M  END
$$$$
