MVY.pdb
     RDKit          3D

 28 28  0  0  1  0  0  0  0  0999 V2000
    9.5188  -18.4669   15.0114 C   0  0  0  0  0  0  0  0  0  0  0  0
    9.3573  -20.0124   15.9249 S   0  0  0  0  0  0  0  0  0  0  0  0
    9.2152  -19.7598   17.6942 C   0  0  0  0  0  0  0  0  0  0  0  0
    9.4682  -18.3183   18.0898 C   0  0  0  0  0  0  0  0  0  0  0  0
    9.2813  -18.0964   19.5628 C   0  0  2  0  0  0  0  0  0  0  0  0
    7.9302  -18.4982   19.8849 N   0  0  0  0  0  0  0  0  0  0  0  0
    9.5159  -16.6618   19.9251 C   0  0  0  0  0  0  0  0  0  0  0  0
   10.6528  -16.1442   19.8319 O   0  0  0  0  0  0  0  0  0  0  0  0
    7.3740  -13.7572   18.8497 C   0  0  0  0  0  0  0  0  0  0  0  0
    7.4793  -13.7073   20.3373 C   0  0  2  0  0  0  0  0  0  0  0  0
    7.4593  -12.2858   20.8638 C   0  0  0  0  0  0  0  0  0  0  0  0
    8.5654  -14.5306   20.8918 C   0  0  2  0  0  0  0  0  0  0  0  0
    8.4394  -15.8802   20.3786 N   0  0  0  0  0  0  0  0  0  0  0  0
    8.9254  -14.4283   22.2915 C   0  0  0  0  0  0  0  0  0  0  0  0
    8.2017  -13.7102   23.0671 O   0  0  0  0  0  0  0  0  0  0  0  0
   10.3501  -15.2136   30.7078 O   0  0  0  0  0  0  0  0  0  0  0  0
   10.0676  -15.2937   29.3602 C   0  0  0  0  0  0  0  0  0  0  0  0
    9.8245  -14.1286   28.6657 C   0  0  0  0  0  0  0  0  0  0  0  0
    9.5390  -14.1710   27.3175 C   0  0  0  0  0  0  0  0  0  0  0  0
    9.4795  -15.3610   26.5905 C   0  0  0  0  0  0  0  0  0  0  0  0
    9.1460  -15.3825   25.1539 C   0  0  0  0  0  0  0  0  0  0  0  0
   10.3041  -14.9356   24.3383 C   0  0  2  0  0  0  0  0  0  0  0  0
   10.0092  -15.0507   22.8974 N   0  0  0  0  0  0  0  0  0  0  0  0
   11.4810  -15.7729   24.5994 C   0  0  0  0  0  0  0  0  0  0  0  0
   12.4029  -15.3873   25.3453 O   0  0  0  0  0  0  0  0  0  0  0  0
    9.7310  -16.5185   27.3285 C   0  0  0  0  0  0  0  0  0  0  0  0
   10.0169  -16.4854   28.6743 C   0  0  0  0  0  0  0  0  0  0  0  0
   11.6045  -17.0234   24.0222 O   0  0  0  0  0  0  0  0  0  0  0  0
  1  2  1  0
  3  2  1  0
  4  3  1  0
  5  4  1  0
  5  6  1  6
  7  5  1  0
  8  7  2  0
 10  9  1  6
 10 12  1  0
 11 10  1  0
 12 14  1  0
 12 13  1  1
 13  7  1  0
 14 23  1  0
 15 14  2  0
 17 16  1  0
 17 18  2  0
 19 18  1  0
 20 19  2  0
 21 20  1  0
 22 24  1  0
 22 21  1  1
 23 22  1  0
 24 25  2  0
 24 28  1  0
 26 27  2  0
 26 20  1  0
 27 17  1  0
M  END
$$$$
