MVY.pdb
     RDKit          3D

 28 28  0  0  1  0  0  0  0  0999 V2000
    8.8675  -11.8500   19.5720 C   0  0  0  0  0  0  0  0  0  0  0  0
    7.9586  -12.6203   18.2194 S   0  0  0  0  0  0  0  0  0  0  0  0
    7.2183  -14.1855   18.6850 C   0  0  0  0  0  0  0  0  0  0  0  0
    7.2587  -14.4159   20.1828 C   0  0  0  0  0  0  0  0  0  0  0  0
    6.5642  -15.6872   20.5771 C   0  0  2  0  0  0  0  0  0  0  0  0
    5.1604  -15.5154   20.2762 N   0  0  0  0  0  0  0  0  0  0  0  0
    6.7696  -15.9842   22.0310 C   0  0  0  0  0  0  0  0  0  0  0  0
    6.2774  -15.2527   22.9208 O   0  0  0  0  0  0  0  0  0  0  0  0
    6.0674  -18.7753   24.2018 C   0  0  0  0  0  0  0  0  0  0  0  0
    7.5532  -18.6398   24.2192 C   0  0  2  0  0  0  0  0  0  0  0  0
    8.1501  -19.0682   25.5454 C   0  0  0  0  0  0  0  0  0  0  0  0
    8.0449  -17.3387   23.7395 C   0  0  2  0  0  0  0  0  0  0  0  0
    7.5294  -17.1058   22.4050 N   0  0  0  0  0  0  0  0  0  0  0  0
    9.4247  -16.9501   23.9500 C   0  0  0  0  0  0  0  0  0  0  0  0
   10.3153  -17.3514   23.1213 O   0  0  0  0  0  0  0  0  0  0  0  0
    9.6344  -16.2135   31.2271 O   0  0  0  0  0  0  0  0  0  0  0  0
   10.1009  -15.8522   29.9805 C   0  0  0  0  0  0  0  0  0  0  0  0
    9.5611  -14.7413   29.3694 C   0  0  0  0  0  0  0  0  0  0  0  0
   10.0036  -14.3509   28.1233 C   0  0  0  0  0  0  0  0  0  0  0  0
   10.9970  -15.0350   27.4210 C   0  0  0  0  0  0  0  0  0  0  0  0
   11.4349  -14.6128   26.0773 C   0  0  0  0  0  0  0  0  0  0  0  0
   11.3006  -15.7282   25.1058 C   0  0  2  0  0  0  0  0  0  0  0  0
    9.8946  -16.1605   24.9914 N   0  0  0  0  0  0  0  0  0  0  0  0
   12.0707  -16.8983   25.5439 C   0  0  0  0  0  0  0  0  0  0  0  0
   13.3170  -16.8817   25.5815 O   0  0  0  0  0  0  0  0  0  0  0  0
   11.5183  -16.1539   28.0722 C   0  0  0  0  0  0  0  0  0  0  0  0
   11.0827  -16.5506   29.3160 C   0  0  0  0  0  0  0  0  0  0  0  0
   11.4335  -18.0629   25.9311 O   0  0  0  0  0  0  0  0  0  0  0  0
  1  2  1  0
  3  2  1  0
  4  3  1  0
  5  4  1  0
  5  6  1  1
  7  5  1  0
  8  7  2  0
 10  9  1  1
 10 12  1  0
 11 10  1  0
 12 14  1  0
 12 13  1  6
 13  7  1  0
 14 23  1  0
 15 14  2  0
 17 16  1  0
 17 18  2  0
 19 18  1  0
 20 19  2  0
 21 20  1  0
 22 24  1  0
 22 21  1  1
 23 22  1  0
 24 25  2  0
 24 28  1  0
 26 27  2  0
 26 20  1  0
 27 17  1  0
M  END
$$$$
