MVY.pdb
     RDKit          3D

 28 28  0  0  1  0  0  0  0  0999 V2000
    6.2632  -19.7389   23.4135 C   0  0  0  0  0  0  0  0  0  0  0  0
    6.2723  -19.3993   21.6433 S   0  0  0  0  0  0  0  0  0  0  0  0
    6.3737  -17.6476   21.2745 C   0  0  0  0  0  0  0  0  0  0  0  0
    7.2703  -16.9077   22.2475 C   0  0  0  0  0  0  0  0  0  0  0  0
    7.2745  -15.4274   21.9970 C   0  0  2  0  0  0  0  0  0  0  0  0
    7.8648  -15.2188   20.6936 N   0  0  0  0  0  0  0  0  0  0  0  0
    8.0459  -14.7040   23.0581 C   0  0  0  0  0  0  0  0  0  0  0  0
    9.2900  -14.5772   22.9865 O   0  0  0  0  0  0  0  0  0  0  0  0
    7.8831  -11.8781   27.0622 C   0  0  0  0  0  0  0  0  0  0  0  0
    7.2067  -12.6021   25.9466 C   0  0  2  0  0  0  0  0  0  0  0  0
    5.7829  -12.9878   26.2965 C   0  0  0  0  0  0  0  0  0  0  0  0
    7.9976  -13.7044   25.3772 C   0  0  2  0  0  0  0  0  0  0  0  0
    7.3607  -14.1564   24.1563 N   0  0  0  0  0  0  0  0  0  0  0  0
    8.5212  -14.7519   26.2304 C   0  0  0  0  0  0  0  0  0  0  0  0
    7.7869  -15.7705   26.4836 O   0  0  0  0  0  0  0  0  0  0  0  0
   11.8852  -18.2404   21.9538 O   0  0  0  0  0  0  0  0  0  0  0  0
   11.8156  -17.7957   23.2575 C   0  0  0  0  0  0  0  0  0  0  0  0
   11.9837  -16.4509   23.5067 C   0  0  0  0  0  0  0  0  0  0  0  0
   11.9203  -15.9711   24.7977 C   0  0  0  0  0  0  0  0  0  0  0  0
   11.6888  -16.7916   25.9028 C   0  0  0  0  0  0  0  0  0  0  0  0
   11.6516  -16.2581   27.2774 C   0  0  0  0  0  0  0  0  0  0  0  0
   10.2669  -15.8772   27.6565 C   0  0  2  0  0  0  0  0  0  0  0  0
    9.7790  -14.7647   26.8193 N   0  0  0  0  0  0  0  0  0  0  0  0
   10.2146  -15.4161   29.0489 C   0  0  0  0  0  0  0  0  0  0  0  0
    9.8802  -14.2499   29.3373 O   0  0  0  0  0  0  0  0  0  0  0  0
   11.5241  -18.1462   25.6099 C   0  0  0  0  0  0  0  0  0  0  0  0
   11.5857  -18.6337   24.3244 C   0  0  0  0  0  0  0  0  0  0  0  0
   10.5369  -16.2664   30.0906 O   0  0  0  0  0  0  0  0  0  0  0  0
  1  2  1  0
  3  2  1  0
  4  3  1  0
  5  4  1  0
  5  6  1  6
  7  5  1  0
  8  7  2  0
 10  9  1  1
 10 12  1  0
 11 10  1  0
 12 14  1  0
 12 13  1  6
 13  7  1  0
 14 23  1  0
 15 14  2  0
 17 16  1  0
 17 18  2  0
 19 18  1  0
 20 19  2  0
 21 20  1  0
 22 24  1  0
 22 21  1  6
 23 22  1  0
 24 25  2  0
 24 28  1  0
 26 27  2  0
 26 20  1  0
 27 17  1  0
M  END
$$$$
