MVY.pdb
     RDKit          3D

 28 28  0  0  1  0  0  0  0  0999 V2000
    6.3912  -11.8105   19.5337 C   0  0  0  0  0  0  0  0  0  0  0  0
    7.8978  -12.3980   20.3300 S   0  0  0  0  0  0  0  0  0  0  0  0
    8.0851  -14.1783   20.2303 C   0  0  0  0  0  0  0  0  0  0  0  0
    9.3830  -14.6541   20.8527 C   0  0  0  0  0  0  0  0  0  0  0  0
    9.5737  -16.1351   20.6973 C   0  0  2  0  0  0  0  0  0  0  0  0
    8.5439  -16.6039   19.7971 N   0  0  0  0  0  0  0  0  0  0  0  0
    9.4873  -16.8308   22.0213 C   0  0  0  0  0  0  0  0  0  0  0  0
    8.4053  -17.3040   22.4388 O   0  0  0  0  0  0  0  0  0  0  0  0
   12.9908  -18.5303   23.7029 C   0  0  0  0  0  0  0  0  0  0  0  0
   11.5504  -18.8385   23.9408 C   0  0  2  0  0  0  0  0  0  0  0  0
   11.0158  -19.8624   22.9589 C   0  0  0  0  0  0  0  0  0  0  0  0
   10.6957  -17.6492   24.0828 C   0  0  2  0  0  0  0  0  0  0  0  0
   10.6430  -16.9554   22.8114 N   0  0  0  0  0  0  0  0  0  0  0  0
   10.8050  -16.7995   25.2512 C   0  0  0  0  0  0  0  0  0  0  0  0
   11.6586  -15.8444   25.2457 O   0  0  0  0  0  0  0  0  0  0  0  0
    6.4162  -11.8663   24.9202 O   0  0  0  0  0  0  0  0  0  0  0  0
    7.0087  -12.8088   25.7343 C   0  0  0  0  0  0  0  0  0  0  0  0
    8.3510  -12.6849   26.0202 C   0  0  0  0  0  0  0  0  0  0  0  0
    8.9761  -13.6087   26.8306 C   0  0  0  0  0  0  0  0  0  0  0  0
    8.3101  -14.6967   27.3968 C   0  0  0  0  0  0  0  0  0  0  0  0
    9.0070  -15.6867   28.2394 C   0  0  0  0  0  0  0  0  0  0  0  0
   10.2910  -16.0973   27.6156 C   0  0  2  0  0  0  0  0  0  0  0  0
   10.0533  -16.9182   26.4130 N   0  0  0  0  0  0  0  0  0  0  0  0
   11.0824  -16.9173   28.5404 C   0  0  0  0  0  0  0  0  0  0  0  0
   11.5438  -16.4456   29.5984 O   0  0  0  0  0  0  0  0  0  0  0  0
    6.9530  -14.7880   27.0839 C   0  0  0  0  0  0  0  0  0  0  0  0
    6.3210  -13.8704   26.2761 C   0  0  0  0  0  0  0  0  0  0  0  0
   11.3425  -18.2472   28.2649 O   0  0  0  0  0  0  0  0  0  0  0  0
  1  2  1  0
  3  2  1  0
  4  3  1  0
  5  4  1  0
  5  6  1  6
  7  5  1  0
  8  7  2  0
 10  9  1  6
 10 12  1  0
 11 10  1  0
 12 14  1  0
 12 13  1  6
 13  7  1  0
 14 23  1  0
 15 14  2  0
 17 16  1  0
 17 18  2  0
 19 18  1  0
 20 19  2  0
 21 20  1  0
 22 24  1  0
 22 21  1  1
 23 22  1  0
 24 25  2  0
 24 28  1  0
 26 27  2  0
 26 20  1  0
 27 17  1  0
M  END
$$$$
