MVY.pdb
     RDKit          3D

 28 28  0  0  1  0  0  0  0  0999 V2000
    7.4039  -11.1813   26.8015 C   0  0  0  0  0  0  0  0  0  0  0  0
    6.4334  -12.2665   27.8642 S   0  0  0  0  0  0  0  0  0  0  0  0
    5.8386  -13.7246   27.0072 C   0  0  0  0  0  0  0  0  0  0  0  0
    6.9193  -14.3775   26.1682 C   0  0  0  0  0  0  0  0  0  0  0  0
    6.3798  -15.4950   25.3232 C   0  0  2  0  0  0  0  0  0  0  0  0
    6.0002  -16.5621   26.2220 N   0  0  0  0  0  0  0  0  0  0  0  0
    7.4025  -15.9640   24.3340 C   0  0  0  0  0  0  0  0  0  0  0  0
    7.9879  -17.0626   24.4740 O   0  0  0  0  0  0  0  0  0  0  0  0
    6.8995  -14.9691   20.6107 C   0  0  0  0  0  0  0  0  0  0  0  0
    8.3451  -14.8422   20.9581 C   0  0  2  0  0  0  0  0  0  0  0  0
    9.2462  -15.2222   19.7996 C   0  0  0  0  0  0  0  0  0  0  0  0
    8.7162  -15.4777   22.2322 C   0  0  2  0  0  0  0  0  0  0  0  0
    7.7119  -15.1560   23.2265 N   0  0  0  0  0  0  0  0  0  0  0  0
   10.0872  -15.4446   22.6994 C   0  0  0  0  0  0  0  0  0  0  0  0
   10.8223  -14.4407   22.3943 O   0  0  0  0  0  0  0  0  0  0  0  0
    9.6903  -16.1682   29.8782 O   0  0  0  0  0  0  0  0  0  0  0  0
   10.2876  -15.8717   28.6710 C   0  0  0  0  0  0  0  0  0  0  0  0
   10.7087  -16.9105   27.8694 C   0  0  0  0  0  0  0  0  0  0  0  0
   11.3097  -16.6511   26.6560 C   0  0  0  0  0  0  0  0  0  0  0  0
   11.5242  -15.3585   26.1751 C   0  0  0  0  0  0  0  0  0  0  0  0
   12.1935  -15.1063   24.8851 C   0  0  0  0  0  0  0  0  0  0  0  0
   12.0781  -16.2880   23.9928 C   0  0  2  0  0  0  0  0  0  0  0  0
   10.7049  -16.4211   23.4700 N   0  0  0  0  0  0  0  0  0  0  0  0
   12.3764  -17.5255   24.7234 C   0  0  0  0  0  0  0  0  0  0  0  0
   13.5076  -17.7444   25.2003 O   0  0  0  0  0  0  0  0  0  0  0  0
   11.0847  -14.3342   27.0149 C   0  0  0  0  0  0  0  0  0  0  0  0
   10.4837  -14.5839   28.2276 C   0  0  0  0  0  0  0  0  0  0  0  0
   11.4057  -18.4931   24.9066 O   0  0  0  0  0  0  0  0  0  0  0  0
  1  2  1  0
  3  2  1  0
  4  3  1  0
  5  4  1  0
  5  6  1  1
  7  5  1  0
  8  7  2  0
 10  9  1  6
 10 12  1  0
 11 10  1  0
 12 14  1  0
 12 13  1  1
 13  7  1  0
 14 23  1  0
 15 14  2  0
 17 16  1  0
 17 18  2  0
 19 18  1  0
 20 19  2  0
 21 20  1  0
 22 24  1  0
 22 21  1  1
 23 22  1  0
 24 25  2  0
 24 28  1  0
 26 27  2  0
 26 20  1  0
 27 17  1  0
M  END
$$$$
