MVY.pdb
     RDKit          3D

 28 28  0  0  1  0  0  0  0  0999 V2000
    8.2714  -21.3894   19.9979 C   0  0  0  0  0  0  0  0  0  0  0  0
    9.4679  -21.3402   18.6507 S   0  0  0  0  0  0  0  0  0  0  0  0
    9.9237  -19.6686   18.1896 C   0  0  0  0  0  0  0  0  0  0  0  0
    8.7379  -18.7243   18.2110 C   0  0  0  0  0  0  0  0  0  0  0  0
    9.1316  -17.3164   17.8692 C   0  0  2  0  0  0  0  0  0  0  0  0
   10.2771  -17.3969   16.9905 N   0  0  0  0  0  0  0  0  0  0  0  0
    9.4560  -16.5332   19.1044 C   0  0  0  0  0  0  0  0  0  0  0  0
   10.6182  -16.5049   19.5709 O   0  0  0  0  0  0  0  0  0  0  0  0
    7.3562  -13.2067   20.2506 C   0  0  0  0  0  0  0  0  0  0  0  0
    7.4472  -14.2851   21.2777 C   0  0  2  0  0  0  0  0  0  0  0  0
    7.3630  -13.7380   22.6891 C   0  0  0  0  0  0  0  0  0  0  0  0
    8.5623  -15.2222   21.0697 C   0  0  2  0  0  0  0  0  0  0  0  0
    8.4366  -15.8157   19.7534 N   0  0  0  0  0  0  0  0  0  0  0  0
    8.9687  -16.1285   22.1245 C   0  0  0  0  0  0  0  0  0  0  0  0
    8.4720  -17.3090   22.1534 O   0  0  0  0  0  0  0  0  0  0  0  0
    9.0253  -13.6329   29.4374 O   0  0  0  0  0  0  0  0  0  0  0  0
    9.6117  -14.3034   28.3845 C   0  0  0  0  0  0  0  0  0  0  0  0
    9.6993  -13.6695   27.1641 C   0  0  0  0  0  0  0  0  0  0  0  0
   10.2794  -14.3096   26.0896 C   0  0  0  0  0  0  0  0  0  0  0  0
   10.7999  -15.6025   26.1659 C   0  0  0  0  0  0  0  0  0  0  0  0
   11.3921  -16.2762   24.9949 C   0  0  0  0  0  0  0  0  0  0  0  0
   10.3319  -16.8396   24.1204 C   0  0  2  0  0  0  0  0  0  0  0  0
    9.8717  -15.8387   23.1392 N   0  0  0  0  0  0  0  0  0  0  0  0
    9.1582  -17.2325   24.9092 C   0  0  0  0  0  0  0  0  0  0  0  0
    8.0688  -16.6360   24.7983 O   0  0  0  0  0  0  0  0  0  0  0  0
   10.6923  -16.2109   27.4173 C   0  0  0  0  0  0  0  0  0  0  0  0
   10.1150  -15.5793   28.4951 C   0  0  0  0  0  0  0  0  0  0  0  0
    9.2249  -18.2833   25.8056 O   0  0  0  0  0  0  0  0  0  0  0  0
  1  2  1  0
  3  2  1  0
  4  3  1  0
  5  4  1  0
  5  6  1  6
  7  5  1  0
  8  7  2  0
 10  9  1  6
 10 12  1  0
 11 10  1  0
 12 14  1  0
 12 13  1  6
 13  7  1  0
 14 23  1  0
 15 14  2  0
 17 16  1  0
 17 18  2  0
 19 18  1  0
 20 19  2  0
 21 20  1  0
 22 24  1  0
 22 21  1  1
 23 22  1  0
 24 25  2  0
 24 28  1  0
 26 27  2  0
 26 20  1  0
 27 17  1  0
M  END
$$$$
