MVY.pdb
     RDKit          3D

 28 28  0  0  1  0  0  0  0  0999 V2000
    8.2394  -11.6654   19.0973 C   0  0  0  0  0  0  0  0  0  0  0  0
    7.4524  -13.1624   18.4740 S   0  0  0  0  0  0  0  0  0  0  0  0
    7.2972  -14.4363   19.7261 C   0  0  0  0  0  0  0  0  0  0  0  0
    8.2359  -14.2091   20.8947 C   0  0  0  0  0  0  0  0  0  0  0  0
    8.0870  -15.2649   21.9516 C   0  0  2  0  0  0  0  0  0  0  0  0
    6.7069  -15.6958   21.9303 N   0  0  0  0  0  0  0  0  0  0  0  0
    8.4629  -14.7330   23.3007 C   0  0  0  0  0  0  0  0  0  0  0  0
    9.6425  -14.4053   23.5657 O   0  0  0  0  0  0  0  0  0  0  0  0
    6.5280  -12.1197   24.9371 C   0  0  0  0  0  0  0  0  0  0  0  0
    6.7653  -13.1253   26.0136 C   0  0  2  0  0  0  0  0  0  0  0  0
    7.0461  -12.4727   27.3529 C   0  0  0  0  0  0  0  0  0  0  0  0
    7.7279  -14.1779   25.6526 C   0  0  2  0  0  0  0  0  0  0  0  0
    7.4730  -14.5987   24.2892 N   0  0  0  0  0  0  0  0  0  0  0  0
    8.0381  -15.2429   26.5847 C   0  0  0  0  0  0  0  0  0  0  0  0
    7.1697  -16.1628   26.7865 O   0  0  0  0  0  0  0  0  0  0  0  0
   13.0698  -22.1388   26.6268 O   0  0  0  0  0  0  0  0  0  0  0  0
   12.3664  -20.9570   26.5239 C   0  0  0  0  0  0  0  0  0  0  0  0
   12.7939  -20.0103   25.6184 C   0  0  0  0  0  0  0  0  0  0  0  0
   12.1148  -18.8174   25.4888 C   0  0  0  0  0  0  0  0  0  0  0  0
   10.9843  -18.5008   26.2435 C   0  0  0  0  0  0  0  0  0  0  0  0
   10.2904  -17.2066   26.1052 C   0  0  0  0  0  0  0  0  0  0  0  0
    9.9462  -16.6492   27.4383 C   0  0  2  0  0  0  0  0  0  0  0  0
    9.2193  -15.3726   27.3036 N   0  0  0  0  0  0  0  0  0  0  0  0
   11.1589  -16.3678   28.2158 C   0  0  0  0  0  0  0  0  0  0  0  0
   11.4959  -17.0833   29.1799 O   0  0  0  0  0  0  0  0  0  0  0  0
   10.5828  -19.4840   27.1490 C   0  0  0  0  0  0  0  0  0  0  0  0
   11.2546  -20.6774   27.2849 C   0  0  0  0  0  0  0  0  0  0  0  0
   11.9703  -15.2933   27.9009 O   0  0  0  0  0  0  0  0  0  0  0  0
  1  2  1  0
  3  2  1  0
  4  3  1  0
  5  4  1  0
  5  6  1  1
  7  5  1  0
  8  7  2  0
 10  9  1  6
 10 12  1  0
 11 10  1  0
 12 14  1  0
 12 13  1  6
 13  7  1  0
 14 23  1  0
 15 14  2  0
 17 16  1  0
 17 18  2  0
 19 18  1  0
 20 19  2  0
 21 20  1  0
 22 24  1  0
 22 21  1  6
 23 22  1  0
 24 25  2  0
 24 28  1  0
 26 27  2  0
 26 20  1  0
 27 17  1  0
M  END
$$$$
