MVY.pdb
     RDKit          3D

 28 28  0  0  1  0  0  0  0  0999 V2000
    7.3065  -19.3271   26.7146 C   0  0  0  0  0  0  0  0  0  0  0  0
    5.7638  -20.0450   26.1198 S   0  0  0  0  0  0  0  0  0  0  0  0
    5.5163  -19.7960   24.3616 C   0  0  0  0  0  0  0  0  0  0  0  0
    6.4577  -18.7531   23.7920 C   0  0  0  0  0  0  0  0  0  0  0  0
    6.2184  -18.5159   22.3290 C   0  0  2  0  0  0  0  0  0  0  0  0
    6.3765  -19.7884   21.6609 N   0  0  0  0  0  0  0  0  0  0  0  0
    7.1760  -17.5005   21.7846 C   0  0  0  0  0  0  0  0  0  0  0  0
    8.2778  -17.8412   21.2957 O   0  0  0  0  0  0  0  0  0  0  0  0
    6.5939  -14.3667   19.6995 C   0  0  0  0  0  0  0  0  0  0  0  0
    7.2096  -13.9448   20.9915 C   0  0  2  0  0  0  0  0  0  0  0  0
    8.1434  -12.7629   20.8200 C   0  0  0  0  0  0  0  0  0  0  0  0
    7.7877  -15.0500   21.7721 C   0  0  2  0  0  0  0  0  0  0  0  0
    6.8320  -16.1384   21.8227 N   0  0  0  0  0  0  0  0  0  0  0  0
    8.4962  -14.7862   23.0081 C   0  0  0  0  0  0  0  0  0  0  0  0
    8.0519  -13.8793   23.7962 O   0  0  0  0  0  0  0  0  0  0  0  0
    5.4287  -11.6436   26.9468 O   0  0  0  0  0  0  0  0  0  0  0  0
    6.4136  -12.5724   26.6832 C   0  0  0  0  0  0  0  0  0  0  0  0
    6.0392  -13.8567   26.3526 C   0  0  0  0  0  0  0  0  0  0  0  0
    6.9969  -14.8111   26.0826 C   0  0  0  0  0  0  0  0  0  0  0  0
    8.3666  -14.5464   26.1255 C   0  0  0  0  0  0  0  0  0  0  0  0
    9.3727  -15.5914   25.8584 C   0  0  0  0  0  0  0  0  0  0  0  0
   10.2730  -15.1836   24.7496 C   0  0  2  0  0  0  0  0  0  0  0  0
    9.6439  -15.4384   23.4397 N   0  0  0  0  0  0  0  0  0  0  0  0
   11.5209  -15.9555   24.7792 C   0  0  0  0  0  0  0  0  0  0  0  0
   11.8149  -16.7547   23.8683 O   0  0  0  0  0  0  0  0  0  0  0  0
    8.7057  -13.2356   26.4642 C   0  0  0  0  0  0  0  0  0  0  0  0
    7.7565  -12.2767   26.7350 C   0  0  0  0  0  0  0  0  0  0  0  0
   12.4150  -15.8193   25.8252 O   0  0  0  0  0  0  0  0  0  0  0  0
  1  2  1  0
  3  2  1  0
  4  3  1  0
  5  4  1  0
  5  6  1  6
  7  5  1  0
  8  7  2  0
 10  9  1  6
 10 12  1  0
 11 10  1  0
 12 14  1  0
 12 13  1  1
 13  7  1  0
 14 23  1  0
 15 14  2  0
 17 16  1  0
 17 18  2  0
 19 18  1  0
 20 19  2  0
 21 20  1  0
 22 24  1  0
 22 21  1  1
 23 22  1  0
 24 25  2  0
 24 28  1  0
 26 27  2  0
 26 20  1  0
 27 17  1  0
M  END
$$$$
