MVY.pdb
     RDKit          3D

 28 28  0  0  1  0  0  0  0  0999 V2000
    6.9936  -11.6148   19.8161 C   0  0  0  0  0  0  0  0  0  0  0  0
    8.1053  -12.9665   20.2475 S   0  0  0  0  0  0  0  0  0  0  0  0
    7.2753  -14.5547   20.3044 C   0  0  0  0  0  0  0  0  0  0  0  0
    8.2039  -15.6717   20.7383 C   0  0  0  0  0  0  0  0  0  0  0  0
    7.8716  -16.1806   22.1111 C   0  0  2  0  0  0  0  0  0  0  0  0
    6.4297  -16.2215   22.2115 N   0  0  0  0  0  0  0  0  0  0  0  0
    8.4590  -15.2977   23.1693 C   0  0  0  0  0  0  0  0  0  0  0  0
    9.6740  -14.9933   23.1627 O   0  0  0  0  0  0  0  0  0  0  0  0
    6.7793  -12.2297   24.9362 C   0  0  0  0  0  0  0  0  0  0  0  0
    7.1498  -13.2684   25.9413 C   0  0  2  0  0  0  0  0  0  0  0  0
    7.5288  -12.6605   27.2775 C   0  0  0  0  0  0  0  0  0  0  0  0
    8.1120  -14.2666   25.4488 C   0  0  2  0  0  0  0  0  0  0  0  0
    7.6309  -14.8004   24.1902 N   0  0  0  0  0  0  0  0  0  0  0  0
    8.6946  -15.2365   26.3539 C   0  0  0  0  0  0  0  0  0  0  0  0
    8.0121  -16.2712   26.6771 O   0  0  0  0  0  0  0  0  0  0  0  0
   12.2102  -18.8285   22.3077 O   0  0  0  0  0  0  0  0  0  0  0  0
   12.1549  -18.2277   23.5479 C   0  0  0  0  0  0  0  0  0  0  0  0
   11.8616  -19.0060   24.6466 C   0  0  0  0  0  0  0  0  0  0  0  0
   11.7981  -18.4389   25.9017 C   0  0  0  0  0  0  0  0  0  0  0  0
   12.0200  -17.0807   26.1340 C   0  0  0  0  0  0  0  0  0  0  0  0
   11.9204  -16.4927   27.4830 C   0  0  0  0  0  0  0  0  0  0  0  0
   10.5061  -16.1908   27.8220 C   0  0  2  0  0  0  0  0  0  0  0  0
    9.9586  -15.1564   26.9238 N   0  0  0  0  0  0  0  0  0  0  0  0
   10.3968  -15.6678   29.1890 C   0  0  0  0  0  0  0  0  0  0  0  0
   10.0413  -14.4935   29.4113 O   0  0  0  0  0  0  0  0  0  0  0  0
   12.3137  -16.3262   24.9972 C   0  0  0  0  0  0  0  0  0  0  0  0
   12.3792  -16.8839   23.7408 C   0  0  0  0  0  0  0  0  0  0  0  0
   10.6867  -16.4668   30.2798 O   0  0  0  0  0  0  0  0  0  0  0  0
  1  2  1  0
  3  2  1  0
  4  3  1  0
  5  4  1  0
  5  6  1  1
  7  5  1  0
  8  7  2  0
 10  9  1  6
 10 12  1  0
 11 10  1  0
 12 14  1  0
 12 13  1  6
 13  7  1  0
 14 23  1  0
 15 14  2  0
 17 16  1  0
 17 18  2  0
 19 18  1  0
 20 19  2  0
 21 20  1  0
 22 24  1  0
 22 21  1  6
 23 22  1  0
 24 25  2  0
 24 28  1  0
 26 27  2  0
 26 20  1  0
 27 17  1  0
M  END
$$$$
