MVY.pdb
     RDKit          3D

 28 28  0  0  1  0  0  0  0  0999 V2000
    9.5166  -21.8083   20.2888 C   0  0  0  0  0  0  0  0  0  0  0  0
    8.3987  -21.7852   18.8751 S   0  0  0  0  0  0  0  0  0  0  0  0
    8.3427  -20.1883   18.0620 C   0  0  0  0  0  0  0  0  0  0  0  0
    8.7390  -19.0576   18.9909 C   0  0  0  0  0  0  0  0  0  0  0  0
    8.5861  -17.7131   18.3406 C   0  0  2  0  0  0  0  0  0  0  0  0
    9.3288  -17.7541   17.1006 N   0  0  0  0  0  0  0  0  0  0  0  0
    9.0921  -16.6223   19.2341 C   0  0  0  0  0  0  0  0  0  0  0  0
   10.3023  -16.2991   19.2459 O   0  0  0  0  0  0  0  0  0  0  0  0
    7.1725  -13.3121   20.1721 C   0  0  0  0  0  0  0  0  0  0  0  0
    7.5376  -14.0834   21.3961 C   0  0  2  0  0  0  0  0  0  0  0  0
    7.7966  -13.1789   22.5849 C   0  0  0  0  0  0  0  0  0  0  0  0
    8.5843  -15.0948   21.1805 C   0  0  2  0  0  0  0  0  0  0  0  0
    8.1917  -15.9475   20.0762 N   0  0  0  0  0  0  0  0  0  0  0  0
    9.1937  -15.7747   22.3055 C   0  0  0  0  0  0  0  0  0  0  0  0
    8.5651  -16.7440   22.8589 O   0  0  0  0  0  0  0  0  0  0  0  0
   10.2048  -15.2271   30.6376 O   0  0  0  0  0  0  0  0  0  0  0  0
   10.0228  -15.0878   29.2776 C   0  0  0  0  0  0  0  0  0  0  0  0
    9.9954  -16.2217   28.4951 C   0  0  0  0  0  0  0  0  0  0  0  0
    9.8153  -16.1200   27.1320 C   0  0  0  0  0  0  0  0  0  0  0  0
    9.6539  -14.8988   26.4758 C   0  0  0  0  0  0  0  0  0  0  0  0
    9.4890  -14.8143   25.0125 C   0  0  0  0  0  0  0  0  0  0  0  0
   10.6642  -15.3978   24.3163 C   0  0  2  0  0  0  0  0  0  0  0  0
   10.4302  -15.4736   22.8616 N   0  0  0  0  0  0  0  0  0  0  0  0
   10.9177  -16.7678   24.7779 C   0  0  0  0  0  0  0  0  0  0  0  0
   11.1868  -17.0147   25.9702 O   0  0  0  0  0  0  0  0  0  0  0  0
    9.6877  -13.7743   27.3018 C   0  0  0  0  0  0  0  0  0  0  0  0
    9.8669  -13.8665   28.6632 C   0  0  0  0  0  0  0  0  0  0  0  0
   10.8656  -17.8339   23.8989 O   0  0  0  0  0  0  0  0  0  0  0  0
  1  2  1  0
  3  2  1  0
  4  3  1  0
  5  4  1  0
  5  6  1  6
  7  5  1  0
  8  7  2  0
 10  9  1  6
 10 12  1  0
 11 10  1  0
 12 14  1  0
 12 13  1  6
 13  7  1  0
 14 23  1  0
 15 14  2  0
 17 16  1  0
 17 18  2  0
 19 18  1  0
 20 19  2  0
 21 20  1  0
 22 24  1  0
 22 21  1  1
 23 22  1  0
 24 25  2  0
 24 28  1  0
 26 27  2  0
 26 20  1  0
 27 17  1  0
M  END
$$$$
