MVY.pdb
     RDKit          3D

 28 28  0  0  1  0  0  0  0  0999 V2000
    7.4810  -11.1771   24.1316 C   0  0  0  0  0  0  0  0  0  0  0  0
    6.9889  -12.8391   24.6263 S   0  0  0  0  0  0  0  0  0  0  0  0
    6.1476  -13.7308   23.3181 C   0  0  0  0  0  0  0  0  0  0  0  0
    6.7740  -13.4826   21.9601 C   0  0  0  0  0  0  0  0  0  0  0  0
    6.8567  -14.7368   21.1390 C   0  0  2  0  0  0  0  0  0  0  0  0
    5.5410  -15.3364   21.1457 N   0  0  0  0  0  0  0  0  0  0  0  0
    7.8793  -15.6789   21.6968 C   0  0  0  0  0  0  0  0  0  0  0  0
    7.5939  -16.4791   22.6173 O   0  0  0  0  0  0  0  0  0  0  0  0
   10.4061  -17.3814   19.3085 C   0  0  0  0  0  0  0  0  0  0  0  0
   11.1310  -16.8476   20.4984 C   0  0  2  0  0  0  0  0  0  0  0  0
   12.3283  -17.7011   20.8679 C   0  0  0  0  0  0  0  0  0  0  0  0
   10.2594  -16.5221   21.6384 C   0  0  2  0  0  0  0  0  0  0  0  0
    9.1851  -15.6654   21.1774 N   0  0  0  0  0  0  0  0  0  0  0  0
   10.8289  -16.1694   22.9231 C   0  0  0  0  0  0  0  0  0  0  0  0
   11.1820  -14.9560   23.1327 O   0  0  0  0  0  0  0  0  0  0  0  0
   11.0421  -15.3282   31.5831 O   0  0  0  0  0  0  0  0  0  0  0  0
   10.7828  -15.5470   30.2464 C   0  0  0  0  0  0  0  0  0  0  0  0
   10.6782  -16.8457   29.7975 C   0  0  0  0  0  0  0  0  0  0  0  0
   10.4196  -17.1017   28.4677 C   0  0  0  0  0  0  0  0  0  0  0  0
   10.2519  -16.0924   27.5183 C   0  0  0  0  0  0  0  0  0  0  0  0
   10.0020  -16.3922   26.0958 C   0  0  0  0  0  0  0  0  0  0  0  0
   11.2813  -16.5854   25.3664 C   0  0  2  0  0  0  0  0  0  0  0  0
   11.0361  -17.0405   23.9847 N   0  0  0  0  0  0  0  0  0  0  0  0
   12.1015  -17.6158   26.0141 C   0  0  0  0  0  0  0  0  0  0  0  0
   13.0252  -17.3173   26.7968 O   0  0  0  0  0  0  0  0  0  0  0  0
   10.3652  -14.7916   28.0110 C   0  0  0  0  0  0  0  0  0  0  0  0
   10.6230  -14.5270   29.3367 C   0  0  0  0  0  0  0  0  0  0  0  0
   11.8737  -18.9585   25.7745 O   0  0  0  0  0  0  0  0  0  0  0  0
  1  2  1  0
  3  2  1  0
  4  3  1  0
  5  4  1  0
  5  6  1  1
  7  5  1  0
  8  7  2  0
 10  9  1  6
 10 12  1  0
 11 10  1  0
 12 14  1  0
 12 13  1  6
 13  7  1  0
 14 23  1  0
 15 14  2  0
 17 16  1  0
 17 18  2  0
 19 18  1  0
 20 19  2  0
 21 20  1  0
 22 24  1  0
 22 21  1  1
 23 22  1  0
 24 25  2  0
 24 28  1  0
 26 27  2  0
 26 20  1  0
 27 17  1  0
M  END
$$$$
