MVY.pdb
     RDKit          3D

 28 28  0  0  1  0  0  0  0  0999 V2000
    7.4567  -18.7443   27.7503 C   0  0  0  0  0  0  0  0  0  0  0  0
    6.3603  -20.0932   27.2737 S   0  0  0  0  0  0  0  0  0  0  0  0
    5.8364  -19.9885   25.5623 C   0  0  0  0  0  0  0  0  0  0  0  0
    6.6508  -18.9819   24.7738 C   0  0  0  0  0  0  0  0  0  0  0  0
    6.2030  -18.8899   23.3438 C   0  0  2  0  0  0  0  0  0  0  0  0
    6.2651  -20.2251   22.7925 N   0  0  0  0  0  0  0  0  0  0  0  0
    7.0707  -17.9471   22.5675 C   0  0  0  0  0  0  0  0  0  0  0  0
    8.1464  -18.3280   22.0508 O   0  0  0  0  0  0  0  0  0  0  0  0
    6.1883  -15.0271   20.2048 C   0  0  0  0  0  0  0  0  0  0  0  0
    6.9109  -14.4789   21.3896 C   0  0  2  0  0  0  0  0  0  0  0  0
    7.8003  -13.3069   21.0240 C   0  0  0  0  0  0  0  0  0  0  0  0
    7.5809  -15.4992   22.2113 C   0  0  2  0  0  0  0  0  0  0  0  0
    6.6707  -16.6085   22.4155 N   0  0  0  0  0  0  0  0  0  0  0  0
    8.3629  -15.1149   23.3688 C   0  0  0  0  0  0  0  0  0  0  0  0
    7.8754  -14.2624   24.1913 O   0  0  0  0  0  0  0  0  0  0  0  0
    5.3676  -11.7974   26.9876 O   0  0  0  0  0  0  0  0  0  0  0  0
    6.4240  -12.6581   26.7749 C   0  0  0  0  0  0  0  0  0  0  0  0
    6.1570  -13.9950   26.5742 C   0  0  0  0  0  0  0  0  0  0  0  0
    7.1885  -14.8839   26.3585 C   0  0  0  0  0  0  0  0  0  0  0  0
    8.5298  -14.4991   26.3303 C   0  0  0  0  0  0  0  0  0  0  0  0
    9.6176  -15.4736   26.1238 C   0  0  0  0  0  0  0  0  0  0  0  0
   10.3748  -15.1619   24.8846 C   0  0  2  0  0  0  0  0  0  0  0  0
    9.6271  -15.5931   23.6881 N   0  0  0  0  0  0  0  0  0  0  0  0
   11.6581  -15.8740   24.8634 C   0  0  0  0  0  0  0  0  0  0  0  0
   12.5294  -15.6733   25.7325 O   0  0  0  0  0  0  0  0  0  0  0  0
    8.7595  -13.1383   26.5378 C   0  0  0  0  0  0  0  0  0  0  0  0
    7.7360  -12.2439   26.7537 C   0  0  0  0  0  0  0  0  0  0  0  0
   11.9420  -16.7953   23.8721 O   0  0  0  0  0  0  0  0  0  0  0  0
  1  2  1  0
  3  2  1  0
  4  3  1  0
  5  4  1  0
  5  6  1  6
  7  5  1  0
  8  7  2  0
 10  9  1  6
 10 12  1  0
 11 10  1  0
 12 14  1  0
 12 13  1  1
 13  7  1  0
 14 23  1  0
 15 14  2  0
 17 16  1  0
 17 18  2  0
 19 18  1  0
 20 19  2  0
 21 20  1  0
 22 24  1  0
 22 21  1  1
 23 22  1  0
 24 25  2  0
 24 28  1  0
 26 27  2  0
 26 20  1  0
 27 17  1  0
M  END
$$$$
