MVY.pdb
     RDKit          3D

 28 28  0  0  1  0  0  0  0  0999 V2000
    5.8374  -11.6114   25.9244 C   0  0  0  0  0  0  0  0  0  0  0  0
    6.2619  -12.7522   27.2538 S   0  0  0  0  0  0  0  0  0  0  0  0
    6.6882  -14.3872   26.6541 C   0  0  0  0  0  0  0  0  0  0  0  0
    5.6463  -14.9378   25.7003 C   0  0  0  0  0  0  0  0  0  0  0  0
    5.9702  -16.3348   25.2560 C   0  0  2  0  0  0  0  0  0  0  0  0
    6.1180  -17.1368   26.4500 N   0  0  0  0  0  0  0  0  0  0  0  0
    7.2216  -16.3613   24.4327 C   0  0  0  0  0  0  0  0  0  0  0  0
    8.1799  -17.1116   24.7288 O   0  0  0  0  0  0  0  0  0  0  0  0
    6.8059  -14.8711   20.6783 C   0  0  0  0  0  0  0  0  0  0  0  0
    8.1515  -14.6202   21.2722 C   0  0  2  0  0  0  0  0  0  0  0  0
    9.2413  -14.5769   20.2191 C   0  0  0  0  0  0  0  0  0  0  0  0
    8.4716  -15.4796   22.4228 C   0  0  2  0  0  0  0  0  0  0  0  0
    7.3230  -15.5281   23.3055 N   0  0  0  0  0  0  0  0  0  0  0  0
    9.7583  -15.3792   23.0811 C   0  0  0  0  0  0  0  0  0  0  0  0
    9.9634  -14.4138   23.8978 O   0  0  0  0  0  0  0  0  0  0  0  0
    9.8304  -13.8710   29.3522 O   0  0  0  0  0  0  0  0  0  0  0  0
   10.2168  -14.6541   28.2847 C   0  0  0  0  0  0  0  0  0  0  0  0
   10.9401  -15.8003   28.5337 C   0  0  0  0  0  0  0  0  0  0  0  0
   11.3429  -16.6070   27.4907 C   0  0  0  0  0  0  0  0  0  0  0  0
   11.0530  -16.3237   26.1552 C   0  0  0  0  0  0  0  0  0  0  0  0
   11.5179  -17.1888   25.0547 C   0  0  0  0  0  0  0  0  0  0  0  0
   11.9297  -16.3739   23.8831 C   0  0  2  0  0  0  0  0  0  0  0  0
   10.8256  -16.2518   22.9123 N   0  0  0  0  0  0  0  0  0  0  0  0
   13.0500  -17.0051   23.1755 C   0  0  0  0  0  0  0  0  0  0  0  0
   12.8920  -17.5645   22.0723 O   0  0  0  0  0  0  0  0  0  0  0  0
   10.3197  -15.1552   25.9438 C   0  0  0  0  0  0  0  0  0  0  0  0
    9.9134  -14.3442   26.9788 C   0  0  0  0  0  0  0  0  0  0  0  0
   14.3235  -16.9989   23.7142 O   0  0  0  0  0  0  0  0  0  0  0  0
  1  2  1  0
  3  2  1  0
  4  3  1  0
  5  4  1  0
  5  6  1  1
  7  5  1  0
  8  7  2  0
 10  9  1  6
 10 12  1  0
 11 10  1  0
 12 14  1  0
 12 13  1  1
 13  7  1  0
 14 23  1  0
 15 14  2  0
 17 16  1  0
 17 18  2  0
 19 18  1  0
 20 19  2  0
 21 20  1  0
 22 24  1  0
 22 21  1  1
 23 22  1  0
 24 25  2  0
 24 28  1  0
 26 27  2  0
 26 20  1  0
 27 17  1  0
M  END
$$$$
