KDC.pdb
     RDKit          3D

 24 23  0  0  1  0  0  0  0  0999 V2000
    7.9588  -16.2427   19.2800 N   0  0  0  0  0  0  0  0  0  0  0  0
    7.0563  -16.5252   20.3475 C   0  0  1  0  0  0  0  0  0  0  0  0
    6.3495  -17.8357   20.2785 C   0  0  0  0  0  0  0  0  0  0  0  0
    6.1418  -18.3119   18.8860 C   0  0  0  0  0  0  0  0  0  0  0  0
    5.3795  -19.5765   18.7192 C   0  0  0  0  0  0  0  0  0  0  0  0
    5.0921  -19.9248   17.2817 C   0  0  0  0  0  0  0  0  0  0  0  0
    4.4184  -21.2103   17.2639 N   0  0  0  0  0  0  0  0  0  0  0  0
    7.7254  -16.3599   21.6806 C   0  0  0  0  0  0  0  0  0  0  0  0
    7.0568  -16.6111   22.7194 O   0  0  0  0  0  0  0  0  0  0  0  0
    9.0638  -15.9377   21.8201 N   0  0  0  0  0  0  0  0  0  0  0  0
    9.7235  -15.8764   23.1555 C   0  0  1  0  0  0  0  0  0  0  0  0
   11.1901  -15.6715   22.9726 C   0  0  0  0  0  0  0  0  0  0  0  0
   11.8211  -16.7892   22.2447 C   0  0  0  0  0  0  0  0  0  0  0  0
   11.7917  -17.9718   22.7413 O   0  0  0  0  0  0  0  0  0  0  0  0
    9.0330  -14.7922   23.8873 C   0  0  0  0  0  0  0  0  0  0  0  0
    9.0109  -13.5987   23.4206 O   0  0  0  0  0  0  0  0  0  0  0  0
   12.4533  -16.6278   21.0330 O   0  0  0  0  0  0  0  0  0  0  0  0
    8.3527  -14.9373   25.1183 N   0  0  0  0  0  0  0  0  0  0  0  0
    8.1463  -13.8383   26.0278 C   0  0  1  0  0  0  0  0  0  0  0  0
    6.7412  -13.3095   26.0123 C   0  0  0  0  0  0  0  0  0  0  0  0
    6.7064  -11.5073   25.9893 S   0  0  0  0  0  0  0  0  0  0  0  0
    8.4503  -14.2713   27.4083 C   0  0  0  0  0  0  0  0  0  0  0  0
    8.4407  -13.3586   28.4420 O   0  0  0  0  0  0  0  0  0  0  0  0
    8.7233  -15.4844   27.6600 O   0  0  0  0  0  0  0  0  0  0  0  0
  2  1  1  6
  3  2  1  0
  4  3  1  0
  5  6  1  0
  5  4  1  0
  6  7  1  0
  8  2  1  0
  8  9  2  0
 10  8  1  0
 11 10  1  0
 11 12  1  6
 13 12  1  0
 13 17  1  0
 14 13  2  0
 15 11  1  0
 16 15  2  0
 18 15  1  0
 19 18  1  0
 19 20  1  1
 20 21  1  0
 22 23  1  0
 22 19  1  0
 24 22  2  0
M  END
$$$$
