KDC.pdb
     RDKit          3D

 24 23  0  0  1  0  0  0  0  0999 V2000
    5.8953  -16.3853   21.2783 N   0  0  0  0  0  0  0  0  0  0  0  0
    7.1111  -15.7270   21.6281 C   0  0  1  0  0  0  0  0  0  0  0  0
    7.0587  -14.2382   21.6800 C   0  0  0  0  0  0  0  0  0  0  0  0
    6.9721  -13.6120   20.3350 C   0  0  0  0  0  0  0  0  0  0  0  0
    8.2565  -13.3579   19.6325 C   0  0  0  0  0  0  0  0  0  0  0  0
    8.0945  -12.6503   18.3121 C   0  0  0  0  0  0  0  0  0  0  0  0
    9.4161  -12.4784   17.7370 N   0  0  0  0  0  0  0  0  0  0  0  0
    7.6767  -16.2766   22.9049 C   0  0  0  0  0  0  0  0  0  0  0  0
    6.8747  -16.6046   23.8207 O   0  0  0  0  0  0  0  0  0  0  0  0
    9.0602  -16.4410   23.1229 N   0  0  0  0  0  0  0  0  0  0  0  0
    9.5847  -16.9835   24.4086 C   0  0  1  0  0  0  0  0  0  0  0  0
   10.8009  -17.8046   24.1384 C   0  0  0  0  0  0  0  0  0  0  0  0
   11.3588  -18.3940   25.3707 C   0  0  0  0  0  0  0  0  0  0  0  0
   12.4627  -17.9479   25.8486 O   0  0  0  0  0  0  0  0  0  0  0  0
    9.8128  -15.8035   25.2709 C   0  0  0  0  0  0  0  0  0  0  0  0
   10.8070  -15.0222   25.0610 O   0  0  0  0  0  0  0  0  0  0  0  0
   10.7439  -19.4199   26.0514 O   0  0  0  0  0  0  0  0  0  0  0  0
    9.0052  -15.4194   26.3659 N   0  0  0  0  0  0  0  0  0  0  0  0
    9.3477  -14.3254   27.2398 C   0  0  1  0  0  0  0  0  0  0  0  0
    8.1510  -13.6530   27.8478 C   0  0  0  0  0  0  0  0  0  0  0  0
    6.9230  -13.2205   26.6008 S   0  0  0  0  0  0  0  0  0  0  0  0
   10.1980  -14.8184   28.3442 C   0  0  0  0  0  0  0  0  0  0  0  0
   10.7265  -13.9362   29.2628 O   0  0  0  0  0  0  0  0  0  0  0  0
   10.4520  -16.0559   28.4616 O   0  0  0  0  0  0  0  0  0  0  0  0
  2  1  1  1
  3  2  1  0
  4  3  1  0
  5  6  1  0
  5  4  1  0
  6  7  1  0
  8  2  1  0
  8  9  2  0
 10  8  1  0
 11 10  1  0
 11 12  1  6
 13 12  1  0
 13 17  1  0
 14 13  2  0
 15 11  1  0
 16 15  2  0
 18 15  1  0
 19 18  1  0
 19 20  1  1
 20 21  1  0
 22 23  1  0
 22 19  1  0
 24 22  2  0
M  END
$$$$
