KDC.pdb
     RDKit          3D

 24 23  0  0  1  0  0  0  0  0999 V2000
    8.6033  -18.4229   17.7653 N   0  0  0  0  0  0  0  0  0  0  0  0
    9.5001  -17.4918   18.3674 C   0  0  1  0  0  0  0  0  0  0  0  0
    9.0608  -16.0675   18.3711 C   0  0  0  0  0  0  0  0  0  0  0  0
    8.6948  -15.5682   17.0200 C   0  0  0  0  0  0  0  0  0  0  0  0
    8.2515  -14.1529   16.9282 C   0  0  0  0  0  0  0  0  0  0  0  0
    7.9198  -13.7122   15.5260 C   0  0  0  0  0  0  0  0  0  0  0  0
    7.5229  -12.3172   15.5827 N   0  0  0  0  0  0  0  0  0  0  0  0
    9.8827  -17.9261   19.7521 C   0  0  0  0  0  0  0  0  0  0  0  0
    8.9876  -18.4151   20.4931 O   0  0  0  0  0  0  0  0  0  0  0  0
   11.1944  -17.8111   20.2571 N   0  0  0  0  0  0  0  0  0  0  0  0
   11.5408  -18.2743   21.6311 C   0  0  1  0  0  0  0  0  0  0  0  0
   12.9561  -18.7462   21.6507 C   0  0  0  0  0  0  0  0  0  0  0  0
   13.1493  -19.9586   20.8322 C   0  0  0  0  0  0  0  0  0  0  0  0
   12.5368  -21.0424   21.1423 O   0  0  0  0  0  0  0  0  0  0  0  0
   11.2586  -17.1246   22.5180 C   0  0  0  0  0  0  0  0  0  0  0  0
   12.0255  -16.0976   22.5217 O   0  0  0  0  0  0  0  0  0  0  0  0
   13.9696  -19.9898   19.7276 O   0  0  0  0  0  0  0  0  0  0  0  0
   10.1697  -17.0282   23.4146 N   0  0  0  0  0  0  0  0  0  0  0  0
   10.1680  -16.1319   24.5435 C   0  0  1  0  0  0  0  0  0  0  0  0
    8.7895  -15.8012   25.0380 C   0  0  0  0  0  0  0  0  0  0  0  0
    7.8887  -14.7707   23.8648 S   0  0  0  0  0  0  0  0  0  0  0  0
   10.9152  -16.7417   25.6639 C   0  0  0  0  0  0  0  0  0  0  0  0
   11.2153  -15.9989   26.7863 O   0  0  0  0  0  0  0  0  0  0  0  0
   11.2892  -17.9527   25.6084 O   0  0  0  0  0  0  0  0  0  0  0  0
  2  1  1  1
  3  2  1  0
  4  3  1  0
  5  6  1  0
  5  4  1  0
  6  7  1  0
  8  2  1  0
  8  9  2  0
 10  8  1  0
 11 10  1  0
 11 12  1  6
 13 12  1  0
 13 17  1  0
 14 13  2  0
 15 11  1  0
 16 15  2  0
 18 15  1  0
 19 18  1  0
 19 20  1  1
 20 21  1  0
 22 23  1  0
 22 19  1  0
 24 22  2  0
M  END
$$$$
