KDC.pdb
     RDKit          3D

 24 23  0  0  1  0  0  0  0  0999 V2000
    7.6347  -17.7953   20.9867 N   0  0  0  0  0  0  0  0  0  0  0  0
    8.7664  -16.9706   21.2569 C   0  0  1  0  0  0  0  0  0  0  0  0
    8.5876  -15.5115   21.0106 C   0  0  0  0  0  0  0  0  0  0  0  0
    8.2761  -15.1948   19.5924 C   0  0  0  0  0  0  0  0  0  0  0  0
    8.2132  -13.7557   19.2275 C   0  0  0  0  0  0  0  0  0  0  0  0
    7.9306  -13.5134   17.7674 C   0  0  0  0  0  0  0  0  0  0  0  0
    7.8102  -12.0802   17.5718 N   0  0  0  0  0  0  0  0  0  0  0  0
    9.2911  -17.2081   22.6427 C   0  0  0  0  0  0  0  0  0  0  0  0
    8.4664  -17.4920   23.5529 O   0  0  0  0  0  0  0  0  0  0  0  0
   10.6609  -17.1277   22.9685 N   0  0  0  0  0  0  0  0  0  0  0  0
   11.1455  -17.3828   24.3550 C   0  0  1  0  0  0  0  0  0  0  0  0
   12.5776  -17.7990   24.3086 C   0  0  0  0  0  0  0  0  0  0  0  0
   12.7886  -18.9683   23.4336 C   0  0  0  0  0  0  0  0  0  0  0  0
   13.5388  -18.8636   22.3981 O   0  0  0  0  0  0  0  0  0  0  0  0
   10.8880  -16.1309   25.0996 C   0  0  0  0  0  0  0  0  0  0  0  0
   11.4015  -15.0221   24.7127 O   0  0  0  0  0  0  0  0  0  0  0  0
   12.2112  -20.1940   23.6747 O   0  0  0  0  0  0  0  0  0  0  0  0
   10.0884  -16.0165   26.2600 N   0  0  0  0  0  0  0  0  0  0  0  0
    9.9259  -14.7748   26.9739 C   0  0  1  0  0  0  0  0  0  0  0  0
    8.5002  -14.3084   27.0387 C   0  0  0  0  0  0  0  0  0  0  0  0
    8.3398  -12.7810   27.9826 S   0  0  0  0  0  0  0  0  0  0  0  0
   10.4131  -14.9310   28.3609 C   0  0  0  0  0  0  0  0  0  0  0  0
   10.5754  -13.8262   29.1701 O   0  0  0  0  0  0  0  0  0  0  0  0
   10.6875  -16.0797   28.8242 O   0  0  0  0  0  0  0  0  0  0  0  0
  2  1  1  1
  3  2  1  0
  4  3  1  0
  5  6  1  0
  5  4  1  0
  6  7  1  0
  8  2  1  0
  8  9  2  0
 10  8  1  0
 11 10  1  0
 11 12  1  6
 13 12  1  0
 13 17  1  0
 14 13  2  0
 15 11  1  0
 16 15  2  0
 18 15  1  0
 19 18  1  0
 19 20  1  1
 20 21  1  0
 22 23  1  0
 22 19  1  0
 24 22  2  0
M  END
$$$$
