KDC.pdb
     RDKit          3D

 24 23  0  0  1  0  0  0  0  0999 V2000
    6.8539  -16.7351   20.0832 N   0  0  0  0  0  0  0  0  0  0  0  0
    7.7103  -15.7078   20.5782 C   0  0  1  0  0  0  0  0  0  0  0  0
    7.2275  -14.3091   20.3983 C   0  0  0  0  0  0  0  0  0  0  0  0
    7.8741  -13.6131   19.2554 C   0  0  0  0  0  0  0  0  0  0  0  0
    7.4924  -14.0685   17.8935 C   0  0  0  0  0  0  0  0  0  0  0  0
    8.2784  -13.4065   16.7914 C   0  0  0  0  0  0  0  0  0  0  0  0
    7.7793  -13.9129   15.5260 N   0  0  0  0  0  0  0  0  0  0  0  0
    8.0799  -15.9547   22.0116 C   0  0  0  0  0  0  0  0  0  0  0  0
    7.1567  -16.2139   22.8301 O   0  0  0  0  0  0  0  0  0  0  0  0
    9.4094  -15.9093   22.4797 N   0  0  0  0  0  0  0  0  0  0  0  0
    9.7522  -16.2822   23.8818 C   0  0  1  0  0  0  0  0  0  0  0  0
   11.1898  -16.6757   23.9505 C   0  0  0  0  0  0  0  0  0  0  0  0
   11.4546  -17.9406   23.2382 C   0  0  0  0  0  0  0  0  0  0  0  0
   10.8807  -19.0218   23.6225 O   0  0  0  0  0  0  0  0  0  0  0  0
    9.3920  -15.1054   24.7024 C   0  0  0  0  0  0  0  0  0  0  0  0
    9.8756  -13.9488   24.4352 O   0  0  0  0  0  0  0  0  0  0  0  0
   12.3032  -18.0247   22.1581 O   0  0  0  0  0  0  0  0  0  0  0  0
    8.5194  -15.1171   25.8148 N   0  0  0  0  0  0  0  0  0  0  0  0
    8.2954  -13.9571   26.6406 C   0  0  1  0  0  0  0  0  0  0  0  0
    6.8535  -13.5437   26.7064 C   0  0  0  0  0  0  0  0  0  0  0  0
    6.6774  -11.8029   27.1406 S   0  0  0  0  0  0  0  0  0  0  0  0
    8.7491  -14.2335   28.0202 C   0  0  0  0  0  0  0  0  0  0  0  0
    8.8922  -13.2030   28.9253 O   0  0  0  0  0  0  0  0  0  0  0  0
    9.0121  -15.4185   28.3891 O   0  0  0  0  0  0  0  0  0  0  0  0
  2  1  1  1
  3  2  1  0
  4  3  1  0
  5  6  1  0
  5  4  1  0
  6  7  1  0
  8  2  1  0
  8  9  2  0
 10  8  1  0
 11 10  1  0
 11 12  1  6
 13 12  1  0
 13 17  1  0
 14 13  2  0
 15 11  1  0
 16 15  2  0
 18 15  1  0
 19 18  1  0
 19 20  1  1
 20 21  1  0
 22 23  1  0
 22 19  1  0
 24 22  2  0
M  END
$$$$
