KDC.pdb
     RDKit          3D

 24 23  0  0  1  0  0  0  0  0999 V2000
   -2.5600  -28.3426   29.3256 N   0  0  0  0  0  0  0  0  0  0  0  0
   -2.2858  -26.9624   29.5576 C   0  0  1  0  0  0  0  0  0  0  0  0
   -0.9356  -26.4843   29.1454 C   0  0  0  0  0  0  0  0  0  0  0  0
    0.1677  -27.1429   29.8922 C   0  0  0  0  0  0  0  0  0  0  0  0
    0.1273  -27.0379   31.3739 C   0  0  0  0  0  0  0  0  0  0  0  0
    1.3235  -27.6487   32.0568 C   0  0  0  0  0  0  0  0  0  0  0  0
    1.2040  -27.3845   33.4790 N   0  0  0  0  0  0  0  0  0  0  0  0
   -3.3542  -26.0909   28.9650 C   0  0  0  0  0  0  0  0  0  0  0  0
   -3.1872  -24.8415   28.9895 O   0  0  0  0  0  0  0  0  0  0  0  0
   -4.5311  -26.6074   28.3845 N   0  0  0  0  0  0  0  0  0  0  0  0
   -5.5934  -25.7076   27.8511 C   0  0  1  0  0  0  0  0  0  0  0  0
   -6.5277  -26.4986   26.9980 C   0  0  0  0  0  0  0  0  0  0  0  0
   -7.6290  -25.6729   26.4664 C   0  0  0  0  0  0  0  0  0  0  0  0
   -8.7608  -26.2145   26.1983 O   0  0  0  0  0  0  0  0  0  0  0  0
   -6.2162  -25.0847   29.0394 C   0  0  0  0  0  0  0  0  0  0  0  0
   -6.6178  -25.8048   30.0207 O   0  0  0  0  0  0  0  0  0  0  0  0
   -7.5049  -24.3215   26.2381 O   0  0  0  0  0  0  0  0  0  0  0  0
   -6.4283  -23.6989   29.2228 N   0  0  0  0  0  0  0  0  0  0  0  0
   -7.0013  -23.1519   30.4271 C   0  0  1  0  0  0  0  0  0  0  0  0
   -6.0826  -22.2073   31.1467 C   0  0  0  0  0  0  0  0  0  0  0  0
   -5.4751  -20.9065   30.0564 S   0  0  0  0  0  0  0  0  0  0  0  0
   -8.2396  -22.4143   30.0983 C   0  0  0  0  0  0  0  0  0  0  0  0
   -8.6090  -22.2259   28.7831 O   0  0  0  0  0  0  0  0  0  0  0  0
   -8.9771  -21.9465   31.0185 O   0  0  0  0  0  0  0  0  0  0  0  0
  2  1  1  6
  3  2  1  0
  4  3  1  0
  5  6  1  0
  5  4  1  0
  6  7  1  0
  8  2  1  0
  8  9  2  0
 10  8  1  0
 11 10  1  0
 11 12  1  1
 13 12  1  0
 13 17  1  0
 14 13  2  0
 15 11  1  0
 16 15  2  0
 18 15  1  0
 19 18  1  0
 19 20  1  6
 20 21  1  0
 22 23  1  0
 22 19  1  0
 24 22  2  0
M  END
$$$$
