KDC.pdb
     RDKit          3D

 24 23  0  0  1  0  0  0  0  0999 V2000
    9.6231  -14.6023   19.8475 N   0  0  0  0  0  0  0  0  0  0  0  0
    8.5161  -14.0743   20.5753 C   0  0  1  0  0  0  0  0  0  0  0  0
    7.2383  -13.9416   19.8196 C   0  0  0  0  0  0  0  0  0  0  0  0
    7.4104  -13.2872   18.4963 C   0  0  0  0  0  0  0  0  0  0  0  0
    7.7909  -14.1667   17.3607 C   0  0  0  0  0  0  0  0  0  0  0  0
    7.9927  -13.4270   16.0635 C   0  0  0  0  0  0  0  0  0  0  0  0
    8.3719  -14.3988   15.0542 N   0  0  0  0  0  0  0  0  0  0  0  0
    8.2946  -14.8338   21.8506 C   0  0  0  0  0  0  0  0  0  0  0  0
    7.2233  -14.6358   22.4850 O   0  0  0  0  0  0  0  0  0  0  0  0
    9.2291  -15.7552   22.3670 N   0  0  0  0  0  0  0  0  0  0  0  0
    9.0473  -16.3752   23.7104 C   0  0  1  0  0  0  0  0  0  0  0  0
    9.9267  -17.5753   23.8233 C   0  0  0  0  0  0  0  0  0  0  0  0
    9.3705  -18.7411   23.1099 C   0  0  0  0  0  0  0  0  0  0  0  0
   10.1567  -19.5507   22.4996 O   0  0  0  0  0  0  0  0  0  0  0  0
    9.3383  -15.3001   24.6838 C   0  0  0  0  0  0  0  0  0  0  0  0
   10.5059  -14.7755   24.7494 O   0  0  0  0  0  0  0  0  0  0  0  0
    8.0223  -19.0136   23.0636 O   0  0  0  0  0  0  0  0  0  0  0  0
    8.4138  -14.7543   25.6038 N   0  0  0  0  0  0  0  0  0  0  0  0
    8.7689  -13.7207   26.5436 C   0  0  1  0  0  0  0  0  0  0  0  0
    7.7001  -12.6803   26.7152 C   0  0  0  0  0  0  0  0  0  0  0  0
    6.0693  -13.4242   26.9077 S   0  0  0  0  0  0  0  0  0  0  0  0
    9.0306  -14.3217   27.8687 C   0  0  0  0  0  0  0  0  0  0  0  0
    9.5692  -13.5600   28.8843 O   0  0  0  0  0  0  0  0  0  0  0  0
    8.7641  -15.5423   28.0890 O   0  0  0  0  0  0  0  0  0  0  0  0
  2  1  1  6
  3  2  1  0
  4  3  1  0
  5  6  1  0
  5  4  1  0
  6  7  1  0
  8  2  1  0
  8  9  2  0
 10  8  1  0
 11 10  1  0
 11 12  1  1
 13 12  1  0
 13 17  1  0
 14 13  2  0
 15 11  1  0
 16 15  2  0
 18 15  1  0
 19 18  1  0
 19 20  1  1
 20 21  1  0
 22 23  1  0
 22 19  1  0
 24 22  2  0
M  END
$$$$
