KDC.pdb
     RDKit          3D

 24 23  0  0  1  0  0  0  0  0999 V2000
    6.2215  -16.3616   21.4419 N   0  0  0  0  0  0  0  0  0  0  0  0
    7.4826  -15.6975   21.4911 C   0  0  1  0  0  0  0  0  0  0  0  0
    7.4376  -14.2083   21.5376 C   0  0  0  0  0  0  0  0  0  0  0  0
    7.0491  -13.5973   20.2398 C   0  0  0  0  0  0  0  0  0  0  0  0
    8.0588  -13.6438   19.1507 C   0  0  0  0  0  0  0  0  0  0  0  0
    7.6139  -12.9611   17.8832 C   0  0  0  0  0  0  0  0  0  0  0  0
    8.6477  -13.1641   16.8848 N   0  0  0  0  0  0  0  0  0  0  0  0
    8.3328  -16.2315   22.6066 C   0  0  0  0  0  0  0  0  0  0  0  0
    7.7782  -16.4901   23.7088 O   0  0  0  0  0  0  0  0  0  0  0  0
    9.7189  -16.4553   22.4749 N   0  0  0  0  0  0  0  0  0  0  0  0
   10.5386  -16.9450   23.6198 C   0  0  1  0  0  0  0  0  0  0  0  0
   11.8482  -17.4467   23.1103 C   0  0  0  0  0  0  0  0  0  0  0  0
   12.7659  -17.8163   24.2051 C   0  0  0  0  0  0  0  0  0  0  0  0
   12.4145  -18.7066   25.0595 O   0  0  0  0  0  0  0  0  0  0  0  0
   10.6339  -15.8023   24.5541 C   0  0  0  0  0  0  0  0  0  0  0  0
   11.2784  -14.7432   24.2287 O   0  0  0  0  0  0  0  0  0  0  0  0
   14.0080  -17.2448   24.3620 O   0  0  0  0  0  0  0  0  0  0  0  0
   10.0562  -15.7465   25.8433 N   0  0  0  0  0  0  0  0  0  0  0  0
   10.3567  -14.6985   26.7863 C   0  0  1  0  0  0  0  0  0  0  0  0
    9.3500  -13.5847   26.7783 C   0  0  0  0  0  0  0  0  0  0  0  0
    7.6610  -14.2111   26.8491 S   0  0  0  0  0  0  0  0  0  0  0  0
   10.4004  -15.2576   28.1542 C   0  0  0  0  0  0  0  0  0  0  0  0
   10.7920  -14.4697   29.2160 O   0  0  0  0  0  0  0  0  0  0  0  0
   10.0791  -16.4660   28.3692 O   0  0  0  0  0  0  0  0  0  0  0  0
  2  1  1  1
  3  2  1  0
  4  3  1  0
  5  6  1  0
  5  4  1  0
  6  7  1  0
  8  2  1  0
  8  9  2  0
 10  8  1  0
 11 10  1  0
 11 12  1  6
 13 12  1  0
 13 17  1  0
 14 13  2  0
 15 11  1  0
 16 15  2  0
 18 15  1  0
 19 18  1  0
 19 20  1  1
 20 21  1  0
 22 23  1  0
 22 19  1  0
 24 22  2  0
M  END
$$$$
