KDC.pdb
     RDKit          3D

 24 23  0  0  1  0  0  0  0  0999 V2000
    5.6188  -17.2265   20.4762 N   0  0  0  0  0  0  0  0  0  0  0  0
    5.1917  -17.1468   21.8345 C   0  0  1  0  0  0  0  0  0  0  0  0
    4.3517  -18.2764   22.3246 C   0  0  0  0  0  0  0  0  0  0  0  0
    3.6833  -19.0230   21.2271 C   0  0  0  0  0  0  0  0  0  0  0  0
    2.3855  -19.6693   21.5526 C   0  0  0  0  0  0  0  0  0  0  0  0
    1.7143  -20.3108   20.3658 C   0  0  0  0  0  0  0  0  0  0  0  0
    0.4682  -20.8967   20.8252 N   0  0  0  0  0  0  0  0  0  0  0  0
    6.3547  -16.9201   22.7555 C   0  0  0  0  0  0  0  0  0  0  0  0
    6.1381  -16.9025   23.9974 O   0  0  0  0  0  0  0  0  0  0  0  0
    7.6729  -16.7269   22.2933 N   0  0  0  0  0  0  0  0  0  0  0  0
    8.8086  -16.5405   23.2410 C   0  0  1  0  0  0  0  0  0  0  0  0
   10.0949  -16.5975   22.4871 C   0  0  0  0  0  0  0  0  0  0  0  0
   11.2606  -16.3480   23.3568 C   0  0  0  0  0  0  0  0  0  0  0  0
   11.1273  -16.3953   24.6320 O   0  0  0  0  0  0  0  0  0  0  0  0
    8.5464  -15.2543   23.9228 C   0  0  0  0  0  0  0  0  0  0  0  0
    8.2721  -14.1999   23.2476 O   0  0  0  0  0  0  0  0  0  0  0  0
   12.5124  -16.0616   22.8622 O   0  0  0  0  0  0  0  0  0  0  0  0
    8.5651  -15.0487   25.3215 N   0  0  0  0  0  0  0  0  0  0  0  0
    8.2529  -13.7777   25.9256 C   0  0  1  0  0  0  0  0  0  0  0  0
    6.8422  -13.3300   25.6733 C   0  0  0  0  0  0  0  0  0  0  0  0
    6.4276  -11.8591   26.6296 S   0  0  0  0  0  0  0  0  0  0  0  0
    8.4447  -13.8621   27.3891 C   0  0  0  0  0  0  0  0  0  0  0  0
    8.3349  -12.7320   28.1717 O   0  0  0  0  0  0  0  0  0  0  0  0
    8.7118  -14.9717   27.9431 O   0  0  0  0  0  0  0  0  0  0  0  0
  2  1  1  6
  3  2  1  0
  4  3  1  0
  5  6  1  0
  5  4  1  0
  6  7  1  0
  8  2  1  0
  8  9  2  0
 10  8  1  0
 11 10  1  0
 11 12  1  6
 13 12  1  0
 13 17  1  0
 14 13  2  0
 15 11  1  0
 16 15  2  0
 18 15  1  0
 19 18  1  0
 19 20  1  1
 20 21  1  0
 22 23  1  0
 22 19  1  0
 24 22  2  0
M  END
$$$$
