KDC.pdb
     RDKit          3D

 24 23  0  0  1  0  0  0  0  0999 V2000
    8.7694  -20.1651   19.7116 N   0  0  0  0  0  0  0  0  0  0  0  0
    8.4264  -18.9094   20.2940 C   0  0  1  0  0  0  0  0  0  0  0  0
    7.0933  -18.8367   20.9566 C   0  0  0  0  0  0  0  0  0  0  0  0
    6.3090  -20.0922   20.8249 C   0  0  0  0  0  0  0  0  0  0  0  0
    5.0094  -20.1466   21.5432 C   0  0  0  0  0  0  0  0  0  0  0  0
    4.2246  -21.4057   21.2801 C   0  0  0  0  0  0  0  0  0  0  0  0
    3.0120  -21.3458   22.0756 N   0  0  0  0  0  0  0  0  0  0  0  0
    9.5019  -18.4327   21.2259 C   0  0  0  0  0  0  0  0  0  0  0  0
   10.0121  -19.2645   22.0241 O   0  0  0  0  0  0  0  0  0  0  0  0
    9.9638  -17.1004   21.2466 N   0  0  0  0  0  0  0  0  0  0  0  0
   11.0382  -16.6655   22.1842 C   0  0  1  0  0  0  0  0  0  0  0  0
   11.6126  -15.3723   21.7110 C   0  0  0  0  0  0  0  0  0  0  0  0
   12.4565  -15.5441   20.5129 C   0  0  0  0  0  0  0  0  0  0  0  0
   13.3421  -16.4719   20.4836 O   0  0  0  0  0  0  0  0  0  0  0  0
   10.3995  -16.6090   23.5172 C   0  0  0  0  0  0  0  0  0  0  0  0
    9.4299  -15.8020   23.7443 O   0  0  0  0  0  0  0  0  0  0  0  0
   12.3415  -14.7446   19.3987 O   0  0  0  0  0  0  0  0  0  0  0  0
   10.7622  -17.3957   24.6345 N   0  0  0  0  0  0  0  0  0  0  0  0
   10.0560  -17.3373   25.8898 C   0  0  1  0  0  0  0  0  0  0  0  0
    8.5996  -17.6815   25.7694 C   0  0  0  0  0  0  0  0  0  0  0  0
    7.8169  -17.8463   27.3849 S   0  0  0  0  0  0  0  0  0  0  0  0
   10.6658  -18.2836   26.8480 C   0  0  0  0  0  0  0  0  0  0  0  0
   10.3052  -18.2557   28.1788 O   0  0  0  0  0  0  0  0  0  0  0  0
   11.5261  -19.1317   26.4605 O   0  0  0  0  0  0  0  0  0  0  0  0
  2  1  1  1
  3  2  1  0
  4  3  1  0
  5  6  1  0
  5  4  1  0
  6  7  1  0
  8  2  1  0
  8  9  2  0
 10  8  1  0
 11 10  1  0
 11 12  1  6
 13 12  1  0
 13 17  1  0
 14 13  2  0
 15 11  1  0
 16 15  2  0
 18 15  1  0
 19 18  1  0
 19 20  1  6
 20 21  1  0
 22 23  1  0
 22 19  1  0
 24 22  2  0
M  END
$$$$
