KDC.pdb
     RDKit          3D

 24 23  0  0  1  0  0  0  0  0999 V2000
    7.5569  -17.8190   20.8511 N   0  0  0  0  0  0  0  0  0  0  0  0
    8.9157  -17.3971   20.9476 C   0  0  1  0  0  0  0  0  0  0  0  0
    9.2495  -16.1052   20.2831 C   0  0  0  0  0  0  0  0  0  0  0  0
    8.2732  -15.0263   20.5857 C   0  0  0  0  0  0  0  0  0  0  0  0
    8.5239  -13.7032   19.9576 C   0  0  0  0  0  0  0  0  0  0  0  0
    7.5097  -12.6535   20.3320 C   0  0  0  0  0  0  0  0  0  0  0  0
    7.8454  -11.4376   19.6139 N   0  0  0  0  0  0  0  0  0  0  0  0
    9.3800  -17.3880   22.3747 C   0  0  0  0  0  0  0  0  0  0  0  0
    8.5094  -17.4192   23.2860 O   0  0  0  0  0  0  0  0  0  0  0  0
   10.7421  -17.3462   22.7380 N   0  0  0  0  0  0  0  0  0  0  0  0
   11.1696  -17.4547   24.1620 C   0  0  1  0  0  0  0  0  0  0  0  0
   12.6410  -17.6958   24.2187 C   0  0  0  0  0  0  0  0  0  0  0  0
   12.9850  -19.1027   23.9365 C   0  0  0  0  0  0  0  0  0  0  0  0
   14.0119  -19.3769   23.2179 O   0  0  0  0  0  0  0  0  0  0  0  0
   10.7221  -16.2000   24.8050 C   0  0  0  0  0  0  0  0  0  0  0  0
   10.8793  -15.0717   24.2176 O   0  0  0  0  0  0  0  0  0  0  0  0
   12.2470  -20.1612   24.4147 O   0  0  0  0  0  0  0  0  0  0  0  0
   10.1015  -16.1034   26.0717 N   0  0  0  0  0  0  0  0  0  0  0  0
    9.7640  -14.8404   26.6788 C   0  0  1  0  0  0  0  0  0  0  0  0
    8.3254  -14.4551   26.4890 C   0  0  0  0  0  0  0  0  0  0  0  0
    7.9310  -12.9111   27.3318 S   0  0  0  0  0  0  0  0  0  0  0  0
   10.0269  -14.9011   28.1324 C   0  0  0  0  0  0  0  0  0  0  0  0
    9.9685  -13.7561   28.8986 O   0  0  0  0  0  0  0  0  0  0  0  0
   10.3087  -16.0039   28.6928 O   0  0  0  0  0  0  0  0  0  0  0  0
  2  1  1  1
  3  2  1  0
  4  3  1  0
  5  6  1  0
  5  4  1  0
  6  7  1  0
  8  2  1  0
  8  9  2  0
 10  8  1  0
 11 10  1  0
 11 12  1  6
 13 12  1  0
 13 17  1  0
 14 13  2  0
 15 11  1  0
 16 15  2  0
 18 15  1  0
 19 18  1  0
 19 20  1  1
 20 21  1  0
 22 23  1  0
 22 19  1  0
 24 22  2  0
M  END
$$$$
