KDC.pdb
     RDKit          3D

 24 23  0  0  1  0  0  0  0  0999 V2000
    8.2111  -16.4264   20.6129 N   0  0  0  0  0  0  0  0  0  0  0  0
    8.4730  -15.3023   21.4505 C   0  0  1  0  0  0  0  0  0  0  0  0
    7.4540  -14.2148   21.4253 C   0  0  0  0  0  0  0  0  0  0  0  0
    7.1559  -13.7287   20.0529 C   0  0  0  0  0  0  0  0  0  0  0  0
    8.3072  -13.6123   19.1207 C   0  0  0  0  0  0  0  0  0  0  0  0
    7.9318  -13.0926   17.7570 C   0  0  0  0  0  0  0  0  0  0  0  0
    9.1115  -13.1670   16.9148 N   0  0  0  0  0  0  0  0  0  0  0  0
    8.7475  -15.7310   22.8623 C   0  0  0  0  0  0  0  0  0  0  0  0
    7.8754  -15.4892   23.7399 O   0  0  0  0  0  0  0  0  0  0  0  0
    9.9337  -16.3896   23.2470 N   0  0  0  0  0  0  0  0  0  0  0  0
   10.1104  -16.9288   24.6256 C   0  0  1  0  0  0  0  0  0  0  0  0
   11.3089  -17.8169   24.6585 C   0  0  0  0  0  0  0  0  0  0  0  0
   11.1542  -18.9921   23.7796 C   0  0  0  0  0  0  0  0  0  0  0  0
   11.9763  -19.9725   23.8742 O   0  0  0  0  0  0  0  0  0  0  0  0
   10.1939  -15.7427   25.5055 C   0  0  0  0  0  0  0  0  0  0  0  0
   11.1410  -14.8904   25.3664 O   0  0  0  0  0  0  0  0  0  0  0  0
   10.1516  -19.0958   22.8426 O   0  0  0  0  0  0  0  0  0  0  0  0
    9.2883  -15.4266   26.5442 N   0  0  0  0  0  0  0  0  0  0  0  0
    9.4930  -14.3204   27.4455 C   0  0  1  0  0  0  0  0  0  0  0  0
    8.2491  -13.5169   27.6928 C   0  0  0  0  0  0  0  0  0  0  0  0
    7.3935  -13.1213   26.1562 S   0  0  0  0  0  0  0  0  0  0  0  0
    9.9718  -14.8241   28.7504 C   0  0  0  0  0  0  0  0  0  0  0  0
   10.0898  -16.1800   28.9722 O   0  0  0  0  0  0  0  0  0  0  0  0
   10.2799  -14.0185   29.6808 O   0  0  0  0  0  0  0  0  0  0  0  0
  2  1  1  6
  3  2  1  0
  4  3  1  0
  5  6  1  0
  5  4  1  0
  6  7  1  0
  8  2  1  0
  8  9  2  0
 10  8  1  0
 11 10  1  0
 11 12  1  6
 13 12  1  0
 13 17  1  0
 14 13  2  0
 15 11  1  0
 16 15  2  0
 18 15  1  0
 19 18  1  0
 19 20  1  1
 20 21  1  0
 22 23  1  0
 22 19  1  0
 24 22  2  0
M  END
$$$$
