STS.pdb
     RDKit          3D

 20 19  0  0  1  0  0  0  0  0999 V2000
    0.8697  -21.6644   21.8075 O   0  0  0  0  0  0  0  0  0  0  0  0
    0.5025  -20.4898   21.1514 C   0  0  0  0  0  0  0  0  0  0  0  0
    1.3570  -20.3830   19.9063 C   0  0  2  0  0  0  0  0  0  0  0  0
    0.8106  -21.3344   18.9458 N   0  0  0  0  0  0  0  0  0  0  0  0
    2.7618  -20.7399   20.1561 C   0  0  0  0  0  0  0  0  0  0  0  0
    3.1880  -21.9151   20.0216 O   0  0  0  0  0  0  0  0  0  0  0  0
    5.6295  -19.4456   18.3188 C   0  0  0  0  0  0  0  0  0  0  0  0
    5.8367  -19.0493   19.7438 C   0  0  1  0  0  0  0  0  0  0  0  0
    5.4420  -17.7369   20.0020 O   0  0  0  0  0  0  0  0  0  0  0  0
    5.1106  -20.0008   20.7034 C   0  0  2  0  0  0  0  0  0  0  0  0
    3.6903  -19.7512   20.5625 N   0  0  0  0  0  0  0  0  0  0  0  0
    5.5280  -19.5783   22.0766 C   0  0  0  0  0  0  0  0  0  0  0  0
    4.8680  -18.7023   22.7137 O   0  0  0  0  0  0  0  0  0  0  0  0
    6.1582  -21.6609   24.9565 O   0  0  0  0  0  0  0  0  0  0  0  0
    7.3357  -20.9330   24.8744 C   0  0  0  0  0  0  0  0  0  0  0  0
    7.0199  -19.6728   24.0674 C   0  0  2  0  0  0  0  0  0  0  0  0
    6.6575  -20.1192   22.7291 N   0  0  0  0  0  0  0  0  0  0  0  0
    8.1597  -18.7482   24.0457 C   0  0  0  0  0  0  0  0  0  0  0  0
    8.6647  -18.1460   25.1820 O   0  0  0  0  0  0  0  0  0  0  0  0
    8.7014  -18.4907   22.9522 O   0  0  0  0  0  0  0  0  0  0  0  0
  2  1  1  0
  3  4  1  6
  3  2  1  0
  5  3  1  0
  5  6  2  0
  8  7  1  6
  8 10  1  0
  9  8  1  0
 10 11  1  1
 10 12  1  0
 11  5  1  0
 12 13  2  0
 12 17  1  0
 14 15  1  0
 16 15  1  1
 16 18  1  0
 17 16  1  0
 18 20  2  0
 18 19  1  0
M  END
$$$$
