STS.pdb
     RDKit          3D

 20 19  0  0  1  0  0  0  0  0999 V2000
   11.8025  -12.8308   18.2492 O   0  0  0  0  0  0  0  0  0  0  0  0
   10.9299  -13.1179   19.2986 C   0  0  0  0  0  0  0  0  0  0  0  0
   10.0052  -14.2200   18.8272 C   0  0  2  0  0  0  0  0  0  0  0  0
    8.9239  -13.5694   18.0968 N   0  0  0  0  0  0  0  0  0  0  0  0
    9.4150  -14.9745   19.9433 C   0  0  0  0  0  0  0  0  0  0  0  0
    8.3229  -14.6441   20.4713 O   0  0  0  0  0  0  0  0  0  0  0  0
    8.3455  -18.4102   19.8601 C   0  0  0  0  0  0  0  0  0  0  0  0
    9.3709  -18.3614   20.9449 C   0  0  1  0  0  0  0  0  0  0  0  0
   10.6174  -18.8302   20.5309 O   0  0  0  0  0  0  0  0  0  0  0  0
    9.5199  -16.9449   21.5146 C   0  0  2  0  0  0  0  0  0  0  0  0
   10.0731  -16.1153   20.4634 N   0  0  0  0  0  0  0  0  0  0  0  0
   10.5357  -17.0587   22.6071 C   0  0  0  0  0  0  0  0  0  0  0  0
   11.5978  -16.3656   22.5793 O   0  0  0  0  0  0  0  0  0  0  0  0
   10.5482  -15.9202   26.6854 O   0  0  0  0  0  0  0  0  0  0  0  0
   10.0656  -16.3076   25.4443 C   0  0  0  0  0  0  0  0  0  0  0  0
   10.8639  -17.5436   25.0269 C   0  0  2  0  0  0  0  0  0  0  0  0
   10.3742  -17.9263   23.7095 N   0  0  0  0  0  0  0  0  0  0  0  0
   10.7195  -18.6317   26.0015 C   0  0  0  0  0  0  0  0  0  0  0  0
    9.9706  -19.7673   25.7594 O   0  0  0  0  0  0  0  0  0  0  0  0
   11.2983  -18.5312   27.1016 O   0  0  0  0  0  0  0  0  0  0  0  0
  2  1  1  0
  3  4  1  1
  3  2  1  0
  5  3  1  0
  5  6  2  0
  8  7  1  6
  8 10  1  0
  9  8  1  0
 10 11  1  6
 10 12  1  0
 11  5  1  0
 12 13  2  0
 12 17  1  0
 14 15  1  0
 16 15  1  1
 16 18  1  0
 17 16  1  0
 18 20  2  0
 18 19  1  0
M  END
$$$$
