STS.pdb
     RDKit          3D

 20 19  0  0  1  0  0  0  0  0999 V2000
   -0.9476  -25.4071   24.6266 O   0  0  0  0  0  0  0  0  0  0  0  0
   -1.9669  -26.1472   25.2252 C   0  0  0  0  0  0  0  0  0  0  0  0
   -3.1860  -25.2532   25.3048 C   0  0  2  0  0  0  0  0  0  0  0  0
   -2.6914  -23.8918   25.4716 N   0  0  0  0  0  0  0  0  0  0  0  0
   -4.0437  -25.5732   26.4561 C   0  0  0  0  0  0  0  0  0  0  0  0
   -4.5907  -26.6971   26.5914 O   0  0  0  0  0  0  0  0  0  0  0  0
   -3.3983  -23.4819   29.8329 C   0  0  0  0  0  0  0  0  0  0  0  0
   -4.2059  -24.7381   29.8597 C   0  0  1  0  0  0  0  0  0  0  0  0
   -4.9778  -24.8590   31.0149 O   0  0  0  0  0  0  0  0  0  0  0  0
   -5.1096  -24.8522   28.6255 C   0  0  2  0  0  0  0  0  0  0  0  0
   -4.2812  -24.6060   27.4625 N   0  0  0  0  0  0  0  0  0  0  0  0
   -6.0942  -23.7322   28.7466 C   0  0  0  0  0  0  0  0  0  0  0  0
   -5.8050  -22.5677   28.3352 O   0  0  0  0  0  0  0  0  0  0  0  0
  -10.5572  -22.3095   29.8129 O   0  0  0  0  0  0  0  0  0  0  0  0
   -9.6788  -23.3759   29.6926 C   0  0  0  0  0  0  0  0  0  0  0  0
   -8.3008  -22.7812   29.3983 C   0  0  2  0  0  0  0  0  0  0  0  0
   -7.3759  -23.9034   29.3141 N   0  0  0  0  0  0  0  0  0  0  0  0
   -7.8992  -21.8176   30.4303 C   0  0  0  0  0  0  0  0  0  0  0  0
   -8.1163  -20.4577   30.3183 O   0  0  0  0  0  0  0  0  0  0  0  0
   -7.3351  -22.2414   31.4586 O   0  0  0  0  0  0  0  0  0  0  0  0
  2  1  1  0
  3  4  1  1
  3  2  1  0
  5  3  1  0
  5  6  2  0
  8  7  1  1
  8 10  1  0
  9  8  1  0
 10 11  1  6
 10 12  1  0
 11  5  1  0
 12 13  2  0
 12 17  1  0
 14 15  1  0
 16 15  1  1
 16 18  1  0
 17 16  1  0
 18 20  2  0
 18 19  1  0
M  END
$$$$
