STS.pdb
     RDKit          3D

 20 19  0  0  1  0  0  0  0  0999 V2000
    0.2691  -21.0440   23.9512 O   0  0  0  0  0  0  0  0  0  0  0  0
    0.1524  -19.6708   23.7373 C   0  0  0  0  0  0  0  0  0  0  0  0
    0.6725  -19.3858   22.3444 C   0  0  2  0  0  0  0  0  0  0  0  0
   -0.3104  -19.9306   21.4155 N   0  0  0  0  0  0  0  0  0  0  0  0
    1.9632  -20.0400   22.0814 C   0  0  0  0  0  0  0  0  0  0  0  0
    2.0481  -21.1231   21.4484 O   0  0  0  0  0  0  0  0  0  0  0  0
    4.7940  -18.9905   20.0857 C   0  0  0  0  0  0  0  0  0  0  0  0
    5.2918  -19.0597   21.4921 C   0  0  1  0  0  0  0  0  0  0  0  0
    5.3044  -17.8156   22.1222 O   0  0  0  0  0  0  0  0  0  0  0  0
    4.4733  -20.0501   22.3303 C   0  0  2  0  0  0  0  0  0  0  0  0
    3.1684  -19.4572   22.5425 N   0  0  0  0  0  0  0  0  0  0  0  0
    5.1733  -20.1302   23.6501 C   0  0  0  0  0  0  0  0  0  0  0  0
    4.8969  -19.3139   24.5809 O   0  0  0  0  0  0  0  0  0  0  0  0
    5.2813  -22.7712   26.0147 O   0  0  0  0  0  0  0  0  0  0  0  0
    6.6289  -22.5909   25.7415 C   0  0  0  0  0  0  0  0  0  0  0  0
    6.7895  -21.1538   25.2433 C   0  0  2  0  0  0  0  0  0  0  0  0
    6.1617  -21.0990   23.9301 N   0  0  0  0  0  0  0  0  0  0  0  0
    8.2018  -20.7570   25.1916 C   0  0  0  0  0  0  0  0  0  0  0  0
    9.0264  -20.7558   26.3001 O   0  0  0  0  0  0  0  0  0  0  0  0
    8.6849  -20.4034   24.0975 O   0  0  0  0  0  0  0  0  0  0  0  0
  2  1  1  0
  3  4  1  6
  3  2  1  0
  5  3  1  0
  5  6  2  0
  8  7  1  6
  8 10  1  0
  9  8  1  0
 10 11  1  1
 10 12  1  0
 11  5  1  0
 12 13  2  0
 12 17  1  0
 14 15  1  0
 16 15  1  6
 16 18  1  0
 17 16  1  0
 18 20  2  0
 18 19  1  0
M  END
$$$$
