STS.pdb
     RDKit          3D

 20 19  0  0  1  0  0  0  0  0999 V2000
    6.5994  -21.1817   19.6600 O   0  0  0  0  0  0  0  0  0  0  0  0
    6.7625  -20.0001   18.9374 C   0  0  0  0  0  0  0  0  0  0  0  0
    7.3136  -20.3753   17.5783 C   0  0  2  0  0  0  0  0  0  0  0  0
    6.3541  -21.2974   16.9822 N   0  0  0  0  0  0  0  0  0  0  0  0
    8.6122  -21.0601   17.6676 C   0  0  0  0  0  0  0  0  0  0  0  0
    8.7083  -22.3136   17.6858 O   0  0  0  0  0  0  0  0  0  0  0  0
   11.3567  -21.3153   15.3353 C   0  0  0  0  0  0  0  0  0  0  0  0
   11.8622  -20.5357   16.5045 C   0  0  1  0  0  0  0  0  0  0  0  0
   11.7775  -19.1571   16.3115 O   0  0  0  0  0  0  0  0  0  0  0  0
   11.1274  -20.9182   17.7956 C   0  0  2  0  0  0  0  0  0  0  0  0
    9.8126  -20.3123   17.7369 N   0  0  0  0  0  0  0  0  0  0  0  0
   11.8964  -20.2661   18.9010 C   0  0  0  0  0  0  0  0  0  0  0  0
   11.6051  -19.0942   19.2894 O   0  0  0  0  0  0  0  0  0  0  0  0
   12.6328  -21.3027   22.3767 O   0  0  0  0  0  0  0  0  0  0  0  0
   13.8700  -21.2035   21.7582 C   0  0  0  0  0  0  0  0  0  0  0  0
   13.7090  -20.2099   20.6066 C   0  0  2  0  0  0  0  0  0  0  0  0
   12.9686  -20.9044   19.5621 N   0  0  0  0  0  0  0  0  0  0  0  0
   15.0096  -19.7273   20.1267 C   0  0  0  0  0  0  0  0  0  0  0  0
   15.7907  -18.8337   20.8340 O   0  0  0  0  0  0  0  0  0  0  0  0
   15.4340  -20.1405   19.0292 O   0  0  0  0  0  0  0  0  0  0  0  0
  2  1  1  0
  3  4  1  1
  3  2  1  0
  5  3  1  0
  5  6  2  0
  8  7  1  6
  8 10  1  0
  9  8  1  0
 10 11  1  6
 10 12  1  0
 11  5  1  0
 12 13  2  0
 12 17  1  0
 14 15  1  0
 16 15  1  1
 16 18  1  0
 17 16  1  0
 18 20  2  0
 18 19  1  0
M  END
$$$$
