STS.pdb
     RDKit          3D

 20 19  0  0  1  0  0  0  0  0999 V2000
   -1.9227  -27.7022   34.4096 O   0  0  0  0  0  0  0  0  0  0  0  0
   -2.2968  -26.8022   33.4121 C   0  0  0  0  0  0  0  0  0  0  0  0
   -2.6844  -27.6142   32.1946 C   0  0  2  0  0  0  0  0  0  0  0  0
   -1.4412  -28.1006   31.6080 N   0  0  0  0  0  0  0  0  0  0  0  0
   -3.3846  -26.8097   31.1819 C   0  0  0  0  0  0  0  0  0  0  0  0
   -2.7678  -26.1099   30.3389 O   0  0  0  0  0  0  0  0  0  0  0  0
   -6.2677  -28.1728   28.8486 C   0  0  0  0  0  0  0  0  0  0  0  0
   -6.7220  -27.0382   29.7070 C   0  0  1  0  0  0  0  0  0  0  0  0
   -7.3808  -27.4638   30.8602 O   0  0  0  0  0  0  0  0  0  0  0  0
   -5.5536  -26.1222   30.0931 C   0  0  2  0  0  0  0  0  0  0  0  0
   -4.7995  -26.8010   31.1274 N   0  0  0  0  0  0  0  0  0  0  0  0
   -6.1824  -24.9042   30.6928 C   0  0  0  0  0  0  0  0  0  0  0  0
   -6.5354  -24.8901   31.9111 O   0  0  0  0  0  0  0  0  0  0  0  0
   -6.9470  -20.2189   30.5316 O   0  0  0  0  0  0  0  0  0  0  0  0
   -6.3363  -21.3330   29.9758 C   0  0  0  0  0  0  0  0  0  0  0  0
   -7.0130  -22.5595   30.5900 C   0  0  2  0  0  0  0  0  0  0  0  0
   -6.4144  -23.7243   29.9524 N   0  0  0  0  0  0  0  0  0  0  0  0
   -8.4684  -22.5210   30.4030 C   0  0  0  0  0  0  0  0  0  0  0  0
   -9.3230  -21.8630   31.2666 O   0  0  0  0  0  0  0  0  0  0  0  0
   -8.9618  -23.1084   29.4197 O   0  0  0  0  0  0  0  0  0  0  0  0
  2  1  1  0
  3  4  1  6
  3  2  1  0
  5  3  1  0
  5  6  2  0
  8  7  1  1
  8 10  1  0
  9  8  1  0
 10 11  1  1
 10 12  1  0
 11  5  1  0
 12 13  2  0
 12 17  1  0
 14 15  1  0
 16 15  1  6
 16 18  1  0
 17 16  1  0
 18 20  2  0
 18 19  1  0
M  END
$$$$
