STS.pdb
     RDKit          3D

 20 19  0  0  1  0  0  0  0  0999 V2000
   10.2550  -17.4935   14.9306 O   0  0  0  0  0  0  0  0  0  0  0  0
    8.8791  -17.3291   15.0873 C   0  0  0  0  0  0  0  0  0  0  0  0
    8.5978  -15.8416   15.0689 C   0  0  2  0  0  0  0  0  0  0  0  0
    8.8853  -15.3823   13.7152 N   0  0  0  0  0  0  0  0  0  0  0  0
    9.4591  -15.0951   15.9985 C   0  0  0  0  0  0  0  0  0  0  0  0
   10.5448  -14.5757   15.6348 O   0  0  0  0  0  0  0  0  0  0  0  0
    7.7633  -12.7662   18.8595 C   0  0  0  0  0  0  0  0  0  0  0  0
    8.8135  -13.6876   19.3876 C   0  0  1  0  0  0  0  0  0  0  0  0
    8.2793  -14.8286   19.9857 O   0  0  0  0  0  0  0  0  0  0  0  0
    9.8033  -14.0998   18.2906 C   0  0  2  0  0  0  0  0  0  0  0  0
    9.0819  -14.9378   17.3542 N   0  0  0  0  0  0  0  0  0  0  0  0
   10.8328  -14.9409   18.9772 C   0  0  0  0  0  0  0  0  0  0  0  0
   10.7361  -16.2056   18.9851 O   0  0  0  0  0  0  0  0  0  0  0  0
   14.5944  -14.6181   18.9284 O   0  0  0  0  0  0  0  0  0  0  0  0
   14.2476  -14.5949   20.2709 C   0  0  0  0  0  0  0  0  0  0  0  0
   12.8666  -15.2428   20.3810 C   0  0  2  0  0  0  0  0  0  0  0  0
   11.9484  -14.3867   19.6423 N   0  0  0  0  0  0  0  0  0  0  0  0
   12.4578  -15.4035   21.7816 C   0  0  0  0  0  0  0  0  0  0  0  0
   13.1022  -16.2497   22.6635 O   0  0  0  0  0  0  0  0  0  0  0  0
   11.4834  -14.7473   22.2003 O   0  0  0  0  0  0  0  0  0  0  0  0
  2  1  1  0
  3  4  1  6
  3  2  1  0
  5  3  1  0
  5  6  2  0
  8  7  1  6
  8 10  1  0
  9  8  1  0
 10 11  1  6
 10 12  1  0
 11  5  1  0
 12 13  2  0
 12 17  1  0
 14 15  1  0
 16 15  1  1
 16 18  1  0
 17 16  1  0
 18 20  2  0
 18 19  1  0
M  END
$$$$
