STS.pdb
     RDKit          3D

 20 19  0  0  1  0  0  0  0  0999 V2000
    9.2110  -17.6578   15.0767 O   0  0  0  0  0  0  0  0  0  0  0  0
    7.9549  -17.0539   15.1272 C   0  0  0  0  0  0  0  0  0  0  0  0
    8.1753  -15.5563   15.1475 C   0  0  2  0  0  0  0  0  0  0  0  0
    8.8497  -15.2197   13.8993 N   0  0  0  0  0  0  0  0  0  0  0  0
    9.0349  -15.1295   16.2620 C   0  0  0  0  0  0  0  0  0  0  0  0
   10.2520  -14.8572   16.1026 O   0  0  0  0  0  0  0  0  0  0  0  0
    7.4880  -12.6543   19.0250 C   0  0  0  0  0  0  0  0  0  0  0  0
    8.1921  -13.8225   19.6335 C   0  0  1  0  0  0  0  0  0  0  0  0
    7.3156  -14.8249   20.0481 O   0  0  0  0  0  0  0  0  0  0  0  0
    9.2311  -14.4155   18.6733 C   0  0  2  0  0  0  0  0  0  0  0  0
    8.5053  -15.0112   17.5699 N   0  0  0  0  0  0  0  0  0  0  0  0
    9.9035  -15.5107   19.4393 C   0  0  0  0  0  0  0  0  0  0  0  0
    9.6179  -16.7265   19.2174 O   0  0  0  0  0  0  0  0  0  0  0  0
   13.5455  -17.2420   21.7925 O   0  0  0  0  0  0  0  0  0  0  0  0
   12.9796  -16.1946   21.0811 C   0  0  0  0  0  0  0  0  0  0  0  0
   11.4627  -16.3599   21.1846 C   0  0  2  0  0  0  0  0  0  0  0  0
   10.8749  -15.2593   20.4330 N   0  0  0  0  0  0  0  0  0  0  0  0
   11.0165  -16.3671   22.5830 C   0  0  0  0  0  0  0  0  0  0  0  0
   11.2735  -17.4104   23.4517 O   0  0  0  0  0  0  0  0  0  0  0  0
   10.3747  -15.3877   23.0121 O   0  0  0  0  0  0  0  0  0  0  0  0
  2  1  1  0
  3  4  1  6
  3  2  1  0
  5  3  1  0
  5  6  2  0
  8  7  1  6
  8 10  1  0
  9  8  1  0
 10 11  1  6
 10 12  1  0
 11  5  1  0
 12 13  2  0
 12 17  1  0
 14 15  1  0
 16 15  1  1
 16 18  1  0
 17 16  1  0
 18 20  2  0
 18 19  1  0
M  END
$$$$
