STS.pdb
     RDKit          3D

 20 19  0  0  1  0  0  0  0  0999 V2000
   -1.5013  -27.9748   26.9648 O   0  0  0  0  0  0  0  0  0  0  0  0
   -2.1994  -26.7767   27.1135 C   0  0  0  0  0  0  0  0  0  0  0  0
   -3.0516  -26.5949   25.8755 C   0  0  2  0  0  0  0  0  0  0  0  0
   -2.1296  -26.4017   24.7625 N   0  0  0  0  0  0  0  0  0  0  0  0
   -3.9214  -25.4119   25.9603 C   0  0  0  0  0  0  0  0  0  0  0  0
   -3.4768  -24.2432   25.8289 O   0  0  0  0  0  0  0  0  0  0  0  0
   -7.1428  -24.7786   23.9523 C   0  0  0  0  0  0  0  0  0  0  0  0
   -7.4549  -24.8165   25.4124 C   0  0  1  0  0  0  0  0  0  0  0  0
   -7.9483  -26.0533   25.8270 O   0  0  0  0  0  0  0  0  0  0  0  0
   -6.2312  -24.4433   26.2589 C   0  0  2  0  0  0  0  0  0  0  0  0
   -5.3097  -25.5596   26.1969 N   0  0  0  0  0  0  0  0  0  0  0  0
   -6.7366  -24.3286   27.6624 C   0  0  0  0  0  0  0  0  0  0  0  0
   -7.0282  -25.3651   28.3330 O   0  0  0  0  0  0  0  0  0  0  0  0
   -6.1148  -21.0696   29.7939 O   0  0  0  0  0  0  0  0  0  0  0  0
   -6.3374  -22.2557   30.4771 C   0  0  0  0  0  0  0  0  0  0  0  0
   -7.3906  -23.0307   29.6838 C   0  0  2  0  0  0  0  0  0  0  0  0
   -6.9143  -23.0855   28.3083 N   0  0  0  0  0  0  0  0  0  0  0  0
   -8.7111  -22.3969   29.7806 C   0  0  0  0  0  0  0  0  0  0  0  0
   -9.4392  -22.3452   30.9537 O   0  0  0  0  0  0  0  0  0  0  0  0
   -9.2035  -21.8792   28.7583 O   0  0  0  0  0  0  0  0  0  0  0  0
  2  1  1  0
  3  4  1  6
  3  2  1  0
  5  3  1  0
  5  6  2  0
  8  7  1  6
  8 10  1  0
  9  8  1  0
 10 11  1  1
 10 12  1  0
 11  5  1  0
 12 13  2  0
 12 17  1  0
 14 15  1  0
 16 15  1  1
 16 18  1  0
 17 16  1  0
 18 20  2  0
 18 19  1  0
M  END
$$$$
