STS.pdb
     RDKit          3D

 20 19  0  0  1  0  0  0  0  0999 V2000
    9.6991  -18.3784   17.0006 O   0  0  0  0  0  0  0  0  0  0  0  0
    8.5995  -17.9089   16.2826 C   0  0  0  0  0  0  0  0  0  0  0  0
    8.7925  -16.4205   16.0846 C   0  0  2  0  0  0  0  0  0  0  0  0
    9.6966  -16.2671   14.9510 N   0  0  0  0  0  0  0  0  0  0  0  0
    9.4086  -15.7731   17.2527 C   0  0  0  0  0  0  0  0  0  0  0  0
   10.6466  -15.5674   17.3287 O   0  0  0  0  0  0  0  0  0  0  0  0
    7.4750  -12.8266   19.3598 C   0  0  0  0  0  0  0  0  0  0  0  0
    7.9752  -13.9602   20.1937 C   0  0  1  0  0  0  0  0  0  0  0  0
    6.9756  -14.8798   20.5100 O   0  0  0  0  0  0  0  0  0  0  0  0
    9.1427  -14.6864   19.5135 C   0  0  2  0  0  0  0  0  0  0  0  0
    8.6093  -15.3559   18.3445 N   0  0  0  0  0  0  0  0  0  0  0  0
    9.5877  -15.7290   20.4899 C   0  0  0  0  0  0  0  0  0  0  0  0
    9.2830  -16.9485   20.3196 O   0  0  0  0  0  0  0  0  0  0  0  0
   12.6119  -17.5899   23.4016 O   0  0  0  0  0  0  0  0  0  0  0  0
   12.2516  -16.5918   22.5088 C   0  0  0  0  0  0  0  0  0  0  0  0
   10.7286  -16.4694   22.5752 C   0  0  2  0  0  0  0  0  0  0  0  0
   10.3568  -15.4220   21.6337 N   0  0  0  0  0  0  0  0  0  0  0  0
   10.2720  -16.1680   23.9373 C   0  0  0  0  0  0  0  0  0  0  0  0
   10.3316  -17.0810   24.9726 O   0  0  0  0  0  0  0  0  0  0  0  0
    9.8073  -15.0356   24.1765 O   0  0  0  0  0  0  0  0  0  0  0  0
  2  1  1  0
  3  4  1  6
  3  2  1  0
  5  3  1  0
  5  6  2  0
  8  7  1  6
  8 10  1  0
  9  8  1  0
 10 11  1  6
 10 12  1  0
 11  5  1  0
 12 13  2  0
 12 17  1  0
 14 15  1  0
 16 15  1  1
 16 18  1  0
 17 16  1  0
 18 20  2  0
 18 19  1  0
M  END
$$$$
