STS.pdb
     RDKit          3D

 20 19  0  0  1  0  0  0  0  0999 V2000
    8.5720  -13.3811   15.6940 O   0  0  0  0  0  0  0  0  0  0  0  0
    8.2597  -14.2485   16.7404 C   0  0  0  0  0  0  0  0  0  0  0  0
    9.0029  -15.5433   16.4897 C   0  0  2  0  0  0  0  0  0  0  0  0
    8.2614  -16.2529   15.4539 N   0  0  0  0  0  0  0  0  0  0  0  0
    9.0568  -16.4009   17.6833 C   0  0  0  0  0  0  0  0  0  0  0  0
    8.1329  -17.2025   17.9741 O   0  0  0  0  0  0  0  0  0  0  0  0
   11.2743  -19.0849   18.3488 C   0  0  0  0  0  0  0  0  0  0  0  0
   11.5421  -18.1066   19.4451 C   0  0  1  0  0  0  0  0  0  0  0  0
   12.6619  -17.3127   19.1985 O   0  0  0  0  0  0  0  0  0  0  0  0
   10.3259  -17.2094   19.7078 C   0  0  2  0  0  0  0  0  0  0  0  0
   10.1719  -16.3463   18.5543 N   0  0  0  0  0  0  0  0  0  0  0  0
   10.7012  -16.3618   20.8821 C   0  0  0  0  0  0  0  0  0  0  0  0
   11.4138  -15.3234   20.7306 O   0  0  0  0  0  0  0  0  0  0  0  0
    8.7772  -16.7750   24.2992 O   0  0  0  0  0  0  0  0  0  0  0  0
    9.3629  -15.5348   24.0944 C   0  0  0  0  0  0  0  0  0  0  0  0
   10.6480  -15.7793   23.3021 C   0  0  2  0  0  0  0  0  0  0  0  0
   10.2922  -16.6626   22.1998 N   0  0  0  0  0  0  0  0  0  0  0  0
   11.6999  -16.3563   24.1478 C   0  0  0  0  0  0  0  0  0  0  0  0
   12.3503  -15.6423   25.1358 O   0  0  0  0  0  0  0  0  0  0  0  0
   12.0256  -17.5470   23.9701 O   0  0  0  0  0  0  0  0  0  0  0  0
  2  1  1  0
  3  4  1  6
  3  2  1  0
  5  3  1  0
  5  6  2  0
  8  7  1  6
  8 10  1  0
  9  8  1  0
 10 11  1  6
 10 12  1  0
 11  5  1  0
 12 13  2  0
 12 17  1  0
 14 15  1  0
 16 15  1  1
 16 18  1  0
 17 16  1  0
 18 20  2  0
 18 19  1  0
M  END
$$$$
