STS.pdb
     RDKit          3D

 20 19  0  0  1  0  0  0  0  0999 V2000
    7.5834  -19.3924   17.2732 O   0  0  0  0  0  0  0  0  0  0  0  0
    8.6631  -18.5120   17.2078 C   0  0  0  0  0  0  0  0  0  0  0  0
    8.0977  -17.1091   17.1459 C   0  0  2  0  0  0  0  0  0  0  0  0
    8.2790  -16.6494   15.7741 N   0  0  0  0  0  0  0  0  0  0  0  0
    8.8049  -16.1780   18.0382 C   0  0  0  0  0  0  0  0  0  0  0  0
    9.8304  -15.5490   17.6726 O   0  0  0  0  0  0  0  0  0  0  0  0
    7.2850  -13.2811   20.2410 C   0  0  0  0  0  0  0  0  0  0  0  0
    7.9223  -14.3392   21.0806 C   0  0  1  0  0  0  0  0  0  0  0  0
    6.9995  -15.2513   21.5919 O   0  0  0  0  0  0  0  0  0  0  0  0
    9.0112  -15.0922   20.3056 C   0  0  2  0  0  0  0  0  0  0  0  0
    8.3415  -15.9603   19.3583 N   0  0  0  0  0  0  0  0  0  0  0  0
    9.7035  -15.9478   21.3190 C   0  0  0  0  0  0  0  0  0  0  0  0
    9.3394  -17.1475   21.5115 O   0  0  0  0  0  0  0  0  0  0  0  0
   13.6302  -16.6271   23.9622 O   0  0  0  0  0  0  0  0  0  0  0  0
   12.8658  -15.7139   23.2517 C   0  0  0  0  0  0  0  0  0  0  0  0
   11.5314  -16.3969   22.9484 C   0  0  2  0  0  0  0  0  0  0  0  0
   10.7799  -15.4788   22.1035 N   0  0  0  0  0  0  0  0  0  0  0  0
   10.8039  -16.7272   24.1798 C   0  0  0  0  0  0  0  0  0  0  0  0
    9.6509  -16.0753   24.5730 O   0  0  0  0  0  0  0  0  0  0  0  0
   11.2433  -17.6385   24.9091 O   0  0  0  0  0  0  0  0  0  0  0  0
  2  1  1  0
  3  4  1  6
  3  2  1  0
  5  3  1  0
  5  6  2  0
  8  7  1  6
  8 10  1  0
  9  8  1  0
 10 11  1  6
 10 12  1  0
 11  5  1  0
 12 13  2  0
 12 17  1  0
 14 15  1  0
 16 15  1  1
 16 18  1  0
 17 16  1  0
 18 20  2  0
 18 19  1  0
M  END
$$$$
