STS.pdb
     RDKit          3D

 20 19  0  0  1  0  0  0  0  0999 V2000
   16.7973  -16.0914   13.2398 O   0  0  0  0  0  0  0  0  0  0  0  0
   15.7289  -16.3338   14.1027 C   0  0  0  0  0  0  0  0  0  0  0  0
   14.5755  -16.8378   13.2615 C   0  0  2  0  0  0  0  0  0  0  0  0
   14.2959  -15.7993   12.2769 N   0  0  0  0  0  0  0  0  0  0  0  0
   13.3560  -17.0581   14.0537 C   0  0  0  0  0  0  0  0  0  0  0  0
   12.4300  -16.2093   14.1073 O   0  0  0  0  0  0  0  0  0  0  0  0
   10.9899  -19.9087   13.7389 C   0  0  0  0  0  0  0  0  0  0  0  0
   11.5027  -19.9302   15.1414 C   0  0  1  0  0  0  0  0  0  0  0  0
   12.5103  -20.8751   15.3334 O   0  0  0  0  0  0  0  0  0  0  0  0
   12.0067  -18.5484   15.5772 C   0  0  2  0  0  0  0  0  0  0  0  0
   13.1882  -18.2549   14.7915 N   0  0  0  0  0  0  0  0  0  0  0  0
   12.4201  -18.7065   17.0064 C   0  0  0  0  0  0  0  0  0  0  0  0
   13.6449  -18.8122   17.3189 O   0  0  0  0  0  0  0  0  0  0  0  0
   10.4542  -17.0686   19.9282 O   0  0  0  0  0  0  0  0  0  0  0  0
   10.7718  -18.3612   20.3177 C   0  0  0  0  0  0  0  0  0  0  0  0
   11.9490  -18.8069   19.4490 C   0  0  2  0  0  0  0  0  0  0  0  0
   11.4897  -18.7463   18.0680 N   0  0  0  0  0  0  0  0  0  0  0  0
   12.4081  -20.1524   19.8143 C   0  0  0  0  0  0  0  0  0  0  0  0
   13.0285  -20.4379   21.0154 O   0  0  0  0  0  0  0  0  0  0  0  0
   12.2322  -21.0855   19.0057 O   0  0  0  0  0  0  0  0  0  0  0  0
  2  1  1  0
  3  4  1  6
  3  2  1  0
  5  3  1  0
  5  6  2  0
  8  7  1  6
  8 10  1  0
  9  8  1  0
 10 11  1  6
 10 12  1  0
 11  5  1  0
 12 13  2  0
 12 17  1  0
 14 15  1  0
 16 15  1  1
 16 18  1  0
 17 16  1  0
 18 20  2  0
 18 19  1  0
M  END
$$$$
