STS.pdb
     RDKit          3D

 20 19  0  0  1  0  0  0  0  0999 V2000
    9.5735  -18.0972   16.0317 O   0  0  0  0  0  0  0  0  0  0  0  0
    8.2674  -17.6416   15.8540 C   0  0  0  0  0  0  0  0  0  0  0  0
    8.3392  -16.1479   15.6182 C   0  0  2  0  0  0  0  0  0  0  0  0
    9.0392  -15.9613   14.3528 N   0  0  0  0  0  0  0  0  0  0  0  0
    9.0962  -15.4488   16.6678 C   0  0  0  0  0  0  0  0  0  0  0  0
   10.3160  -15.1714   16.5414 O   0  0  0  0  0  0  0  0  0  0  0  0
    7.5390  -12.5196   19.0843 C   0  0  0  0  0  0  0  0  0  0  0  0
    8.1024  -13.6945   19.8144 C   0  0  1  0  0  0  0  0  0  0  0  0
    7.1213  -14.5978   20.2222 O   0  0  0  0  0  0  0  0  0  0  0  0
    9.1555  -14.4271   18.9733 C   0  0  2  0  0  0  0  0  0  0  0  0
    8.4599  -15.0616   17.8720 N   0  0  0  0  0  0  0  0  0  0  0  0
    9.7027  -15.4983   19.8630 C   0  0  0  0  0  0  0  0  0  0  0  0
    9.3209  -16.7015   19.7390 O   0  0  0  0  0  0  0  0  0  0  0  0
   13.1661  -17.0662   22.6775 O   0  0  0  0  0  0  0  0  0  0  0  0
   12.6525  -16.0103   21.9396 C   0  0  0  0  0  0  0  0  0  0  0  0
   11.1753  -16.3212   21.6940 C   0  0  2  0  0  0  0  0  0  0  0  0
   10.6561  -15.2370   20.8714 N   0  0  0  0  0  0  0  0  0  0  0  0
   10.4363  -16.4530   22.9554 C   0  0  0  0  0  0  0  0  0  0  0  0
    9.4668  -15.5553   23.3594 O   0  0  0  0  0  0  0  0  0  0  0  0
   10.6919  -17.4193   23.7012 O   0  0  0  0  0  0  0  0  0  0  0  0
  2  1  1  0
  3  4  1  6
  3  2  1  0
  5  3  1  0
  5  6  2  0
  8  7  1  6
  8 10  1  0
  9  8  1  0
 10 11  1  6
 10 12  1  0
 11  5  1  0
 12 13  2  0
 12 17  1  0
 14 15  1  0
 16 15  1  1
 16 18  1  0
 17 16  1  0
 18 20  2  0
 18 19  1  0
M  END
$$$$
