STS.pdb
     RDKit          3D

 20 19  0  0  1  0  0  0  0  0999 V2000
    1.6081  -18.7340   23.1438 O   0  0  0  0  0  0  0  0  0  0  0  0
    2.0871  -19.7228   22.2849 C   0  0  0  0  0  0  0  0  0  0  0  0
    3.0669  -19.0620   21.3388 C   0  0  2  0  0  0  0  0  0  0  0  0
    2.8361  -19.6512   20.0251 N   0  0  0  0  0  0  0  0  0  0  0  0
    4.4669  -19.3129   21.7137 C   0  0  0  0  0  0  0  0  0  0  0  0
    4.9588  -20.4699   21.7291 O   0  0  0  0  0  0  0  0  0  0  0  0
    7.5011  -17.8185   20.1449 C   0  0  0  0  0  0  0  0  0  0  0  0
    7.5257  -17.4344   21.5880 C   0  0  1  0  0  0  0  0  0  0  0  0
    7.0782  -16.1319   21.8076 O   0  0  0  0  0  0  0  0  0  0  0  0
    6.7057  -18.4087   22.4434 C   0  0  2  0  0  0  0  0  0  0  0  0
    5.3150  -18.2380   22.0746 N   0  0  0  0  0  0  0  0  0  0  0  0
    6.8781  -17.9434   23.8548 C   0  0  0  0  0  0  0  0  0  0  0  0
    6.1221  -17.0470   24.3386 O   0  0  0  0  0  0  0  0  0  0  0  0
    7.3408  -20.0204   26.9999 O   0  0  0  0  0  0  0  0  0  0  0  0
    6.9374  -18.6971   26.9026 C   0  0  0  0  0  0  0  0  0  0  0  0
    8.0006  -17.9714   26.0768 C   0  0  2  0  0  0  0  0  0  0  0  0
    7.8717  -18.4644   24.7123 N   0  0  0  0  0  0  0  0  0  0  0  0
    9.3473  -18.1978   26.6154 C   0  0  0  0  0  0  0  0  0  0  0  0
    9.7239  -17.8192   27.8896 O   0  0  0  0  0  0  0  0  0  0  0  0
   10.1951  -18.7581   25.8925 O   0  0  0  0  0  0  0  0  0  0  0  0
  2  1  1  0
  3  4  1  6
  3  2  1  0
  5  3  1  0
  5  6  2  0
  8  7  1  6
  8 10  1  0
  9  8  1  0
 10 11  1  6
 10 12  1  0
 11  5  1  0
 12 13  2  0
 12 17  1  0
 14 15  1  0
 16 15  1  1
 16 18  1  0
 17 16  1  0
 18 20  2  0
 18 19  1  0
M  END
$$$$
