ITP.pdb
     RDKit          3D

 23 23  0  0  1  0  0  0  0  0999 V2000
   32.4573  -22.2049    4.1494 C   0  0  0  0  0  0  0  0  0  0  0  0
   33.8777  -22.1076    4.6166 C   0  0  0  0  0  0  0  0  0  0  0  0
   34.2897  -23.3533    5.3508 C   0  0  2  0  0  0  0  0  0  0  0  0
   33.3263  -23.6830    6.4716 C   0  0  0  0  0  0  0  0  0  0  0  0
   35.7155  -23.4104    5.7787 C   0  0  2  0  0  0  0  0  0  0  0  0
   36.5698  -23.3645    4.5635 N   0  0  0  0  0  0  0  0  0  0  0  0
   36.1294  -24.6103    6.5065 C   0  0  0  0  0  0  0  0  0  0  0  0
   36.2351  -25.7493    5.9172 O   0  0  0  0  0  0  0  0  0  0  0  0
   38.1845  -26.7411   10.3894 C   0  0  0  0  0  0  0  0  0  0  0  0
   37.7773  -25.5131    9.6412 C   0  0  1  0  0  0  0  0  0  0  0  0
   38.8567  -24.9809    8.8900 O   0  0  0  0  0  0  0  0  0  0  0  0
   36.7718  -25.9623    8.5584 C   0  0  2  0  0  0  0  0  0  0  0  0
   36.4569  -24.6842    7.8868 N   0  0  0  0  0  0  0  0  0  0  0  0
   35.5712  -26.4939    9.2446 C   0  0  0  0  0  0  0  0  0  0  0  0
   34.9676  -25.6956   10.0205 O   0  0  0  0  0  0  0  0  0  0  0  0
   35.1299  -27.8310    9.0335 N   0  0  0  0  0  0  0  0  0  0  0  0
   35.7016  -28.7824    8.1375 C   0  0  0  0  0  0  0  0  0  0  0  0
   35.4431  -30.1039    8.8811 C   0  0  0  0  0  0  0  0  0  0  0  0
   33.9940  -29.8526    9.3427 C   0  0  0  0  0  0  0  0  0  0  0  0
   33.9879  -28.3864    9.6764 C   0  0  1  0  0  0  0  0  0  0  0  0
   34.0519  -28.1679   11.1442 C   0  0  0  0  0  0  0  0  0  0  0  0
   35.1076  -27.7639   11.6584 O   0  0  0  0  0  0  0  0  0  0  0  0
   32.9503  -28.4114   11.9249 O   0  0  0  0  0  0  0  0  0  0  0  0
  1  2  1  0
  3  5  1  0
  3  2  1  0
  3  4  1  1
  5  7  1  0
  5  6  1  6
  7  8  2  0
 10 11  1  0
 10  9  1  6
 10 12  1  0
 12 13  1  6
 13  7  1  0
 14 12  1  0
 14 15  2  0
 16 20  1  0
 16 14  1  0
 17 16  1  0
 18 17  1  0
 18 19  1  0
 19 20  1  0
 20 21  1  1
 21 22  2  0
 21 23  1  0
M  END
$$$$
