ITP.pdb
     RDKit          3D

 23 23  0  0  1  0  0  0  0  0999 V2000
   24.1963  -20.8413   -7.8963 C   0  0  0  0  0  0  0  0  0  0  0  0
   24.8907  -21.5222   -9.0363 C   0  0  0  0  0  0  0  0  0  0  0  0
   25.2352  -20.5398  -10.1212 C   0  0  2  0  0  0  0  0  0  0  0  0
   24.0494  -19.6696  -10.4809 C   0  0  0  0  0  0  0  0  0  0  0  0
   25.9180  -21.1092  -11.3165 C   0  0  2  0  0  0  0  0  0  0  0  0
   27.0861  -21.9026  -10.8532 N   0  0  0  0  0  0  0  0  0  0  0  0
   26.4523  -20.1474  -12.2810 C   0  0  0  0  0  0  0  0  0  0  0  0
   27.3604  -19.2983  -11.9489 O   0  0  0  0  0  0  0  0  0  0  0  0
   28.4780  -20.3552  -15.0926 C   0  0  0  0  0  0  0  0  0  0  0  0
   27.2397  -19.7374  -15.6570 C   0  0  1  0  0  0  0  0  0  0  0  0
   26.2700  -20.7209  -15.9810 O   0  0  0  0  0  0  0  0  0  0  0  0
   26.5761  -18.9406  -14.5124 C   0  0  2  0  0  0  0  0  0  0  0  0
   26.0687  -20.0225  -13.6431 N   0  0  0  0  0  0  0  0  0  0  0  0
   25.4492  -18.1701  -15.0881 C   0  0  0  0  0  0  0  0  0  0  0  0
   24.4156  -18.8328  -15.3983 O   0  0  0  0  0  0  0  0  0  0  0  0
   25.5359  -16.7614  -15.2759 N   0  0  0  0  0  0  0  0  0  0  0  0
   26.6413  -15.9261  -14.9368 C   0  0  0  0  0  0  0  0  0  0  0  0
   26.5568  -14.8420  -16.0248 C   0  0  0  0  0  0  0  0  0  0  0  0
   25.0342  -14.6016  -16.0216 C   0  0  0  0  0  0  0  0  0  0  0  0
   24.4686  -15.9765  -15.7963 C   0  0  1  0  0  0  0  0  0  0  0  0
   23.9535  -16.5609  -17.0610 C   0  0  0  0  0  0  0  0  0  0  0  0
   24.7114  -17.2333  -17.7789 O   0  0  0  0  0  0  0  0  0  0  0  0
   22.6482  -16.3577  -17.4314 O   0  0  0  0  0  0  0  0  0  0  0  0
  1  2  1  0
  3  5  1  0
  3  2  1  0
  3  4  1  6
  5  7  1  0
  5  6  1  1
  7  8  2  0
 10 11  1  0
 10  9  1  1
 10 12  1  0
 12 13  1  1
 13  7  1  0
 14 12  1  0
 14 15  2  0
 16 20  1  0
 16 14  1  0
 17 16  1  0
 18 17  1  0
 18 19  1  0
 19 20  1  0
 20 21  1  6
 21 22  2  0
 21 23  1  0
M  END
$$$$
