ITP.pdb
     RDKit          3D

 23 23  0  0  1  0  0  0  0  0999 V2000
   25.0946  -21.3904   -7.8856 C   0  0  0  0  0  0  0  0  0  0  0  0
   24.9646  -21.8970   -9.2898 C   0  0  0  0  0  0  0  0  0  0  0  0
   25.6405  -20.9699  -10.2616 C   0  0  2  0  0  0  0  0  0  0  0  0
   25.2017  -19.5348  -10.0587 C   0  0  0  0  0  0  0  0  0  0  0  0
   25.6011  -21.3897  -11.6904 C   0  0  2  0  0  0  0  0  0  0  0  0
   26.2848  -22.7038  -11.8099 N   0  0  0  0  0  0  0  0  0  0  0  0
   26.2714  -20.5082  -12.6468 C   0  0  0  0  0  0  0  0  0  0  0  0
   27.4888  -20.1303  -12.4715 O   0  0  0  0  0  0  0  0  0  0  0  0
   28.0878  -20.8645  -15.0871 C   0  0  0  0  0  0  0  0  0  0  0  0
   27.0241  -20.0737  -15.7775 C   0  0  1  0  0  0  0  0  0  0  0  0
   25.9048  -20.8823  -16.1032 O   0  0  0  0  0  0  0  0  0  0  0  0
   26.4603  -19.0799  -14.7384 C   0  0  2  0  0  0  0  0  0  0  0  0
   25.7072  -19.9767  -13.8372 N   0  0  0  0  0  0  0  0  0  0  0  0
   25.5357  -18.1610  -15.4425 C   0  0  0  0  0  0  0  0  0  0  0  0
   24.4394  -18.6586  -15.8350 O   0  0  0  0  0  0  0  0  0  0  0  0
   25.8730  -16.7947  -15.6585 N   0  0  0  0  0  0  0  0  0  0  0  0
   27.0892  -16.1507  -15.2832 C   0  0  0  0  0  0  0  0  0  0  0  0
   27.2434  -15.1033  -16.3991 C   0  0  0  0  0  0  0  0  0  0  0  0
   25.7866  -14.6056  -16.4789 C   0  0  0  0  0  0  0  0  0  0  0  0
   24.9824  -15.8554  -16.2506 C   0  0  1  0  0  0  0  0  0  0  0  0
   24.4329  -16.3828  -17.5259 C   0  0  0  0  0  0  0  0  0  0  0  0
   23.3108  -16.0140  -17.9089 O   0  0  0  0  0  0  0  0  0  0  0  0
   25.1625  -17.2717  -18.2742 O   0  0  0  0  0  0  0  0  0  0  0  0
  1  2  1  0
  3  5  1  0
  3  2  1  0
  3  4  1  6
  5  7  1  0
  5  6  1  1
  7  8  2  0
 10 11  1  0
 10  9  1  1
 10 12  1  0
 12 13  1  1
 13  7  1  0
 14 12  1  0
 14 15  2  0
 16 20  1  0
 16 14  1  0
 17 16  1  0
 18 17  1  0
 18 19  1  0
 19 20  1  0
 20 21  1  6
 21 22  2  0
 21 23  1  0
M  END
$$$$
