ITP.pdb
     RDKit          3D

 23 23  0  0  1  0  0  0  0  0999 V2000
   27.8256  -21.5307  -17.6757 C   0  0  0  0  0  0  0  0  0  0  0  0
   27.7026  -21.6609  -16.1880 C   0  0  0  0  0  0  0  0  0  0  0  0
   26.6546  -20.7264  -15.6503 C   0  0  2  0  0  0  0  0  0  0  0  0
   26.8221  -19.3260  -16.2016 C   0  0  0  0  0  0  0  0  0  0  0  0
   26.4660  -20.7471  -14.1727 C   0  0  2  0  0  0  0  0  0  0  0  0
   26.5103  -22.1607  -13.7162 N   0  0  0  0  0  0  0  0  0  0  0  0
   25.2012  -20.2099  -13.6701 C   0  0  0  0  0  0  0  0  0  0  0  0
   24.9005  -18.9659  -13.8033 O   0  0  0  0  0  0  0  0  0  0  0  0
   23.0260  -18.7910  -14.5232 C   0  0  0  0  0  0  0  0  0  0  0  0
   22.2963  -19.9998  -14.0334 C   0  0  1  0  0  0  0  0  0  0  0  0
   22.6039  -21.1438  -14.8142 O   0  0  0  0  0  0  0  0  0  0  0  0
   22.8809  -20.3431  -12.6457 C   0  0  2  0  0  0  0  0  0  0  0  0
   24.1829  -20.9430  -13.0041 N   0  0  0  0  0  0  0  0  0  0  0  0
   22.0008  -21.3569  -12.0193 C   0  0  0  0  0  0  0  0  0  0  0  0
   21.8059  -22.4185  -12.6817 O   0  0  0  0  0  0  0  0  0  0  0  0
   21.4133  -21.1378  -10.7409 N   0  0  0  0  0  0  0  0  0  0  0  0
   21.6118  -20.0042   -9.8983 C   0  0  0  0  0  0  0  0  0  0  0  0
   20.2483  -19.8976   -9.1944 C   0  0  0  0  0  0  0  0  0  0  0  0
   20.0066  -21.3891   -8.8887 C   0  0  0  0  0  0  0  0  0  0  0  0
   20.5651  -22.0840  -10.0996 C   0  0  1  0  0  0  0  0  0  0  0  0
   19.4817  -22.5250  -11.0150 C   0  0  0  0  0  0  0  0  0  0  0  0
   19.1929  -21.8300  -12.0027 O   0  0  0  0  0  0  0  0  0  0  0  0
   18.8057  -23.6933  -10.7688 O   0  0  0  0  0  0  0  0  0  0  0  0
  1  2  1  0
  3  5  1  0
  3  2  1  0
  3  4  1  1
  5  7  1  0
  5  6  1  6
  7  8  2  0
 10 11  1  0
 10  9  1  6
 10 12  1  0
 12 13  1  6
 13  7  1  0
 14 12  1  0
 14 15  2  0
 16 20  1  0
 16 14  1  0
 17 16  1  0
 18 17  1  0
 18 19  1  0
 19 20  1  0
 20 21  1  6
 21 22  2  0
 21 23  1  0
M  END
$$$$
