ITP.pdb
     RDKit          3D

 23 23  0  0  1  0  0  0  0  0999 V2000
   22.1758  -19.6911  -14.6440 C   0  0  0  0  0  0  0  0  0  0  0  0
   20.8592  -19.1863  -14.1368 C   0  0  0  0  0  0  0  0  0  0  0  0
   20.3895  -18.0053  -14.9402 C   0  0  2  0  0  0  0  0  0  0  0  0
   21.4282  -16.9038  -14.9697 C   0  0  0  0  0  0  0  0  0  0  0  0
   19.0246  -17.5041  -14.6161 C   0  0  2  0  0  0  0  0  0  0  0  0
   18.0562  -18.6089  -14.8402 N   0  0  0  0  0  0  0  0  0  0  0  0
   18.5354  -16.3824  -15.4182 C   0  0  0  0  0  0  0  0  0  0  0  0
   18.1486  -16.5457  -16.6345 O   0  0  0  0  0  0  0  0  0  0  0  0
   16.3382  -15.5727  -16.8165 C   0  0  0  0  0  0  0  0  0  0  0  0
   16.4173  -14.3297  -15.9906 C   0  0  1  0  0  0  0  0  0  0  0  0
   16.0336  -14.5739  -14.6468 O   0  0  0  0  0  0  0  0  0  0  0  0
   17.9133  -13.9630  -15.8769 C   0  0  2  0  0  0  0  0  0  0  0  0
   18.4221  -15.0319  -14.9925 N   0  0  0  0  0  0  0  0  0  0  0  0
   18.0093  -12.6469  -15.2035 C   0  0  0  0  0  0  0  0  0  0  0  0
   17.6224  -12.6025  -13.9985 O   0  0  0  0  0  0  0  0  0  0  0  0
   18.5123  -11.5024  -15.8848 N   0  0  0  0  0  0  0  0  0  0  0  0
   19.0702  -11.4726  -17.1973 C   0  0  0  0  0  0  0  0  0  0  0  0
   18.6572  -10.0714  -17.6788 C   0  0  0  0  0  0  0  0  0  0  0  0
   18.9654   -9.2660  -16.4010 C   0  0  0  0  0  0  0  0  0  0  0  0
   18.5709  -10.2074  -15.2968 C   0  0  1  0  0  0  0  0  0  0  0  0
   17.2565   -9.8339  -14.7145 C   0  0  0  0  0  0  0  0  0  0  0  0
   16.2211  -10.3662  -15.1464 O   0  0  0  0  0  0  0  0  0  0  0  0
   17.1893   -8.9063  -13.7057 O   0  0  0  0  0  0  0  0  0  0  0  0
  1  2  1  0
  3  5  1  0
  3  2  1  0
  3  4  1  1
  5  7  1  0
  5  6  1  6
  7  8  2  0
 10 11  1  0
 10  9  1  6
 10 12  1  0
 12 13  1  1
 13  7  1  0
 14 12  1  0
 14 15  2  0
 16 20  1  0
 16 14  1  0
 17 16  1  0
 18 17  1  0
 18 19  1  0
 19 20  1  0
 20 21  1  6
 21 22  2  0
 21 23  1  0
M  END
$$$$
