ITP.pdb
     RDKit          3D

 23 23  0  0  1  0  0  0  0  0999 V2000
   14.6252  -14.2723  -17.5759 C   0  0  0  0  0  0  0  0  0  0  0  0
   15.9675  -14.6915  -18.0933 C   0  0  0  0  0  0  0  0  0  0  0  0
   17.0704  -13.9405  -17.4004 C   0  0  2  0  0  0  0  0  0  0  0  0
   16.8292  -12.4458  -17.4291 C   0  0  0  0  0  0  0  0  0  0  0  0
   18.4565  -14.3100  -17.8022 C   0  0  2  0  0  0  0  0  0  0  0  0
   18.6346  -15.7683  -17.5777 N   0  0  0  0  0  0  0  0  0  0  0  0
   19.5425  -13.6623  -17.0661 C   0  0  0  0  0  0  0  0  0  0  0  0
   19.9120  -14.0832  -15.9076 O   0  0  0  0  0  0  0  0  0  0  0  0
   23.1075  -13.3182  -17.6951 C   0  0  0  0  0  0  0  0  0  0  0  0
   22.5607  -11.9278  -17.6584 C   0  0  1  0  0  0  0  0  0  0  0  0
   21.9648  -11.5713  -18.8956 O   0  0  0  0  0  0  0  0  0  0  0  0
   21.3694  -11.9417  -16.6757 C   0  0  2  0  0  0  0  0  0  0  0  0
   20.3013  -12.5430  -17.5010 N   0  0  0  0  0  0  0  0  0  0  0  0
   21.0362  -10.5366  -16.3446 C   0  0  0  0  0  0  0  0  0  0  0  0
   20.4456   -9.8715  -17.2460 O   0  0  0  0  0  0  0  0  0  0  0  0
   21.3664   -9.9770  -15.0777 N   0  0  0  0  0  0  0  0  0  0  0  0
   21.8467  -10.6845  -13.9361 C   0  0  0  0  0  0  0  0  0  0  0  0
   22.7535   -9.6315  -13.2766 C   0  0  0  0  0  0  0  0  0  0  0  0
   21.8483   -8.3926  -13.4253 C   0  0  0  0  0  0  0  0  0  0  0  0
   21.2009   -8.5978  -14.7669 C   0  0  1  0  0  0  0  0  0  0  0  0
   21.8325   -7.7447  -15.8059 C   0  0  0  0  0  0  0  0  0  0  0  0
   21.5436   -6.5386  -15.8676 O   0  0  0  0  0  0  0  0  0  0  0  0
   22.7292   -8.2882  -16.6908 O   0  0  0  0  0  0  0  0  0  0  0  0
  1  2  1  0
  3  5  1  0
  3  2  1  0
  3  4  1  6
  5  7  1  0
  5  6  1  1
  7  8  2  0
 10 11  1  0
 10  9  1  6
 10 12  1  0
 12 13  1  6
 13  7  1  0
 14 12  1  0
 14 15  2  0
 16 20  1  0
 16 14  1  0
 17 16  1  0
 18 17  1  0
 18 19  1  0
 19 20  1  0
 20 21  1  6
 21 22  2  0
 21 23  1  0
M  END
$$$$
