ITP.pdb
     RDKit          3D

 23 23  0  0  1  0  0  0  0  0999 V2000
   19.1460  -16.1993  -17.3174 C   0  0  0  0  0  0  0  0  0  0  0  0
   18.6282  -15.3539  -16.1939 C   0  0  0  0  0  0  0  0  0  0  0  0
   18.2332  -13.9887  -16.6848 C   0  0  2  0  0  0  0  0  0  0  0  0
   19.3313  -13.3562  -17.5137 C   0  0  0  0  0  0  0  0  0  0  0  0
   17.6821  -13.0650  -15.6541 C   0  0  2  0  0  0  0  0  0  0  0  0
   16.4964  -13.7116  -15.0338 N   0  0  0  0  0  0  0  0  0  0  0  0
   17.2168  -11.7618  -16.1296 C   0  0  0  0  0  0  0  0  0  0  0  0
   16.5643  -11.6440  -17.2323 O   0  0  0  0  0  0  0  0  0  0  0  0
   14.6636   -9.7633  -15.0737 C   0  0  0  0  0  0  0  0  0  0  0  0
   15.8414   -8.8566  -14.9178 C   0  0  1  0  0  0  0  0  0  0  0  0
   16.5400   -9.1158  -13.7105 O   0  0  0  0  0  0  0  0  0  0  0  0
   16.8566   -9.2504  -16.0130 C   0  0  2  0  0  0  0  0  0  0  0  0
   17.4061  -10.5137  -15.4784 N   0  0  0  0  0  0  0  0  0  0  0  0
   17.9081   -8.2075  -16.0550 C   0  0  0  0  0  0  0  0  0  0  0  0
   18.7514   -8.2211  -15.1105 O   0  0  0  0  0  0  0  0  0  0  0  0
   17.9572   -7.2487  -17.1066 N   0  0  0  0  0  0  0  0  0  0  0  0
   17.1338   -7.2227  -18.2710 C   0  0  0  0  0  0  0  0  0  0  0  0
   17.0218   -5.7121  -18.5387 C   0  0  0  0  0  0  0  0  0  0  0  0
   18.4884   -5.3048  -18.2947 C   0  0  0  0  0  0  0  0  0  0  0  0
   18.9061   -6.1887  -17.1522 C   0  0  1  0  0  0  0  0  0  0  0  0
   18.9210   -5.4401  -15.8694 C   0  0  0  0  0  0  0  0  0  0  0  0
   18.0207   -5.6335  -15.0363 O   0  0  0  0  0  0  0  0  0  0  0  0
   19.9241   -4.5410  -15.6090 O   0  0  0  0  0  0  0  0  0  0  0  0
  1  2  1  0
  3  5  1  0
  3  2  1  0
  3  4  1  1
  5  7  1  0
  5  6  1  6
  7  8  2  0
 10 11  1  0
 10  9  1  1
 10 12  1  0
 12 13  1  1
 13  7  1  0
 14 12  1  0
 14 15  2  0
 16 20  1  0
 16 14  1  0
 17 16  1  0
 18 17  1  0
 18 19  1  0
 19 20  1  0
 20 21  1  1
 21 22  2  0
 21 23  1  0
M  END
$$$$
