ITP.pdb
     RDKit          3D

 23 23  0  0  1  0  0  0  0  0999 V2000
   21.0331  -18.7791  -14.7698 C   0  0  0  0  0  0  0  0  0  0  0  0
   21.9822  -18.5846  -15.9129 C   0  0  0  0  0  0  0  0  0  0  0  0
   22.8938  -17.4153  -15.6631 C   0  0  2  0  0  0  0  0  0  0  0  0
   22.1222  -16.1969  -15.2013 C   0  0  0  0  0  0  0  0  0  0  0  0
   23.8636  -17.1071  -16.7511 C   0  0  2  0  0  0  0  0  0  0  0  0
   24.6836  -18.3207  -17.0032 N   0  0  0  0  0  0  0  0  0  0  0  0
   24.8208  -16.0328  -16.4852 C   0  0  0  0  0  0  0  0  0  0  0  0
   25.8130  -16.2017  -15.6834 O   0  0  0  0  0  0  0  0  0  0  0  0
   27.5318  -15.1381  -17.7998 C   0  0  0  0  0  0  0  0  0  0  0  0
   26.7652  -13.8686  -17.9852 C   0  0  1  0  0  0  0  0  0  0  0  0
   25.8595  -13.9631  -19.0731 O   0  0  0  0  0  0  0  0  0  0  0  0
   25.8394  -13.7223  -16.7577 C   0  0  2  0  0  0  0  0  0  0  0  0
   24.7941  -14.7269  -17.0434 N   0  0  0  0  0  0  0  0  0  0  0  0
   25.2635  -12.3574  -16.7822 C   0  0  0  0  0  0  0  0  0  0  0  0
   24.3928  -12.1307  -17.6733 O   0  0  0  0  0  0  0  0  0  0  0  0
   25.6744  -11.3644  -15.8482 N   0  0  0  0  0  0  0  0  0  0  0  0
   26.6056  -11.5357  -14.7814 C   0  0  0  0  0  0  0  0  0  0  0  0
   27.2468  -10.1398  -14.7016 C   0  0  0  0  0  0  0  0  0  0  0  0
   25.9799   -9.2733  -14.8449 C   0  0  0  0  0  0  0  0  0  0  0  0
   25.1458  -10.0429  -15.8314 C   0  0  1  0  0  0  0  0  0  0  0  0
   25.2113   -9.4326  -17.1840 C   0  0  0  0  0  0  0  0  0  0  0  0
   26.0469   -9.8470  -18.0037 O   0  0  0  0  0  0  0  0  0  0  0  0
   24.3529   -8.4174  -17.5232 O   0  0  0  0  0  0  0  0  0  0  0  0
  1  2  1  0
  3  5  1  0
  3  2  1  0
  3  4  1  6
  5  7  1  0
  5  6  1  1
  7  8  2  0
 10 11  1  0
 10  9  1  1
 10 12  1  0
 12 13  1  6
 13  7  1  0
 14 12  1  0
 14 15  2  0
 16 20  1  0
 16 14  1  0
 17 16  1  0
 18 17  1  0
 18 19  1  0
 19 20  1  0
 20 21  1  6
 21 22  2  0
 21 23  1  0
M  END
$$$$
