ITP.pdb
     RDKit          3D

 23 23  0  0  1  0  0  0  0  0999 V2000
   27.3463  -18.9806   -6.6007 C   0  0  0  0  0  0  0  0  0  0  0  0
   27.0133  -20.4234   -6.8304 C   0  0  0  0  0  0  0  0  0  0  0  0
   26.8963  -20.7219   -8.2994 C   0  0  2  0  0  0  0  0  0  0  0  0
   28.1850  -20.4168   -9.0336 C   0  0  0  0  0  0  0  0  0  0  0  0
   25.6963  -20.1600   -8.9801 C   0  0  2  0  0  0  0  0  0  0  0  0
   24.5505  -21.0746   -8.7370 N   0  0  0  0  0  0  0  0  0  0  0  0
   25.7814  -20.0124  -10.4334 C   0  0  0  0  0  0  0  0  0  0  0  0
   26.4359  -19.0444  -10.9721 O   0  0  0  0  0  0  0  0  0  0  0  0
   27.3995  -21.7145  -12.9526 C   0  0  0  0  0  0  0  0  0  0  0  0
   25.9761  -21.8248  -13.3944 C   0  0  1  0  0  0  0  0  0  0  0  0
   25.3162  -22.9057  -12.7549 O   0  0  0  0  0  0  0  0  0  0  0  0
   25.2411  -20.5808  -12.8491 C   0  0  2  0  0  0  0  0  0  0  0  0
   25.1900  -20.8684  -11.4005 N   0  0  0  0  0  0  0  0  0  0  0  0
   23.8748  -20.5721  -13.4218 C   0  0  0  0  0  0  0  0  0  0  0  0
   23.0854  -21.4709  -13.0063 O   0  0  0  0  0  0  0  0  0  0  0  0
   23.4828  -19.5997  -14.3851 N   0  0  0  0  0  0  0  0  0  0  0  0
   24.2697  -18.5082  -14.8585 C   0  0  0  0  0  0  0  0  0  0  0  0
   23.7715  -18.3713  -16.3073 C   0  0  0  0  0  0  0  0  0  0  0  0
   22.2572  -18.5329  -16.0682 C   0  0  0  0  0  0  0  0  0  0  0  0
   22.1888  -19.5655  -14.9772 C   0  0  1  0  0  0  0  0  0  0  0  0
   21.8230  -20.8989  -15.5199 C   0  0  0  0  0  0  0  0  0  0  0  0
   22.7167  -21.7189  -15.7855 O   0  0  0  0  0  0  0  0  0  0  0  0
   20.5050  -21.2201  -15.7255 O   0  0  0  0  0  0  0  0  0  0  0  0
  1  2  1  0
  3  5  1  0
  3  2  1  0
  3  4  1  6
  5  7  1  0
  5  6  1  6
  7  8  2  0
 10 11  1  0
 10  9  1  1
 10 12  1  0
 12 13  1  1
 13  7  1  0
 14 12  1  0
 14 15  2  0
 16 20  1  0
 16 14  1  0
 17 16  1  0
 18 17  1  0
 18 19  1  0
 19 20  1  0
 20 21  1  6
 21 22  2  0
 21 23  1  0
M  END
$$$$
