ITP.pdb
     RDKit          3D

 23 23  0  0  1  0  0  0  0  0999 V2000
   24.2060  -15.5694  -16.2486 C   0  0  0  0  0  0  0  0  0  0  0  0
   23.5024  -14.6442  -15.3029 C   0  0  0  0  0  0  0  0  0  0  0  0
   23.6034  -13.2184  -15.7692 C   0  0  2  0  0  0  0  0  0  0  0  0
   25.0440  -12.8036  -15.9832 C   0  0  0  0  0  0  0  0  0  0  0  0
   22.8266  -12.2227  -14.9790 C   0  0  2  0  0  0  0  0  0  0  0  0
   21.4052  -12.6557  -14.9505 N   0  0  0  0  0  0  0  0  0  0  0  0
   22.8112  -10.8527  -15.4927 C   0  0  0  0  0  0  0  0  0  0  0  0
   23.8474  -10.0942  -15.4115 O   0  0  0  0  0  0  0  0  0  0  0  0
   20.7834   -7.4401  -18.3494 C   0  0  0  0  0  0  0  0  0  0  0  0
   20.8447   -8.8350  -17.8169 C   0  0  1  0  0  0  0  0  0  0  0  0
   21.5023   -9.7079  -18.7216 O   0  0  0  0  0  0  0  0  0  0  0  0
   21.7882   -8.8058  -16.5945 C   0  0  2  0  0  0  0  0  0  0  0  0
   21.7146  -10.2032  -16.1199 N   0  0  0  0  0  0  0  0  0  0  0  0
   21.2027   -7.8881  -15.5895 C   0  0  0  0  0  0  0  0  0  0  0  0
   20.0465   -8.1830  -15.1653 O   0  0  0  0  0  0  0  0  0  0  0  0
   21.9123   -6.7413  -15.1329 N   0  0  0  0  0  0  0  0  0  0  0  0
   23.2297   -6.3501  -15.5151 C   0  0  0  0  0  0  0  0  0  0  0  0
   23.1328   -4.8169  -15.4394 C   0  0  0  0  0  0  0  0  0  0  0  0
   22.3513   -4.6799  -14.1177 C   0  0  0  0  0  0  0  0  0  0  0  0
   21.3945   -5.8390  -14.1614 C   0  0  1  0  0  0  0  0  0  0  0  0
   20.0265   -5.3946  -14.5322 C   0  0  0  0  0  0  0  0  0  0  0  0
   19.7024   -5.3428  -15.7298 O   0  0  0  0  0  0  0  0  0  0  0  0
   19.1286   -5.0440  -13.5559 O   0  0  0  0  0  0  0  0  0  0  0  0
  1  2  1  0
  3  5  1  0
  3  2  1  0
  3  4  1  1
  5  7  1  0
  5  6  1  6
  7  8  2  0
 10 11  1  0
 10  9  1  6
 10 12  1  0
 12 13  1  1
 13  7  1  0
 14 12  1  0
 14 15  2  0
 16 20  1  0
 16 14  1  0
 17 16  1  0
 18 17  1  0
 18 19  1  0
 19 20  1  0
 20 21  1  6
 21 22  2  0
 21 23  1  0
M  END
$$$$
