ITP.pdb
     RDKit          3D

 23 23  0  0  1  0  0  0  0  0999 V2000
   24.3225   -9.7418  -14.5760 C   0  0  0  0  0  0  0  0  0  0  0  0
   24.9298   -9.6051  -15.9390 C   0  0  0  0  0  0  0  0  0  0  0  0
   26.3236  -10.1684  -15.9666 C   0  0  2  0  0  0  0  0  0  0  0  0
   27.3676   -9.0719  -15.9422 C   0  0  0  0  0  0  0  0  0  0  0  0
   26.5864  -11.1934  -17.0153 C   0  0  2  0  0  0  0  0  0  0  0  0
   25.7164  -12.3683  -16.7482 N   0  0  0  0  0  0  0  0  0  0  0  0
   27.9498  -11.7200  -17.0839 C   0  0  0  0  0  0  0  0  0  0  0  0
   28.4614  -12.3864  -16.1092 O   0  0  0  0  0  0  0  0  0  0  0  0
   29.4385  -14.3891  -18.5301 C   0  0  0  0  0  0  0  0  0  0  0  0
   30.1576  -13.2508  -19.1787 C   0  0  1  0  0  0  0  0  0  0  0  0
   29.3931  -12.6865  -20.2323 O   0  0  0  0  0  0  0  0  0  0  0  0
   30.2277  -12.1139  -18.1358 C   0  0  2  0  0  0  0  0  0  0  0  0
   28.8501  -11.5808  -18.1738 N   0  0  0  0  0  0  0  0  0  0  0  0
   31.1871  -11.0998  -18.6319 C   0  0  0  0  0  0  0  0  0  0  0  0
   30.7808  -10.3535  -19.5708 O   0  0  0  0  0  0  0  0  0  0  0  0
   32.4916  -10.9804  -18.0739 N   0  0  0  0  0  0  0  0  0  0  0  0
   33.0069  -11.7032  -16.9574 C   0  0  0  0  0  0  0  0  0  0  0  0
   34.4962  -11.8208  -17.3239 C   0  0  0  0  0  0  0  0  0  0  0  0
   34.7422  -10.3879  -17.8364 C   0  0  0  0  0  0  0  0  0  0  0  0
   33.4606  -10.0513  -18.5471 C   0  0  1  0  0  0  0  0  0  0  0  0
   33.6173  -10.1587  -20.0202 C   0  0  0  0  0  0  0  0  0  0  0  0
   34.0758   -9.1980  -20.6596 O   0  0  0  0  0  0  0  0  0  0  0  0
   33.2569  -11.3131  -20.6682 O   0  0  0  0  0  0  0  0  0  0  0  0
  1  2  1  0
  3  5  1  0
  3  2  1  0
  3  4  1  6
  5  7  1  0
  5  6  1  1
  7  8  2  0
 10 11  1  0
 10  9  1  1
 10 12  1  0
 12 13  1  6
 13  7  1  0
 14 12  1  0
 14 15  2  0
 16 20  1  0
 16 14  1  0
 17 16  1  0
 18 17  1  0
 18 19  1  0
 19 20  1  0
 20 21  1  6
 21 22  2  0
 21 23  1  0
M  END
$$$$
