ITP.pdb
     RDKit          3D

 23 23  0  0  1  0  0  0  0  0999 V2000
   19.7793  -18.8764  -19.8378 C   0  0  0  0  0  0  0  0  0  0  0  0
   19.8228  -19.4233  -18.4434 C   0  0  0  0  0  0  0  0  0  0  0  0
   21.2392  -19.5280  -17.9498 C   0  0  2  0  0  0  0  0  0  0  0  0
   22.1131  -20.2897  -18.9240 C   0  0  0  0  0  0  0  0  0  0  0  0
   21.4016  -19.9915  -16.5434 C   0  0  2  0  0  0  0  0  0  0  0  0
   20.7244  -19.0164  -15.6493 N   0  0  0  0  0  0  0  0  0  0  0  0
   22.7738  -20.0952  -16.0463 C   0  0  0  0  0  0  0  0  0  0  0  0
   23.6164  -20.9154  -16.5688 O   0  0  0  0  0  0  0  0  0  0  0  0
   25.7725  -17.7768  -15.7541 C   0  0  0  0  0  0  0  0  0  0  0  0
   25.2645  -18.1381  -14.3958 C   0  0  1  0  0  0  0  0  0  0  0  0
   24.1228  -17.3713  -14.0476 O   0  0  0  0  0  0  0  0  0  0  0  0
   24.7153  -19.5783  -14.4925 C   0  0  2  0  0  0  0  0  0  0  0  0
   23.3394  -19.3471  -14.9794 N   0  0  0  0  0  0  0  0  0  0  0  0
   24.6897  -20.1483  -13.1253 C   0  0  0  0  0  0  0  0  0  0  0  0
   23.6555  -19.9076  -12.4352 O   0  0  0  0  0  0  0  0  0  0  0  0
   25.7747  -20.9238  -12.6268 N   0  0  0  0  0  0  0  0  0  0  0  0
   26.9509  -21.2970  -13.3424 C   0  0  0  0  0  0  0  0  0  0  0  0
   28.0011  -21.3288  -12.2190 C   0  0  0  0  0  0  0  0  0  0  0  0
   27.1794  -22.0427  -11.1276 C   0  0  0  0  0  0  0  0  0  0  0  0
   25.7951  -21.4880  -11.3202 C   0  0  1  0  0  0  0  0  0  0  0  0
   25.4804  -20.4580  -10.2973 C   0  0  0  0  0  0  0  0  0  0  0  0
   25.6534  -19.2574  -10.5628 O   0  0  0  0  0  0  0  0  0  0  0  0
   25.0017  -20.8333   -9.0674 O   0  0  0  0  0  0  0  0  0  0  0  0
  1  2  1  0
  3  5  1  0
  3  2  1  0
  3  4  1  6
  5  7  1  0
  5  6  1  1
  7  8  2  0
 10 11  1  0
 10  9  1  6
 10 12  1  0
 12 13  1  1
 13  7  1  0
 14 12  1  0
 14 15  2  0
 16 20  1  0
 16 14  1  0
 17 16  1  0
 18 17  1  0
 18 19  1  0
 19 20  1  0
 20 21  1  1
 21 22  2  0
 21 23  1  0
M  END
$$$$
