WWL.pdb
     RDKit          3D

 37 40  0  0  1  0  0  0  0  0999 V2000
   23.7899  -20.7854  -15.2569 N   0  0  0  0  0  0  0  0  0  0  0  0
   24.4423  -20.1502  -14.1312 C   0  0  1  0  0  0  0  0  0  0  0  0
   23.3595  -19.9550  -13.0594 C   0  0  0  0  0  0  0  0  0  0  0  0
   22.1726  -19.2937  -13.6709 C   0  0  0  0  0  0  0  0  0  0  0  0
   20.8617  -19.7373  -13.6276 C   0  0  0  0  0  0  0  0  0  0  0  0
   20.0710  -18.8672  -14.3009 N   0  0  0  0  0  0  0  0  0  0  0  0
   20.8125  -17.8620  -14.7893 C   0  0  0  0  0  0  0  0  0  0  0  0
   20.4898  -16.7468  -15.5316 C   0  0  0  0  0  0  0  0  0  0  0  0
   21.5189  -15.8985  -15.8729 C   0  0  0  0  0  0  0  0  0  0  0  0
   22.8324  -16.1408  -15.4939 C   0  0  0  0  0  0  0  0  0  0  0  0
   23.1179  -17.2610  -14.7551 C   0  0  0  0  0  0  0  0  0  0  0  0
   22.1215  -18.1253  -14.3982 C   0  0  0  0  0  0  0  0  0  0  0  0
   25.5242  -21.0323  -13.6312 C   0  0  0  0  0  0  0  0  0  0  0  0
   25.4099  -22.2918  -13.8012 O   0  0  0  0  0  0  0  0  0  0  0  0
   26.6459  -20.4519  -12.9840 N   0  0  0  0  0  0  0  0  0  0  0  0
   27.6067  -21.2497  -12.2633 C   0  0  1  0  0  0  0  0  0  0  0  0
   28.9146  -20.5253  -12.2268 C   0  0  0  0  0  0  0  0  0  0  0  0
   30.0259  -21.3153  -11.6998 C   0  0  0  0  0  0  0  0  0  0  0  0
   30.7696  -22.2033  -12.4392 C   0  0  0  0  0  0  0  0  0  0  0  0
   31.6909  -22.7395  -11.6470 N   0  0  0  0  0  0  0  0  0  0  0  0
   31.5750  -22.2333  -10.4177 C   0  0  0  0  0  0  0  0  0  0  0  0
   32.2989  -22.4723   -9.2439 C   0  0  0  0  0  0  0  0  0  0  0  0
   31.9694  -21.8051   -8.0872 C   0  0  0  0  0  0  0  0  0  0  0  0
   30.9293  -20.9088   -8.0996 C   0  0  0  0  0  0  0  0  0  0  0  0
   30.1929  -20.6493   -9.2443 C   0  0  0  0  0  0  0  0  0  0  0  0
   30.5241  -21.3244  -10.4200 C   0  0  0  0  0  0  0  0  0  0  0  0
   27.0593  -21.6179  -10.9415 C   0  0  0  0  0  0  0  0  0  0  0  0
   26.5727  -22.7773  -10.8213 O   0  0  0  0  0  0  0  0  0  0  0  0
   26.7005  -18.9459   -6.1378 C   0  0  0  0  0  0  0  0  0  0  0  0
   27.7878  -19.6153   -6.8939 C   0  0  1  0  0  0  0  0  0  0  0  0
   29.0786  -19.5791   -6.0565 C   0  0  0  0  0  0  0  0  0  0  0  0
   27.5489  -20.9325   -7.4873 C   0  0  0  0  0  0  0  0  0  0  0  0
   26.5092  -21.1256   -8.5056 C   0  0  2  0  0  0  0  0  0  0  0  0
   27.0470  -20.7772   -9.8410 N   0  0  0  0  0  0  0  0  0  0  0  0
   25.2326  -20.4502   -8.4130 C   0  0  0  0  0  0  0  0  0  0  0  0
   24.2925  -20.7490   -7.4588 O   0  0  0  0  0  0  0  0  0  0  0  0
   24.9153  -19.5424   -9.2242 O   0  0  0  0  0  0  0  0  0  0  0  0
  2  1  1  6
  3  2  1  0
  3  4  1  0
  4 12  1  0
  4  5  2  0
  5  6  1  0
  7  6  1  0
  7  8  2  0
  9  8  1  0
 10  9  2  0
 11 10  1  0
 11 12  2  0
 12  7  1  0
 13  2  1  0
 14 13  2  0
 15 13  1  0
 16 17  1  1
 16 15  1  0
 17 18  1  0
 18 19  2  0
 19 20  1  0
 21 20  1  0
 22 21  2  0
 23 22  1  0
 24 25  1  0
 24 23  2  0
 25 26  2  0
 26 18  1  0
 26 21  1  0
 27 16  1  0
 28 27  2  0
 30 29  1  1
 30 31  1  0
 33 32  1  1
 32 30  1  0
 33 34  1  0
 34 27  1  0
 35 36  1  0
 35 33  1  0
 37 35  2  0
M  END
$$$$
