WWL.pdb
     RDKit          3D

 37 40  0  0  1  0  0  0  0  0999 V2000
   27.8724  -21.2441  -17.9639 N   0  0  0  0  0  0  0  0  0  0  0  0
   27.3714  -22.4090  -17.2650 C   0  0  1  0  0  0  0  0  0  0  0  0
   28.5679  -23.3570  -17.0944 C   0  0  0  0  0  0  0  0  0  0  0  0
   29.1559  -23.6558  -18.4304 C   0  0  0  0  0  0  0  0  0  0  0  0
   30.4307  -23.3364  -18.8660 C   0  0  0  0  0  0  0  0  0  0  0  0
   30.5923  -23.7716  -20.1388 N   0  0  0  0  0  0  0  0  0  0  0  0
   29.4685  -24.3685  -20.5623 C   0  0  0  0  0  0  0  0  0  0  0  0
   29.1285  -24.9656  -21.7568 C   0  0  0  0  0  0  0  0  0  0  0  0
   27.8607  -25.4924  -21.8587 C   0  0  0  0  0  0  0  0  0  0  0  0
   26.9500  -25.4335  -20.8123 C   0  0  0  0  0  0  0  0  0  0  0  0
   27.3220  -24.8316  -19.6370 C   0  0  0  0  0  0  0  0  0  0  0  0
   28.5724  -24.2978  -19.5001 C   0  0  0  0  0  0  0  0  0  0  0  0
   26.8360  -21.9952  -15.9456 C   0  0  0  0  0  0  0  0  0  0  0  0
   26.5252  -22.9022  -15.1034 O   0  0  0  0  0  0  0  0  0  0  0  0
   26.6875  -20.6126  -15.6624 N   0  0  0  0  0  0  0  0  0  0  0  0
   26.2377  -20.1426  -14.3756 C   0  0  1  0  0  0  0  0  0  0  0  0
   27.2134  -19.1362  -13.8543 C   0  0  0  0  0  0  0  0  0  0  0  0
   27.3242  -17.9271  -14.6683 C   0  0  0  0  0  0  0  0  0  0  0  0
   26.6887  -16.7407  -14.3909 C   0  0  0  0  0  0  0  0  0  0  0  0
   27.0128  -15.8618  -15.3325 N   0  0  0  0  0  0  0  0  0  0  0  0
   27.8367  -16.4322  -16.2139 C   0  0  0  0  0  0  0  0  0  0  0  0
   28.4504  -15.9326  -17.3683 C   0  0  0  0  0  0  0  0  0  0  0  0
   29.2714  -16.7450  -18.1149 C   0  0  0  0  0  0  0  0  0  0  0  0
   29.4792  -18.0422  -17.7156 C   0  0  0  0  0  0  0  0  0  0  0  0
   28.8871  -18.5677  -16.5783 C   0  0  0  0  0  0  0  0  0  0  0  0
   28.0533  -17.7464  -15.8180 C   0  0  0  0  0  0  0  0  0  0  0  0
   24.8430  -19.6661  -14.4774 C   0  0  0  0  0  0  0  0  0  0  0  0
   24.2891  -19.2719  -13.4128 O   0  0  0  0  0  0  0  0  0  0  0  0
   22.0883  -18.8767  -18.9535 C   0  0  0  0  0  0  0  0  0  0  0  0
   23.0432  -18.0801  -18.1437 C   0  0  1  0  0  0  0  0  0  0  0  0
   23.3156  -16.7442  -18.8577 C   0  0  0  0  0  0  0  0  0  0  0  0
   22.8014  -17.9033  -16.7104 C   0  0  0  0  0  0  0  0  0  0  0  0
   22.7576  -19.0566  -15.8031 C   0  0  2  0  0  0  0  0  0  0  0  0
   24.1161  -19.6280  -15.6555 N   0  0  0  0  0  0  0  0  0  0  0  0
   21.8884  -20.1841  -16.0632 C   0  0  0  0  0  0  0  0  0  0  0  0
   20.5262  -20.0696  -16.1860 O   0  0  0  0  0  0  0  0  0  0  0  0
   22.3498  -21.3482  -16.1853 O   0  0  0  0  0  0  0  0  0  0  0  0
  2  1  1  1
  3  2  1  0
  3  4  1  0
  4 12  1  0
  4  5  2  0
  5  6  1  0
  7  6  1  0
  7  8  2  0
  9  8  1  0
 10  9  2  0
 11 10  1  0
 11 12  2  0
 12  7  1  0
 13  2  1  0
 14 13  2  0
 15 13  1  0
 16 17  1  6
 16 15  1  0
 17 18  1  0
 18 19  2  0
 19 20  1  0
 21 20  1  0
 22 21  2  0
 23 22  1  0
 24 25  1  0
 24 23  2  0
 25 26  2  0
 26 18  1  0
 26 21  1  0
 27 16  1  0
 28 27  2  0
 30 29  1  6
 30 31  1  0
 33 32  1  6
 32 30  1  0
 33 34  1  0
 34 27  1  0
 35 36  1  0
 35 33  1  0
 37 35  2  0
M  END
$$$$
