WWL.pdb
     RDKit          3D

 37 40  0  0  1  0  0  0  0  0999 V2000
   29.0241  -21.1972  -15.3949 N   0  0  0  0  0  0  0  0  0  0  0  0
   28.0036  -20.5612  -14.5882 C   0  0  1  0  0  0  0  0  0  0  0  0
   27.0409  -19.8781  -15.5710 C   0  0  0  0  0  0  0  0  0  0  0  0
   27.6982  -18.6724  -16.1491 C   0  0  0  0  0  0  0  0  0  0  0  0
   28.5524  -18.6350  -17.2381 C   0  0  0  0  0  0  0  0  0  0  0  0
   28.9455  -17.3570  -17.4565 N   0  0  0  0  0  0  0  0  0  0  0  0
   28.3813  -16.5456  -16.5498 C   0  0  0  0  0  0  0  0  0  0  0  0
   28.4602  -15.1851  -16.3459 C   0  0  0  0  0  0  0  0  0  0  0  0
   27.7358  -14.6626  -15.2983 C   0  0  0  0  0  0  0  0  0  0  0  0
   26.9535  -15.4581  -14.4719 C   0  0  0  0  0  0  0  0  0  0  0  0
   26.8981  -16.8091  -14.7037 C   0  0  0  0  0  0  0  0  0  0  0  0
   27.6041  -17.3624  -15.7345 C   0  0  0  0  0  0  0  0  0  0  0  0
   27.2970  -21.5925  -13.7908 C   0  0  0  0  0  0  0  0  0  0  0  0
   27.0637  -22.7250  -14.3307 O   0  0  0  0  0  0  0  0  0  0  0  0
   26.9055  -21.2898  -12.4608 N   0  0  0  0  0  0  0  0  0  0  0  0
   25.7552  -21.9053  -11.8466 C   0  0  1  0  0  0  0  0  0  0  0  0
   26.0635  -22.1954  -10.4122 C   0  0  0  0  0  0  0  0  0  0  0  0
   26.5506  -21.0430   -9.6561 C   0  0  0  0  0  0  0  0  0  0  0  0
   25.7935  -19.9392   -9.3453 C   0  0  0  0  0  0  0  0  0  0  0  0
   26.5497  -19.0937   -8.6543 N   0  0  0  0  0  0  0  0  0  0  0  0
   27.7725  -19.6064   -8.5032 C   0  0  0  0  0  0  0  0  0  0  0  0
   28.9134  -19.1110   -7.8613 C   0  0  0  0  0  0  0  0  0  0  0  0
   30.0710  -19.8536   -7.8504 C   0  0  0  0  0  0  0  0  0  0  0  0
   30.0919  -21.0774   -8.4726 C   0  0  0  0  0  0  0  0  0  0  0  0
   28.9804  -21.5966   -9.1167 C   0  0  0  0  0  0  0  0  0  0  0  0
   27.8038  -20.8460   -9.1300 C   0  0  0  0  0  0  0  0  0  0  0  0
   24.5600  -21.0666  -12.0715 C   0  0  0  0  0  0  0  0  0  0  0  0
   24.7144  -19.8145  -12.0108 O   0  0  0  0  0  0  0  0  0  0  0  0
   21.1876  -21.0891  -16.4521 C   0  0  0  0  0  0  0  0  0  0  0  0
   21.1773  -21.3144  -14.9854 C   0  0  1  0  0  0  0  0  0  0  0  0
   21.2977  -22.8234  -14.7077 C   0  0  0  0  0  0  0  0  0  0  0  0
   22.0595  -20.5209  -14.1273 C   0  0  0  0  0  0  0  0  0  0  0  0
   22.1087  -20.7480  -12.6778 C   0  0  2  0  0  0  0  0  0  0  0  0
   23.2965  -21.5658  -12.3402 N   0  0  0  0  0  0  0  0  0  0  0  0
   21.0022  -21.3624  -11.9759 C   0  0  0  0  0  0  0  0  0  0  0  0
   19.7446  -20.8146  -11.9306 O   0  0  0  0  0  0  0  0  0  0  0  0
   21.1458  -22.4475  -11.3556 O   0  0  0  0  0  0  0  0  0  0  0  0
  2  1  1  6
  3  2  1  0
  3  4  1  0
  4 12  1  0
  4  5  2  0
  5  6  1  0
  7  6  1  0
  7  8  2  0
  9  8  1  0
 10  9  2  0
 11 10  1  0
 11 12  2  0
 12  7  1  0
 13  2  1  0
 14 13  2  0
 15 13  1  0
 16 17  1  1
 16 15  1  0
 17 18  1  0
 18 19  2  0
 19 20  1  0
 21 20  1  0
 22 21  2  0
 23 22  1  0
 24 25  1  0
 24 23  2  0
 25 26  2  0
 26 18  1  0
 26 21  1  0
 27 16  1  0
 28 27  2  0
 30 29  1  6
 30 31  1  0
 33 32  1  6
 32 30  1  0
 33 34  1  0
 34 27  1  0
 35 36  1  0
 35 33  1  0
 37 35  2  0
M  END
$$$$
