WWL.pdb
     RDKit          3D

 37 40  0  0  1  0  0  0  0  0999 V2000
   25.3921  -18.9571   -9.3198 N   0  0  0  0  0  0  0  0  0  0  0  0
   26.2524  -19.9871   -9.8635 C   0  0  1  0  0  0  0  0  0  0  0  0
   26.1655  -21.1765   -8.8954 C   0  0  0  0  0  0  0  0  0  0  0  0
   26.5091  -20.7197   -7.5195 C   0  0  0  0  0  0  0  0  0  0  0  0
   25.6222  -20.3532   -6.5214 C   0  0  0  0  0  0  0  0  0  0  0  0
   26.3158  -19.9957   -5.4138 N   0  0  0  0  0  0  0  0  0  0  0  0
   27.6320  -20.1126   -5.6431 C   0  0  0  0  0  0  0  0  0  0  0  0
   28.7360  -19.8754   -4.8532 C   0  0  0  0  0  0  0  0  0  0  0  0
   29.9722  -20.1034   -5.4145 C   0  0  0  0  0  0  0  0  0  0  0  0
   30.1191  -20.5532   -6.7199 C   0  0  0  0  0  0  0  0  0  0  0  0
   28.9983  -20.7790   -7.4780 C   0  0  0  0  0  0  0  0  0  0  0  0
   27.7550  -20.5634   -6.9536 C   0  0  0  0  0  0  0  0  0  0  0  0
   25.7664  -20.3694  -11.2113 C   0  0  0  0  0  0  0  0  0  0  0  0
   24.5082  -20.4698  -11.3986 O   0  0  0  0  0  0  0  0  0  0  0  0
   26.7097  -20.6093  -12.2440 N   0  0  0  0  0  0  0  0  0  0  0  0
   26.3037  -20.8377  -13.6085 C   0  0  1  0  0  0  0  0  0  0  0  0
   27.3533  -20.2988  -14.5276 C   0  0  0  0  0  0  0  0  0  0  0  0
   27.2397  -18.8666  -14.7973 C   0  0  0  0  0  0  0  0  0  0  0  0
   26.2174  -18.0677  -14.3447 C   0  0  0  0  0  0  0  0  0  0  0  0
   26.4326  -16.8291  -14.7734 N   0  0  0  0  0  0  0  0  0  0  0  0
   27.5582  -16.7915  -15.4891 C   0  0  0  0  0  0  0  0  0  0  0  0
   28.2058  -15.7382  -16.1450 C   0  0  0  0  0  0  0  0  0  0  0  0
   29.3780  -15.9715  -16.8257 C   0  0  0  0  0  0  0  0  0  0  0  0
   29.8999  -17.2411  -16.8526 C   0  0  0  0  0  0  0  0  0  0  0  0
   29.2841  -18.3055  -16.2139 C   0  0  0  0  0  0  0  0  0  0  0  0
   28.0945  -18.0728  -15.5222 C   0  0  0  0  0  0  0  0  0  0  0  0
   25.9784  -22.2659  -13.8007 C   0  0  0  0  0  0  0  0  0  0  0  0
   26.8210  -23.1102  -13.3852 O   0  0  0  0  0  0  0  0  0  0  0  0
   20.6227  -24.2171  -14.1862 C   0  0  0  0  0  0  0  0  0  0  0  0
   21.9460  -23.5483  -14.1263 C   0  0  1  0  0  0  0  0  0  0  0  0
   21.8198  -22.2573  -13.2981 C   0  0  0  0  0  0  0  0  0  0  0  0
   23.1319  -24.3264  -13.7626 C   0  0  0  0  0  0  0  0  0  0  0  0
   24.4022  -24.1467  -14.4762 C   0  0  2  0  0  0  0  0  0  0  0  0
   24.8200  -22.7276  -14.4030 N   0  0  0  0  0  0  0  0  0  0  0  0
   24.5417  -24.5211  -15.8672 C   0  0  0  0  0  0  0  0  0  0  0  0
   24.7709  -23.6124  -16.8700 O   0  0  0  0  0  0  0  0  0  0  0  0
   24.4511  -25.7220  -16.2312 O   0  0  0  0  0  0  0  0  0  0  0  0
  2  1  1  1
  3  2  1  0
  3  4  1  0
  4 12  1  0
  4  5  2  0
  5  6  1  0
  7  6  1  0
  7  8  2  0
  9  8  1  0
 10  9  2  0
 11 10  1  0
 11 12  2  0
 12  7  1  0
 13  2  1  0
 14 13  2  0
 15 13  1  0
 16 17  1  6
 16 15  1  0
 17 18  1  0
 18 19  2  0
 19 20  1  0
 21 20  1  0
 22 21  2  0
 23 22  1  0
 24 25  1  0
 24 23  2  0
 25 26  2  0
 26 18  1  0
 26 21  1  0
 27 16  1  0
 28 27  2  0
 30 29  1  1
 30 31  1  0
 33 32  1  6
 32 30  1  0
 33 34  1  0
 34 27  1  0
 35 36  1  0
 35 33  1  0
 37 35  2  0
M  END
$$$$
