WWL.pdb
     RDKit          3D

 37 40  0  0  1  0  0  0  0  0999 V2000
   28.2081  -20.5922   -9.2636 N   0  0  0  0  0  0  0  0  0  0  0  0
   26.7619  -20.5688   -9.1953 C   0  0  1  0  0  0  0  0  0  0  0  0
   26.3969  -19.5004   -8.1539 C   0  0  0  0  0  0  0  0  0  0  0  0
   27.5446  -19.3040   -7.2243 C   0  0  0  0  0  0  0  0  0  0  0  0
   28.5950  -18.4154   -7.3793 C   0  0  0  0  0  0  0  0  0  0  0  0
   29.4410  -18.5327   -6.3276 N   0  0  0  0  0  0  0  0  0  0  0  0
   28.9878  -19.4685   -5.4806 C   0  0  0  0  0  0  0  0  0  0  0  0
   29.4751  -19.9531   -4.2862 C   0  0  0  0  0  0  0  0  0  0  0  0
   28.7438  -20.9378   -3.6612 C   0  0  0  0  0  0  0  0  0  0  0  0
   27.5629  -21.4336   -4.1972 C   0  0  0  0  0  0  0  0  0  0  0  0
   27.1069  -20.9284   -5.3883 C   0  0  0  0  0  0  0  0  0  0  0  0
   27.8069  -19.9503   -6.0368 C   0  0  0  0  0  0  0  0  0  0  0  0
   26.2149  -20.2136  -10.5271 C   0  0  0  0  0  0  0  0  0  0  0  0
   26.6266  -19.1443  -11.0885 O   0  0  0  0  0  0  0  0  0  0  0  0
   25.2575  -21.0690  -11.1317 N   0  0  0  0  0  0  0  0  0  0  0  0
   24.7039  -20.7925  -12.4340 C   0  0  1  0  0  0  0  0  0  0  0  0
   25.3007  -21.7360  -13.4293 C   0  0  0  0  0  0  0  0  0  0  0  0
   26.5914  -21.3082  -13.9657 C   0  0  0  0  0  0  0  0  0  0  0  0
   27.7798  -21.9639  -13.7512 C   0  0  0  0  0  0  0  0  0  0  0  0
   28.7429  -21.3032  -14.3836 N   0  0  0  0  0  0  0  0  0  0  0  0
   28.2255  -20.2403  -15.0028 C   0  0  0  0  0  0  0  0  0  0  0  0
   28.8175  -19.2458  -15.7898 C   0  0  0  0  0  0  0  0  0  0  0  0
   28.0438  -18.2404  -16.3210 C   0  0  0  0  0  0  0  0  0  0  0  0
   26.6938  -18.2257  -16.0707 C   0  0  0  0  0  0  0  0  0  0  0  0
   26.0767  -19.1948  -15.2961 C   0  0  0  0  0  0  0  0  0  0  0  0
   26.8585  -20.2167  -14.7553 C   0  0  0  0  0  0  0  0  0  0  0  0
   23.2284  -20.8096  -12.3637 C   0  0  0  0  0  0  0  0  0  0  0  0
   22.7002  -21.5888  -11.5215 O   0  0  0  0  0  0  0  0  0  0  0  0
   20.2192  -17.4253  -11.4374 C   0  0  0  0  0  0  0  0  0  0  0  0
   19.6615  -17.8224  -12.7540 C   0  0  1  0  0  0  0  0  0  0  0  0
   19.2088  -16.5603  -13.5096 C   0  0  0  0  0  0  0  0  0  0  0  0
   20.4159  -18.7402  -13.6099 C   0  0  0  0  0  0  0  0  0  0  0  0
   20.9213  -20.0164  -13.0894 C   0  0  2  0  0  0  0  0  0  0  0  0
   22.4009  -20.0329  -13.1572 N   0  0  0  0  0  0  0  0  0  0  0  0
   20.4929  -21.2793  -13.6516 C   0  0  0  0  0  0  0  0  0  0  0  0
   19.4879  -22.0404  -13.1091 O   0  0  0  0  0  0  0  0  0  0  0  0
   21.0376  -21.7519  -14.6825 O   0  0  0  0  0  0  0  0  0  0  0  0
  2  1  1  6
  3  2  1  0
  3  4  1  0
  4 12  1  0
  4  5  2  0
  5  6  1  0
  7  6  1  0
  7  8  2  0
  9  8  1  0
 10  9  2  0
 11 10  1  0
 11 12  2  0
 12  7  1  0
 13  2  1  0
 14 13  2  0
 15 13  1  0
 16 17  1  6
 16 15  1  0
 17 18  1  0
 18 19  2  0
 19 20  1  0
 21 20  1  0
 22 21  2  0
 23 22  1  0
 24 25  1  0
 24 23  2  0
 25 26  2  0
 26 18  1  0
 26 21  1  0
 27 16  1  0
 28 27  2  0
 30 29  1  1
 30 31  1  0
 33 32  1  6
 32 30  1  0
 33 34  1  0
 34 27  1  0
 35 36  1  0
 35 33  1  0
 37 35  2  0
M  END
$$$$
