WWL.pdb
     RDKit          3D

 37 40  0  0  1  0  0  0  0  0999 V2000
   28.0256  -21.3827  -15.0715 N   0  0  0  0  0  0  0  0  0  0  0  0
   28.0350  -21.2552  -13.6292 C   0  0  1  0  0  0  0  0  0  0  0  0
   29.2011  -20.3157  -13.2872 C   0  0  0  0  0  0  0  0  0  0  0  0
   30.4804  -21.0778  -13.3371 C   0  0  0  0  0  0  0  0  0  0  0  0
   31.2554  -21.3252  -14.4575 C   0  0  0  0  0  0  0  0  0  0  0  0
   32.3409  -22.0532  -14.1005 N   0  0  0  0  0  0  0  0  0  0  0  0
   32.3123  -22.2971  -12.7821 C   0  0  0  0  0  0  0  0  0  0  0  0
   33.1682  -22.9811  -11.9463 C   0  0  0  0  0  0  0  0  0  0  0  0
   32.8314  -23.0411  -10.6128 C   0  0  0  0  0  0  0  0  0  0  0  0
   31.6818  -22.4436  -10.1137 C   0  0  0  0  0  0  0  0  0  0  0  0
   30.8520  -21.7706  -10.9743 C   0  0  0  0  0  0  0  0  0  0  0  0
   31.1547  -21.6906  -12.3044 C   0  0  0  0  0  0  0  0  0  0  0  0
   26.7451  -20.6774  -13.1807 C   0  0  0  0  0  0  0  0  0  0  0  0
   26.4423  -19.4973  -13.5602 O   0  0  0  0  0  0  0  0  0  0  0  0
   25.8932  -21.4502  -12.3494 N   0  0  0  0  0  0  0  0  0  0  0  0
   24.7968  -20.8590  -11.6232 C   0  0  1  0  0  0  0  0  0  0  0  0
   23.5199  -21.1452  -12.3474 C   0  0  0  0  0  0  0  0  0  0  0  0
   23.3125  -20.3339  -13.5456 C   0  0  0  0  0  0  0  0  0  0  0  0
   23.8972  -20.5813  -14.7643 C   0  0  0  0  0  0  0  0  0  0  0  0
   23.4885  -19.6523  -15.6212 N   0  0  0  0  0  0  0  0  0  0  0  0
   22.6585  -18.8082  -15.0053 C   0  0  0  0  0  0  0  0  0  0  0  0
   21.9714  -17.6799  -15.4676 C   0  0  0  0  0  0  0  0  0  0  0  0
   21.1623  -16.9708  -14.6107 C   0  0  0  0  0  0  0  0  0  0  0  0
   21.0389  -17.3815  -13.3064 C   0  0  0  0  0  0  0  0  0  0  0  0
   21.7050  -18.4937  -12.8171 C   0  0  0  0  0  0  0  0  0  0  0  0
   22.5269  -19.2159  -13.6835 C   0  0  0  0  0  0  0  0  0  0  0  0
   24.8306  -21.3068  -10.2157 C   0  0  0  0  0  0  0  0  0  0  0  0
   24.6954  -22.5440  -10.0007 O   0  0  0  0  0  0  0  0  0  0  0  0
   27.7482  -18.4389   -6.5951 C   0  0  0  0  0  0  0  0  0  0  0  0
   27.0855  -19.5883   -7.2597 C   0  0  1  0  0  0  0  0  0  0  0  0
   28.0315  -20.8018   -7.2269 C   0  0  0  0  0  0  0  0  0  0  0  0
   25.7146  -19.9441   -6.8881 C   0  0  0  0  0  0  0  0  0  0  0  0
   24.9242  -20.8685   -7.7102 C   0  0  2  0  0  0  0  0  0  0  0  0
   24.9983  -20.4607   -9.1322 N   0  0  0  0  0  0  0  0  0  0  0  0
   23.5200  -21.0968   -7.4446 C   0  0  0  0  0  0  0  0  0  0  0  0
   22.5243  -20.7590   -8.3268 O   0  0  0  0  0  0  0  0  0  0  0  0
   23.1374  -21.6209   -6.3668 O   0  0  0  0  0  0  0  0  0  0  0  0
  2  1  1  6
  3  2  1  0
  3  4  1  0
  4 12  1  0
  4  5  2  0
  5  6  1  0
  7  6  1  0
  7  8  2  0
  9  8  1  0
 10  9  2  0
 11 10  1  0
 11 12  2  0
 12  7  1  0
 13  2  1  0
 14 13  2  0
 15 13  1  0
 16 17  1  6
 16 15  1  0
 17 18  1  0
 18 19  2  0
 19 20  1  0
 21 20  1  0
 22 21  2  0
 23 22  1  0
 24 25  1  0
 24 23  2  0
 25 26  2  0
 26 18  1  0
 26 21  1  0
 27 16  1  0
 28 27  2  0
 30 29  1  1
 30 31  1  0
 33 32  1  1
 32 30  1  0
 33 34  1  0
 34 27  1  0
 35 36  1  0
 35 33  1  0
 37 35  2  0
M  END
$$$$
