WWL.pdb
     RDKit          3D

 37 40  0  0  1  0  0  0  0  0999 V2000
   26.1511  -18.5327  -18.2247 N   0  0  0  0  0  0  0  0  0  0  0  0
   25.7629  -19.8891  -17.8989 C   0  0  1  0  0  0  0  0  0  0  0  0
   26.8773  -20.4535  -17.0051 C   0  0  0  0  0  0  0  0  0  0  0  0
   26.6685  -21.9171  -16.8199 C   0  0  0  0  0  0  0  0  0  0  0  0
   27.0770  -22.9279  -17.6734 C   0  0  0  0  0  0  0  0  0  0  0  0
   26.7011  -24.1253  -17.1631 N   0  0  0  0  0  0  0  0  0  0  0  0
   26.0574  -23.9434  -16.0007 C   0  0  0  0  0  0  0  0  0  0  0  0
   25.4881  -24.8248  -15.1075 C   0  0  0  0  0  0  0  0  0  0  0  0
   24.8941  -24.2896  -13.9869 C   0  0  0  0  0  0  0  0  0  0  0  0
   24.8606  -22.9218  -13.7505 C   0  0  0  0  0  0  0  0  0  0  0  0
   25.4372  -22.0730  -14.6610 C   0  0  0  0  0  0  0  0  0  0  0  0
   26.0359  -22.5690  -15.7847 C   0  0  0  0  0  0  0  0  0  0  0  0
   24.4688  -19.8671  -17.1752 C   0  0  0  0  0  0  0  0  0  0  0  0
   24.4027  -19.2403  -16.0656 O   0  0  0  0  0  0  0  0  0  0  0  0
   23.3516  -20.5389  -17.7360 N   0  0  0  0  0  0  0  0  0  0  0  0
   22.0853  -20.6143  -17.0506 C   0  0  1  0  0  0  0  0  0  0  0  0
   21.1238  -19.6667  -17.6943 C   0  0  0  0  0  0  0  0  0  0  0  0
   19.8369  -19.5573  -17.0097 C   0  0  0  0  0  0  0  0  0  0  0  0
   19.6013  -18.7567  -15.9179 C   0  0  0  0  0  0  0  0  0  0  0  0
   18.3310  -18.9022  -15.5582 N   0  0  0  0  0  0  0  0  0  0  0  0
   17.7298  -19.7685  -16.3759 C   0  0  0  0  0  0  0  0  0  0  0  0
   16.4160  -20.2498  -16.4141 C   0  0  0  0  0  0  0  0  0  0  0  0
   16.0456  -21.1563  -17.3798 C   0  0  0  0  0  0  0  0  0  0  0  0
   16.9744  -21.5793  -18.2983 C   0  0  0  0  0  0  0  0  0  0  0  0
   18.2826  -21.1226  -18.2883 C   0  0  0  0  0  0  0  0  0  0  0  0
   18.6624  -20.2027  -17.3099 C   0  0  0  0  0  0  0  0  0  0  0  0
   21.6325  -22.0192  -16.9907 C   0  0  0  0  0  0  0  0  0  0  0  0
   20.6068  -22.2654  -16.2959 O   0  0  0  0  0  0  0  0  0  0  0  0
   19.0564  -26.2733  -16.9926 C   0  0  0  0  0  0  0  0  0  0  0  0
   19.5252  -25.6328  -18.2464 C   0  0  1  0  0  0  0  0  0  0  0  0
   18.3376  -25.4962  -19.2157 C   0  0  0  0  0  0  0  0  0  0  0  0
   20.3265  -24.4093  -18.1757 C   0  0  0  0  0  0  0  0  0  0  0  0
   21.7294  -24.4482  -17.7450 C   0  0  2  0  0  0  0  0  0  0  0  0
   22.2589  -23.0687  -17.6419 N   0  0  0  0  0  0  0  0  0  0  0  0
   22.7234  -25.1908  -18.4900 C   0  0  0  0  0  0  0  0  0  0  0  0
   23.2599  -26.3757  -18.0519 O   0  0  0  0  0  0  0  0  0  0  0  0
   23.1564  -24.7729  -19.5949 O   0  0  0  0  0  0  0  0  0  0  0  0
  2  1  1  1
  3  2  1  0
  3  4  1  0
  4 12  1  0
  4  5  2  0
  5  6  1  0
  7  6  1  0
  7  8  2  0
  9  8  1  0
 10  9  2  0
 11 10  1  0
 11 12  2  0
 12  7  1  0
 13  2  1  0
 14 13  2  0
 15 13  1  0
 16 17  1  6
 16 15  1  0
 17 18  1  0
 18 19  2  0
 19 20  1  0
 21 20  1  0
 22 21  2  0
 23 22  1  0
 24 25  1  0
 24 23  2  0
 25 26  2  0
 26 18  1  0
 26 21  1  0
 27 16  1  0
 28 27  2  0
 30 29  1  1
 30 31  1  0
 33 32  1  6
 32 30  1  0
 33 34  1  0
 34 27  1  0
 35 36  1  0
 35 33  1  0
 37 35  2  0
M  END
$$$$
