WWL.pdb
     RDKit          3D

 37 40  0  0  1  0  0  0  0  0999 V2000
   21.6002  -21.2511  -11.9756 N   0  0  0  0  0  0  0  0  0  0  0  0
   22.9460  -21.7476  -11.7784 C   0  0  1  0  0  0  0  0  0  0  0  0
   23.5205  -22.0037  -13.1797 C   0  0  0  0  0  0  0  0  0  0  0  0
   22.4760  -21.7150  -14.2023 C   0  0  0  0  0  0  0  0  0  0  0  0
   21.1798  -22.2012  -14.2242 C   0  0  0  0  0  0  0  0  0  0  0  0
   20.5367  -21.7156  -15.3133 N   0  0  0  0  0  0  0  0  0  0  0  0
   21.3618  -20.9241  -16.0143 C   0  0  0  0  0  0  0  0  0  0  0  0
   21.1921  -20.2055  -17.1778 C   0  0  0  0  0  0  0  0  0  0  0  0
   22.2707  -19.4814  -17.6333 C   0  0  0  0  0  0  0  0  0  0  0  0
   23.4857  -19.4644  -16.9616 C   0  0  0  0  0  0  0  0  0  0  0  0
   23.6196  -20.1916  -15.8061 C   0  0  0  0  0  0  0  0  0  0  0  0
   22.5701  -20.9221  -15.3244 C   0  0  0  0  0  0  0  0  0  0  0  0
   23.7448  -20.7246  -11.0614 C   0  0  0  0  0  0  0  0  0  0  0  0
   23.5598  -19.4955  -11.3505 O   0  0  0  0  0  0  0  0  0  0  0  0
   24.6833  -21.1417  -10.0821 N   0  0  0  0  0  0  0  0  0  0  0  0
   25.5121  -20.1998   -9.3715 C   0  0  1  0  0  0  0  0  0  0  0  0
   25.9683  -20.8202   -8.0894 C   0  0  0  0  0  0  0  0  0  0  0  0
   26.7702  -19.9367   -7.2448 C   0  0  0  0  0  0  0  0  0  0  0  0
   27.0189  -18.6131   -7.5179 C   0  0  0  0  0  0  0  0  0  0  0  0
   27.7759  -18.1197   -6.5445 N   0  0  0  0  0  0  0  0  0  0  0  0
   28.0298  -19.0736   -5.6465 C   0  0  0  0  0  0  0  0  0  0  0  0
   28.7691  -19.0562   -4.4582 C   0  0  0  0  0  0  0  0  0  0  0  0
   28.8767  -20.1990   -3.7006 C   0  0  0  0  0  0  0  0  0  0  0  0
   28.2541  -21.3477   -4.1223 C   0  0  0  0  0  0  0  0  0  0  0  0
   27.5148  -21.3988   -5.2932 C   0  0  0  0  0  0  0  0  0  0  0  0
   27.4034  -20.2412   -6.0648 C   0  0  0  0  0  0  0  0  0  0  0  0
   26.5958  -19.7221  -10.2547 C   0  0  0  0  0  0  0  0  0  0  0  0
   27.3629  -18.8298   -9.7955 O   0  0  0  0  0  0  0  0  0  0  0  0
   29.9088  -22.3269  -12.5565 C   0  0  0  0  0  0  0  0  0  0  0  0
   29.6973  -21.3908  -11.4246 C   0  0  1  0  0  0  0  0  0  0  0  0
   30.9446  -21.4021  -10.5231 C   0  0  0  0  0  0  0  0  0  0  0  0
   29.2183  -20.0330  -11.6911 C   0  0  0  0  0  0  0  0  0  0  0  0
   27.9560  -19.8030  -12.4044 C   0  0  2  0  0  0  0  0  0  0  0  0
   26.8164  -20.1878  -11.5401 N   0  0  0  0  0  0  0  0  0  0  0  0
   27.6954  -20.4195  -13.6876 C   0  0  0  0  0  0  0  0  0  0  0  0
   26.6209  -21.2406  -13.9218 O   0  0  0  0  0  0  0  0  0  0  0  0
   28.4615  -20.2327  -14.6679 O   0  0  0  0  0  0  0  0  0  0  0  0
  2  1  1  6
  3  2  1  0
  3  4  1  0
  4 12  1  0
  4  5  2  0
  5  6  1  0
  7  6  1  0
  7  8  2  0
  9  8  1  0
 10  9  2  0
 11 10  1  0
 11 12  2  0
 12  7  1  0
 13  2  1  0
 14 13  2  0
 15 13  1  0
 16 17  1  1
 16 15  1  0
 17 18  1  0
 18 19  2  0
 19 20  1  0
 21 20  1  0
 22 21  2  0
 23 22  1  0
 24 25  1  0
 24 23  2  0
 25 26  2  0
 26 18  1  0
 26 21  1  0
 27 16  1  0
 28 27  2  0
 30 29  1  6
 30 31  1  0
 33 32  1  1
 32 30  1  0
 33 34  1  0
 34 27  1  0
 35 36  1  0
 35 33  1  0
 37 35  2  0
M  END
$$$$
