WWL.pdb
     RDKit          3D

 37 40  0  0  1  0  0  0  0  0999 V2000
   27.8333  -21.0159  -14.8187 N   0  0  0  0  0  0  0  0  0  0  0  0
   27.3307  -20.0062  -13.9108 C   0  0  1  0  0  0  0  0  0  0  0  0
   26.1349  -19.3490  -14.6161 C   0  0  0  0  0  0  0  0  0  0  0  0
   26.6257  -18.5260  -15.7571 C   0  0  0  0  0  0  0  0  0  0  0  0
   26.7007  -18.9102  -17.0852 C   0  0  0  0  0  0  0  0  0  0  0  0
   27.2014  -17.8882  -17.8204 N   0  0  0  0  0  0  0  0  0  0  0  0
   27.4610  -16.8397  -17.0256 C   0  0  0  0  0  0  0  0  0  0  0  0
   27.9699  -15.5849  -17.2815 C   0  0  0  0  0  0  0  0  0  0  0  0
   28.1111  -14.7323  -16.2100 C   0  0  0  0  0  0  0  0  0  0  0  0
   27.7607  -15.1043  -14.9190 C   0  0  0  0  0  0  0  0  0  0  0  0
   27.2572  -16.3615  -14.7002 C   0  0  0  0  0  0  0  0  0  0  0  0
   27.1033  -17.2343  -15.7402 C   0  0  0  0  0  0  0  0  0  0  0  0
   26.9048  -20.6534  -12.6465 C   0  0  0  0  0  0  0  0  0  0  0  0
   26.3758  -21.8132  -12.7048 O   0  0  0  0  0  0  0  0  0  0  0  0
   27.0982  -19.9674  -11.4193 N   0  0  0  0  0  0  0  0  0  0  0  0
   26.5545  -20.4594  -10.1778 C   0  0  1  0  0  0  0  0  0  0  0  0
   27.2421  -19.7769   -9.0384 C   0  0  0  0  0  0  0  0  0  0  0  0
   26.8458  -20.2627   -7.7179 C   0  0  0  0  0  0  0  0  0  0  0  0
   25.7796  -21.0973   -7.4829 C   0  0  0  0  0  0  0  0  0  0  0  0
   25.7133  -21.3347   -6.1778 N   0  0  0  0  0  0  0  0  0  0  0  0
   26.6976  -20.6852   -5.5533 C   0  0  0  0  0  0  0  0  0  0  0  0
   27.0507  -20.6147   -4.2007 C   0  0  0  0  0  0  0  0  0  0  0  0
   28.1321  -19.8585   -3.8127 C   0  0  0  0  0  0  0  0  0  0  0  0
   28.8544  -19.1793   -4.7625 C   0  0  0  0  0  0  0  0  0  0  0  0
   28.5317  -19.2279   -6.1092 C   0  0  0  0  0  0  0  0  0  0  0  0
   27.4350  -19.9942   -6.5068 C   0  0  0  0  0  0  0  0  0  0  0  0
   25.0832  -20.3269  -10.1893 C   0  0  0  0  0  0  0  0  0  0  0  0
   24.6099  -19.1588  -10.2721 O   0  0  0  0  0  0  0  0  0  0  0  0
   22.0968  -22.6763  -13.8006 C   0  0  0  0  0  0  0  0  0  0  0  0
   22.4889  -21.7490  -12.7105 C   0  0  1  0  0  0  0  0  0  0  0  0
   21.9541  -20.3418  -13.0308 C   0  0  0  0  0  0  0  0  0  0  0  0
   22.2473  -22.1299  -11.3175 C   0  0  0  0  0  0  0  0  0  0  0  0
   22.7290  -21.2942  -10.2107 C   0  0  2  0  0  0  0  0  0  0  0  0
   24.2036  -21.3940  -10.1144 N   0  0  0  0  0  0  0  0  0  0  0  0
   22.2385  -21.4787   -8.8617 C   0  0  0  0  0  0  0  0  0  0  0  0
   21.0372  -20.9791   -8.4246 O   0  0  0  0  0  0  0  0  0  0  0  0
   22.9074  -22.1139   -8.0062 O   0  0  0  0  0  0  0  0  0  0  0  0
  2  1  1  6
  3  2  1  0
  3  4  1  0
  4 12  1  0
  4  5  2  0
  5  6  1  0
  7  6  1  0
  7  8  2  0
  9  8  1  0
 10  9  2  0
 11 10  1  0
 11 12  2  0
 12  7  1  0
 13  2  1  0
 14 13  2  0
 15 13  1  0
 16 17  1  1
 16 15  1  0
 17 18  1  0
 18 19  2  0
 19 20  1  0
 21 20  1  0
 22 21  2  0
 23 22  1  0
 24 25  1  0
 24 23  2  0
 25 26  2  0
 26 18  1  0
 26 21  1  0
 27 16  1  0
 28 27  2  0
 30 29  1  6
 30 31  1  0
 33 32  1  6
 32 30  1  0
 33 34  1  0
 34 27  1  0
 35 36  1  0
 35 33  1  0
 37 35  2  0
M  END
$$$$
