WWL.pdb
     RDKit          3D

 37 40  0  0  1  0  0  0  0  0999 V2000
   26.4448  -19.8689  -17.7755 N   0  0  0  0  0  0  0  0  0  0  0  0
   26.1977  -19.0971  -16.5756 C   0  0  1  0  0  0  0  0  0  0  0  0
   24.7173  -18.6901  -16.6221 C   0  0  0  0  0  0  0  0  0  0  0  0
   24.5481  -17.5487  -17.5647 C   0  0  0  0  0  0  0  0  0  0  0  0
   25.4045  -17.1860  -18.5905 C   0  0  0  0  0  0  0  0  0  0  0  0
   24.9104  -16.0943  -19.2227 N   0  0  0  0  0  0  0  0  0  0  0  0
   23.7560  -15.7206  -18.6516 C   0  0  0  0  0  0  0  0  0  0  0  0
   22.8791  -14.6917  -18.9186 C   0  0  0  0  0  0  0  0  0  0  0  0
   21.7625  -14.5929  -18.1194 C   0  0  0  0  0  0  0  0  0  0  0  0
   21.5146  -15.4835  -17.0834 C   0  0  0  0  0  0  0  0  0  0  0  0
   22.4090  -16.4962  -16.8455 C   0  0  0  0  0  0  0  0  0  0  0  0
   23.5282  -16.6248  -17.6188 C   0  0  0  0  0  0  0  0  0  0  0  0
   26.4745  -19.9390  -15.3867 C   0  0  0  0  0  0  0  0  0  0  0  0
   26.0395  -21.1386  -15.3759 O   0  0  0  0  0  0  0  0  0  0  0  0
   27.2103  -19.3880  -14.3055 N   0  0  0  0  0  0  0  0  0  0  0  0
   27.2824  -20.0410  -13.0220 C   0  0  1  0  0  0  0  0  0  0  0  0
   28.4103  -19.4517  -12.2363 C   0  0  0  0  0  0  0  0  0  0  0  0
   28.7238  -20.1692  -11.0020 C   0  0  0  0  0  0  0  0  0  0  0  0
   29.5048  -21.2978  -10.9343 C   0  0  0  0  0  0  0  0  0  0  0  0
   29.5793  -21.6801   -9.6645 N   0  0  0  0  0  0  0  0  0  0  0  0
   28.8752  -20.8415   -8.9017 C   0  0  0  0  0  0  0  0  0  0  0  0
   28.6456  -20.8135   -7.5213 C   0  0  0  0  0  0  0  0  0  0  0  0
   27.8662  -19.8203   -6.9757 C   0  0  0  0  0  0  0  0  0  0  0  0
   27.3211  -18.8644   -7.7969 C   0  0  0  0  0  0  0  0  0  0  0  0
   27.5288  -18.8634   -9.1669 C   0  0  0  0  0  0  0  0  0  0  0  0
   28.3190  -19.8697   -9.7243 C   0  0  0  0  0  0  0  0  0  0  0  0
   25.9635  -19.9864  -12.3588 C   0  0  0  0  0  0  0  0  0  0  0  0
   25.4207  -18.8514  -12.2470 O   0  0  0  0  0  0  0  0  0  0  0  0
   21.9706  -22.3575  -14.1335 C   0  0  0  0  0  0  0  0  0  0  0  0
   22.5911  -21.3714  -13.2145 C   0  0  1  0  0  0  0  0  0  0  0  0
   21.7361  -20.0919  -13.1984 C   0  0  0  0  0  0  0  0  0  0  0  0
   22.9880  -21.7898  -11.8685 C   0  0  0  0  0  0  0  0  0  0  0  0
   24.0130  -21.0529  -11.1192 C   0  0  2  0  0  0  0  0  0  0  0  0
   25.2964  -21.0918  -11.8577 N   0  0  0  0  0  0  0  0  0  0  0  0
   24.3405  -21.4013   -9.7533 C   0  0  0  0  0  0  0  0  0  0  0  0
   23.5581  -21.0523   -8.6811 O   0  0  0  0  0  0  0  0  0  0  0  0
   25.3835  -22.0489   -9.4780 O   0  0  0  0  0  0  0  0  0  0  0  0
  2  1  1  6
  3  2  1  0
  3  4  1  0
  4 12  1  0
  4  5  2  0
  5  6  1  0
  7  6  1  0
  7  8  2  0
  9  8  1  0
 10  9  2  0
 11 10  1  0
 11 12  2  0
 12  7  1  0
 13  2  1  0
 14 13  2  0
 15 13  1  0
 16 17  1  1
 16 15  1  0
 17 18  1  0
 18 19  2  0
 19 20  1  0
 21 20  1  0
 22 21  2  0
 23 22  1  0
 24 25  1  0
 24 23  2  0
 25 26  2  0
 26 18  1  0
 26 21  1  0
 27 16  1  0
 28 27  2  0
 30 29  1  1
 30 31  1  0
 33 32  1  6
 32 30  1  0
 33 34  1  0
 34 27  1  0
 35 36  1  0
 35 33  1  0
 37 35  2  0
M  END
$$$$
