WWL.pdb
     RDKit          3D

 37 40  0  0  1  0  0  0  0  0999 V2000
   27.0724  -22.0467  -15.0228 N   0  0  0  0  0  0  0  0  0  0  0  0
   26.0320  -21.1834  -14.5045 C   0  0  1  0  0  0  0  0  0  0  0  0
   24.8063  -21.3969  -15.4053 C   0  0  0  0  0  0  0  0  0  0  0  0
   25.0051  -20.6699  -16.6905 C   0  0  0  0  0  0  0  0  0  0  0  0
   25.6261  -21.1533  -17.8297 C   0  0  0  0  0  0  0  0  0  0  0  0
   25.6135  -20.1960  -18.7883 N   0  0  0  0  0  0  0  0  0  0  0  0
   25.0056  -19.0944  -18.3240 C   0  0  0  0  0  0  0  0  0  0  0  0
   24.7419  -17.8690  -18.8966 C   0  0  0  0  0  0  0  0  0  0  0  0
   24.0841  -16.9406  -18.1217 C   0  0  0  0  0  0  0  0  0  0  0  0
   23.6954  -17.2104  -16.8163 C   0  0  0  0  0  0  0  0  0  0  0  0
   23.9742  -18.4410  -16.2778 C   0  0  0  0  0  0  0  0  0  0  0  0
   24.6257  -19.3870  -17.0179 C   0  0  0  0  0  0  0  0  0  0  0  0
   25.7293  -21.5679  -13.1047 C   0  0  0  0  0  0  0  0  0  0  0  0
   25.7271  -22.8073  -12.8011 O   0  0  0  0  0  0  0  0  0  0  0  0
   25.4541  -20.5521  -12.1528 N   0  0  0  0  0  0  0  0  0  0  0  0
   25.0157  -20.8610  -10.8144 C   0  0  1  0  0  0  0  0  0  0  0  0
   25.6570  -19.9071   -9.8575 C   0  0  0  0  0  0  0  0  0  0  0  0
   26.9549  -20.3466   -9.3483 C   0  0  0  0  0  0  0  0  0  0  0  0
   27.8499  -21.1127  -10.0556 C   0  0  0  0  0  0  0  0  0  0  0  0
   28.9169  -21.3217   -9.2927 N   0  0  0  0  0  0  0  0  0  0  0  0
   28.7500  -20.7194   -8.1136 C   0  0  0  0  0  0  0  0  0  0  0  0
   29.5747  -20.6443   -6.9852 C   0  0  0  0  0  0  0  0  0  0  0  0
   29.1579  -19.9454   -5.8764 C   0  0  0  0  0  0  0  0  0  0  0  0
   27.9318  -19.3275   -5.8914 C   0  0  0  0  0  0  0  0  0  0  0  0
   27.0916  -19.3824   -6.9919 C   0  0  0  0  0  0  0  0  0  0  0  0
   27.5110  -20.0907   -8.1190 C   0  0  0  0  0  0  0  0  0  0  0  0
   23.5395  -20.8951  -10.7675 C   0  0  0  0  0  0  0  0  0  0  0  0
   23.0010  -21.0061   -9.6304 O   0  0  0  0  0  0  0  0  0  0  0  0
   20.2838  -18.1076  -14.4425 C   0  0  0  0  0  0  0  0  0  0  0  0
   20.7800  -18.7452  -13.1978 C   0  0  1  0  0  0  0  0  0  0  0  0
   20.1864  -18.0080  -11.9841 C   0  0  0  0  0  0  0  0  0  0  0  0
   20.7051  -20.2004  -13.0533 C   0  0  0  0  0  0  0  0  0  0  0  0
   21.2419  -20.8705  -11.8625 C   0  0  2  0  0  0  0  0  0  0  0  0
   22.7219  -20.8150  -11.8824 N   0  0  0  0  0  0  0  0  0  0  0  0
   20.9092  -22.2463  -11.5608 C   0  0  0  0  0  0  0  0  0  0  0  0
   19.8796  -22.6043  -10.7269 O   0  0  0  0  0  0  0  0  0  0  0  0
   21.5662  -23.1989  -12.0543 O   0  0  0  0  0  0  0  0  0  0  0  0
  2  1  1  6
  3  2  1  0
  3  4  1  0
  4 12  1  0
  4  5  2  0
  5  6  1  0
  7  6  1  0
  7  8  2  0
  9  8  1  0
 10  9  2  0
 11 10  1  0
 11 12  2  0
 12  7  1  0
 13  2  1  0
 14 13  2  0
 15 13  1  0
 16 17  1  1
 16 15  1  0
 17 18  1  0
 18 19  2  0
 19 20  1  0
 21 20  1  0
 22 21  2  0
 23 22  1  0
 24 25  1  0
 24 23  2  0
 25 26  2  0
 26 18  1  0
 26 21  1  0
 27 16  1  0
 28 27  2  0
 30 29  1  6
 30 31  1  0
 33 32  1  6
 32 30  1  0
 33 34  1  0
 34 27  1  0
 35 36  1  0
 35 33  1  0
 37 35  2  0
M  END
$$$$
