WWL.pdb
     RDKit          3D

 37 40  0  0  1  0  0  0  0  0999 V2000
   26.1020  -22.3611  -12.3710 N   0  0  0  0  0  0  0  0  0  0  0  0
   25.8564  -20.9603  -12.0992 C   0  0  1  0  0  0  0  0  0  0  0  0
   27.2362  -20.2958  -11.9810 C   0  0  0  0  0  0  0  0  0  0  0  0
   27.9288  -20.8080  -10.7653 C   0  0  0  0  0  0  0  0  0  0  0  0
   29.0084  -21.6741  -10.7287 C   0  0  0  0  0  0  0  0  0  0  0  0
   29.3531  -21.9074   -9.4393 N   0  0  0  0  0  0  0  0  0  0  0  0
   28.5391  -21.2258   -8.6198 C   0  0  0  0  0  0  0  0  0  0  0  0
   28.4748  -21.1280   -7.2468 C   0  0  0  0  0  0  0  0  0  0  0  0
   27.4925  -20.3209   -6.7186 C   0  0  0  0  0  0  0  0  0  0  0  0
   26.5959  -19.6275   -7.5206 C   0  0  0  0  0  0  0  0  0  0  0  0
   26.6887  -19.7480   -8.8840 C   0  0  0  0  0  0  0  0  0  0  0  0
   27.6513  -20.5404   -9.4432 C   0  0  0  0  0  0  0  0  0  0  0  0
   25.0838  -20.3725  -13.2201 C   0  0  0  0  0  0  0  0  0  0  0  0
   25.7079  -19.6824  -14.0934 O   0  0  0  0  0  0  0  0  0  0  0  0
   23.6838  -20.5951  -13.2864 N   0  0  0  0  0  0  0  0  0  0  0  0
   22.8833  -20.0918  -14.3749 C   0  0  1  0  0  0  0  0  0  0  0  0
   23.4967  -20.5179  -15.6707 C   0  0  0  0  0  0  0  0  0  0  0  0
   22.9106  -19.8853  -16.8511 C   0  0  0  0  0  0  0  0  0  0  0  0
   22.7280  -18.5314  -16.9992 C   0  0  0  0  0  0  0  0  0  0  0  0
   22.1754  -18.3108  -18.1867 N   0  0  0  0  0  0  0  0  0  0  0  0
   21.9912  -19.4718  -18.8182 C   0  0  0  0  0  0  0  0  0  0  0  0
   21.4521  -19.7688  -20.0753 C   0  0  0  0  0  0  0  0  0  0  0  0
   21.3748  -21.0757  -20.4969 C   0  0  0  0  0  0  0  0  0  0  0  0
   21.8300  -22.0767  -19.6747 C   0  0  0  0  0  0  0  0  0  0  0  0
   22.3691  -21.8168  -18.4250 C   0  0  0  0  0  0  0  0  0  0  0  0
   22.4492  -20.4919  -17.9935 C   0  0  0  0  0  0  0  0  0  0  0  0
   21.4747  -20.4960  -14.1877 C   0  0  0  0  0  0  0  0  0  0  0  0
   20.5884  -19.7439  -14.6818 O   0  0  0  0  0  0  0  0  0  0  0  0
   19.9527  -25.7279  -14.3759 C   0  0  0  0  0  0  0  0  0  0  0  0
   19.9688  -24.2450  -14.4313 C   0  0  1  0  0  0  0  0  0  0  0  0
   19.2766  -23.7828  -15.7259 C   0  0  0  0  0  0  0  0  0  0  0  0
   19.5336  -23.4747  -13.2646 C   0  0  0  0  0  0  0  0  0  0  0  0
   19.6695  -22.0133  -13.2300 C   0  0  2  0  0  0  0  0  0  0  0  0
   21.0740  -21.6353  -13.5101 N   0  0  0  0  0  0  0  0  0  0  0  0
   19.2883  -21.2511  -12.0603 C   0  0  0  0  0  0  0  0  0  0  0  0
   17.9823  -21.0120  -11.7127 O   0  0  0  0  0  0  0  0  0  0  0  0
   20.1548  -20.7559  -11.2943 O   0  0  0  0  0  0  0  0  0  0  0  0
  2  1  1  6
  3  2  1  0
  3  4  1  0
  4 12  1  0
  4  5  2  0
  5  6  1  0
  7  6  1  0
  7  8  2  0
  9  8  1  0
 10  9  2  0
 11 10  1  0
 11 12  2  0
 12  7  1  0
 13  2  1  0
 14 13  2  0
 15 13  1  0
 16 17  1  6
 16 15  1  0
 17 18  1  0
 18 19  2  0
 19 20  1  0
 21 20  1  0
 22 21  2  0
 23 22  1  0
 24 25  1  0
 24 23  2  0
 25 26  2  0
 26 18  1  0
 26 21  1  0
 27 16  1  0
 28 27  2  0
 30 29  1  1
 30 31  1  0
 33 32  1  1
 32 30  1  0
 33 34  1  0
 34 27  1  0
 35 36  1  0
 35 33  1  0
 37 35  2  0
M  END
$$$$
