LCW.pdb
     RDKit          3D

 29 30  0  0  1  0  0  0  0  0999 V2000
   15.4401  -12.7862    3.5336 C   0  0  0  0  0  0  0  0  0  0  0  0
   16.7407  -12.1583    3.0060 C   0  0  2  0  0  0  0  0  0  0  0  0
   16.6426  -12.1412    1.5151 C   0  0  0  0  0  0  0  0  0  0  0  0
   17.8572  -12.9743    3.5423 C   0  0  0  0  0  0  0  0  0  0  0  0
   17.9280  -13.0600    5.0506 C   0  0  2  0  0  0  0  0  0  0  0  0
   19.0943  -12.2883    5.4271 N   0  0  0  0  0  0  0  0  0  0  0  0
   18.0574  -14.4717    5.4902 C   0  0  0  0  0  0  0  0  0  0  0  0
   19.1310  -15.0940    5.2545 O   0  0  0  0  0  0  0  0  0  0  0  0
   17.0388  -15.1773    6.1736 N   0  0  0  0  0  0  0  0  0  0  0  0
   17.2036  -16.6156    6.4477 C   0  0  1  0  0  0  0  0  0  0  0  0
   16.6722  -16.8434    7.8741 C   0  0  0  0  0  0  0  0  0  0  0  0
   17.9334  -16.4002    9.0708 S   0  0  0  0  0  0  0  0  0  0  0  0
   16.4796  -17.4003    5.4358 C   0  0  0  0  0  0  0  0  0  0  0  0
   15.3052  -17.0159    5.0609 O   0  0  0  0  0  0  0  0  0  0  0  0
   17.0053  -18.5491    4.8578 N   0  0  0  0  0  0  0  0  0  0  0  0
   16.3737  -19.4517    3.9182 C   0  0  1  0  0  0  0  0  0  0  0  0
   17.3328  -20.1301    3.0374 C   0  0  0  0  0  0  0  0  0  0  0  0
   16.7407  -20.9226    1.9483 C   0  0  0  0  0  0  0  0  0  0  0  0
   16.1913  -20.5154    0.7664 C   0  0  0  0  0  0  0  0  0  0  0  0
   15.7766  -21.5740    0.0477 N   0  0  0  0  0  0  0  0  0  0  0  0
   16.0522  -22.6892    0.7547 C   0  0  0  0  0  0  0  0  0  0  0  0
   15.8468  -24.0231    0.4816 C   0  0  0  0  0  0  0  0  0  0  0  0
   16.2375  -24.9772    1.3845 C   0  0  0  0  0  0  0  0  0  0  0  0
   16.8318  -24.6210    2.5610 C   0  0  0  0  0  0  0  0  0  0  0  0
   17.0452  -23.2686    2.8489 C   0  0  0  0  0  0  0  0  0  0  0  0
   16.6522  -22.3138    1.9408 C   0  0  0  0  0  0  0  0  0  0  0  0
   15.3342  -20.3130    4.5564 C   0  0  0  0  0  0  0  0  0  0  0  0
   14.0738  -20.5483    4.0753 O   0  0  0  0  0  0  0  0  0  0  0  0
   15.6520  -20.8871    5.6509 O   0  0  0  0  0  0  0  0  0  0  0  0
  2  1  1  1
  3  2  1  0
  4  2  1  0
  5  4  1  0
  5  6  1  6
  7  8  2  0
  7  5  1  0
  9  7  1  0
 10  9  1  0
 10 11  1  1
 11 12  1  0
 13 15  1  0
 13 10  1  0
 14 13  2  0
 16 15  1  0
 17 18  1  0
 16 17  1  1
 18 19  2  0
 19 20  1  0
 21 20  1  0
 22 21  2  0
 23 22  1  0
 24 25  1  0
 24 23  2  0
 25 26  2  0
 26 18  1  0
 26 21  1  0
 27 16  1  0
 27 28  1  0
 29 27  2  0
M  END
$$$$
