LCW.pdb
     RDKit          3D

 29 30  0  0  1  0  0  0  0  0999 V2000
   24.1779  -24.3504  -19.1187 C   0  0  0  0  0  0  0  0  0  0  0  0
   25.4223  -23.4895  -19.3913 C   0  0  2  0  0  0  0  0  0  0  0  0
   26.1949  -24.1709  -20.4737 C   0  0  0  0  0  0  0  0  0  0  0  0
   26.1451  -23.3630  -18.1022 C   0  0  0  0  0  0  0  0  0  0  0  0
   25.3380  -22.7798  -16.9639 C   0  0  2  0  0  0  0  0  0  0  0  0
   24.6080  -21.6684  -17.5377 N   0  0  0  0  0  0  0  0  0  0  0  0
   26.2298  -22.3241  -15.8685 C   0  0  0  0  0  0  0  0  0  0  0  0
   26.9951  -23.1593  -15.3098 O   0  0  0  0  0  0  0  0  0  0  0  0
   26.2830  -20.9883  -15.4042 N   0  0  0  0  0  0  0  0  0  0  0  0
   27.1616  -20.6421  -14.2733 C   0  0  1  0  0  0  0  0  0  0  0  0
   27.6882  -19.2242  -14.5587 C   0  0  0  0  0  0  0  0  0  0  0  0
   28.3006  -18.4864  -13.0422 S   0  0  0  0  0  0  0  0  0  0  0  0
   26.4073  -20.7289  -13.0134 C   0  0  0  0  0  0  0  0  0  0  0  0
   25.1549  -20.4147  -13.0051 O   0  0  0  0  0  0  0  0  0  0  0  0
   26.9854  -21.1374  -11.8179 N   0  0  0  0  0  0  0  0  0  0  0  0
   26.4974  -20.9368  -10.4695 C   0  0  1  0  0  0  0  0  0  0  0  0
   27.5634  -20.9676   -9.4604 C   0  0  0  0  0  0  0  0  0  0  0  0
   27.1618  -20.5659   -8.1032 C   0  0  0  0  0  0  0  0  0  0  0  0
   25.9155  -20.4300   -7.5619 C   0  0  0  0  0  0  0  0  0  0  0  0
   25.9977  -20.0528   -6.2735 N   0  0  0  0  0  0  0  0  0  0  0  0
   27.3039  -19.9382   -5.9572 C   0  0  0  0  0  0  0  0  0  0  0  0
   27.9374  -19.5940   -4.7840 C   0  0  0  0  0  0  0  0  0  0  0  0
   29.3063  -19.5629   -4.7260 C   0  0  0  0  0  0  0  0  0  0  0  0
   30.0571  -19.8704   -5.8241 C   0  0  0  0  0  0  0  0  0  0  0  0
   29.4241  -20.2213   -7.0214 C   0  0  0  0  0  0  0  0  0  0  0  0
   28.0504  -20.2517   -7.0762 C   0  0  0  0  0  0  0  0  0  0  0  0
   25.5226  -19.8099  -10.3713 C   0  0  0  0  0  0  0  0  0  0  0  0
   25.8155  -18.4768  -10.4831 O   0  0  0  0  0  0  0  0  0  0  0  0
   24.3011  -20.1186  -10.1684 O   0  0  0  0  0  0  0  0  0  0  0  0
  2  1  1  1
  3  2  1  0
  4  2  1  0
  5  4  1  0
  5  6  1  6
  7  8  2  0
  7  5  1  0
  9  7  1  0
 10  9  1  0
 10 11  1  6
 11 12  1  0
 13 15  1  0
 13 10  1  0
 14 13  2  0
 16 15  1  0
 17 18  1  0
 16 17  1  1
 18 19  2  0
 19 20  1  0
 21 20  1  0
 22 21  2  0
 23 22  1  0
 24 25  1  0
 24 23  2  0
 25 26  2  0
 26 18  1  0
 26 21  1  0
 27 16  1  0
 27 28  1  0
 29 27  2  0
M  END
$$$$
