LCW.pdb
     RDKit          3D

 29 30  0  0  1  0  0  0  0  0999 V2000
   28.4646  -23.9078  -18.8009 C   0  0  0  0  0  0  0  0  0  0  0  0
   28.2873  -22.3965  -19.0211 C   0  0  2  0  0  0  0  0  0  0  0  0
   29.3265  -21.9752  -20.0087 C   0  0  0  0  0  0  0  0  0  0  0  0
   28.4043  -21.7541  -17.6893 C   0  0  0  0  0  0  0  0  0  0  0  0
   27.4698  -22.2918  -16.6286 C   0  0  2  0  0  0  0  0  0  0  0  0
   26.1345  -22.0890  -17.1513 N   0  0  0  0  0  0  0  0  0  0  0  0
   27.6575  -21.5661  -15.3476 C   0  0  0  0  0  0  0  0  0  0  0  0
   28.8254  -21.4161  -14.8904 O   0  0  0  0  0  0  0  0  0  0  0  0
   26.5935  -21.0165  -14.5938 N   0  0  0  0  0  0  0  0  0  0  0  0
   26.8851  -20.2397  -13.3763 C   0  0  1  0  0  0  0  0  0  0  0  0
   26.1767  -18.8847  -13.5530 C   0  0  0  0  0  0  0  0  0  0  0  0
   24.3983  -19.1188  -13.5138 S   0  0  0  0  0  0  0  0  0  0  0  0
   26.4195  -20.9781  -12.1924 C   0  0  0  0  0  0  0  0  0  0  0  0
   25.4837  -21.8580  -12.3254 O   0  0  0  0  0  0  0  0  0  0  0  0
   26.9446  -20.7711  -10.9229 N   0  0  0  0  0  0  0  0  0  0  0  0
   26.5011  -21.3340   -9.6647 C   0  0  1  0  0  0  0  0  0  0  0  0
   27.5781  -21.4487   -8.6734 C   0  0  0  0  0  0  0  0  0  0  0  0
   27.6591  -20.3510   -7.6971 C   0  0  0  0  0  0  0  0  0  0  0  0
   26.9786  -19.1681   -7.6496 C   0  0  0  0  0  0  0  0  0  0  0  0
   27.3486  -18.4521   -6.5727 N   0  0  0  0  0  0  0  0  0  0  0  0
   28.2784  -19.1625   -5.9017 C   0  0  0  0  0  0  0  0  0  0  0  0
   28.9730  -18.9005   -4.7420 C   0  0  0  0  0  0  0  0  0  0  0  0
   29.8731  -19.8142   -4.2590 C   0  0  0  0  0  0  0  0  0  0  0  0
   30.0932  -20.9899   -4.9171 C   0  0  0  0  0  0  0  0  0  0  0  0
   29.3932  -21.2665   -6.0965 C   0  0  0  0  0  0  0  0  0  0  0  0
   28.4907  -20.3478   -6.5784 C   0  0  0  0  0  0  0  0  0  0  0  0
   25.2192  -20.7361   -9.1860 C   0  0  0  0  0  0  0  0  0  0  0  0
   24.3292  -21.3184   -8.3233 O   0  0  0  0  0  0  0  0  0  0  0  0
   24.9281  -19.5713   -9.6183 O   0  0  0  0  0  0  0  0  0  0  0  0
  2  1  1  1
  3  2  1  0
  4  2  1  0
  5  4  1  0
  5  6  1  6
  7  8  2  0
  7  5  1  0
  9  7  1  0
 10  9  1  0
 10 11  1  6
 11 12  1  0
 13 15  1  0
 13 10  1  0
 14 13  2  0
 16 15  1  0
 17 18  1  0
 16 17  1  1
 18 19  2  0
 19 20  1  0
 21 20  1  0
 22 21  2  0
 23 22  1  0
 24 25  1  0
 24 23  2  0
 25 26  2  0
 26 18  1  0
 26 21  1  0
 27 16  1  0
 27 28  1  0
 29 27  2  0
M  END
$$$$
