LCW.pdb
     RDKit          3D

 29 30  0  0  1  0  0  0  0  0999 V2000
   27.8909  -18.6071  -16.7569 C   0  0  0  0  0  0  0  0  0  0  0  0
   27.4981  -17.1478  -16.4739 C   0  0  2  0  0  0  0  0  0  0  0  0
   28.7473  -16.4291  -16.0792 C   0  0  0  0  0  0  0  0  0  0  0  0
   26.4485  -17.1833  -15.4264 C   0  0  0  0  0  0  0  0  0  0  0  0
   25.2255  -18.0058  -15.7654 C   0  0  2  0  0  0  0  0  0  0  0  0
   24.4251  -17.1679  -16.6342 N   0  0  0  0  0  0  0  0  0  0  0  0
   24.4782  -18.3660  -14.5346 C   0  0  0  0  0  0  0  0  0  0  0  0
   23.9072  -17.4546  -13.8722 O   0  0  0  0  0  0  0  0  0  0  0  0
   24.3572  -19.6896  -14.0491 N   0  0  0  0  0  0  0  0  0  0  0  0
   23.7201  -19.9338  -12.7432 C   0  0  1  0  0  0  0  0  0  0  0  0
   22.5105  -20.8445  -13.0205 C   0  0  0  0  0  0  0  0  0  0  0  0
   21.8518  -21.4684  -11.4727 S   0  0  0  0  0  0  0  0  0  0  0  0
   24.6928  -20.5403  -11.8215 C   0  0  0  0  0  0  0  0  0  0  0  0
   25.3200  -21.6104  -12.1807 O   0  0  0  0  0  0  0  0  0  0  0  0
   24.9719  -20.0103  -10.5679 N   0  0  0  0  0  0  0  0  0  0  0  0
   25.7737  -20.5850   -9.5079 C   0  0  1  0  0  0  0  0  0  0  0  0
   26.8250  -19.6806   -9.0258 C   0  0  0  0  0  0  0  0  0  0  0  0
   27.8284  -20.2919   -8.1403 C   0  0  0  0  0  0  0  0  0  0  0  0
   28.7228  -21.2935   -8.3884 C   0  0  0  0  0  0  0  0  0  0  0  0
   29.4714  -21.5402   -7.2986 N   0  0  0  0  0  0  0  0  0  0  0  0
   29.0733  -20.6988   -6.3225 C   0  0  0  0  0  0  0  0  0  0  0  0
   29.5065  -20.5255   -5.0269 C   0  0  0  0  0  0  0  0  0  0  0  0
   28.9270  -19.5726   -4.2305 C   0  0  0  0  0  0  0  0  0  0  0  0
   27.9175  -18.7865   -4.7070 C   0  0  0  0  0  0  0  0  0  0  0  0
   27.4693  -18.9540   -6.0217 C   0  0  0  0  0  0  0  0  0  0  0  0
   28.0529  -19.9109   -6.8183 C   0  0  0  0  0  0  0  0  0  0  0  0
   24.9484  -21.2605   -8.4628 C   0  0  0  0  0  0  0  0  0  0  0  0
   23.6180  -21.0444   -8.2201 O   0  0  0  0  0  0  0  0  0  0  0  0
   25.5373  -22.1232   -7.7298 O   0  0  0  0  0  0  0  0  0  0  0  0
  2  1  1  1
  3  2  1  0
  4  2  1  0
  5  4  1  0
  5  6  1  6
  7  8  2  0
  7  5  1  0
  9  7  1  0
 10  9  1  0
 10 11  1  6
 11 12  1  0
 13 15  1  0
 13 10  1  0
 14 13  2  0
 16 15  1  0
 17 18  1  0
 16 17  1  1
 18 19  2  0
 19 20  1  0
 21 20  1  0
 22 21  2  0
 23 22  1  0
 24 25  1  0
 24 23  2  0
 25 26  2  0
 26 18  1  0
 26 21  1  0
 27 16  1  0
 27 28  1  0
 29 27  2  0
M  END
$$$$
