LCW.pdb
     RDKit          3D

 29 30  0  0  1  0  0  0  0  0999 V2000
   23.8144  -20.2398   -8.8437 C   0  0  0  0  0  0  0  0  0  0  0  0
   25.3056  -20.5599   -9.0389 C   0  0  2  0  0  0  0  0  0  0  0  0
   26.0400  -19.9227   -7.9043 C   0  0  0  0  0  0  0  0  0  0  0  0
   25.6798  -20.0507  -10.3808 C   0  0  0  0  0  0  0  0  0  0  0  0
   24.9042  -20.6434  -11.5359 C   0  0  2  0  0  0  0  0  0  0  0  0
   25.1112  -22.0740  -11.4466 N   0  0  0  0  0  0  0  0  0  0  0  0
   25.4015  -20.1118  -12.8293 C   0  0  0  0  0  0  0  0  0  0  0  0
   25.4166  -18.8627  -13.0165 O   0  0  0  0  0  0  0  0  0  0  0  0
   25.8736  -20.9285  -13.8840 N   0  0  0  0  0  0  0  0  0  0  0  0
   26.4018  -20.3058  -15.1105 C   0  0  1  0  0  0  0  0  0  0  0  0
   27.2536  -21.3833  -15.8051 C   0  0  0  0  0  0  0  0  0  0  0  0
   28.5981  -21.8835  -14.7276 S   0  0  0  0  0  0  0  0  0  0  0  0
   25.2880  -19.8311  -15.9459 C   0  0  0  0  0  0  0  0  0  0  0  0
   24.2616  -20.5947  -16.1222 O   0  0  0  0  0  0  0  0  0  0  0  0
   25.2880  -18.5857  -16.5617 N   0  0  0  0  0  0  0  0  0  0  0  0
   24.2509  -17.9855  -17.3745 C   0  0  1  0  0  0  0  0  0  0  0  0
   24.5095  -16.5750  -17.6893 C   0  0  0  0  0  0  0  0  0  0  0  0
   23.3773  -15.8391  -18.2736 C   0  0  0  0  0  0  0  0  0  0  0  0
   22.4153  -15.0841  -17.6661 C   0  0  0  0  0  0  0  0  0  0  0  0
   21.5690  -14.5729  -18.5780 N   0  0  0  0  0  0  0  0  0  0  0  0
   21.9706  -14.9895  -19.7964 C   0  0  0  0  0  0  0  0  0  0  0  0
   21.4711  -14.7536  -21.0577 C   0  0  0  0  0  0  0  0  0  0  0  0
   22.0867  -15.2998  -22.1535 C   0  0  0  0  0  0  0  0  0  0  0  0
   23.1970  -16.0815  -22.0113 C   0  0  0  0  0  0  0  0  0  0  0  0
   23.7130  -16.3280  -20.7344 C   0  0  0  0  0  0  0  0  0  0  0  0
   23.0931  -15.7783  -19.6369 C   0  0  0  0  0  0  0  0  0  0  0  0
   23.8375  -18.8554  -18.5156 C   0  0  0  0  0  0  0  0  0  0  0  0
   22.5513  -19.1565  -18.8768 O   0  0  0  0  0  0  0  0  0  0  0  0
   24.7706  -19.3624  -19.2233 O   0  0  0  0  0  0  0  0  0  0  0  0
  2  1  1  1
  3  2  1  0
  4  2  1  0
  5  4  1  0
  5  6  1  6
  7  8  2  0
  7  5  1  0
  9  7  1  0
 10  9  1  0
 10 11  1  6
 11 12  1  0
 13 15  1  0
 13 10  1  0
 14 13  2  0
 16 15  1  0
 17 18  1  0
 16 17  1  6
 18 19  2  0
 19 20  1  0
 21 20  1  0
 22 21  2  0
 23 22  1  0
 24 25  1  0
 24 23  2  0
 25 26  2  0
 26 18  1  0
 26 21  1  0
 27 16  1  0
 27 28  1  0
 29 27  2  0
M  END
$$$$
