LCW.pdb
     RDKit          3D

 29 30  0  0  1  0  0  0  0  0999 V2000
   30.6517  -16.5578  -18.2595 C   0  0  0  0  0  0  0  0  0  0  0  0
   29.5674  -15.5104  -17.9572 C   0  0  2  0  0  0  0  0  0  0  0  0
   30.2478  -14.1810  -17.9070 C   0  0  0  0  0  0  0  0  0  0  0  0
   28.9189  -15.9208  -16.6879 C   0  0  0  0  0  0  0  0  0  0  0  0
   28.3931  -17.3386  -16.6603 C   0  0  2  0  0  0  0  0  0  0  0  0
   27.4914  -17.4382  -17.7892 N   0  0  0  0  0  0  0  0  0  0  0  0
   27.6839  -17.6102  -15.3851 C   0  0  0  0  0  0  0  0  0  0  0  0
   28.3015  -17.4610  -14.2934 O   0  0  0  0  0  0  0  0  0  0  0  0
   26.3340  -18.0281  -15.3115 N   0  0  0  0  0  0  0  0  0  0  0  0
   25.7361  -18.3408  -14.0017 C   0  0  1  0  0  0  0  0  0  0  0  0
   24.2122  -18.3523  -14.2184 C   0  0  0  0  0  0  0  0  0  0  0  0
   23.7666  -19.6872  -15.3314 S   0  0  0  0  0  0  0  0  0  0  0  0
   26.2538  -19.6283  -13.5138 C   0  0  0  0  0  0  0  0  0  0  0  0
   26.7490  -20.4700  -14.3587 O   0  0  0  0  0  0  0  0  0  0  0  0
   26.2348  -19.9860  -12.1715 N   0  0  0  0  0  0  0  0  0  0  0  0
   26.6487  -21.2359  -11.5690 C   0  0  1  0  0  0  0  0  0  0  0  0
   27.6212  -21.0581  -10.4835 C   0  0  0  0  0  0  0  0  0  0  0  0
   27.0736  -20.5319   -9.2234 C   0  0  0  0  0  0  0  0  0  0  0  0
   25.8067  -20.1212   -8.9218 C   0  0  0  0  0  0  0  0  0  0  0  0
   25.7313  -19.7215   -7.6398 N   0  0  0  0  0  0  0  0  0  0  0  0
   26.9530  -19.8677   -7.0870 C   0  0  0  0  0  0  0  0  0  0  0  0
   27.4211  -19.6184   -5.8163 C   0  0  0  0  0  0  0  0  0  0  0  0
   28.7323  -19.8687   -5.5059 C   0  0  0  0  0  0  0  0  0  0  0  0
   29.5882  -20.3654   -6.4466 C   0  0  0  0  0  0  0  0  0  0  0  0
   29.1234  -20.6222   -7.7409 C   0  0  0  0  0  0  0  0  0  0  0  0
   27.8072  -20.3701   -8.0491 C   0  0  0  0  0  0  0  0  0  0  0  0
   25.5005  -22.1486  -11.2888 C   0  0  0  0  0  0  0  0  0  0  0  0
   24.1801  -21.7902  -11.2292 O   0  0  0  0  0  0  0  0  0  0  0  0
   25.7755  -23.3789  -11.0906 O   0  0  0  0  0  0  0  0  0  0  0  0
  2  1  1  1
  3  2  1  0
  4  2  1  0
  5  4  1  0
  5  6  1  6
  7  8  2  0
  7  5  1  0
  9  7  1  0
 10  9  1  0
 10 11  1  6
 11 12  1  0
 13 15  1  0
 13 10  1  0
 14 13  2  0
 16 15  1  0
 17 18  1  0
 16 17  1  1
 18 19  2  0
 19 20  1  0
 21 20  1  0
 22 21  2  0
 23 22  1  0
 24 25  1  0
 24 23  2  0
 25 26  2  0
 26 18  1  0
 26 21  1  0
 27 16  1  0
 27 28  1  0
 29 27  2  0
M  END
$$$$
