LCW.pdb
     RDKit          3D

 29 30  0  0  1  0  0  0  0  0999 V2000
   29.2493  -18.4079   -4.1175 C   0  0  0  0  0  0  0  0  0  0  0  0
   28.8052  -19.8745   -4.2432 C   0  0  2  0  0  0  0  0  0  0  0  0
   29.7471  -20.6874   -3.4157 C   0  0  0  0  0  0  0  0  0  0  0  0
   28.8144  -20.2012   -5.6901 C   0  0  0  0  0  0  0  0  0  0  0  0
   27.8392  -19.4136   -6.5361 C   0  0  2  0  0  0  0  0  0  0  0  0
   26.7300  -19.1023   -5.6584 N   0  0  0  0  0  0  0  0  0  0  0  0
   27.3891  -20.2155   -7.7012 C   0  0  0  0  0  0  0  0  0  0  0  0
   28.2520  -20.6899   -8.4923 O   0  0  0  0  0  0  0  0  0  0  0  0
   26.0309  -20.4928   -7.9854 N   0  0  0  0  0  0  0  0  0  0  0  0
   25.6813  -21.2976   -9.1690 C   0  0  1  0  0  0  0  0  0  0  0  0
   24.3403  -21.9790   -8.8427 C   0  0  0  0  0  0  0  0  0  0  0  0
   22.9975  -20.8063   -9.0450 S   0  0  0  0  0  0  0  0  0  0  0  0
   25.6085  -20.4309  -10.3553 C   0  0  0  0  0  0  0  0  0  0  0  0
   25.3577  -19.1733  -10.2034 O   0  0  0  0  0  0  0  0  0  0  0  0
   25.7985  -20.9069  -11.6467 N   0  0  0  0  0  0  0  0  0  0  0  0
   25.7561  -20.1684  -12.8914 C   0  0  1  0  0  0  0  0  0  0  0  0
   26.8509  -19.1991  -13.0238 C   0  0  0  0  0  0  0  0  0  0  0  0
   26.8230  -18.3756  -14.2427 C   0  0  0  0  0  0  0  0  0  0  0  0
   25.8869  -17.4800  -14.6744 C   0  0  0  0  0  0  0  0  0  0  0  0
   26.2606  -16.9318  -15.8444 N   0  0  0  0  0  0  0  0  0  0  0  0
   27.4501  -17.4649  -16.1913 C   0  0  0  0  0  0  0  0  0  0  0  0
   28.2705  -17.2506  -17.2763 C   0  0  0  0  0  0  0  0  0  0  0  0
   29.4561  -17.9292  -17.3856 C   0  0  0  0  0  0  0  0  0  0  0  0
   29.8384  -18.8225  -16.4266 C   0  0  0  0  0  0  0  0  0  0  0  0
   29.0125  -19.0483  -15.3200 C   0  0  0  0  0  0  0  0  0  0  0  0
   27.8237  -18.3657  -15.2131 C   0  0  0  0  0  0  0  0  0  0  0  0
   25.4989  -21.0447  -14.0728 C   0  0  0  0  0  0  0  0  0  0  0  0
   24.6653  -20.7617  -15.1218 O   0  0  0  0  0  0  0  0  0  0  0  0
   26.1174  -22.1603  -14.1102 O   0  0  0  0  0  0  0  0  0  0  0  0
  2  1  1  6
  3  2  1  0
  4  2  1  0
  5  4  1  0
  5  6  1  1
  7  8  2  0
  7  5  1  0
  9  7  1  0
 10  9  1  0
 10 11  1  1
 11 12  1  0
 13 15  1  0
 13 10  1  0
 14 13  2  0
 16 15  1  0
 17 18  1  0
 16 17  1  6
 18 19  2  0
 19 20  1  0
 21 20  1  0
 22 21  2  0
 23 22  1  0
 24 25  1  0
 24 23  2  0
 25 26  2  0
 26 18  1  0
 26 21  1  0
 27 16  1  0
 27 28  1  0
 29 27  2  0
M  END
$$$$
