LCW.pdb
     RDKit          3D

 29 30  0  0  1  0  0  0  0  0999 V2000
   31.0389  -29.2257  -17.4149 C   0  0  0  0  0  0  0  0  0  0  0  0
   31.1562  -30.4601  -18.3240 C   0  0  2  0  0  0  0  0  0  0  0  0
   31.1585  -29.9643  -19.7336 C   0  0  0  0  0  0  0  0  0  0  0  0
   30.0195  -31.3505  -17.9842 C   0  0  0  0  0  0  0  0  0  0  0  0
   30.0334  -31.9074  -16.5782 C   0  0  2  0  0  0  0  0  0  0  0  0
   31.1678  -32.8065  -16.5301 N   0  0  0  0  0  0  0  0  0  0  0  0
   28.7688  -32.6276  -16.2869 C   0  0  0  0  0  0  0  0  0  0  0  0
   28.5886  -33.7780  -16.7765 O   0  0  0  0  0  0  0  0  0  0  0  0
   27.7347  -32.1014  -15.4768 N   0  0  0  0  0  0  0  0  0  0  0  0
   26.5298  -32.9077  -15.2143 C   0  0  1  0  0  0  0  0  0  0  0  0
   26.7801  -33.6289  -13.8778 C   0  0  0  0  0  0  0  0  0  0  0  0
   25.3238  -34.5675  -13.4115 S   0  0  0  0  0  0  0  0  0  0  0  0
   25.3459  -32.0353  -15.1802 C   0  0  0  0  0  0  0  0  0  0  0  0
   25.4076  -30.9126  -14.5451 O   0  0  0  0  0  0  0  0  0  0  0  0
   24.1503  -32.3660  -15.8059 N   0  0  0  0  0  0  0  0  0  0  0  0
   22.9194  -31.6048  -15.8506 C   0  0  1  0  0  0  0  0  0  0  0  0
   22.3355  -31.5321  -17.1958 C   0  0  0  0  0  0  0  0  0  0  0  0
   23.1099  -30.7610  -18.1809 C   0  0  0  0  0  0  0  0  0  0  0  0
   24.1126  -29.8536  -17.9917 C   0  0  0  0  0  0  0  0  0  0  0  0
   24.5596  -29.3893  -19.1722 N   0  0  0  0  0  0  0  0  0  0  0  0
   23.8515  -29.9911  -20.1498 C   0  0  0  0  0  0  0  0  0  0  0  0
   23.9081  -29.8862  -21.5216 C   0  0  0  0  0  0  0  0  0  0  0  0
   23.0652  -30.6325  -22.3030 C   0  0  0  0  0  0  0  0  0  0  0  0
   22.1621  -31.4852  -21.7360 C   0  0  0  0  0  0  0  0  0  0  0  0
   22.0957  -31.5996  -20.3432 C   0  0  0  0  0  0  0  0  0  0  0  0
   22.9430  -30.8494  -19.5620 C   0  0  0  0  0  0  0  0  0  0  0  0
   21.9852  -31.9543  -14.7393 C   0  0  0  0  0  0  0  0  0  0  0  0
   21.3795  -31.0712  -13.8858 O   0  0  0  0  0  0  0  0  0  0  0  0
   21.7235  -33.1921  -14.5723 O   0  0  0  0  0  0  0  0  0  0  0  0
  2  1  1  1
  3  2  1  0
  4  2  1  0
  5  4  1  0
  5  6  1  6
  7  8  2  0
  7  5  1  0
  9  7  1  0
 10  9  1  0
 10 11  1  1
 11 12  1  0
 13 15  1  0
 13 10  1  0
 14 13  2  0
 16 15  1  0
 17 18  1  0
 16 17  1  6
 18 19  2  0
 19 20  1  0
 21 20  1  0
 22 21  2  0
 23 22  1  0
 24 25  1  0
 24 23  2  0
 25 26  2  0
 26 18  1  0
 26 21  1  0
 27 16  1  0
 27 28  1  0
 29 27  2  0
M  END
$$$$
