LCW.pdb
     RDKit          3D

 29 30  0  0  1  0  0  0  0  0999 V2000
   25.9333  -14.8736  -19.2774 C   0  0  0  0  0  0  0  0  0  0  0  0
   24.8348  -15.8515  -19.7260 C   0  0  2  0  0  0  0  0  0  0  0  0
   23.5386  -15.1113  -19.6584 C   0  0  0  0  0  0  0  0  0  0  0  0
   24.9205  -17.0305  -18.8301 C   0  0  0  0  0  0  0  0  0  0  0  0
   26.2583  -17.7356  -18.8167 C   0  0  2  0  0  0  0  0  0  0  0  0
   26.4516  -18.2233  -20.1665 N   0  0  0  0  0  0  0  0  0  0  0  0
   26.2520  -18.8539  -17.8408 C   0  0  0  0  0  0  0  0  0  0  0  0
   25.1554  -19.4063  -17.5447 O   0  0  0  0  0  0  0  0  0  0  0  0
   27.4173  -19.3542  -17.2130 N   0  0  0  0  0  0  0  0  0  0  0  0
   27.3248  -20.5317  -16.3322 C   0  0  1  0  0  0  0  0  0  0  0  0
   28.6892  -21.2391  -16.4183 C   0  0  0  0  0  0  0  0  0  0  0  0
   28.7985  -22.1645  -17.9515 S   0  0  0  0  0  0  0  0  0  0  0  0
   26.9875  -20.1047  -14.9656 C   0  0  0  0  0  0  0  0  0  0  0  0
   27.4753  -18.9984  -14.5119 O   0  0  0  0  0  0  0  0  0  0  0  0
   26.1596  -20.8438  -14.1300 N   0  0  0  0  0  0  0  0  0  0  0  0
   26.0305  -20.7598  -12.6902 C   0  0  1  0  0  0  0  0  0  0  0  0
   24.8544  -19.9928  -12.2611 C   0  0  0  0  0  0  0  0  0  0  0  0
   24.4035  -20.2440  -10.8833 C   0  0  0  0  0  0  0  0  0  0  0  0
   25.0910  -20.1587   -9.7066 C   0  0  0  0  0  0  0  0  0  0  0  0
   24.2915  -20.4620   -8.6683 N   0  0  0  0  0  0  0  0  0  0  0  0
   23.0676  -20.7494   -9.1571 C   0  0  0  0  0  0  0  0  0  0  0  0
   21.8926  -21.1094   -8.5359 C   0  0  0  0  0  0  0  0  0  0  0  0
   20.7650  -21.3399   -9.2799 C   0  0  0  0  0  0  0  0  0  0  0  0
   20.7903  -21.2173  -10.6394 C   0  0  0  0  0  0  0  0  0  0  0  0
   21.9788  -20.8523  -11.2811 C   0  0  0  0  0  0  0  0  0  0  0  0
   23.1085  -20.6215  -10.5318 C   0  0  0  0  0  0  0  0  0  0  0  0
   26.2493  -22.0733  -12.0145 C   0  0  0  0  0  0  0  0  0  0  0  0
   26.9082  -22.2724  -10.8306 O   0  0  0  0  0  0  0  0  0  0  0  0
   25.7736  -23.1067  -12.5926 O   0  0  0  0  0  0  0  0  0  0  0  0
  2  1  1  1
  3  2  1  0
  4  2  1  0
  5  4  1  0
  5  6  1  6
  7  8  2  0
  7  5  1  0
  9  7  1  0
 10  9  1  0
 10 11  1  1
 11 12  1  0
 13 15  1  0
 13 10  1  0
 14 13  2  0
 16 15  1  0
 17 18  1  0
 16 17  1  6
 18 19  2  0
 19 20  1  0
 21 20  1  0
 22 21  2  0
 23 22  1  0
 24 25  1  0
 24 23  2  0
 25 26  2  0
 26 18  1  0
 26 21  1  0
 27 16  1  0
 27 28  1  0
 29 27  2  0
M  END
$$$$
