LCW.pdb
     RDKit          3D

 29 30  0  0  1  0  0  0  0  0999 V2000
   23.7455  -16.6679  -16.3771 C   0  0  0  0  0  0  0  0  0  0  0  0
   22.6882  -16.2523  -15.3410 C   0  0  2  0  0  0  0  0  0  0  0  0
   23.0038  -14.8492  -14.9354 C   0  0  0  0  0  0  0  0  0  0  0  0
   22.7561  -17.2438  -14.2400 C   0  0  0  0  0  0  0  0  0  0  0  0
   22.5438  -18.6831  -14.6530 C   0  0  2  0  0  0  0  0  0  0  0  0
   21.1173  -18.8185  -14.8628 N   0  0  0  0  0  0  0  0  0  0  0  0
   23.0177  -19.6081  -13.5935 C   0  0  0  0  0  0  0  0  0  0  0  0
   22.3612  -19.7007  -12.5184 O   0  0  0  0  0  0  0  0  0  0  0  0
   24.1760  -20.4119  -13.7140 N   0  0  0  0  0  0  0  0  0  0  0  0
   24.5728  -21.2937  -12.6022 C   0  0  1  0  0  0  0  0  0  0  0  0
   25.0618  -22.6027  -13.2474 C   0  0  0  0  0  0  0  0  0  0  0  0
   25.9506  -23.5828  -12.0356 S   0  0  0  0  0  0  0  0  0  0  0  0
   25.6077  -20.6349  -11.7906 C   0  0  0  0  0  0  0  0  0  0  0  0
   26.4892  -19.8928  -12.3736 O   0  0  0  0  0  0  0  0  0  0  0  0
   25.6829  -20.7751  -10.4104 N   0  0  0  0  0  0  0  0  0  0  0  0
   26.6980  -20.2693   -9.5102 C   0  0  1  0  0  0  0  0  0  0  0  0
   26.1738  -19.9357   -8.1799 C   0  0  0  0  0  0  0  0  0  0  0  0
   27.1234  -19.2703   -7.2743 C   0  0  0  0  0  0  0  0  0  0  0  0
   27.6182  -17.9979   -7.3038 C   0  0  0  0  0  0  0  0  0  0  0  0
   28.4569  -17.7923   -6.2726 N   0  0  0  0  0  0  0  0  0  0  0  0
   28.5191  -18.9325   -5.5546 C   0  0  0  0  0  0  0  0  0  0  0  0
   29.2124  -19.2602   -4.4109 C   0  0  0  0  0  0  0  0  0  0  0  0
   29.0892  -20.5125   -3.8680 C   0  0  0  0  0  0  0  0  0  0  0  0
   28.2827  -21.4477   -4.4500 C   0  0  0  0  0  0  0  0  0  0  0  0
   27.5738  -21.1258   -5.6125 C   0  0  0  0  0  0  0  0  0  0  0  0
   27.6995  -19.8683   -6.1546 C   0  0  0  0  0  0  0  0  0  0  0  0
   27.9536  -21.0768   -9.5457 C   0  0  0  0  0  0  0  0  0  0  0  0
   29.2300  -20.5830   -9.5939 O   0  0  0  0  0  0  0  0  0  0  0  0
   27.8249  -22.3462   -9.5247 O   0  0  0  0  0  0  0  0  0  0  0  0
  2  1  1  6
  3  2  1  0
  4  2  1  0
  5  4  1  0
  5  6  1  1
  7  8  2  0
  7  5  1  0
  9  7  1  0
 10  9  1  0
 10 11  1  6
 11 12  1  0
 13 15  1  0
 13 10  1  0
 14 13  2  0
 16 15  1  0
 17 18  1  0
 16 17  1  1
 18 19  2  0
 19 20  1  0
 21 20  1  0
 22 21  2  0
 23 22  1  0
 24 25  1  0
 24 23  2  0
 25 26  2  0
 26 18  1  0
 26 21  1  0
 27 16  1  0
 27 28  1  0
 29 27  2  0
M  END
$$$$
