LCW.pdb
     RDKit          3D

 29 30  0  0  1  0  0  0  0  0999 V2000
   26.0357  -15.0071  -15.0982 C   0  0  0  0  0  0  0  0  0  0  0  0
   25.5009  -16.2637  -15.8045 C   0  0  2  0  0  0  0  0  0  0  0  0
   24.1433  -15.9244  -16.3284 C   0  0  0  0  0  0  0  0  0  0  0  0
   25.5210  -17.3578  -14.8032 C   0  0  0  0  0  0  0  0  0  0  0  0
   26.8164  -17.5087  -14.0374 C   0  0  2  0  0  0  0  0  0  0  0  0
   27.8421  -17.6859  -15.0444 N   0  0  0  0  0  0  0  0  0  0  0  0
   26.7542  -18.6793  -13.1271 C   0  0  0  0  0  0  0  0  0  0  0  0
   25.6580  -18.9686  -12.5703 O   0  0  0  0  0  0  0  0  0  0  0  0
   27.8629  -19.5110  -12.8414 N   0  0  0  0  0  0  0  0  0  0  0  0
   27.7159  -20.6218  -11.8846 C   0  0  1  0  0  0  0  0  0  0  0  0
   29.0218  -21.4325  -11.9660 C   0  0  0  0  0  0  0  0  0  0  0  0
   28.9792  -22.7746  -10.7760 S   0  0  0  0  0  0  0  0  0  0  0  0
   27.4579  -20.0873  -10.5386 C   0  0  0  0  0  0  0  0  0  0  0  0
   28.4369  -19.5904   -9.8588 O   0  0  0  0  0  0  0  0  0  0  0  0
   26.1960  -20.0920   -9.9573 N   0  0  0  0  0  0  0  0  0  0  0  0
   25.7566  -20.7954   -8.7704 C   0  0  1  0  0  0  0  0  0  0  0  0
   25.6115  -19.9186   -7.6017 C   0  0  0  0  0  0  0  0  0  0  0  0
   26.8679  -19.3923   -7.0457 C   0  0  0  0  0  0  0  0  0  0  0  0
   27.5212  -18.2225   -7.3094 C   0  0  0  0  0  0  0  0  0  0  0  0
   28.6384  -18.1265   -6.5665 N   0  0  0  0  0  0  0  0  0  0  0  0
   28.7274  -19.2368   -5.8057 C   0  0  0  0  0  0  0  0  0  0  0  0
   29.6578  -19.6382   -4.8734 C   0  0  0  0  0  0  0  0  0  0  0  0
   29.5048  -20.8336   -4.2209 C   0  0  0  0  0  0  0  0  0  0  0  0
   28.4345  -21.6391   -4.4846 C   0  0  0  0  0  0  0  0  0  0  0  0
   27.4832  -21.2414   -5.4303 C   0  0  0  0  0  0  0  0  0  0  0  0
   27.6395  -20.0413   -6.0831 C   0  0  0  0  0  0  0  0  0  0  0  0
   24.6263  -21.7328   -9.0415 C   0  0  0  0  0  0  0  0  0  0  0  0
   24.0806  -22.6186   -8.1510 O   0  0  0  0  0  0  0  0  0  0  0  0
   24.1185  -21.7023  -10.2118 O   0  0  0  0  0  0  0  0  0  0  0  0
  2  1  1  1
  3  2  1  0
  4  2  1  0
  5  4  1  0
  5  6  1  6
  7  8  2  0
  7  5  1  0
  9  7  1  0
 10  9  1  0
 10 11  1  1
 11 12  1  0
 13 15  1  0
 13 10  1  0
 14 13  2  0
 16 15  1  0
 17 18  1  0
 16 17  1  1
 18 19  2  0
 19 20  1  0
 21 20  1  0
 22 21  2  0
 23 22  1  0
 24 25  1  0
 24 23  2  0
 25 26  2  0
 26 18  1  0
 26 21  1  0
 27 16  1  0
 27 28  1  0
 29 27  2  0
M  END
$$$$
