LCW.pdb
     RDKit          3D

 29 30  0  0  1  0  0  0  0  0999 V2000
   24.8147  -14.4649  -14.8322 C   0  0  0  0  0  0  0  0  0  0  0  0
   24.1430  -15.5354  -15.7079 C   0  0  2  0  0  0  0  0  0  0  0  0
   23.7384  -14.8658  -16.9809 C   0  0  0  0  0  0  0  0  0  0  0  0
   23.0175  -16.0900  -14.9168 C   0  0  0  0  0  0  0  0  0  0  0  0
   22.5421  -17.4609  -15.3434 C   0  0  2  0  0  0  0  0  0  0  0  0
   21.1586  -17.2857  -15.7340 N   0  0  0  0  0  0  0  0  0  0  0  0
   22.6625  -18.4292  -14.2250 C   0  0  0  0  0  0  0  0  0  0  0  0
   21.8981  -18.3142  -13.2261 O   0  0  0  0  0  0  0  0  0  0  0  0
   23.5920  -19.4961  -14.2074 N   0  0  0  0  0  0  0  0  0  0  0  0
   23.6237  -20.4189  -13.0593 C   0  0  1  0  0  0  0  0  0  0  0  0
   23.0988  -21.7688  -13.5803 C   0  0  0  0  0  0  0  0  0  0  0  0
   23.5741  -23.0817  -12.4537 S   0  0  0  0  0  0  0  0  0  0  0  0
   24.9928  -20.5045  -12.5282 C   0  0  0  0  0  0  0  0  0  0  0  0
   25.9678  -20.7598  -13.3355 O   0  0  0  0  0  0  0  0  0  0  0  0
   25.2901  -20.3218  -11.1834 N   0  0  0  0  0  0  0  0  0  0  0  0
   26.5743  -20.4345  -10.5241 C   0  0  1  0  0  0  0  0  0  0  0  0
   26.5211  -20.0936   -9.0970 C   0  0  0  0  0  0  0  0  0  0  0  0
   27.8060  -20.1563   -8.3831 C   0  0  0  0  0  0  0  0  0  0  0  0
   29.0605  -20.4143   -8.8569 C   0  0  0  0  0  0  0  0  0  0  0  0
   29.9628  -20.3611   -7.8608 N   0  0  0  0  0  0  0  0  0  0  0  0
   29.3053  -20.0659   -6.7206 C   0  0  0  0  0  0  0  0  0  0  0  0
   29.7446  -19.8868   -5.4279 C   0  0  0  0  0  0  0  0  0  0  0  0
   28.8516  -19.5763   -4.4358 C   0  0  0  0  0  0  0  0  0  0  0  0
   27.5216  -19.4416   -4.7129 C   0  0  0  0  0  0  0  0  0  0  0  0
   27.0641  -19.6216   -6.0228 C   0  0  0  0  0  0  0  0  0  0  0  0
   27.9626  -19.9329   -7.0160 C   0  0  0  0  0  0  0  0  0  0  0  0
   27.2962  -21.6924  -10.8797 C   0  0  0  0  0  0  0  0  0  0  0  0
   28.5896  -21.7841  -11.3203 O   0  0  0  0  0  0  0  0  0  0  0  0
   26.6480  -22.7848  -10.7573 O   0  0  0  0  0  0  0  0  0  0  0  0
  2  1  1  1
  3  2  1  0
  4  2  1  0
  5  4  1  0
  5  6  1  1
  7  8  2  0
  7  5  1  0
  9  7  1  0
 10  9  1  0
 10 11  1  6
 11 12  1  0
 13 15  1  0
 13 10  1  0
 14 13  2  0
 16 15  1  0
 17 18  1  0
 16 17  1  1
 18 19  2  0
 19 20  1  0
 21 20  1  0
 22 21  2  0
 23 22  1  0
 24 25  1  0
 24 23  2  0
 25 26  2  0
 26 18  1  0
 26 21  1  0
 27 16  1  0
 27 28  1  0
 29 27  2  0
M  END
$$$$
