LCW.pdb
     RDKit          3D

 29 30  0  0  1  0  0  0  0  0999 V2000
   27.2991  -15.5072  -14.8365 C   0  0  0  0  0  0  0  0  0  0  0  0
   25.9229  -16.0410  -15.2669 C   0  0  2  0  0  0  0  0  0  0  0  0
   24.9150  -15.0070  -14.8824 C   0  0  0  0  0  0  0  0  0  0  0  0
   25.7462  -17.3540  -14.6000 C   0  0  0  0  0  0  0  0  0  0  0  0
   26.8629  -18.3486  -14.8261 C   0  0  2  0  0  0  0  0  0  0  0  0
   26.8108  -18.6739  -16.2364 N   0  0  0  0  0  0  0  0  0  0  0  0
   26.6636  -19.5595  -13.9913 C   0  0  0  0  0  0  0  0  0  0  0  0
   25.6284  -20.2624  -14.1634 O   0  0  0  0  0  0  0  0  0  0  0  0
   27.5780  -19.9886  -13.0002 N   0  0  0  0  0  0  0  0  0  0  0  0
   27.2925  -21.2054  -12.2200 C   0  0  1  0  0  0  0  0  0  0  0  0
   28.4847  -22.1513  -12.4503 C   0  0  0  0  0  0  0  0  0  0  0  0
   30.0184  -21.2981  -12.0775 S   0  0  0  0  0  0  0  0  0  0  0  0
   27.1060  -20.8550  -10.8036 C   0  0  0  0  0  0  0  0  0  0  0  0
   28.0969  -20.9851   -9.9858 O   0  0  0  0  0  0  0  0  0  0  0  0
   25.9001  -20.3856  -10.2979 N   0  0  0  0  0  0  0  0  0  0  0  0
   25.1422  -20.8881   -9.1712 C   0  0  1  0  0  0  0  0  0  0  0  0
   25.1602  -19.9832   -8.0151 C   0  0  0  0  0  0  0  0  0  0  0  0
   26.4856  -19.4712   -7.6330 C   0  0  0  0  0  0  0  0  0  0  0  0
   27.2534  -18.5042   -8.2163 C   0  0  0  0  0  0  0  0  0  0  0  0
   28.3999  -18.3346   -7.5338 N   0  0  0  0  0  0  0  0  0  0  0  0
   28.3936  -19.1919   -6.4924 C   0  0  0  0  0  0  0  0  0  0  0  0
   29.3068  -19.4224   -5.4879 C   0  0  0  0  0  0  0  0  0  0  0  0
   29.0469  -20.3631   -4.5259 C   0  0  0  0  0  0  0  0  0  0  0  0
   27.8862  -21.0815   -4.5497 C   0  0  0  0  0  0  0  0  0  0  0  0
   26.9513  -20.8558   -5.5659 C   0  0  0  0  0  0  0  0  0  0  0  0
   27.2150  -19.9110   -6.5296 C   0  0  0  0  0  0  0  0  0  0  0  0
   23.8089  -21.4300   -9.5693 C   0  0  0  0  0  0  0  0  0  0  0  0
   22.9090  -22.0483   -8.7426 O   0  0  0  0  0  0  0  0  0  0  0  0
   23.4751  -21.3008  -10.7942 O   0  0  0  0  0  0  0  0  0  0  0  0
  2  1  1  1
  3  2  1  0
  4  2  1  0
  5  4  1  0
  5  6  1  6
  7  8  2  0
  7  5  1  0
  9  7  1  0
 10  9  1  0
 10 11  1  1
 11 12  1  0
 13 15  1  0
 13 10  1  0
 14 13  2  0
 16 15  1  0
 17 18  1  0
 16 17  1  1
 18 19  2  0
 19 20  1  0
 21 20  1  0
 22 21  2  0
 23 22  1  0
 24 25  1  0
 24 23  2  0
 25 26  2  0
 26 18  1  0
 26 21  1  0
 27 16  1  0
 27 28  1  0
 29 27  2  0
M  END
$$$$
