LCW.pdb
     RDKit          3D

 29 30  0  0  1  0  0  0  0  0999 V2000
   23.1940  -23.1298  -17.5100 C   0  0  0  0  0  0  0  0  0  0  0  0
   24.0809  -24.3055  -17.0684 C   0  0  2  0  0  0  0  0  0  0  0  0
   23.1649  -25.4005  -16.6275 C   0  0  0  0  0  0  0  0  0  0  0  0
   24.9800  -23.7877  -16.0083 C   0  0  0  0  0  0  0  0  0  0  0  0
   25.9537  -22.7191  -16.4524 C   0  0  2  0  0  0  0  0  0  0  0  0
   26.9011  -23.3941  -17.3151 N   0  0  0  0  0  0  0  0  0  0  0  0
   26.6357  -22.1121  -15.2823 C   0  0  0  0  0  0  0  0  0  0  0  0
   27.4568  -22.8065  -14.6198 O   0  0  0  0  0  0  0  0  0  0  0  0
   26.4258  -20.7792  -14.8560 N   0  0  0  0  0  0  0  0  0  0  0  0
   27.1096  -20.2813  -13.6496 C   0  0  1  0  0  0  0  0  0  0  0  0
   27.1828  -18.7512  -13.7996 C   0  0  0  0  0  0  0  0  0  0  0  0
   28.3458  -18.3224  -15.0967 S   0  0  0  0  0  0  0  0  0  0  0  0
   26.3707  -20.7034  -12.4498 C   0  0  0  0  0  0  0  0  0  0  0  0
   25.0836  -20.7940  -12.5009 O   0  0  0  0  0  0  0  0  0  0  0  0
   26.9993  -21.0126  -11.2500 N   0  0  0  0  0  0  0  0  0  0  0  0
   26.3935  -21.3019   -9.9670 C   0  0  1  0  0  0  0  0  0  0  0  0
   27.3717  -21.3958   -8.8761 C   0  0  0  0  0  0  0  0  0  0  0  0
   27.2879  -20.3366   -7.8583 C   0  0  0  0  0  0  0  0  0  0  0  0
   26.5893  -19.1634   -7.8694 C   0  0  0  0  0  0  0  0  0  0  0  0
   26.7823  -18.4869   -6.7230 N   0  0  0  0  0  0  0  0  0  0  0  0
   27.6120  -19.2138   -5.9468 C   0  0  0  0  0  0  0  0  0  0  0  0
   28.1206  -18.9908   -4.6868 C   0  0  0  0  0  0  0  0  0  0  0  0
   28.9524  -19.9137   -4.1085 C   0  0  0  0  0  0  0  0  0  0  0  0
   29.2874  -21.0603   -4.7696 C   0  0  0  0  0  0  0  0  0  0  0  0
   28.7767  -21.2971   -6.0504 C   0  0  0  0  0  0  0  0  0  0  0  0
   27.9421  -20.3692   -6.6278 C   0  0  0  0  0  0  0  0  0  0  0  0
   25.1811  -20.4715   -9.7020 C   0  0  0  0  0  0  0  0  0  0  0  0
   24.9748  -19.1856  -10.1255 O   0  0  0  0  0  0  0  0  0  0  0  0
   24.2479  -21.0128   -9.0204 O   0  0  0  0  0  0  0  0  0  0  0  0
  2  1  1  1
  3  2  1  0
  4  2  1  0
  5  4  1  0
  5  6  1  6
  7  8  2  0
  7  5  1  0
  9  7  1  0
 10  9  1  0
 10 11  1  6
 11 12  1  0
 13 15  1  0
 13 10  1  0
 14 13  2  0
 16 15  1  0
 17 18  1  0
 16 17  1  1
 18 19  2  0
 19 20  1  0
 21 20  1  0
 22 21  2  0
 23 22  1  0
 24 25  1  0
 24 23  2  0
 25 26  2  0
 26 18  1  0
 26 21  1  0
 27 16  1  0
 27 28  1  0
 29 27  2  0
M  END
$$$$
