LCW.pdb
     RDKit          3D

 29 30  0  0  1  0  0  0  0  0999 V2000
   20.5884  -15.3760  -14.4286 C   0  0  0  0  0  0  0  0  0  0  0  0
   20.0155  -16.7862  -14.6461 C   0  0  2  0  0  0  0  0  0  0  0  0
   19.2610  -17.1457  -13.4073 C   0  0  0  0  0  0  0  0  0  0  0  0
   21.1657  -17.6728  -14.9480 C   0  0  0  0  0  0  0  0  0  0  0  0
   21.9894  -17.2743  -16.1521 C   0  0  2  0  0  0  0  0  0  0  0  0
   21.1187  -17.4596  -17.2944 N   0  0  0  0  0  0  0  0  0  0  0  0
   23.2021  -18.1230  -16.2620 C   0  0  0  0  0  0  0  0  0  0  0  0
   23.0860  -19.3125  -16.6707 O   0  0  0  0  0  0  0  0  0  0  0  0
   24.5049  -17.6759  -15.9377 N   0  0  0  0  0  0  0  0  0  0  0  0
   25.6516  -18.5870  -16.0986 C   0  0  1  0  0  0  0  0  0  0  0  0
   26.6111  -17.8976  -17.0850 C   0  0  0  0  0  0  0  0  0  0  0  0
   28.1485  -18.8176  -17.1812 S   0  0  0  0  0  0  0  0  0  0  0  0
   26.2679  -18.8463  -14.7883 C   0  0  0  0  0  0  0  0  0  0  0  0
   26.5939  -17.8487  -14.0361 O   0  0  0  0  0  0  0  0  0  0  0  0
   26.5190  -20.1287  -14.3164 N   0  0  0  0  0  0  0  0  0  0  0  0
   27.2701  -20.5229  -13.1430 C   0  0  1  0  0  0  0  0  0  0  0  0
   26.6276  -21.6027  -12.3836 C   0  0  0  0  0  0  0  0  0  0  0  0
   25.6348  -21.1715  -11.3871 C   0  0  0  0  0  0  0  0  0  0  0  0
   25.7586  -21.0174  -10.0360 C   0  0  0  0  0  0  0  0  0  0  0  0
   24.6017  -20.5885   -9.5005 N   0  0  0  0  0  0  0  0  0  0  0  0
   23.7057  -20.4564  -10.5000 C   0  0  0  0  0  0  0  0  0  0  0  0
   22.3910  -20.0470  -10.5058 C   0  0  0  0  0  0  0  0  0  0  0  0
   21.6939  -19.9917  -11.6845 C   0  0  0  0  0  0  0  0  0  0  0  0
   22.2892  -20.3401  -12.8627 C   0  0  0  0  0  0  0  0  0  0  0  0
   23.6245  -20.7578  -12.8686 C   0  0  0  0  0  0  0  0  0  0  0  0
   24.3211  -20.8120  -11.6843 C   0  0  0  0  0  0  0  0  0  0  0  0
   28.7288  -20.6826  -13.4195 C   0  0  0  0  0  0  0  0  0  0  0  0
   29.7523  -20.3500  -12.5726 O   0  0  0  0  0  0  0  0  0  0  0  0
   29.0516  -21.1797  -14.5496 O   0  0  0  0  0  0  0  0  0  0  0  0
  2  1  1  1
  3  2  1  0
  4  2  1  0
  5  4  1  0
  5  6  1  6
  7  8  2  0
  7  5  1  0
  9  7  1  0
 10  9  1  0
 10 11  1  6
 11 12  1  0
 13 15  1  0
 13 10  1  0
 14 13  2  0
 16 15  1  0
 17 18  1  0
 16 17  1  6
 18 19  2  0
 19 20  1  0
 21 20  1  0
 22 21  2  0
 23 22  1  0
 24 25  1  0
 24 23  2  0
 25 26  2  0
 26 18  1  0
 26 21  1  0
 27 16  1  0
 27 28  1  0
 29 27  2  0
M  END
$$$$
