HNY.pdb
     RDKit          3D

 31 32  0  0  1  0  0  0  0  0999 V2000
   11.0672  -17.3250   19.8070 N   0  0  0  0  0  0  0  0  0  0  0  0
    9.6215  -17.4112   19.9634 C   0  0  1  0  0  0  0  0  0  0  0  0
    9.1119  -18.5740   19.1572 C   0  0  0  0  0  0  0  0  0  0  0  0
    9.3276  -18.4178   17.7002 C   0  0  0  0  0  0  0  0  0  0  0  0
   10.4565  -17.9471   17.0474 C   0  0  0  0  0  0  0  0  0  0  0  0
   10.2616  -17.9544   15.7206 N   0  0  0  0  0  0  0  0  0  0  0  0
    9.0195  -18.4247   15.5154 C   0  0  0  0  0  0  0  0  0  0  0  0
    8.4502  -18.7058   16.6940 N   0  0  0  0  0  0  0  0  0  0  0  0
    9.2959  -17.4590   21.3876 C   0  0  0  0  0  0  0  0  0  0  0  0
    8.0587  -17.5653   21.6964 O   0  0  0  0  0  0  0  0  0  0  0  0
   10.0674  -18.9473   26.6519 N   0  0  0  0  0  0  0  0  0  0  0  0
   10.7950  -17.8779   26.0726 C   0  0  0  0  0  0  0  0  0  0  0  0
   11.1684  -16.9334   26.8093 O   0  0  0  0  0  0  0  0  0  0  0  0
   11.1225  -17.8415   24.6500 C   0  0  0  0  0  0  0  0  0  0  0  0
    9.9685  -17.4473   23.7668 C   0  0  2  0  0  0  0  0  0  0  0  0
   10.3052  -17.3904   22.3734 N   0  0  0  0  0  0  0  0  0  0  0  0
    9.3548  -16.1535   24.2049 C   0  0  0  0  0  0  0  0  0  0  0  0
    9.9406  -15.0792   23.9133 O   0  0  0  0  0  0  0  0  0  0  0  0
   11.3488  -15.4284   30.4400 O   0  0  0  0  0  0  0  0  0  0  0  0
   10.6704  -15.0562   29.2764 C   0  0  0  0  0  0  0  0  0  0  0  0
   11.1992  -14.1241   28.4047 C   0  0  0  0  0  0  0  0  0  0  0  0
   10.5363  -13.7523   27.2556 C   0  0  0  0  0  0  0  0  0  0  0  0
    9.3126  -14.2975   26.9270 C   0  0  0  0  0  0  0  0  0  0  0  0
    8.6089  -13.8829   25.6860 C   0  0  0  0  0  0  0  0  0  0  0  0
    7.4959  -14.8270   25.2899 C   0  0  2  0  0  0  0  0  0  0  0  0
    8.1555  -16.0876   24.9259 N   0  0  0  0  0  0  0  0  0  0  0  0
    6.6697  -14.3260   24.1869 C   0  0  0  0  0  0  0  0  0  0  0  0
    6.6074  -14.9886   22.9767 O   0  0  0  0  0  0  0  0  0  0  0  0
    8.7808  -15.2290   27.7953 C   0  0  0  0  0  0  0  0  0  0  0  0
    9.4471  -15.5892   28.9305 C   0  0  0  0  0  0  0  0  0  0  0  0
    6.0038  -13.2763   24.3372 O   0  0  0  0  0  0  0  0  0  0  0  0
  2  1  1  1
  2  3  1  0
  4  3  1  0
  4  5  2  0
  6  5  1  0
  7  6  1  0
  8  7  2  0
  8  4  1  0
  9  2  1  0
 10  9  2  0
 11 12  1  0
 12 14  1  0
 13 12  2  0
 15 14  1  1
 15 16  1  0
 16  9  1  0
 17 15  1  0
 17 18  2  0
 20 19  1  0
 21 20  2  0
 22 21  1  0
 23 29  1  0
 23 22  2  0
 25 24  1  6
 24 23  1  0
 25 26  1  0
 26 17  1  0
 27 25  1  0
 28 27  1  0
 29 30  2  0
 30 20  1  0
 31 27  2  0
M  END
$$$$
