HNY.pdb
     RDKit          3D

 31 32  0  0  1  0  0  0  0  0999 V2000
   10.8218  -15.9540   17.1277 N   0  0  0  0  0  0  0  0  0  0  0  0
    9.6408  -16.6143   17.6673 C   0  0  1  0  0  0  0  0  0  0  0  0
    8.7358  -17.0014   16.5304 C   0  0  0  0  0  0  0  0  0  0  0  0
    8.3698  -15.8624   15.6571 C   0  0  0  0  0  0  0  0  0  0  0  0
    8.2771  -14.5207   15.9937 C   0  0  0  0  0  0  0  0  0  0  0  0
    7.9148  -13.7983   14.9237 N   0  0  0  0  0  0  0  0  0  0  0  0
    7.7740  -14.6624   13.9040 C   0  0  0  0  0  0  0  0  0  0  0  0
    8.0440  -15.9021   14.3315 N   0  0  0  0  0  0  0  0  0  0  0  0
   10.0607  -17.7210   18.5250 C   0  0  0  0  0  0  0  0  0  0  0  0
    9.1353  -18.3968   19.0944 O   0  0  0  0  0  0  0  0  0  0  0  0
   11.5349  -21.2857   17.8215 N   0  0  0  0  0  0  0  0  0  0  0  0
   12.8218  -20.7593   18.0962 C   0  0  0  0  0  0  0  0  0  0  0  0
   13.7876  -21.1246   17.3835 O   0  0  0  0  0  0  0  0  0  0  0  0
   13.0576  -19.8085   19.1791 C   0  0  0  0  0  0  0  0  0  0  0  0
   11.8247  -19.0645   19.6189 C   0  0  2  0  0  0  0  0  0  0  0  0
   11.4271  -18.0257   18.7128 N   0  0  0  0  0  0  0  0  0  0  0  0
   11.9763  -18.5144   21.0035 C   0  0  0  0  0  0  0  0  0  0  0  0
   12.8847  -18.9776   21.7400 O   0  0  0  0  0  0  0  0  0  0  0  0
   14.4729  -13.3023   18.4486 O   0  0  0  0  0  0  0  0  0  0  0  0
   13.6505  -13.8084   19.4586 C   0  0  0  0  0  0  0  0  0  0  0  0
   14.1742  -14.5166   20.5227 C   0  0  0  0  0  0  0  0  0  0  0  0
   13.3696  -15.0184   21.5222 C   0  0  0  0  0  0  0  0  0  0  0  0
   12.0030  -14.8336   21.5015 C   0  0  0  0  0  0  0  0  0  0  0  0
   11.1490  -15.3846   22.5851 C   0  0  0  0  0  0  0  0  0  0  0  0
   11.3638  -16.8634   22.8177 C   0  0  2  0  0  0  0  0  0  0  0  0
   11.1495  -17.5055   21.5144 N   0  0  0  0  0  0  0  0  0  0  0  0
   10.4752  -17.4296   23.8375 C   0  0  0  0  0  0  0  0  0  0  0  0
   10.6151  -17.1058   25.1728 O   0  0  0  0  0  0  0  0  0  0  0  0
   11.4757  -14.1267   20.4401 C   0  0  0  0  0  0  0  0  0  0  0  0
   12.2830  -13.6344   19.4560 C   0  0  0  0  0  0  0  0  0  0  0  0
    9.5682  -18.2237   23.4991 O   0  0  0  0  0  0  0  0  0  0  0  0
  2  1  1  6
  2  3  1  0
  4  3  1  0
  4  5  2  0
  6  5  1  0
  7  6  1  0
  8  7  2  0
  8  4  1  0
  9  2  1  0
 10  9  2  0
 11 12  1  0
 12 14  1  0
 13 12  2  0
 15 14  1  6
 15 16  1  0
 16  9  1  0
 17 15  1  0
 17 18  2  0
 20 19  1  0
 21 20  2  0
 22 21  1  0
 23 29  1  0
 23 22  2  0
 25 24  1  6
 24 23  1  0
 25 26  1  0
 26 17  1  0
 27 25  1  0
 28 27  1  0
 29 30  2  0
 30 20  1  0
 31 27  2  0
M  END
$$$$
