HNY.pdb
     RDKit          3D

 31 32  0  0  1  0  0  0  0  0999 V2000
    6.2723  -16.6623   20.5029 N   0  0  0  0  0  0  0  0  0  0  0  0
    7.2072  -15.9972   21.4004 C   0  0  1  0  0  0  0  0  0  0  0  0
    6.9135  -14.5223   21.4055 C   0  0  0  0  0  0  0  0  0  0  0  0
    7.4690  -13.8089   20.2324 C   0  0  0  0  0  0  0  0  0  0  0  0
    8.2622  -14.3196   19.2164 C   0  0  0  0  0  0  0  0  0  0  0  0
    8.5639  -13.3553   18.3347 N   0  0  0  0  0  0  0  0  0  0  0  0
    7.9727  -12.2313   18.7743 C   0  0  0  0  0  0  0  0  0  0  0  0
    7.3138  -12.4908   19.9104 N   0  0  0  0  0  0  0  0  0  0  0  0
    7.1526  -16.6409   22.7117 C   0  0  0  0  0  0  0  0  0  0  0  0
    5.9969  -16.9800   23.1436 O   0  0  0  0  0  0  0  0  0  0  0  0
    7.2983  -19.8418   26.7668 N   0  0  0  0  0  0  0  0  0  0  0  0
    8.5180  -19.5434   26.1097 C   0  0  0  0  0  0  0  0  0  0  0  0
    9.5974  -19.8072   26.6925 O   0  0  0  0  0  0  0  0  0  0  0  0
    8.5573  -18.9405   24.7803 C   0  0  0  0  0  0  0  0  0  0  0  0
    8.2496  -17.4667   24.7679 C   0  0  2  0  0  0  0  0  0  0  0  0
    8.3255  -16.8752   23.4630 N   0  0  0  0  0  0  0  0  0  0  0  0
    9.1162  -16.7136   25.7294 C   0  0  0  0  0  0  0  0  0  0  0  0
   10.3184  -16.5066   25.4225 O   0  0  0  0  0  0  0  0  0  0  0  0
    7.0162  -10.6818   24.5087 O   0  0  0  0  0  0  0  0  0  0  0  0
    7.4059  -11.5986   25.4886 C   0  0  0  0  0  0  0  0  0  0  0  0
    8.7386  -11.8816   25.7167 C   0  0  0  0  0  0  0  0  0  0  0  0
    9.1305  -12.7842   26.6811 C   0  0  0  0  0  0  0  0  0  0  0  0
    8.2047  -13.4449   27.4614 C   0  0  0  0  0  0  0  0  0  0  0  0
    8.6437  -14.4182   28.4944 C   0  0  0  0  0  0  0  0  0  0  0  0
    9.4943  -15.5364   27.9346 C   0  0  2  0  0  0  0  0  0  0  0  0
    8.6456  -16.2293   26.9568 N   0  0  0  0  0  0  0  0  0  0  0  0
    9.9865  -16.4644   28.9578 C   0  0  0  0  0  0  0  0  0  0  0  0
    9.6538  -17.8046   28.9326 O   0  0  0  0  0  0  0  0  0  0  0  0
    6.8722  -13.1652   27.2366 C   0  0  0  0  0  0  0  0  0  0  0  0
    6.4965  -12.2690   26.2783 C   0  0  0  0  0  0  0  0  0  0  0  0
   10.7241  -16.0410   29.8767 O   0  0  0  0  0  0  0  0  0  0  0  0
  2  1  1  6
  2  3  1  0
  4  3  1  0
  4  5  2  0
  6  5  1  0
  7  6  1  0
  8  7  2  0
  8  4  1  0
  9  2  1  0
 10  9  2  0
 11 12  1  0
 12 14  1  0
 13 12  2  0
 15 14  1  6
 15 16  1  0
 16  9  1  0
 17 15  1  0
 17 18  2  0
 20 19  1  0
 21 20  2  0
 22 21  1  0
 23 29  1  0
 23 22  2  0
 25 24  1  1
 24 23  1  0
 25 26  1  0
 26 17  1  0
 27 25  1  0
 28 27  1  0
 29 30  2  0
 30 20  1  0
 31 27  2  0
M  END
$$$$
