HNY.pdb
     RDKit          3D

 31 32  0  0  1  0  0  0  0  0999 V2000
    9.0315  -17.4307   18.7299 N   0  0  0  0  0  0  0  0  0  0  0  0
    9.1586  -16.5402   19.8757 C   0  0  1  0  0  0  0  0  0  0  0  0
    7.9465  -15.6524   19.9406 C   0  0  0  0  0  0  0  0  0  0  0  0
    8.0252  -14.4840   19.0337 C   0  0  0  0  0  0  0  0  0  0  0  0
    9.0633  -14.1252   18.1877 C   0  0  0  0  0  0  0  0  0  0  0  0
    8.7565  -12.9977   17.5298 N   0  0  0  0  0  0  0  0  0  0  0  0
    7.5324  -12.6293   17.9448 C   0  0  0  0  0  0  0  0  0  0  0  0
    7.0842  -13.5122   18.8458 N   0  0  0  0  0  0  0  0  0  0  0  0
    9.4039  -17.3368   21.0765 C   0  0  0  0  0  0  0  0  0  0  0  0
    8.9257  -18.5235   21.0929 O   0  0  0  0  0  0  0  0  0  0  0  0
   13.2080  -18.9263   21.2266 N   0  0  0  0  0  0  0  0  0  0  0  0
   12.6726  -18.3867   22.4227 C   0  0  0  0  0  0  0  0  0  0  0  0
   13.3412  -17.5305   23.0505 O   0  0  0  0  0  0  0  0  0  0  0  0
   11.3715  -18.7950   22.9453 C   0  0  0  0  0  0  0  0  0  0  0  0
   10.4626  -17.6450   23.2895 C   0  0  2  0  0  0  0  0  0  0  0  0
   10.1361  -16.8149   22.1658 N   0  0  0  0  0  0  0  0  0  0  0  0
   11.0213  -16.8137   24.4028 C   0  0  0  0  0  0  0  0  0  0  0  0
   11.5572  -15.7111   24.1214 O   0  0  0  0  0  0  0  0  0  0  0  0
    6.3751  -11.3135   26.3677 O   0  0  0  0  0  0  0  0  0  0  0  0
    6.9673  -12.5789   26.3407 C   0  0  0  0  0  0  0  0  0  0  0  0
    6.5095  -13.5671   25.4910 C   0  0  0  0  0  0  0  0  0  0  0  0
    7.0884  -14.8170   25.4587 C   0  0  0  0  0  0  0  0  0  0  0  0
    8.1528  -15.1341   26.2767 C   0  0  0  0  0  0  0  0  0  0  0  0
    8.7632  -16.4879   26.2324 C   0  0  0  0  0  0  0  0  0  0  0  0
   10.1771  -16.5204   26.7678 C   0  0  2  0  0  0  0  0  0  0  0  0
   10.9731  -17.2113   25.7453 N   0  0  0  0  0  0  0  0  0  0  0  0
   10.2942  -17.1881   28.0681 C   0  0  0  0  0  0  0  0  0  0  0  0
   10.2593  -16.4730   29.2492 O   0  0  0  0  0  0  0  0  0  0  0  0
    8.6130  -14.1497   27.1272 C   0  0  0  0  0  0  0  0  0  0  0  0
    8.0313  -12.9153   27.1500 C   0  0  0  0  0  0  0  0  0  0  0  0
   10.4287  -18.4320   28.1174 O   0  0  0  0  0  0  0  0  0  0  0  0
  2  1  1  6
  2  3  1  0
  4  3  1  0
  4  5  2  0
  6  5  1  0
  7  6  1  0
  8  7  2  0
  8  4  1  0
  9  2  1  0
 10  9  2  0
 11 12  1  0
 12 14  1  0
 13 12  2  0
 15 14  1  6
 15 16  1  0
 16  9  1  0
 17 15  1  0
 17 18  2  0
 20 19  1  0
 21 20  2  0
 22 21  1  0
 23 29  1  0
 23 22  2  0
 25 24  1  6
 24 23  1  0
 25 26  1  0
 26 17  1  0
 27 25  1  0
 28 27  1  0
 29 30  2  0
 30 20  1  0
 31 27  2  0
M  END
$$$$
