HNY.pdb
     RDKit          3D

 31 32  0  0  1  0  0  0  0  0999 V2000
   11.3325  -18.6966   18.6403 N   0  0  0  0  0  0  0  0  0  0  0  0
   11.8307  -17.6988   19.5772 C   0  0  1  0  0  0  0  0  0  0  0  0
   12.8725  -16.8604   18.8892 C   0  0  0  0  0  0  0  0  0  0  0  0
   13.2410  -17.3666   17.5468 C   0  0  0  0  0  0  0  0  0  0  0  0
   12.8722  -18.5635   16.9522 C   0  0  0  0  0  0  0  0  0  0  0  0
   13.4115  -18.6585   15.7281 N   0  0  0  0  0  0  0  0  0  0  0  0
   14.1223  -17.5351   15.5311 C   0  0  0  0  0  0  0  0  0  0  0  0
   14.0276  -16.7535   16.6139 N   0  0  0  0  0  0  0  0  0  0  0  0
   10.7011  -16.9504   20.1255 C   0  0  0  0  0  0  0  0  0  0  0  0
    9.7862  -16.5967   19.3039 O   0  0  0  0  0  0  0  0  0  0  0  0
    7.0491  -14.7125   22.7774 N   0  0  0  0  0  0  0  0  0  0  0  0
    6.9897  -16.0113   22.2133 C   0  0  0  0  0  0  0  0  0  0  0  0
    5.8673  -16.5489   22.0538 O   0  0  0  0  0  0  0  0  0  0  0  0
    8.1900  -16.7404   21.8134 C   0  0  0  0  0  0  0  0  0  0  0  0
    9.4704  -15.9807   22.0381 C   0  0  2  0  0  0  0  0  0  0  0  0
   10.6284  -16.6351   21.5004 N   0  0  0  0  0  0  0  0  0  0  0  0
    9.6789  -15.6667   23.4875 C   0  0  0  0  0  0  0  0  0  0  0  0
   10.3824  -14.6697   23.7931 O   0  0  0  0  0  0  0  0  0  0  0  0
    6.0187  -10.9053   25.9821 O   0  0  0  0  0  0  0  0  0  0  0  0
    6.5522  -12.1852   26.1549 C   0  0  0  0  0  0  0  0  0  0  0  0
    7.8443  -12.3687   26.6075 C   0  0  0  0  0  0  0  0  0  0  0  0
    8.3771  -13.6275   26.7804 C   0  0  0  0  0  0  0  0  0  0  0  0
    7.6394  -14.7605   26.5076 C   0  0  0  0  0  0  0  0  0  0  0  0
    8.2301  -16.1107   26.6957 C   0  0  0  0  0  0  0  0  0  0  0  0
    9.5177  -16.3086   25.9275 C   0  0  2  0  0  0  0  0  0  0  0  0
    9.1238  -16.4357   24.5185 N   0  0  0  0  0  0  0  0  0  0  0  0
   10.2870  -17.4767   26.3680 C   0  0  0  0  0  0  0  0  0  0  0  0
   10.3716  -18.6161   25.5920 O   0  0  0  0  0  0  0  0  0  0  0  0
    6.3481  -14.5817   26.0550 C   0  0  0  0  0  0  0  0  0  0  0  0
    5.8315  -13.3295   25.8878 C   0  0  0  0  0  0  0  0  0  0  0  0
   10.8826  -17.4487   27.4690 O   0  0  0  0  0  0  0  0  0  0  0  0
  2  1  1  6
  2  3  1  0
  4  3  1  0
  4  5  2  0
  6  5  1  0
  7  6  1  0
  8  7  2  0
  8  4  1  0
  9  2  1  0
 10  9  2  0
 11 12  1  0
 12 14  1  0
 13 12  2  0
 15 14  1  1
 15 16  1  0
 16  9  1  0
 17 15  1  0
 17 18  2  0
 20 19  1  0
 21 20  2  0
 22 21  1  0
 23 29  1  0
 23 22  2  0
 25 24  1  1
 24 23  1  0
 25 26  1  0
 26 17  1  0
 27 25  1  0
 28 27  1  0
 29 30  2  0
 30 20  1  0
 31 27  2  0
M  END
$$$$
