HNY.pdb
     RDKit          3D

 31 32  0  0  1  0  0  0  0  0999 V2000
   10.0681  -16.3929   20.2791 N   0  0  0  0  0  0  0  0  0  0  0  0
    9.0841  -15.7745   21.1573 C   0  0  1  0  0  0  0  0  0  0  0  0
    7.8013  -15.5848   20.3957 C   0  0  0  0  0  0  0  0  0  0  0  0
    7.9050  -14.5812   19.3113 C   0  0  0  0  0  0  0  0  0  0  0  0
    9.0268  -13.8778   18.9002 C   0  0  0  0  0  0  0  0  0  0  0  0
    8.7141  -13.0583   17.8859 N   0  0  0  0  0  0  0  0  0  0  0  0
    7.4035  -13.2285   17.6418 C   0  0  0  0  0  0  0  0  0  0  0  0
    6.9081  -14.1386   18.4896 N   0  0  0  0  0  0  0  0  0  0  0  0
    8.9643  -16.5700   22.3777 C   0  0  0  0  0  0  0  0  0  0  0  0
    8.2375  -17.6213   22.3157 O   0  0  0  0  0  0  0  0  0  0  0  0
   12.6475  -18.8941   24.9846 N   0  0  0  0  0  0  0  0  0  0  0  0
   11.6483  -18.3220   24.1581 C   0  0  0  0  0  0  0  0  0  0  0  0
   11.9985  -17.7411   23.1026 O   0  0  0  0  0  0  0  0  0  0  0  0
   10.2291  -18.3875   24.4958 C   0  0  0  0  0  0  0  0  0  0  0  0
    9.5918  -17.0422   24.7222 C   0  0  2  0  0  0  0  0  0  0  0  0
    9.6231  -16.1905   23.5681 N   0  0  0  0  0  0  0  0  0  0  0  0
   10.1900  -16.3393   25.9014 C   0  0  0  0  0  0  0  0  0  0  0  0
   11.2477  -15.6787   25.7365 O   0  0  0  0  0  0  0  0  0  0  0  0
    6.2556  -11.7173   25.0444 O   0  0  0  0  0  0  0  0  0  0  0  0
    6.9362  -12.4867   25.9918 C   0  0  0  0  0  0  0  0  0  0  0  0
    6.4111  -13.6745   26.4624 C   0  0  0  0  0  0  0  0  0  0  0  0
    7.0763  -14.4384   27.3963 C   0  0  0  0  0  0  0  0  0  0  0  0
    8.2985  -14.0471   27.9017 C   0  0  0  0  0  0  0  0  0  0  0  0
    9.0011  -14.8804   28.9113 C   0  0  0  0  0  0  0  0  0  0  0  0
   10.1639  -15.6574   28.3358 C   0  0  2  0  0  0  0  0  0  0  0  0
    9.6222  -16.3855   27.1812 N   0  0  0  0  0  0  0  0  0  0  0  0
   10.7848  -16.5761   29.2954 C   0  0  0  0  0  0  0  0  0  0  0  0
   11.4858  -16.1074   30.3891 O   0  0  0  0  0  0  0  0  0  0  0  0
    8.8266  -12.8609   27.4343 C   0  0  0  0  0  0  0  0  0  0  0  0
    8.1581  -12.1129   26.5090 C   0  0  0  0  0  0  0  0  0  0  0  0
   10.6818  -17.8125   29.1269 O   0  0  0  0  0  0  0  0  0  0  0  0
  2  1  1  6
  2  3  1  0
  4  3  1  0
  4  5  2  0
  6  5  1  0
  7  6  1  0
  8  7  2  0
  8  4  1  0
  9  2  1  0
 10  9  2  0
 11 12  1  0
 12 14  1  0
 13 12  2  0
 15 14  1  6
 15 16  1  0
 16  9  1  0
 17 15  1  0
 17 18  2  0
 20 19  1  0
 21 20  2  0
 22 21  1  0
 23 29  1  0
 23 22  2  0
 25 24  1  1
 24 23  1  0
 25 26  1  0
 26 17  1  0
 27 25  1  0
 28 27  1  0
 29 30  2  0
 30 20  1  0
 31 27  2  0
M  END
$$$$
