HNY.pdb
     RDKit          3D

 31 32  0  0  1  0  0  0  0  0999 V2000
    7.4608  -16.8459   20.8232 N   0  0  0  0  0  0  0  0  0  0  0  0
    8.6467  -16.2244   21.3972 C   0  0  1  0  0  0  0  0  0  0  0  0
    8.3865  -14.7547   21.5818 C   0  0  0  0  0  0  0  0  0  0  0  0
    8.2731  -14.0135   20.3045 C   0  0  0  0  0  0  0  0  0  0  0  0
    8.4049  -14.5048   19.0147 C   0  0  0  0  0  0  0  0  0  0  0  0
    8.2346  -13.5179   18.1230 N   0  0  0  0  0  0  0  0  0  0  0  0
    7.9950  -12.3984   18.8270 C   0  0  0  0  0  0  0  0  0  0  0  0
    8.0155  -12.6830   20.1351 N   0  0  0  0  0  0  0  0  0  0  0  0
    9.0217  -16.9414   22.6145 C   0  0  0  0  0  0  0  0  0  0  0  0
    8.0682  -17.3606   23.3577 O   0  0  0  0  0  0  0  0  0  0  0  0
   12.0013  -20.0529   21.8833 N   0  0  0  0  0  0  0  0  0  0  0  0
   12.3332  -18.9746   22.7410 C   0  0  0  0  0  0  0  0  0  0  0  0
   13.1403  -18.1052   22.3323 O   0  0  0  0  0  0  0  0  0  0  0  0
   11.7670  -18.8444   24.0807 C   0  0  0  0  0  0  0  0  0  0  0  0
   10.7301  -17.7596   24.2035 C   0  0  2  0  0  0  0  0  0  0  0  0
   10.3765  -17.1586   22.9497 N   0  0  0  0  0  0  0  0  0  0  0  0
   11.1461  -16.7067   25.1838 C   0  0  0  0  0  0  0  0  0  0  0  0
   12.0520  -15.8992   24.8529 O   0  0  0  0  0  0  0  0  0  0  0  0
    5.1255  -13.1942   26.6711 O   0  0  0  0  0  0  0  0  0  0  0  0
    6.4980  -13.4481   26.7374 C   0  0  0  0  0  0  0  0  0  0  0  0
    7.1225  -14.2616   25.8120 C   0  0  0  0  0  0  0  0  0  0  0  0
    8.4752  -14.5165   25.8709 C   0  0  0  0  0  0  0  0  0  0  0  0
    9.2645  -13.9677   26.8600 C   0  0  0  0  0  0  0  0  0  0  0  0
   10.7211  -14.2557   26.9117 C   0  0  0  0  0  0  0  0  0  0  0  0
   11.0368  -15.6265   27.4670 C   0  0  2  0  0  0  0  0  0  0  0  0
   10.5697  -16.5822   26.4546 N   0  0  0  0  0  0  0  0  0  0  0  0
   10.4121  -15.8880   28.7677 C   0  0  0  0  0  0  0  0  0  0  0  0
    9.5758  -16.9703   28.9589 O   0  0  0  0  0  0  0  0  0  0  0  0
    8.6445  -13.1545   27.7866 C   0  0  0  0  0  0  0  0  0  0  0  0
    7.3036  -12.9094   27.7177 C   0  0  0  0  0  0  0  0  0  0  0  0
   10.6364  -15.1189   29.7300 O   0  0  0  0  0  0  0  0  0  0  0  0
  2  1  1  1
  2  3  1  0
  4  3  1  0
  4  5  2  0
  6  5  1  0
  7  6  1  0
  8  7  2  0
  8  4  1  0
  9  2  1  0
 10  9  2  0
 11 12  1  0
 12 14  1  0
 13 12  2  0
 15 14  1  6
 15 16  1  0
 16  9  1  0
 17 15  1  0
 17 18  2  0
 20 19  1  0
 21 20  2  0
 22 21  1  0
 23 29  1  0
 23 22  2  0
 25 24  1  6
 24 23  1  0
 25 26  1  0
 26 17  1  0
 27 25  1  0
 28 27  1  0
 29 30  2  0
 30 20  1  0
 31 27  2  0
M  END
$$$$
