HNY.pdb
     RDKit          3D

 31 32  0  0  1  0  0  0  0  0999 V2000
    6.3485  -16.1308   22.0366 N   0  0  0  0  0  0  0  0  0  0  0  0
    6.9198  -17.0768   21.0877 C   0  0  1  0  0  0  0  0  0  0  0  0
    6.7839  -16.5169   19.6986 C   0  0  0  0  0  0  0  0  0  0  0  0
    7.1857  -15.0949   19.5966 C   0  0  0  0  0  0  0  0  0  0  0  0
    7.3138  -14.1661   20.6179 C   0  0  0  0  0  0  0  0  0  0  0  0
    7.6973  -12.9810   20.1213 N   0  0  0  0  0  0  0  0  0  0  0  0
    7.8166  -13.1396   18.7921 C   0  0  0  0  0  0  0  0  0  0  0  0
    7.5126  -14.4021   18.4661 N   0  0  0  0  0  0  0  0  0  0  0  0
    8.2879  -17.3945   21.4928 C   0  0  0  0  0  0  0  0  0  0  0  0
    9.0663  -17.8613   20.5909 O   0  0  0  0  0  0  0  0  0  0  0  0
   11.6775  -16.7769   20.8110 N   0  0  0  0  0  0  0  0  0  0  0  0
   11.0787  -15.5282   21.1125 C   0  0  0  0  0  0  0  0  0  0  0  0
   11.2734  -14.5626   20.3354 O   0  0  0  0  0  0  0  0  0  0  0  0
   10.2451  -15.3314   22.2952 C   0  0  0  0  0  0  0  0  0  0  0  0
    9.9987  -16.5890   23.0858 C   0  0  2  0  0  0  0  0  0  0  0  0
    8.7248  -17.1934   22.8209 N   0  0  0  0  0  0  0  0  0  0  0  0
   10.1675  -16.3589   24.5558 C   0  0  0  0  0  0  0  0  0  0  0  0
   11.2325  -15.8290   24.9646 O   0  0  0  0  0  0  0  0  0  0  0  0
    6.5714  -11.0155   25.1704 O   0  0  0  0  0  0  0  0  0  0  0  0
    6.9219  -12.2482   25.7272 C   0  0  0  0  0  0  0  0  0  0  0  0
    8.0195  -12.3747   26.5563 C   0  0  0  0  0  0  0  0  0  0  0  0
    8.3712  -13.5868   27.1091 C   0  0  0  0  0  0  0  0  0  0  0  0
    7.6390  -14.7280   26.8564 C   0  0  0  0  0  0  0  0  0  0  0  0
    8.0339  -16.0281   27.4572 C   0  0  0  0  0  0  0  0  0  0  0  0
    9.3612  -16.5410   26.9451 C   0  0  2  0  0  0  0  0  0  0  0  0
    9.1898  -16.7086   25.4963 N   0  0  0  0  0  0  0  0  0  0  0  0
    9.7851  -17.7956   27.5751 C   0  0  0  0  0  0  0  0  0  0  0  0
    9.9700  -18.9458   26.8334 O   0  0  0  0  0  0  0  0  0  0  0  0
    6.5417  -14.6060   26.0285 C   0  0  0  0  0  0  0  0  0  0  0  0
    6.2033  -13.3998   25.4870 C   0  0  0  0  0  0  0  0  0  0  0  0
    9.9857  -17.8332   28.8104 O   0  0  0  0  0  0  0  0  0  0  0  0
  2  1  1  1
  2  3  1  0
  4  3  1  0
  4  5  2  0
  6  5  1  0
  7  6  1  0
  8  7  2  0
  8  4  1  0
  9  2  1  0
 10  9  2  0
 11 12  1  0
 12 14  1  0
 13 12  2  0
 15 14  1  6
 15 16  1  0
 16  9  1  0
 17 15  1  0
 17 18  2  0
 20 19  1  0
 21 20  2  0
 22 21  1  0
 23 29  1  0
 23 22  2  0
 25 24  1  1
 24 23  1  0
 25 26  1  0
 26 17  1  0
 27 25  1  0
 28 27  1  0
 29 30  2  0
 30 20  1  0
 31 27  2  0
M  END
$$$$
