HNY.pdb
     RDKit          3D

 31 32  0  0  1  0  0  0  0  0999 V2000
    9.2530  -15.4422   19.8942 N   0  0  0  0  0  0  0  0  0  0  0  0
    8.1426  -14.9357   20.6894 C   0  0  1  0  0  0  0  0  0  0  0  0
    6.9268  -14.8198   19.8120 C   0  0  0  0  0  0  0  0  0  0  0  0
    7.1912  -14.1250   18.5309 C   0  0  0  0  0  0  0  0  0  0  0  0
    6.6051  -14.3544   17.2956 C   0  0  0  0  0  0  0  0  0  0  0  0
    7.1139  -13.5186   16.3787 N   0  0  0  0  0  0  0  0  0  0  0  0
    8.0204  -12.7554   17.0126 C   0  0  0  0  0  0  0  0  0  0  0  0
    8.0754  -13.1095   18.3026 N   0  0  0  0  0  0  0  0  0  0  0  0
    7.9729  -15.7822   21.8689 C   0  0  0  0  0  0  0  0  0  0  0  0
    6.9467  -15.5592   22.6000 O   0  0  0  0  0  0  0  0  0  0  0  0
    8.1512  -20.9839   24.3863 N   0  0  0  0  0  0  0  0  0  0  0  0
    9.0857  -19.9259   24.2604 C   0  0  0  0  0  0  0  0  0  0  0  0
    9.8859  -19.7125   25.2029 O   0  0  0  0  0  0  0  0  0  0  0  0
    9.1459  -19.0795   23.0719 C   0  0  0  0  0  0  0  0  0  0  0  0
    8.6848  -17.6652   23.3045 C   0  0  2  0  0  0  0  0  0  0  0  0
    8.9027  -16.7983   22.1823 N   0  0  0  0  0  0  0  0  0  0  0  0
    9.2994  -17.0800   24.5383 C   0  0  0  0  0  0  0  0  0  0  0  0
   10.4644  -16.6109   24.4671 O   0  0  0  0  0  0  0  0  0  0  0  0
    6.7697  -10.9791   24.5615 O   0  0  0  0  0  0  0  0  0  0  0  0
    7.0824  -12.1181   25.3081 C   0  0  0  0  0  0  0  0  0  0  0  0
    8.3935  -12.4771   25.5538 C   0  0  0  0  0  0  0  0  0  0  0  0
    8.7096  -13.5985   26.2891 C   0  0  0  0  0  0  0  0  0  0  0  0
    7.7262  -14.4121   26.8120 C   0  0  0  0  0  0  0  0  0  0  0  0
    8.0839  -15.6201   27.5995 C   0  0  0  0  0  0  0  0  0  0  0  0
    9.2036  -16.4247   26.9783 C   0  0  2  0  0  0  0  0  0  0  0  0
    8.6326  -17.0323   25.7695 N   0  0  0  0  0  0  0  0  0  0  0  0
    9.7543  -17.4473   27.8734 C   0  0  0  0  0  0  0  0  0  0  0  0
   10.4694  -17.1036   29.0039 O   0  0  0  0  0  0  0  0  0  0  0  0
    6.4150  -14.0571   26.5688 C   0  0  0  0  0  0  0  0  0  0  0  0
    6.1145  -12.9436   25.8390 C   0  0  0  0  0  0  0  0  0  0  0  0
    9.5770  -18.6595   27.6147 O   0  0  0  0  0  0  0  0  0  0  0  0
  2  1  1  6
  2  3  1  0
  4  3  1  0
  4  5  2  0
  6  5  1  0
  7  6  1  0
  8  7  2  0
  8  4  1  0
  9  2  1  0
 10  9  2  0
 11 12  1  0
 12 14  1  0
 13 12  2  0
 15 14  1  6
 15 16  1  0
 16  9  1  0
 17 15  1  0
 17 18  2  0
 20 19  1  0
 21 20  2  0
 22 21  1  0
 23 29  1  0
 23 22  2  0
 25 24  1  1
 24 23  1  0
 25 26  1  0
 26 17  1  0
 27 25  1  0
 28 27  1  0
 29 30  2  0
 30 20  1  0
 31 27  2  0
M  END
$$$$
