HNY.pdb
     RDKit          3D

 31 32  0  0  1  0  0  0  0  0999 V2000
   10.1155  -15.1114   19.0992 N   0  0  0  0  0  0  0  0  0  0  0  0
    9.0098  -15.3597   20.0144 C   0  0  1  0  0  0  0  0  0  0  0  0
    7.7604  -15.6066   19.2147 C   0  0  0  0  0  0  0  0  0  0  0  0
    7.5066  -14.5706   18.1870 C   0  0  0  0  0  0  0  0  0  0  0  0
    8.1922  -13.3834   17.9805 C   0  0  0  0  0  0  0  0  0  0  0  0
    7.6575  -12.7125   16.9499 N   0  0  0  0  0  0  0  0  0  0  0  0
    6.6360  -13.4567   16.4930 C   0  0  0  0  0  0  0  0  0  0  0  0
    6.5360  -14.5724   17.2263 N   0  0  0  0  0  0  0  0  0  0  0  0
    9.3786  -16.4380   20.9298 C   0  0  0  0  0  0  0  0  0  0  0  0
    8.5184  -16.7631   21.8195 O   0  0  0  0  0  0  0  0  0  0  0  0
   10.9955  -20.8454   20.0297 N   0  0  0  0  0  0  0  0  0  0  0  0
   11.8086  -19.6851   20.0674 C   0  0  0  0  0  0  0  0  0  0  0  0
   12.2804  -19.2439   18.9918 O   0  0  0  0  0  0  0  0  0  0  0  0
   12.1131  -18.9898   21.3149 C   0  0  0  0  0  0  0  0  0  0  0  0
   11.0117  -18.0814   21.7932 C   0  0  2  0  0  0  0  0  0  0  0  0
   10.6290  -17.0875   20.8319 N   0  0  0  0  0  0  0  0  0  0  0  0
   11.3579  -17.4337   23.0983 C   0  0  0  0  0  0  0  0  0  0  0  0
   12.2596  -16.5569   23.1156 O   0  0  0  0  0  0  0  0  0  0  0  0
   10.4308  -14.0638   31.1848 O   0  0  0  0  0  0  0  0  0  0  0  0
   10.3525  -14.5472   29.8761 C   0  0  0  0  0  0  0  0  0  0  0  0
   10.4154  -15.9005   29.6062 C   0  0  0  0  0  0  0  0  0  0  0  0
   10.3388  -16.3844   28.3185 C   0  0  0  0  0  0  0  0  0  0  0  0
   10.1956  -15.5343   27.2418 C   0  0  0  0  0  0  0  0  0  0  0  0
   10.1185  -16.0721   25.8590 C   0  0  0  0  0  0  0  0  0  0  0  0
   11.0993  -17.1942   25.6018 C   0  0  2  0  0  0  0  0  0  0  0  0
   10.7205  -17.7624   24.3017 N   0  0  0  0  0  0  0  0  0  0  0  0
   11.0983  -18.2221   26.6476 C   0  0  0  0  0  0  0  0  0  0  0  0
   10.2078  -19.2774   26.6176 O   0  0  0  0  0  0  0  0  0  0  0  0
   10.1325  -14.1816   27.5070 C   0  0  0  0  0  0  0  0  0  0  0  0
   10.2094  -13.7143   28.7870 C   0  0  0  0  0  0  0  0  0  0  0  0
   11.9186  -18.1490   27.5908 O   0  0  0  0  0  0  0  0  0  0  0  0
  2  1  1  6
  2  3  1  0
  4  3  1  0
  4  5  2  0
  6  5  1  0
  7  6  1  0
  8  7  2  0
  8  4  1  0
  9  2  1  0
 10  9  2  0
 11 12  1  0
 12 14  1  0
 13 12  2  0
 15 14  1  6
 15 16  1  0
 16  9  1  0
 17 15  1  0
 17 18  2  0
 20 19  1  0
 21 20  2  0
 22 21  1  0
 23 29  1  0
 23 22  2  0
 25 24  1  1
 24 23  1  0
 25 26  1  0
 26 17  1  0
 27 25  1  0
 28 27  1  0
 29 30  2  0
 30 20  1  0
 31 27  2  0
M  END
$$$$
