HNY.pdb
     RDKit          3D

 31 32  0  0  1  0  0  0  0  0999 V2000
    9.4080  -17.6820   19.3151 N   0  0  0  0  0  0  0  0  0  0  0  0
    9.6054  -16.5325   20.1878 C   0  0  1  0  0  0  0  0  0  0  0  0
    8.2731  -15.8886   20.4558 C   0  0  0  0  0  0  0  0  0  0  0  0
    7.9007  -14.8685   19.4486 C   0  0  0  0  0  0  0  0  0  0  0  0
    8.6056  -14.4838   18.3185 C   0  0  0  0  0  0  0  0  0  0  0  0
    7.9378  -13.5259   17.6593 N   0  0  0  0  0  0  0  0  0  0  0  0
    6.8118  -13.2919   18.3546 C   0  0  0  0  0  0  0  0  0  0  0  0
    6.7786  -14.0904   19.4287 N   0  0  0  0  0  0  0  0  0  0  0  0
   10.3359  -16.9568   21.3808 C   0  0  0  0  0  0  0  0  0  0  0  0
   10.5540  -18.2108   21.5119 O   0  0  0  0  0  0  0  0  0  0  0  0
   13.9997  -14.2607   22.1826 N   0  0  0  0  0  0  0  0  0  0  0  0
   13.7361  -15.4086   22.9709 C   0  0  0  0  0  0  0  0  0  0  0  0
   14.5000  -16.3987   22.8691 O   0  0  0  0  0  0  0  0  0  0  0  0
   12.6070  -15.4745   23.8946 C   0  0  0  0  0  0  0  0  0  0  0  0
   11.5356  -16.4488   23.4822 C   0  0  2  0  0  0  0  0  0  0  0  0
   10.7783  -16.0205   22.3415 N   0  0  0  0  0  0  0  0  0  0  0  0
   10.6186  -16.7754   24.6202 C   0  0  0  0  0  0  0  0  0  0  0  0
   11.1223  -17.0852   25.7304 O   0  0  0  0  0  0  0  0  0  0  0  0
    7.4453  -10.6600   26.4414 O   0  0  0  0  0  0  0  0  0  0  0  0
    7.3537  -12.0279   26.1712 C   0  0  0  0  0  0  0  0  0  0  0  0
    6.7229  -12.4938   25.0341 C   0  0  0  0  0  0  0  0  0  0  0  0
    6.6288  -13.8410   24.7610 C   0  0  0  0  0  0  0  0  0  0  0  0
    7.1625  -14.7834   25.6151 C   0  0  0  0  0  0  0  0  0  0  0  0
    7.0490  -16.2325   25.3079 C   0  0  0  0  0  0  0  0  0  0  0  0
    8.3091  -17.0074   25.6223 C   0  0  2  0  0  0  0  0  0  0  0  0
    9.2229  -16.7508   24.5018 N   0  0  0  0  0  0  0  0  0  0  0  0
    8.0818  -18.4452   25.7994 C   0  0  0  0  0  0  0  0  0  0  0  0
    7.4455  -18.9397   26.9210 O   0  0  0  0  0  0  0  0  0  0  0  0
    7.7934  -14.3221   26.7523 C   0  0  0  0  0  0  0  0  0  0  0  0
    7.8804  -12.9850   27.0119 C   0  0  0  0  0  0  0  0  0  0  0  0
    8.4696  -19.2480   24.9202 O   0  0  0  0  0  0  0  0  0  0  0  0
  2  1  1  6
  2  3  1  0
  4  3  1  0
  4  5  2  0
  6  5  1  0
  7  6  1  0
  8  7  2  0
  8  4  1  0
  9  2  1  0
 10  9  2  0
 11 12  1  0
 12 14  1  0
 13 12  2  0
 15 14  1  1
 15 16  1  0
 16  9  1  0
 17 15  1  0
 17 18  2  0
 20 19  1  0
 21 20  2  0
 22 21  1  0
 23 29  1  0
 23 22  2  0
 25 24  1  6
 24 23  1  0
 25 26  1  0
 26 17  1  0
 27 25  1  0
 28 27  1  0
 29 30  2  0
 30 20  1  0
 31 27  2  0
M  END
$$$$
