HNY.pdb
     RDKit          3D

 31 32  0  0  1  0  0  0  0  0999 V2000
   11.2746  -19.4649   16.5813 N   0  0  0  0  0  0  0  0  0  0  0  0
   10.8980  -18.3187   17.3976 C   0  0  1  0  0  0  0  0  0  0  0  0
    9.8438  -17.5285   16.6726 C   0  0  0  0  0  0  0  0  0  0  0  0
   10.2680  -17.0804   15.3261 C   0  0  0  0  0  0  0  0  0  0  0  0
   11.2342  -16.1406   15.0014 C   0  0  0  0  0  0  0  0  0  0  0  0
   11.3253  -16.0105   13.6698 N   0  0  0  0  0  0  0  0  0  0  0  0
   10.4278  -16.8569   13.1368 C   0  0  0  0  0  0  0  0  0  0  0  0
    9.7883  -17.5034   14.1194 N   0  0  0  0  0  0  0  0  0  0  0  0
   10.5127  -18.7844   18.7285 C   0  0  0  0  0  0  0  0  0  0  0  0
    9.7514  -19.8113   18.7857 O   0  0  0  0  0  0  0  0  0  0  0  0
   13.3877  -20.6572   22.3210 N   0  0  0  0  0  0  0  0  0  0  0  0
   12.5453  -20.1557   21.2976 C   0  0  0  0  0  0  0  0  0  0  0  0
   13.0573  -19.8354   20.1978 O   0  0  0  0  0  0  0  0  0  0  0  0
   11.1051  -20.0009   21.4826 C   0  0  0  0  0  0  0  0  0  0  0  0
   10.5972  -18.6133   21.1936 C   0  0  2  0  0  0  0  0  0  0  0  0
   10.9632  -18.1268   19.8945 N   0  0  0  0  0  0  0  0  0  0  0  0
   11.0200  -17.6394   22.2497 C   0  0  0  0  0  0  0  0  0  0  0  0
   12.1147  -17.0358   22.1095 O   0  0  0  0  0  0  0  0  0  0  0  0
   10.6290  -13.6186   30.2543 O   0  0  0  0  0  0  0  0  0  0  0  0
   10.3473  -14.2651   29.0480 C   0  0  0  0  0  0  0  0  0  0  0  0
   10.0828  -13.5504   27.8958 C   0  0  0  0  0  0  0  0  0  0  0  0
    9.8044  -14.1809   26.7028 C   0  0  0  0  0  0  0  0  0  0  0  0
    9.7780  -15.5568   26.6095 C   0  0  0  0  0  0  0  0  0  0  0  0
    9.4721  -16.2210   25.3163 C   0  0  0  0  0  0  0  0  0  0  0  0
   10.7066  -16.5249   24.4973 C   0  0  2  0  0  0  0  0  0  0  0  0
   10.2487  -17.3714   23.3881 N   0  0  0  0  0  0  0  0  0  0  0  0
   11.7675  -17.1869   25.2633 C   0  0  0  0  0  0  0  0  0  0  0  0
   12.8503  -16.4811   25.7500 O   0  0  0  0  0  0  0  0  0  0  0  0
   10.0415  -16.2745   27.7583 C   0  0  0  0  0  0  0  0  0  0  0  0
   10.3161  -15.6386   28.9342 C   0  0  0  0  0  0  0  0  0  0  0  0
   11.6977  -18.4172   25.4853 O   0  0  0  0  0  0  0  0  0  0  0  0
  2  1  1  6
  2  3  1  0
  4  3  1  0
  4  5  2  0
  6  5  1  0
  7  6  1  0
  8  7  2  0
  8  4  1  0
  9  2  1  0
 10  9  2  0
 11 12  1  0
 12 14  1  0
 13 12  2  0
 15 14  1  1
 15 16  1  0
 16  9  1  0
 17 15  1  0
 17 18  2  0
 20 19  1  0
 21 20  2  0
 22 21  1  0
 23 29  1  0
 23 22  2  0
 25 24  1  1
 24 23  1  0
 25 26  1  0
 26 17  1  0
 27 25  1  0
 28 27  1  0
 29 30  2  0
 30 20  1  0
 31 27  2  0
M  END
$$$$
