HNY.pdb
     RDKit          3D

 31 32  0  0  1  0  0  0  0  0999 V2000
   10.2420  -13.8523   18.2910 N   0  0  0  0  0  0  0  0  0  0  0  0
   10.7585  -14.8191   19.2503 C   0  0  1  0  0  0  0  0  0  0  0  0
   12.0544  -14.3037   19.8131 C   0  0  0  0  0  0  0  0  0  0  0  0
   13.2152  -14.5370   18.9231 C   0  0  0  0  0  0  0  0  0  0  0  0
   13.4575  -15.6257   18.0996 C   0  0  0  0  0  0  0  0  0  0  0  0
   14.6207  -15.4669   17.4515 N   0  0  0  0  0  0  0  0  0  0  0  0
   15.1273  -14.2878   17.8506 C   0  0  0  0  0  0  0  0  0  0  0  0
   14.2939  -13.7215   18.7323 N   0  0  0  0  0  0  0  0  0  0  0  0
    9.7259  -15.1061   20.2443 C   0  0  0  0  0  0  0  0  0  0  0  0
    9.2708  -14.1133   20.9110 O   0  0  0  0  0  0  0  0  0  0  0  0
    6.3491  -17.4129   23.4124 N   0  0  0  0  0  0  0  0  0  0  0  0
    6.4243  -18.1668   22.2147 C   0  0  0  0  0  0  0  0  0  0  0  0
    5.6201  -19.1153   22.0475 O   0  0  0  0  0  0  0  0  0  0  0  0
    7.4052  -17.8750   21.1731 C   0  0  0  0  0  0  0  0  0  0  0  0
    8.2892  -16.6951   21.4788 C   0  0  2  0  0  0  0  0  0  0  0  0
    9.2560  -16.4214   20.4548 N   0  0  0  0  0  0  0  0  0  0  0  0
    8.9674  -16.8425   22.8057 C   0  0  0  0  0  0  0  0  0  0  0  0
    9.7408  -17.8187   22.9822 O   0  0  0  0  0  0  0  0  0  0  0  0
   11.3377  -14.7110   31.1635 O   0  0  0  0  0  0  0  0  0  0  0  0
   10.7800  -14.7296   29.8824 C   0  0  0  0  0  0  0  0  0  0  0  0
   11.3813  -15.4203   28.8483 C   0  0  0  0  0  0  0  0  0  0  0  0
   10.8372  -15.4433   27.5827 C   0  0  0  0  0  0  0  0  0  0  0  0
    9.6654  -14.7751   27.2951 C   0  0  0  0  0  0  0  0  0  0  0  0
    9.0939  -14.8067   25.9241 C   0  0  0  0  0  0  0  0  0  0  0  0
    9.4258  -16.0753   25.1707 C   0  0  2  0  0  0  0  0  0  0  0  0
    8.7777  -15.9397   23.8600 N   0  0  0  0  0  0  0  0  0  0  0  0
    8.9824  -17.2941   25.8551 C   0  0  0  0  0  0  0  0  0  0  0  0
    7.7682  -17.8827   25.5608 O   0  0  0  0  0  0  0  0  0  0  0  0
    9.0615  -14.0838   28.3255 C   0  0  0  0  0  0  0  0  0  0  0  0
    9.6101  -14.0685   29.5751 C   0  0  0  0  0  0  0  0  0  0  0  0
    9.7139  -17.8183   26.7257 O   0  0  0  0  0  0  0  0  0  0  0  0
  2  1  1  6
  2  3  1  0
  4  3  1  0
  4  5  2  0
  6  5  1  0
  7  6  1  0
  8  7  2  0
  8  4  1  0
  9  2  1  0
 10  9  2  0
 11 12  1  0
 12 14  1  0
 13 12  2  0
 15 14  1  6
 15 16  1  0
 16  9  1  0
 17 15  1  0
 17 18  2  0
 20 19  1  0
 21 20  2  0
 22 21  1  0
 23 29  1  0
 23 22  2  0
 25 24  1  1
 24 23  1  0
 25 26  1  0
 26 17  1  0
 27 25  1  0
 28 27  1  0
 29 30  2  0
 30 20  1  0
 31 27  2  0
M  END
$$$$
