WAL.pdb
     RDKit          3D

 28 29  0  0  1  0  0  0  0  0999 V2000
    6.5327  -17.6339   24.0726 N   0  0  0  0  0  0  0  0  0  0  0  0
    7.6182  -16.6608   24.1138 C   0  0  1  0  0  0  0  0  0  0  0  0
    7.6845  -15.9457   25.4204 C   0  0  0  0  0  0  0  0  0  0  0  0
    6.7173  -14.8617   25.5948 C   0  0  0  0  0  0  0  0  0  0  0  0
    5.4185  -14.8526   26.0529 C   0  0  0  0  0  0  0  0  0  0  0  0
    4.9520  -13.5997   26.0213 N   0  0  0  0  0  0  0  0  0  0  0  0
    5.9040  -12.7808   25.5558 C   0  0  0  0  0  0  0  0  0  0  0  0
    5.9224  -11.4157   25.3351 C   0  0  0  0  0  0  0  0  0  0  0  0
    7.0435  -10.8155   24.8444 C   0  0  0  0  0  0  0  0  0  0  0  0
    8.1830  -11.5648   24.5589 C   0  0  0  0  0  0  0  0  0  0  0  0
    8.1263  -12.9080   24.7897 C   0  0  0  0  0  0  0  0  0  0  0  0
    6.9993  -13.5455   25.2884 C   0  0  0  0  0  0  0  0  0  0  0  0
    8.8614  -17.3149   23.6987 C   0  0  0  0  0  0  0  0  0  0  0  0
    9.0201  -18.5518   23.8467 O   0  0  0  0  0  0  0  0  0  0  0  0
   12.1160  -16.0473   22.1850 C   0  0  0  0  0  0  0  0  0  0  0  0
   11.2799  -16.9737   23.0484 C   0  0  2  0  0  0  0  0  0  0  0  0
    9.9073  -16.5457   23.1196 N   0  0  0  0  0  0  0  0  0  0  0  0
   11.8294  -17.0905   24.4176 C   0  0  0  0  0  0  0  0  0  0  0  0
   13.0572  -17.3295   24.5733 O   0  0  0  0  0  0  0  0  0  0  0  0
    8.6668  -14.8782   28.4372 C   0  0  0  0  0  0  0  0  0  0  0  0
    9.7528  -15.1868   27.4171 C   0  0  1  0  0  0  0  0  0  0  0  0
   10.7365  -14.0323   27.3540 C   0  0  0  0  0  0  0  0  0  0  0  0
   10.4869  -16.4083   27.8823 C   0  0  0  0  0  0  0  0  0  0  0  0
   11.5076  -16.9299   26.9258 C   0  0  2  0  0  0  0  0  0  0  0  0
   11.0096  -16.9405   25.5593 N   0  0  0  0  0  0  0  0  0  0  0  0
   12.1033  -18.2251   27.2863 C   0  0  0  0  0  0  0  0  0  0  0  0
   12.9333  -18.4366   28.3727 O   0  0  0  0  0  0  0  0  0  0  0  0
   11.8780  -19.2730   26.5847 O   0  0  0  0  0  0  0  0  0  0  0  0
  2  1  1  1
  2 13  1  0
  2  3  1  0
  4  3  1  0
  4  5  2  0
  6  5  1  0
  7  6  1  0
  8  7  2  0
  9  8  1  0
 10  9  2  0
 10 11  1  0
 11 12  2  0
 12  7  1  0
 12  4  1  0
 13 17  1  0
 14 13  2  0
 16 15  1  6
 17 16  1  0
 18 19  2  0
 18 16  1  0
 21 20  1  1
 21 23  1  0
 21 22  1  0
 24 25  1  0
 24 23  1  1
 25 18  1  0
 26 24  1  0
 27 26  1  0
 28 26  2  0
M  END
$$$$
