WAL.pdb
     RDKit          3D

 28 29  0  0  1  0  0  0  0  0999 V2000
    6.3882  -18.1240   24.0847 N   0  0  0  0  0  0  0  0  0  0  0  0
    7.3260  -17.0072   24.0968 C   0  0  1  0  0  0  0  0  0  0  0  0
    7.3748  -16.3268   25.4226 C   0  0  0  0  0  0  0  0  0  0  0  0
    6.5096  -15.1550   25.5612 C   0  0  0  0  0  0  0  0  0  0  0  0
    5.2143  -15.0155   26.0083 C   0  0  0  0  0  0  0  0  0  0  0  0
    4.8643  -13.7266   25.9406 N   0  0  0  0  0  0  0  0  0  0  0  0
    5.8898  -13.0104   25.4620 C   0  0  0  0  0  0  0  0  0  0  0  0
    6.0340  -11.6590   25.2064 C   0  0  0  0  0  0  0  0  0  0  0  0
    7.2079  -11.1765   24.7095 C   0  0  0  0  0  0  0  0  0  0  0  0
    8.2759  -12.0338   24.4526 C   0  0  0  0  0  0  0  0  0  0  0  0
    8.0955  -13.3597   24.7175 C   0  0  0  0  0  0  0  0  0  0  0  0
    6.9122  -13.8785   25.2233 C   0  0  0  0  0  0  0  0  0  0  0  0
    8.6198  -17.4650   23.5846 C   0  0  0  0  0  0  0  0  0  0  0  0
    8.9585  -18.6710   23.6730 O   0  0  0  0  0  0  0  0  0  0  0  0
   11.5200  -15.7751   21.8037 C   0  0  0  0  0  0  0  0  0  0  0  0
   10.9089  -16.7898   22.7523 C   0  0  2  0  0  0  0  0  0  0  0  0
    9.5096  -16.5373   22.9776 N   0  0  0  0  0  0  0  0  0  0  0  0
   11.6174  -16.8213   24.0513 C   0  0  0  0  0  0  0  0  0  0  0  0
   12.8673  -16.9840   24.0705 O   0  0  0  0  0  0  0  0  0  0  0  0
   10.6335  -14.0562   26.6690 C   0  0  0  0  0  0  0  0  0  0  0  0
   10.7472  -14.8215   27.9792 C   0  0  1  0  0  0  0  0  0  0  0  0
    9.5937  -14.4453   28.8915 C   0  0  0  0  0  0  0  0  0  0  0  0
   10.6455  -16.2844   27.6674 C   0  0  0  0  0  0  0  0  0  0  0  0
   11.5552  -16.7602   26.5836 C   0  0  2  0  0  0  0  0  0  0  0  0
   10.9261  -16.6730   25.2751 N   0  0  0  0  0  0  0  0  0  0  0  0
   12.1525  -18.0861   26.8008 C   0  0  0  0  0  0  0  0  0  0  0  0
   11.9679  -19.1797   25.9737 O   0  0  0  0  0  0  0  0  0  0  0  0
   12.9078  -18.3122   27.8105 O   0  0  0  0  0  0  0  0  0  0  0  0
  2  1  1  1
  2 13  1  0
  2  3  1  0
  4  3  1  0
  4  5  2  0
  6  5  1  0
  7  6  1  0
  8  7  2  0
  9  8  1  0
 10  9  2  0
 10 11  1  0
 11 12  2  0
 12  7  1  0
 12  4  1  0
 13 17  1  0
 14 13  2  0
 16 15  1  6
 17 16  1  0
 18 19  2  0
 18 16  1  0
 21 20  1  6
 21 23  1  0
 21 22  1  0
 24 25  1  0
 24 23  1  1
 25 18  1  0
 26 24  1  0
 27 26  1  0
 28 26  2  0
M  END
$$$$
