WAL.pdb
     RDKit          3D

 28 29  0  0  1  0  0  0  0  0999 V2000
    6.6847  -17.8329   24.7196 N   0  0  0  0  0  0  0  0  0  0  0  0
    7.6504  -16.8351   24.2740 C   0  0  1  0  0  0  0  0  0  0  0  0
    7.9329  -15.8157   25.3247 C   0  0  0  0  0  0  0  0  0  0  0  0
    6.8568  -14.8571   25.5776 C   0  0  0  0  0  0  0  0  0  0  0  0
    5.5304  -15.0288   25.9069 C   0  0  0  0  0  0  0  0  0  0  0  0
    4.9516  -13.8297   26.0313 N   0  0  0  0  0  0  0  0  0  0  0  0
    5.8561  -12.8709   25.7940 C   0  0  0  0  0  0  0  0  0  0  0  0
    5.7629  -11.4912   25.7962 C   0  0  0  0  0  0  0  0  0  0  0  0
    6.8578  -10.7295   25.5151 C   0  0  0  0  0  0  0  0  0  0  0  0
    8.0821  -11.3268   25.2226 C   0  0  0  0  0  0  0  0  0  0  0  0
    8.1344  -12.6899   25.2302 C   0  0  0  0  0  0  0  0  0  0  0  0
    7.0366  -13.4900   25.5126 C   0  0  0  0  0  0  0  0  0  0  0  0
    8.8297  -17.5186   23.7373 C   0  0  0  0  0  0  0  0  0  0  0  0
    9.0934  -18.7023   24.0635 O   0  0  0  0  0  0  0  0  0  0  0  0
   11.6702  -16.4877   21.4327 C   0  0  0  0  0  0  0  0  0  0  0  0
   11.0918  -17.1368   22.6765 C   0  0  2  0  0  0  0  0  0  0  0  0
    9.6922  -16.8394   22.8341 N   0  0  0  0  0  0  0  0  0  0  0  0
   11.8213  -16.7275   23.8974 C   0  0  0  0  0  0  0  0  0  0  0  0
   12.6465  -15.7767   23.8357 O   0  0  0  0  0  0  0  0  0  0  0  0
    9.6022  -15.7292   28.6053 C   0  0  0  0  0  0  0  0  0  0  0  0
   10.1847  -14.8100   27.5418 C   0  0  1  0  0  0  0  0  0  0  0  0
   11.5361  -14.2919   27.9999 C   0  0  0  0  0  0  0  0  0  0  0  0
   10.3862  -15.6184   26.2955 C   0  0  0  0  0  0  0  0  0  0  0  0
   11.4260  -16.6846   26.3998 C   0  0  2  0  0  0  0  0  0  0  0  0
   11.6155  -17.3779   25.1354 N   0  0  0  0  0  0  0  0  0  0  0  0
   11.2433  -17.6350   27.5069 C   0  0  0  0  0  0  0  0  0  0  0  0
   10.3769  -18.7134   27.4861 O   0  0  0  0  0  0  0  0  0  0  0  0
   11.9032  -17.5117   28.5980 O   0  0  0  0  0  0  0  0  0  0  0  0
  2  1  1  1
  2 13  1  0
  2  3  1  0
  4  3  1  0
  4  5  2  0
  6  5  1  0
  7  6  1  0
  8  7  2  0
  9  8  1  0
 10  9  2  0
 10 11  1  0
 11 12  2  0
 12  7  1  0
 12  4  1  0
 13 17  1  0
 14 13  2  0
 16 15  1  6
 17 16  1  0
 18 19  2  0
 18 16  1  0
 21 20  1  1
 21 23  1  0
 21 22  1  0
 24 25  1  0
 24 23  1  6
 25 18  1  0
 26 24  1  0
 27 26  1  0
 28 26  2  0
M  END
$$$$
