WAL.pdb
     RDKit          3D

 28 29  0  0  1  0  0  0  0  0999 V2000
    7.8510  -18.6916   21.9376 N   0  0  0  0  0  0  0  0  0  0  0  0
    8.6457  -17.5231   22.2981 C   0  0  1  0  0  0  0  0  0  0  0  0
    7.8144  -16.4382   22.8937 C   0  0  0  0  0  0  0  0  0  0  0  0
    7.0114  -15.6669   21.9443 C   0  0  0  0  0  0  0  0  0  0  0  0
    5.7196  -15.8228   21.4925 C   0  0  0  0  0  0  0  0  0  0  0  0
    5.4418  -14.8505   20.6174 N   0  0  0  0  0  0  0  0  0  0  0  0
    6.5115  -14.0570   20.4775 C   0  0  0  0  0  0  0  0  0  0  0  0
    6.7331  -12.9315   19.7052 C   0  0  0  0  0  0  0  0  0  0  0  0
    7.9385  -12.2966   19.7483 C   0  0  0  0  0  0  0  0  0  0  0  0
    8.9613  -12.7698   20.5676 C   0  0  0  0  0  0  0  0  0  0  0  0
    8.7049  -13.8822   21.3143 C   0  0  0  0  0  0  0  0  0  0  0  0
    7.4881  -14.5485   21.2904 C   0  0  0  0  0  0  0  0  0  0  0  0
    9.7841  -17.9533   23.1134 C   0  0  0  0  0  0  0  0  0  0  0  0
    9.6593  -18.8692   23.9635 O   0  0  0  0  0  0  0  0  0  0  0  0
   13.4711  -17.0228   23.1657 C   0  0  0  0  0  0  0  0  0  0  0  0
   12.2065  -17.6208   23.7538 C   0  0  2  0  0  0  0  0  0  0  0  0
   11.0509  -17.3304   22.9459 N   0  0  0  0  0  0  0  0  0  0  0  0
   11.9696  -17.1498   25.1367 C   0  0  0  0  0  0  0  0  0  0  0  0
   12.8172  -17.4101   26.0326 O   0  0  0  0  0  0  0  0  0  0  0  0
   10.3680  -13.4638   28.6145 C   0  0  0  0  0  0  0  0  0  0  0  0
    9.1628  -14.2640   28.1432 C   0  0  1  0  0  0  0  0  0  0  0  0
    7.9675  -13.3414   27.9861 C   0  0  0  0  0  0  0  0  0  0  0  0
    9.4922  -14.8435   26.8004 C   0  0  0  0  0  0  0  0  0  0  0  0
   10.5271  -15.9193   26.8175 C   0  0  2  0  0  0  0  0  0  0  0  0
   10.8132  -16.4130   25.4796 N   0  0  0  0  0  0  0  0  0  0  0  0
   10.2682  -17.0262   27.7502 C   0  0  0  0  0  0  0  0  0  0  0  0
   10.8637  -17.1681   28.9909 O   0  0  0  0  0  0  0  0  0  0  0  0
    9.4429  -17.9599   27.4532 O   0  0  0  0  0  0  0  0  0  0  0  0
  2  1  1  1
  2 13  1  0
  2  3  1  0
  4  3  1  0
  4  5  2  0
  6  5  1  0
  7  6  1  0
  8  7  2  0
  9  8  1  0
 10  9  2  0
 10 11  1  0
 11 12  2  0
 12  7  1  0
 12  4  1  0
 13 17  1  0
 14 13  2  0
 16 15  1  6
 17 16  1  0
 18 19  2  0
 18 16  1  0
 21 20  1  6
 21 23  1  0
 21 22  1  0
 24 25  1  0
 24 23  1  6
 25 18  1  0
 26 24  1  0
 27 26  1  0
 28 26  2  0
M  END
$$$$
