WAL.pdb
     RDKit          3D

 28 29  0  0  1  0  0  0  0  0999 V2000
    6.4723  -17.6197   24.3431 N   0  0  0  0  0  0  0  0  0  0  0  0
    7.5526  -16.6400   24.3269 C   0  0  1  0  0  0  0  0  0  0  0  0
    7.6409  -15.8774   25.6049 C   0  0  0  0  0  0  0  0  0  0  0  0
    6.6270  -14.8388   25.7899 C   0  0  0  0  0  0  0  0  0  0  0  0
    5.3876  -14.8597   26.3903 C   0  0  0  0  0  0  0  0  0  0  0  0
    4.8366  -13.6446   26.2991 N   0  0  0  0  0  0  0  0  0  0  0  0
    5.6750  -12.8216   25.6562 C   0  0  0  0  0  0  0  0  0  0  0  0
    5.5769  -11.4857   25.3126 C   0  0  0  0  0  0  0  0  0  0  0  0
    6.5951  -10.8727   24.6452 C   0  0  0  0  0  0  0  0  0  0  0  0
    7.7452  -11.5797   24.3005 C   0  0  0  0  0  0  0  0  0  0  0  0
    7.8050  -12.8951   24.6565 C   0  0  0  0  0  0  0  0  0  0  0  0
    6.7843  -13.5447   25.3358 C   0  0  0  0  0  0  0  0  0  0  0  0
    8.7912  -17.3023   23.9107 C   0  0  0  0  0  0  0  0  0  0  0  0
    8.9591  -18.5327   24.0980 O   0  0  0  0  0  0  0  0  0  0  0  0
   12.0054  -16.0699   22.2841 C   0  0  0  0  0  0  0  0  0  0  0  0
   11.1891  -16.9859   23.1771 C   0  0  2  0  0  0  0  0  0  0  0  0
    9.8218  -16.5487   23.2856 N   0  0  0  0  0  0  0  0  0  0  0  0
   11.7775  -17.0981   24.5305 C   0  0  0  0  0  0  0  0  0  0  0  0
   13.0046  -17.3598   24.6519 O   0  0  0  0  0  0  0  0  0  0  0  0
    8.9497  -14.7380   28.7041 C   0  0  0  0  0  0  0  0  0  0  0  0
    9.9689  -15.1279   27.6437 C   0  0  1  0  0  0  0  0  0  0  0  0
   11.0713  -14.0857   27.5880 C   0  0  0  0  0  0  0  0  0  0  0  0
   10.5763  -16.4371   28.0492 C   0  0  0  0  0  0  0  0  0  0  0  0
   11.5122  -17.0315   27.0495 C   0  0  2  0  0  0  0  0  0  0  0  0
   10.9960  -16.9188   25.6944 N   0  0  0  0  0  0  0  0  0  0  0  0
   11.9534  -18.4039   27.3395 C   0  0  0  0  0  0  0  0  0  0  0  0
   11.7735  -19.4854   26.4957 O   0  0  0  0  0  0  0  0  0  0  0  0
   12.5533  -18.6863   28.4357 O   0  0  0  0  0  0  0  0  0  0  0  0
  2  1  1  1
  2 13  1  0
  2  3  1  0
  4  3  1  0
  4  5  2  0
  6  5  1  0
  7  6  1  0
  8  7  2  0
  9  8  1  0
 10  9  2  0
 10 11  1  0
 11 12  2  0
 12  7  1  0
 12  4  1  0
 13 17  1  0
 14 13  2  0
 16 15  1  6
 17 16  1  0
 18 19  2  0
 18 16  1  0
 21 20  1  1
 21 23  1  0
 21 22  1  0
 24 25  1  0
 24 23  1  1
 25 18  1  0
 26 24  1  0
 27 26  1  0
 28 26  2  0
M  END
$$$$
