WAL.pdb
     RDKit          3D

 28 29  0  0  1  0  0  0  0  0999 V2000
    7.8820  -17.8822   21.5970 N   0  0  0  0  0  0  0  0  0  0  0  0
    8.4710  -16.9384   22.5400 C   0  0  1  0  0  0  0  0  0  0  0  0
    7.4750  -16.4327   23.5275 C   0  0  0  0  0  0  0  0  0  0  0  0
    7.1958  -14.9978   23.4619 C   0  0  0  0  0  0  0  0  0  0  0  0
    7.1064  -14.1257   22.3996 C   0  0  0  0  0  0  0  0  0  0  0  0
    6.8303  -12.9012   22.8608 N   0  0  0  0  0  0  0  0  0  0  0  0
    6.7346  -12.9384   24.1961 C   0  0  0  0  0  0  0  0  0  0  0  0
    6.4692  -11.9552   25.1317 C   0  0  0  0  0  0  0  0  0  0  0  0
    6.4275  -12.2645   26.4585 C   0  0  0  0  0  0  0  0  0  0  0  0
    6.6507  -13.5702   26.8905 C   0  0  0  0  0  0  0  0  0  0  0  0
    6.9093  -14.5120   25.9382 C   0  0  0  0  0  0  0  0  0  0  0  0
    6.9579  -14.2259   24.5814 C   0  0  0  0  0  0  0  0  0  0  0  0
    9.6763  -17.5343   23.1215 C   0  0  0  0  0  0  0  0  0  0  0  0
    9.6785  -18.7244   23.5223 O   0  0  0  0  0  0  0  0  0  0  0  0
   13.2773  -16.3899   23.4289 C   0  0  0  0  0  0  0  0  0  0  0  0
   12.0861  -17.2421   23.8258 C   0  0  2  0  0  0  0  0  0  0  0  0
   10.8636  -16.7611   23.2371 N   0  0  0  0  0  0  0  0  0  0  0  0
   11.9286  -17.3127   25.2957 C   0  0  0  0  0  0  0  0  0  0  0  0
   12.9021  -17.6838   26.0052 O   0  0  0  0  0  0  0  0  0  0  0  0
    9.0758  -13.3869   27.6862 C   0  0  0  0  0  0  0  0  0  0  0  0
   10.1898  -14.3983   27.4599 C   0  0  1  0  0  0  0  0  0  0  0  0
   11.3307  -14.1247   28.4232 C   0  0  0  0  0  0  0  0  0  0  0  0
    9.6398  -15.7616   27.7538 C   0  0  0  0  0  0  0  0  0  0  0  0
   10.5314  -16.8951   27.3678 C   0  0  2  0  0  0  0  0  0  0  0  0
   10.7101  -16.9734   25.9265 N   0  0  0  0  0  0  0  0  0  0  0  0
   10.1658  -18.2030   27.9317 C   0  0  0  0  0  0  0  0  0  0  0  0
   10.3889  -18.5876   29.2417 O   0  0  0  0  0  0  0  0  0  0  0  0
    9.5973  -19.0965   27.2109 O   0  0  0  0  0  0  0  0  0  0  0  0
  2  1  1  1
  2 13  1  0
  2  3  1  0
  4  3  1  0
  4  5  2  0
  6  5  1  0
  7  6  1  0
  8  7  2  0
  9  8  1  0
 10  9  2  0
 10 11  1  0
 11 12  2  0
 12  7  1  0
 12  4  1  0
 13 17  1  0
 14 13  2  0
 16 15  1  1
 17 16  1  0
 18 19  2  0
 18 16  1  0
 21 20  1  1
 21 23  1  0
 21 22  1  0
 24 25  1  0
 24 23  1  6
 25 18  1  0
 26 24  1  0
 27 26  1  0
 28 26  2  0
M  END
$$$$
