WAL.pdb
     RDKit          3D

 28 29  0  0  1  0  0  0  0  0999 V2000
    9.6955  -17.0661   21.4083 N   0  0  0  0  0  0  0  0  0  0  0  0
    9.2174  -16.0807   22.3713 C   0  0  1  0  0  0  0  0  0  0  0  0
    7.7347  -15.9293   22.3336 C   0  0  0  0  0  0  0  0  0  0  0  0
    7.1786  -15.4920   21.0527 C   0  0  0  0  0  0  0  0  0  0  0  0
    6.3619  -16.1234   20.1409 C   0  0  0  0  0  0  0  0  0  0  0  0
    6.1317  -15.2978   19.1144 N   0  0  0  0  0  0  0  0  0  0  0  0
    6.7721  -14.1398   19.3209 C   0  0  0  0  0  0  0  0  0  0  0  0
    6.8525  -12.9812   18.5702 C   0  0  0  0  0  0  0  0  0  0  0  0
    7.5880  -11.9242   19.0171 C   0  0  0  0  0  0  0  0  0  0  0  0
    8.2670  -11.9946   20.2317 C   0  0  0  0  0  0  0  0  0  0  0  0
    8.1636  -13.1537   20.9435 C   0  0  0  0  0  0  0  0  0  0  0  0
    7.4225  -14.2450   20.5133 C   0  0  0  0  0  0  0  0  0  0  0  0
    9.7780  -16.3900   23.6888 C   0  0  0  0  0  0  0  0  0  0  0  0
    9.6709  -15.5793   24.6419 O   0  0  0  0  0  0  0  0  0  0  0  0
   12.7975  -17.0229   23.5155 C   0  0  0  0  0  0  0  0  0  0  0  0
   11.7959  -17.7310   24.4088 C   0  0  2  0  0  0  0  0  0  0  0  0
   10.4538  -17.6228   23.8993 N   0  0  0  0  0  0  0  0  0  0  0  0
   11.8378  -17.2149   25.7953 C   0  0  0  0  0  0  0  0  0  0  0  0
   12.9036  -17.3148   26.4607 O   0  0  0  0  0  0  0  0  0  0  0  0
    8.2542  -13.3575   27.3726 C   0  0  0  0  0  0  0  0  0  0  0  0
    9.5864  -14.0803   27.2386 C   0  0  1  0  0  0  0  0  0  0  0  0
   10.7031  -13.1924   27.7575 C   0  0  0  0  0  0  0  0  0  0  0  0
    9.5284  -15.3129   28.0899 C   0  0  0  0  0  0  0  0  0  0  0  0
   10.5982  -16.3171   27.8146 C   0  0  2  0  0  0  0  0  0  0  0  0
   10.7091  -16.6107   26.3944 N   0  0  0  0  0  0  0  0  0  0  0  0
   10.5216  -17.5515   28.6099 C   0  0  0  0  0  0  0  0  0  0  0  0
   10.1070  -18.7787   28.1240 O   0  0  0  0  0  0  0  0  0  0  0  0
   10.8475  -17.5595   29.8488 O   0  0  0  0  0  0  0  0  0  0  0  0
  2  1  1  6
  2 13  1  0
  2  3  1  0
  4  3  1  0
  4  5  2  0
  6  5  1  0
  7  6  1  0
  8  7  2  0
  9  8  1  0
 10  9  2  0
 10 11  1  0
 11 12  2  0
 12  7  1  0
 12  4  1  0
 13 17  1  0
 14 13  2  0
 16 15  1  6
 17 16  1  0
 18 19  2  0
 18 16  1  0
 21 20  1  1
 21 23  1  0
 21 22  1  0
 24 25  1  0
 24 23  1  6
 25 18  1  0
 26 24  1  0
 27 26  1  0
 28 26  2  0
M  END
$$$$
