WAL.pdb
     RDKit          3D

 28 29  0  0  1  0  0  0  0  0999 V2000
    6.5215  -17.6730   24.0632 N   0  0  0  0  0  0  0  0  0  0  0  0
    7.5729  -16.6854   23.8485 C   0  0  1  0  0  0  0  0  0  0  0  0
    7.8496  -15.8816   25.0734 C   0  0  0  0  0  0  0  0  0  0  0  0
    6.8026  -14.9327   25.4537 C   0  0  0  0  0  0  0  0  0  0  0  0
    5.5511  -15.1138   25.9996 C   0  0  0  0  0  0  0  0  0  0  0  0
    4.9681  -13.9214   26.1626 N   0  0  0  0  0  0  0  0  0  0  0  0
    5.7971  -12.9580   25.7405 C   0  0  0  0  0  0  0  0  0  0  0  0
    5.6688  -11.5817   25.6967 C   0  0  0  0  0  0  0  0  0  0  0  0
    6.6840  -10.8136   25.2095 C   0  0  0  0  0  0  0  0  0  0  0  0
    7.8612  -11.4007   24.7503 C   0  0  0  0  0  0  0  0  0  0  0  0
    7.9502  -12.7606   24.8096 C   0  0  0  0  0  0  0  0  0  0  0  0
    6.9334  -13.5671   25.3003 C   0  0  0  0  0  0  0  0  0  0  0  0
    8.7400  -17.3502   23.2639 C   0  0  0  0  0  0  0  0  0  0  0  0
    8.9940  -18.5527   23.5221 O   0  0  0  0  0  0  0  0  0  0  0  0
   11.6622  -15.9542   21.2529 C   0  0  0  0  0  0  0  0  0  0  0  0
   11.0137  -16.8806   22.2649 C   0  0  2  0  0  0  0  0  0  0  0  0
    9.6015  -16.6311   22.3913 N   0  0  0  0  0  0  0  0  0  0  0  0
   11.6526  -16.7716   23.5954 C   0  0  0  0  0  0  0  0  0  0  0  0
   12.8991  -16.9287   23.6980 O   0  0  0  0  0  0  0  0  0  0  0  0
   10.6820  -13.6463   28.7029 C   0  0  0  0  0  0  0  0  0  0  0  0
   11.3063  -14.9399   28.2010 C   0  0  1  0  0  0  0  0  0  0  0  0
   10.8932  -16.0893   29.1026 C   0  0  0  0  0  0  0  0  0  0  0  0
   10.7737  -15.2038   26.8247 C   0  0  0  0  0  0  0  0  0  0  0  0
   11.4769  -16.2873   26.0763 C   0  0  2  0  0  0  0  0  0  0  0  0
   10.8982  -16.4948   24.7582 N   0  0  0  0  0  0  0  0  0  0  0  0
   11.6236  -17.5587   26.8004 C   0  0  0  0  0  0  0  0  0  0  0  0
   12.7432  -17.9305   27.5230 O   0  0  0  0  0  0  0  0  0  0  0  0
   10.6839  -18.4294   26.8018 O   0  0  0  0  0  0  0  0  0  0  0  0
  2  1  1  1
  2 13  1  0
  2  3  1  0
  4  3  1  0
  4  5  2  0
  6  5  1  0
  7  6  1  0
  8  7  2  0
  9  8  1  0
 10  9  2  0
 10 11  1  0
 11 12  2  0
 12  7  1  0
 12  4  1  0
 13 17  1  0
 14 13  2  0
 16 15  1  6
 17 16  1  0
 18 19  2  0
 18 16  1  0
 21 20  1  1
 21 23  1  0
 21 22  1  0
 24 25  1  0
 24 23  1  1
 25 18  1  0
 26 24  1  0
 27 26  1  0
 28 26  2  0
M  END
$$$$
