WAL.pdb
     RDKit          3D

 28 29  0  0  1  0  0  0  0  0999 V2000
    8.6898  -17.9090   20.6625 N   0  0  0  0  0  0  0  0  0  0  0  0
    9.3118  -16.8964   21.5080 C   0  0  1  0  0  0  0  0  0  0  0  0
    8.3127  -15.9492   22.0804 C   0  0  0  0  0  0  0  0  0  0  0  0
    7.6189  -15.1029   21.1090 C   0  0  0  0  0  0  0  0  0  0  0  0
    6.2910  -15.0062   20.7561 C   0  0  0  0  0  0  0  0  0  0  0  0
    6.1575  -14.0750   19.8056 N   0  0  0  0  0  0  0  0  0  0  0  0
    7.3576  -13.5537   19.5201 C   0  0  0  0  0  0  0  0  0  0  0  0
    7.7516  -12.5756   18.6253 C   0  0  0  0  0  0  0  0  0  0  0  0
    9.0646  -12.2228   18.5292 C   0  0  0  0  0  0  0  0  0  0  0  0
   10.0258  -12.8394   19.3275 C   0  0  0  0  0  0  0  0  0  0  0  0
    9.5987  -13.7992   20.1977 C   0  0  0  0  0  0  0  0  0  0  0  0
    8.2693  -14.1783   20.3168 C   0  0  0  0  0  0  0  0  0  0  0  0
   10.1747  -17.5585   22.4893 C   0  0  0  0  0  0  0  0  0  0  0  0
    9.7698  -18.5566   23.1349 O   0  0  0  0  0  0  0  0  0  0  0  0
   13.6602  -16.7702   23.8149 C   0  0  0  0  0  0  0  0  0  0  0  0
   12.2693  -17.3721   23.8916 C   0  0  2  0  0  0  0  0  0  0  0  0
   11.4898  -17.0703   22.7196 N   0  0  0  0  0  0  0  0  0  0  0  0
   11.5408  -16.9163   25.0965 C   0  0  0  0  0  0  0  0  0  0  0  0
   10.3912  -16.4148   24.9717 O   0  0  0  0  0  0  0  0  0  0  0  0
   10.9045  -13.8869   29.3020 C   0  0  0  0  0  0  0  0  0  0  0  0
    9.9348  -14.8177   28.5890 C   0  0  1  0  0  0  0  0  0  0  0  0
    8.7136  -14.0355   28.1401 C   0  0  0  0  0  0  0  0  0  0  0  0
   10.6249  -15.3560   27.3720 C   0  0  0  0  0  0  0  0  0  0  0  0
   11.4474  -16.5797   27.6061 C   0  0  2  0  0  0  0  0  0  0  0  0
   12.1033  -17.0292   26.3883 N   0  0  0  0  0  0  0  0  0  0  0  0
   10.7501  -17.6873   28.2763 C   0  0  0  0  0  0  0  0  0  0  0  0
   11.0531  -18.1606   29.5405 O   0  0  0  0  0  0  0  0  0  0  0  0
    9.7835  -18.3018   27.7025 O   0  0  0  0  0  0  0  0  0  0  0  0
  2  1  1  1
  2 13  1  0
  2  3  1  0
  4  3  1  0
  4  5  2  0
  6  5  1  0
  7  6  1  0
  8  7  2  0
  9  8  1  0
 10  9  2  0
 10 11  1  0
 11 12  2  0
 12  7  1  0
 12  4  1  0
 13 17  1  0
 14 13  2  0
 16 15  1  6
 17 16  1  0
 18 19  2  0
 18 16  1  0
 21 20  1  6
 21 23  1  0
 21 22  1  0
 24 25  1  0
 24 23  1  6
 25 18  1  0
 26 24  1  0
 27 26  1  0
 28 26  2  0
M  END
$$$$
