WAL.pdb
     RDKit          3D

 28 29  0  0  1  0  0  0  0  0999 V2000
    6.6398  -17.6780   24.7338 N   0  0  0  0  0  0  0  0  0  0  0  0
    7.5785  -16.5986   24.4498 C   0  0  1  0  0  0  0  0  0  0  0  0
    7.6673  -15.6196   25.5708 C   0  0  0  0  0  0  0  0  0  0  0  0
    6.5333  -14.7037   25.6982 C   0  0  0  0  0  0  0  0  0  0  0  0
    5.3115  -14.8334   26.3207 C   0  0  0  0  0  0  0  0  0  0  0  0
    4.6123  -13.7061   26.1517 N   0  0  0  0  0  0  0  0  0  0  0  0
    5.3358  -12.8354   25.4361 C   0  0  0  0  0  0  0  0  0  0  0  0
    5.0687  -11.5510   24.9985 C   0  0  0  0  0  0  0  0  0  0  0  0
    5.9965  -10.8678   24.2703 C   0  0  0  0  0  0  0  0  0  0  0  0
    7.2228  -11.4504   23.9572 C   0  0  0  0  0  0  0  0  0  0  0  0
    7.4494  -12.7183   24.4063 C   0  0  0  0  0  0  0  0  0  0  0  0
    6.5239  -13.4372   25.1490 C   0  0  0  0  0  0  0  0  0  0  0  0
    8.8561  -17.1764   24.0259 C   0  0  0  0  0  0  0  0  0  0  0  0
    9.1302  -18.3790   24.2621 O   0  0  0  0  0  0  0  0  0  0  0  0
   11.8893  -15.7608   22.2064 C   0  0  0  0  0  0  0  0  0  0  0  0
   11.1655  -16.7645   23.0848 C   0  0  2  0  0  0  0  0  0  0  0  0
    9.8038  -16.3712   23.3371 N   0  0  0  0  0  0  0  0  0  0  0  0
   11.8643  -16.9688   24.3733 C   0  0  0  0  0  0  0  0  0  0  0  0
   13.0904  -17.2611   24.3726 O   0  0  0  0  0  0  0  0  0  0  0  0
    9.4978  -14.9028   29.0132 C   0  0  0  0  0  0  0  0  0  0  0  0
   10.4327  -15.2006   27.8503 C   0  0  1  0  0  0  0  0  0  0  0  0
   11.6098  -14.2425   27.8837 C   0  0  0  0  0  0  0  0  0  0  0  0
   10.9535  -16.5955   28.0246 C   0  0  0  0  0  0  0  0  0  0  0  0
   11.8045  -17.0927   26.9033 C   0  0  2  0  0  0  0  0  0  0  0  0
   11.1895  -16.8443   25.6090 N   0  0  0  0  0  0  0  0  0  0  0  0
   12.2495  -18.4891   27.0231 C   0  0  0  0  0  0  0  0  0  0  0  0
   11.9507  -19.4927   26.1189 O   0  0  0  0  0  0  0  0  0  0  0  0
   12.9680  -18.8700   28.0129 O   0  0  0  0  0  0  0  0  0  0  0  0
  2  1  1  1
  2 13  1  0
  2  3  1  0
  4  3  1  0
  4  5  2  0
  6  5  1  0
  7  6  1  0
  8  7  2  0
  9  8  1  0
 10  9  2  0
 10 11  1  0
 11 12  2  0
 12  7  1  0
 12  4  1  0
 13 17  1  0
 14 13  2  0
 16 15  1  1
 17 16  1  0
 18 19  2  0
 18 16  1  0
 21 20  1  1
 21 23  1  0
 21 22  1  0
 24 25  1  0
 24 23  1  1
 25 18  1  0
 26 24  1  0
 27 26  1  0
 28 26  2  0
M  END
$$$$
