WAL.pdb
     RDKit          3D

 28 29  0  0  1  0  0  0  0  0999 V2000
    6.1800  -18.0453   24.7277 N   0  0  0  0  0  0  0  0  0  0  0  0
    7.2519  -17.0687   24.5726 C   0  0  1  0  0  0  0  0  0  0  0  0
    7.2590  -16.0607   25.6711 C   0  0  0  0  0  0  0  0  0  0  0  0
    6.6665  -14.7643   25.3401 C   0  0  0  0  0  0  0  0  0  0  0  0
    5.5506  -14.1139   25.8184 C   0  0  0  0  0  0  0  0  0  0  0  0
    5.4258  -12.9397   25.1907 N   0  0  0  0  0  0  0  0  0  0  0  0
    6.4261  -12.7950   24.3120 C   0  0  0  0  0  0  0  0  0  0  0  0
    6.7434  -11.7766   23.4319 C   0  0  0  0  0  0  0  0  0  0  0  0
    7.8409  -11.8802   22.6302 C   0  0  0  0  0  0  0  0  0  0  0  0
    8.6561  -13.0088   22.6850 C   0  0  0  0  0  0  0  0  0  0  0  0
    8.3106  -13.9918   23.5653 C   0  0  0  0  0  0  0  0  0  0  0  0
    7.1999  -13.9134   24.3930 C   0  0  0  0  0  0  0  0  0  0  0  0
    8.5178  -17.7775   24.3705 C   0  0  0  0  0  0  0  0  0  0  0  0
    8.6896  -18.9343   24.8280 O   0  0  0  0  0  0  0  0  0  0  0  0
   11.7787  -16.8860   22.6203 C   0  0  0  0  0  0  0  0  0  0  0  0
   10.9349  -17.6150   23.6496 C   0  0  2  0  0  0  0  0  0  0  0  0
    9.5711  -17.1539   23.6476 N   0  0  0  0  0  0  0  0  0  0  0  0
   11.4965  -17.4809   25.0123 C   0  0  0  0  0  0  0  0  0  0  0  0
   12.6943  -17.8120   25.2232 O   0  0  0  0  0  0  0  0  0  0  0  0
    8.9185  -13.9502   28.3584 C   0  0  0  0  0  0  0  0  0  0  0  0
   10.0026  -14.6400   27.5435 C   0  0  1  0  0  0  0  0  0  0  0  0
   11.2353  -13.7560   27.4824 C   0  0  0  0  0  0  0  0  0  0  0  0
   10.3678  -15.9121   28.2475 C   0  0  0  0  0  0  0  0  0  0  0  0
   11.2103  -16.8517   27.4500 C   0  0  2  0  0  0  0  0  0  0  0  0
   10.7213  -16.9895   26.0872 N   0  0  0  0  0  0  0  0  0  0  0  0
   11.4446  -18.1653   28.0678 C   0  0  0  0  0  0  0  0  0  0  0  0
   11.0636  -19.3756   27.5166 O   0  0  0  0  0  0  0  0  0  0  0  0
   12.0385  -18.2661   29.1984 O   0  0  0  0  0  0  0  0  0  0  0  0
  2  1  1  1
  2 13  1  0
  2  3  1  0
  4  3  1  0
  4  5  2  0
  6  5  1  0
  7  6  1  0
  8  7  2  0
  9  8  1  0
 10  9  2  0
 10 11  1  0
 11 12  2  0
 12  7  1  0
 12  4  1  0
 13 17  1  0
 14 13  2  0
 16 15  1  6
 17 16  1  0
 18 19  2  0
 18 16  1  0
 21 20  1  1
 21 23  1  0
 21 22  1  0
 24 25  1  0
 24 23  1  1
 25 18  1  0
 26 24  1  0
 27 26  1  0
 28 26  2  0
M  END
$$$$
