WAL.pdb
     RDKit          3D

 28 29  0  0  1  0  0  0  0  0999 V2000
    6.2918  -17.7816   23.6366 N   0  0  0  0  0  0  0  0  0  0  0  0
    7.3617  -16.8002   23.7748 C   0  0  1  0  0  0  0  0  0  0  0  0
    7.4741  -16.2817   25.1681 C   0  0  0  0  0  0  0  0  0  0  0  0
    6.5297  -15.2223   25.5240 C   0  0  0  0  0  0  0  0  0  0  0  0
    5.2464  -15.2632   26.0226 C   0  0  0  0  0  0  0  0  0  0  0  0
    4.7984  -14.0133   26.1810 N   0  0  0  0  0  0  0  0  0  0  0  0
    5.7474  -13.1477   25.8019 C   0  0  0  0  0  0  0  0  0  0  0  0
    5.7796  -11.7655   25.7724 C   0  0  0  0  0  0  0  0  0  0  0  0
    6.8934  -11.1147   25.3321 C   0  0  0  0  0  0  0  0  0  0  0  0
    8.0115  -11.8291   24.9070 C   0  0  0  0  0  0  0  0  0  0  0  0
    7.9418  -13.1907   24.9508 C   0  0  0  0  0  0  0  0  0  0  0  0
    6.8218  -13.8794   25.3940 C   0  0  0  0  0  0  0  0  0  0  0  0
    8.5960  -17.3580   23.2170 C   0  0  0  0  0  0  0  0  0  0  0  0
    8.9245  -18.5492   23.4411 O   0  0  0  0  0  0  0  0  0  0  0  0
   11.4237  -15.8806   21.1381 C   0  0  0  0  0  0  0  0  0  0  0  0
   10.8387  -16.8020   22.1924 C   0  0  2  0  0  0  0  0  0  0  0  0
    9.4388  -16.5461   22.4099 N   0  0  0  0  0  0  0  0  0  0  0  0
   11.5634  -16.6930   23.4781 C   0  0  0  0  0  0  0  0  0  0  0  0
   12.8148  -16.8427   23.4977 O   0  0  0  0  0  0  0  0  0  0  0  0
   11.0013  -13.4410   28.4466 C   0  0  0  0  0  0  0  0  0  0  0  0
   11.3665  -14.8836   28.1288 C   0  0  1  0  0  0  0  0  0  0  0  0
   10.7991  -15.8007   29.1972 C   0  0  0  0  0  0  0  0  0  0  0  0
   10.7351  -15.2393   26.8165 C   0  0  0  0  0  0  0  0  0  0  0  0
   11.5510  -16.1416   25.9512 C   0  0  2  0  0  0  0  0  0  0  0  0
   10.8857  -16.4243   24.6891 N   0  0  0  0  0  0  0  0  0  0  0  0
   12.0185  -17.3777   26.5961 C   0  0  0  0  0  0  0  0  0  0  0  0
   13.2191  -17.5102   27.2707 O   0  0  0  0  0  0  0  0  0  0  0  0
   11.3110  -18.4452   26.5672 O   0  0  0  0  0  0  0  0  0  0  0  0
  2  1  1  1
  2 13  1  0
  2  3  1  0
  4  3  1  0
  4  5  2  0
  6  5  1  0
  7  6  1  0
  8  7  2  0
  9  8  1  0
 10  9  2  0
 10 11  1  0
 11 12  2  0
 12  7  1  0
 12  4  1  0
 13 17  1  0
 14 13  2  0
 16 15  1  6
 17 16  1  0
 18 19  2  0
 18 16  1  0
 21 20  1  1
 21 23  1  0
 21 22  1  0
 24 25  1  0
 24 23  1  1
 25 18  1  0
 26 24  1  0
 27 26  1  0
 28 26  2  0
M  END
$$$$
