WAL.pdb
     RDKit          3D

 28 29  0  0  1  0  0  0  0  0999 V2000
    6.2463  -17.5439   24.3701 N   0  0  0  0  0  0  0  0  0  0  0  0
    7.4588  -16.7530   24.1929 C   0  0  1  0  0  0  0  0  0  0  0  0
    7.7436  -15.8863   25.3721 C   0  0  0  0  0  0  0  0  0  0  0  0
    6.7331  -14.8693   25.6649 C   0  0  0  0  0  0  0  0  0  0  0  0
    5.4612  -14.9595   26.1857 C   0  0  0  0  0  0  0  0  0  0  0  0
    4.9308  -13.7341   26.2597 N   0  0  0  0  0  0  0  0  0  0  0  0
    5.8143  -12.8372   25.8032 C   0  0  0  0  0  0  0  0  0  0  0  0
    5.7518  -11.4619   25.6724 C   0  0  0  0  0  0  0  0  0  0  0  0
    6.8138  -10.7721   25.1680 C   0  0  0  0  0  0  0  0  0  0  0  0
    7.9732  -11.4391   24.7782 C   0  0  0  0  0  0  0  0  0  0  0  0
    7.9969  -12.7954   24.9223 C   0  0  0  0  0  0  0  0  0  0  0  0
    6.9315  -13.5231   25.4325 C   0  0  0  0  0  0  0  0  0  0  0  0
    8.5537  -17.6409   23.7944 C   0  0  0  0  0  0  0  0  0  0  0  0
    8.6238  -18.8155   24.2330 O   0  0  0  0  0  0  0  0  0  0  0  0
   11.7812  -16.8001   21.9496 C   0  0  0  0  0  0  0  0  0  0  0  0
   10.9687  -17.3320   23.1157 C   0  0  2  0  0  0  0  0  0  0  0  0
    9.5543  -17.1737   22.8992 N   0  0  0  0  0  0  0  0  0  0  0  0
   11.3465  -16.6796   24.3892 C   0  0  0  0  0  0  0  0  0  0  0  0
   11.0798  -15.4599   24.5625 O   0  0  0  0  0  0  0  0  0  0  0  0
    9.5495  -14.0629   27.0448 C   0  0  0  0  0  0  0  0  0  0  0  0
   10.8601  -14.7952   26.7972 C   0  0  1  0  0  0  0  0  0  0  0  0
   11.9231  -14.2743   27.7475 C   0  0  0  0  0  0  0  0  0  0  0  0
   10.6368  -16.2487   27.0887 C   0  0  0  0  0  0  0  0  0  0  0  0
   11.8171  -17.1279   26.8383 C   0  0  2  0  0  0  0  0  0  0  0  0
   12.0011  -17.3918   25.4198 N   0  0  0  0  0  0  0  0  0  0  0  0
   11.8517  -18.3722   27.6210 C   0  0  0  0  0  0  0  0  0  0  0  0
   12.3791  -18.4886   28.8947 O   0  0  0  0  0  0  0  0  0  0  0  0
   11.3762  -19.4632   27.1471 O   0  0  0  0  0  0  0  0  0  0  0  0
  2  1  1  1
  2 13  1  0
  2  3  1  0
  4  3  1  0
  4  5  2  0
  6  5  1  0
  7  6  1  0
  8  7  2  0
  9  8  1  0
 10  9  2  0
 10 11  1  0
 11 12  2  0
 12  7  1  0
 12  4  1  0
 13 17  1  0
 14 13  2  0
 16 15  1  6
 17 16  1  0
 18 19  2  0
 18 16  1  0
 21 20  1  1
 21 23  1  0
 21 22  1  0
 24 25  1  0
 24 23  1  6
 25 18  1  0
 26 24  1  0
 27 26  1  0
 28 26  2  0
M  END
$$$$
