DPN.pdb
     RDKit          3D

 24 24  0  0  1  0  0  0  0  0999 V2000
    9.2022  -15.5729   15.2434 N   0  0  0  0  0  0  0  0  0  0  0  0
    8.4792  -15.0900   16.3263 C   0  0  1  0  0  0  0  0  0  0  0  0
    7.4131  -16.1500   16.6572 C   0  0  0  0  0  0  0  0  0  0  0  0
    8.1047  -17.4499   16.7625 C   0  0  0  0  0  0  0  0  0  0  0  0
    9.3403  -17.5075   16.5367 O   0  0  0  0  0  0  0  0  0  0  0  0
    9.2051  -14.7645   17.5707 C   0  0  0  0  0  0  0  0  0  0  0  0
   10.4833  -14.9743   17.4782 O   0  0  0  0  0  0  0  0  0  0  0  0
    7.4523  -18.6179   17.1009 O   0  0  0  0  0  0  0  0  0  0  0  0
    8.6611  -14.2783   18.7680 N   0  0  0  0  0  0  0  0  0  0  0  0
    7.3242  -13.9355   19.1087 C   0  0  0  0  0  0  0  0  0  0  0  0
    7.5427  -12.5026   19.6291 C   0  0  0  0  0  0  0  0  0  0  0  0
    8.8161  -12.7035   20.4242 C   0  0  0  0  0  0  0  0  0  0  0  0
    9.4122  -14.0171   19.9734 C   0  0  1  0  0  0  0  0  0  0  0  0
    9.1730  -15.0152   21.0373 C   0  0  0  0  0  0  0  0  0  0  0  0
    8.0773  -15.5866   21.2617 O   0  0  0  0  0  0  0  0  0  0  0  0
   13.1407  -17.0455   20.8766 N   0  0  0  0  0  0  0  0  0  0  0  0
   12.5595  -17.1725   22.1728 C   0  0  0  0  0  0  0  0  0  0  0  0
   13.2880  -16.9263   23.1440 O   0  0  0  0  0  0  0  0  0  0  0  0
   11.1666  -17.5780   22.2571 C   0  0  0  0  0  0  0  0  0  0  0  0
   10.2087  -16.5350   22.7811 C   0  0  2  0  0  0  0  0  0  0  0  0
   10.2647  -15.3572   21.8727 N   0  0  0  0  0  0  0  0  0  0  0  0
   10.5426  -16.0845   24.1468 C   0  0  0  0  0  0  0  0  0  0  0  0
   10.3741  -16.9501   25.2220 O   0  0  0  0  0  0  0  0  0  0  0  0
   10.9765  -14.9512   24.4057 O   0  0  0  0  0  0  0  0  0  0  0  0
  2  1  1  6
  2  3  1  0
  3  4  1  0
  4  5  2  0
  6  2  1  0
  7  6  2  0
  8  4  1  0
  9 10  1  0
  9  6  1  0
 11 10  1  0
 12 11  1  0
 13 12  1  0
 13  9  1  0
 13 14  1  1
 15 14  2  0
 17 16  1  0
 18 17  2  0
 19 17  1  0
 20 21  1  0
 20 19  1  6
 21 14  1  0
 22 20  1  0
 23 22  1  0
 24 22  2  0
M  END
$$$$
