DPN.pdb
     RDKit          3D

 24 24  0  0  1  0  0  0  0  0999 V2000
    8.9847  -15.6179   14.3006 N   0  0  0  0  0  0  0  0  0  0  0  0
    8.4759  -15.5820   15.5922 C   0  0  1  0  0  0  0  0  0  0  0  0
    8.2241  -17.0416   16.0116 C   0  0  0  0  0  0  0  0  0  0  0  0
    7.4144  -17.6699   14.9491 C   0  0  0  0  0  0  0  0  0  0  0  0
    6.1606  -17.5972   15.0093 O   0  0  0  0  0  0  0  0  0  0  0  0
    9.2779  -14.9323   16.6487 C   0  0  0  0  0  0  0  0  0  0  0  0
   10.5311  -14.8142   16.3294 O   0  0  0  0  0  0  0  0  0  0  0  0
    7.9745  -18.3407   13.8812 O   0  0  0  0  0  0  0  0  0  0  0  0
    8.8252  -14.4625   17.8897 N   0  0  0  0  0  0  0  0  0  0  0  0
    7.5428  -14.5361   18.4988 C   0  0  0  0  0  0  0  0  0  0  0  0
    7.3166  -13.0469   18.8202 C   0  0  0  0  0  0  0  0  0  0  0  0
    8.6989  -12.6719   19.3127 C   0  0  0  0  0  0  0  0  0  0  0  0
    9.6382  -13.7653   18.8584 C   0  0  1  0  0  0  0  0  0  0  0  0
    9.9795  -14.5913   20.0358 C   0  0  0  0  0  0  0  0  0  0  0  0
    9.3551  -15.6154   20.4080 O   0  0  0  0  0  0  0  0  0  0  0  0
   14.2315  -16.6761   22.2766 N   0  0  0  0  0  0  0  0  0  0  0  0
   14.5442  -15.3737   21.7867 C   0  0  0  0  0  0  0  0  0  0  0  0
   15.7301  -15.0200   21.8425 O   0  0  0  0  0  0  0  0  0  0  0  0
   13.4568  -14.5648   21.2623 C   0  0  0  0  0  0  0  0  0  0  0  0
   12.0861  -15.1964   21.3085 C   0  0  2  0  0  0  0  0  0  0  0  0
   11.1001  -14.1995   20.8087 N   0  0  0  0  0  0  0  0  0  0  0  0
   11.6871  -15.6014   22.6710 C   0  0  0  0  0  0  0  0  0  0  0  0
   12.2243  -16.7528   23.2363 O   0  0  0  0  0  0  0  0  0  0  0  0
   10.8804  -14.9633   23.3651 O   0  0  0  0  0  0  0  0  0  0  0  0
  2  1  1  6
  2  3  1  0
  3  4  1  0
  4  5  2  0
  6  2  1  0
  7  6  2  0
  8  4  1  0
  9 10  1  0
  9  6  1  0
 11 10  1  0
 12 11  1  0
 13 12  1  0
 13  9  1  0
 13 14  1  1
 15 14  2  0
 17 16  1  0
 18 17  2  0
 19 17  1  0
 20 21  1  0
 20 19  1  1
 21 14  1  0
 22 20  1  0
 23 22  1  0
 24 22  2  0
M  END
$$$$
