DPN.pdb
     RDKit          3D

 24 24  0  0  1  0  0  0  0  0999 V2000
    7.5658  -17.8849   17.3325 N   0  0  0  0  0  0  0  0  0  0  0  0
    7.1638  -16.8316   18.1434 C   0  0  1  0  0  0  0  0  0  0  0  0
    6.0550  -17.3758   19.0620 C   0  0  0  0  0  0  0  0  0  0  0  0
    6.5514  -18.6355   19.6501 C   0  0  0  0  0  0  0  0  0  0  0  0
    6.4677  -18.8072   20.8929 O   0  0  0  0  0  0  0  0  0  0  0  0
    8.1756  -16.1662   18.9890 C   0  0  0  0  0  0  0  0  0  0  0  0
    9.3693  -16.6490   18.8210 O   0  0  0  0  0  0  0  0  0  0  0  0
    7.1090  -19.6449   18.8923 O   0  0  0  0  0  0  0  0  0  0  0  0
    7.9655  -15.1221   19.9008 N   0  0  0  0  0  0  0  0  0  0  0  0
    6.7832  -14.4092   20.2400 C   0  0  0  0  0  0  0  0  0  0  0  0
    7.2711  -12.9656   20.0162 C   0  0  0  0  0  0  0  0  0  0  0  0
    8.6565  -13.0602   20.6210 C   0  0  0  0  0  0  0  0  0  0  0  0
    8.9869  -14.5308   20.7330 C   0  0  1  0  0  0  0  0  0  0  0  0
    8.8750  -14.9159   22.1558 C   0  0  0  0  0  0  0  0  0  0  0  0
    7.7990  -15.1408   22.7632 O   0  0  0  0  0  0  0  0  0  0  0  0
   11.4655  -19.5974   22.6066 N   0  0  0  0  0  0  0  0  0  0  0  0
   10.5747  -18.7518   23.3317 C   0  0  0  0  0  0  0  0  0  0  0  0
   10.1434  -19.1805   24.4108 O   0  0  0  0  0  0  0  0  0  0  0  0
   10.2421  -17.4601   22.7549 C   0  0  0  0  0  0  0  0  0  0  0  0
   10.3810  -16.2728   23.6772 C   0  0  2  0  0  0  0  0  0  0  0  0
   10.0756  -15.0425   22.8970 N   0  0  0  0  0  0  0  0  0  0  0  0
   11.7392  -16.1403   24.2406 C   0  0  0  0  0  0  0  0  0  0  0  0
   12.8144  -15.8735   23.4001 O   0  0  0  0  0  0  0  0  0  0  0  0
   11.9915  -16.2547   25.4501 O   0  0  0  0  0  0  0  0  0  0  0  0
  2  1  1  1
  2  3  1  0
  3  4  1  0
  4  5  2  0
  6  2  1  0
  7  6  2  0
  8  4  1  0
  9 10  1  0
  9  6  1  0
 11 10  1  0
 12 11  1  0
 13 12  1  0
 13  9  1  0
 13 14  1  1
 15 14  2  0
 17 16  1  0
 18 17  2  0
 19 17  1  0
 20 21  1  0
 20 19  1  6
 21 14  1  0
 22 20  1  0
 23 22  1  0
 24 22  2  0
M  END
$$$$
