DPN.pdb
     RDKit          3D

 24 24  0  0  1  0  0  0  0  0999 V2000
    9.1212  -17.8814   17.9427 N   0  0  0  0  0  0  0  0  0  0  0  0
    8.2420  -17.0639   18.6407 C   0  0  1  0  0  0  0  0  0  0  0  0
    7.2520  -17.9929   19.3661 C   0  0  0  0  0  0  0  0  0  0  0  0
    6.7400  -18.9533   18.3687 C   0  0  0  0  0  0  0  0  0  0  0  0
    6.5047  -18.5561   17.1991 O   0  0  0  0  0  0  0  0  0  0  0  0
    8.7940  -16.1175   19.6312 C   0  0  0  0  0  0  0  0  0  0  0  0
   10.0502  -16.3283   19.8842 O   0  0  0  0  0  0  0  0  0  0  0  0
    6.5049  -20.2810   18.6622 O   0  0  0  0  0  0  0  0  0  0  0  0
    8.1153  -15.0760   20.2795 N   0  0  0  0  0  0  0  0  0  0  0  0
    6.7612  -14.6524   20.1896 C   0  0  0  0  0  0  0  0  0  0  0  0
    6.9712  -13.1613   19.8663 C   0  0  0  0  0  0  0  0  0  0  0  0
    8.1150  -12.8472   20.8083 C   0  0  0  0  0  0  0  0  0  0  0  0
    8.7073  -14.1703   21.2359 C   0  0  1  0  0  0  0  0  0  0  0  0
    8.2818  -14.4316   22.6272 C   0  0  0  0  0  0  0  0  0  0  0  0
    7.0994  -14.3732   23.0465 O   0  0  0  0  0  0  0  0  0  0  0  0
    6.1488  -17.7145   24.3320 N   0  0  0  0  0  0  0  0  0  0  0  0
    7.5015  -17.7534   24.7826 C   0  0  0  0  0  0  0  0  0  0  0  0
    7.7356  -18.4075   25.8081 O   0  0  0  0  0  0  0  0  0  0  0  0
    8.4967  -17.0283   24.0108 C   0  0  0  0  0  0  0  0  0  0  0  0
    9.0312  -15.7674   24.6467 C   0  0  2  0  0  0  0  0  0  0  0  0
    9.2854  -14.7760   23.5659 N   0  0  0  0  0  0  0  0  0  0  0  0
   10.2924  -15.9863   25.3822 C   0  0  0  0  0  0  0  0  0  0  0  0
   11.4659  -16.2454   24.6826 O   0  0  0  0  0  0  0  0  0  0  0  0
   10.3764  -15.9533   26.6197 O   0  0  0  0  0  0  0  0  0  0  0  0
  2  1  1  1
  2  3  1  0
  3  4  1  0
  4  5  2  0
  6  2  1  0
  7  6  2  0
  8  4  1  0
  9 10  1  0
  9  6  1  0
 11 10  1  0
 12 11  1  0
 13 12  1  0
 13  9  1  0
 13 14  1  1
 15 14  2  0
 17 16  1  0
 18 17  2  0
 19 17  1  0
 20 21  1  0
 20 19  1  6
 21 14  1  0
 22 20  1  0
 23 22  1  0
 24 22  2  0
M  END
$$$$
