DPN.pdb
     RDKit          3D

 24 24  0  0  1  0  0  0  0  0999 V2000
    9.7201  -16.0370   15.3610 N   0  0  0  0  0  0  0  0  0  0  0  0
    8.8486  -15.6677   16.3772 C   0  0  1  0  0  0  0  0  0  0  0  0
    7.9671  -16.8941   16.6745 C   0  0  0  0  0  0  0  0  0  0  0  0
    7.4440  -17.3818   15.3831 C   0  0  0  0  0  0  0  0  0  0  0  0
    7.2092  -18.6088   15.2403 O   0  0  0  0  0  0  0  0  0  0  0  0
    9.4161  -15.1894   17.6542 C   0  0  0  0  0  0  0  0  0  0  0  0
   10.7058  -15.3281   17.7160 O   0  0  0  0  0  0  0  0  0  0  0  0
    7.1976  -16.5457   14.3133 O   0  0  0  0  0  0  0  0  0  0  0  0
    8.7199  -14.6332   18.7367 N   0  0  0  0  0  0  0  0  0  0  0  0
    7.3350  -14.3627   18.9097 C   0  0  0  0  0  0  0  0  0  0  0  0
    7.4025  -12.8737   19.2974 C   0  0  0  0  0  0  0  0  0  0  0  0
    8.5973  -12.8988   20.2280 C   0  0  0  0  0  0  0  0  0  0  0  0
    9.3231  -14.2002   19.9753 C   0  0  1  0  0  0  0  0  0  0  0  0
    9.0420  -15.1064   21.1088 C   0  0  0  0  0  0  0  0  0  0  0  0
    7.9430  -15.6734   21.3280 O   0  0  0  0  0  0  0  0  0  0  0  0
   13.4012  -17.1884   23.7865 N   0  0  0  0  0  0  0  0  0  0  0  0
   12.7138  -16.7047   22.6342 C   0  0  0  0  0  0  0  0  0  0  0  0
   13.2347  -15.7631   22.0207 O   0  0  0  0  0  0  0  0  0  0  0  0
   11.4629  -17.3478   22.2685 C   0  0  0  0  0  0  0  0  0  0  0  0
   10.2060  -16.6573   22.7408 C   0  0  2  0  0  0  0  0  0  0  0  0
   10.0942  -15.3580   22.0234 N   0  0  0  0  0  0  0  0  0  0  0  0
   10.2109  -16.3876   24.1923 C   0  0  0  0  0  0  0  0  0  0  0  0
   10.1641  -15.0763   24.6530 O   0  0  0  0  0  0  0  0  0  0  0  0
   10.2554  -17.2801   25.0532 O   0  0  0  0  0  0  0  0  0  0  0  0
  2  1  1  6
  2  3  1  0
  3  4  1  0
  4  5  2  0
  6  2  1  0
  7  6  2  0
  8  4  1  0
  9 10  1  0
  9  6  1  0
 11 10  1  0
 12 11  1  0
 13 12  1  0
 13  9  1  0
 13 14  1  1
 15 14  2  0
 17 16  1  0
 18 17  2  0
 19 17  1  0
 20 21  1  0
 20 19  1  6
 21 14  1  0
 22 20  1  0
 23 22  1  0
 24 22  2  0
M  END
$$$$
