DPN.pdb
     RDKit          3D

 24 24  0  0  1  0  0  0  0  0999 V2000
    9.3292  -17.1880   16.0339 N   0  0  0  0  0  0  0  0  0  0  0  0
    8.5032  -16.6100   16.9890 C   0  0  1  0  0  0  0  0  0  0  0  0
    7.6111  -17.7348   17.5445 C   0  0  0  0  0  0  0  0  0  0  0  0
    6.9345  -18.3665   16.3946 C   0  0  0  0  0  0  0  0  0  0  0  0
    6.1845  -17.6691   15.6651 O   0  0  0  0  0  0  0  0  0  0  0  0
    9.1265  -15.9116   18.1313 C   0  0  0  0  0  0  0  0  0  0  0  0
   10.4159  -16.0614   18.1711 O   0  0  0  0  0  0  0  0  0  0  0  0
    7.0877  -19.7011   16.0786 O   0  0  0  0  0  0  0  0  0  0  0  0
    8.4806  -15.1483   19.1142 N   0  0  0  0  0  0  0  0  0  0  0  0
    7.1009  -14.8734   19.3186 C   0  0  0  0  0  0  0  0  0  0  0  0
    7.1428  -13.3348   19.3731 C   0  0  0  0  0  0  0  0  0  0  0  0
    8.3930  -13.1357   20.2046 C   0  0  0  0  0  0  0  0  0  0  0  0
    9.1446  -14.4468   20.1878 C   0  0  1  0  0  0  0  0  0  0  0  0
    8.9645  -15.0923   21.5053 C   0  0  0  0  0  0  0  0  0  0  0  0
    7.9652  -15.7709   21.8493 O   0  0  0  0  0  0  0  0  0  0  0  0
   11.5140  -18.4455   22.3185 N   0  0  0  0  0  0  0  0  0  0  0  0
   12.4587  -17.4230   22.6282 C   0  0  0  0  0  0  0  0  0  0  0  0
   13.6512  -17.6693   22.4008 O   0  0  0  0  0  0  0  0  0  0  0  0
   11.9559  -16.1776   23.1832 C   0  0  0  0  0  0  0  0  0  0  0  0
   10.4548  -16.0714   23.3065 C   0  0  2  0  0  0  0  0  0  0  0  0
   10.0000  -14.9353   22.4592 N   0  0  0  0  0  0  0  0  0  0  0  0
   10.0094  -15.8248   24.6923 C   0  0  0  0  0  0  0  0  0  0  0  0
    9.7611  -16.8979   25.5412 O   0  0  0  0  0  0  0  0  0  0  0  0
    9.8371  -14.6897   25.1630 O   0  0  0  0  0  0  0  0  0  0  0  0
  2  1  1  6
  2  3  1  0
  3  4  1  0
  4  5  2  0
  6  2  1  0
  7  6  2  0
  8  4  1  0
  9 10  1  0
  9  6  1  0
 11 10  1  0
 12 11  1  0
 13 12  1  0
 13  9  1  0
 13 14  1  1
 15 14  2  0
 17 16  1  0
 18 17  2  0
 19 17  1  0
 20 21  1  0
 20 19  1  1
 21 14  1  0
 22 20  1  0
 23 22  1  0
 24 22  2  0
M  END
$$$$
