DPN.pdb
     RDKit          3D

 24 24  0  0  1  0  0  0  0  0999 V2000
    9.5775  -15.7507   15.2966 N   0  0  0  0  0  0  0  0  0  0  0  0
    8.8534  -15.7829   16.4812 C   0  0  1  0  0  0  0  0  0  0  0  0
    8.5457  -17.2625   16.7741 C   0  0  0  0  0  0  0  0  0  0  0  0
    7.8556  -17.8099   15.5896 C   0  0  0  0  0  0  0  0  0  0  0  0
    6.7286  -17.3530   15.2703 O   0  0  0  0  0  0  0  0  0  0  0  0
    9.4557  -15.1904   17.6926 C   0  0  0  0  0  0  0  0  0  0  0  0
   10.7522  -15.1385   17.6372 O   0  0  0  0  0  0  0  0  0  0  0  0
    8.3948  -18.8106   14.8071 O   0  0  0  0  0  0  0  0  0  0  0  0
    8.7845  -14.7099   18.8259 N   0  0  0  0  0  0  0  0  0  0  0  0
    7.3979  -14.6715   19.1372 C   0  0  0  0  0  0  0  0  0  0  0  0
    7.2428  -13.1760   19.4708 C   0  0  0  0  0  0  0  0  0  0  0  0
    8.5102  -12.9525   20.2694 C   0  0  0  0  0  0  0  0  0  0  0  0
    9.4232  -14.1217   19.9798 C   0  0  1  0  0  0  0  0  0  0  0  0
    9.4189  -15.0072   21.1634 C   0  0  0  0  0  0  0  0  0  0  0  0
    8.5365  -15.8614   21.4261 O   0  0  0  0  0  0  0  0  0  0  0  0
   14.2805  -15.1411   22.2684 N   0  0  0  0  0  0  0  0  0  0  0  0
   13.1961  -16.0590   22.3932 C   0  0  0  0  0  0  0  0  0  0  0  0
   13.1436  -16.9848   21.5719 O   0  0  0  0  0  0  0  0  0  0  0  0
   12.2408  -15.8415   23.4665 C   0  0  0  0  0  0  0  0  0  0  0  0
   10.7845  -15.9452   23.0816 C   0  0  2  0  0  0  0  0  0  0  0  0
   10.4949  -14.8858   22.0768 N   0  0  0  0  0  0  0  0  0  0  0  0
    9.8737  -15.7591   24.2284 C   0  0  0  0  0  0  0  0  0  0  0  0
    9.8340  -16.7099   25.2424 O   0  0  0  0  0  0  0  0  0  0  0  0
    9.1193  -14.7815   24.3505 O   0  0  0  0  0  0  0  0  0  0  0  0
  2  1  1  6
  2  3  1  0
  3  4  1  0
  4  5  2  0
  6  2  1  0
  7  6  2  0
  8  4  1  0
  9 10  1  0
  9  6  1  0
 11 10  1  0
 12 11  1  0
 13 12  1  0
 13  9  1  0
 13 14  1  1
 15 14  2  0
 17 16  1  0
 18 17  2  0
 19 17  1  0
 20 21  1  0
 20 19  1  1
 21 14  1  0
 22 20  1  0
 23 22  1  0
 24 22  2  0
M  END
$$$$
