DPN.pdb
     RDKit          3D

 24 24  0  0  1  0  0  0  0  0999 V2000
    9.3256  -16.6368   15.7732 N   0  0  0  0  0  0  0  0  0  0  0  0
    8.5472  -16.3039   16.8741 C   0  0  1  0  0  0  0  0  0  0  0  0
    7.8797  -17.6045   17.3563 C   0  0  0  0  0  0  0  0  0  0  0  0
    7.2578  -18.2412   16.1786 C   0  0  0  0  0  0  0  0  0  0  0  0
    6.3308  -17.6430   15.5756 O   0  0  0  0  0  0  0  0  0  0  0  0
    9.2020  -15.6661   18.0342 C   0  0  0  0  0  0  0  0  0  0  0  0
   10.4976  -15.7414   17.9861 O   0  0  0  0  0  0  0  0  0  0  0  0
    7.6500  -19.4757   15.7027 O   0  0  0  0  0  0  0  0  0  0  0  0
    8.5784  -15.0265   19.1148 N   0  0  0  0  0  0  0  0  0  0  0  0
    7.2014  -14.8273   19.4071 C   0  0  0  0  0  0  0  0  0  0  0  0
    7.1919  -13.3005   19.6092 C   0  0  0  0  0  0  0  0  0  0  0  0
    8.4735  -13.1324   20.3988 C   0  0  0  0  0  0  0  0  0  0  0  0
    9.2689  -14.4051   20.2205 C   0  0  1  0  0  0  0  0  0  0  0  0
    9.1760  -15.1802   21.4757 C   0  0  0  0  0  0  0  0  0  0  0  0
    8.2012  -15.8956   21.8153 O   0  0  0  0  0  0  0  0  0  0  0  0
   13.7152  -15.5342   22.2750 N   0  0  0  0  0  0  0  0  0  0  0  0
   12.7936  -16.5245   22.7268 C   0  0  0  0  0  0  0  0  0  0  0  0
   12.8167  -17.6209   22.1508 O   0  0  0  0  0  0  0  0  0  0  0  0
   11.9030  -16.1763   23.8211 C   0  0  0  0  0  0  0  0  0  0  0  0
   10.4354  -16.0977   23.4748 C   0  0  2  0  0  0  0  0  0  0  0  0
   10.2727  -15.1135   22.3700 N   0  0  0  0  0  0  0  0  0  0  0  0
    9.6006  -15.6620   24.6118 C   0  0  0  0  0  0  0  0  0  0  0  0
    9.4245  -16.5042   25.7042 O   0  0  0  0  0  0  0  0  0  0  0  0
    9.0292  -14.5615   24.6579 O   0  0  0  0  0  0  0  0  0  0  0  0
  2  1  1  6
  2  3  1  0
  3  4  1  0
  4  5  2  0
  6  2  1  0
  7  6  2  0
  8  4  1  0
  9 10  1  0
  9  6  1  0
 11 10  1  0
 12 11  1  0
 13 12  1  0
 13  9  1  0
 13 14  1  1
 15 14  2  0
 17 16  1  0
 18 17  2  0
 19 17  1  0
 20 21  1  0
 20 19  1  1
 21 14  1  0
 22 20  1  0
 23 22  1  0
 24 22  2  0
M  END
$$$$
