DPN.pdb
     RDKit          3D

 24 24  0  0  1  0  0  0  0  0999 V2000
    9.3723  -15.5415   14.8441 N   0  0  0  0  0  0  0  0  0  0  0  0
    8.6143  -15.1165   15.9273 C   0  0  1  0  0  0  0  0  0  0  0  0
    7.5709  -16.2154   16.1982 C   0  0  0  0  0  0  0  0  0  0  0  0
    8.3013  -17.4916   16.3277 C   0  0  0  0  0  0  0  0  0  0  0  0
    9.5435  -17.5101   16.1335 O   0  0  0  0  0  0  0  0  0  0  0  0
    9.3053  -14.8159   17.1975 C   0  0  0  0  0  0  0  0  0  0  0  0
   10.5880  -15.0074   17.1311 O   0  0  0  0  0  0  0  0  0  0  0  0
    7.6787  -18.6787   16.6555 O   0  0  0  0  0  0  0  0  0  0  0  0
    8.7260  -14.3691   18.3935 N   0  0  0  0  0  0  0  0  0  0  0  0
    7.3768  -14.0519   18.7101 C   0  0  0  0  0  0  0  0  0  0  0  0
    7.5643  -12.6310   19.2740 C   0  0  0  0  0  0  0  0  0  0  0  0
    8.8203  -12.8381   20.0948 C   0  0  0  0  0  0  0  0  0  0  0  0
    9.4440  -14.1317   19.6239 C   0  0  1  0  0  0  0  0  0  0  0  0
    9.1915  -15.1610   20.6543 C   0  0  0  0  0  0  0  0  0  0  0  0
    8.1898  -15.9177   20.6925 O   0  0  0  0  0  0  0  0  0  0  0  0
   13.4684  -18.4953   20.6798 N   0  0  0  0  0  0  0  0  0  0  0  0
   12.0525  -18.4556   20.8470 C   0  0  0  0  0  0  0  0  0  0  0  0
   11.4824  -19.5295   21.0840 O   0  0  0  0  0  0  0  0  0  0  0  0
   11.3892  -17.1681   20.7278 C   0  0  0  0  0  0  0  0  0  0  0  0
   10.7632  -16.6315   21.9927 C   0  0  2  0  0  0  0  0  0  0  0  0
   10.1544  -15.3090   21.6827 N   0  0  0  0  0  0  0  0  0  0  0  0
   11.7411  -16.4484   23.0834 C   0  0  0  0  0  0  0  0  0  0  0  0
   12.6873  -15.4327   23.0018 O   0  0  0  0  0  0  0  0  0  0  0  0
   11.7751  -17.1622   24.0979 O   0  0  0  0  0  0  0  0  0  0  0  0
  2  1  1  6
  2  3  1  0
  3  4  1  0
  4  5  2  0
  6  2  1  0
  7  6  2  0
  8  4  1  0
  9 10  1  0
  9  6  1  0
 11 10  1  0
 12 11  1  0
 13 12  1  0
 13  9  1  0
 13 14  1  1
 15 14  2  0
 17 16  1  0
 18 17  2  0
 19 17  1  0
 20 21  1  0
 20 19  1  6
 21 14  1  0
 22 20  1  0
 23 22  1  0
 24 22  2  0
M  END
$$$$
