DPN.pdb
     RDKit          3D

 24 24  0  0  1  0  0  0  0  0999 V2000
    8.7129  -14.5514   20.6327 N   0  0  0  0  0  0  0  0  0  0  0  0
    7.8729  -14.3577   21.7215 C   0  0  1  0  0  0  0  0  0  0  0  0
    6.8144  -15.4741   21.6706 C   0  0  0  0  0  0  0  0  0  0  0  0
    7.1241  -16.3194   20.5007 C   0  0  0  0  0  0  0  0  0  0  0  0
    7.2161  -15.7862   19.3657 O   0  0  0  0  0  0  0  0  0  0  0  0
    8.4637  -14.3461   23.0751 C   0  0  0  0  0  0  0  0  0  0  0  0
    9.7377  -14.5978   23.0713 O   0  0  0  0  0  0  0  0  0  0  0  0
    7.3198  -17.6822   20.5946 O   0  0  0  0  0  0  0  0  0  0  0  0
    7.8029  -14.1011   24.2873 N   0  0  0  0  0  0  0  0  0  0  0  0
    6.4525  -13.7456   24.5534 C   0  0  0  0  0  0  0  0  0  0  0  0
    6.6744  -12.4853   25.4103 C   0  0  0  0  0  0  0  0  0  0  0  0
    7.8316  -12.9522   26.2688 C   0  0  0  0  0  0  0  0  0  0  0  0
    8.4148  -14.1721   25.5935 C   0  0  1  0  0  0  0  0  0  0  0  0
    8.0018  -15.3622   26.3668 C   0  0  0  0  0  0  0  0  0  0  0  0
    6.9046  -15.9610   26.2447 O   0  0  0  0  0  0  0  0  0  0  0  0
   10.8855  -19.5605   26.5382 N   0  0  0  0  0  0  0  0  0  0  0  0
   11.0035  -18.4911   25.6020 C   0  0  0  0  0  0  0  0  0  0  0  0
   11.7359  -18.6789   24.6208 O   0  0  0  0  0  0  0  0  0  0  0  0
   10.2614  -17.2700   25.8668 C   0  0  0  0  0  0  0  0  0  0  0  0
    9.5164  -17.2249   27.1793 C   0  0  2  0  0  0  0  0  0  0  0  0
    8.9143  -15.8713   27.3234 N   0  0  0  0  0  0  0  0  0  0  0  0
   10.3905  -17.4708   28.3434 C   0  0  0  0  0  0  0  0  0  0  0  0
   10.4145  -18.7276   28.9381 O   0  0  0  0  0  0  0  0  0  0  0  0
   11.1266  -16.6043   28.8405 O   0  0  0  0  0  0  0  0  0  0  0  0
  2  1  1  6
  2  3  1  0
  3  4  1  0
  4  5  2  0
  6  2  1  0
  7  6  2  0
  8  4  1  0
  9 10  1  0
  9  6  1  0
 11 10  1  0
 12 11  1  0
 13 12  1  0
 13  9  1  0
 13 14  1  1
 15 14  2  0
 17 16  1  0
 18 17  2  0
 19 17  1  0
 20 21  1  0
 20 19  1  6
 21 14  1  0
 22 20  1  0
 23 22  1  0
 24 22  2  0
M  END
$$$$
