DPN.pdb
     RDKit          3D

 24 24  0  0  1  0  0  0  0  0999 V2000
    8.1148  -12.8643   19.7019 N   0  0  0  0  0  0  0  0  0  0  0  0
    7.3746  -13.0261   20.8658 C   0  0  1  0  0  0  0  0  0  0  0  0
    6.3752  -14.1668   20.6020 C   0  0  0  0  0  0  0  0  0  0  0  0
    7.1623  -15.3868   20.3351 C   0  0  0  0  0  0  0  0  0  0  0  0
    8.1093  -15.3375   19.5094 O   0  0  0  0  0  0  0  0  0  0  0  0
    8.0915  -13.3247   22.1220 C   0  0  0  0  0  0  0  0  0  0  0  0
    9.3803  -13.3695   21.9686 O   0  0  0  0  0  0  0  0  0  0  0  0
    6.9052  -16.5922   20.9556 O   0  0  0  0  0  0  0  0  0  0  0  0
    7.5297  -13.5497   23.3868 N   0  0  0  0  0  0  0  0  0  0  0  0
    6.1730  -13.5629   23.8111 C   0  0  0  0  0  0  0  0  0  0  0  0
    6.2494  -12.5557   24.9738 C   0  0  0  0  0  0  0  0  0  0  0  0
    7.5573  -12.9840   25.6063 C   0  0  0  0  0  0  0  0  0  0  0  0
    8.2795  -13.8353   24.5875 C   0  0  1  0  0  0  0  0  0  0  0  0
    8.1768  -15.2459   25.0174 C   0  0  0  0  0  0  0  0  0  0  0  0
    7.1146  -15.9145   25.0615 O   0  0  0  0  0  0  0  0  0  0  0  0
   11.6215  -16.3065   24.5124 N   0  0  0  0  0  0  0  0  0  0  0  0
   11.0878  -17.5123   23.9688 C   0  0  0  0  0  0  0  0  0  0  0  0
   11.6238  -17.9542   22.9433 O   0  0  0  0  0  0  0  0  0  0  0  0
    9.9634  -18.1279   24.6534 C   0  0  0  0  0  0  0  0  0  0  0  0
    9.3776  -17.3369   25.7983 C   0  0  2  0  0  0  0  0  0  0  0  0
    9.3702  -15.8995   25.4118 N   0  0  0  0  0  0  0  0  0  0  0  0
   10.1513  -17.4779   27.0477 C   0  0  0  0  0  0  0  0  0  0  0  0
   10.7886  -16.3703   27.5962 O   0  0  0  0  0  0  0  0  0  0  0  0
   10.2739  -18.5511   27.6583 O   0  0  0  0  0  0  0  0  0  0  0  0
  2  1  1  6
  2  3  1  0
  3  4  1  0
  4  5  2  0
  6  2  1  0
  7  6  2  0
  8  4  1  0
  9 10  1  0
  9  6  1  0
 11 10  1  0
 12 11  1  0
 13 12  1  0
 13  9  1  0
 13 14  1  1
 15 14  2  0
 17 16  1  0
 18 17  2  0
 19 17  1  0
 20 21  1  0
 20 19  1  6
 21 14  1  0
 22 20  1  0
 23 22  1  0
 24 22  2  0
M  END
$$$$
