FIR.pdb
     RDKit          3D

 31 31  0  0  1  0  0  0  0  0999 V2000
   28.5537  -20.6725  -15.0495 N   0  0  0  0  0  0  0  0  0  0  0  0
   27.6939  -19.8328  -14.2405 C   0  0  1  0  0  0  0  0  0  0  0  0
   26.7022  -19.1798  -15.2104 C   0  0  0  0  0  0  0  0  0  0  0  0
   27.3104  -17.9768  -15.8450 C   0  0  0  0  0  0  0  0  0  0  0  0
   27.9998  -18.0180  -17.0410 C   0  0  0  0  0  0  0  0  0  0  0  0
   28.5450  -16.8542  -17.5727 C   0  0  0  0  0  0  0  0  0  0  0  0
   28.3724  -15.6701  -16.8672 C   0  0  0  0  0  0  0  0  0  0  0  0
   27.6831  -15.6243  -15.6698 C   0  0  0  0  0  0  0  0  0  0  0  0
   27.1527  -16.7858  -15.1624 C   0  0  0  0  0  0  0  0  0  0  0  0
   26.8959  -20.6505  -13.2806 C   0  0  0  0  0  0  0  0  0  0  0  0
   26.5719  -21.8189  -13.6445 O   0  0  0  0  0  0  0  0  0  0  0  0
   27.4792  -20.0858   -7.9275 C   0  0  0  0  0  0  0  0  0  0  0  0
   27.2137  -20.8155   -9.2506 C   0  0  0  0  0  0  0  0  0  0  0  0
   25.8485  -20.4424   -9.7394 C   0  0  2  0  0  0  0  0  0  0  0  0
   24.8486  -20.9857   -8.7251 C   0  0  0  0  0  0  0  0  0  0  0  0
   25.5510  -20.8788  -11.1428 C   0  0  2  0  0  0  0  0  0  0  0  0
   26.5078  -20.1638  -12.0161 N   0  0  0  0  0  0  0  0  0  0  0  0
   24.2152  -20.5594  -11.6458 C   0  0  0  0  0  0  0  0  0  0  0  0
   24.0171  -19.3908  -12.1488 O   0  0  0  0  0  0  0  0  0  0  0  0
   22.6829  -21.0279  -18.3817 N   0  0  0  0  0  0  0  0  0  0  0  0
   21.2789  -20.7396  -18.2704 C   0  0  0  0  0  0  0  0  0  0  0  0
   20.6888  -20.0065  -19.1562 N   0  0  0  0  0  0  0  0  0  0  0  0
   20.4876  -21.2328  -17.2066 N   0  0  0  0  0  0  0  0  0  0  0  0
   21.1092  -22.0201  -16.1583 C   0  0  0  0  0  0  0  0  0  0  0  0
   20.9648  -21.3958  -14.8143 C   0  0  0  0  0  0  0  0  0  0  0  0
   22.0741  -21.5943  -13.8723 C   0  0  0  0  0  0  0  0  0  0  0  0
   21.9449  -21.1073  -12.4747 C   0  0  2  0  0  0  0  0  0  0  0  0
   23.0833  -21.4041  -11.6501 N   0  0  0  0  0  0  0  0  0  0  0  0
   20.7206  -21.4950  -11.7654 C   0  0  0  0  0  0  0  0  0  0  0  0
   19.4942  -21.0391  -12.1854 O   0  0  0  0  0  0  0  0  0  0  0  0
   20.7638  -22.2512  -10.7610 O   0  0  0  0  0  0  0  0  0  0  0  0
  2  1  1  6
  3  2  1  0
  3  4  1  0
  4  5  2  0
  5  6  1  0
  7  6  2  0
  8  7  1  0
  9  4  1  0
  9  8  2  0
 10  2  1  0
 10 11  2  0
 13 12  1  0
 14 13  1  0
 14 16  1  0
 14 15  1  1
 16 17  1  6
 16 18  1  0
 17 10  1  0
 18 19  2  0
 18 28  1  0
 20 21  1  0
 21 22  2  0
 21 23  1  0
 23 24  1  0
 24 25  1  0
 25 26  1  0
 27 26  1  6
 27 29  1  0
 28 27  1  0
 29 31  2  0
 29 30  1  0
M  END
$$$$
