FIR.pdb
     RDKit          3D

 31 31  0  0  1  0  0  0  0  0999 V2000
   28.7449  -21.1834  -19.4682 N   0  0  0  0  0  0  0  0  0  0  0  0
   28.5651  -21.6597  -18.1119 C   0  0  1  0  0  0  0  0  0  0  0  0
   27.9579  -20.4907  -17.3274 C   0  0  0  0  0  0  0  0  0  0  0  0
   28.8980  -19.3349  -17.3051 C   0  0  0  0  0  0  0  0  0  0  0  0
   30.2624  -19.4648  -17.4759 C   0  0  0  0  0  0  0  0  0  0  0  0
   31.0803  -18.3405  -17.4391 C   0  0  0  0  0  0  0  0  0  0  0  0
   30.4829  -17.1043  -17.2279 C   0  0  0  0  0  0  0  0  0  0  0  0
   29.1179  -16.9698  -17.0565 C   0  0  0  0  0  0  0  0  0  0  0  0
   28.3282  -18.0935  -17.0964 C   0  0  0  0  0  0  0  0  0  0  0  0
   27.5802  -22.7798  -18.0636 C   0  0  0  0  0  0  0  0  0  0  0  0
   26.7031  -22.8197  -18.9754 O   0  0  0  0  0  0  0  0  0  0  0  0
   29.1787  -27.7633  -16.8390 C   0  0  0  0  0  0  0  0  0  0  0  0
   28.4114  -26.6104  -17.4991 C   0  0  0  0  0  0  0  0  0  0  0  0
   27.4060  -26.0819  -16.5235 C   0  0  2  0  0  0  0  0  0  0  0  0
   26.5015  -27.2477  -16.1407 C   0  0  0  0  0  0  0  0  0  0  0  0
   26.6420  -24.8853  -17.0066 C   0  0  2  0  0  0  0  0  0  0  0  0
   27.6060  -23.7638  -17.0550 N   0  0  0  0  0  0  0  0  0  0  0  0
   25.5365  -24.4428  -16.1573 C   0  0  0  0  0  0  0  0  0  0  0  0
   25.7661  -24.2624  -14.9033 O   0  0  0  0  0  0  0  0  0  0  0  0
   18.2842  -20.1311  -17.7941 N   0  0  0  0  0  0  0  0  0  0  0  0
   18.0206  -21.4472  -17.2795 C   0  0  0  0  0  0  0  0  0  0  0  0
   16.9053  -22.0434  -17.5465 N   0  0  0  0  0  0  0  0  0  0  0  0
   18.9492  -22.1429  -16.4703 N   0  0  0  0  0  0  0  0  0  0  0  0
   20.1121  -21.4450  -15.9549 C   0  0  0  0  0  0  0  0  0  0  0  0
   21.0966  -22.3662  -15.3230 C   0  0  0  0  0  0  0  0  0  0  0  0
   22.2157  -22.8123  -16.1631 C   0  0  0  0  0  0  0  0  0  0  0  0
   23.2208  -23.7537  -15.6057 C   0  0  2  0  0  0  0  0  0  0  0  0
   24.2086  -24.1778  -16.5587 N   0  0  0  0  0  0  0  0  0  0  0  0
   22.6885  -24.9285  -14.9066 C   0  0  0  0  0  0  0  0  0  0  0  0
   22.4523  -24.8903  -13.5534 O   0  0  0  0  0  0  0  0  0  0  0  0
   22.4360  -25.9937  -15.5262 O   0  0  0  0  0  0  0  0  0  0  0  0
  2  1  1  6
  3  2  1  0
  3  4  1  0
  4  5  2  0
  5  6  1  0
  7  6  2  0
  8  7  1  0
  9  4  1  0
  9  8  2  0
 10  2  1  0
 10 11  2  0
 13 12  1  0
 14 13  1  0
 14 16  1  0
 14 15  1  6
 16 17  1  1
 16 18  1  0
 17 10  1  0
 18 19  2  0
 18 28  1  0
 20 21  1  0
 21 22  2  0
 21 23  1  0
 23 24  1  0
 24 25  1  0
 25 26  1  0
 27 26  1  6
 27 29  1  0
 28 27  1  0
 29 31  2  0
 29 30  1  0
M  END
$$$$
