FIR.pdb
     RDKit          3D

 31 31  0  0  1  0  0  0  0  0999 V2000
   27.4482  -22.3112  -17.8812 N   0  0  0  0  0  0  0  0  0  0  0  0
   26.5642  -21.3459  -17.2603 C   0  0  1  0  0  0  0  0  0  0  0  0
   25.2987  -21.3101  -18.1250 C   0  0  0  0  0  0  0  0  0  0  0  0
   25.5394  -20.5235  -19.3673 C   0  0  0  0  0  0  0  0  0  0  0  0
   25.7533  -19.1590  -19.3705 C   0  0  0  0  0  0  0  0  0  0  0  0
   25.9677  -18.4891  -20.5703 C   0  0  0  0  0  0  0  0  0  0  0  0
   25.9588  -19.2319  -21.7442 C   0  0  0  0  0  0  0  0  0  0  0  0
   25.7451  -20.5975  -21.7455 C   0  0  0  0  0  0  0  0  0  0  0  0
   25.5353  -21.2396  -20.5491 C   0  0  0  0  0  0  0  0  0  0  0  0
   26.1528  -21.7952  -15.8980 C   0  0  0  0  0  0  0  0  0  0  0  0
   26.1917  -23.0381  -15.6613 O   0  0  0  0  0  0  0  0  0  0  0  0
   28.7346  -20.1845  -11.9817 C   0  0  0  0  0  0  0  0  0  0  0  0
   27.8218  -21.0601  -12.8499 C   0  0  0  0  0  0  0  0  0  0  0  0
   26.4009  -20.6468  -12.6214 C   0  0  2  0  0  0  0  0  0  0  0  0
   26.1052  -20.8681  -11.1425 C   0  0  0  0  0  0  0  0  0  0  0  0
   25.4070  -21.3180  -13.5216 C   0  0  2  0  0  0  0  0  0  0  0  0
   25.7349  -20.8918  -14.9001 N   0  0  0  0  0  0  0  0  0  0  0  0
   24.0037  -20.9676  -13.3042 C   0  0  0  0  0  0  0  0  0  0  0  0
   23.6787  -19.7217  -13.3125 O   0  0  0  0  0  0  0  0  0  0  0  0
   21.0022  -27.0729  -15.2408 N   0  0  0  0  0  0  0  0  0  0  0  0
   20.9273  -26.4858  -13.9308 C   0  0  0  0  0  0  0  0  0  0  0  0
   21.1013  -27.2128  -12.8765 N   0  0  0  0  0  0  0  0  0  0  0  0
   20.6638  -25.1102  -13.7325 N   0  0  0  0  0  0  0  0  0  0  0  0
   20.6872  -24.2067  -14.8675 C   0  0  0  0  0  0  0  0  0  0  0  0
   20.2580  -22.8272  -14.5075 C   0  0  0  0  0  0  0  0  0  0  0  0
   20.5394  -22.3860  -13.1351 C   0  0  0  0  0  0  0  0  0  0  0  0
   21.5922  -21.3657  -12.8946 C   0  0  2  0  0  0  0  0  0  0  0  0
   22.9290  -21.8569  -13.0833 N   0  0  0  0  0  0  0  0  0  0  0  0
   21.5173  -20.6480  -11.6173 C   0  0  0  0  0  0  0  0  0  0  0  0
   20.5709  -19.6719  -11.4173 O   0  0  0  0  0  0  0  0  0  0  0  0
   22.3133  -20.9081  -10.6785 O   0  0  0  0  0  0  0  0  0  0  0  0
  2  1  1  6
  3  2  1  0
  3  4  1  0
  4  5  2  0
  5  6  1  0
  7  6  2  0
  8  7  1  0
  9  4  1  0
  9  8  2  0
 10  2  1  0
 10 11  2  0
 13 12  1  0
 14 13  1  0
 14 16  1  0
 14 15  1  1
 16 17  1  6
 16 18  1  0
 17 10  1  0
 18 19  2  0
 18 28  1  0
 20 21  1  0
 21 22  2  0
 21 23  1  0
 23 24  1  0
 24 25  1  0
 25 26  1  0
 27 26  1  1
 27 29  1  0
 28 27  1  0
 29 31  2  0
 29 30  1  0
M  END
$$$$
