FIR.pdb
     RDKit          3D

 31 31  0  0  1  0  0  0  0  0999 V2000
   31.6554  -23.4647   -9.6146 N   0  0  0  0  0  0  0  0  0  0  0  0
   31.1215  -22.1281   -9.7795 C   0  0  1  0  0  0  0  0  0  0  0  0
   31.0146  -21.8962  -11.2913 C   0  0  0  0  0  0  0  0  0  0  0  0
   32.3706  -21.8395  -11.9061 C   0  0  0  0  0  0  0  0  0  0  0  0
   32.5828  -21.6314  -13.2549 C   0  0  0  0  0  0  0  0  0  0  0  0
   33.8781  -21.5944  -13.7600 C   0  0  0  0  0  0  0  0  0  0  0  0
   34.9313  -21.7716  -12.8717 C   0  0  0  0  0  0  0  0  0  0  0  0
   34.7234  -21.9802  -11.5211 C   0  0  0  0  0  0  0  0  0  0  0  0
   33.4357  -22.0132  -11.0431 C   0  0  0  0  0  0  0  0  0  0  0  0
   29.7409  -22.0302   -9.2214 C   0  0  0  0  0  0  0  0  0  0  0  0
   29.1861  -23.1075   -8.8555 O   0  0  0  0  0  0  0  0  0  0  0  0
   29.1250  -19.0808   -5.2032 C   0  0  0  0  0  0  0  0  0  0  0  0
   28.9570  -20.1815   -6.2586 C   0  0  0  0  0  0  0  0  0  0  0  0
   27.9591  -19.7227   -7.2763 C   0  0  2  0  0  0  0  0  0  0  0  0
   26.6691  -19.4113   -6.5261 C   0  0  0  0  0  0  0  0  0  0  0  0
   27.7548  -20.6736   -8.4177 C   0  0  2  0  0  0  0  0  0  0  0  0
   29.0632  -20.8007   -9.0969 N   0  0  0  0  0  0  0  0  0  0  0  0
   26.7979  -20.2533   -9.4410 C   0  0  0  0  0  0  0  0  0  0  0  0
   27.0170  -19.1470  -10.0621 O   0  0  0  0  0  0  0  0  0  0  0  0
   25.4113  -23.1900  -16.3643 N   0  0  0  0  0  0  0  0  0  0  0  0
   24.5431  -22.0733  -16.6207 C   0  0  0  0  0  0  0  0  0  0  0  0
   23.7875  -22.0586  -17.6692 N   0  0  0  0  0  0  0  0  0  0  0  0
   24.4732  -20.9555  -15.7565 N   0  0  0  0  0  0  0  0  0  0  0  0
   25.2427  -20.9535  -14.5265 C   0  0  0  0  0  0  0  0  0  0  0  0
   24.5493  -21.6667  -13.4186 C   0  0  0  0  0  0  0  0  0  0  0  0
   25.2532  -21.7274  -12.1309 C   0  0  0  0  0  0  0  0  0  0  0  0
   25.0203  -20.6661  -11.1177 C   0  0  2  0  0  0  0  0  0  0  0  0
   25.6296  -20.9363   -9.8450 N   0  0  0  0  0  0  0  0  0  0  0  0
   23.6243  -20.2660  -10.9095 C   0  0  0  0  0  0  0  0  0  0  0  0
   22.8973  -19.7044  -11.9315 O   0  0  0  0  0  0  0  0  0  0  0  0
   23.0616  -20.4273   -9.7960 O   0  0  0  0  0  0  0  0  0  0  0  0
  2  1  1  6
  3  2  1  0
  3  4  1  0
  4  5  2  0
  5  6  1  0
  7  6  2  0
  8  7  1  0
  9  4  1  0
  9  8  2  0
 10  2  1  0
 10 11  2  0
 13 12  1  0
 14 13  1  0
 14 16  1  0
 14 15  1  1
 16 17  1  6
 16 18  1  0
 17 10  1  0
 18 19  2  0
 18 28  1  0
 20 21  1  0
 21 22  2  0
 21 23  1  0
 23 24  1  0
 24 25  1  0
 25 26  1  0
 27 26  1  6
 27 29  1  0
 28 27  1  0
 29 31  2  0
 29 30  1  0
M  END
$$$$
