FIR.pdb
     RDKit          3D

 31 31  0  0  1  0  0  0  0  0999 V2000
   28.6286  -20.1795   -8.6374 N   0  0  0  0  0  0  0  0  0  0  0  0
   27.2808  -20.6880   -8.4839 C   0  0  1  0  0  0  0  0  0  0  0  0
   26.6814  -19.9487   -7.2819 C   0  0  0  0  0  0  0  0  0  0  0  0
   27.6434  -19.9397   -6.1441 C   0  0  0  0  0  0  0  0  0  0  0  0
   27.9210  -21.0547   -5.3778 C   0  0  0  0  0  0  0  0  0  0  0  0
   28.8286  -20.9712   -4.3273 C   0  0  0  0  0  0  0  0  0  0  0  0
   29.4344  -19.7452   -4.0830 C   0  0  0  0  0  0  0  0  0  0  0  0
   29.1595  -18.6267   -4.8474 C   0  0  0  0  0  0  0  0  0  0  0  0
   28.2595  -18.7313   -5.8804 C   0  0  0  0  0  0  0  0  0  0  0  0
   26.4421  -20.3491   -9.6708 C   0  0  0  0  0  0  0  0  0  0  0  0
   26.2856  -19.1218   -9.9384 O   0  0  0  0  0  0  0  0  0  0  0  0
   27.2145  -19.3506  -13.4458 C   0  0  0  0  0  0  0  0  0  0  0  0
   27.3924  -20.7532  -12.8502 C   0  0  0  0  0  0  0  0  0  0  0  0
   26.0651  -21.4463  -12.8487 C   0  0  2  0  0  0  0  0  0  0  0  0
   25.4586  -21.2495  -14.2333 C   0  0  0  0  0  0  0  0  0  0  0  0
   25.1448  -21.0222  -11.7433 C   0  0  2  0  0  0  0  0  0  0  0  0
   25.8394  -21.3370  -10.4753 N   0  0  0  0  0  0  0  0  0  0  0  0
   23.8521  -21.7040  -11.6859 C   0  0  0  0  0  0  0  0  0  0  0  0
   23.8406  -22.9913  -11.7138 O   0  0  0  0  0  0  0  0  0  0  0  0
   16.5177  -24.3687   -8.8345 N   0  0  0  0  0  0  0  0  0  0  0  0
   17.6151  -24.2069   -7.9201 C   0  0  0  0  0  0  0  0  0  0  0  0
   17.7697  -25.0249   -6.9315 N   0  0  0  0  0  0  0  0  0  0  0  0
   18.5624  -23.1647   -8.0524 N   0  0  0  0  0  0  0  0  0  0  0  0
   18.4196  -22.2008   -9.1274 C   0  0  0  0  0  0  0  0  0  0  0  0
   19.2886  -22.5154  -10.2949 C   0  0  0  0  0  0  0  0  0  0  0  0
   20.5529  -21.7744  -10.3945 C   0  0  0  0  0  0  0  0  0  0  0  0
   21.3827  -21.9023  -11.6202 C   0  0  2  0  0  0  0  0  0  0  0  0
   22.5768  -21.1037  -11.5974 N   0  0  0  0  0  0  0  0  0  0  0  0
   20.6880  -21.6959  -12.8958 C   0  0  0  0  0  0  0  0  0  0  0  0
   20.7142  -20.4703  -13.5167 O   0  0  0  0  0  0  0  0  0  0  0  0
   20.0554  -22.6317  -13.4495 O   0  0  0  0  0  0  0  0  0  0  0  0
  2  1  1  6
  3  2  1  0
  3  4  1  0
  4  5  2  0
  5  6  1  0
  7  6  2  0
  8  7  1  0
  9  4  1  0
  9  8  2  0
 10  2  1  0
 10 11  2  0
 13 12  1  0
 14 13  1  0
 14 16  1  0
 14 15  1  6
 16 17  1  1
 16 18  1  0
 17 10  1  0
 18 19  2  0
 18 28  1  0
 20 21  1  0
 21 22  2  0
 21 23  1  0
 23 24  1  0
 24 25  1  0
 25 26  1  0
 27 26  1  1
 27 29  1  0
 28 27  1  0
 29 31  2  0
 29 30  1  0
M  END
$$$$
