FIR.pdb
     RDKit          3D

 31 31  0  0  1  0  0  0  0  0999 V2000
   25.8521  -21.1370  -13.3641 N   0  0  0  0  0  0  0  0  0  0  0  0
   25.0571  -20.2999  -12.4890 C   0  0  1  0  0  0  0  0  0  0  0  0
   23.6709  -20.2029  -13.1368 C   0  0  0  0  0  0  0  0  0  0  0  0
   23.7500  -19.4611  -14.4265 C   0  0  0  0  0  0  0  0  0  0  0  0
   23.7465  -20.0831  -15.6596 C   0  0  0  0  0  0  0  0  0  0  0  0
   23.8271  -19.3258  -16.8234 C   0  0  0  0  0  0  0  0  0  0  0  0
   23.9098  -17.9446  -16.6999 C   0  0  0  0  0  0  0  0  0  0  0  0
   23.9137  -17.3180  -15.4678 C   0  0  0  0  0  0  0  0  0  0  0  0
   23.8333  -18.0851  -14.3307 C   0  0  0  0  0  0  0  0  0  0  0  0
   24.8744  -20.9418  -11.1543 C   0  0  0  0  0  0  0  0  0  0  0  0
   24.6103  -22.1797  -11.1379 O   0  0  0  0  0  0  0  0  0  0  0  0
   27.7770  -18.7447   -7.1988 C   0  0  0  0  0  0  0  0  0  0  0  0
   27.1636  -19.8697   -8.0425 C   0  0  0  0  0  0  0  0  0  0  0  0
   25.7152  -20.0017   -7.6866 C   0  0  2  0  0  0  0  0  0  0  0  0
   25.6538  -20.4780   -6.2399 C   0  0  0  0  0  0  0  0  0  0  0  0
   24.9233  -20.8682   -8.6199 C   0  0  2  0  0  0  0  0  0  0  0  0
   24.9865  -20.2204   -9.9487 N   0  0  0  0  0  0  0  0  0  0  0  0
   23.5037  -21.0237   -8.3038 C   0  0  0  0  0  0  0  0  0  0  0  0
   22.7316  -20.0039   -8.4509 O   0  0  0  0  0  0  0  0  0  0  0  0
   17.5681  -26.1079   -6.4509 N   0  0  0  0  0  0  0  0  0  0  0  0
   16.6786  -25.3030   -7.2432 C   0  0  0  0  0  0  0  0  0  0  0  0
   15.4183  -25.2493   -6.9617 N   0  0  0  0  0  0  0  0  0  0  0  0
   17.1279  -24.5447   -8.3495 N   0  0  0  0  0  0  0  0  0  0  0  0
   18.5445  -24.5038   -8.6605 C   0  0  0  0  0  0  0  0  0  0  0  0
   19.2648  -23.4441   -7.9020 C   0  0  0  0  0  0  0  0  0  0  0  0
   20.6753  -23.2275   -8.2496 C   0  0  0  0  0  0  0  0  0  0  0  0
   21.4551  -22.1859   -7.5327 C   0  0  2  0  0  0  0  0  0  0  0  0
   22.8571  -22.1931   -7.8465 N   0  0  0  0  0  0  0  0  0  0  0  0
   21.2866  -22.1399   -6.0761 C   0  0  0  0  0  0  0  0  0  0  0  0
   22.2527  -22.6510   -5.2432 O   0  0  0  0  0  0  0  0  0  0  0  0
   20.2588  -21.6333   -5.5569 O   0  0  0  0  0  0  0  0  0  0  0  0
  2  1  1  6
  3  2  1  0
  3  4  1  0
  4  5  2  0
  5  6  1  0
  7  6  2  0
  8  7  1  0
  9  4  1  0
  9  8  2  0
 10  2  1  0
 10 11  2  0
 13 12  1  0
 14 13  1  0
 14 16  1  0
 14 15  1  1
 16 17  1  6
 16 18  1  0
 17 10  1  0
 18 19  2  0
 18 28  1  0
 20 21  1  0
 21 22  2  0
 21 23  1  0
 23 24  1  0
 24 25  1  0
 25 26  1  0
 27 26  1  1
 27 29  1  0
 28 27  1  0
 29 31  2  0
 29 30  1  0
M  END
$$$$
