FIR.pdb
     RDKit          3D

 31 31  0  0  1  0  0  0  0  0999 V2000
   23.7733  -14.4221  -16.0003 N   0  0  0  0  0  0  0  0  0  0  0  0
   24.6360  -15.5858  -15.9825 C   0  0  1  0  0  0  0  0  0  0  0  0
   25.8020  -15.2367  -15.0502 C   0  0  0  0  0  0  0  0  0  0  0  0
   26.8759  -14.5290  -15.8024 C   0  0  0  0  0  0  0  0  0  0  0  0
   27.0312  -13.1567  -15.7901 C   0  0  0  0  0  0  0  0  0  0  0  0
   28.0555  -12.5638  -16.5206 C   0  0  0  0  0  0  0  0  0  0  0  0
   28.9012  -13.3902  -17.2498 C   0  0  0  0  0  0  0  0  0  0  0  0
   28.7493  -14.7641  -17.2649 C   0  0  0  0  0  0  0  0  0  0  0  0
   27.7306  -15.3292  -16.5363 C   0  0  0  0  0  0  0  0  0  0  0  0
   23.9360  -16.7625  -15.3890 C   0  0  0  0  0  0  0  0  0  0  0  0
   23.2065  -16.5525  -14.3760 O   0  0  0  0  0  0  0  0  0  0  0  0
   21.4764  -19.0896  -18.3534 C   0  0  0  0  0  0  0  0  0  0  0  0
   21.4604  -19.1151  -16.8195 C   0  0  0  0  0  0  0  0  0  0  0  0
   22.6285  -19.9201  -16.3404 C   0  0  2  0  0  0  0  0  0  0  0  0
   22.0851  -21.2744  -15.8995 C   0  0  0  0  0  0  0  0  0  0  0  0
   23.4519  -19.2495  -15.2816 C   0  0  2  0  0  0  0  0  0  0  0  0
   24.0661  -18.0627  -15.9170 N   0  0  0  0  0  0  0  0  0  0  0  0
   24.5529  -20.0375  -14.7283 C   0  0  0  0  0  0  0  0  0  0  0  0
   24.9913  -21.0361  -15.4128 O   0  0  0  0  0  0  0  0  0  0  0  0
   28.7568  -21.7501   -8.1565 N   0  0  0  0  0  0  0  0  0  0  0  0
   27.8388  -20.7122   -7.7734 C   0  0  0  0  0  0  0  0  0  0  0  0
   27.9647  -20.1144   -6.6344 N   0  0  0  0  0  0  0  0  0  0  0  0
   26.7719  -20.3009   -8.6062 N   0  0  0  0  0  0  0  0  0  0  0  0
   25.6188  -21.1659   -8.7707 C   0  0  0  0  0  0  0  0  0  0  0  0
   25.4677  -21.6555  -10.1687 C   0  0  0  0  0  0  0  0  0  0  0  0
   25.1684  -20.6456  -11.1923 C   0  0  0  0  0  0  0  0  0  0  0  0
   25.4946  -20.9247  -12.6146 C   0  0  2  0  0  0  0  0  0  0  0  0
   25.2158  -19.8274  -13.4991 N   0  0  0  0  0  0  0  0  0  0  0  0
   24.9286  -22.1552  -13.1784 C   0  0  0  0  0  0  0  0  0  0  0  0
   23.5694  -22.3561  -13.1966 O   0  0  0  0  0  0  0  0  0  0  0  0
   25.6704  -23.0513  -13.6571 O   0  0  0  0  0  0  0  0  0  0  0  0
  2  1  1  1
  3  2  1  0
  3  4  1  0
  4  5  2  0
  5  6  1  0
  7  6  2  0
  8  7  1  0
  9  4  1  0
  9  8  2  0
 10  2  1  0
 10 11  2  0
 13 12  1  0
 14 13  1  0
 14 16  1  0
 14 15  1  1
 16 17  1  6
 16 18  1  0
 17 10  1  0
 18 19  2  0
 18 28  1  0
 20 21  1  0
 21 22  2  0
 21 23  1  0
 23 24  1  0
 24 25  1  0
 25 26  1  0
 27 26  1  1
 27 29  1  0
 28 27  1  0
 29 31  2  0
 29 30  1  0
M  END
$$$$
