FIR.pdb
     RDKit          3D

 31 31  0  0  1  0  0  0  0  0999 V2000
   28.8996  -20.9631  -15.5846 N   0  0  0  0  0  0  0  0  0  0  0  0
   28.1300  -20.0626  -14.7505 C   0  0  1  0  0  0  0  0  0  0  0  0
   27.3041  -19.1964  -15.7087 C   0  0  0  0  0  0  0  0  0  0  0  0
   28.1656  -18.1640  -16.3506 C   0  0  0  0  0  0  0  0  0  0  0  0
   27.6835  -17.2169  -17.2327 C   0  0  0  0  0  0  0  0  0  0  0  0
   28.5481  -16.2851  -17.7972 C   0  0  0  0  0  0  0  0  0  0  0  0
   29.8908  -16.3426  -17.4459 C   0  0  0  0  0  0  0  0  0  0  0  0
   30.3774  -17.2888  -16.5634 C   0  0  0  0  0  0  0  0  0  0  0  0
   29.5061  -18.2001  -16.0173 C   0  0  0  0  0  0  0  0  0  0  0  0
   27.1652  -20.8160  -13.8970 C   0  0  0  0  0  0  0  0  0  0  0  0
   26.7838  -21.9485  -14.3146 O   0  0  0  0  0  0  0  0  0  0  0  0
   27.3160  -20.4556   -8.4402 C   0  0  0  0  0  0  0  0  0  0  0  0
   27.1360  -21.1101   -9.8159 C   0  0  0  0  0  0  0  0  0  0  0  0
   25.8840  -20.5774  -10.4411 C   0  0  2  0  0  0  0  0  0  0  0  0
   24.7298  -20.9596   -9.5216 C   0  0  0  0  0  0  0  0  0  0  0  0
   25.6666  -21.0096  -11.8604 C   0  0  2  0  0  0  0  0  0  0  0  0
   26.6849  -20.3082  -12.6731 N   0  0  0  0  0  0  0  0  0  0  0  0
   24.3686  -20.6714  -12.4437 C   0  0  0  0  0  0  0  0  0  0  0  0
   24.1109  -19.4320  -12.6792 O   0  0  0  0  0  0  0  0  0  0  0  0
   18.5056  -23.4358  -18.4375 N   0  0  0  0  0  0  0  0  0  0  0  0
   18.7012  -22.0130  -18.5002 C   0  0  0  0  0  0  0  0  0  0  0  0
   17.9283  -21.2773  -19.2295 N   0  0  0  0  0  0  0  0  0  0  0  0
   19.7293  -21.3586  -17.7821 N   0  0  0  0  0  0  0  0  0  0  0  0
   20.5545  -22.1187  -16.8622 C   0  0  0  0  0  0  0  0  0  0  0  0
   20.7068  -21.4457  -15.5428 C   0  0  0  0  0  0  0  0  0  0  0  0
   21.9544  -21.7026  -14.8116 C   0  0  0  0  0  0  0  0  0  0  0  0
   22.1531  -21.1019  -13.4674 C   0  0  2  0  0  0  0  0  0  0  0  0
   23.3339  -21.5667  -12.7938 N   0  0  0  0  0  0  0  0  0  0  0  0
   21.0114  -21.1794  -12.5494 C   0  0  0  0  0  0  0  0  0  0  0  0
   19.8465  -20.5035  -12.8225 O   0  0  0  0  0  0  0  0  0  0  0  0
   21.0707  -21.8638  -11.4955 O   0  0  0  0  0  0  0  0  0  0  0  0
  2  1  1  6
  3  2  1  0
  3  4  1  0
  4  5  2  0
  5  6  1  0
  7  6  2  0
  8  7  1  0
  9  4  1  0
  9  8  2  0
 10  2  1  0
 10 11  2  0
 13 12  1  0
 14 13  1  0
 14 16  1  0
 14 15  1  1
 16 17  1  6
 16 18  1  0
 17 10  1  0
 18 19  2  0
 18 28  1  0
 20 21  1  0
 21 22  2  0
 21 23  1  0
 23 24  1  0
 24 25  1  0
 25 26  1  0
 27 26  1  6
 27 29  1  0
 28 27  1  0
 29 31  2  0
 29 30  1  0
M  END
$$$$
