FIR.pdb
     RDKit          3D

 31 31  0  0  1  0  0  0  0  0999 V2000
   25.6911  -20.1182  -15.8739 N   0  0  0  0  0  0  0  0  0  0  0  0
   24.8189  -19.4179  -14.9532 C   0  0  1  0  0  0  0  0  0  0  0  0
   23.6368  -18.9120  -15.7884 C   0  0  0  0  0  0  0  0  0  0  0  0
   24.1026  -17.9311  -16.8086 C   0  0  0  0  0  0  0  0  0  0  0  0
   24.3072  -18.2571  -18.1350 C   0  0  0  0  0  0  0  0  0  0  0  0
   24.7473  -17.2892  -19.0316 C   0  0  0  0  0  0  0  0  0  0  0  0
   24.9690  -16.0051  -18.5504 C   0  0  0  0  0  0  0  0  0  0  0  0
   24.7655  -15.6745  -17.2237 C   0  0  0  0  0  0  0  0  0  0  0  0
   24.3306  -16.6460  -16.3548 C   0  0  0  0  0  0  0  0  0  0  0  0
   24.2650  -20.3489  -13.9268 C   0  0  0  0  0  0  0  0  0  0  0  0
   23.9644  -21.5182  -14.3072 O   0  0  0  0  0  0  0  0  0  0  0  0
   26.1509  -19.5140   -9.0420 C   0  0  0  0  0  0  0  0  0  0  0  0
   25.7024  -20.3750  -10.2299 C   0  0  0  0  0  0  0  0  0  0  0  0
   24.2062  -20.4285  -10.2465 C   0  0  2  0  0  0  0  0  0  0  0  0
   23.7776  -21.2722   -9.0514 C   0  0  0  0  0  0  0  0  0  0  0  0
   23.6165  -20.9070  -11.5396 C   0  0  2  0  0  0  0  0  0  0  0  0
   24.0759  -19.9649  -12.5840 N   0  0  0  0  0  0  0  0  0  0  0  0
   22.1558  -20.9239  -11.6127 C   0  0  0  0  0  0  0  0  0  0  0  0
   21.5139  -19.8815  -11.2135 O   0  0  0  0  0  0  0  0  0  0  0  0
   18.0131  -26.5386   -7.3786 N   0  0  0  0  0  0  0  0  0  0  0  0
   17.0871  -25.4404   -7.4359 C   0  0  0  0  0  0  0  0  0  0  0  0
   15.8998  -25.5585   -6.9392 N   0  0  0  0  0  0  0  0  0  0  0  0
   17.4211  -24.1996   -8.0275 N   0  0  0  0  0  0  0  0  0  0  0  0
   18.7165  -24.0346   -8.6598 C   0  0  0  0  0  0  0  0  0  0  0  0
   18.8922  -22.6813   -9.2556 C   0  0  0  0  0  0  0  0  0  0  0  0
   20.1304  -22.4490  -10.0106 C   0  0  0  0  0  0  0  0  0  0  0  0
   20.0653  -22.2484  -11.4813 C   0  0  2  0  0  0  0  0  0  0  0  0
   21.3397  -21.9750  -12.0857 N   0  0  0  0  0  0  0  0  0  0  0  0
   19.0846  -21.2667  -11.9572 C   0  0  0  0  0  0  0  0  0  0  0  0
   17.9530  -21.6737  -12.6222 O   0  0  0  0  0  0  0  0  0  0  0  0
   19.2547  -20.0347  -11.7683 O   0  0  0  0  0  0  0  0  0  0  0  0
  2  1  1  6
  3  2  1  0
  3  4  1  0
  4  5  2  0
  5  6  1  0
  7  6  2  0
  8  7  1  0
  9  4  1  0
  9  8  2  0
 10  2  1  0
 10 11  2  0
 13 12  1  0
 14 13  1  0
 14 16  1  0
 14 15  1  1
 16 17  1  6
 16 18  1  0
 17 10  1  0
 18 19  2  0
 18 28  1  0
 20 21  1  0
 21 22  2  0
 21 23  1  0
 23 24  1  0
 24 25  1  0
 25 26  1  0
 27 26  1  1
 27 29  1  0
 28 27  1  0
 29 31  2  0
 29 30  1  0
M  END
$$$$
