FIR.pdb
     RDKit          3D

 31 31  0  0  1  0  0  0  0  0999 V2000
   28.8938  -20.2304  -14.8945 N   0  0  0  0  0  0  0  0  0  0  0  0
   27.8745  -19.4973  -14.1718 C   0  0  1  0  0  0  0  0  0  0  0  0
   26.9824  -18.8476  -15.2361 C   0  0  0  0  0  0  0  0  0  0  0  0
   27.6430  -17.6373  -15.8006 C   0  0  0  0  0  0  0  0  0  0  0  0
   28.3089  -17.6325  -17.0106 C   0  0  0  0  0  0  0  0  0  0  0  0
   28.9062  -16.4649  -17.4737 C   0  0  0  0  0  0  0  0  0  0  0  0
   28.8090  -15.3245  -16.6866 C   0  0  0  0  0  0  0  0  0  0  0  0
   28.1436  -15.3249  -15.4750 C   0  0  0  0  0  0  0  0  0  0  0  0
   27.5606  -16.4891  -15.0361 C   0  0  0  0  0  0  0  0  0  0  0  0
   27.0110  -20.4208  -13.3789 C   0  0  0  0  0  0  0  0  0  0  0  0
   26.9075  -21.6135  -13.7903 O   0  0  0  0  0  0  0  0  0  0  0  0
   26.9169  -19.9170   -8.0212 C   0  0  0  0  0  0  0  0  0  0  0  0
   26.9114  -20.6163   -9.3867 C   0  0  0  0  0  0  0  0  0  0  0  0
   25.5571  -20.4536  -10.0042 C   0  0  2  0  0  0  0  0  0  0  0  0
   24.5630  -21.1600   -9.0895 C   0  0  0  0  0  0  0  0  0  0  0  0
   25.4656  -20.9116  -11.4292 C   0  0  2  0  0  0  0  0  0  0  0  0
   26.3297  -20.0052  -12.2173 N   0  0  0  0  0  0  0  0  0  0  0  0
   24.1380  -20.8506  -12.0400 C   0  0  0  0  0  0  0  0  0  0  0  0
   23.5706  -19.7000  -12.1504 O   0  0  0  0  0  0  0  0  0  0  0  0
   24.3491  -25.4968  -14.4757 N   0  0  0  0  0  0  0  0  0  0  0  0
   23.6850  -25.4435  -15.7495 C   0  0  0  0  0  0  0  0  0  0  0  0
   23.1142  -26.4966  -16.2349 N   0  0  0  0  0  0  0  0  0  0  0  0
   23.6240  -24.2598  -16.5217 N   0  0  0  0  0  0  0  0  0  0  0  0
   23.5564  -22.9733  -15.8543 C   0  0  0  0  0  0  0  0  0  0  0  0
   22.1590  -22.5665  -15.5399 C   0  0  0  0  0  0  0  0  0  0  0  0
   21.7196  -22.7372  -14.1489 C   0  0  0  0  0  0  0  0  0  0  0  0
   22.0901  -21.7183  -13.1330 C   0  0  2  0  0  0  0  0  0  0  0  0
   23.3817  -21.9327  -12.5417 N   0  0  0  0  0  0  0  0  0  0  0  0
   21.1070  -21.4766  -12.0713 C   0  0  0  0  0  0  0  0  0  0  0  0
   20.1301  -20.5226  -12.2260 O   0  0  0  0  0  0  0  0  0  0  0  0
   21.1341  -22.1341  -10.9992 O   0  0  0  0  0  0  0  0  0  0  0  0
  2  1  1  6
  3  2  1  0
  3  4  1  0
  4  5  2  0
  5  6  1  0
  7  6  2  0
  8  7  1  0
  9  4  1  0
  9  8  2  0
 10  2  1  0
 10 11  2  0
 13 12  1  0
 14 13  1  0
 14 16  1  0
 14 15  1  1
 16 17  1  6
 16 18  1  0
 17 10  1  0
 18 19  2  0
 18 28  1  0
 20 21  1  0
 21 22  2  0
 21 23  1  0
 23 24  1  0
 24 25  1  0
 25 26  1  0
 27 26  1  1
 27 29  1  0
 28 27  1  0
 29 31  2  0
 29 30  1  0
M  END
$$$$
