FIR.pdb
     RDKit          3D

 31 31  0  0  1  0  0  0  0  0999 V2000
   28.5123  -20.3456  -14.9484 N   0  0  0  0  0  0  0  0  0  0  0  0
   27.6929  -19.5784  -14.0325 C   0  0  1  0  0  0  0  0  0  0  0  0
   26.6181  -18.8997  -14.8897 C   0  0  0  0  0  0  0  0  0  0  0  0
   27.1975  -17.7459  -15.6333 C   0  0  0  0  0  0  0  0  0  0  0  0
   27.7490  -17.8576  -16.8947 C   0  0  0  0  0  0  0  0  0  0  0  0
   28.2757  -16.7368  -17.5277 C   0  0  0  0  0  0  0  0  0  0  0  0
   28.2265  -15.5226  -16.8547 C   0  0  0  0  0  0  0  0  0  0  0  0
   27.6755  -15.4063  -15.5923 C   0  0  0  0  0  0  0  0  0  0  0  0
   27.1608  -16.5262  -14.9850 C   0  0  0  0  0  0  0  0  0  0  0  0
   26.9864  -20.4722  -13.0686 C   0  0  0  0  0  0  0  0  0  0  0  0
   26.7170  -21.6463  -13.4576 O   0  0  0  0  0  0  0  0  0  0  0  0
   27.6567  -19.9863   -7.6532 C   0  0  0  0  0  0  0  0  0  0  0  0
   27.4412  -20.6908   -8.9988 C   0  0  0  0  0  0  0  0  0  0  0  0
   26.0558  -20.3911   -9.4814 C   0  0  2  0  0  0  0  0  0  0  0  0
   25.0911  -20.9704   -8.4530 C   0  0  0  0  0  0  0  0  0  0  0  0
   25.7701  -20.8587  -10.8773 C   0  0  2  0  0  0  0  0  0  0  0  0
   26.6244  -20.0491  -11.7739 N   0  0  0  0  0  0  0  0  0  0  0  0
   24.3959  -20.6817  -11.3458 C   0  0  0  0  0  0  0  0  0  0  0  0
   23.9635  -19.4823  -11.5261 O   0  0  0  0  0  0  0  0  0  0  0  0
   20.8637  -23.8729  -17.5746 N   0  0  0  0  0  0  0  0  0  0  0  0
   19.8266  -22.8893  -17.4209 C   0  0  0  0  0  0  0  0  0  0  0  0
   18.6766  -23.0565  -17.9864 N   0  0  0  0  0  0  0  0  0  0  0  0
   20.0084  -21.7115  -16.6588 N   0  0  0  0  0  0  0  0  0  0  0  0
   21.2263  -21.5383  -15.8896 C   0  0  0  0  0  0  0  0  0  0  0  0
   21.2299  -22.3441  -14.6376 C   0  0  0  0  0  0  0  0  0  0  0  0
   22.4235  -22.2379  -13.7883 C   0  0  0  0  0  0  0  0  0  0  0  0
   22.3592  -21.4528  -12.5287 C   0  0  2  0  0  0  0  0  0  0  0  0
   23.4587  -21.6974  -11.6368 N   0  0  0  0  0  0  0  0  0  0  0  0
   21.1012  -21.5357  -11.7786 C   0  0  0  0  0  0  0  0  0  0  0  0
   19.9136  -21.1618  -12.3601 O   0  0  0  0  0  0  0  0  0  0  0  0
   21.0794  -21.9498  -10.5909 O   0  0  0  0  0  0  0  0  0  0  0  0
  2  1  1  6
  3  2  1  0
  3  4  1  0
  4  5  2  0
  5  6  1  0
  7  6  2  0
  8  7  1  0
  9  4  1  0
  9  8  2  0
 10  2  1  0
 10 11  2  0
 13 12  1  0
 14 13  1  0
 14 16  1  0
 14 15  1  1
 16 17  1  6
 16 18  1  0
 17 10  1  0
 18 19  2  0
 18 28  1  0
 20 21  1  0
 21 22  2  0
 21 23  1  0
 23 24  1  0
 24 25  1  0
 25 26  1  0
 27 26  1  6
 27 29  1  0
 28 27  1  0
 29 31  2  0
 29 30  1  0
M  END
$$$$
