FIR.pdb
     RDKit          3D

 31 31  0  0  1  0  0  0  0  0999 V2000
   28.4938  -21.0409   -9.3504 N   0  0  0  0  0  0  0  0  0  0  0  0
   27.1289  -20.5793   -9.5014 C   0  0  1  0  0  0  0  0  0  0  0  0
   27.0146  -19.3056   -8.6558 C   0  0  0  0  0  0  0  0  0  0  0  0
   27.4094  -19.5801   -7.2455 C   0  0  0  0  0  0  0  0  0  0  0  0
   28.4611  -18.9439   -6.6158 C   0  0  0  0  0  0  0  0  0  0  0  0
   28.7753  -19.2540   -5.2968 C   0  0  0  0  0  0  0  0  0  0  0  0
   28.0043  -20.2108   -4.6491 C   0  0  0  0  0  0  0  0  0  0  0  0
   26.9509  -20.8500   -5.2756 C   0  0  0  0  0  0  0  0  0  0  0  0
   26.6577  -20.5287   -6.5789 C   0  0  0  0  0  0  0  0  0  0  0  0
   26.8469  -20.1946  -10.9154 C   0  0  0  0  0  0  0  0  0  0  0  0
   27.2601  -19.0620  -11.3013 O   0  0  0  0  0  0  0  0  0  0  0  0
   29.2263  -22.2232  -14.5027 C   0  0  0  0  0  0  0  0  0  0  0  0
   28.3517  -21.2120  -13.7502 C   0  0  0  0  0  0  0  0  0  0  0  0
   26.9128  -21.5345  -14.0102 C   0  0  2  0  0  0  0  0  0  0  0  0
   26.6996  -21.4362  -15.5164 C   0  0  0  0  0  0  0  0  0  0  0  0
   25.9395  -20.7040  -13.2280 C   0  0  2  0  0  0  0  0  0  0  0  0
   26.1516  -21.0405  -11.8029 N   0  0  0  0  0  0  0  0  0  0  0  0
   24.5232  -20.9447  -13.5025 C   0  0  0  0  0  0  0  0  0  0  0  0
   23.8954  -21.7930  -12.7648 O   0  0  0  0  0  0  0  0  0  0  0  0
   17.7552  -20.4878  -10.8262 N   0  0  0  0  0  0  0  0  0  0  0  0
   17.2117  -20.2788  -12.1406 C   0  0  0  0  0  0  0  0  0  0  0  0
   15.9465  -20.0687  -12.3002 N   0  0  0  0  0  0  0  0  0  0  0  0
   18.0175  -20.2930  -13.3031 N   0  0  0  0  0  0  0  0  0  0  0  0
   19.4262  -20.6223  -13.1928 C   0  0  0  0  0  0  0  0  0  0  0  0
   20.2953  -19.4133  -13.1789 C   0  0  0  0  0  0  0  0  0  0  0  0
   21.7436  -19.6413  -13.2669 C   0  0  0  0  0  0  0  0  0  0  0  0
   22.3014  -20.3678  -14.4366 C   0  0  2  0  0  0  0  0  0  0  0  0
   23.7361  -20.3386  -14.5064 N   0  0  0  0  0  0  0  0  0  0  0  0
   21.7469  -20.0075  -15.7461 C   0  0  0  0  0  0  0  0  0  0  0  0
   20.6341  -20.6485  -16.2353 O   0  0  0  0  0  0  0  0  0  0  0  0
   22.2736  -19.1069  -16.4490 O   0  0  0  0  0  0  0  0  0  0  0  0
  2  1  1  6
  3  2  1  0
  3  4  1  0
  4  5  2  0
  5  6  1  0
  7  6  2  0
  8  7  1  0
  9  4  1  0
  9  8  2  0
 10  2  1  0
 10 11  2  0
 13 12  1  0
 14 13  1  0
 14 16  1  0
 14 15  1  6
 16 17  1  1
 16 18  1  0
 17 10  1  0
 18 19  2  0
 18 28  1  0
 20 21  1  0
 21 22  2  0
 21 23  1  0
 23 24  1  0
 24 25  1  0
 25 26  1  0
 27 26  1  1
 27 29  1  0
 28 27  1  0
 29 31  2  0
 29 30  1  0
M  END
$$$$
