FIR.pdb
     RDKit          3D

 31 31  0  0  1  0  0  0  0  0999 V2000
   25.2159  -19.3739   -7.9198 N   0  0  0  0  0  0  0  0  0  0  0  0
   26.2044  -20.1011   -8.6896 C   0  0  1  0  0  0  0  0  0  0  0  0
   26.6741  -21.2555   -7.7966 C   0  0  0  0  0  0  0  0  0  0  0  0
   27.3703  -20.7292   -6.5890 C   0  0  0  0  0  0  0  0  0  0  0  0
   26.7235  -20.4606   -5.3985 C   0  0  0  0  0  0  0  0  0  0  0  0
   27.4379  -19.9663   -4.3124 C   0  0  0  0  0  0  0  0  0  0  0  0
   28.8023  -19.7571   -4.4682 C   0  0  0  0  0  0  0  0  0  0  0  0
   29.4535  -20.0244   -5.6578 C   0  0  0  0  0  0  0  0  0  0  0  0
   28.7288  -20.5122   -6.7183 C   0  0  0  0  0  0  0  0  0  0  0  0
   25.5935  -20.7088   -9.9080 C   0  0  0  0  0  0  0  0  0  0  0  0
   24.3884  -21.0870   -9.8248 O   0  0  0  0  0  0  0  0  0  0  0  0
   28.9198  -18.2275  -14.2184 C   0  0  0  0  0  0  0  0  0  0  0  0
   27.4745  -18.6526  -13.9284 C   0  0  0  0  0  0  0  0  0  0  0  0
   27.4718  -19.5689  -12.7441 C   0  0  2  0  0  0  0  0  0  0  0  0
   28.3638  -20.7539  -13.0962 C   0  0  0  0  0  0  0  0  0  0  0  0
   26.1064  -19.9834  -12.2833 C   0  0  2  0  0  0  0  0  0  0  0  0
   26.3087  -20.8651  -11.1124 N   0  0  0  0  0  0  0  0  0  0  0  0
   25.3087  -20.7474  -13.2421 C   0  0  0  0  0  0  0  0  0  0  0  0
   25.0304  -20.2015  -14.3746 O   0  0  0  0  0  0  0  0  0  0  0  0
   18.1865  -23.6889  -13.2483 N   0  0  0  0  0  0  0  0  0  0  0  0
   17.9908  -22.2947  -13.5391 C   0  0  0  0  0  0  0  0  0  0  0  0
   16.8096  -21.7733  -13.4816 N   0  0  0  0  0  0  0  0  0  0  0  0
   19.0594  -21.4395  -13.8965 N   0  0  0  0  0  0  0  0  0  0  0  0
   20.3879  -21.9932  -14.0799 C   0  0  0  0  0  0  0  0  0  0  0  0
   21.0177  -22.4027  -12.7944 C   0  0  0  0  0  0  0  0  0  0  0  0
   22.4007  -21.9628  -12.5681 C   0  0  0  0  0  0  0  0  0  0  0  0
   23.4676  -22.3841  -13.5122 C   0  0  2  0  0  0  0  0  0  0  0  0
   24.7944  -22.0518  -13.0729 N   0  0  0  0  0  0  0  0  0  0  0  0
   23.3007  -21.9613  -14.9070 C   0  0  0  0  0  0  0  0  0  0  0  0
   22.7906  -22.8269  -15.8445 O   0  0  0  0  0  0  0  0  0  0  0  0
   23.6182  -20.8015  -15.2765 O   0  0  0  0  0  0  0  0  0  0  0  0
  2  1  1  1
  3  2  1  0
  3  4  1  0
  4  5  2  0
  5  6  1  0
  7  6  2  0
  8  7  1  0
  9  4  1  0
  9  8  2  0
 10  2  1  0
 10 11  2  0
 13 12  1  0
 14 13  1  0
 14 16  1  0
 14 15  1  6
 16 17  1  1
 16 18  1  0
 17 10  1  0
 18 19  2  0
 18 28  1  0
 20 21  1  0
 21 22  2  0
 21 23  1  0
 23 24  1  0
 24 25  1  0
 25 26  1  0
 27 26  1  1
 27 29  1  0
 28 27  1  0
 29 31  2  0
 29 30  1  0
M  END
$$$$
