FIR.pdb
     RDKit          3D

 31 31  0  0  1  0  0  0  0  0999 V2000
   24.5212  -20.5357  -14.3016 N   0  0  0  0  0  0  0  0  0  0  0  0
   23.6749  -19.9420  -13.2867 C   0  0  1  0  0  0  0  0  0  0  0  0
   22.2749  -19.8440  -13.9041 C   0  0  0  0  0  0  0  0  0  0  0  0
   22.2802  -18.9025  -15.0589 C   0  0  0  0  0  0  0  0  0  0  0  0
   22.5113  -19.3017  -16.3608 C   0  0  0  0  0  0  0  0  0  0  0  0
   22.5051  -18.3655  -17.3893 C   0  0  0  0  0  0  0  0  0  0  0  0
   22.2618  -17.0374  -17.0626 C   0  0  0  0  0  0  0  0  0  0  0  0
   22.0302  -16.6335  -15.7611 C   0  0  0  0  0  0  0  0  0  0  0  0
   22.0408  -17.5748  -14.7602 C   0  0  0  0  0  0  0  0  0  0  0  0
   23.5671  -20.8301  -12.0924 C   0  0  0  0  0  0  0  0  0  0  0  0
   23.4196  -22.0695  -12.3034 O   0  0  0  0  0  0  0  0  0  0  0  0
   26.3785  -19.2606   -7.8102 C   0  0  0  0  0  0  0  0  0  0  0  0
   25.8149  -20.2824   -8.8062 C   0  0  0  0  0  0  0  0  0  0  0  0
   24.3619  -20.4903   -8.5105 C   0  0  2  0  0  0  0  0  0  0  0  0
   24.2782  -21.1867   -7.1571 C   0  0  0  0  0  0  0  0  0  0  0  0
   23.6069  -21.2131   -9.5859 C   0  0  2  0  0  0  0  0  0  0  0  0
   23.6247  -20.3327  -10.7749 N   0  0  0  0  0  0  0  0  0  0  0  0
   22.2001  -21.4970   -9.3037 C   0  0  0  0  0  0  0  0  0  0  0  0
   21.3776  -20.5078   -9.2517 O   0  0  0  0  0  0  0  0  0  0  0  0
   16.7168  -27.7844  -11.6735 N   0  0  0  0  0  0  0  0  0  0  0  0
   17.7772  -27.8313  -10.7041 C   0  0  0  0  0  0  0  0  0  0  0  0
   18.3515  -28.9527  -10.4155 N   0  0  0  0  0  0  0  0  0  0  0  0
   18.2367  -26.6761  -10.0293 N   0  0  0  0  0  0  0  0  0  0  0  0
   17.5893  -25.4007  -10.2728 C   0  0  0  0  0  0  0  0  0  0  0  0
   18.1560  -24.3048   -9.4393 C   0  0  0  0  0  0  0  0  0  0  0  0
   19.5665  -23.9648   -9.6676 C   0  0  0  0  0  0  0  0  0  0  0  0
   20.2029  -22.8946   -8.8570 C   0  0  2  0  0  0  0  0  0  0  0  0
   21.6163  -22.7631   -9.0782 N   0  0  0  0  0  0  0  0  0  0  0  0
   19.9416  -22.9345   -7.4140 C   0  0  0  0  0  0  0  0  0  0  0  0
   18.6782  -22.7043   -6.9248 O   0  0  0  0  0  0  0  0  0  0  0  0
   20.8632  -23.1799   -6.5937 O   0  0  0  0  0  0  0  0  0  0  0  0
  2  1  1  6
  3  2  1  0
  3  4  1  0
  4  5  2  0
  5  6  1  0
  7  6  2  0
  8  7  1  0
  9  4  1  0
  9  8  2  0
 10  2  1  0
 10 11  2  0
 13 12  1  0
 14 13  1  0
 14 16  1  0
 14 15  1  1
 16 17  1  6
 16 18  1  0
 17 10  1  0
 18 19  2  0
 18 28  1  0
 20 21  1  0
 21 22  2  0
 21 23  1  0
 23 24  1  0
 24 25  1  0
 25 26  1  0
 27 26  1  6
 27 29  1  0
 28 27  1  0
 29 31  2  0
 29 30  1  0
M  END
$$$$
