FIR.pdb
     RDKit          3D

 31 31  0  0  1  0  0  0  0  0999 V2000
   25.9305  -14.3752  -16.1340 N   0  0  0  0  0  0  0  0  0  0  0  0
   25.6893  -15.8015  -16.2126 C   0  0  1  0  0  0  0  0  0  0  0  0
   26.6992  -16.4567  -15.2632 C   0  0  0  0  0  0  0  0  0  0  0  0
   28.0382  -16.5481  -15.9103 C   0  0  0  0  0  0  0  0  0  0  0  0
   29.0564  -15.6450  -15.6753 C   0  0  0  0  0  0  0  0  0  0  0  0
   30.2807  -15.7907  -16.3188 C   0  0  0  0  0  0  0  0  0  0  0  0
   30.4373  -16.8604  -17.1912 C   0  0  0  0  0  0  0  0  0  0  0  0
   29.4209  -17.7665  -17.4293 C   0  0  0  0  0  0  0  0  0  0  0  0
   28.2193  -17.6039  -16.7831 C   0  0  0  0  0  0  0  0  0  0  0  0
   24.3269  -16.1430  -15.7085 C   0  0  0  0  0  0  0  0  0  0  0  0
   23.9836  -15.6565  -14.5914 O   0  0  0  0  0  0  0  0  0  0  0  0
   20.4343  -14.8541  -15.8950 C   0  0  0  0  0  0  0  0  0  0  0  0
   20.9656  -15.4606  -17.2001 C   0  0  0  0  0  0  0  0  0  0  0  0
   21.1279  -16.9372  -17.0124 C   0  0  2  0  0  0  0  0  0  0  0  0
   19.7338  -17.5143  -16.7955 C   0  0  0  0  0  0  0  0  0  0  0  0
   22.0934  -17.3230  -15.9317 C   0  0  2  0  0  0  0  0  0  0  0  0
   23.4418  -16.9704  -16.4285 N   0  0  0  0  0  0  0  0  0  0  0  0
   22.1389  -18.7439  -15.5877 C   0  0  0  0  0  0  0  0  0  0  0  0
   22.3594  -19.5922  -16.5309 O   0  0  0  0  0  0  0  0  0  0  0  0
   27.7156  -20.9916  -11.0202 N   0  0  0  0  0  0  0  0  0  0  0  0
   26.6400  -20.7146  -10.1075 C   0  0  0  0  0  0  0  0  0  0  0  0
   26.8794  -20.1740   -8.9582 N   0  0  0  0  0  0  0  0  0  0  0  0
   25.2920  -21.0142  -10.4141 N   0  0  0  0  0  0  0  0  0  0  0  0
   24.9469  -21.4750  -11.7458 C   0  0  0  0  0  0  0  0  0  0  0  0
   23.6312  -20.9524  -12.2072 C   0  0  0  0  0  0  0  0  0  0  0  0
   23.2377  -21.2797  -13.5839 C   0  0  0  0  0  0  0  0  0  0  0  0
   21.9656  -20.7409  -14.1304 C   0  0  2  0  0  0  0  0  0  0  0  0
   21.9688  -19.3151  -14.3073 N   0  0  0  0  0  0  0  0  0  0  0  0
   20.7406  -21.1375  -13.4275 C   0  0  0  0  0  0  0  0  0  0  0  0
   20.3292  -22.4487  -13.4235 O   0  0  0  0  0  0  0  0  0  0  0  0
   20.0409  -20.2911  -12.8138 O   0  0  0  0  0  0  0  0  0  0  0  0
  2  1  1  1
  3  2  1  0
  3  4  1  0
  4  5  2  0
  5  6  1  0
  7  6  2  0
  8  7  1  0
  9  4  1  0
  9  8  2  0
 10  2  1  0
 10 11  2  0
 13 12  1  0
 14 13  1  0
 14 16  1  0
 14 15  1  1
 16 17  1  6
 16 18  1  0
 17 10  1  0
 18 19  2  0
 18 28  1  0
 20 21  1  0
 21 22  2  0
 21 23  1  0
 23 24  1  0
 24 25  1  0
 25 26  1  0
 27 26  1  1
 27 29  1  0
 28 27  1  0
 29 31  2  0
 29 30  1  0
M  END
$$$$
