EVC.pdb
     RDKit          3D

 23 22  0  0  1  0  0  0  0  0999 V2000
    9.7745  -17.7993   16.8375 N   0  0  0  0  0  0  0  0  0  0  0  0
    8.7623  -17.6816   17.8388 C   0  0  1  0  0  0  0  0  0  0  0  0
    8.3764  -19.0103   18.3927 C   0  0  0  0  0  0  0  0  0  0  0  0
    7.7693  -19.9630   17.4112 C   0  0  0  0  0  0  0  0  0  0  0  0
    7.4791  -21.3004   17.9430 C   0  0  0  0  0  0  0  0  0  0  0  0
    6.9410  -22.2082   17.2641 O   0  0  0  0  0  0  0  0  0  0  0  0
    9.1072  -16.7173   18.9069 C   0  0  0  0  0  0  0  0  0  0  0  0
   10.3215  -16.6330   19.2449 O   0  0  0  0  0  0  0  0  0  0  0  0
    7.7880  -21.6640   19.2692 O   0  0  0  0  0  0  0  0  0  0  0  0
    7.9977  -12.9223   21.8868 C   0  0  0  0  0  0  0  0  0  0  0  0
    7.5707  -13.8500   20.7788 C   0  0  1  0  0  0  0  0  0  0  0  0
    7.2395  -13.1057   19.5072 C   0  0  0  0  0  0  0  0  0  0  0  0
    8.5672  -14.9664   20.5534 C   0  0  2  0  0  0  0  0  0  0  0  0
    8.1558  -15.8965   19.5585 N   0  0  0  0  0  0  0  0  0  0  0  0
    8.7812  -15.6371   21.8622 C   0  0  0  0  0  0  0  0  0  0  0  0
    7.9077  -16.3565   22.4114 O   0  0  0  0  0  0  0  0  0  0  0  0
   10.0148  -15.4815   22.5530 N   0  0  0  0  0  0  0  0  0  0  0  0
   10.2639  -16.1913   23.7925 C   0  0  1  0  0  0  0  0  0  0  0  0
   11.7437  -16.5222   23.8193 C   0  0  0  0  0  0  0  0  0  0  0  0
   12.1146  -17.5554   22.3639 S   0  0  0  0  0  0  0  0  0  0  0  0
    9.8622  -15.3770   24.9666 C   0  0  0  0  0  0  0  0  0  0  0  0
    9.3905  -14.0902   24.7843 O   0  0  0  0  0  0  0  0  0  0  0  0
    9.9357  -15.8196   26.1386 O   0  0  0  0  0  0  0  0  0  0  0  0
  2  1  1  6
  2  3  1  0
  4  3  1  0
  5  4  1  0
  6  5  2  0
  7  2  1  0
  7  8  2  0
  9  5  1  0
 11 10  1  1
 11 12  1  0
 11 13  1  0
 13 14  1  6
 14  7  1  0
 15 13  1  0
 16 15  2  0
 17 15  1  0
 18 17  1  0
 18 21  1  0
 19 20  1  0
 18 19  1  1
 21 22  1  0
 23 21  2  0
M  END
$$$$
