EVC.pdb
     RDKit          3D

 23 22  0  0  1  0  0  0  0  0999 V2000
    9.3954  -15.6746   20.8724 N   0  0  0  0  0  0  0  0  0  0  0  0
    8.5694  -16.1321   21.9445 C   0  0  1  0  0  0  0  0  0  0  0  0
    8.7136  -17.5990   22.1654 C   0  0  0  0  0  0  0  0  0  0  0  0
    8.7096  -18.4380   20.9262 C   0  0  0  0  0  0  0  0  0  0  0  0
    8.8474  -19.8819   21.1541 C   0  0  0  0  0  0  0  0  0  0  0  0
    8.8998  -20.7226   20.2241 O   0  0  0  0  0  0  0  0  0  0  0  0
    8.7582  -15.3644   23.1953 C   0  0  0  0  0  0  0  0  0  0  0  0
    9.9355  -15.0149   23.4917 O   0  0  0  0  0  0  0  0  0  0  0  0
    8.9318  -20.4326   22.4487 O   0  0  0  0  0  0  0  0  0  0  0  0
    7.1101  -12.5416   26.8680 C   0  0  0  0  0  0  0  0  0  0  0  0
    6.8352  -13.2930   25.5911 C   0  0  1  0  0  0  0  0  0  0  0  0
    6.4846  -12.3689   24.4492 C   0  0  0  0  0  0  0  0  0  0  0  0
    7.9542  -14.2492   25.2394 C   0  0  2  0  0  0  0  0  0  0  0  0
    7.6985  -15.0077   24.0632 N   0  0  0  0  0  0  0  0  0  0  0  0
    8.1645  -15.1333   26.4153 C   0  0  0  0  0  0  0  0  0  0  0  0
    7.6112  -16.2568   26.5320 O   0  0  0  0  0  0  0  0  0  0  0  0
    9.0216  -14.7244   27.4742 N   0  0  0  0  0  0  0  0  0  0  0  0
    9.6935  -15.7055   28.3037 C   0  0  1  0  0  0  0  0  0  0  0  0
   10.6217  -16.4876   27.3943 C   0  0  0  0  0  0  0  0  0  0  0  0
   11.4716  -17.7438   28.4055 S   0  0  0  0  0  0  0  0  0  0  0  0
   10.4331  -15.0533   29.4129 C   0  0  0  0  0  0  0  0  0  0  0  0
   10.6707  -15.7472   30.5850 O   0  0  0  0  0  0  0  0  0  0  0  0
   10.8585  -13.8758   29.3261 O   0  0  0  0  0  0  0  0  0  0  0  0
  2  1  1  6
  2  3  1  0
  4  3  1  0
  5  4  1  0
  6  5  2  0
  7  2  1  0
  7  8  2  0
  9  5  1  0
 11 10  1  1
 11 12  1  0
 11 13  1  0
 13 14  1  6
 14  7  1  0
 15 13  1  0
 16 15  2  0
 17 15  1  0
 18 17  1  0
 18 21  1  0
 19 20  1  0
 18 19  1  6
 21 22  1  0
 23 21  2  0
M  END
$$$$
