EVC.pdb
     RDKit          3D

 23 22  0  0  1  0  0  0  0  0999 V2000
    8.1568  -15.7101   20.8209 N   0  0  0  0  0  0  0  0  0  0  0  0
    7.5997  -16.0941   22.0792 C   0  0  1  0  0  0  0  0  0  0  0  0
    7.6393  -17.5714   22.2728 C   0  0  0  0  0  0  0  0  0  0  0  0
    7.1126  -18.3826   21.1308 C   0  0  0  0  0  0  0  0  0  0  0  0
    7.8654  -19.6096   20.8422 C   0  0  0  0  0  0  0  0  0  0  0  0
    8.7456  -19.6824   19.9509 O   0  0  0  0  0  0  0  0  0  0  0  0
    8.1936  -15.3710   23.2255 C   0  0  0  0  0  0  0  0  0  0  0  0
    9.4489  -15.2285   23.2366 O   0  0  0  0  0  0  0  0  0  0  0  0
    7.6506  -20.8069   21.5542 O   0  0  0  0  0  0  0  0  0  0  0  0
    7.8352  -12.5071   27.2439 C   0  0  0  0  0  0  0  0  0  0  0  0
    7.1424  -13.2063   26.1030 C   0  0  1  0  0  0  0  0  0  0  0  0
    6.4300  -12.2384   25.1885 C   0  0  0  0  0  0  0  0  0  0  0  0
    8.0733  -14.1337   25.3522 C   0  0  2  0  0  0  0  0  0  0  0  0
    7.4341  -14.8389   24.2947 N   0  0  0  0  0  0  0  0  0  0  0  0
    8.6595  -15.0696   26.3466 C   0  0  0  0  0  0  0  0  0  0  0  0
    8.0487  -16.0832   26.7727 O   0  0  0  0  0  0  0  0  0  0  0  0
    9.9657  -14.8413   26.8614 N   0  0  0  0  0  0  0  0  0  0  0  0
   10.5391  -15.7349   27.8486 C   0  0  1  0  0  0  0  0  0  0  0  0
   11.9119  -16.1297   27.3388 C   0  0  0  0  0  0  0  0  0  0  0  0
   12.6970  -17.1861   28.6000 S   0  0  0  0  0  0  0  0  0  0  0  0
   10.6145  -15.0848   29.1807 C   0  0  0  0  0  0  0  0  0  0  0  0
   10.6313  -15.8592   30.3259 O   0  0  0  0  0  0  0  0  0  0  0  0
   10.6645  -13.8374   29.3094 O   0  0  0  0  0  0  0  0  0  0  0  0
  2  1  1  6
  2  3  1  0
  4  3  1  0
  5  4  1  0
  6  5  2  0
  7  2  1  0
  7  8  2  0
  9  5  1  0
 11 10  1  1
 11 12  1  0
 11 13  1  0
 13 14  1  6
 14  7  1  0
 15 13  1  0
 16 15  2  0
 17 15  1  0
 18 17  1  0
 18 21  1  0
 19 20  1  0
 18 19  1  6
 21 22  1  0
 23 21  2  0
M  END
$$$$
