EVC.pdb
     RDKit          3D

 23 22  0  0  1  0  0  0  0  0999 V2000
   10.3425  -17.0571   16.4519 N   0  0  0  0  0  0  0  0  0  0  0  0
    9.4799  -17.3427   17.5544 C   0  0  1  0  0  0  0  0  0  0  0  0
    9.6741  -18.7304   18.0624 C   0  0  0  0  0  0  0  0  0  0  0  0
    9.5038  -19.8155   17.0460 C   0  0  0  0  0  0  0  0  0  0  0  0
    9.6712  -21.1801   17.5615 C   0  0  0  0  0  0  0  0  0  0  0  0
    8.7142  -21.9747   17.7266 O   0  0  0  0  0  0  0  0  0  0  0  0
    9.5679  -16.3403   18.6393 C   0  0  0  0  0  0  0  0  0  0  0  0
   10.7216  -15.9754   19.0023 O   0  0  0  0  0  0  0  0  0  0  0  0
   10.9334  -21.7005   17.9115 O   0  0  0  0  0  0  0  0  0  0  0  0
    7.6426  -12.9272   21.6288 C   0  0  0  0  0  0  0  0  0  0  0  0
    7.5303  -13.7934   20.4009 C   0  0  1  0  0  0  0  0  0  0  0  0
    7.4740  -12.9785   19.1307 C   0  0  0  0  0  0  0  0  0  0  0  0
    8.6012  -14.8618   20.3563 C   0  0  2  0  0  0  0  0  0  0  0  0
    8.4380  -15.7786   19.2806 N   0  0  0  0  0  0  0  0  0  0  0  0
    8.5815  -15.5608   21.6675 C   0  0  0  0  0  0  0  0  0  0  0  0
    7.6484  -16.3281   22.0179 O   0  0  0  0  0  0  0  0  0  0  0  0
    9.6467  -15.3783   22.5922 N   0  0  0  0  0  0  0  0  0  0  0  0
    9.9470  -16.3912   23.5851 C   0  0  1  0  0  0  0  0  0  0  0  0
   10.2331  -17.6750   22.8301 C   0  0  0  0  0  0  0  0  0  0  0  0
   10.6164  -18.9720   24.0525 S   0  0  0  0  0  0  0  0  0  0  0  0
   11.0952  -15.9861   24.4339 C   0  0  0  0  0  0  0  0  0  0  0  0
   11.1229  -16.3391   25.7704 O   0  0  0  0  0  0  0  0  0  0  0  0
   12.0585  -15.3242   23.9768 O   0  0  0  0  0  0  0  0  0  0  0  0
  2  1  1  6
  2  3  1  0
  4  3  1  0
  5  4  1  0
  6  5  2  0
  7  2  1  0
  7  8  2  0
  9  5  1  0
 11 10  1  1
 11 12  1  0
 11 13  1  0
 13 14  1  6
 14  7  1  0
 15 13  1  0
 16 15  2  0
 17 15  1  0
 18 17  1  0
 18 21  1  0
 19 20  1  0
 18 19  1  6
 21 22  1  0
 23 21  2  0
M  END
$$$$
