EVC.pdb
     RDKit          3D

 23 22  0  0  1  0  0  0  0  0999 V2000
    8.4499  -15.4371   20.8516 N   0  0  0  0  0  0  0  0  0  0  0  0
    7.8282  -15.9197   22.0440 C   0  0  1  0  0  0  0  0  0  0  0  0
    7.9572  -17.3988   22.1742 C   0  0  0  0  0  0  0  0  0  0  0  0
    7.2383  -18.1996   21.1343 C   0  0  0  0  0  0  0  0  0  0  0  0
    7.3211  -19.6555   21.3055 C   0  0  0  0  0  0  0  0  0  0  0  0
    8.3657  -20.3151   21.0857 O   0  0  0  0  0  0  0  0  0  0  0  0
    8.2818  -15.2164   23.2644 C   0  0  0  0  0  0  0  0  0  0  0  0
    9.5273  -15.1288   23.4566 O   0  0  0  0  0  0  0  0  0  0  0  0
    6.2205  -20.4245   21.7338 O   0  0  0  0  0  0  0  0  0  0  0  0
    7.4517  -12.4587   27.2971 C   0  0  0  0  0  0  0  0  0  0  0  0
    6.8946  -13.1063   26.0557 C   0  0  1  0  0  0  0  0  0  0  0  0
    6.2810  -12.0990   25.1128 C   0  0  0  0  0  0  0  0  0  0  0  0
    7.9099  -13.9961   25.3717 C   0  0  2  0  0  0  0  0  0  0  0  0
    7.4001  -14.6454   24.2130 N   0  0  0  0  0  0  0  0  0  0  0  0
    8.3809  -14.9825   26.3785 C   0  0  0  0  0  0  0  0  0  0  0  0
    7.7279  -16.0142   26.6806 O   0  0  0  0  0  0  0  0  0  0  0  0
    9.6189  -14.7844   27.0501 N   0  0  0  0  0  0  0  0  0  0  0  0
   10.0952  -15.7468   28.0242 C   0  0  1  0  0  0  0  0  0  0  0  0
   11.3176  -16.4128   27.4222 C   0  0  0  0  0  0  0  0  0  0  0  0
   11.9961  -17.5659   28.6604 S   0  0  0  0  0  0  0  0  0  0  0  0
   10.4091  -15.0900   29.3176 C   0  0  0  0  0  0  0  0  0  0  0  0
   10.3745  -15.8230   30.4894 O   0  0  0  0  0  0  0  0  0  0  0  0
   10.7101  -13.8737   29.3894 O   0  0  0  0  0  0  0  0  0  0  0  0
  2  1  1  6
  2  3  1  0
  4  3  1  0
  5  4  1  0
  6  5  2  0
  7  2  1  0
  7  8  2  0
  9  5  1  0
 11 10  1  1
 11 12  1  0
 11 13  1  0
 13 14  1  6
 14  7  1  0
 15 13  1  0
 16 15  2  0
 17 15  1  0
 18 17  1  0
 18 21  1  0
 19 20  1  0
 18 19  1  6
 21 22  1  0
 23 21  2  0
M  END
$$$$
