EVC.pdb
     RDKit          3D

 23 22  0  0  1  0  0  0  0  0999 V2000
    9.0575  -15.2584   20.7084 N   0  0  0  0  0  0  0  0  0  0  0  0
    8.2636  -15.7694   21.7806 C   0  0  1  0  0  0  0  0  0  0  0  0
    8.2860  -17.2590   21.8230 C   0  0  0  0  0  0  0  0  0  0  0  0
    9.5934  -17.8917   21.4621 C   0  0  0  0  0  0  0  0  0  0  0  0
    9.8662  -19.1732   22.1245 C   0  0  0  0  0  0  0  0  0  0  0  0
   10.9979  -19.7151   22.1335 O   0  0  0  0  0  0  0  0  0  0  0  0
    8.6024  -15.1746   23.0926 C   0  0  0  0  0  0  0  0  0  0  0  0
    9.8207  -14.9351   23.3258 O   0  0  0  0  0  0  0  0  0  0  0  0
    8.8647  -19.8942   22.8054 O   0  0  0  0  0  0  0  0  0  0  0  0
    7.3562  -12.7786   27.2241 C   0  0  0  0  0  0  0  0  0  0  0  0
    6.9303  -13.3993   25.9187 C   0  0  1  0  0  0  0  0  0  0  0  0
    6.3591  -12.3803   24.9617 C   0  0  0  0  0  0  0  0  0  0  0  0
    8.0327  -14.2264   25.2936 C   0  0  2  0  0  0  0  0  0  0  0  0
    7.6411  -14.8655   24.0844 N   0  0  0  0  0  0  0  0  0  0  0  0
    8.4699  -15.2185   26.3101 C   0  0  0  0  0  0  0  0  0  0  0  0
    8.1741  -16.4392   26.2437 O   0  0  0  0  0  0  0  0  0  0  0  0
    9.2581  -14.8063   27.4200 N   0  0  0  0  0  0  0  0  0  0  0  0
    9.9306  -15.7831   28.2541 C   0  0  1  0  0  0  0  0  0  0  0  0
   11.0103  -16.4203   27.4006 C   0  0  0  0  0  0  0  0  0  0  0  0
   12.2384  -15.1350   26.9967 S   0  0  0  0  0  0  0  0  0  0  0  0
   10.4957  -15.1501   29.4717 C   0  0  0  0  0  0  0  0  0  0  0  0
   11.0811  -15.9346   30.4482 O   0  0  0  0  0  0  0  0  0  0  0  0
   10.4620  -13.9086   29.6518 O   0  0  0  0  0  0  0  0  0  0  0  0
  2  1  1  6
  2  3  1  0
  4  3  1  0
  5  4  1  0
  6  5  2  0
  7  2  1  0
  7  8  2  0
  9  5  1  0
 11 10  1  1
 11 12  1  0
 11 13  1  0
 13 14  1  6
 14  7  1  0
 15 13  1  0
 16 15  2  0
 17 15  1  0
 18 17  1  0
 18 21  1  0
 19 20  1  0
 18 19  1  6
 21 22  1  0
 23 21  2  0
M  END
$$$$
