EVC.pdb
     RDKit          3D

 23 22  0  0  1  0  0  0  0  0999 V2000
    9.0878  -17.6367   16.5239 N   0  0  0  0  0  0  0  0  0  0  0  0
    8.1764  -17.3663   17.5904 C   0  0  1  0  0  0  0  0  0  0  0  0
    7.5052  -18.6072   18.0711 C   0  0  0  0  0  0  0  0  0  0  0  0
    6.9099  -19.4697   17.0028 C   0  0  0  0  0  0  0  0  0  0  0  0
    6.2670  -20.6987   17.4844 C   0  0  0  0  0  0  0  0  0  0  0  0
    5.1501  -21.0965   17.0736 O   0  0  0  0  0  0  0  0  0  0  0  0
    8.7878  -16.6036   18.7014 C   0  0  0  0  0  0  0  0  0  0  0  0
   10.0346  -16.7186   18.8694 O   0  0  0  0  0  0  0  0  0  0  0  0
    6.8656  -21.5287   18.4535 O   0  0  0  0  0  0  0  0  0  0  0  0
    7.7314  -12.7947   19.8095 C   0  0  0  0  0  0  0  0  0  0  0  0
    7.9464  -13.7432   20.9604 C   0  0  1  0  0  0  0  0  0  0  0  0
    6.6563  -14.0848   21.6671 C   0  0  0  0  0  0  0  0  0  0  0  0
    8.7240  -14.9742   20.5478 C   0  0  2  0  0  0  0  0  0  0  0  0
    8.0536  -15.7634   19.5722 N   0  0  0  0  0  0  0  0  0  0  0  0
    8.9954  -15.7581   21.7809 C   0  0  0  0  0  0  0  0  0  0  0  0
    8.1609  -16.5559   22.2799 O   0  0  0  0  0  0  0  0  0  0  0  0
   10.2419  -15.6261   22.4532 N   0  0  0  0  0  0  0  0  0  0  0  0
   10.5101  -16.3701   23.6683 C   0  0  1  0  0  0  0  0  0  0  0  0
   11.8697  -17.0194   23.4945 C   0  0  0  0  0  0  0  0  0  0  0  0
   11.7704  -18.1592   22.0753 S   0  0  0  0  0  0  0  0  0  0  0  0
   10.4731  -15.4842   24.8585 C   0  0  0  0  0  0  0  0  0  0  0  0
   10.6180  -16.0228   26.1237 O   0  0  0  0  0  0  0  0  0  0  0  0
   10.3127  -14.2435   24.7587 O   0  0  0  0  0  0  0  0  0  0  0  0
  2  1  1  6
  2  3  1  0
  4  3  1  0
  5  4  1  0
  6  5  2  0
  7  2  1  0
  7  8  2  0
  9  5  1  0
 11 10  1  6
 11 12  1  0
 11 13  1  0
 13 14  1  6
 14  7  1  0
 15 13  1  0
 16 15  2  0
 17 15  1  0
 18 17  1  0
 18 21  1  0
 19 20  1  0
 18 19  1  6
 21 22  1  0
 23 21  2  0
M  END
$$$$
