EVC.pdb
     RDKit          3D

 23 22  0  0  1  0  0  0  0  0999 V2000
    9.2792  -17.9170   16.7699 N   0  0  0  0  0  0  0  0  0  0  0  0
    8.1799  -17.3513   17.4858 C   0  0  1  0  0  0  0  0  0  0  0  0
    7.1216  -18.3636   17.7627 C   0  0  0  0  0  0  0  0  0  0  0  0
    7.5985  -19.7783   17.8670 C   0  0  0  0  0  0  0  0  0  0  0  0
    6.7713  -20.6512   18.7092 C   0  0  0  0  0  0  0  0  0  0  0  0
    5.5569  -20.8734   18.4846 O   0  0  0  0  0  0  0  0  0  0  0  0
    8.5901  -16.6319   18.7121 C   0  0  0  0  0  0  0  0  0  0  0  0
    9.6951  -16.9534   19.2332 O   0  0  0  0  0  0  0  0  0  0  0  0
    7.2885  -21.3095   19.8431 O   0  0  0  0  0  0  0  0  0  0  0  0
    7.9909  -12.9833   22.0275 C   0  0  0  0  0  0  0  0  0  0  0  0
    7.4717  -13.6906   20.8024 C   0  0  1  0  0  0  0  0  0  0  0  0
    7.2449  -12.7424   19.6491 C   0  0  0  0  0  0  0  0  0  0  0  0
    8.3336  -14.8737   20.4183 C   0  0  2  0  0  0  0  0  0  0  0  0
    7.8154  -15.6156   19.3205 N   0  0  0  0  0  0  0  0  0  0  0  0
    8.4746  -15.7272   21.6266 C   0  0  0  0  0  0  0  0  0  0  0  0
    7.5065  -16.3390   22.1467 O   0  0  0  0  0  0  0  0  0  0  0  0
    9.7440  -15.8825   22.2492 N   0  0  0  0  0  0  0  0  0  0  0  0
    9.8733  -16.6133   23.4947 C   0  0  1  0  0  0  0  0  0  0  0  0
   10.2074  -18.0470   23.1299 C   0  0  0  0  0  0  0  0  0  0  0  0
   11.7551  -18.0354   22.1669 S   0  0  0  0  0  0  0  0  0  0  0  0
   10.9148  -16.0112   24.3640 C   0  0  0  0  0  0  0  0  0  0  0  0
   11.6449  -14.9263   23.9149 O   0  0  0  0  0  0  0  0  0  0  0  0
   11.1622  -16.4569   25.5108 O   0  0  0  0  0  0  0  0  0  0  0  0
  2  1  1  1
  2  3  1  0
  4  3  1  0
  5  4  1  0
  6  5  2  0
  7  2  1  0
  7  8  2  0
  9  5  1  0
 11 10  1  1
 11 12  1  0
 11 13  1  0
 13 14  1  6
 14  7  1  0
 15 13  1  0
 16 15  2  0
 17 15  1  0
 18 17  1  0
 18 21  1  0
 19 20  1  0
 18 19  1  6
 21 22  1  0
 23 21  2  0
M  END
$$$$
