EVC.pdb
     RDKit          3D

 23 22  0  0  1  0  0  0  0  0999 V2000
    8.9671  -17.8828   17.0113 N   0  0  0  0  0  0  0  0  0  0  0  0
    8.2275  -17.8406   18.2329 C   0  0  1  0  0  0  0  0  0  0  0  0
    8.1839  -19.1736   18.8982 C   0  0  0  0  0  0  0  0  0  0  0  0
    7.5799  -20.2765   18.0866 C   0  0  0  0  0  0  0  0  0  0  0  0
    7.4171  -21.5514   18.7963 C   0  0  0  0  0  0  0  0  0  0  0  0
    6.6153  -21.7106   19.7482 O   0  0  0  0  0  0  0  0  0  0  0  0
    8.6846  -16.7779   19.1555 C   0  0  0  0  0  0  0  0  0  0  0  0
    9.9064  -16.4590   19.1163 O   0  0  0  0  0  0  0  0  0  0  0  0
    8.1584  -22.7004   18.4547 O   0  0  0  0  0  0  0  0  0  0  0  0
    7.9981  -12.8169   21.9139 C   0  0  0  0  0  0  0  0  0  0  0  0
    7.4791  -13.8468   20.9440 C   0  0  1  0  0  0  0  0  0  0  0  0
    7.2530  -13.2707   19.5665 C   0  0  0  0  0  0  0  0  0  0  0  0
    8.3408  -15.0906   20.9171 C   0  0  2  0  0  0  0  0  0  0  0  0
    7.8311  -16.1109   20.0665 N   0  0  0  0  0  0  0  0  0  0  0  0
    8.4665  -15.5702   22.3180 C   0  0  0  0  0  0  0  0  0  0  0  0
    7.5269  -16.1378   22.9320 O   0  0  0  0  0  0  0  0  0  0  0  0
    9.6873  -15.3971   23.0271 N   0  0  0  0  0  0  0  0  0  0  0  0
   10.1759  -16.4272   23.9227 C   0  0  1  0  0  0  0  0  0  0  0  0
   10.2512  -17.7100   23.1171 C   0  0  0  0  0  0  0  0  0  0  0  0
    8.8452  -18.7628   23.6048 S   0  0  0  0  0  0  0  0  0  0  0  0
   11.4956  -16.0595   24.4937 C   0  0  0  0  0  0  0  0  0  0  0  0
   12.4257  -15.4004   23.7113 O   0  0  0  0  0  0  0  0  0  0  0  0
   11.8046  -16.3284   25.6799 O   0  0  0  0  0  0  0  0  0  0  0  0
  2  1  1  6
  2  3  1  0
  4  3  1  0
  5  4  1  0
  6  5  2  0
  7  2  1  0
  7  8  2  0
  9  5  1  0
 11 10  1  1
 11 12  1  0
 11 13  1  0
 13 14  1  6
 14  7  1  0
 15 13  1  0
 16 15  2  0
 17 15  1  0
 18 17  1  0
 18 21  1  0
 19 20  1  0
 18 19  1  6
 21 22  1  0
 23 21  2  0
M  END
$$$$
