EVC.pdb
     RDKit          3D

 23 22  0  0  1  0  0  0  0  0999 V2000
    8.3945  -17.7118   16.4499 N   0  0  0  0  0  0  0  0  0  0  0  0
    7.6733  -17.3833   17.6386 C   0  0  1  0  0  0  0  0  0  0  0  0
    7.0996  -18.5953   18.2891 C   0  0  0  0  0  0  0  0  0  0  0  0
    7.8039  -19.8805   17.9859 C   0  0  0  0  0  0  0  0  0  0  0  0
    8.3138  -20.6003   19.1596 C   0  0  0  0  0  0  0  0  0  0  0  0
    9.5058  -20.9762   19.2710 O   0  0  0  0  0  0  0  0  0  0  0  0
    8.4578  -16.5652   18.5899 C   0  0  0  0  0  0  0  0  0  0  0  0
    9.7156  -16.5821   18.4724 O   0  0  0  0  0  0  0  0  0  0  0  0
    7.4913  -20.9238   20.2574 O   0  0  0  0  0  0  0  0  0  0  0  0
    7.6271  -12.8076   19.7816 C   0  0  0  0  0  0  0  0  0  0  0  0
    8.0055  -13.7101   20.9274 C   0  0  1  0  0  0  0  0  0  0  0  0
    6.8368  -13.9933   21.8409 C   0  0  0  0  0  0  0  0  0  0  0  0
    8.6914  -14.9741   20.4559 C   0  0  2  0  0  0  0  0  0  0  0  0
    7.8753  -15.7761   19.6103 N   0  0  0  0  0  0  0  0  0  0  0  0
    9.1133  -15.7248   21.6670 C   0  0  0  0  0  0  0  0  0  0  0  0
    8.3573  -16.5301   22.2686 O   0  0  0  0  0  0  0  0  0  0  0  0
   10.4214  -15.5505   22.1977 N   0  0  0  0  0  0  0  0  0  0  0  0
   10.8858  -16.3637   23.3046 C   0  0  1  0  0  0  0  0  0  0  0  0
   10.8350  -17.8068   22.8409 C   0  0  0  0  0  0  0  0  0  0  0  0
   11.9132  -17.9655   21.3795 S   0  0  0  0  0  0  0  0  0  0  0  0
   12.2543  -15.9694   23.7223 C   0  0  0  0  0  0  0  0  0  0  0  0
   12.8533  -16.5951   24.7999 O   0  0  0  0  0  0  0  0  0  0  0  0
   12.8995  -15.0743   23.1245 O   0  0  0  0  0  0  0  0  0  0  0  0
  2  1  1  6
  2  3  1  0
  4  3  1  0
  5  4  1  0
  6  5  2  0
  7  2  1  0
  7  8  2  0
  9  5  1  0
 11 10  1  6
 11 12  1  0
 11 13  1  0
 13 14  1  1
 14  7  1  0
 15 13  1  0
 16 15  2  0
 17 15  1  0
 18 17  1  0
 18 21  1  0
 19 20  1  0
 18 19  1  6
 21 22  1  0
 23 21  2  0
M  END
$$$$
