EVC.pdb
     RDKit          3D

 23 22  0  0  1  0  0  0  0  0999 V2000
    8.6817  -14.9237   20.4902 N   0  0  0  0  0  0  0  0  0  0  0  0
    8.4410  -15.7581   21.6246 C   0  0  1  0  0  0  0  0  0  0  0  0
    9.0853  -17.0937   21.4743 C   0  0  0  0  0  0  0  0  0  0  0  0
    8.1916  -18.2686   21.7202 C   0  0  0  0  0  0  0  0  0  0  0  0
    8.8728  -19.4755   22.2049 C   0  0  0  0  0  0  0  0  0  0  0  0
    9.9865  -19.8574   21.7709 O   0  0  0  0  0  0  0  0  0  0  0  0
    8.7973  -15.1146   22.9086 C   0  0  0  0  0  0  0  0  0  0  0  0
    9.9944  -14.7399   23.0593 O   0  0  0  0  0  0  0  0  0  0  0  0
    8.3178  -20.3005   23.2038 O   0  0  0  0  0  0  0  0  0  0  0  0
    7.6203  -12.9677   27.1972 C   0  0  0  0  0  0  0  0  0  0  0  0
    7.1908  -13.4990   25.8541 C   0  0  1  0  0  0  0  0  0  0  0  0
    6.6149  -12.4183   24.9703 C   0  0  0  0  0  0  0  0  0  0  0  0
    8.2923  -14.2800   25.1706 C   0  0  2  0  0  0  0  0  0  0  0  0
    7.8750  -14.9017   23.9608 N   0  0  0  0  0  0  0  0  0  0  0  0
    8.7927  -15.2826   26.1467 C   0  0  0  0  0  0  0  0  0  0  0  0
    8.1118  -16.2730   26.5176 O   0  0  0  0  0  0  0  0  0  0  0  0
   10.0932  -15.1490   26.7070 N   0  0  0  0  0  0  0  0  0  0  0  0
   10.5914  -16.1198   27.6617 C   0  0  1  0  0  0  0  0  0  0  0  0
   12.1047  -16.0206   27.6398 C   0  0  0  0  0  0  0  0  0  0  0  0
   12.7572  -17.0961   28.9591 S   0  0  0  0  0  0  0  0  0  0  0  0
   10.0445  -15.8672   29.0181 C   0  0  0  0  0  0  0  0  0  0  0  0
    9.6900  -16.9306   29.8276 O   0  0  0  0  0  0  0  0  0  0  0  0
    9.8888  -14.7053   29.4661 O   0  0  0  0  0  0  0  0  0  0  0  0
  2  1  1  6
  2  3  1  0
  4  3  1  0
  5  4  1  0
  6  5  2  0
  7  2  1  0
  7  8  2  0
  9  5  1  0
 11 10  1  1
 11 12  1  0
 11 13  1  0
 13 14  1  6
 14  7  1  0
 15 13  1  0
 16 15  2  0
 17 15  1  0
 18 17  1  0
 18 21  1  0
 19 20  1  0
 18 19  1  1
 21 22  1  0
 23 21  2  0
M  END
$$$$
