EVC.pdb
     RDKit          3D

 23 22  0  0  1  0  0  0  0  0999 V2000
    7.8846  -15.0672   20.8314 N   0  0  0  0  0  0  0  0  0  0  0  0
    7.2659  -15.5910   22.0078 C   0  0  1  0  0  0  0  0  0  0  0  0
    7.2712  -17.0814   22.0174 C   0  0  0  0  0  0  0  0  0  0  0  0
    6.6755  -17.7175   23.2340 C   0  0  0  0  0  0  0  0  0  0  0  0
    6.1010  -19.0513   23.0185 C   0  0  0  0  0  0  0  0  0  0  0  0
    4.9103  -19.2388   22.6698 O   0  0  0  0  0  0  0  0  0  0  0  0
    7.8211  -15.0290   23.2589 C   0  0  0  0  0  0  0  0  0  0  0  0
    9.0727  -15.0908   23.4196 O   0  0  0  0  0  0  0  0  0  0  0  0
    6.8549  -20.2297   23.1900 O   0  0  0  0  0  0  0  0  0  0  0  0
    7.4212  -12.4414   27.4593 C   0  0  0  0  0  0  0  0  0  0  0  0
    6.7536  -12.9600   26.2119 C   0  0  1  0  0  0  0  0  0  0  0  0
    6.2420  -11.8441   25.3323 C   0  0  0  0  0  0  0  0  0  0  0  0
    7.6318  -13.9351   25.4580 C   0  0  2  0  0  0  0  0  0  0  0  0
    7.0290  -14.4338   24.2697 N   0  0  0  0  0  0  0  0  0  0  0  0
    7.9701  -15.0385   26.3943 C   0  0  0  0  0  0  0  0  0  0  0  0
    7.2578  -16.0671   26.5227 O   0  0  0  0  0  0  0  0  0  0  0  0
    9.1424  -14.9627   27.1962 N   0  0  0  0  0  0  0  0  0  0  0  0
    9.5346  -16.0737   28.0412 C   0  0  1  0  0  0  0  0  0  0  0  0
   10.2272  -17.0832   27.1459 C   0  0  0  0  0  0  0  0  0  0  0  0
   10.3459  -18.6560   28.0597 S   0  0  0  0  0  0  0  0  0  0  0  0
   10.4179  -15.6220   29.1450 C   0  0  0  0  0  0  0  0  0  0  0  0
   10.7841  -16.5079   30.1414 O   0  0  0  0  0  0  0  0  0  0  0  0
   10.8527  -14.4465   29.2094 O   0  0  0  0  0  0  0  0  0  0  0  0
  2  1  1  6
  2  3  1  0
  4  3  1  0
  5  4  1  0
  6  5  2  0
  7  2  1  0
  7  8  2  0
  9  5  1  0
 11 10  1  1
 11 12  1  0
 11 13  1  0
 13 14  1  6
 14  7  1  0
 15 13  1  0
 16 15  2  0
 17 15  1  0
 18 17  1  0
 18 21  1  0
 19 20  1  0
 18 19  1  6
 21 22  1  0
 23 21  2  0
M  END
$$$$
