EVC.pdb
     RDKit          3D

 23 22  0  0  1  0  0  0  0  0999 V2000
    8.9807  -15.1988   20.6234 N   0  0  0  0  0  0  0  0  0  0  0  0
    8.3377  -15.8117   21.7424 C   0  0  1  0  0  0  0  0  0  0  0  0
    8.5871  -17.2804   21.7861 C   0  0  0  0  0  0  0  0  0  0  0  0
    8.0684  -18.0546   20.6152 C   0  0  0  0  0  0  0  0  0  0  0  0
    8.2925  -19.5041   20.6814 C   0  0  0  0  0  0  0  0  0  0  0  0
    7.8028  -20.2352   21.5760 O   0  0  0  0  0  0  0  0  0  0  0  0
    8.6596  -15.1584   23.0304 C   0  0  0  0  0  0  0  0  0  0  0  0
    9.8803  -15.0392   23.3335 O   0  0  0  0  0  0  0  0  0  0  0  0
    9.0828  -20.1854   19.7339 O   0  0  0  0  0  0  0  0  0  0  0  0
    7.5527  -12.5584   27.0621 C   0  0  0  0  0  0  0  0  0  0  0  0
    7.1210  -13.0886   25.7192 C   0  0  1  0  0  0  0  0  0  0  0  0
    6.8915  -11.9832   24.7162 C   0  0  0  0  0  0  0  0  0  0  0  0
    8.0584  -14.1568   25.1992 C   0  0  2  0  0  0  0  0  0  0  0  0
    7.6800  -14.6676   23.9264 N   0  0  0  0  0  0  0  0  0  0  0  0
    8.1067  -15.2358   26.2199 C   0  0  0  0  0  0  0  0  0  0  0  0
    7.4668  -16.3126   26.1056 O   0  0  0  0  0  0  0  0  0  0  0  0
    8.9001  -15.0793   27.3900 N   0  0  0  0  0  0  0  0  0  0  0  0
    9.6921  -16.1813   27.9005 C   0  0  1  0  0  0  0  0  0  0  0  0
   10.6890  -16.5445   26.8167 C   0  0  0  0  0  0  0  0  0  0  0  0
   11.7178  -17.9158   27.4367 S   0  0  0  0  0  0  0  0  0  0  0  0
   10.3698  -15.8123   29.1683 C   0  0  0  0  0  0  0  0  0  0  0  0
   10.4552  -16.7318   30.1973 O   0  0  0  0  0  0  0  0  0  0  0  0
   10.8771  -14.6781   29.3449 O   0  0  0  0  0  0  0  0  0  0  0  0
  2  1  1  6
  2  3  1  0
  4  3  1  0
  5  4  1  0
  6  5  2  0
  7  2  1  0
  7  8  2  0
  9  5  1  0
 11 10  1  1
 11 12  1  0
 11 13  1  0
 13 14  1  6
 14  7  1  0
 15 13  1  0
 16 15  2  0
 17 15  1  0
 18 17  1  0
 18 21  1  0
 19 20  1  0
 18 19  1  6
 21 22  1  0
 23 21  2  0
M  END
$$$$
