EVC.pdb
     RDKit          3D

 23 22  0  0  1  0  0  0  0  0999 V2000
    8.3160  -14.7827   20.3983 N   0  0  0  0  0  0  0  0  0  0  0  0
    7.9308  -15.4503   21.6012 C   0  0  1  0  0  0  0  0  0  0  0  0
    8.3280  -16.8868   21.5869 C   0  0  0  0  0  0  0  0  0  0  0  0
    7.7913  -17.6897   20.4437 C   0  0  0  0  0  0  0  0  0  0  0  0
    8.1347  -19.1168   20.4727 C   0  0  0  0  0  0  0  0  0  0  0  0
    7.7134  -19.9425   19.6270 O   0  0  0  0  0  0  0  0  0  0  0  0
    8.3954  -14.7613   22.8255 C   0  0  0  0  0  0  0  0  0  0  0  0
    9.6128  -14.4280   22.8795 O   0  0  0  0  0  0  0  0  0  0  0  0
    8.9720  -19.6673   21.4639 O   0  0  0  0  0  0  0  0  0  0  0  0
    7.7799  -12.5964   27.1976 C   0  0  0  0  0  0  0  0  0  0  0  0
    7.1183  -13.2493   26.0114 C   0  0  1  0  0  0  0  0  0  0  0  0
    6.2896  -12.2729   25.2111 C   0  0  0  0  0  0  0  0  0  0  0  0
    8.1067  -14.0091   25.1535 C   0  0  2  0  0  0  0  0  0  0  0  0
    7.5536  -14.4617   23.9233 N   0  0  0  0  0  0  0  0  0  0  0  0
    8.6140  -15.1451   25.9663 C   0  0  0  0  0  0  0  0  0  0  0  0
    8.6523  -16.3272   25.5382 O   0  0  0  0  0  0  0  0  0  0  0  0
    9.0848  -14.9240   27.2901 N   0  0  0  0  0  0  0  0  0  0  0  0
   10.2121  -15.6731   27.8098 C   0  0  1  0  0  0  0  0  0  0  0  0
   11.3963  -15.3618   26.9149 C   0  0  0  0  0  0  0  0  0  0  0  0
   12.8039  -16.3772   27.4724 S   0  0  0  0  0  0  0  0  0  0  0  0
   10.4852  -15.3181   29.2248 C   0  0  0  0  0  0  0  0  0  0  0  0
   10.8442  -16.3034   30.1259 O   0  0  0  0  0  0  0  0  0  0  0  0
   10.4014  -14.1374   29.6417 O   0  0  0  0  0  0  0  0  0  0  0  0
  2  1  1  6
  2  3  1  0
  4  3  1  0
  5  4  1  0
  6  5  2  0
  7  2  1  0
  7  8  2  0
  9  5  1  0
 11 10  1  1
 11 12  1  0
 11 13  1  0
 13 14  1  6
 14  7  1  0
 15 13  1  0
 16 15  2  0
 17 15  1  0
 18 17  1  0
 18 21  1  0
 19 20  1  0
 18 19  1  6
 21 22  1  0
 23 21  2  0
M  END
$$$$
