HML.pdb
     RDKit          3D

 27 27  0  0  1  0  0  0  0  0999 V2000
    9.3901  -18.4123   21.2888 N   0  0  0  0  0  0  0  0  0  0  0  0
   10.4412  -17.4663   21.4944 C   0  0  1  0  0  0  0  0  0  0  0  0
   10.8412  -16.8546   20.1645 C   0  0  0  0  0  0  0  0  0  0  0  0
   11.0740  -17.9011   19.1433 C   0  0  0  0  0  0  0  0  0  0  0  0
   12.1771  -18.6874   19.0083 C   0  0  0  0  0  0  0  0  0  0  0  0
   11.9410  -19.4857   17.9535 N   0  0  0  0  0  0  0  0  0  0  0  0
   10.7239  -19.2129   17.4360 C   0  0  0  0  0  0  0  0  0  0  0  0
   10.1958  -18.2273   18.1832 N   0  0  0  0  0  0  0  0  0  0  0  0
   10.1254  -16.4340   22.5040 C   0  0  0  0  0  0  0  0  0  0  0  0
   10.9707  -15.5585   22.7573 O   0  0  0  0  0  0  0  0  0  0  0  0
    6.3584  -11.5981   26.2660 C   0  0  0  0  0  0  0  0  0  0  0  0
    7.0482  -12.7229   24.9979 S   0  0  0  0  0  0  0  0  0  0  0  0
    6.6560  -14.4040   25.5052 C   0  0  0  0  0  0  0  0  0  0  0  0
    7.0494  -15.4215   24.4862 C   0  0  0  0  0  0  0  0  0  0  0  0
    8.4816  -15.3779   24.0861 C   0  0  2  0  0  0  0  0  0  0  0  0
    8.8788  -16.4223   23.1905 N   0  0  0  0  0  0  0  0  0  0  0  0
    9.3812  -15.2574   25.2700 C   0  0  0  0  0  0  0  0  0  0  0  0
   10.0168  -14.2159   25.5684 O   0  0  0  0  0  0  0  0  0  0  0  0
   10.0113  -14.6001   29.6259 C   0  0  0  0  0  0  0  0  0  0  0  0
    9.9984  -14.8212   28.1225 C   0  0  1  0  0  0  0  0  0  0  0  0
    9.9447  -13.4232   27.5183 C   0  0  0  0  0  0  0  0  0  0  0  0
   11.2208  -15.5644   27.6651 C   0  0  0  0  0  0  0  0  0  0  0  0
   10.8262  -16.6639   26.7216 C   0  0  2  0  0  0  0  0  0  0  0  0
    9.5315  -16.3796   26.1135 N   0  0  0  0  0  0  0  0  0  0  0  0
   10.7593  -17.9893   27.3120 C   0  0  0  0  0  0  0  0  0  0  0  0
   11.7929  -18.4563   27.9103 O   0  0  0  0  0  0  0  0  0  0  0  0
    9.6681  -18.8276   27.2987 O   0  0  0  0  0  0  0  0  0  0  0  0
  2  9  1  0
  2  3  1  0
  2  1  1  6
  3  4  1  0
  4  5  2  0
  4  8  1  0
  5  6  1  0
  6  7  1  0
  8  7  2  0
  9 10  2  0
 11 12  1  0
 13 12  1  0
 14 13  1  0
 15 14  1  1
 15 17  1  0
 16 15  1  0
 16  9  1  0
 17 24  1  0
 17 18  2  0
 20 19  1  1
 20 21  1  0
 22 20  1  0
 23 22  1  1
 24 23  1  0
 25 27  1  0
 25 23  1  0
 26 25  2  0
M  END
$$$$
