HML.pdb
     RDKit          3D

 27 27  0  0  1  0  0  0  0  0999 V2000
    8.9306  -17.3447   19.6305 N   0  0  0  0  0  0  0  0  0  0  0  0
    9.9989  -17.1803   20.5652 C   0  0  1  0  0  0  0  0  0  0  0  0
   11.2532  -16.7436   19.8310 C   0  0  0  0  0  0  0  0  0  0  0  0
   11.1250  -16.9688   18.3733 C   0  0  0  0  0  0  0  0  0  0  0  0
   10.0024  -16.8314   17.6156 C   0  0  0  0  0  0  0  0  0  0  0  0
   10.3609  -17.1352   16.3567 N   0  0  0  0  0  0  0  0  0  0  0  0
   11.6722  -17.4553   16.3185 C   0  0  0  0  0  0  0  0  0  0  0  0
   12.1352  -17.3485   17.5766 N   0  0  0  0  0  0  0  0  0  0  0  0
    9.6743  -16.2769   21.6890 C   0  0  0  0  0  0  0  0  0  0  0  0
   10.1417  -15.1250   21.6921 O   0  0  0  0  0  0  0  0  0  0  0  0
    7.0522  -12.0018   26.0293 C   0  0  0  0  0  0  0  0  0  0  0  0
    6.1111  -13.5254   25.6523 S   0  0  0  0  0  0  0  0  0  0  0  0
    7.2724  -14.8985   25.7114 C   0  0  0  0  0  0  0  0  0  0  0  0
    7.3699  -15.6288   24.4130 C   0  0  0  0  0  0  0  0  0  0  0  0
    8.7535  -15.9999   24.0119 C   0  0  2  0  0  0  0  0  0  0  0  0
    8.8419  -16.6971   22.7642 N   0  0  0  0  0  0  0  0  0  0  0  0
    9.4800  -16.6931   25.1150 C   0  0  0  0  0  0  0  0  0  0  0  0
    9.5728  -17.9412   25.2221 O   0  0  0  0  0  0  0  0  0  0  0  0
   11.3467  -13.7920   29.7334 C   0  0  0  0  0  0  0  0  0  0  0  0
   10.6771  -14.5846   28.6232 C   0  0  1  0  0  0  0  0  0  0  0  0
   10.1511  -13.5355   27.6511 C   0  0  0  0  0  0  0  0  0  0  0  0
   11.6458  -15.5134   27.9488 C   0  0  0  0  0  0  0  0  0  0  0  0
   10.8961  -16.5412   27.1511 C   0  0  2  0  0  0  0  0  0  0  0  0
   10.1066  -15.9035   26.1038 N   0  0  0  0  0  0  0  0  0  0  0  0
   10.0075  -17.3931   27.9221 C   0  0  0  0  0  0  0  0  0  0  0  0
    8.7427  -17.3102   27.7274 O   0  0  0  0  0  0  0  0  0  0  0  0
   10.3895  -18.3124   28.8720 O   0  0  0  0  0  0  0  0  0  0  0  0
  2  9  1  0
  2  3  1  0
  2  1  1  6
  3  4  1  0
  4  5  2  0
  4  8  1  0
  5  6  1  0
  6  7  1  0
  8  7  2  0
  9 10  2  0
 11 12  1  0
 13 12  1  0
 14 13  1  0
 15 14  1  1
 15 17  1  0
 16 15  1  0
 16  9  1  0
 17 24  1  0
 17 18  2  0
 20 19  1  1
 20 21  1  0
 22 20  1  0
 23 22  1  1
 24 23  1  0
 25 27  1  0
 25 23  1  0
 26 25  2  0
M  END
$$$$
