HML.pdb
     RDKit          3D

 27 27  0  0  1  0  0  0  0  0999 V2000
    8.1932  -16.7682   19.4572 N   0  0  0  0  0  0  0  0  0  0  0  0
    8.0263  -15.6389   20.3168 C   0  0  1  0  0  0  0  0  0  0  0  0
    7.0918  -14.6374   19.6637 C   0  0  0  0  0  0  0  0  0  0  0  0
    7.5791  -14.2485   18.3208 C   0  0  0  0  0  0  0  0  0  0  0  0
    8.3163  -13.1500   17.9999 C   0  0  0  0  0  0  0  0  0  0  0  0
    8.5254  -13.2137   16.6740 N   0  0  0  0  0  0  0  0  0  0  0  0
    7.9378  -14.3203   16.1704 C   0  0  0  0  0  0  0  0  0  0  0  0
    7.3535  -14.9542   17.2025 N   0  0  0  0  0  0  0  0  0  0  0  0
    7.5904  -15.9900   21.6847 C   0  0  0  0  0  0  0  0  0  0  0  0
    6.6619  -15.3485   22.2059 O   0  0  0  0  0  0  0  0  0  0  0  0
    6.6837  -18.9434   28.2705 C   0  0  0  0  0  0  0  0  0  0  0  0
    6.4471  -19.0133   26.4571 S   0  0  0  0  0  0  0  0  0  0  0  0
    8.0770  -18.9116   25.7017 C   0  0  0  0  0  0  0  0  0  0  0  0
    8.0171  -18.6880   24.2269 C   0  0  0  0  0  0  0  0  0  0  0  0
    8.0030  -17.2585   23.8158 C   0  0  2  0  0  0  0  0  0  0  0  0
    8.2100  -17.0425   22.4153 N   0  0  0  0  0  0  0  0  0  0  0  0
    8.9046  -16.4307   24.6686 C   0  0  0  0  0  0  0  0  0  0  0  0
   10.1572  -16.4300   24.5756 O   0  0  0  0  0  0  0  0  0  0  0  0
    6.9823  -12.2688   27.8371 C   0  0  0  0  0  0  0  0  0  0  0  0
    7.1668  -13.1979   26.6488 C   0  0  1  0  0  0  0  0  0  0  0  0
    6.2630  -12.6313   25.5606 C   0  0  0  0  0  0  0  0  0  0  0  0
    8.5993  -13.2383   26.1992 C   0  0  0  0  0  0  0  0  0  0  0  0
    9.1458  -14.6275   26.3609 C   0  0  2  0  0  0  0  0  0  0  0  0
    8.3205  -15.5916   25.6424 N   0  0  0  0  0  0  0  0  0  0  0  0
    9.2720  -15.0852   27.7336 C   0  0  0  0  0  0  0  0  0  0  0  0
    9.9632  -14.3895   28.5599 O   0  0  0  0  0  0  0  0  0  0  0  0
    8.7097  -16.2244   28.2624 O   0  0  0  0  0  0  0  0  0  0  0  0
  2  9  1  0
  2  3  1  0
  2  1  1  6
  3  4  1  0
  4  5  2  0
  4  8  1  0
  5  6  1  0
  6  7  1  0
  8  7  2  0
  9 10  2  0
 11 12  1  0
 13 12  1  0
 14 13  1  0
 15 14  1  6
 15 17  1  0
 16 15  1  0
 16  9  1  0
 17 24  1  0
 17 18  2  0
 20 19  1  1
 20 21  1  0
 22 20  1  0
 23 22  1  1
 24 23  1  0
 25 27  1  0
 25 23  1  0
 26 25  2  0
M  END
$$$$
