HML.pdb
     RDKit          3D

 27 27  0  0  1  0  0  0  0  0999 V2000
    9.7045  -17.6662   20.4237 N   0  0  0  0  0  0  0  0  0  0  0  0
    9.1601  -16.3512   20.2949 C   0  0  1  0  0  0  0  0  0  0  0  0
    7.9394  -16.3930   19.3944 C   0  0  0  0  0  0  0  0  0  0  0  0
    8.3117  -16.7447   18.0052 C   0  0  0  0  0  0  0  0  0  0  0  0
    9.5645  -16.9664   17.5207 C   0  0  0  0  0  0  0  0  0  0  0  0
    9.4158  -17.2563   16.2170 N   0  0  0  0  0  0  0  0  0  0  0  0
    8.1072  -17.2192   15.8860 C   0  0  0  0  0  0  0  0  0  0  0  0
    7.4321  -16.9003   17.0045 N   0  0  0  0  0  0  0  0  0  0  0  0
    8.8702  -15.6965   21.5878 C   0  0  0  0  0  0  0  0  0  0  0  0
    8.3937  -14.5484   21.5898 O   0  0  0  0  0  0  0  0  0  0  0  0
    6.5812  -11.8209   25.6982 C   0  0  0  0  0  0  0  0  0  0  0  0
    5.8067  -13.4699   25.5243 S   0  0  0  0  0  0  0  0  0  0  0  0
    7.1278  -14.6898   25.5893 C   0  0  0  0  0  0  0  0  0  0  0  0
    7.4418  -15.2729   24.2515 C   0  0  0  0  0  0  0  0  0  0  0  0
    8.8376  -15.7648   24.1008 C   0  0  2  0  0  0  0  0  0  0  0  0
    9.1252  -16.3503   22.8260 N   0  0  0  0  0  0  0  0  0  0  0  0
    9.2413  -16.6362   25.2423 C   0  0  0  0  0  0  0  0  0  0  0  0
    9.3894  -17.8808   25.1602 O   0  0  0  0  0  0  0  0  0  0  0  0
    9.7283  -13.7708   29.8524 C   0  0  0  0  0  0  0  0  0  0  0  0
    9.9349  -14.5064   28.5388 C   0  0  1  0  0  0  0  0  0  0  0  0
   11.0238  -13.7237   27.8150 C   0  0  0  0  0  0  0  0  0  0  0  0
   10.3498  -15.9319   28.7658 C   0  0  0  0  0  0  0  0  0  0  0  0
   10.3596  -16.6745   27.4608 C   0  0  2  0  0  0  0  0  0  0  0  0
    9.4748  -16.0311   26.4964 N   0  0  0  0  0  0  0  0  0  0  0  0
    9.9834  -18.0749   27.5447 C   0  0  0  0  0  0  0  0  0  0  0  0
    8.8985  -18.4621   26.9812 O   0  0  0  0  0  0  0  0  0  0  0  0
   10.6903  -19.0663   28.1857 O   0  0  0  0  0  0  0  0  0  0  0  0
  2  9  1  0
  2  3  1  0
  2  1  1  1
  3  4  1  0
  4  5  2  0
  4  8  1  0
  5  6  1  0
  6  7  1  0
  8  7  2  0
  9 10  2  0
 11 12  1  0
 13 12  1  0
 14 13  1  0
 15 14  1  6
 15 17  1  0
 16 15  1  0
 16  9  1  0
 17 24  1  0
 17 18  2  0
 20 19  1  1
 20 21  1  0
 22 20  1  0
 23 22  1  1
 24 23  1  0
 25 27  1  0
 25 23  1  0
 26 25  2  0
M  END
$$$$
