HML.pdb
     RDKit          3D

 27 27  0  0  1  0  0  0  0  0999 V2000
    9.6424  -17.0342   20.2777 N   0  0  0  0  0  0  0  0  0  0  0  0
    9.0498  -17.4068   21.5235 C   0  0  1  0  0  0  0  0  0  0  0  0
    9.6308  -18.7299   21.9866 C   0  0  0  0  0  0  0  0  0  0  0  0
    9.2590  -19.8284   21.0662 C   0  0  0  0  0  0  0  0  0  0  0  0
    9.6448  -19.9808   19.7696 C   0  0  0  0  0  0  0  0  0  0  0  0
    9.0699  -21.1165   19.3390 N   0  0  0  0  0  0  0  0  0  0  0  0
    8.3417  -21.6670   20.3340 C   0  0  0  0  0  0  0  0  0  0  0  0
    8.4669  -20.8579   21.4009 N   0  0  0  0  0  0  0  0  0  0  0  0
    9.1498  -16.3646   22.5667 C   0  0  0  0  0  0  0  0  0  0  0  0
   10.2445  -15.8091   22.7624 O   0  0  0  0  0  0  0  0  0  0  0  0
    7.1784  -11.0072   26.8243 C   0  0  0  0  0  0  0  0  0  0  0  0
    6.3024  -12.2326   25.7850 S   0  0  0  0  0  0  0  0  0  0  0  0
    6.8824  -13.8629   26.2780 C   0  0  0  0  0  0  0  0  0  0  0  0
    6.8187  -14.8588   25.1679 C   0  0  0  0  0  0  0  0  0  0  0  0
    8.0844  -15.0170   24.4024 C   0  0  2  0  0  0  0  0  0  0  0  0
    8.0233  -15.9859   23.3498 N   0  0  0  0  0  0  0  0  0  0  0  0
    9.2540  -15.2174   25.3064 C   0  0  0  0  0  0  0  0  0  0  0  0
   10.1001  -14.3276   25.5714 O   0  0  0  0  0  0  0  0  0  0  0  0
    9.5944  -13.9971   29.4221 C   0  0  0  0  0  0  0  0  0  0  0  0
    9.9994  -14.6194   28.0962 C   0  0  1  0  0  0  0  0  0  0  0  0
   11.3333  -13.9706   27.7467 C   0  0  0  0  0  0  0  0  0  0  0  0
   10.1329  -16.1113   28.2065 C   0  0  0  0  0  0  0  0  0  0  0  0
   10.5010  -16.6908   26.8710 C   0  0  2  0  0  0  0  0  0  0  0  0
    9.4266  -16.4836   25.9069 N   0  0  0  0  0  0  0  0  0  0  0  0
   10.8236  -18.1069   26.8806 C   0  0  0  0  0  0  0  0  0  0  0  0
   10.0457  -18.9259   26.2735 O   0  0  0  0  0  0  0  0  0  0  0  0
   11.9125  -18.6853   27.4917 O   0  0  0  0  0  0  0  0  0  0  0  0
  2  9  1  0
  2  3  1  0
  2  1  1  6
  3  4  1  0
  4  5  2  0
  4  8  1  0
  5  6  1  0
  6  7  1  0
  8  7  2  0
  9 10  2  0
 11 12  1  0
 13 12  1  0
 14 13  1  0
 15 14  1  1
 15 17  1  0
 16 15  1  0
 16  9  1  0
 17 24  1  0
 17 18  2  0
 20 19  1  1
 20 21  1  0
 22 20  1  0
 23 22  1  1
 24 23  1  0
 25 27  1  0
 25 23  1  0
 26 25  2  0
M  END
$$$$
