HML.pdb
     RDKit          3D

 27 27  0  0  1  0  0  0  0  0999 V2000
   10.8473  -16.4021   19.7624 N   0  0  0  0  0  0  0  0  0  0  0  0
   10.3606  -17.2100   20.8359 C   0  0  1  0  0  0  0  0  0  0  0  0
   11.2817  -18.3995   21.0342 C   0  0  0  0  0  0  0  0  0  0  0  0
   11.1849  -19.3456   19.8994 C   0  0  0  0  0  0  0  0  0  0  0  0
   10.0514  -19.7638   19.2720 C   0  0  0  0  0  0  0  0  0  0  0  0
   10.4484  -20.6103   18.3068 N   0  0  0  0  0  0  0  0  0  0  0  0
   11.7939  -20.7244   18.3227 C   0  0  0  0  0  0  0  0  0  0  0  0
   12.2393  -19.9346   19.3159 N   0  0  0  0  0  0  0  0  0  0  0  0
   10.1441  -16.4638   22.0932 C   0  0  0  0  0  0  0  0  0  0  0  0
   11.0869  -15.8172   22.5816 O   0  0  0  0  0  0  0  0  0  0  0  0
    6.6697  -12.4278   27.1461 C   0  0  0  0  0  0  0  0  0  0  0  0
    6.9603  -13.1222   25.4780 S   0  0  0  0  0  0  0  0  0  0  0  0
    6.9807  -14.9139   25.6416 C   0  0  0  0  0  0  0  0  0  0  0  0
    7.2221  -15.6098   24.3432 C   0  0  0  0  0  0  0  0  0  0  0  0
    8.6554  -15.8465   24.0228 C   0  0  2  0  0  0  0  0  0  0  0  0
    8.8839  -16.4710   22.7546 N   0  0  0  0  0  0  0  0  0  0  0  0
    9.3644  -16.5324   25.1419 C   0  0  0  0  0  0  0  0  0  0  0  0
    9.6965  -17.7437   25.1279 O   0  0  0  0  0  0  0  0  0  0  0  0
   10.3352  -13.0505   29.2010 C   0  0  0  0  0  0  0  0  0  0  0  0
   10.4029  -14.0421   28.0515 C   0  0  1  0  0  0  0  0  0  0  0  0
   11.6239  -13.6242   27.2411 C   0  0  0  0  0  0  0  0  0  0  0  0
   10.5376  -15.4528   28.5490 C   0  0  0  0  0  0  0  0  0  0  0  0
   10.3809  -16.4140   27.4060 C   0  0  2  0  0  0  0  0  0  0  0  0
    9.6871  -15.7789   26.2915 N   0  0  0  0  0  0  0  0  0  0  0  0
    9.6771  -17.6437   27.7259 C   0  0  0  0  0  0  0  0  0  0  0  0
    8.4525  -17.7706   27.3673 O   0  0  0  0  0  0  0  0  0  0  0  0
   10.2009  -18.7258   28.3954 O   0  0  0  0  0  0  0  0  0  0  0  0
  2  9  1  0
  2  3  1  0
  2  1  1  6
  3  4  1  0
  4  5  2  0
  4  8  1  0
  5  6  1  0
  6  7  1  0
  8  7  2  0
  9 10  2  0
 11 12  1  0
 13 12  1  0
 14 13  1  0
 15 14  1  1
 15 17  1  0
 16 15  1  0
 16  9  1  0
 17 24  1  0
 17 18  2  0
 20 19  1  1
 20 21  1  0
 22 20  1  0
 23 22  1  1
 24 23  1  0
 25 27  1  0
 25 23  1  0
 26 25  2  0
M  END
$$$$
