HML.pdb
     RDKit          3D

 27 27  0  0  1  0  0  0  0  0999 V2000
    9.5721  -18.8283   20.4266 N   0  0  0  0  0  0  0  0  0  0  0  0
    8.9445  -18.6155   21.6926 C   0  0  1  0  0  0  0  0  0  0  0  0
    9.4097  -19.6751   22.6743 C   0  0  0  0  0  0  0  0  0  0  0  0
    9.3633  -21.0243   22.0664 C   0  0  0  0  0  0  0  0  0  0  0  0
    9.0941  -21.3322   20.7680 C   0  0  0  0  0  0  0  0  0  0  0  0
    9.1662  -22.6711   20.6781 N   0  0  0  0  0  0  0  0  0  0  0  0
    9.4721  -23.1953   21.8844 C   0  0  0  0  0  0  0  0  0  0  0  0
    9.5917  -22.1628   22.7379 N   0  0  0  0  0  0  0  0  0  0  0  0
    9.1275  -17.2496   22.2268 C   0  0  0  0  0  0  0  0  0  0  0  0
   10.0912  -16.5709   21.8320 O   0  0  0  0  0  0  0  0  0  0  0  0
    5.8763  -11.6822   26.4824 C   0  0  0  0  0  0  0  0  0  0  0  0
    7.0400  -13.0292   26.0580 S   0  0  0  0  0  0  0  0  0  0  0  0
    6.8907  -13.3265   24.2898 C   0  0  0  0  0  0  0  0  0  0  0  0
    6.9002  -14.7791   23.9454 C   0  0  0  0  0  0  0  0  0  0  0  0
    8.2335  -15.3182   23.5652 C   0  0  2  0  0  0  0  0  0  0  0  0
    8.2273  -16.6978   23.1812 N   0  0  0  0  0  0  0  0  0  0  0  0
    9.2674  -15.0087   24.5951 C   0  0  0  0  0  0  0  0  0  0  0  0
    9.5200  -13.8518   25.0141 O   0  0  0  0  0  0  0  0  0  0  0  0
   11.6118  -14.2484   28.7676 C   0  0  0  0  0  0  0  0  0  0  0  0
   10.2515  -14.9226   28.7027 C   0  0  1  0  0  0  0  0  0  0  0  0
    9.3473  -14.0733   29.5878 C   0  0  0  0  0  0  0  0  0  0  0  0
    9.7333  -14.9817   27.2942 C   0  0  0  0  0  0  0  0  0  0  0  0
   10.5126  -15.9946   26.5059 C   0  0  2  0  0  0  0  0  0  0  0  0
   10.0117  -16.0783   25.1388 N   0  0  0  0  0  0  0  0  0  0  0  0
   10.5184  -17.3369   27.0608 C   0  0  0  0  0  0  0  0  0  0  0  0
    9.4100  -17.9744   27.1577 O   0  0  0  0  0  0  0  0  0  0  0  0
   11.6237  -18.0229   27.5094 O   0  0  0  0  0  0  0  0  0  0  0  0
  2  9  1  0
  2  3  1  0
  2  1  1  6
  3  4  1  0
  4  5  2  0
  4  8  1  0
  5  6  1  0
  6  7  1  0
  8  7  2  0
  9 10  2  0
 11 12  1  0
 13 12  1  0
 14 13  1  0
 15 14  1  1
 15 17  1  0
 16 15  1  0
 16  9  1  0
 17 24  1  0
 17 18  2  0
 20 19  1  6
 20 21  1  0
 22 20  1  0
 23 22  1  1
 24 23  1  0
 25 27  1  0
 25 23  1  0
 26 25  2  0
M  END
$$$$
