HML.pdb
     RDKit          3D

 27 27  0  0  1  0  0  0  0  0999 V2000
    8.4276  -17.0004   19.8261 N   0  0  0  0  0  0  0  0  0  0  0  0
    9.6071  -16.9176   20.6286 C   0  0  1  0  0  0  0  0  0  0  0  0
   10.7912  -16.5483   19.7542 C   0  0  0  0  0  0  0  0  0  0  0  0
   10.9745  -17.5292   18.6605 C   0  0  0  0  0  0  0  0  0  0  0  0
   10.0870  -17.8378   17.6754 C   0  0  0  0  0  0  0  0  0  0  0  0
   10.6824  -18.7712   16.9139 N   0  0  0  0  0  0  0  0  0  0  0  0
   11.9110  -19.0455   17.4027 C   0  0  0  0  0  0  0  0  0  0  0  0
   12.0805  -18.2682   18.4870 N   0  0  0  0  0  0  0  0  0  0  0  0
    9.4756  -16.0135   21.7904 C   0  0  0  0  0  0  0  0  0  0  0  0
    9.9049  -14.8502   21.7019 O   0  0  0  0  0  0  0  0  0  0  0  0
    6.6426  -11.3827   25.9099 C   0  0  0  0  0  0  0  0  0  0  0  0
    6.1851  -13.1525   25.9984 S   0  0  0  0  0  0  0  0  0  0  0  0
    7.6897  -14.1062   25.7454 C   0  0  0  0  0  0  0  0  0  0  0  0
    7.6709  -14.8883   24.4740 C   0  0  0  0  0  0  0  0  0  0  0  0
    8.9017  -15.6828   24.2157 C   0  0  2  0  0  0  0  0  0  0  0  0
    8.8711  -16.4458   23.0041 N   0  0  0  0  0  0  0  0  0  0  0  0
    9.2913  -16.4975   25.4030 C   0  0  0  0  0  0  0  0  0  0  0  0
    8.5744  -17.3987   25.9049 O   0  0  0  0  0  0  0  0  0  0  0  0
    9.5541  -13.5834   29.1603 C   0  0  0  0  0  0  0  0  0  0  0  0
   10.3235  -14.4406   28.1691 C   0  0  1  0  0  0  0  0  0  0  0  0
   11.7918  -14.1358   28.4399 C   0  0  0  0  0  0  0  0  0  0  0  0
   10.0275  -15.9009   28.3587 C   0  0  0  0  0  0  0  0  0  0  0  0
   10.8042  -16.7125   27.3623 C   0  0  2  0  0  0  0  0  0  0  0  0
   10.5436  -16.2468   26.0050 N   0  0  0  0  0  0  0  0  0  0  0  0
   10.5503  -18.1421   27.3988 C   0  0  0  0  0  0  0  0  0  0  0  0
   11.5454  -18.9508   27.3861 O   0  0  0  0  0  0  0  0  0  0  0  0
    9.3138  -18.7440   27.4478 O   0  0  0  0  0  0  0  0  0  0  0  0
  2  9  1  0
  2  3  1  0
  2  1  1  6
  3  4  1  0
  4  5  2  0
  4  8  1  0
  5  6  1  0
  6  7  1  0
  8  7  2  0
  9 10  2  0
 11 12  1  0
 13 12  1  0
 14 13  1  0
 15 14  1  1
 15 17  1  0
 16 15  1  0
 16  9  1  0
 17 24  1  0
 17 18  2  0
 20 19  1  1
 20 21  1  0
 22 20  1  0
 23 22  1  1
 24 23  1  0
 25 27  1  0
 25 23  1  0
 26 25  2  0
M  END
$$$$
