HML.pdb
     RDKit          3D

 27 27  0  0  1  0  0  0  0  0999 V2000
   11.0022  -16.6754   19.9088 N   0  0  0  0  0  0  0  0  0  0  0  0
   10.1864  -17.2064   20.9550 C   0  0  1  0  0  0  0  0  0  0  0  0
   10.6143  -18.6301   21.2595 C   0  0  0  0  0  0  0  0  0  0  0  0
    9.8841  -19.6005   20.4126 C   0  0  0  0  0  0  0  0  0  0  0  0
    8.9277  -19.3247   19.4839 C   0  0  0  0  0  0  0  0  0  0  0  0
    8.5557  -20.5080   18.9669 N   0  0  0  0  0  0  0  0  0  0  0  0
    9.2562  -21.5036   19.5512 C   0  0  0  0  0  0  0  0  0  0  0  0
   10.0774  -20.9274   20.4469 N   0  0  0  0  0  0  0  0  0  0  0  0
   10.1554  -16.3672   22.1713 C   0  0  0  0  0  0  0  0  0  0  0  0
   11.2268  -15.9542   22.6474 O   0  0  0  0  0  0  0  0  0  0  0  0
    6.2581  -11.6415   26.8071 C   0  0  0  0  0  0  0  0  0  0  0  0
    5.9082  -13.2406   25.9889 S   0  0  0  0  0  0  0  0  0  0  0  0
    7.4884  -14.0540   25.7085 C   0  0  0  0  0  0  0  0  0  0  0  0
    7.5440  -14.7732   24.4016 C   0  0  0  0  0  0  0  0  0  0  0  0
    8.8553  -15.4060   24.0965 C   0  0  2  0  0  0  0  0  0  0  0  0
    8.9291  -16.0245   22.8070 N   0  0  0  0  0  0  0  0  0  0  0  0
    9.3015  -16.3081   25.1976 C   0  0  0  0  0  0  0  0  0  0  0  0
    9.1989  -17.5596   25.1681 O   0  0  0  0  0  0  0  0  0  0  0  0
   10.2120  -13.8014   29.8793 C   0  0  0  0  0  0  0  0  0  0  0  0
   10.2133  -14.4731   28.5161 C   0  0  1  0  0  0  0  0  0  0  0  0
   10.9809  -13.5206   27.6074 C   0  0  0  0  0  0  0  0  0  0  0  0
   10.8705  -15.8226   28.5682 C   0  0  0  0  0  0  0  0  0  0  0  0
   10.6409  -16.5522   27.2761 C   0  0  2  0  0  0  0  0  0  0  0  0
    9.8779  -15.7260   26.3477 N   0  0  0  0  0  0  0  0  0  0  0  0
    9.9583  -17.8282   27.4008 C   0  0  0  0  0  0  0  0  0  0  0  0
   10.5023  -18.7591   28.0950 O   0  0  0  0  0  0  0  0  0  0  0  0
    8.7480  -18.1579   26.8350 O   0  0  0  0  0  0  0  0  0  0  0  0
  2  9  1  0
  2  3  1  0
  2  1  1  6
  3  4  1  0
  4  5  2  0
  4  8  1  0
  5  6  1  0
  6  7  1  0
  8  7  2  0
  9 10  2  0
 11 12  1  0
 13 12  1  0
 14 13  1  0
 15 14  1  1
 15 17  1  0
 16 15  1  0
 16  9  1  0
 17 24  1  0
 17 18  2  0
 20 19  1  1
 20 21  1  0
 22 20  1  0
 23 22  1  1
 24 23  1  0
 25 27  1  0
 25 23  1  0
 26 25  2  0
M  END
$$$$
