HML.pdb
     RDKit          3D

 27 27  0  0  1  0  0  0  0  0999 V2000
   10.4567  -16.6211   19.4497 N   0  0  0  0  0  0  0  0  0  0  0  0
   10.7096  -17.1659   20.7463 C   0  0  1  0  0  0  0  0  0  0  0  0
   12.1345  -17.6840   20.8103 C   0  0  0  0  0  0  0  0  0  0  0  0
   12.3069  -18.8810   19.9560 C   0  0  0  0  0  0  0  0  0  0  0  0
   11.7275  -19.1188   18.7473 C   0  0  0  0  0  0  0  0  0  0  0  0
   12.1758  -20.3209   18.3474 N   0  0  0  0  0  0  0  0  0  0  0  0
   13.0144  -20.8290   19.2758 C   0  0  0  0  0  0  0  0  0  0  0  0
   13.0874  -19.9258   20.2696 N   0  0  0  0  0  0  0  0  0  0  0  0
   10.4111  -16.2335   21.8536 C   0  0  0  0  0  0  0  0  0  0  0  0
   11.0719  -15.1856   21.9553 O   0  0  0  0  0  0  0  0  0  0  0  0
    6.5115  -12.6329   25.2281 C   0  0  0  0  0  0  0  0  0  0  0  0
    6.2079  -14.2491   26.0312 S   0  0  0  0  0  0  0  0  0  0  0  0
    6.8296  -15.5218   24.9218 C   0  0  0  0  0  0  0  0  0  0  0  0
    7.8240  -14.9968   23.9399 C   0  0  0  0  0  0  0  0  0  0  0  0
    9.1377  -15.6947   23.9533 C   0  0  2  0  0  0  0  0  0  0  0  0
    9.3873  -16.5100   22.8028 N   0  0  0  0  0  0  0  0  0  0  0  0
    9.3633  -16.4204   25.2370 C   0  0  0  0  0  0  0  0  0  0  0  0
    9.1231  -17.6414   25.4074 O   0  0  0  0  0  0  0  0  0  0  0  0
   10.1917  -13.2265   27.6970 C   0  0  0  0  0  0  0  0  0  0  0  0
   11.1020  -14.2308   28.3839 C   0  0  1  0  0  0  0  0  0  0  0  0
   11.5797  -13.5295   29.6497 C   0  0  0  0  0  0  0  0  0  0  0  0
   10.3721  -15.5024   28.7094 C   0  0  0  0  0  0  0  0  0  0  0  0
   10.3641  -16.4073   27.5112 C   0  0  2  0  0  0  0  0  0  0  0  0
    9.8807  -15.6963   26.3332 N   0  0  0  0  0  0  0  0  0  0  0  0
    9.5735  -17.6170   27.6566 C   0  0  0  0  0  0  0  0  0  0  0  0
    8.3870  -17.6465   27.1710 O   0  0  0  0  0  0  0  0  0  0  0  0
    9.9742  -18.7761   28.2807 O   0  0  0  0  0  0  0  0  0  0  0  0
  2  9  1  0
  2  3  1  0
  2  1  1  6
  3  4  1  0
  4  5  2  0
  4  8  1  0
  5  6  1  0
  6  7  1  0
  8  7  2  0
  9 10  2  0
 11 12  1  0
 13 12  1  0
 14 13  1  0
 15 14  1  1
 15 17  1  0
 16 15  1  0
 16  9  1  0
 17 24  1  0
 17 18  2  0
 20 19  1  1
 20 21  1  0
 22 20  1  0
 23 22  1  1
 24 23  1  0
 25 27  1  0
 25 23  1  0
 26 25  2  0
M  END
$$$$
