VWW.pdb
     RDKit          3D

 36 39  0  0  1  0  0  0  0  0999 V2000
    9.6569  -17.8748   19.1507 C   0  0  0  0  0  0  0  0  0  0  0  0
   11.0687  -18.3403   19.4737 C   0  0  2  0  0  0  0  0  0  0  0  0
   11.2409  -19.7433   18.9467 C   0  0  0  0  0  0  0  0  0  0  0  0
   11.2112  -18.4041   20.9828 C   0  0  2  0  0  0  0  0  0  0  0  0
   10.2240  -19.3292   21.4847 N   0  0  0  0  0  0  0  0  0  0  0  0
   10.9767  -17.0788   21.6018 C   0  0  0  0  0  0  0  0  0  0  0  0
   11.7412  -16.1245   21.3193 O   0  0  0  0  0  0  0  0  0  0  0  0
    9.8820  -16.9426   22.5009 N   0  0  0  0  0  0  0  0  0  0  0  0
    9.6306  -15.6890   23.1369 C   0  0  1  0  0  0  0  0  0  0  0  0
    8.1630  -15.4265   23.3712 C   0  0  0  0  0  0  0  0  0  0  0  0
    7.4220  -15.1239   22.1553 C   0  0  0  0  0  0  0  0  0  0  0  0
    6.3784  -15.8173   21.6238 C   0  0  0  0  0  0  0  0  0  0  0  0
    5.9513  -15.2276   20.4854 N   0  0  0  0  0  0  0  0  0  0  0  0
    6.7325  -14.1301   20.2735 C   0  0  0  0  0  0  0  0  0  0  0  0
    6.7215  -13.1872   19.2658 C   0  0  0  0  0  0  0  0  0  0  0  0
    7.6694  -12.1853   19.3562 C   0  0  0  0  0  0  0  0  0  0  0  0
    8.5833  -12.0965   20.3682 C   0  0  0  0  0  0  0  0  0  0  0  0
    8.5822  -13.0424   21.3642 C   0  0  0  0  0  0  0  0  0  0  0  0
    7.6561  -14.0581   21.3148 C   0  0  0  0  0  0  0  0  0  0  0  0
   10.2656  -15.7346   24.4924 C   0  0  0  0  0  0  0  0  0  0  0  0
   11.1354  -14.8680   24.8054 O   0  0  0  0  0  0  0  0  0  0  0  0
    9.9363  -16.7087   25.4490 N   0  0  0  0  0  0  0  0  0  0  0  0
   10.6228  -16.7112   26.7446 C   0  0  1  0  0  0  0  0  0  0  0  0
   10.1655  -15.5455   27.5844 C   0  0  0  0  0  0  0  0  0  0  0  0
    8.7615  -15.2256   27.2210 C   0  0  0  0  0  0  0  0  0  0  0  0
    7.7589  -16.1596   26.9713 C   0  0  0  0  0  0  0  0  0  0  0  0
    6.6260  -15.5074   26.6704 N   0  0  0  0  0  0  0  0  0  0  0  0
    6.8234  -14.1759   26.7072 C   0  0  0  0  0  0  0  0  0  0  0  0
    5.9868  -13.1019   26.4794 C   0  0  0  0  0  0  0  0  0  0  0  0
    6.4554  -11.8094   26.5871 C   0  0  0  0  0  0  0  0  0  0  0  0
    7.7812  -11.6490   26.9290 C   0  0  0  0  0  0  0  0  0  0  0  0
    8.6317  -12.7213   27.1605 C   0  0  0  0  0  0  0  0  0  0  0  0
    8.1506  -13.9993   27.0493 C   0  0  0  0  0  0  0  0  0  0  0  0
   10.4202  -18.0042   27.4410 C   0  0  0  0  0  0  0  0  0  0  0  0
   10.9265  -18.1923   28.5837 O   0  0  0  0  0  0  0  0  0  0  0  0
    9.6909  -19.0441   26.9004 O   0  0  0  0  0  0  0  0  0  0  0  0
  2  1  1  1
  3  2  1  0
  4  6  1  0
  4  5  1  1
  4  2  1  0
  6  7  2  0
  8  9  1  0
  8  6  1  0
  9 20  1  0
 10 11  1  0
  9 10  1  1
 11 19  1  0
 12 11  2  0
 12 13  1  0
 13 14  1  0
 14 15  2  0
 15 16  1  0
 17 16  2  0
 18 17  1  0
 19 18  2  0
 19 14  1  0
 20 21  2  0
 20 22  1  0
 22 23  1  0
 23 34  1  0
 23 24  1  1
 25 24  1  0
 26 25  2  0
 27 28  1  0
 27 26  1  0
 28 33  2  0
 29 28  1  0
 29 30  2  0
 30 31  1  0
 31 32  2  0
 33 25  1  0
 33 32  1  0
 34 35  2  0
 34 36  1  0
M  END
$$$$
