VWW.pdb
     RDKit          3D

 36 39  0  0  1  0  0  0  0  0999 V2000
   11.3274  -18.7428   17.5520 C   0  0  0  0  0  0  0  0  0  0  0  0
   11.2750  -17.8739   18.7996 C   0  0  2  0  0  0  0  0  0  0  0  0
   12.2333  -18.4415   19.8172 C   0  0  0  0  0  0  0  0  0  0  0  0
    9.8799  -17.9753   19.3873 C   0  0  2  0  0  0  0  0  0  0  0  0
    8.9469  -17.4694   18.4098 N   0  0  0  0  0  0  0  0  0  0  0  0
    9.7566  -17.1673   20.6227 C   0  0  0  0  0  0  0  0  0  0  0  0
   10.1961  -15.9919   20.6349 O   0  0  0  0  0  0  0  0  0  0  0  0
    9.1379  -17.7650   21.7564 N   0  0  0  0  0  0  0  0  0  0  0  0
    9.0503  -17.0448   22.9863 C   0  0  1  0  0  0  0  0  0  0  0  0
    7.9782  -17.5729   23.9079 C   0  0  0  0  0  0  0  0  0  0  0  0
    7.1883  -16.5288   24.5444 C   0  0  0  0  0  0  0  0  0  0  0  0
    6.1659  -16.6831   25.4295 C   0  0  0  0  0  0  0  0  0  0  0  0
    5.6776  -15.4790   25.8005 N   0  0  0  0  0  0  0  0  0  0  0  0
    6.3964  -14.5243   25.1437 C   0  0  0  0  0  0  0  0  0  0  0  0
    6.3093  -13.1471   25.1624 C   0  0  0  0  0  0  0  0  0  0  0  0
    7.2079  -12.4670   24.3622 C   0  0  0  0  0  0  0  0  0  0  0  0
    8.1448  -13.0841   23.5819 C   0  0  0  0  0  0  0  0  0  0  0  0
    8.2196  -14.4556   23.5735 C   0  0  0  0  0  0  0  0  0  0  0  0
    7.3446  -15.1735   24.3548 C   0  0  0  0  0  0  0  0  0  0  0  0
   10.3480  -17.2284   23.7109 C   0  0  0  0  0  0  0  0  0  0  0  0
   11.0587  -18.2499   23.4726 O   0  0  0  0  0  0  0  0  0  0  0  0
   10.8221  -16.3056   24.6575 N   0  0  0  0  0  0  0  0  0  0  0  0
   12.1421  -16.5053   25.2640 C   0  0  1  0  0  0  0  0  0  0  0  0
   12.4273  -15.4211   26.2720 C   0  0  0  0  0  0  0  0  0  0  0  0
   11.3696  -15.4569   27.3140 C   0  0  0  0  0  0  0  0  0  0  0  0
   11.2412  -16.4307   28.3014 C   0  0  0  0  0  0  0  0  0  0  0  0
   10.1721  -16.1406   29.0580 N   0  0  0  0  0  0  0  0  0  0  0  0
    9.5766  -15.0142   28.6222 C   0  0  0  0  0  0  0  0  0  0  0  0
    8.4673  -14.3172   29.0564 C   0  0  0  0  0  0  0  0  0  0  0  0
    8.0644  -13.1648   28.4150 C   0  0  0  0  0  0  0  0  0  0  0  0
    8.8156  -12.7522   27.3353 C   0  0  0  0  0  0  0  0  0  0  0  0
    9.9330  -13.4450   26.8897 C   0  0  0  0  0  0  0  0  0  0  0  0
   10.3200  -14.5882   27.5379 C   0  0  0  0  0  0  0  0  0  0  0  0
   12.2416  -17.8564   25.8660 C   0  0  0  0  0  0  0  0  0  0  0  0
   11.1930  -18.5215   26.1021 O   0  0  0  0  0  0  0  0  0  0  0  0
   13.4451  -18.4480   26.1933 O   0  0  0  0  0  0  0  0  0  0  0  0
  2  1  1  6
  3  2  1  0
  4  6  1  0
  4  5  1  6
  4  2  1  0
  6  7  2  0
  8  9  1  0
  8  6  1  0
  9 20  1  0
 10 11  1  0
  9 10  1  1
 11 19  1  0
 12 11  2  0
 12 13  1  0
 13 14  1  0
 14 15  2  0
 15 16  1  0
 17 16  2  0
 18 17  1  0
 19 18  2  0
 19 14  1  0
 20 21  2  0
 20 22  1  0
 22 23  1  0
 23 34  1  0
 23 24  1  1
 25 24  1  0
 26 25  2  0
 27 28  1  0
 27 26  1  0
 28 33  2  0
 29 28  1  0
 29 30  2  0
 30 31  1  0
 31 32  2  0
 33 25  1  0
 33 32  1  0
 34 35  2  0
 34 36  1  0
M  END
$$$$
