VWW.pdb
     RDKit          3D

 36 39  0  0  1  0  0  0  0  0999 V2000
   10.0261  -21.5466   19.4936 C   0  0  0  0  0  0  0  0  0  0  0  0
   10.2386  -20.3165   20.3630 C   0  0  2  0  0  0  0  0  0  0  0  0
    9.8239  -20.6521   21.7742 C   0  0  0  0  0  0  0  0  0  0  0  0
    9.3113  -19.2225   19.8680 C   0  0  2  0  0  0  0  0  0  0  0  0
    9.6402  -18.9497   18.4897 N   0  0  0  0  0  0  0  0  0  0  0  0
    9.4822  -17.9770   20.6515 C   0  0  0  0  0  0  0  0  0  0  0  0
   10.5921  -17.3914   20.6405 O   0  0  0  0  0  0  0  0  0  0  0  0
    8.3679  -17.4918   21.3918 N   0  0  0  0  0  0  0  0  0  0  0  0
    8.4592  -16.2494   22.0899 C   0  0  1  0  0  0  0  0  0  0  0  0
    7.1271  -15.5575   22.2463 C   0  0  0  0  0  0  0  0  0  0  0  0
    7.2271  -14.2153   22.8008 C   0  0  0  0  0  0  0  0  0  0  0  0
    7.8944  -13.1489   22.2811 C   0  0  0  0  0  0  0  0  0  0  0  0
    7.7565  -12.0700   23.0829 N   0  0  0  0  0  0  0  0  0  0  0  0
    6.9851  -12.4427   24.1438 C   0  0  0  0  0  0  0  0  0  0  0  0
    6.5453  -11.7323   25.2422 C   0  0  0  0  0  0  0  0  0  0  0  0
    5.7643  -12.4270   26.1465 C   0  0  0  0  0  0  0  0  0  0  0  0
    5.4238  -13.7423   25.9995 C   0  0  0  0  0  0  0  0  0  0  0  0
    5.8690  -14.4365   24.9010 C   0  0  0  0  0  0  0  0  0  0  0  0
    6.6494  -13.7849   23.9747 C   0  0  0  0  0  0  0  0  0  0  0  0
    8.9388  -16.5449   23.4775 C   0  0  0  0  0  0  0  0  0  0  0  0
    8.3791  -17.4603   24.1514 O   0  0  0  0  0  0  0  0  0  0  0  0
    9.9979  -15.8436   24.0765 N   0  0  0  0  0  0  0  0  0  0  0  0
   10.2088  -15.9498   25.5236 C   0  0  1  0  0  0  0  0  0  0  0  0
   11.6327  -15.6000   25.8747 C   0  0  0  0  0  0  0  0  0  0  0  0
   12.1317  -16.5920   26.8610 C   0  0  0  0  0  0  0  0  0  0  0  0
   12.6998  -17.8250   26.5498 C   0  0  0  0  0  0  0  0  0  0  0  0
   13.0273  -18.4501   27.6905 N   0  0  0  0  0  0  0  0  0  0  0  0
   12.7042  -17.6909   28.7548 C   0  0  0  0  0  0  0  0  0  0  0  0
   12.8374  -17.8856   30.1148 C   0  0  0  0  0  0  0  0  0  0  0  0
   12.4145  -16.9240   31.0083 C   0  0  0  0  0  0  0  0  0  0  0  0
   11.8611  -15.7771   30.4805 C   0  0  0  0  0  0  0  0  0  0  0  0
   11.7221  -15.5703   29.1149 C   0  0  0  0  0  0  0  0  0  0  0  0
   12.1472  -16.5355   28.2405 C   0  0  0  0  0  0  0  0  0  0  0  0
    9.2373  -15.1034   26.2569 C   0  0  0  0  0  0  0  0  0  0  0  0
    9.0706  -13.8967   25.9200 O   0  0  0  0  0  0  0  0  0  0  0  0
    8.4829  -15.5679   27.3154 O   0  0  0  0  0  0  0  0  0  0  0  0
  2  1  1  6
  3  2  1  0
  4  6  1  0
  4  5  1  6
  4  2  1  0
  6  7  2  0
  8  9  1  0
  8  6  1  0
  9 20  1  0
 10 11  1  0
  9 10  1  1
 11 19  1  0
 12 11  2  0
 12 13  1  0
 13 14  1  0
 14 15  2  0
 15 16  1  0
 17 16  2  0
 18 17  1  0
 19 18  2  0
 19 14  1  0
 20 21  2  0
 20 22  1  0
 22 23  1  0
 23 34  1  0
 23 24  1  6
 25 24  1  0
 26 25  2  0
 27 28  1  0
 27 26  1  0
 28 33  2  0
 29 28  1  0
 29 30  2  0
 30 31  1  0
 31 32  2  0
 33 25  1  0
 33 32  1  0
 34 35  2  0
 34 36  1  0
M  END
$$$$
