VWW.pdb
     RDKit          3D

 36 39  0  0  1  0  0  0  0  0999 V2000
    8.0483  -19.8914   18.3128 C   0  0  0  0  0  0  0  0  0  0  0  0
    9.0794  -18.8368   18.6853 C   0  0  2  0  0  0  0  0  0  0  0  0
   10.4470  -19.3543   18.3141 C   0  0  0  0  0  0  0  0  0  0  0  0
    9.0554  -18.6645   20.1924 C   0  0  2  0  0  0  0  0  0  0  0  0
    7.6844  -18.4657   20.5963 N   0  0  0  0  0  0  0  0  0  0  0  0
    9.8487  -17.4859   20.6119 C   0  0  0  0  0  0  0  0  0  0  0  0
   10.7560  -17.0560   19.8590 O   0  0  0  0  0  0  0  0  0  0  0  0
    9.5448  -16.8843   21.8653 N   0  0  0  0  0  0  0  0  0  0  0  0
   10.3320  -15.7937   22.3448 C   0  0  1  0  0  0  0  0  0  0  0  0
    9.5490  -14.5104   22.4781 C   0  0  0  0  0  0  0  0  0  0  0  0
    8.2957  -14.6630   23.2025 C   0  0  0  0  0  0  0  0  0  0  0  0
    7.2907  -15.5449   22.9482 C   0  0  0  0  0  0  0  0  0  0  0  0
    6.2868  -15.3856   23.8385 N   0  0  0  0  0  0  0  0  0  0  0  0
    6.6465  -14.3808   24.6875 C   0  0  0  0  0  0  0  0  0  0  0  0
    5.9909  -13.8239   25.7667 C   0  0  0  0  0  0  0  0  0  0  0  0
    6.6511  -12.8013   26.4214 C   0  0  0  0  0  0  0  0  0  0  0  0
    7.8829  -12.3377   26.0540 C   0  0  0  0  0  0  0  0  0  0  0  0
    8.5233  -12.9018   24.9776 C   0  0  0  0  0  0  0  0  0  0  0  0
    7.9034  -13.9229   24.2959 C   0  0  0  0  0  0  0  0  0  0  0  0
   10.7947  -16.1429   23.7256 C   0  0  0  0  0  0  0  0  0  0  0  0
   11.5384  -15.3361   24.3592 O   0  0  0  0  0  0  0  0  0  0  0  0
   10.4363  -17.3425   24.3620 N   0  0  0  0  0  0  0  0  0  0  0  0
   11.1096  -17.7306   25.6054 C   0  0  1  0  0  0  0  0  0  0  0  0
   10.0971  -18.1192   26.6527 C   0  0  0  0  0  0  0  0  0  0  0  0
    9.3647  -16.8982   27.0753 C   0  0  0  0  0  0  0  0  0  0  0  0
    8.0253  -16.6263   26.8069 C   0  0  0  0  0  0  0  0  0  0  0  0
    7.7114  -15.4351   27.3379 N   0  0  0  0  0  0  0  0  0  0  0  0
    8.7814  -14.8947   27.9514 C   0  0  0  0  0  0  0  0  0  0  0  0
    8.9658  -13.7089   28.6334 C   0  0  0  0  0  0  0  0  0  0  0  0
   10.1932  -13.3931   29.1772 C   0  0  0  0  0  0  0  0  0  0  0  0
   11.2093  -14.3090   29.0070 C   0  0  0  0  0  0  0  0  0  0  0  0
   11.0356  -15.5045   28.3232 C   0  0  0  0  0  0  0  0  0  0  0  0
    9.8099  -15.8032   27.7888 C   0  0  0  0  0  0  0  0  0  0  0  0
   12.0859  -18.8177   25.3537 C   0  0  0  0  0  0  0  0  0  0  0  0
   12.1901  -19.3178   24.1976 O   0  0  0  0  0  0  0  0  0  0  0  0
   12.9110  -19.3305   26.3344 O   0  0  0  0  0  0  0  0  0  0  0  0
  2  1  1  1
  3  2  1  0
  4  6  1  0
  4  5  1  6
  4  2  1  0
  6  7  2  0
  8  9  1  0
  8  6  1  0
  9 20  1  0
 10 11  1  0
  9 10  1  1
 11 19  1  0
 12 11  2  0
 12 13  1  0
 13 14  1  0
 14 15  2  0
 15 16  1  0
 17 16  2  0
 18 17  1  0
 19 18  2  0
 19 14  1  0
 20 21  2  0
 20 22  1  0
 22 23  1  0
 23 34  1  0
 23 24  1  1
 25 24  1  0
 26 25  2  0
 27 28  1  0
 27 26  1  0
 28 33  2  0
 29 28  1  0
 29 30  2  0
 30 31  1  0
 31 32  2  0
 33 25  1  0
 33 32  1  0
 34 35  2  0
 34 36  1  0
M  END
$$$$
