VWW.pdb
     RDKit          3D

 36 39  0  0  1  0  0  0  0  0999 V2000
   11.7588  -19.9404   22.2165 C   0  0  0  0  0  0  0  0  0  0  0  0
   10.2431  -20.0105   22.1079 C   0  0  2  0  0  0  0  0  0  0  0  0
    9.8647  -21.3747   21.5865 C   0  0  0  0  0  0  0  0  0  0  0  0
    9.7961  -18.9927   21.0755 C   0  0  2  0  0  0  0  0  0  0  0  0
   10.5072  -19.2606   19.8488 N   0  0  0  0  0  0  0  0  0  0  0  0
   10.1074  -17.6117   21.5117 C   0  0  0  0  0  0  0  0  0  0  0  0
   11.1854  -17.0809   21.1496 O   0  0  0  0  0  0  0  0  0  0  0  0
    9.1599  -16.9376   22.3322 N   0  0  0  0  0  0  0  0  0  0  0  0
    9.4084  -15.5978   22.7590 C   0  0  1  0  0  0  0  0  0  0  0  0
    8.1821  -14.7200   22.7022 C   0  0  0  0  0  0  0  0  0  0  0  0
    7.5334  -14.7056   21.3991 C   0  0  0  0  0  0  0  0  0  0  0  0
    6.5014  -15.4855   20.9758 C   0  0  0  0  0  0  0  0  0  0  0  0
    6.1714  -15.1803   19.7014 N   0  0  0  0  0  0  0  0  0  0  0  0
    7.0051  -14.1831   19.2890 C   0  0  0  0  0  0  0  0  0  0  0  0
    7.0948  -13.5121   18.0864 C   0  0  0  0  0  0  0  0  0  0  0  0
    8.0715  -12.5379   18.0016 C   0  0  0  0  0  0  0  0  0  0  0  0
    8.9204  -12.2254   19.0259 C   0  0  0  0  0  0  0  0  0  0  0  0
    8.8193  -12.9018   20.2171 C   0  0  0  0  0  0  0  0  0  0  0  0
    7.8612  -13.8801   20.3464 C   0  0  0  0  0  0  0  0  0  0  0  0
    9.8148  -15.6503   24.1994 C   0  0  0  0  0  0  0  0  0  0  0  0
   10.3523  -14.6358   24.7354 O   0  0  0  0  0  0  0  0  0  0  0  0
    9.6243  -16.7902   24.9974 N   0  0  0  0  0  0  0  0  0  0  0  0
   10.0906  -16.7860   26.3875 C   0  0  1  0  0  0  0  0  0  0  0  0
    8.9215  -16.8804   27.3348 C   0  0  0  0  0  0  0  0  0  0  0  0
    7.8933  -15.8951   26.9133 C   0  0  0  0  0  0  0  0  0  0  0  0
    6.6659  -16.2066   26.3332 C   0  0  0  0  0  0  0  0  0  0  0  0
    6.0043  -15.0667   26.0836 N   0  0  0  0  0  0  0  0  0  0  0  0
    6.7333  -14.0028   26.4709 C   0  0  0  0  0  0  0  0  0  0  0  0
    6.4962  -12.6437   26.4282 C   0  0  0  0  0  0  0  0  0  0  0  0
    7.4333  -11.7504   26.9032 C   0  0  0  0  0  0  0  0  0  0  0  0
    8.5998  -12.2774   27.4148 C   0  0  0  0  0  0  0  0  0  0  0  0
    8.8492  -13.6421   27.4629 C   0  0  0  0  0  0  0  0  0  0  0  0
    7.9079  -14.5164   26.9868 C   0  0  0  0  0  0  0  0  0  0  0  0
   11.0711  -17.8748   26.6131 C   0  0  0  0  0  0  0  0  0  0  0  0
   11.6254  -18.0018   27.7419 O   0  0  0  0  0  0  0  0  0  0  0  0
   11.4247  -18.7838   25.6363 O   0  0  0  0  0  0  0  0  0  0  0  0
  2  1  1  6
  3  2  1  0
  4  6  1  0
  4  5  1  6
  4  2  1  0
  6  7  2  0
  8  9  1  0
  8  6  1  0
  9 20  1  0
 10 11  1  0
  9 10  1  1
 11 19  1  0
 12 11  2  0
 12 13  1  0
 13 14  1  0
 14 15  2  0
 15 16  1  0
 17 16  2  0
 18 17  1  0
 19 18  2  0
 19 14  1  0
 20 21  2  0
 20 22  1  0
 22 23  1  0
 23 34  1  0
 23 24  1  1
 25 24  1  0
 26 25  2  0
 27 28  1  0
 27 26  1  0
 28 33  2  0
 29 28  1  0
 29 30  2  0
 30 31  1  0
 31 32  2  0
 33 25  1  0
 33 32  1  0
 34 35  2  0
 34 36  1  0
M  END
$$$$
