VWW.pdb
     RDKit          3D

 36 39  0  0  1  0  0  0  0  0999 V2000
   10.9740  -18.7542   16.6861 C   0  0  0  0  0  0  0  0  0  0  0  0
   10.9474  -18.1784   18.0939 C   0  0  2  0  0  0  0  0  0  0  0  0
   11.1290  -19.3095   19.0756 C   0  0  0  0  0  0  0  0  0  0  0  0
    9.5715  -17.5868   18.3361 C   0  0  2  0  0  0  0  0  0  0  0  0
    9.3126  -16.6207   17.2960 N   0  0  0  0  0  0  0  0  0  0  0  0
    9.5040  -16.9009   19.6474 C   0  0  0  0  0  0  0  0  0  0  0  0
   10.3032  -15.9652   19.8934 O   0  0  0  0  0  0  0  0  0  0  0  0
    8.5246  -17.3373   20.5831 N   0  0  0  0  0  0  0  0  0  0  0  0
    8.3836  -16.6668   21.8360 C   0  0  1  0  0  0  0  0  0  0  0  0
    6.9978  -16.7883   22.4212 C   0  0  0  0  0  0  0  0  0  0  0  0
    6.8696  -16.2008   23.7469 C   0  0  0  0  0  0  0  0  0  0  0  0
    6.6664  -16.8483   24.9267 C   0  0  0  0  0  0  0  0  0  0  0  0
    6.6012  -15.9629   25.9455 N   0  0  0  0  0  0  0  0  0  0  0  0
    6.7652  -14.7164   25.4172 C   0  0  0  0  0  0  0  0  0  0  0  0
    6.7824  -13.4716   26.0128 C   0  0  0  0  0  0  0  0  0  0  0  0
    6.9746  -12.3934   25.1696 C   0  0  0  0  0  0  0  0  0  0  0  0
    7.1419  -12.5092   23.8183 C   0  0  0  0  0  0  0  0  0  0  0  0
    7.1224  -13.7548   23.2396 C   0  0  0  0  0  0  0  0  0  0  0  0
    6.9338  -14.8567   24.0408 C   0  0  0  0  0  0  0  0  0  0  0  0
    9.3055  -17.3320   22.8108 C   0  0  0  0  0  0  0  0  0  0  0  0
    9.5095  -18.5798   22.7278 O   0  0  0  0  0  0  0  0  0  0  0  0
    9.9659  -16.6257   23.8293 N   0  0  0  0  0  0  0  0  0  0  0  0
   11.0855  -17.2548   24.5368 C   0  0  1  0  0  0  0  0  0  0  0  0
   11.8047  -16.2411   25.3902 C   0  0  0  0  0  0  0  0  0  0  0  0
   11.0557  -16.0805   26.6625 C   0  0  0  0  0  0  0  0  0  0  0  0
   10.7942  -17.0957   27.5795 C   0  0  0  0  0  0  0  0  0  0  0  0
   10.0931  -16.5841   28.6023 N   0  0  0  0  0  0  0  0  0  0  0  0
    9.8721  -15.2693   28.4127 C   0  0  0  0  0  0  0  0  0  0  0  0
    9.2144  -14.3159   29.1634 C   0  0  0  0  0  0  0  0  0  0  0  0
    9.1336  -13.0099   28.7281 C   0  0  0  0  0  0  0  0  0  0  0  0
    9.7346  -12.7114   27.5240 C   0  0  0  0  0  0  0  0  0  0  0  0
   10.3987  -13.6618   26.7606 C   0  0  0  0  0  0  0  0  0  0  0  0
   10.4699  -14.9550   27.2071 C   0  0  0  0  0  0  0  0  0  0  0  0
   10.6151  -18.4119   25.3355 C   0  0  0  0  0  0  0  0  0  0  0  0
    9.3832  -18.5496   25.5829 O   0  0  0  0  0  0  0  0  0  0  0  0
   11.4662  -19.3748   25.8392 O   0  0  0  0  0  0  0  0  0  0  0  0
  2  1  1  6
  3  2  1  0
  4  6  1  0
  4  5  1  6
  4  2  1  0
  6  7  2  0
  8  9  1  0
  8  6  1  0
  9 20  1  0
 10 11  1  0
  9 10  1  1
 11 19  1  0
 12 11  2  0
 12 13  1  0
 13 14  1  0
 14 15  2  0
 15 16  1  0
 17 16  2  0
 18 17  1  0
 19 18  2  0
 19 14  1  0
 20 21  2  0
 20 22  1  0
 22 23  1  0
 23 34  1  0
 23 24  1  1
 25 24  1  0
 26 25  2  0
 27 28  1  0
 27 26  1  0
 28 33  2  0
 29 28  1  0
 29 30  2  0
 30 31  1  0
 31 32  2  0
 33 25  1  0
 33 32  1  0
 34 35  2  0
 34 36  1  0
M  END
$$$$
