VWW.pdb
     RDKit          3D

 36 39  0  0  1  0  0  0  0  0999 V2000
   10.7387  -20.6316   22.3038 C   0  0  0  0  0  0  0  0  0  0  0  0
    9.2380  -20.3911   22.2383 C   0  0  2  0  0  0  0  0  0  0  0  0
    8.5685  -21.6696   21.7987 C   0  0  0  0  0  0  0  0  0  0  0  0
    8.9728  -19.3508   21.1662 C   0  0  2  0  0  0  0  0  0  0  0  0
    9.4885  -19.8570   19.9172 N   0  0  0  0  0  0  0  0  0  0  0  0
    9.6537  -18.0725   21.4768 C   0  0  0  0  0  0  0  0  0  0  0  0
   10.8190  -17.8781   21.0535 O   0  0  0  0  0  0  0  0  0  0  0  0
    8.9495  -17.1080   22.2509 N   0  0  0  0  0  0  0  0  0  0  0  0
    9.5671  -15.8620   22.5752 C   0  0  1  0  0  0  0  0  0  0  0  0
    8.5844  -14.7210   22.6747 C   0  0  0  0  0  0  0  0  0  0  0  0
    7.7929  -14.5244   21.4689 C   0  0  0  0  0  0  0  0  0  0  0  0
    6.6664  -15.1913   21.0963 C   0  0  0  0  0  0  0  0  0  0  0  0
    6.2146  -14.7278   19.9101 N   0  0  0  0  0  0  0  0  0  0  0  0
    7.0639  -13.7411   19.5043 C   0  0  0  0  0  0  0  0  0  0  0  0
    7.0622  -12.9472   18.3755 C   0  0  0  0  0  0  0  0  0  0  0  0
    8.0892  -12.0279   18.2734 C   0  0  0  0  0  0  0  0  0  0  0  0
    9.0702  -11.8809   19.2133 C   0  0  0  0  0  0  0  0  0  0  0  0
    9.0590  -12.6783   20.3317 C   0  0  0  0  0  0  0  0  0  0  0  0
    8.0552  -13.6076   20.4751 C   0  0  0  0  0  0  0  0  0  0  0  0
   10.1800  -16.0016   23.9345 C   0  0  0  0  0  0  0  0  0  0  0  0
   11.0986  -15.2054   24.2915 O   0  0  0  0  0  0  0  0  0  0  0  0
    9.7770  -16.9898   24.8475 N   0  0  0  0  0  0  0  0  0  0  0  0
   10.3701  -17.0210   26.1880 C   0  0  1  0  0  0  0  0  0  0  0  0
   10.0681  -15.7419   26.9267 C   0  0  0  0  0  0  0  0  0  0  0  0
    8.6313  -15.4169   26.7373 C   0  0  0  0  0  0  0  0  0  0  0  0
    7.6351  -16.3286   26.3963 C   0  0  0  0  0  0  0  0  0  0  0  0
    6.4653  -15.6778   26.3090 N   0  0  0  0  0  0  0  0  0  0  0  0
    6.6320  -14.3686   26.5766 C   0  0  0  0  0  0  0  0  0  0  0  0
    5.7531  -13.3051   26.6162 C   0  0  0  0  0  0  0  0  0  0  0  0
    6.1967  -12.0364   26.9253 C   0  0  0  0  0  0  0  0  0  0  0  0
    7.5418  -11.8888   27.1885 C   0  0  0  0  0  0  0  0  0  0  0  0
    8.4348  -12.9508   27.1517 C   0  0  0  0  0  0  0  0  0  0  0  0
    7.9781  -14.2050   26.8429 C   0  0  0  0  0  0  0  0  0  0  0  0
    9.9050  -18.2125   26.9377 C   0  0  0  0  0  0  0  0  0  0  0  0
    9.0328  -18.9755   26.4331 O   0  0  0  0  0  0  0  0  0  0  0  0
   10.3813  -18.5475   28.1893 O   0  0  0  0  0  0  0  0  0  0  0  0
  2  1  1  6
  3  2  1  0
  4  6  1  0
  4  5  1  6
  4  2  1  0
  6  7  2  0
  8  9  1  0
  8  6  1  0
  9 20  1  0
 10 11  1  0
  9 10  1  1
 11 19  1  0
 12 11  2  0
 12 13  1  0
 13 14  1  0
 14 15  2  0
 15 16  1  0
 17 16  2  0
 18 17  1  0
 19 18  2  0
 19 14  1  0
 20 21  2  0
 20 22  1  0
 22 23  1  0
 23 34  1  0
 23 24  1  1
 25 24  1  0
 26 25  2  0
 27 28  1  0
 27 26  1  0
 28 33  2  0
 29 28  1  0
 29 30  2  0
 30 31  1  0
 31 32  2  0
 33 25  1  0
 33 32  1  0
 34 35  2  0
 34 36  1  0
M  END
$$$$
