VWW.pdb
     RDKit          3D

 36 39  0  0  1  0  0  0  0  0999 V2000
   10.2096  -20.9124   18.2125 C   0  0  0  0  0  0  0  0  0  0  0  0
   10.7921  -20.1011   19.3598 C   0  0  2  0  0  0  0  0  0  0  0  0
   10.7412  -20.9408   20.6122 C   0  0  0  0  0  0  0  0  0  0  0  0
    9.8988  -18.8962   19.5875 C   0  0  2  0  0  0  0  0  0  0  0  0
    9.8377  -18.1478   18.3552 N   0  0  0  0  0  0  0  0  0  0  0  0
   10.4412  -18.0172   20.6493 C   0  0  0  0  0  0  0  0  0  0  0  0
   11.6682  -17.7543   20.6624 O   0  0  0  0  0  0  0  0  0  0  0  0
    9.5375  -17.5022   21.6206 N   0  0  0  0  0  0  0  0  0  0  0  0
   10.0213  -16.6787   22.6822 C   0  0  1  0  0  0  0  0  0  0  0  0
    9.3988  -15.3040   22.6974 C   0  0  0  0  0  0  0  0  0  0  0  0
    9.5324  -14.5879   21.4370 C   0  0  0  0  0  0  0  0  0  0  0  0
   10.6787  -14.2995   20.7624 C   0  0  0  0  0  0  0  0  0  0  0  0
   10.4001  -13.6201   19.6279 N   0  0  0  0  0  0  0  0  0  0  0  0
    9.0469  -13.4643   19.5645 C   0  0  0  0  0  0  0  0  0  0  0  0
    8.2455  -12.8503   18.6235 C   0  0  0  0  0  0  0  0  0  0  0  0
    6.8858  -12.8731   18.8705 C   0  0  0  0  0  0  0  0  0  0  0  0
    6.3256  -13.4589   19.9707 C   0  0  0  0  0  0  0  0  0  0  0  0
    7.1360  -14.0661   20.8988 C   0  0  0  0  0  0  0  0  0  0  0  0
    8.4960  -14.0675   20.6938 C   0  0  0  0  0  0  0  0  0  0  0  0
    9.6268  -17.3272   23.9731 C   0  0  0  0  0  0  0  0  0  0  0  0
    8.4347  -17.7250   24.1349 O   0  0  0  0  0  0  0  0  0  0  0  0
   10.5314  -17.5188   25.0301 N   0  0  0  0  0  0  0  0  0  0  0  0
   10.3910  -16.7253   26.2550 C   0  0  1  0  0  0  0  0  0  0  0  0
   10.1337  -15.2785   25.9178 C   0  0  0  0  0  0  0  0  0  0  0  0
    8.6861  -15.0023   26.1020 C   0  0  0  0  0  0  0  0  0  0  0  0
    7.6588  -15.9262   25.9257 C   0  0  0  0  0  0  0  0  0  0  0  0
    6.4871  -15.3223   26.1748 N   0  0  0  0  0  0  0  0  0  0  0  0
    6.6823  -14.0330   26.5110 C   0  0  0  0  0  0  0  0  0  0  0  0
    5.8137  -13.0156   26.8511 C   0  0  0  0  0  0  0  0  0  0  0  0
    6.2886  -11.7579   27.1585 C   0  0  0  0  0  0  0  0  0  0  0  0
    7.6538  -11.5734   27.1094 C   0  0  0  0  0  0  0  0  0  0  0  0
    8.5368  -12.5889   26.7688 C   0  0  0  0  0  0  0  0  0  0  0  0
    8.0489  -13.8328   26.4660 C   0  0  0  0  0  0  0  0  0  0  0  0
    9.3269  -17.2859   27.1218 C   0  0  0  0  0  0  0  0  0  0  0  0
    9.2447  -16.9296   28.3317 O   0  0  0  0  0  0  0  0  0  0  0  0
    8.3944  -18.1997   26.6736 O   0  0  0  0  0  0  0  0  0  0  0  0
  2  1  1  6
  3  2  1  0
  4  6  1  0
  4  5  1  6
  4  2  1  0
  6  7  2  0
  8  9  1  0
  8  6  1  0
  9 20  1  0
 10 11  1  0
  9 10  1  6
 11 19  1  0
 12 11  2  0
 12 13  1  0
 13 14  1  0
 14 15  2  0
 15 16  1  0
 17 16  2  0
 18 17  1  0
 19 18  2  0
 19 14  1  0
 20 21  2  0
 20 22  1  0
 22 23  1  0
 23 34  1  0
 23 24  1  6
 25 24  1  0
 26 25  2  0
 27 28  1  0
 27 26  1  0
 28 33  2  0
 29 28  1  0
 29 30  2  0
 30 31  1  0
 31 32  2  0
 33 25  1  0
 33 32  1  0
 34 35  2  0
 34 36  1  0
M  END
$$$$
