VWW.pdb
     RDKit          3D

 36 39  0  0  1  0  0  0  0  0999 V2000
    7.2459  -12.9852   19.9446 C   0  0  0  0  0  0  0  0  0  0  0  0
    8.4245  -13.2490   19.0198 C   0  0  2  0  0  0  0  0  0  0  0  0
    7.9194  -13.2754   17.5984 C   0  0  0  0  0  0  0  0  0  0  0  0
    8.9692  -14.6304   19.3311 C   0  0  2  0  0  0  0  0  0  0  0  0
    7.9374  -15.5938   19.0319 N   0  0  0  0  0  0  0  0  0  0  0  0
    9.3336  -14.7552   20.7615 C   0  0  0  0  0  0  0  0  0  0  0  0
   10.2345  -14.0194   21.2327 O   0  0  0  0  0  0  0  0  0  0  0  0
    8.6388  -15.7151   21.5496 N   0  0  0  0  0  0  0  0  0  0  0  0
    8.8284  -15.7512   22.9644 C   0  0  1  0  0  0  0  0  0  0  0  0
    7.7727  -16.5543   23.6842 C   0  0  0  0  0  0  0  0  0  0  0  0
    6.9015  -15.7502   24.5289 C   0  0  0  0  0  0  0  0  0  0  0  0
    5.7806  -16.1524   25.1880 C   0  0  0  0  0  0  0  0  0  0  0  0
    5.2395  -15.1201   25.8717 N   0  0  0  0  0  0  0  0  0  0  0  0
    6.0239  -14.0263   25.6525 C   0  0  0  0  0  0  0  0  0  0  0  0
    5.9222  -12.7281   26.1097 C   0  0  0  0  0  0  0  0  0  0  0  0
    6.9050  -11.8529   25.6875 C   0  0  0  0  0  0  0  0  0  0  0  0
    7.9355  -12.2111   24.8646 C   0  0  0  0  0  0  0  0  0  0  0  0
    8.0237  -13.5069   24.4174 C   0  0  0  0  0  0  0  0  0  0  0  0
    7.0669  -14.4125   24.8124 C   0  0  0  0  0  0  0  0  0  0  0  0
   10.1292  -16.4447   23.2285 C   0  0  0  0  0  0  0  0  0  0  0  0
   10.6574  -17.1516   22.3192 O   0  0  0  0  0  0  0  0  0  0  0  0
   10.8026  -16.3461   24.4570 N   0  0  0  0  0  0  0  0  0  0  0  0
   12.1309  -16.9493   24.6042 C   0  0  1  0  0  0  0  0  0  0  0  0
   12.8676  -16.3231   25.7610 C   0  0  0  0  0  0  0  0  0  0  0  0
   12.0073  -16.4082   26.9686 C   0  0  0  0  0  0  0  0  0  0  0  0
   11.6127  -17.5864   27.5978 C   0  0  0  0  0  0  0  0  0  0  0  0
   10.8400  -17.2767   28.6497 N   0  0  0  0  0  0  0  0  0  0  0  0
   10.6982  -15.9417   28.7549 C   0  0  0  0  0  0  0  0  0  0  0  0
   10.0150  -15.1435   29.6500 C   0  0  0  0  0  0  0  0  0  0  0  0
   10.0360  -13.7702   29.5268 C   0  0  0  0  0  0  0  0  0  0  0  0
   10.7633  -13.2450   28.4802 C   0  0  0  0  0  0  0  0  0  0  0  0
   11.4543  -14.0377   27.5741 C   0  0  0  0  0  0  0  0  0  0  0  0
   11.4234  -15.4006   27.7103 C   0  0  0  0  0  0  0  0  0  0  0  0
   12.0233  -18.4205   24.7517 C   0  0  0  0  0  0  0  0  0  0  0  0
   13.0656  -19.1352   24.7309 O   0  0  0  0  0  0  0  0  0  0  0  0
   10.8188  -19.0747   24.9151 O   0  0  0  0  0  0  0  0  0  0  0  0
  2  1  1  1
  3  2  1  0
  4  6  1  0
  4  5  1  1
  4  2  1  0
  6  7  2  0
  8  9  1  0
  8  6  1  0
  9 20  1  0
 10 11  1  0
  9 10  1  1
 11 19  1  0
 12 11  2  0
 12 13  1  0
 13 14  1  0
 14 15  2  0
 15 16  1  0
 17 16  2  0
 18 17  1  0
 19 18  2  0
 19 14  1  0
 20 21  2  0
 20 22  1  0
 22 23  1  0
 23 34  1  0
 23 24  1  1
 25 24  1  0
 26 25  2  0
 27 28  1  0
 27 26  1  0
 28 33  2  0
 29 28  1  0
 29 30  2  0
 30 31  1  0
 31 32  2  0
 33 25  1  0
 33 32  1  0
 34 35  2  0
 34 36  1  0
M  END
$$$$
