VWW.pdb
     RDKit          3D

 36 39  0  0  1  0  0  0  0  0999 V2000
    8.6016  -20.1578   19.8012 C   0  0  0  0  0  0  0  0  0  0  0  0
    9.5378  -21.1761   20.4342 C   0  0  2  0  0  0  0  0  0  0  0  0
    8.7395  -22.4092   20.7781 C   0  0  0  0  0  0  0  0  0  0  0  0
   10.0556  -20.5956   21.7368 C   0  0  2  0  0  0  0  0  0  0  0  0
    8.9315  -20.4203   22.6244 N   0  0  0  0  0  0  0  0  0  0  0  0
   10.6989  -19.2789   21.5209 C   0  0  0  0  0  0  0  0  0  0  0  0
   11.7321  -19.2083   20.8121 O   0  0  0  0  0  0  0  0  0  0  0  0
   10.1112  -18.1366   22.1335 N   0  0  0  0  0  0  0  0  0  0  0  0
   10.7797  -16.8757   22.0853 C   0  0  1  0  0  0  0  0  0  0  0  0
   10.0382  -15.8418   21.2736 C   0  0  0  0  0  0  0  0  0  0  0  0
    8.6654  -15.6309   21.7096 C   0  0  0  0  0  0  0  0  0  0  0  0
    7.7080  -16.5737   21.9263 C   0  0  0  0  0  0  0  0  0  0  0  0
    6.5552  -15.9923   22.3251 N   0  0  0  0  0  0  0  0  0  0  0  0
    6.7679  -14.6460   22.3683 C   0  0  0  0  0  0  0  0  0  0  0  0
    5.9297  -13.6035   22.7079 C   0  0  0  0  0  0  0  0  0  0  0  0
    6.4750  -12.3351   22.6433 C   0  0  0  0  0  0  0  0  0  0  0  0
    7.7651  -12.0835   22.2695 C   0  0  0  0  0  0  0  0  0  0  0  0
    8.5877  -13.1313   21.9342 C   0  0  0  0  0  0  0  0  0  0  0  0
    8.0870  -14.4113   21.9842 C   0  0  0  0  0  0  0  0  0  0  0  0
   10.8387  -16.3417   23.4832 C   0  0  0  0  0  0  0  0  0  0  0  0
   11.4801  -15.2747   23.7189 O   0  0  0  0  0  0  0  0  0  0  0  0
   10.2053  -16.9785   24.5629 N   0  0  0  0  0  0  0  0  0  0  0  0
   10.5918  -16.6325   25.9343 C   0  0  1  0  0  0  0  0  0  0  0  0
    9.4051  -16.7395   26.8581 C   0  0  0  0  0  0  0  0  0  0  0  0
    8.3238  -15.8639   26.3388 C   0  0  0  0  0  0  0  0  0  0  0  0
    7.1812  -16.3002   25.6723 C   0  0  0  0  0  0  0  0  0  0  0  0
    6.4353  -15.2331   25.3494 N   0  0  0  0  0  0  0  0  0  0  0  0
    7.0267  -14.0986   25.7699 C   0  0  0  0  0  0  0  0  0  0  0  0
    6.6649  -12.7696   25.6814 C   0  0  0  0  0  0  0  0  0  0  0  0
    7.4722  -11.7837   26.2088 C   0  0  0  0  0  0  0  0  0  0  0  0
    8.6399  -12.1886   26.8193 C   0  0  0  0  0  0  0  0  0  0  0  0
    9.0139  -13.5220   26.9143 C   0  0  0  0  0  0  0  0  0  0  0  0
    8.2008  -14.4894   26.3851 C   0  0  0  0  0  0  0  0  0  0  0  0
   11.7209  -17.4791   26.3885 C   0  0  0  0  0  0  0  0  0  0  0  0
   12.2401  -17.2836   27.5242 O   0  0  0  0  0  0  0  0  0  0  0  0
   12.2539  -18.4970   25.6233 O   0  0  0  0  0  0  0  0  0  0  0  0
  2  1  1  1
  3  2  1  0
  4  6  1  0
  4  5  1  1
  4  2  1  0
  6  7  2  0
  8  9  1  0
  8  6  1  0
  9 20  1  0
 10 11  1  0
  9 10  1  6
 11 19  1  0
 12 11  2  0
 12 13  1  0
 13 14  1  0
 14 15  2  0
 15 16  1  0
 17 16  2  0
 18 17  1  0
 19 18  2  0
 19 14  1  0
 20 21  2  0
 20 22  1  0
 22 23  1  0
 23 34  1  0
 23 24  1  1
 25 24  1  0
 26 25  2  0
 27 28  1  0
 27 26  1  0
 28 33  2  0
 29 28  1  0
 29 30  2  0
 30 31  1  0
 31 32  2  0
 33 25  1  0
 33 32  1  0
 34 35  2  0
 34 36  1  0
M  END
$$$$
