VWW.pdb
     RDKit          3D

 36 39  0  0  1  0  0  0  0  0999 V2000
    6.9421  -13.1139   21.4849 C   0  0  0  0  0  0  0  0  0  0  0  0
    7.7762  -13.4073   20.2471 C   0  0  2  0  0  0  0  0  0  0  0  0
    6.8560  -13.4583   19.0526 C   0  0  0  0  0  0  0  0  0  0  0  0
    8.3872  -14.7869   20.4055 C   0  0  2  0  0  0  0  0  0  0  0  0
    7.3104  -15.7418   20.5098 N   0  0  0  0  0  0  0  0  0  0  0  0
    9.2155  -14.8710   21.6308 C   0  0  0  0  0  0  0  0  0  0  0  0
   10.1872  -14.0893   21.7707 O   0  0  0  0  0  0  0  0  0  0  0  0
    8.8701  -15.8458   22.6084 N   0  0  0  0  0  0  0  0  0  0  0  0
    9.7662  -16.1294   23.6834 C   0  0  1  0  0  0  0  0  0  0  0  0
    9.0862  -16.1595   25.0303 C   0  0  0  0  0  0  0  0  0  0  0  0
    7.8149  -15.4509   25.0593 C   0  0  0  0  0  0  0  0  0  0  0  0
    6.5689  -15.9720   24.8916 C   0  0  0  0  0  0  0  0  0  0  0  0
    5.6346  -15.0003   24.9859 N   0  0  0  0  0  0  0  0  0  0  0  0
    6.2863  -13.8254   25.2192 C   0  0  0  0  0  0  0  0  0  0  0  0
    5.8114  -12.5415   25.3944 C   0  0  0  0  0  0  0  0  0  0  0  0
    6.7623  -11.5633   25.6161 C   0  0  0  0  0  0  0  0  0  0  0  0
    8.1054  -11.8101   25.6663 C   0  0  0  0  0  0  0  0  0  0  0  0
    8.5633  -13.0931   25.4900 C   0  0  0  0  0  0  0  0  0  0  0  0
    7.6522  -14.0989   25.2665 C   0  0  0  0  0  0  0  0  0  0  0  0
   10.3139  -17.5058   23.4641 C   0  0  0  0  0  0  0  0  0  0  0  0
    9.5305  -18.4463   23.1370 O   0  0  0  0  0  0  0  0  0  0  0  0
   11.6782  -17.8079   23.6059 N   0  0  0  0  0  0  0  0  0  0  0  0
   12.3604  -17.4978   24.8662 C   0  0  1  0  0  0  0  0  0  0  0  0
   11.7720  -16.2586   25.4916 C   0  0  0  0  0  0  0  0  0  0  0  0
   11.5531  -16.5194   26.9373 C   0  0  0  0  0  0  0  0  0  0  0  0
   11.6155  -17.7680   27.5512 C   0  0  0  0  0  0  0  0  0  0  0  0
   11.3606  -17.6193   28.8598 N   0  0  0  0  0  0  0  0  0  0  0  0
   11.1299  -16.3252   29.1521 C   0  0  0  0  0  0  0  0  0  0  0  0
   10.8297  -15.6741   30.3315 C   0  0  0  0  0  0  0  0  0  0  0  0
   10.6378  -14.3086   30.3527 C   0  0  0  0  0  0  0  0  0  0  0  0
   10.7600  -13.6391   29.1539 C   0  0  0  0  0  0  0  0  0  0  0  0
   11.0617  -14.2832   27.9618 C   0  0  0  0  0  0  0  0  0  0  0  0
   11.2492  -15.6403   27.9577 C   0  0  0  0  0  0  0  0  0  0  0  0
   12.3078  -18.6576   25.7880 C   0  0  0  0  0  0  0  0  0  0  0  0
   11.2108  -18.9939   26.3181 O   0  0  0  0  0  0  0  0  0  0  0  0
   13.4169  -19.4134   26.1110 O   0  0  0  0  0  0  0  0  0  0  0  0
  2  1  1  1
  3  2  1  0
  4  6  1  0
  4  5  1  1
  4  2  1  0
  6  7  2  0
  8  9  1  0
  8  6  1  0
  9 20  1  0
 10 11  1  0
  9 10  1  1
 11 19  1  0
 12 11  2  0
 12 13  1  0
 13 14  1  0
 14 15  2  0
 15 16  1  0
 17 16  2  0
 18 17  1  0
 19 18  2  0
 19 14  1  0
 20 21  2  0
 20 22  1  0
 22 23  1  0
 23 34  1  0
 23 24  1  1
 25 24  1  0
 26 25  2  0
 27 28  1  0
 27 26  1  0
 28 33  2  0
 29 28  1  0
 29 30  2  0
 30 31  1  0
 31 32  2  0
 33 25  1  0
 33 32  1  0
 34 35  2  0
 34 36  1  0
M  END
$$$$
