VWW.pdb
     RDKit          3D

 36 39  0  0  1  0  0  0  0  0999 V2000
    7.9094  -20.2083   19.6447 C   0  0  0  0  0  0  0  0  0  0  0  0
    8.7368  -19.1246   20.3192 C   0  0  2  0  0  0  0  0  0  0  0  0
    8.5975  -19.2784   21.8135 C   0  0  0  0  0  0  0  0  0  0  0  0
    8.1450  -17.7782   19.9467 C   0  0  2  0  0  0  0  0  0  0  0  0
    8.1994  -17.6496   18.5105 N   0  0  0  0  0  0  0  0  0  0  0  0
    8.9147  -16.6663   20.5515 C   0  0  0  0  0  0  0  0  0  0  0  0
    9.9971  -16.3106   20.0254 O   0  0  0  0  0  0  0  0  0  0  0  0
    8.3880  -16.0415   21.7166 N   0  0  0  0  0  0  0  0  0  0  0  0
    9.1532  -15.0523   22.4057 C   0  0  1  0  0  0  0  0  0  0  0  0
    8.3512  -13.8249   22.7635 C   0  0  0  0  0  0  0  0  0  0  0  0
    7.5853  -13.9652   23.9935 C   0  0  0  0  0  0  0  0  0  0  0  0
    6.9419  -15.0744   24.4500 C   0  0  0  0  0  0  0  0  0  0  0  0
    6.3395  -14.8172   25.6319 N   0  0  0  0  0  0  0  0  0  0  0  0
    6.5963  -13.5160   25.9491 C   0  0  0  0  0  0  0  0  0  0  0  0
    6.2202  -12.7540   27.0366 C   0  0  0  0  0  0  0  0  0  0  0  0
    6.6600  -11.4437   27.0459 C   0  0  0  0  0  0  0  0  0  0  0  0
    7.4248  -10.8945   26.0556 C   0  0  0  0  0  0  0  0  0  0  0  0
    7.7913  -11.6652   24.9793 C   0  0  0  0  0  0  0  0  0  0  0  0
    7.3760  -12.9754   24.9281 C   0  0  0  0  0  0  0  0  0  0  0  0
    9.5994  -15.6497   23.7045 C   0  0  0  0  0  0  0  0  0  0  0  0
    8.7464  -15.8826   24.6120 O   0  0  0  0  0  0  0  0  0  0  0  0
   10.9413  -15.9697   23.9678 N   0  0  0  0  0  0  0  0  0  0  0  0
   11.3713  -16.2032   25.3500 C   0  0  1  0  0  0  0  0  0  0  0  0
   10.7106  -17.4397   25.9046 C   0  0  0  0  0  0  0  0  0  0  0  0
   11.0728  -18.5938   25.0428 C   0  0  0  0  0  0  0  0  0  0  0  0
   12.2968  -18.7706   24.4021 C   0  0  0  0  0  0  0  0  0  0  0  0
   12.2608  -19.9200   23.7114 N   0  0  0  0  0  0  0  0  0  0  0  0
   11.0661  -20.5233   23.8602 C   0  0  0  0  0  0  0  0  0  0  0  0
   10.5474  -21.7016   23.3624 C   0  0  0  0  0  0  0  0  0  0  0  0
    9.2641  -22.0950   23.6789 C   0  0  0  0  0  0  0  0  0  0  0  0
    8.5387  -21.2635   24.5051 C   0  0  0  0  0  0  0  0  0  0  0  0
    9.0498  -20.0765   25.0116 C   0  0  0  0  0  0  0  0  0  0  0  0
   10.3266  -19.6999   24.6876 C   0  0  0  0  0  0  0  0  0  0  0  0
   12.8493  -16.2857   25.4306 C   0  0  0  0  0  0  0  0  0  0  0  0
   13.4117  -16.4688   26.5476 O   0  0  0  0  0  0  0  0  0  0  0  0
   13.6710  -16.1712   24.3273 O   0  0  0  0  0  0  0  0  0  0  0  0
  2  1  1  6
  3  2  1  0
  4  6  1  0
  4  5  1  6
  4  2  1  0
  6  7  2  0
  8  9  1  0
  8  6  1  0
  9 20  1  0
 10 11  1  0
  9 10  1  1
 11 19  1  0
 12 11  2  0
 12 13  1  0
 13 14  1  0
 14 15  2  0
 15 16  1  0
 17 16  2  0
 18 17  1  0
 19 18  2  0
 19 14  1  0
 20 21  2  0
 20 22  1  0
 22 23  1  0
 23 34  1  0
 23 24  1  6
 25 24  1  0
 26 25  2  0
 27 28  1  0
 27 26  1  0
 28 33  2  0
 29 28  1  0
 29 30  2  0
 30 31  1  0
 31 32  2  0
 33 25  1  0
 33 32  1  0
 34 35  2  0
 34 36  1  0
M  END
$$$$
