VWW.pdb
     RDKit          3D

 36 39  0  0  1  0  0  0  0  0999 V2000
    9.1491  -18.1078   18.0832 C   0  0  0  0  0  0  0  0  0  0  0  0
   10.2802  -19.0066   18.5596 C   0  0  2  0  0  0  0  0  0  0  0  0
   10.0667  -20.3862   17.9877 C   0  0  0  0  0  0  0  0  0  0  0  0
   10.1860  -19.1241   20.0693 C   0  0  2  0  0  0  0  0  0  0  0  0
    8.9434  -19.7849   20.3880 N   0  0  0  0  0  0  0  0  0  0  0  0
   10.1926  -17.7905   20.7142 C   0  0  0  0  0  0  0  0  0  0  0  0
   11.1062  -16.9770   20.4345 O   0  0  0  0  0  0  0  0  0  0  0  0
    9.1505  -17.4850   21.6341 N   0  0  0  0  0  0  0  0  0  0  0  0
    9.1351  -16.2242   22.3044 C   0  0  1  0  0  0  0  0  0  0  0  0
    7.7458  -15.7676   22.6773 C   0  0  0  0  0  0  0  0  0  0  0  0
    7.6933  -14.3997   23.1724 C   0  0  0  0  0  0  0  0  0  0  0  0
    8.1250  -13.2716   22.5451 C   0  0  0  0  0  0  0  0  0  0  0  0
    7.9070  -12.1874   23.3215 N   0  0  0  0  0  0  0  0  0  0  0  0
    7.3226  -12.6195   24.4754 C   0  0  0  0  0  0  0  0  0  0  0  0
    6.8980  -11.9302   25.5931 C   0  0  0  0  0  0  0  0  0  0  0  0
    6.3379  -12.6894   26.6031 C   0  0  0  0  0  0  0  0  0  0  0  0
    6.1941  -14.0469   26.5392 C   0  0  0  0  0  0  0  0  0  0  0  0
    6.6214  -14.7194   25.4204 C   0  0  0  0  0  0  0  0  0  0  0  0
    7.1854  -14.0039   24.3900 C   0  0  0  0  0  0  0  0  0  0  0  0
    9.8780  -16.3889   23.5942 C   0  0  0  0  0  0  0  0  0  0  0  0
    9.3861  -15.9207   24.6639 O   0  0  0  0  0  0  0  0  0  0  0  0
   11.1147  -17.0496   23.6750 N   0  0  0  0  0  0  0  0  0  0  0  0
   11.8778  -17.0054   24.9263 C   0  0  1  0  0  0  0  0  0  0  0  0
   11.1644  -17.7801   26.0051 C   0  0  0  0  0  0  0  0  0  0  0  0
   10.1346  -16.9001   26.6140 C   0  0  0  0  0  0  0  0  0  0  0  0
    8.7661  -17.1578   26.6422 C   0  0  0  0  0  0  0  0  0  0  0  0
    8.1485  -16.1449   27.2682 N   0  0  0  0  0  0  0  0  0  0  0  0
    9.0422  -15.2178   27.6621 C   0  0  0  0  0  0  0  0  0  0  0  0
    8.9086  -14.0178   28.3310 C   0  0  0  0  0  0  0  0  0  0  0  0
   10.0138  -13.2439   28.6159 C   0  0  0  0  0  0  0  0  0  0  0  0
   11.2389  -13.7238   28.2047 C   0  0  0  0  0  0  0  0  0  0  0  0
   11.3854  -14.9289   27.5315 C   0  0  0  0  0  0  0  0  0  0  0  0
   10.2773  -15.6860   27.2560 C   0  0  0  0  0  0  0  0  0  0  0  0
   13.2587  -17.5014   24.7141 C   0  0  0  0  0  0  0  0  0  0  0  0
   13.6264  -17.8734   23.5635 O   0  0  0  0  0  0  0  0  0  0  0  0
   14.1930  -17.5834   25.7269 O   0  0  0  0  0  0  0  0  0  0  0  0
  2  1  1  6
  3  2  1  0
  4  6  1  0
  4  5  1  6
  4  2  1  0
  6  7  2  0
  8  9  1  0
  8  6  1  0
  9 20  1  0
 10 11  1  0
  9 10  1  1
 11 19  1  0
 12 11  2  0
 12 13  1  0
 13 14  1  0
 14 15  2  0
 15 16  1  0
 17 16  2  0
 18 17  1  0
 19 18  2  0
 19 14  1  0
 20 21  2  0
 20 22  1  0
 22 23  1  0
 23 34  1  0
 23 24  1  1
 25 24  1  0
 26 25  2  0
 27 28  1  0
 27 26  1  0
 28 33  2  0
 29 28  1  0
 29 30  2  0
 30 31  1  0
 31 32  2  0
 33 25  1  0
 33 32  1  0
 34 35  2  0
 34 36  1  0
M  END
$$$$
