QVS.pdb
     RDKit          3D

 23 22  0  0  1  0  0  0  0  0999 V2000
   26.6878  -21.2158   -9.8654 N   0  0  0  0  0  0  0  0  0  0  0  0
   25.4090  -20.8777   -9.3445 C   0  0  0  0  0  0  0  0  0  0  0  0
   25.1525  -21.1391   -8.1526 O   0  0  0  0  0  0  0  0  0  0  0  0
   24.4085  -20.2352  -10.2035 C   0  0  0  0  0  0  0  0  0  0  0  0
   24.8901  -19.9308  -11.5894 C   0  0  0  0  0  0  0  0  0  0  0  0
   24.7261  -21.0880  -12.5109 C   0  0  2  0  0  0  0  0  0  0  0  0
   25.8296  -21.9901  -12.6128 N   0  0  0  0  0  0  0  0  0  0  0  0
   24.1921  -20.6519  -13.8493 C   0  0  0  0  0  0  0  0  0  0  0  0
   24.9875  -20.2226  -14.7358 O   0  0  0  0  0  0  0  0  0  0  0  0
   21.0887  -22.6524  -15.4687 C   0  0  0  0  0  0  0  0  0  0  0  0
   22.0933  -21.8545  -16.2323 C   0  0  1  0  0  0  0  0  0  0  0  0
   21.5413  -21.5718  -17.6220 C   0  0  0  0  0  0  0  0  0  0  0  0
   22.3939  -20.5084  -15.6027 C   0  0  2  0  0  0  0  0  0  0  0  0
   22.8241  -20.6849  -14.2057 N   0  0  0  0  0  0  0  0  0  0  0  0
   21.2212  -19.5940  -15.6569 C   0  0  0  0  0  0  0  0  0  0  0  0
   20.2856  -19.6464  -14.8261 O   0  0  0  0  0  0  0  0  0  0  0  0
   20.8684  -16.9557  -18.7823 O   0  0  0  0  0  0  0  0  0  0  0  0
   20.2881  -16.5110  -17.6147 C   0  0  0  0  0  0  0  0  0  0  0  0
   19.9215  -17.7390  -16.7717 C   0  0  2  0  0  0  0  0  0  0  0  0
   21.1009  -18.5873  -16.6825 N   0  0  0  0  0  0  0  0  0  0  0  0
   18.7683  -18.4308  -17.3448 C   0  0  0  0  0  0  0  0  0  0  0  0
   17.4922  -18.0657  -16.9785 O   0  0  0  0  0  0  0  0  0  0  0  0
   18.9210  -19.3544  -18.1673 O   0  0  0  0  0  0  0  0  0  0  0  0
  2  1  1  0
  3  2  2  0
  4  2  1  0
  5  4  1  0
  6  5  1  0
  6  8  1  0
  6  7  1  6
  8  9  2  0
 11 10  1  1
 11 12  1  0
 13 11  1  0
 14  8  1  0
 13 14  1  1
 15 13  1  0
 15 20  1  0
 16 15  2  0
 17 18  1  0
 19 21  1  0
 19 20  1  0
 19 18  1  6
 21 22  1  0
 23 21  2  0
M  END
$$$$
