QVS.pdb
     RDKit          3D

 23 22  0  0  1  0  0  0  0  0999 V2000
   21.0133  -13.4053  -20.5630 N   0  0  0  0  0  0  0  0  0  0  0  0
   22.0958  -12.6266  -21.0556 C   0  0  0  0  0  0  0  0  0  0  0  0
   22.8806  -13.1346  -21.8807 O   0  0  0  0  0  0  0  0  0  0  0  0
   22.2841  -11.2477  -20.5921 C   0  0  0  0  0  0  0  0  0  0  0  0
   21.2440  -10.7759  -19.6221 C   0  0  0  0  0  0  0  0  0  0  0  0
   21.5644  -11.1594  -18.2201 C   0  0  2  0  0  0  0  0  0  0  0  0
   21.3337  -12.5222  -17.8576 N   0  0  0  0  0  0  0  0  0  0  0  0
   20.9835  -10.1784  -17.2368 C   0  0  0  0  0  0  0  0  0  0  0  0
   19.7487   -9.9015  -17.2776 O   0  0  0  0  0  0  0  0  0  0  0  0
   20.5760   -8.6511  -12.7326 C   0  0  0  0  0  0  0  0  0  0  0  0
   21.0467   -9.4756  -13.8849 C   0  0  1  0  0  0  0  0  0  0  0  0
   20.0844  -10.6380  -14.0817 C   0  0  0  0  0  0  0  0  0  0  0  0
   21.0789   -8.7125  -15.1946 C   0  0  2  0  0  0  0  0  0  0  0  0
   21.7353   -9.5189  -16.2372 N   0  0  0  0  0  0  0  0  0  0  0  0
   21.7728   -7.4031  -15.0593 C   0  0  0  0  0  0  0  0  0  0  0  0
   23.0048   -7.3101  -14.8548 O   0  0  0  0  0  0  0  0  0  0  0  0
   19.6013   -3.8788  -15.1118 O   0  0  0  0  0  0  0  0  0  0  0  0
   20.8587   -3.8038  -15.6697 C   0  0  0  0  0  0  0  0  0  0  0  0
   21.7324   -4.8794  -15.0119 C   0  0  2  0  0  0  0  0  0  0  0  0
   21.0521   -6.1579  -15.1581 N   0  0  0  0  0  0  0  0  0  0  0  0
   22.0044   -4.5388  -13.6165 C   0  0  0  0  0  0  0  0  0  0  0  0
   21.4167   -5.2613  -12.6024 O   0  0  0  0  0  0  0  0  0  0  0  0
   22.7664   -3.5967  -13.3256 O   0  0  0  0  0  0  0  0  0  0  0  0
  2  1  1  0
  3  2  2  0
  4  2  1  0
  5  4  1  0
  6  5  1  0
  6  8  1  0
  6  7  1  1
  8  9  2  0
 11 10  1  1
 11 12  1  0
 13 11  1  0
 14  8  1  0
 13 14  1  6
 15 13  1  0
 15 20  1  0
 16 15  2  0
 17 18  1  0
 19 21  1  0
 19 20  1  0
 19 18  1  1
 21 22  1  0
 23 21  2  0
M  END
$$$$
