QVS.pdb
     RDKit          3D

 23 22  0  0  1  0  0  0  0  0999 V2000
   16.8250  -13.3979  -13.6300 N   0  0  0  0  0  0  0  0  0  0  0  0
   15.7987  -13.0796  -14.5609 C   0  0  0  0  0  0  0  0  0  0  0  0
   14.6899  -13.6398  -14.4543 O   0  0  0  0  0  0  0  0  0  0  0  0
   16.0489  -12.1091  -15.6319 C   0  0  0  0  0  0  0  0  0  0  0  0
   17.4156  -11.4956  -15.6011 C   0  0  0  0  0  0  0  0  0  0  0  0
   18.0999  -11.5749  -16.9204 C   0  0  2  0  0  0  0  0  0  0  0  0
   18.3151  -12.8823  -17.4555 N   0  0  0  0  0  0  0  0  0  0  0  0
   19.3330  -10.7118  -16.9515 C   0  0  0  0  0  0  0  0  0  0  0  0
   20.4432  -11.1847  -16.5683 O   0  0  0  0  0  0  0  0  0  0  0  0
   21.9708   -6.9792  -18.7222 C   0  0  0  0  0  0  0  0  0  0  0  0
   20.8816   -8.0003  -18.7276 C   0  0  1  0  0  0  0  0  0  0  0  0
   21.3128   -9.1726  -19.5968 C   0  0  0  0  0  0  0  0  0  0  0  0
   20.5833   -8.5661  -17.3530 C   0  0  2  0  0  0  0  0  0  0  0  0
   19.3487   -9.3674  -17.3896 N   0  0  0  0  0  0  0  0  0  0  0  0
   20.4594   -7.4967  -16.3256 C   0  0  0  0  0  0  0  0  0  0  0  0
   19.5175   -6.6715  -16.3207 O   0  0  0  0  0  0  0  0  0  0  0  0
   21.8081   -5.7708  -12.0466 O   0  0  0  0  0  0  0  0  0  0  0  0
   22.0010   -6.7455  -13.0009 C   0  0  0  0  0  0  0  0  0  0  0  0
   21.3382   -6.2719  -14.3007 C   0  0  2  0  0  0  0  0  0  0  0  0
   21.4305   -7.3546  -15.2691 N   0  0  0  0  0  0  0  0  0  0  0  0
   21.9577   -5.0350  -14.7731 C   0  0  0  0  0  0  0  0  0  0  0  0
   21.3649   -3.8209  -14.5080 O   0  0  0  0  0  0  0  0  0  0  0  0
   23.0237   -5.0600  -15.4180 O   0  0  0  0  0  0  0  0  0  0  0  0
  2  1  1  0
  3  2  2  0
  4  2  1  0
  5  4  1  0
  6  5  1  0
  6  8  1  0
  6  7  1  1
  8  9  2  0
 11 10  1  1
 11 12  1  0
 13 11  1  0
 14  8  1  0
 13 14  1  6
 15 13  1  0
 15 20  1  0
 16 15  2  0
 17 18  1  0
 19 21  1  0
 19 20  1  0
 19 18  1  1
 21 22  1  0
 23 21  2  0
M  END
$$$$
