QVS.pdb
     RDKit          3D

 23 22  0  0  1  0  0  0  0  0999 V2000
   24.6461  -20.6842   -7.5688 N   0  0  0  0  0  0  0  0  0  0  0  0
   25.8944  -20.0790   -7.8793 C   0  0  0  0  0  0  0  0  0  0  0  0
   26.4748  -19.4057   -7.0049 O   0  0  0  0  0  0  0  0  0  0  0  0
   26.4834  -20.2441   -9.2125 C   0  0  0  0  0  0  0  0  0  0  0  0
   25.7131  -21.1561  -10.1181 C   0  0  0  0  0  0  0  0  0  0  0  0
   24.4579  -20.5297  -10.6155 C   0  0  2  0  0  0  0  0  0  0  0  0
   23.3246  -20.5831   -9.7467 N   0  0  0  0  0  0  0  0  0  0  0  0
   24.1470  -20.9666  -12.0223 C   0  0  0  0  0  0  0  0  0  0  0  0
   23.4832  -22.0263  -12.2210 O   0  0  0  0  0  0  0  0  0  0  0  0
   23.2649  -19.8564  -16.7202 C   0  0  0  0  0  0  0  0  0  0  0  0
   23.4934  -19.5595  -15.2750 C   0  0  1  0  0  0  0  0  0  0  0  0
   22.1488  -19.3121  -14.6066 C   0  0  0  0  0  0  0  0  0  0  0  0
   24.1474  -20.7027  -14.5240 C   0  0  2  0  0  0  0  0  0  0  0  0
   24.5530  -20.2619  -13.1790 N   0  0  0  0  0  0  0  0  0  0  0  0
   25.3258  -21.2458  -15.2527 C   0  0  0  0  0  0  0  0  0  0  0  0
   26.3349  -20.5524  -15.5158 O   0  0  0  0  0  0  0  0  0  0  0  0
   27.4747  -25.1986  -17.0911 O   0  0  0  0  0  0  0  0  0  0  0  0
   26.3539  -24.6787  -16.4815 C   0  0  0  0  0  0  0  0  0  0  0  0
   26.5473  -23.1626  -16.3512 C   0  0  2  0  0  0  0  0  0  0  0  0
   25.3662  -22.6165  -15.6988 N   0  0  0  0  0  0  0  0  0  0  0  0
   26.8004  -22.5618  -17.6596 C   0  0  0  0  0  0  0  0  0  0  0  0
   28.0830  -22.2204  -18.0259 O   0  0  0  0  0  0  0  0  0  0  0  0
   25.8667  -22.3512  -18.4575 O   0  0  0  0  0  0  0  0  0  0  0  0
  2  1  1  0
  3  2  2  0
  4  2  1  0
  5  4  1  0
  6  5  1  0
  6  8  1  0
  6  7  1  1
  8  9  2  0
 11 10  1  6
 11 12  1  0
 13 11  1  0
 14  8  1  0
 13 14  1  1
 15 13  1  0
 15 20  1  0
 16 15  2  0
 17 18  1  0
 19 21  1  0
 19 20  1  0
 19 18  1  6
 21 22  1  0
 23 21  2  0
M  END
$$$$
