QVS.pdb
     RDKit          3D

 23 22  0  0  1  0  0  0  0  0999 V2000
   23.8945  -15.8825  -18.7107 N   0  0  0  0  0  0  0  0  0  0  0  0
   22.6979  -15.7809  -19.4715 C   0  0  0  0  0  0  0  0  0  0  0  0
   22.4976  -16.5933  -20.3960 O   0  0  0  0  0  0  0  0  0  0  0  0
   21.7196  -14.7300  -19.1714 C   0  0  0  0  0  0  0  0  0  0  0  0
   22.1210  -13.8145  -18.0551 C   0  0  0  0  0  0  0  0  0  0  0  0
   22.1646  -12.3893  -18.4818 C   0  0  2  0  0  0  0  0  0  0  0  0
   22.7220  -12.1206  -19.7699 N   0  0  0  0  0  0  0  0  0  0  0  0
   22.7271  -11.5091  -17.3977 C   0  0  0  0  0  0  0  0  0  0  0  0
   22.3219  -11.6407  -16.2054 O   0  0  0  0  0  0  0  0  0  0  0  0
   26.3118   -8.8996  -15.3735 C   0  0  0  0  0  0  0  0  0  0  0  0
   25.7203   -9.7780  -16.4259 C   0  0  1  0  0  0  0  0  0  0  0  0
   26.0473  -11.2271  -16.0959 C   0  0  0  0  0  0  0  0  0  0  0  0
   24.2094   -9.6819  -16.5076 C   0  0  2  0  0  0  0  0  0  0  0  0
   23.7059  -10.5120  -17.6145 N   0  0  0  0  0  0  0  0  0  0  0  0
   23.7494   -8.2774  -16.6817 C   0  0  0  0  0  0  0  0  0  0  0  0
   24.0319   -7.5952  -17.6932 O   0  0  0  0  0  0  0  0  0  0  0  0
   20.5628   -6.7449  -14.6856 O   0  0  0  0  0  0  0  0  0  0  0  0
   21.0307   -6.1535  -15.8386 C   0  0  0  0  0  0  0  0  0  0  0  0
   22.5629   -6.2236  -15.8173 C   0  0  2  0  0  0  0  0  0  0  0  0
   22.9439   -7.6218  -15.6811 N   0  0  0  0  0  0  0  0  0  0  0  0
   23.1016   -5.3832  -14.7493 C   0  0  0  0  0  0  0  0  0  0  0  0
   22.9887   -4.0131  -14.8257 O   0  0  0  0  0  0  0  0  0  0  0  0
   23.6669   -5.8898  -13.7611 O   0  0  0  0  0  0  0  0  0  0  0  0
  2  1  1  0
  3  2  2  0
  4  2  1  0
  5  4  1  0
  6  5  1  0
  6  8  1  0
  6  7  1  6
  8  9  2  0
 11 10  1  1
 11 12  1  0
 13 11  1  0
 14  8  1  0
 13 14  1  6
 15 13  1  0
 15 20  1  0
 16 15  2  0
 17 18  1  0
 19 21  1  0
 19 20  1  0
 19 18  1  1
 21 22  1  0
 23 21  2  0
M  END
$$$$
