QVS.pdb
     RDKit          3D

 23 22  0  0  1  0  0  0  0  0999 V2000
   21.0103  -17.6000  -15.3326 N   0  0  0  0  0  0  0  0  0  0  0  0
   21.2697  -17.8656  -16.7049 C   0  0  0  0  0  0  0  0  0  0  0  0
   20.9519  -18.9750  -17.1772 O   0  0  0  0  0  0  0  0  0  0  0  0
   21.9067  -16.8469  -17.5463 C   0  0  0  0  0  0  0  0  0  0  0  0
   22.1015  -15.5235  -16.8712 C   0  0  0  0  0  0  0  0  0  0  0  0
   23.5400  -15.1983  -16.6708 C   0  0  2  0  0  0  0  0  0  0  0  0
   24.3809  -16.2586  -16.2119 N   0  0  0  0  0  0  0  0  0  0  0  0
   23.7103  -13.9252  -15.8855 C   0  0  0  0  0  0  0  0  0  0  0  0
   23.3801  -13.8892  -14.6638 O   0  0  0  0  0  0  0  0  0  0  0  0
   26.1453   -9.8110  -14.9256 C   0  0  0  0  0  0  0  0  0  0  0  0
   25.8715  -11.0549  -15.7046 C   0  0  1  0  0  0  0  0  0  0  0  0
   26.7549  -12.1727  -15.1700 C   0  0  0  0  0  0  0  0  0  0  0  0
   24.4394  -11.5368  -15.5808 C   0  0  2  0  0  0  0  0  0  0  0  0
   24.2275  -12.7246  -16.4247 N   0  0  0  0  0  0  0  0  0  0  0  0
   23.4615  -10.4770  -15.9482 C   0  0  0  0  0  0  0  0  0  0  0  0
   23.4586   -9.9212  -17.0704 O   0  0  0  0  0  0  0  0  0  0  0  0
   19.4303   -8.0645  -14.8057 O   0  0  0  0  0  0  0  0  0  0  0  0
   20.2855   -9.0993  -14.4961 C   0  0  0  0  0  0  0  0  0  0  0  0
   21.5474   -8.9421  -15.3541 C   0  0  2  0  0  0  0  0  0  0  0  0
   22.4538  -10.0304  -15.0184 N   0  0  0  0  0  0  0  0  0  0  0  0
   22.1458   -7.6237  -15.1523 C   0  0  0  0  0  0  0  0  0  0  0  0
   21.9090   -6.6124  -16.0561 O   0  0  0  0  0  0  0  0  0  0  0  0
   22.8738   -7.3965  -14.1667 O   0  0  0  0  0  0  0  0  0  0  0  0
  2  1  1  0
  3  2  2  0
  4  2  1  0
  5  4  1  0
  6  5  1  0
  6  8  1  0
  6  7  1  1
  8  9  2  0
 11 10  1  1
 11 12  1  0
 13 11  1  0
 14  8  1  0
 13 14  1  6
 15 13  1  0
 15 20  1  0
 16 15  2  0
 17 18  1  0
 19 21  1  0
 19 20  1  0
 19 18  1  1
 21 22  1  0
 23 21  2  0
M  END
$$$$
