QVS.pdb
     RDKit          3D

 23 22  0  0  1  0  0  0  0  0999 V2000
   18.6202  -13.9645  -15.8408 N   0  0  0  0  0  0  0  0  0  0  0  0
   17.4027  -13.3012  -15.5267 C   0  0  0  0  0  0  0  0  0  0  0  0
   16.7811  -13.6324  -14.4977 O   0  0  0  0  0  0  0  0  0  0  0  0
   16.8881  -12.2469  -16.4071 C   0  0  0  0  0  0  0  0  0  0  0  0
   17.8163  -11.0840  -16.5840 C   0  0  0  0  0  0  0  0  0  0  0  0
   17.3061  -10.1005  -17.5778 C   0  0  2  0  0  0  0  0  0  0  0  0
   17.0986  -10.5794  -18.9081 N   0  0  0  0  0  0  0  0  0  0  0  0
   18.0862   -8.8139  -17.5265 C   0  0  0  0  0  0  0  0  0  0  0  0
   19.1687   -8.7069  -18.1742 O   0  0  0  0  0  0  0  0  0  0  0  0
   18.0640   -3.9190  -17.1120 C   0  0  0  0  0  0  0  0  0  0  0  0
   17.4446   -5.2742  -17.2068 C   0  0  1  0  0  0  0  0  0  0  0  0
   16.9585   -5.4926  -18.6322 C   0  0  0  0  0  0  0  0  0  0  0  0
   18.4141   -6.3992  -16.9017 C   0  0  2  0  0  0  0  0  0  0  0  0
   17.6909   -7.6765  -16.7852 N   0  0  0  0  0  0  0  0  0  0  0  0
   19.1894   -6.1441  -15.6574 C   0  0  0  0  0  0  0  0  0  0  0  0
   18.6500   -6.0679  -14.5298 O   0  0  0  0  0  0  0  0  0  0  0  0
   23.3030   -6.4650  -13.3193 O   0  0  0  0  0  0  0  0  0  0  0  0
   22.5541   -6.7208  -14.4469 C   0  0  0  0  0  0  0  0  0  0  0  0
   21.3774   -5.7369  -14.4658 C   0  0  2  0  0  0  0  0  0  0  0  0
   20.6206   -5.9696  -15.6872 N   0  0  0  0  0  0  0  0  0  0  0  0
   21.8557   -4.3604  -14.3494 C   0  0  0  0  0  0  0  0  0  0  0  0
   22.0776   -3.8095  -13.1073 O   0  0  0  0  0  0  0  0  0  0  0  0
   22.0684   -3.6699  -15.3647 O   0  0  0  0  0  0  0  0  0  0  0  0
  2  1  1  0
  3  2  2  0
  4  2  1  0
  5  4  1  0
  6  5  1  0
  6  8  1  0
  6  7  1  6
  8  9  2  0
 11 10  1  6
 11 12  1  0
 13 11  1  0
 14  8  1  0
 13 14  1  1
 15 13  1  0
 15 20  1  0
 16 15  2  0
 17 18  1  0
 19 21  1  0
 19 20  1  0
 19 18  1  6
 21 22  1  0
 23 21  2  0
M  END
$$$$
