QVS.pdb
     RDKit          3D

 23 22  0  0  1  0  0  0  0  0999 V2000
   19.0927   -9.0017  -15.0264 N   0  0  0  0  0  0  0  0  0  0  0  0
   18.8492  -10.4017  -14.9878 C   0  0  0  0  0  0  0  0  0  0  0  0
   19.3371  -11.1257  -15.8781 O   0  0  0  0  0  0  0  0  0  0  0  0
   18.0310  -10.9793  -13.9161 C   0  0  0  0  0  0  0  0  0  0  0  0
   17.5072   -9.9776  -12.9325 C   0  0  0  0  0  0  0  0  0  0  0  0
   16.7326  -10.6169  -11.8341 C   0  0  2  0  0  0  0  0  0  0  0  0
   16.1735  -11.9036  -12.1060 N   0  0  0  0  0  0  0  0  0  0  0  0
   15.7427   -9.6567  -11.2301 C   0  0  0  0  0  0  0  0  0  0  0  0
   14.5174   -9.9696  -11.1697 O   0  0  0  0  0  0  0  0  0  0  0  0
   13.6621   -7.5052   -7.9241 C   0  0  0  0  0  0  0  0  0  0  0  0
   14.5799   -8.3193   -8.7750 C   0  0  1  0  0  0  0  0  0  0  0  0
   13.8164   -9.5235   -9.3068 C   0  0  0  0  0  0  0  0  0  0  0  0
   15.1012   -7.5676   -9.9839 C   0  0  2  0  0  0  0  0  0  0  0  0
   16.0864   -8.3885  -10.7075 N   0  0  0  0  0  0  0  0  0  0  0  0
   15.7113   -6.2634   -9.6082 C   0  0  0  0  0  0  0  0  0  0  0  0
   16.7236   -6.1778   -8.8760 O   0  0  0  0  0  0  0  0  0  0  0  0
   16.4078   -1.7047  -10.8073 O   0  0  0  0  0  0  0  0  0  0  0  0
   15.7564   -2.8914  -11.0629 C   0  0  0  0  0  0  0  0  0  0  0  0
   15.8188   -3.7479   -9.7918 C   0  0  2  0  0  0  0  0  0  0  0  0
   15.1605   -5.0149  -10.0746 N   0  0  0  0  0  0  0  0  0  0  0  0
   15.2199   -3.0379   -8.6631 C   0  0  0  0  0  0  0  0  0  0  0  0
   15.9754   -2.1569   -7.9223 O   0  0  0  0  0  0  0  0  0  0  0  0
   14.0255   -3.2176   -8.3562 O   0  0  0  0  0  0  0  0  0  0  0  0
  2  1  1  0
  3  2  2  0
  4  2  1  0
  5  4  1  0
  6  5  1  0
  6  8  1  0
  6  7  1  6
  8  9  2  0
 11 10  1  6
 11 12  1  0
 13 11  1  0
 14  8  1  0
 13 14  1  1
 15 13  1  0
 15 20  1  0
 16 15  2  0
 17 18  1  0
 19 21  1  0
 19 20  1  0
 19 18  1  6
 21 22  1  0
 23 21  2  0
M  END
$$$$
