QVS.pdb
     RDKit          3D

 23 22  0  0  1  0  0  0  0  0999 V2000
   17.1100  -11.6266  -20.9250 N   0  0  0  0  0  0  0  0  0  0  0  0
   17.6223  -12.9516  -20.8727 C   0  0  0  0  0  0  0  0  0  0  0  0
   17.4966  -13.6889  -21.8703 O   0  0  0  0  0  0  0  0  0  0  0  0
   18.2837  -13.4398  -19.6579 C   0  0  0  0  0  0  0  0  0  0  0  0
   18.3743  -12.4281  -18.5563 C   0  0  0  0  0  0  0  0  0  0  0  0
   19.1012  -12.9513  -17.3676 C   0  0  2  0  0  0  0  0  0  0  0  0
   18.4922  -14.0390  -16.6690 N   0  0  0  0  0  0  0  0  0  0  0  0
   19.5405  -11.8349  -16.4580 C   0  0  0  0  0  0  0  0  0  0  0  0
   18.8081  -11.4898  -15.4846 O   0  0  0  0  0  0  0  0  0  0  0  0
   23.0348   -9.1034  -14.3447 C   0  0  0  0  0  0  0  0  0  0  0  0
   22.5746  -10.1808  -15.2702 C   0  0  1  0  0  0  0  0  0  0  0  0
   22.6999  -11.5220  -14.5623 C   0  0  0  0  0  0  0  0  0  0  0  0
   21.1214  -10.0399  -15.6788 C   0  0  2  0  0  0  0  0  0  0  0  0
   20.7486  -11.1163  -16.6117 N   0  0  0  0  0  0  0  0  0  0  0  0
   20.8433   -8.7165  -16.2998 C   0  0  0  0  0  0  0  0  0  0  0  0
   21.3308   -8.3717  -17.4006 O   0  0  0  0  0  0  0  0  0  0  0  0
   17.9793   -5.0527  -16.9724 O   0  0  0  0  0  0  0  0  0  0  0  0
   18.2196   -6.2377  -16.3123 C   0  0  0  0  0  0  0  0  0  0  0  0
   19.7381   -6.4473  -16.2551 C   0  0  2  0  0  0  0  0  0  0  0  0
   19.9866   -7.7508  -15.6571 N   0  0  0  0  0  0  0  0  0  0  0  0
   20.3808   -5.3568  -15.5238 C   0  0  0  0  0  0  0  0  0  0  0  0
   20.8824   -4.2703  -16.2048 O   0  0  0  0  0  0  0  0  0  0  0  0
   20.4836   -5.3932  -14.2825 O   0  0  0  0  0  0  0  0  0  0  0  0
  2  1  1  0
  3  2  2  0
  4  2  1  0
  5  4  1  0
  6  5  1  0
  6  8  1  0
  6  7  1  1
  8  9  2  0
 11 10  1  1
 11 12  1  0
 13 11  1  0
 14  8  1  0
 13 14  1  6
 15 13  1  0
 15 20  1  0
 16 15  2  0
 17 18  1  0
 19 21  1  0
 19 20  1  0
 19 18  1  1
 21 22  1  0
 23 21  2  0
M  END
$$$$
