QVS.pdb
     RDKit          3D

 23 22  0  0  1  0  0  0  0  0999 V2000
   28.5241  -24.4524  -20.3005 N   0  0  0  0  0  0  0  0  0  0  0  0
   28.8618  -25.7448  -19.8140 C   0  0  0  0  0  0  0  0  0  0  0  0
   29.2967  -26.5977  -20.6129 O   0  0  0  0  0  0  0  0  0  0  0  0
   28.6938  -26.0654  -18.3925 C   0  0  0  0  0  0  0  0  0  0  0  0
   28.1111  -24.9534  -17.5744 C   0  0  0  0  0  0  0  0  0  0  0  0
   29.1273  -23.9292  -17.2089 C   0  0  2  0  0  0  0  0  0  0  0  0
   30.2371  -24.3751  -16.4269 N   0  0  0  0  0  0  0  0  0  0  0  0
   28.4797  -22.6847  -16.6626 C   0  0  0  0  0  0  0  0  0  0  0  0
   28.4449  -22.4892  -15.4122 O   0  0  0  0  0  0  0  0  0  0  0  0
   27.2931  -17.9571  -17.0359 C   0  0  0  0  0  0  0  0  0  0  0  0
   27.8723  -19.2330  -17.5515 C   0  0  1  0  0  0  0  0  0  0  0  0
   29.3715  -19.2317  -17.2905 C   0  0  0  0  0  0  0  0  0  0  0  0
   27.3137  -20.4650  -16.8670 C   0  0  2  0  0  0  0  0  0  0  0  0
   27.8862  -21.6827  -17.4647 N   0  0  0  0  0  0  0  0  0  0  0  0
   25.8284  -20.5179  -16.9411 C   0  0  0  0  0  0  0  0  0  0  0  0
   25.2124  -20.6993  -18.0162 O   0  0  0  0  0  0  0  0  0  0  0  0
   21.6363  -20.3813  -14.4789 O   0  0  0  0  0  0  0  0  0  0  0  0
   23.0069  -20.2557  -14.4175 C   0  0  0  0  0  0  0  0  0  0  0  0
   23.5591  -20.4033  -15.8410 C   0  0  2  0  0  0  0  0  0  0  0  0
   25.0120  -20.3612  -15.7627 N   0  0  0  0  0  0  0  0  0  0  0  0
   23.0088  -19.3698  -16.7161 C   0  0  0  0  0  0  0  0  0  0  0  0
   22.0489  -19.6940  -17.6485 O   0  0  0  0  0  0  0  0  0  0  0  0
   23.3968  -18.1886  -16.6325 O   0  0  0  0  0  0  0  0  0  0  0  0
  2  1  1  0
  3  2  2  0
  4  2  1  0
  5  4  1  0
  6  5  1  0
  6  8  1  0
  6  7  1  1
  8  9  2  0
 11 10  1  1
 11 12  1  0
 13 11  1  0
 14  8  1  0
 13 14  1  6
 15 13  1  0
 15 20  1  0
 16 15  2  0
 17 18  1  0
 19 21  1  0
 19 20  1  0
 19 18  1  1
 21 22  1  0
 23 21  2  0
M  END
$$$$
