QVS.pdb
     RDKit          3D

 23 22  0  0  1  0  0  0  0  0999 V2000
   20.4929   -6.8144  -12.6105 N   0  0  0  0  0  0  0  0  0  0  0  0
   20.4839   -8.0528  -13.3085 C   0  0  0  0  0  0  0  0  0  0  0  0
   21.5501   -8.4835  -13.7907 O   0  0  0  0  0  0  0  0  0  0  0  0
   19.2342   -8.8056  -13.4600 C   0  0  0  0  0  0  0  0  0  0  0  0
   18.0228   -8.1031  -12.9269 C   0  0  0  0  0  0  0  0  0  0  0  0
   17.1563   -9.0052  -12.1203 C   0  0  2  0  0  0  0  0  0  0  0  0
   16.6543  -10.1708  -12.7770 N   0  0  0  0  0  0  0  0  0  0  0  0
   16.0912   -8.2327  -11.3885 C   0  0  0  0  0  0  0  0  0  0  0  0
   14.9284   -8.1411  -11.8807 O   0  0  0  0  0  0  0  0  0  0  0  0
   13.8742   -6.4710   -7.4475 C   0  0  0  0  0  0  0  0  0  0  0  0
   14.8487   -7.3251   -8.1891 C   0  0  1  0  0  0  0  0  0  0  0  0
   14.2093   -8.6799   -8.4564 C   0  0  0  0  0  0  0  0  0  0  0  0
   15.2392   -6.7557   -9.5389 C   0  0  2  0  0  0  0  0  0  0  0  0
   16.2955   -7.5782  -10.1518 N   0  0  0  0  0  0  0  0  0  0  0  0
   15.6964   -5.3433   -9.4363 C   0  0  0  0  0  0  0  0  0  0  0  0
   16.7626   -5.0190   -8.8650 O   0  0  0  0  0  0  0  0  0  0  0  0
   15.2134   -2.9637  -12.3772 O   0  0  0  0  0  0  0  0  0  0  0  0
   14.8705   -2.2113  -11.2752 C   0  0  0  0  0  0  0  0  0  0  0  0
   15.4460   -2.9032  -10.0330 C   0  0  2  0  0  0  0  0  0  0  0  0
   14.9249   -4.2618   -9.9972 N   0  0  0  0  0  0  0  0  0  0  0  0
   15.1273   -2.1423   -8.8262 C   0  0  0  0  0  0  0  0  0  0  0  0
   15.8719   -1.0333   -8.4926 O   0  0  0  0  0  0  0  0  0  0  0  0
   14.1840   -2.4829   -8.0866 O   0  0  0  0  0  0  0  0  0  0  0  0
  2  1  1  0
  3  2  2  0
  4  2  1  0
  5  4  1  0
  6  5  1  0
  6  8  1  0
  6  7  1  6
  8  9  2  0
 11 10  1  6
 11 12  1  0
 13 11  1  0
 14  8  1  0
 13 14  1  1
 15 13  1  0
 15 20  1  0
 16 15  2  0
 17 18  1  0
 19 21  1  0
 19 20  1  0
 19 18  1  6
 21 22  1  0
 23 21  2  0
M  END
$$$$
