QVS.pdb
     RDKit          3D

 23 22  0  0  1  0  0  0  0  0999 V2000
   18.8849  -20.3558  -17.0061 N   0  0  0  0  0  0  0  0  0  0  0  0
   19.2251  -21.0857  -18.1776 C   0  0  0  0  0  0  0  0  0  0  0  0
   18.8706  -20.6456  -19.2891 O   0  0  0  0  0  0  0  0  0  0  0  0
   19.9782  -22.3401  -18.0730 C   0  0  0  0  0  0  0  0  0  0  0  0
   20.2479  -22.7818  -16.6668 C   0  0  0  0  0  0  0  0  0  0  0  0
   21.1393  -21.8375  -15.9396 C   0  0  2  0  0  0  0  0  0  0  0  0
   22.4839  -21.7303  -16.4113 N   0  0  0  0  0  0  0  0  0  0  0  0
   21.0481  -22.0344  -14.4498 C   0  0  0  0  0  0  0  0  0  0  0  0
   21.7645  -22.9124  -13.8850 O   0  0  0  0  0  0  0  0  0  0  0  0
   20.0862  -20.3052   -9.9372 C   0  0  0  0  0  0  0  0  0  0  0  0
   20.1252  -20.1696  -11.4235 C   0  0  1  0  0  0  0  0  0  0  0  0
   21.3791  -19.4004  -11.8131 C   0  0  0  0  0  0  0  0  0  0  0  0
   20.1910  -21.5011  -12.1455 C   0  0  2  0  0  0  0  0  0  0  0  0
   20.1950  -21.2900  -13.6027 N   0  0  0  0  0  0  0  0  0  0  0  0
   19.0625  -22.3951  -11.7692 C   0  0  0  0  0  0  0  0  0  0  0  0
   17.8936  -22.2165  -12.1817 O   0  0  0  0  0  0  0  0  0  0  0  0
   17.6451  -26.2810   -9.2084 O   0  0  0  0  0  0  0  0  0  0  0  0
   18.6929  -25.4594   -9.5616 C   0  0  0  0  0  0  0  0  0  0  0  0
   18.1409  -24.3541  -10.4708 C   0  0  2  0  0  0  0  0  0  0  0  0
   19.2601  -23.5278  -10.8989 N   0  0  0  0  0  0  0  0  0  0  0  0
   17.1041  -23.5895   -9.7798 C   0  0  0  0  0  0  0  0  0  0  0  0
   15.7757  -23.8951   -9.9745 O   0  0  0  0  0  0  0  0  0  0  0  0
   17.4041  -22.6567   -9.0099 O   0  0  0  0  0  0  0  0  0  0  0  0
  2  1  1  0
  3  2  2  0
  4  2  1  0
  5  4  1  0
  6  5  1  0
  6  8  1  0
  6  7  1  6
  8  9  2  0
 11 10  1  1
 11 12  1  0
 13 11  1  0
 14  8  1  0
 13 14  1  6
 15 13  1  0
 15 20  1  0
 16 15  2  0
 17 18  1  0
 19 21  1  0
 19 20  1  0
 19 18  1  1
 21 22  1  0
 23 21  2  0
M  END
$$$$
