QVS.pdb
     RDKit          3D

 23 22  0  0  1  0  0  0  0  0999 V2000
   17.1464   -8.4843  -19.1428 N   0  0  0  0  0  0  0  0  0  0  0  0
   15.8000   -8.8325  -18.8477 C   0  0  0  0  0  0  0  0  0  0  0  0
   15.0219   -9.0909  -19.7872 O   0  0  0  0  0  0  0  0  0  0  0  0
   15.3380   -8.8803  -17.4564 C   0  0  0  0  0  0  0  0  0  0  0  0
   16.3751   -8.4878  -16.4486 C   0  0  0  0  0  0  0  0  0  0  0  0
   17.0607   -9.6680  -15.8552 C   0  0  2  0  0  0  0  0  0  0  0  0
   16.2375  -10.6091  -15.1633 N   0  0  0  0  0  0  0  0  0  0  0  0
   18.2789   -9.2579  -15.0713 C   0  0  0  0  0  0  0  0  0  0  0  0
   18.2025   -9.1177  -13.8154 O   0  0  0  0  0  0  0  0  0  0  0  0
   23.0957   -9.0040  -14.3016 C   0  0  0  0  0  0  0  0  0  0  0  0
   21.8949   -9.4214  -15.0845 C   0  0  1  0  0  0  0  0  0  0  0  0
   21.5094  -10.8353  -14.6745 C   0  0  0  0  0  0  0  0  0  0  0  0
   20.6808   -8.5497  -14.8304 C   0  0  2  0  0  0  0  0  0  0  0  0
   19.5454   -9.0077  -15.6483 N   0  0  0  0  0  0  0  0  0  0  0  0
   20.9570   -7.1146  -15.1108 C   0  0  0  0  0  0  0  0  0  0  0  0
   21.3161   -6.7043  -16.2382 O   0  0  0  0  0  0  0  0  0  0  0  0
   18.8324   -4.1731  -14.3287 O   0  0  0  0  0  0  0  0  0  0  0  0
   20.0243   -3.8596  -13.7128 C   0  0  0  0  0  0  0  0  0  0  0  0
   21.1263   -4.7120  -14.3546 C   0  0  2  0  0  0  0  0  0  0  0  0
   20.8233   -6.1099  -14.0850 N   0  0  0  0  0  0  0  0  0  0  0  0
   22.4415   -4.3115  -13.8579 C   0  0  0  0  0  0  0  0  0  0  0  0
   23.0985   -3.2436  -14.4269 O   0  0  0  0  0  0  0  0  0  0  0  0
   22.9842   -4.9255  -12.9192 O   0  0  0  0  0  0  0  0  0  0  0  0
  2  1  1  0
  3  2  2  0
  4  2  1  0
  5  4  1  0
  6  5  1  0
  6  8  1  0
  6  7  1  1
  8  9  2  0
 11 10  1  1
 11 12  1  0
 13 11  1  0
 14  8  1  0
 13 14  1  6
 15 13  1  0
 15 20  1  0
 16 15  2  0
 17 18  1  0
 19 21  1  0
 19 20  1  0
 19 18  1  1
 21 22  1  0
 23 21  2  0
M  END
$$$$
