AIY.pdb
     RDKit          3D

 26 26  0  0  1  0  0  0  0  0999 V2000
   21.6779  -13.1378  -19.6771 C   0  0  0  0  0  0  0  0  0  0  0  0
   23.1783  -13.3258  -19.7636 C   0  0  2  0  0  0  0  0  0  0  0  0
   23.5459  -13.4313  -21.1637 N   0  0  0  0  0  0  0  0  0  0  0  0
   23.6189  -14.5141  -18.9961 C   0  0  0  0  0  0  0  0  0  0  0  0
   23.6522  -15.6166  -19.5943 O   0  0  0  0  0  0  0  0  0  0  0  0
   27.1455  -13.6967  -15.2125 C   0  0  0  0  0  0  0  0  0  0  0  0
   26.5745  -14.6404  -16.2248 C   0  0  0  0  0  0  0  0  0  0  0  0
   25.2899  -15.3120  -15.7492 C   0  0  2  0  0  0  0  0  0  0  0  0
   25.6733  -16.4921  -14.9221 C   0  0  0  0  0  0  0  0  0  0  0  0
   24.4388  -15.7124  -16.9364 C   0  0  2  0  0  0  0  0  0  0  0  0
   24.0043  -14.4837  -17.6313 N   0  0  0  0  0  0  0  0  0  0  0  0
   23.2422  -16.4740  -16.5129 C   0  0  0  0  0  0  0  0  0  0  0  0
   23.3995  -17.6800  -16.1389 O   0  0  0  0  0  0  0  0  0  0  0  0
   15.8829  -13.4390  -18.4990 O   0  0  0  0  0  0  0  0  0  0  0  0
   16.8799  -14.0119  -17.7115 C   0  0  0  0  0  0  0  0  0  0  0  0
   18.1691  -13.5226  -17.6906 C   0  0  0  0  0  0  0  0  0  0  0  0
   19.1551  -14.0982  -16.9045 C   0  0  0  0  0  0  0  0  0  0  0  0
   18.8875  -15.1929  -16.1035 C   0  0  0  0  0  0  0  0  0  0  0  0
   19.9084  -15.8305  -15.2592 C   0  0  0  0  0  0  0  0  0  0  0  0
   20.8075  -16.7923  -15.9603 C   0  0  2  0  0  0  0  0  0  0  0  0
   21.9306  -15.9950  -16.4772 N   0  0  0  0  0  0  0  0  0  0  0  0
   20.1631  -17.5556  -17.0499 C   0  0  0  0  0  0  0  0  0  0  0  0
   19.3173  -18.6119  -16.7548 O   0  0  0  0  0  0  0  0  0  0  0  0
   17.5940  -15.6772  -16.1300 C   0  0  0  0  0  0  0  0  0  0  0  0
   16.6102  -15.1043  -16.9132 C   0  0  0  0  0  0  0  0  0  0  0  0
   20.3430  -17.2942  -18.2799 O   0  0  0  0  0  0  0  0  0  0  0  0
  2  1  1  6
  2  3  1  0
  4  2  1  0
  5  4  2  0
  6  7  1  0
  7  8  1  0
  8  9  1  6
 10  8  1  0
 10 11  1  1
 11  4  1  0
 12 10  1  0
 12 13  2  0
 15 14  1  0
 16 15  2  0
 17 16  1  0
 18 24  1  0
 18 17  2  0
 19 18  1  0
 20 19  1  6
 20 22  1  0
 20 21  1  0
 21 12  1  0
 22 23  1  0
 24 25  2  0
 25 15  1  0
 26 22  2  0
M  END
$$$$
