AIY.pdb
     RDKit          3D

 26 26  0  0  1  0  0  0  0  0999 V2000
   17.4524  -12.7110  -17.4769 C   0  0  0  0  0  0  0  0  0  0  0  0
   18.5986  -13.0158  -16.5349 C   0  0  2  0  0  0  0  0  0  0  0  0
   18.1707  -14.0535  -15.6148 N   0  0  0  0  0  0  0  0  0  0  0  0
   19.0424  -11.8003  -15.8132 C   0  0  0  0  0  0  0  0  0  0  0  0
   18.3142  -11.3735  -14.8846 O   0  0  0  0  0  0  0  0  0  0  0  0
   24.1491  -11.2292  -14.4962 C   0  0  0  0  0  0  0  0  0  0  0  0
   22.6549  -11.1356  -14.5084 C   0  0  0  0  0  0  0  0  0  0  0  0
   22.1461   -9.8867  -15.2217 C   0  0  2  0  0  0  0  0  0  0  0  0
   22.6348   -8.6993  -14.4635 C   0  0  0  0  0  0  0  0  0  0  0  0
   20.6342   -9.9132  -15.3079 C   0  0  2  0  0  0  0  0  0  0  0  0
   20.2354  -11.0907  -16.1051 N   0  0  0  0  0  0  0  0  0  0  0  0
   20.1071   -8.6919  -15.9572 C   0  0  0  0  0  0  0  0  0  0  0  0
   20.4107   -8.4805  -17.1748 O   0  0  0  0  0  0  0  0  0  0  0  0
   14.9685   -1.9874  -18.5452 O   0  0  0  0  0  0  0  0  0  0  0  0
   15.5608   -3.0979  -17.9466 C   0  0  0  0  0  0  0  0  0  0  0  0
   15.6970   -3.2077  -16.5786 C   0  0  0  0  0  0  0  0  0  0  0  0
   16.2874   -4.3156  -15.9910 C   0  0  0  0  0  0  0  0  0  0  0  0
   16.7676   -5.3635  -16.7545 C   0  0  0  0  0  0  0  0  0  0  0  0
   17.4017   -6.5524  -16.1660 C   0  0  0  0  0  0  0  0  0  0  0  0
   18.8874   -6.4922  -16.0489 C   0  0  2  0  0  0  0  0  0  0  0  0
   19.2906   -7.7283  -15.3606 N   0  0  0  0  0  0  0  0  0  0  0  0
   19.4012   -5.3046  -15.3343 C   0  0  0  0  0  0  0  0  0  0  0  0
   19.8429   -4.2009  -16.0451 O   0  0  0  0  0  0  0  0  0  0  0  0
   16.6277   -5.2460  -18.1238 C   0  0  0  0  0  0  0  0  0  0  0  0
   16.0393   -4.1421  -18.7108 C   0  0  0  0  0  0  0  0  0  0  0  0
   19.4650   -5.2313  -14.0678 O   0  0  0  0  0  0  0  0  0  0  0  0
  2  1  1  6
  2  3  1  0
  4  2  1  0
  5  4  2  0
  6  7  1  0
  7  8  1  0
  8  9  1  1
 10  8  1  0
 10 11  1  6
 11  4  1  0
 12 10  1  0
 12 13  2  0
 15 14  1  0
 16 15  2  0
 17 16  1  0
 18 24  1  0
 18 17  2  0
 19 18  1  0
 20 19  1  1
 20 22  1  0
 20 21  1  0
 21 12  1  0
 22 23  1  0
 24 25  2  0
 25 15  1  0
 26 22  2  0
M  END
$$$$
