AIY.pdb
     RDKit          3D

 26 26  0  0  1  0  0  0  0  0999 V2000
   23.3929  -23.9629  -16.0420 C   0  0  0  0  0  0  0  0  0  0  0  0
   24.8585  -23.7626  -16.3676 C   0  0  2  0  0  0  0  0  0  0  0  0
   25.4632  -25.0658  -16.5736 N   0  0  0  0  0  0  0  0  0  0  0  0
   25.5509  -23.0062  -15.2983 C   0  0  0  0  0  0  0  0  0  0  0  0
   26.2410  -23.6560  -14.4760 O   0  0  0  0  0  0  0  0  0  0  0  0
   28.2225  -18.5897  -16.3884 C   0  0  0  0  0  0  0  0  0  0  0  0
   27.7622  -19.8500  -15.7243 C   0  0  0  0  0  0  0  0  0  0  0  0
   26.7465  -19.5970  -14.6145 C   0  0  2  0  0  0  0  0  0  0  0  0
   27.4202  -18.7900  -13.5569 C   0  0  0  0  0  0  0  0  0  0  0  0
   26.2279  -20.9121  -14.0707 C   0  0  2  0  0  0  0  0  0  0  0  0
   25.4830  -21.5975  -15.1462 N   0  0  0  0  0  0  0  0  0  0  0  0
   25.3236  -20.7027  -12.9176 C   0  0  0  0  0  0  0  0  0  0  0  0
   24.2253  -20.0925  -13.1189 O   0  0  0  0  0  0  0  0  0  0  0  0
   28.8644  -19.7193   -5.7567 O   0  0  0  0  0  0  0  0  0  0  0  0
   27.9133  -19.6999   -6.7753 C   0  0  0  0  0  0  0  0  0  0  0  0
   27.5053  -20.8492   -7.4192 C   0  0  0  0  0  0  0  0  0  0  0  0
   26.5587  -20.8213   -8.4314 C   0  0  0  0  0  0  0  0  0  0  0  0
   25.9798  -19.6345   -8.8411 C   0  0  0  0  0  0  0  0  0  0  0  0
   24.9751  -19.5668   -9.9125 C   0  0  0  0  0  0  0  0  0  0  0  0
   24.5943  -20.8770  -10.5151 C   0  0  2  0  0  0  0  0  0  0  0  0
   25.5541  -21.1172  -11.6038 N   0  0  0  0  0  0  0  0  0  0  0  0
   23.2059  -20.9432  -11.0181 C   0  0  0  0  0  0  0  0  0  0  0  0
   22.8917  -20.4300  -12.2656 O   0  0  0  0  0  0  0  0  0  0  0  0
   26.3936  -18.4878   -8.1915 C   0  0  0  0  0  0  0  0  0  0  0  0
   27.3372  -18.5142   -7.1823 C   0  0  0  0  0  0  0  0  0  0  0  0
   22.2522  -21.4583  -10.3556 O   0  0  0  0  0  0  0  0  0  0  0  0
  2  1  1  1
  2  3  1  0
  4  2  1  0
  5  4  2  0
  6  7  1  0
  7  8  1  0
  8  9  1  1
 10  8  1  0
 10 11  1  6
 11  4  1  0
 12 10  1  0
 12 13  2  0
 15 14  1  0
 16 15  2  0
 17 16  1  0
 18 24  1  0
 18 17  2  0
 19 18  1  0
 20 19  1  6
 20 22  1  0
 20 21  1  0
 21 12  1  0
 22 23  1  0
 24 25  2  0
 25 15  1  0
 26 22  2  0
M  END
$$$$
