AIY.pdb
     RDKit          3D

 26 26  0  0  1  0  0  0  0  0999 V2000
   26.1019  -19.4839  -19.6173 C   0  0  0  0  0  0  0  0  0  0  0  0
   27.2345  -18.7180  -18.9656 C   0  0  2  0  0  0  0  0  0  0  0  0
   28.3314  -19.6383  -18.7281 N   0  0  0  0  0  0  0  0  0  0  0  0
   26.7933  -18.0646  -17.7112 C   0  0  0  0  0  0  0  0  0  0  0  0
   26.7418  -18.7676  -16.6730 O   0  0  0  0  0  0  0  0  0  0  0  0
   28.2598  -13.3208  -17.0847 C   0  0  0  0  0  0  0  0  0  0  0  0
   27.8045  -14.5047  -16.2894 C   0  0  0  0  0  0  0  0  0  0  0  0
   26.2879  -14.6694  -16.2889 C   0  0  2  0  0  0  0  0  0  0  0  0
   25.7596  -14.0118  -15.0592 C   0  0  0  0  0  0  0  0  0  0  0  0
   25.9215  -16.1381  -16.3405 C   0  0  2  0  0  0  0  0  0  0  0  0
   26.4265  -16.6981  -17.6103 N   0  0  0  0  0  0  0  0  0  0  0  0
   24.4554  -16.3333  -16.2783 C   0  0  0  0  0  0  0  0  0  0  0  0
   23.7734  -16.0984  -17.3265 O   0  0  0  0  0  0  0  0  0  0  0  0
   16.3544  -18.6092  -13.1468 O   0  0  0  0  0  0  0  0  0  0  0  0
   17.7105  -18.3422  -13.3264 C   0  0  0  0  0  0  0  0  0  0  0  0
   18.2483  -17.0932  -13.0972 C   0  0  0  0  0  0  0  0  0  0  0  0
   19.5982  -16.8358  -13.2782 C   0  0  0  0  0  0  0  0  0  0  0  0
   20.4681  -17.8249  -13.6984 C   0  0  0  0  0  0  0  0  0  0  0  0
   21.9046  -17.5877  -13.9033 C   0  0  0  0  0  0  0  0  0  0  0  0
   22.2643  -16.9119  -15.1835 C   0  0  2  0  0  0  0  0  0  0  0  0
   23.7276  -16.7609  -15.1655 N   0  0  0  0  0  0  0  0  0  0  0  0
   21.6066  -15.6053  -15.3961 C   0  0  0  0  0  0  0  0  0  0  0  0
   20.4584  -15.5205  -16.1662 O   0  0  0  0  0  0  0  0  0  0  0  0
   19.9219  -19.0732  -13.9260 C   0  0  0  0  0  0  0  0  0  0  0  0
   18.5764  -19.3310  -13.7459 C   0  0  0  0  0  0  0  0  0  0  0  0
   22.0433  -14.5204  -14.9003 O   0  0  0  0  0  0  0  0  0  0  0  0
  2  1  1  1
  2  3  1  0
  4  2  1  0
  5  4  2  0
  6  7  1  0
  7  8  1  0
  8  9  1  1
 10  8  1  0
 10 11  1  6
 11  4  1  0
 12 10  1  0
 12 13  2  0
 15 14  1  0
 16 15  2  0
 17 16  1  0
 18 24  1  0
 18 17  2  0
 19 18  1  0
 20 19  1  1
 20 22  1  0
 20 21  1  0
 21 12  1  0
 22 23  1  0
 24 25  2  0
 25 15  1  0
 26 22  2  0
M  END
$$$$
