AIY.pdb
     RDKit          3D

 26 26  0  0  1  0  0  0  0  0999 V2000
   27.5276  -19.2757  -15.9805 C   0  0  0  0  0  0  0  0  0  0  0  0
   28.6321  -20.2766  -15.7118 C   0  0  2  0  0  0  0  0  0  0  0  0
   28.6641  -21.2273  -16.8080 N   0  0  0  0  0  0  0  0  0  0  0  0
   28.4400  -20.9564  -14.4095 C   0  0  0  0  0  0  0  0  0  0  0  0
   27.6374  -21.9201  -14.3663 O   0  0  0  0  0  0  0  0  0  0  0  0
   32.3802  -21.8694  -10.6596 C   0  0  0  0  0  0  0  0  0  0  0  0
   31.1729  -21.9496  -11.5412 C   0  0  0  0  0  0  0  0  0  0  0  0
   30.0054  -21.1153  -11.0231 C   0  0  2  0  0  0  0  0  0  0  0  0
   29.7036  -21.5686   -9.6349 C   0  0  0  0  0  0  0  0  0  0  0  0
   28.8068  -21.2696  -11.9361 C   0  0  2  0  0  0  0  0  0  0  0  0
   29.1043  -20.5874  -13.2118 N   0  0  0  0  0  0  0  0  0  0  0  0
   27.5919  -20.6684  -11.3413 C   0  0  0  0  0  0  0  0  0  0  0  0
   27.4580  -19.4043  -11.3980 O   0  0  0  0  0  0  0  0  0  0  0  0
   22.5070  -19.2552  -15.6123 O   0  0  0  0  0  0  0  0  0  0  0  0
   22.9303  -19.7606  -14.3844 C   0  0  0  0  0  0  0  0  0  0  0  0
   23.8067  -20.8214  -14.2912 C   0  0  0  0  0  0  0  0  0  0  0  0
   24.2229  -21.3182  -13.0660 C   0  0  0  0  0  0  0  0  0  0  0  0
   23.7753  -20.7692  -11.8786 C   0  0  0  0  0  0  0  0  0  0  0  0
   24.1932  -21.2716  -10.5615 C   0  0  0  0  0  0  0  0  0  0  0  0
   25.4497  -20.6773  -10.0202 C   0  0  2  0  0  0  0  0  0  0  0  0
   26.5530  -21.3598  -10.7138 N   0  0  0  0  0  0  0  0  0  0  0  0
   25.6034  -20.7917   -8.5545 C   0  0  0  0  0  0  0  0  0  0  0  0
   26.5157  -21.6847   -8.0173 O   0  0  0  0  0  0  0  0  0  0  0  0
   22.8978  -19.7072  -11.9802 C   0  0  0  0  0  0  0  0  0  0  0  0
   22.4821  -19.2110  -13.2011 C   0  0  0  0  0  0  0  0  0  0  0  0
   24.9287  -20.0993   -7.7304 O   0  0  0  0  0  0  0  0  0  0  0  0
  2  1  1  6
  2  3  1  0
  4  2  1  0
  5  4  2  0
  6  7  1  0
  7  8  1  0
  8  9  1  1
 10  8  1  0
 10 11  1  6
 11  4  1  0
 12 10  1  0
 12 13  2  0
 15 14  1  0
 16 15  2  0
 17 16  1  0
 18 24  1  0
 18 17  2  0
 19 18  1  0
 20 19  1  6
 20 22  1  0
 20 21  1  0
 21 12  1  0
 22 23  1  0
 24 25  2  0
 25 15  1  0
 26 22  2  0
M  END
$$$$
