AIY.pdb
     RDKit          3D

 26 26  0  0  1  0  0  0  0  0999 V2000
   23.3999  -16.7076  -15.3656 C   0  0  0  0  0  0  0  0  0  0  0  0
   24.1969  -17.5013  -16.3799 C   0  0  2  0  0  0  0  0  0  0  0  0
   23.3431  -17.7715  -17.5220 N   0  0  0  0  0  0  0  0  0  0  0  0
   24.7269  -18.7530  -15.7905 C   0  0  0  0  0  0  0  0  0  0  0  0
   23.9850  -19.7650  -15.8041 O   0  0  0  0  0  0  0  0  0  0  0  0
   29.5391  -20.3853  -17.0805 C   0  0  0  0  0  0  0  0  0  0  0  0
   28.1157  -20.2644  -16.6325 C   0  0  0  0  0  0  0  0  0  0  0  0
   27.9665  -20.3173  -15.1152 C   0  0  2  0  0  0  0  0  0  0  0  0
   28.5464  -21.6086  -14.6460 C   0  0  0  0  0  0  0  0  0  0  0  0
   26.5083  -20.1844  -14.7283 C   0  0  2  0  0  0  0  0  0  0  0  0
   26.0165  -18.8790  -15.2134 N   0  0  0  0  0  0  0  0  0  0  0  0
   26.3290  -20.2505  -13.2604 C   0  0  0  0  0  0  0  0  0  0  0  0
   26.8474  -19.3307  -12.5502 O   0  0  0  0  0  0  0  0  0  0  0  0
   27.5946  -20.2387   -5.3305 O   0  0  0  0  0  0  0  0  0  0  0  0
   27.1549  -20.1252   -6.6482 C   0  0  0  0  0  0  0  0  0  0  0  0
   28.0155  -19.8335   -7.6855 C   0  0  0  0  0  0  0  0  0  0  0  0
   27.5701  -19.7224   -8.9935 C   0  0  0  0  0  0  0  0  0  0  0  0
   26.2374  -19.9000   -9.3161 C   0  0  0  0  0  0  0  0  0  0  0  0
   25.7291  -19.7872  -10.6912 C   0  0  0  0  0  0  0  0  0  0  0  0
   25.0555  -21.0062  -11.2253 C   0  0  2  0  0  0  0  0  0  0  0  0
   25.6319  -21.2369  -12.5590 N   0  0  0  0  0  0  0  0  0  0  0  0
   23.5822  -20.9120  -11.3017 C   0  0  0  0  0  0  0  0  0  0  0  0
   22.9745  -20.4086  -12.4400 O   0  0  0  0  0  0  0  0  0  0  0  0
   25.3817  -20.1917   -8.2716 C   0  0  0  0  0  0  0  0  0  0  0  0
   25.8245  -20.3028   -6.9674 C   0  0  0  0  0  0  0  0  0  0  0  0
   22.8143  -21.2759  -10.3576 O   0  0  0  0  0  0  0  0  0  0  0  0
  2  1  1  1
  2  3  1  0
  4  2  1  0
  5  4  2  0
  6  7  1  0
  7  8  1  0
  8  9  1  6
 10  8  1  0
 10 11  1  1
 11  4  1  0
 12 10  1  0
 12 13  2  0
 15 14  1  0
 16 15  2  0
 17 16  1  0
 18 24  1  0
 18 17  2  0
 19 18  1  0
 20 19  1  6
 20 22  1  0
 20 21  1  0
 21 12  1  0
 22 23  1  0
 24 25  2  0
 25 15  1  0
 26 22  2  0
M  END
$$$$
