AIY.pdb
     RDKit          3D

 26 26  0  0  1  0  0  0  0  0999 V2000
   18.0459  -13.6384  -17.2192 C   0  0  0  0  0  0  0  0  0  0  0  0
   19.3975  -13.7530  -17.8930 C   0  0  2  0  0  0  0  0  0  0  0  0
   19.9978  -15.0152  -17.5016 N   0  0  0  0  0  0  0  0  0  0  0  0
   20.2714  -12.6070  -17.5492 C   0  0  0  0  0  0  0  0  0  0  0  0
   21.0104  -12.7176  -16.5410 O   0  0  0  0  0  0  0  0  0  0  0  0
   21.8532  -10.5055  -21.3975 C   0  0  0  0  0  0  0  0  0  0  0  0
   22.4547  -10.3421  -20.0363 C   0  0  0  0  0  0  0  0  0  0  0  0
   21.5908   -9.4969  -19.1053 C   0  0  2  0  0  0  0  0  0  0  0  0
   22.3643   -8.2707  -18.7559 C   0  0  0  0  0  0  0  0  0  0  0  0
   21.2164  -10.2934  -17.8728 C   0  0  2  0  0  0  0  0  0  0  0  0
   20.3250  -11.3961  -18.2860 N   0  0  0  0  0  0  0  0  0  0  0  0
   20.5126   -9.4533  -16.8778 C   0  0  0  0  0  0  0  0  0  0  0  0
   19.3054   -9.1273  -17.1138 O   0  0  0  0  0  0  0  0  0  0  0  0
   17.8526   -5.9955   -9.1458 O   0  0  0  0  0  0  0  0  0  0  0  0
   18.4646   -6.6878  -10.1892 C   0  0  0  0  0  0  0  0  0  0  0  0
   17.9573   -7.8726  -10.6797 C   0  0  0  0  0  0  0  0  0  0  0  0
   18.5720   -8.5551  -11.7178 C   0  0  0  0  0  0  0  0  0  0  0  0
   19.7259   -8.0752  -12.3093 C   0  0  0  0  0  0  0  0  0  0  0  0
   20.4062   -8.7732  -13.4101 C   0  0  0  0  0  0  0  0  0  0  0  0
   20.2793   -8.1299  -14.7498 C   0  0  2  0  0  0  0  0  0  0  0  0
   21.0462   -8.9737  -15.6794 N   0  0  0  0  0  0  0  0  0  0  0  0
   20.7482   -6.7292  -14.8071 C   0  0  0  0  0  0  0  0  0  0  0  0
   19.8538   -5.6872  -14.6264 O   0  0  0  0  0  0  0  0  0  0  0  0
   20.2279   -6.8880  -11.8124 C   0  0  0  0  0  0  0  0  0  0  0  0
   19.6160   -6.2067  -10.7775 C   0  0  0  0  0  0  0  0  0  0  0  0
   21.9598   -6.4117  -15.0189 O   0  0  0  0  0  0  0  0  0  0  0  0
  2  1  1  1
  2  3  1  0
  4  2  1  0
  5  4  2  0
  6  7  1  0
  7  8  1  0
  8  9  1  1
 10  8  1  0
 10 11  1  6
 11  4  1  0
 12 10  1  0
 12 13  2  0
 15 14  1  0
 16 15  2  0
 17 16  1  0
 18 24  1  0
 18 17  2  0
 19 18  1  0
 20 19  1  1
 20 22  1  0
 20 21  1  0
 21 12  1  0
 22 23  1  0
 24 25  2  0
 25 15  1  0
 26 22  2  0
M  END
$$$$
