AIY.pdb
     RDKit          3D

 26 26  0  0  1  0  0  0  0  0999 V2000
   24.1504  -15.8816  -13.7015 C   0  0  0  0  0  0  0  0  0  0  0  0
   24.6955  -16.7396  -14.8244 C   0  0  2  0  0  0  0  0  0  0  0  0
   23.7409  -16.7223  -15.9175 N   0  0  0  0  0  0  0  0  0  0  0  0
   24.9688  -18.1212  -14.3646 C   0  0  0  0  0  0  0  0  0  0  0  0
   24.0062  -18.9253  -14.3260 O   0  0  0  0  0  0  0  0  0  0  0  0
   28.9140  -22.6475  -14.8889 C   0  0  0  0  0  0  0  0  0  0  0  0
   27.7604  -22.0498  -14.1449 C   0  0  0  0  0  0  0  0  0  0  0  0
   27.6013  -20.5545  -14.4022 C   0  0  2  0  0  0  0  0  0  0  0  0
   28.8927  -19.8938  -14.0564 C   0  0  0  0  0  0  0  0  0  0  0  0
   26.4527  -20.0025  -13.5839 C   0  0  2  0  0  0  0  0  0  0  0  0
   26.2467  -18.5909  -13.9664 N   0  0  0  0  0  0  0  0  0  0  0  0
   26.7391  -20.0706  -12.1332 C   0  0  0  0  0  0  0  0  0  0  0  0
   27.8550  -19.6202  -11.7197 O   0  0  0  0  0  0  0  0  0  0  0  0
   28.9843  -19.6398   -3.9882 O   0  0  0  0  0  0  0  0  0  0  0  0
   28.4441  -19.6021   -5.2724 C   0  0  0  0  0  0  0  0  0  0  0  0
   27.1892  -19.0890   -5.5250 C   0  0  0  0  0  0  0  0  0  0  0  0
   26.6591  -19.0552   -6.8053 C   0  0  0  0  0  0  0  0  0  0  0  0
   27.3689  -19.5366   -7.8897 C   0  0  0  0  0  0  0  0  0  0  0  0
   26.8377  -19.5191   -9.2606 C   0  0  0  0  0  0  0  0  0  0  0  0
   26.3347  -20.8286   -9.7675 C   0  0  2  0  0  0  0  0  0  0  0  0
   25.8920  -20.5859  -11.1494 N   0  0  0  0  0  0  0  0  0  0  0  0
   25.2435  -21.4214   -8.9656 C   0  0  0  0  0  0  0  0  0  0  0  0
   25.5344  -22.1485   -7.8232 O   0  0  0  0  0  0  0  0  0  0  0  0
   28.6250  -20.0489   -7.6286 C   0  0  0  0  0  0  0  0  0  0  0  0
   29.1545  -20.0832   -6.3528 C   0  0  0  0  0  0  0  0  0  0  0  0
   24.0159  -21.3014   -9.2693 O   0  0  0  0  0  0  0  0  0  0  0  0
  2  1  1  1
  2  3  1  0
  4  2  1  0
  5  4  2  0
  6  7  1  0
  7  8  1  0
  8  9  1  1
 10  8  1  0
 10 11  1  6
 11  4  1  0
 12 10  1  0
 12 13  2  0
 15 14  1  0
 16 15  2  0
 17 16  1  0
 18 24  1  0
 18 17  2  0
 19 18  1  0
 20 19  1  1
 20 22  1  0
 20 21  1  0
 21 12  1  0
 22 23  1  0
 24 25  2  0
 25 15  1  0
 26 22  2  0
M  END
$$$$
