AIY.pdb
     RDKit          3D

 26 26  0  0  1  0  0  0  0  0999 V2000
   28.2950  -20.2048  -18.5276 C   0  0  0  0  0  0  0  0  0  0  0  0
   27.6807  -18.8225  -18.4502 C   0  0  2  0  0  0  0  0  0  0  0  0
   28.7381  -17.8423  -18.6162 N   0  0  0  0  0  0  0  0  0  0  0  0
   26.9535  -18.6253  -17.1745 C   0  0  0  0  0  0  0  0  0  0  0  0
   27.6321  -18.3887  -16.1458 O   0  0  0  0  0  0  0  0  0  0  0  0
   22.8129  -16.1218  -17.7345 C   0  0  0  0  0  0  0  0  0  0  0  0
   23.7079  -16.3967  -16.5662 C   0  0  0  0  0  0  0  0  0  0  0  0
   23.5349  -17.8055  -16.0070 C   0  0  2  0  0  0  0  0  0  0  0  0
   22.7223  -17.7034  -14.7608 C   0  0  0  0  0  0  0  0  0  0  0  0
   24.8878  -18.4334  -15.7439 C   0  0  2  0  0  0  0  0  0  0  0  0
   25.5424  -18.6867  -17.0433 N   0  0  0  0  0  0  0  0  0  0  0  0
   24.7579  -19.7142  -15.0132 C   0  0  0  0  0  0  0  0  0  0  0  0
   24.2589  -20.7092  -15.6296 O   0  0  0  0  0  0  0  0  0  0  0  0
   26.5369  -19.3766   -7.0333 O   0  0  0  0  0  0  0  0  0  0  0  0
   26.4450  -19.9208   -8.3131 C   0  0  0  0  0  0  0  0  0  0  0  0
   25.9412  -21.1847   -8.5377 C   0  0  0  0  0  0  0  0  0  0  0  0
   25.8532  -21.7187   -9.8138 C   0  0  0  0  0  0  0  0  0  0  0  0
   26.2686  -21.0038  -10.9220 C   0  0  0  0  0  0  0  0  0  0  0  0
   26.1926  -21.5390  -12.2893 C   0  0  0  0  0  0  0  0  0  0  0  0
   24.9271  -21.2436  -13.0215 C   0  0  2  0  0  0  0  0  0  0  0  0
   25.1374  -19.9500  -13.6898 N   0  0  0  0  0  0  0  0  0  0  0  0
   23.7188  -21.2023  -12.1710 C   0  0  0  0  0  0  0  0  0  0  0  0
   23.0435  -22.3717  -11.8627 O   0  0  0  0  0  0  0  0  0  0  0  0
   26.7721  -19.7387  -10.6888 C   0  0  0  0  0  0  0  0  0  0  0  0
   26.8604  -19.2053   -9.4171 C   0  0  0  0  0  0  0  0  0  0  0  0
   23.2460  -20.1259  -11.6899 O   0  0  0  0  0  0  0  0  0  0  0  0
  2  1  1  1
  2  3  1  0
  4  2  1  0
  5  4  2  0
  6  7  1  0
  7  8  1  0
  8  9  1  1
 10  8  1  0
 10 11  1  6
 11  4  1  0
 12 10  1  0
 12 13  2  0
 15 14  1  0
 16 15  2  0
 17 16  1  0
 18 24  1  0
 18 17  2  0
 19 18  1  0
 20 19  1  1
 20 22  1  0
 20 21  1  0
 21 12  1  0
 22 23  1  0
 24 25  2  0
 25 15  1  0
 26 22  2  0
M  END
$$$$
