AIY.pdb
     RDKit          3D

 26 26  0  0  1  0  0  0  0  0999 V2000
   33.6092  -10.4176  -18.6220 C   0  0  0  0  0  0  0  0  0  0  0  0
   32.7878  -11.6656  -18.3732 C   0  0  2  0  0  0  0  0  0  0  0  0
   33.2183  -12.6899  -19.3070 N   0  0  0  0  0  0  0  0  0  0  0  0
   31.3373  -11.3916  -18.4994 C   0  0  0  0  0  0  0  0  0  0  0  0
   30.8312  -11.4396  -19.6467 O   0  0  0  0  0  0  0  0  0  0  0  0
   27.8728  -13.5487  -15.1799 C   0  0  0  0  0  0  0  0  0  0  0  0
   28.4221  -12.9278  -16.4266 C   0  0  0  0  0  0  0  0  0  0  0  0
   28.2881  -11.4082  -16.4394 C   0  0  2  0  0  0  0  0  0  0  0  0
   26.8348  -11.0805  -16.5040 C   0  0  0  0  0  0  0  0  0  0  0  0
   29.0465  -10.8264  -17.6142 C   0  0  2  0  0  0  0  0  0  0  0  0
   30.4869  -11.0793  -17.4079 N   0  0  0  0  0  0  0  0  0  0  0  0
   28.8266   -9.3673  -17.7320 C   0  0  0  0  0  0  0  0  0  0  0  0
   29.2183   -8.6220  -16.7779 O   0  0  0  0  0  0  0  0  0  0  0  0
   28.4654   -1.2737  -21.3097 O   0  0  0  0  0  0  0  0  0  0  0  0
   28.6179   -2.6076  -20.9356 C   0  0  0  0  0  0  0  0  0  0  0  0
   29.4233   -2.9859  -19.8820 C   0  0  0  0  0  0  0  0  0  0  0  0
   29.5696   -4.3149  -19.5163 C   0  0  0  0  0  0  0  0  0  0  0  0
   28.9112   -5.3235  -20.1951 C   0  0  0  0  0  0  0  0  0  0  0  0
   29.0446   -6.7433  -19.8370 C   0  0  0  0  0  0  0  0  0  0  0  0
   28.0501   -7.2486  -18.8469 C   0  0  2  0  0  0  0  0  0  0  0  0
   28.2238   -8.7089  -18.8063 N   0  0  0  0  0  0  0  0  0  0  0  0
   26.6466   -6.8974  -19.1497 C   0  0  0  0  0  0  0  0  0  0  0  0
   26.1053   -5.7158  -18.6708 O   0  0  0  0  0  0  0  0  0  0  0  0
   28.1065   -4.9366  -21.2492 C   0  0  0  0  0  0  0  0  0  0  0  0
   27.9598   -3.6121  -21.6148 C   0  0  0  0  0  0  0  0  0  0  0  0
   25.8813   -7.6361  -19.8442 O   0  0  0  0  0  0  0  0  0  0  0  0
  2  1  1  6
  2  3  1  0
  4  2  1  0
  5  4  2  0
  6  7  1  0
  7  8  1  0
  8  9  1  6
 10  8  1  0
 10 11  1  1
 11  4  1  0
 12 10  1  0
 12 13  2  0
 15 14  1  0
 16 15  2  0
 17 16  1  0
 18 24  1  0
 18 17  2  0
 19 18  1  0
 20 19  1  6
 20 22  1  0
 20 21  1  0
 21 12  1  0
 22 23  1  0
 24 25  2  0
 25 15  1  0
 26 22  2  0
M  END
$$$$
