AIY.pdb
     RDKit          3D

 26 26  0  0  1  0  0  0  0  0999 V2000
   27.7521  -18.5248  -14.6464 C   0  0  0  0  0  0  0  0  0  0  0  0
   28.1921  -19.8324  -14.0213 C   0  0  2  0  0  0  0  0  0  0  0  0
   28.6768  -20.7032  -15.0764 N   0  0  0  0  0  0  0  0  0  0  0  0
   27.0900  -20.4647  -13.2595 C   0  0  0  0  0  0  0  0  0  0  0  0
   26.3791  -21.3109  -13.8539 O   0  0  0  0  0  0  0  0  0  0  0  0
   27.3250  -20.3109   -7.8005 C   0  0  0  0  0  0  0  0  0  0  0  0
   27.1114  -20.8362   -9.1861 C   0  0  0  0  0  0  0  0  0  0  0  0
   25.7337  -20.4917   -9.7436 C   0  0  2  0  0  0  0  0  0  0  0  0
   24.7207  -21.2449   -8.9499 C   0  0  0  0  0  0  0  0  0  0  0  0
   25.6636  -20.8396  -11.2160 C   0  0  2  0  0  0  0  0  0  0  0  0
   26.7886  -20.1746  -11.9041 N   0  0  0  0  0  0  0  0  0  0  0  0
   24.3923  -20.3825  -11.8209 C   0  0  0  0  0  0  0  0  0  0  0  0
   24.0146  -19.1887  -11.5942 O   0  0  0  0  0  0  0  0  0  0  0  0
   20.7256  -16.1545  -17.6458 O   0  0  0  0  0  0  0  0  0  0  0  0
   21.1368  -17.2751  -16.9264 C   0  0  0  0  0  0  0  0  0  0  0  0
   20.2970  -18.3431  -16.6900 C   0  0  0  0  0  0  0  0  0  0  0  0
   20.7138  -19.4541  -15.9735 C   0  0  0  0  0  0  0  0  0  0  0  0
   21.9956  -19.5400  -15.4624 C   0  0  0  0  0  0  0  0  0  0  0  0
   22.4712  -20.7011  -14.6959 C   0  0  0  0  0  0  0  0  0  0  0  0
   22.3092  -20.5999  -13.2166 C   0  0  2  0  0  0  0  0  0  0  0  0
   23.5475  -21.1407  -12.6348 N   0  0  0  0  0  0  0  0  0  0  0  0
   21.1270  -21.3044  -12.6769 C   0  0  0  0  0  0  0  0  0  0  0  0
   19.9188  -20.6397  -12.5478 O   0  0  0  0  0  0  0  0  0  0  0  0
   22.8307  -18.4663  -15.7033 C   0  0  0  0  0  0  0  0  0  0  0  0
   22.4164  -17.3582  -16.4174 C   0  0  0  0  0  0  0  0  0  0  0  0
   21.1515  -22.5210  -12.3123 O   0  0  0  0  0  0  0  0  0  0  0  0
  2  1  1  6
  2  3  1  0
  4  2  1  0
  5  4  2  0
  6  7  1  0
  7  8  1  0
  8  9  1  1
 10  8  1  0
 10 11  1  6
 11  4  1  0
 12 10  1  0
 12 13  2  0
 15 14  1  0
 16 15  2  0
 17 16  1  0
 18 24  1  0
 18 17  2  0
 19 18  1  0
 20 19  1  6
 20 22  1  0
 20 21  1  0
 21 12  1  0
 22 23  1  0
 24 25  2  0
 25 15  1  0
 26 22  2  0
M  END
$$$$
