AIY.pdb
     RDKit          3D

 26 26  0  0  1  0  0  0  0  0999 V2000
   28.1374  -30.4591  -21.9054 C   0  0  0  0  0  0  0  0  0  0  0  0
   29.1745  -29.8340  -20.9955 C   0  0  2  0  0  0  0  0  0  0  0  0
   30.3903  -30.6222  -21.0788 N   0  0  0  0  0  0  0  0  0  0  0  0
   28.6833  -29.7402  -19.6009 C   0  0  0  0  0  0  0  0  0  0  0  0
   28.9955  -30.6617  -18.8083 O   0  0  0  0  0  0  0  0  0  0  0  0
   28.7190  -25.0787  -16.9856 C   0  0  0  0  0  0  0  0  0  0  0  0
   28.7554  -26.5453  -17.2842 C   0  0  0  0  0  0  0  0  0  0  0  0
   27.3720  -27.1880  -17.2627 C   0  0  2  0  0  0  0  0  0  0  0  0
   26.8303  -27.0548  -15.8797 C   0  0  0  0  0  0  0  0  0  0  0  0
   27.4623  -28.6377  -17.6919 C   0  0  2  0  0  0  0  0  0  0  0  0
   27.8845  -28.6773  -19.1066 N   0  0  0  0  0  0  0  0  0  0  0  0
   26.1573  -29.3240  -17.5603 C   0  0  0  0  0  0  0  0  0  0  0  0
   25.1358  -28.7776  -18.0866 O   0  0  0  0  0  0  0  0  0  0  0  0
   19.1043  -33.9496  -18.7840 O   0  0  0  0  0  0  0  0  0  0  0  0
   20.3436  -33.3254  -18.6546 C   0  0  0  0  0  0  0  0  0  0  0  0
   21.5212  -33.9557  -18.9981 C   0  0  0  0  0  0  0  0  0  0  0  0
   22.7499  -33.3279  -18.8664 C   0  0  0  0  0  0  0  0  0  0  0  0
   22.8487  -32.0364  -18.3828 C   0  0  0  0  0  0  0  0  0  0  0  0
   24.1344  -31.3403  -18.2273 C   0  0  0  0  0  0  0  0  0  0  0  0
   24.5925  -31.1511  -16.8205 C   0  0  2  0  0  0  0  0  0  0  0  0
   25.9264  -30.5369  -16.9071 N   0  0  0  0  0  0  0  0  0  0  0  0
   24.6389  -32.3904  -16.0160 C   0  0  0  0  0  0  0  0  0  0  0  0
   23.5244  -32.8002  -15.3030 O   0  0  0  0  0  0  0  0  0  0  0  0
   21.6649  -31.4118  -18.0408 C   0  0  0  0  0  0  0  0  0  0  0  0
   20.4393  -32.0366  -18.1716 C   0  0  0  0  0  0  0  0  0  0  0  0
   25.6711  -33.1264  -15.9354 O   0  0  0  0  0  0  0  0  0  0  0  0
  2  1  1  6
  2  3  1  0
  4  2  1  0
  5  4  2  0
  6  7  1  0
  7  8  1  0
  8  9  1  1
 10  8  1  0
 10 11  1  6
 11  4  1  0
 12 10  1  0
 12 13  2  0
 15 14  1  0
 16 15  2  0
 17 16  1  0
 18 24  1  0
 18 17  2  0
 19 18  1  0
 20 19  1  6
 20 22  1  0
 20 21  1  0
 21 12  1  0
 22 23  1  0
 24 25  2  0
 25 15  1  0
 26 22  2  0
M  END
$$$$
