AIY.pdb
     RDKit          3D

 26 26  0  0  1  0  0  0  0  0999 V2000
   27.3297  -19.1293  -16.6674 C   0  0  0  0  0  0  0  0  0  0  0  0
   27.8399  -20.1561  -15.6778 C   0  0  2  0  0  0  0  0  0  0  0  0
   28.5073  -21.2116  -16.4174 N   0  0  0  0  0  0  0  0  0  0  0  0
   26.7413  -20.6917  -14.8403 C   0  0  0  0  0  0  0  0  0  0  0  0
   26.0311  -21.6066  -15.3234 O   0  0  0  0  0  0  0  0  0  0  0  0
   27.4834  -21.1129   -9.5186 C   0  0  0  0  0  0  0  0  0  0  0  0
   27.0302  -21.3801  -10.9202 C   0  0  0  0  0  0  0  0  0  0  0  0
   25.7164  -20.6833  -11.2603 C   0  0  2  0  0  0  0  0  0  0  0  0
   24.6589  -21.2497  -10.3745 C   0  0  0  0  0  0  0  0  0  0  0  0
   25.3846  -20.8791  -12.7250 C   0  0  2  0  0  0  0  0  0  0  0  0
   26.4427  -20.2366  -13.5304 N   0  0  0  0  0  0  0  0  0  0  0  0
   24.0804  -20.2704  -13.0712 C   0  0  0  0  0  0  0  0  0  0  0  0
   23.9854  -19.0017  -13.0498 O   0  0  0  0  0  0  0  0  0  0  0  0
   17.7726  -17.4022  -18.1827 O   0  0  0  0  0  0  0  0  0  0  0  0
   18.8268  -17.9359  -17.4435 C   0  0  0  0  0  0  0  0  0  0  0  0
   19.3850  -17.2670  -16.3746 C   0  0  0  0  0  0  0  0  0  0  0  0
   20.4334  -17.8048  -15.6445 C   0  0  0  0  0  0  0  0  0  0  0  0
   20.9673  -19.0411  -15.9579 C   0  0  0  0  0  0  0  0  0  0  0  0
   22.0804  -19.6413  -15.2077 C   0  0  0  0  0  0  0  0  0  0  0  0
   21.7077  -20.2763  -13.9105 C   0  0  2  0  0  0  0  0  0  0  0  0
   22.9191  -20.9587  -13.4299 N   0  0  0  0  0  0  0  0  0  0  0  0
   20.5729  -21.2203  -13.9906 C   0  0  0  0  0  0  0  0  0  0  0  0
   19.2765  -20.7682  -13.8079 O   0  0  0  0  0  0  0  0  0  0  0  0
   20.4029  -19.7048  -17.0299 C   0  0  0  0  0  0  0  0  0  0  0  0
   19.3577  -19.1697  -17.7585 C   0  0  0  0  0  0  0  0  0  0  0  0
   20.7179  -22.4605  -14.2239 O   0  0  0  0  0  0  0  0  0  0  0  0
  2  1  1  6
  2  3  1  0
  4  2  1  0
  5  4  2  0
  6  7  1  0
  7  8  1  0
  8  9  1  1
 10  8  1  0
 10 11  1  6
 11  4  1  0
 12 10  1  0
 12 13  2  0
 15 14  1  0
 16 15  2  0
 17 16  1  0
 18 24  1  0
 18 17  2  0
 19 18  1  0
 20 19  1  6
 20 22  1  0
 20 21  1  0
 21 12  1  0
 22 23  1  0
 24 25  2  0
 25 15  1  0
 26 22  2  0
M  END
$$$$
