AIY.pdb
     RDKit          3D

 26 26  0  0  1  0  0  0  0  0999 V2000
   18.8360  -24.2037   -8.7349 C   0  0  0  0  0  0  0  0  0  0  0  0
   19.7922  -23.5770   -7.7414 C   0  0  2  0  0  0  0  0  0  0  0  0
   19.0674  -23.3161   -6.5114 N   0  0  0  0  0  0  0  0  0  0  0  0
   20.4018  -22.3407   -8.2845 C   0  0  0  0  0  0  0  0  0  0  0  0
   19.7294  -21.2829   -8.2251 O   0  0  0  0  0  0  0  0  0  0  0  0
   25.6688  -21.0853   -7.8842 C   0  0  0  0  0  0  0  0  0  0  0  0
   24.1814  -20.9668   -8.0061 C   0  0  0  0  0  0  0  0  0  0  0  0
   23.6982  -21.0439   -9.4511 C   0  0  2  0  0  0  0  0  0  0  0  0
   24.2788  -19.8842  -10.1870 C   0  0  0  0  0  0  0  0  0  0  0  0
   22.1843  -21.0359   -9.4972 C   0  0  2  0  0  0  0  0  0  0  0  0
   21.6942  -22.2778   -8.8658 N   0  0  0  0  0  0  0  0  0  0  0  0
   21.6850  -20.9749  -10.8894 C   0  0  0  0  0  0  0  0  0  0  0  0
   21.8227  -22.0059  -11.6224 O   0  0  0  0  0  0  0  0  0  0  0  0
   17.8326  -17.8014  -18.3568 O   0  0  0  0  0  0  0  0  0  0  0  0
   18.3029  -18.0209  -17.0633 C   0  0  0  0  0  0  0  0  0  0  0  0
   17.6022  -18.7765  -16.1469 C   0  0  0  0  0  0  0  0  0  0  0  0
   18.0769  -18.9901  -14.8622 C   0  0  0  0  0  0  0  0  0  0  0  0
   19.2793  -18.4522  -14.4420 C   0  0  0  0  0  0  0  0  0  0  0  0
   19.8123  -18.6555  -13.0869 C   0  0  0  0  0  0  0  0  0  0  0  0
   20.6254  -19.8918  -12.8990 C   0  0  2  0  0  0  0  0  0  0  0  0
   21.0620  -19.8808  -11.4942 N   0  0  0  0  0  0  0  0  0  0  0  0
   21.7866  -20.0090  -13.8063 C   0  0  0  0  0  0  0  0  0  0  0  0
   21.6967  -20.7738  -14.9576 O   0  0  0  0  0  0  0  0  0  0  0  0
   19.9752  -17.6965  -15.3655 C   0  0  0  0  0  0  0  0  0  0  0  0
   19.5030  -17.4829  -16.6465 C   0  0  0  0  0  0  0  0  0  0  0  0
   22.8977  -19.4331  -13.5883 O   0  0  0  0  0  0  0  0  0  0  0  0
  2  1  1  6
  2  3  1  0
  4  2  1  0
  5  4  2  0
  6  7  1  0
  7  8  1  0
  8  9  1  6
 10  8  1  0
 10 11  1  6
 11  4  1  0
 12 10  1  0
 12 13  2  0
 15 14  1  0
 16 15  2  0
 17 16  1  0
 18 24  1  0
 18 17  2  0
 19 18  1  0
 20 19  1  6
 20 22  1  0
 20 21  1  0
 21 12  1  0
 22 23  1  0
 24 25  2  0
 25 15  1  0
 26 22  2  0
M  END
$$$$
