AIY.pdb
     RDKit          3D

 26 26  0  0  1  0  0  0  0  0999 V2000
   27.8134  -19.7118  -15.6644 C   0  0  0  0  0  0  0  0  0  0  0  0
   28.1858  -20.8130  -14.6935 C   0  0  2  0  0  0  0  0  0  0  0  0
   28.6723  -21.9487  -15.4552 N   0  0  0  0  0  0  0  0  0  0  0  0
   27.0378  -21.1873  -13.8349 C   0  0  0  0  0  0  0  0  0  0  0  0
   26.1997  -21.9970  -14.3003 O   0  0  0  0  0  0  0  0  0  0  0  0
   27.4307  -20.8516   -8.3692 C   0  0  0  0  0  0  0  0  0  0  0  0
   27.0533  -21.3630   -9.7248 C   0  0  0  0  0  0  0  0  0  0  0  0
   25.8387  -20.6488  -10.3095 C   0  0  2  0  0  0  0  0  0  0  0  0
   24.6607  -20.9848   -9.4590 C   0  0  0  0  0  0  0  0  0  0  0  0
   25.6282  -21.0689  -11.7494 C   0  0  2  0  0  0  0  0  0  0  0  0
   26.8273  -20.6893  -12.5235 N   0  0  0  0  0  0  0  0  0  0  0  0
   24.4444  -20.4048  -12.3401 C   0  0  0  0  0  0  0  0  0  0  0  0
   24.4965  -19.1487  -12.5368 O   0  0  0  0  0  0  0  0  0  0  0  0
   17.9578  -18.0794  -17.7228 O   0  0  0  0  0  0  0  0  0  0  0  0
   18.9964  -18.6559  -16.9940 C   0  0  0  0  0  0  0  0  0  0  0  0
   18.9128  -19.9347  -16.4846 C   0  0  0  0  0  0  0  0  0  0  0  0
   19.9504  -20.5008  -15.7606 C   0  0  0  0  0  0  0  0  0  0  0  0
   21.1198  -19.8046  -15.5167 C   0  0  0  0  0  0  0  0  0  0  0  0
   22.2395  -20.3720  -14.7510 C   0  0  0  0  0  0  0  0  0  0  0  0
   22.1078  -20.2858  -13.2678 C   0  0  2  0  0  0  0  0  0  0  0  0
   23.2518  -21.0276  -12.7151 N   0  0  0  0  0  0  0  0  0  0  0  0
   20.8350  -20.8119  -12.7309 C   0  0  0  0  0  0  0  0  0  0  0  0
   19.7779  -19.9535  -12.4778 O   0  0  0  0  0  0  0  0  0  0  0  0
   21.1959  -18.5244  -16.0300 C   0  0  0  0  0  0  0  0  0  0  0  0
   20.1622  -17.9589  -16.7519 C   0  0  0  0  0  0  0  0  0  0  0  0
   20.6447  -22.0423  -12.4790 O   0  0  0  0  0  0  0  0  0  0  0  0
  2  1  1  6
  2  3  1  0
  4  2  1  0
  5  4  2  0
  6  7  1  0
  7  8  1  0
  8  9  1  1
 10  8  1  0
 10 11  1  6
 11  4  1  0
 12 10  1  0
 12 13  2  0
 15 14  1  0
 16 15  2  0
 17 16  1  0
 18 24  1  0
 18 17  2  0
 19 18  1  0
 20 19  1  6
 20 22  1  0
 20 21  1  0
 21 12  1  0
 22 23  1  0
 24 25  2  0
 25 15  1  0
 26 22  2  0
M  END
$$$$
