AIY.pdb
     RDKit          3D

 26 26  0  0  1  0  0  0  0  0999 V2000
   15.8273  -11.0702  -19.2629 C   0  0  0  0  0  0  0  0  0  0  0  0
   16.1237  -11.9980  -18.1030 C   0  0  2  0  0  0  0  0  0  0  0  0
   16.8802  -11.2596  -17.1086 N   0  0  0  0  0  0  0  0  0  0  0  0
   16.8529  -13.2073  -18.5514 C   0  0  0  0  0  0  0  0  0  0  0  0
   16.3008  -13.9380  -19.4093 O   0  0  0  0  0  0  0  0  0  0  0  0
   20.9909  -12.4315  -19.7308 C   0  0  0  0  0  0  0  0  0  0  0  0
   20.5095  -13.8274  -19.9776 C   0  0  0  0  0  0  0  0  0  0  0  0
   20.2495  -14.6003  -18.6882 C   0  0  2  0  0  0  0  0  0  0  0  0
   21.0174  -15.8765  -18.7605 C   0  0  0  0  0  0  0  0  0  0  0  0
   18.7651  -14.8483  -18.5176 C   0  0  2  0  0  0  0  0  0  0  0  0
   18.1324  -13.5900  -18.0733 N   0  0  0  0  0  0  0  0  0  0  0  0
   18.5039  -15.9000  -17.5092 C   0  0  0  0  0  0  0  0  0  0  0  0
   18.7176  -15.6248  -16.2854 O   0  0  0  0  0  0  0  0  0  0  0  0
   14.4476  -22.4123  -13.1288 O   0  0  0  0  0  0  0  0  0  0  0  0
   14.8953  -21.3924  -13.9665 C   0  0  0  0  0  0  0  0  0  0  0  0
   14.7722  -20.0606  -13.6303 C   0  0  0  0  0  0  0  0  0  0  0  0
   15.2200  -19.0520  -14.4691 C   0  0  0  0  0  0  0  0  0  0  0  0
   15.8125  -19.3390  -15.6850 C   0  0  0  0  0  0  0  0  0  0  0  0
   16.2967  -18.2957  -16.6009 C   0  0  0  0  0  0  0  0  0  0  0  0
   17.7797  -18.1705  -16.6998 C   0  0  2  0  0  0  0  0  0  0  0  0
   18.0339  -17.1899  -17.7666 N   0  0  0  0  0  0  0  0  0  0  0  0
   18.4877  -19.4384  -16.9756 C   0  0  0  0  0  0  0  0  0  0  0  0
   18.9939  -20.1951  -15.9317 O   0  0  0  0  0  0  0  0  0  0  0  0
   15.9321  -20.6752  -16.0146 C   0  0  0  0  0  0  0  0  0  0  0  0
   15.4861  -21.6815  -15.1793 C   0  0  0  0  0  0  0  0  0  0  0  0
   18.6666  -19.8916  -18.1488 O   0  0  0  0  0  0  0  0  0  0  0  0
  2  1  1  6
  2  3  1  0
  4  2  1  0
  5  4  2  0
  6  7  1  0
  7  8  1  0
  8  9  1  6
 10  8  1  0
 10 11  1  1
 11  4  1  0
 12 10  1  0
 12 13  2  0
 15 14  1  0
 16 15  2  0
 17 16  1  0
 18 24  1  0
 18 17  2  0
 19 18  1  0
 20 19  1  6
 20 22  1  0
 20 21  1  0
 21 12  1  0
 22 23  1  0
 24 25  2  0
 25 15  1  0
 26 22  2  0
M  END
$$$$
