EKV.pdb
     RDKit          3D

 26 25  0  0  1  0  0  0  0  0999 V2000
   11.3277  -17.5211   21.0166 N   0  0  0  0  0  0  0  0  0  0  0  0
   10.4113  -16.4390   20.8274 C   0  0  1  0  0  0  0  0  0  0  0  0
    9.6819  -16.4142   19.5350 C   0  0  0  0  0  0  0  0  0  0  0  0
    8.7844  -17.5554   19.2267 C   0  0  0  0  0  0  0  0  0  0  0  0
    8.1596  -17.5748   17.8988 C   0  0  0  0  0  0  0  0  0  0  0  0
    7.3686  -18.4616   17.5356 O   0  0  0  0  0  0  0  0  0  0  0  0
    9.5163  -16.2631   22.0036 C   0  0  0  0  0  0  0  0  0  0  0  0
    8.6881  -15.3064   22.0257 O   0  0  0  0  0  0  0  0  0  0  0  0
    8.4218  -16.5756   16.9412 O   0  0  0  0  0  0  0  0  0  0  0  0
    9.5301  -17.1186   23.1275 N   0  0  0  0  0  0  0  0  0  0  0  0
    8.6720  -16.9243   24.3042 C   0  0  1  0  0  0  0  0  0  0  0  0
    8.1315  -18.2312   24.7773 C   0  0  0  0  0  0  0  0  0  0  0  0
    7.0876  -18.7549   23.8394 C   0  0  0  0  0  0  0  0  0  0  0  0
    6.5692  -20.1174   24.2950 C   0  0  0  0  0  0  0  0  0  0  0  0
    5.5397  -20.6651   23.3513 C   0  0  0  0  0  0  0  0  0  0  0  0
    5.2252  -22.0222   23.7616 N   0  0  0  0  0  0  0  0  0  0  0  0
    9.3333  -16.0994   25.3136 C   0  0  0  0  0  0  0  0  0  0  0  0
   10.5557  -16.1310   25.5039 O   0  0  0  0  0  0  0  0  0  0  0  0
    8.1985  -12.3010   26.3622 C   0  0  0  0  0  0  0  0  0  0  0  0
    8.4553  -13.2089   27.5366 C   0  0  1  0  0  0  0  0  0  0  0  0
    7.1145  -13.6287   28.0970 C   0  0  0  0  0  0  0  0  0  0  0  0
    9.1977  -14.4514   27.1428 C   0  0  2  0  0  0  0  0  0  0  0  0
    8.5661  -15.2213   26.1163 N   0  0  0  0  0  0  0  0  0  0  0  0
    9.3270  -15.3068   28.3488 C   0  0  0  0  0  0  0  0  0  0  0  0
    9.9206  -14.9452   29.3998 O   0  0  0  0  0  0  0  0  0  0  0  0
    8.7809  -16.6020   28.3902 O   0  0  0  0  0  0  0  0  0  0  0  0
  2  1  1  1
  2  7  1  0
  3  4  1  0
  3  2  1  0
  4  5  1  0
  5  6  2  0
  5  9  1  0
  7  8  2  0
 10  7  1  0
 10 11  1  0
 11 17  1  0
 12 13  1  0
 11 12  1  1
 13 14  1  0
 14 15  1  0
 15 16  1  0
 17 18  2  0
 20 19  1  6
 20 22  1  0
 21 20  1  0
 22 24  1  0
 23 17  1  0
 22 23  1  6
 24 25  2  0
 24 26  1  0
M  END
$$$$
