EKV.pdb
     RDKit          3D

 26 25  0  0  1  0  0  0  0  0999 V2000
    8.4511  -13.7014   18.7867 N   0  0  0  0  0  0  0  0  0  0  0  0
    9.2239  -14.5343   19.6559 C   0  0  1  0  0  0  0  0  0  0  0  0
   10.6318  -14.1217   19.8806 C   0  0  0  0  0  0  0  0  0  0  0  0
   11.6379  -14.5173   18.8636 C   0  0  0  0  0  0  0  0  0  0  0  0
   13.0092  -14.0307   19.0553 C   0  0  0  0  0  0  0  0  0  0  0  0
   13.4733  -13.7356   20.1695 O   0  0  0  0  0  0  0  0  0  0  0  0
    8.4975  -14.8355   20.9197 C   0  0  0  0  0  0  0  0  0  0  0  0
    7.6555  -14.0068   21.3735 O   0  0  0  0  0  0  0  0  0  0  0  0
   13.8958  -13.8661   17.9732 O   0  0  0  0  0  0  0  0  0  0  0  0
    8.6907  -16.0192   21.6657 N   0  0  0  0  0  0  0  0  0  0  0  0
    7.9910  -16.3062   22.9254 C   0  0  1  0  0  0  0  0  0  0  0  0
    8.0158  -17.7690   23.2144 C   0  0  0  0  0  0  0  0  0  0  0  0
    7.4169  -18.0644   24.5553 C   0  0  0  0  0  0  0  0  0  0  0  0
    7.3447  -19.5688   24.8087 C   0  0  0  0  0  0  0  0  0  0  0  0
    6.6969  -19.8809   26.1253 C   0  0  0  0  0  0  0  0  0  0  0  0
    6.7299  -21.3200   26.3167 N   0  0  0  0  0  0  0  0  0  0  0  0
    8.4532  -15.4310   24.0012 C   0  0  0  0  0  0  0  0  0  0  0  0
    9.6515  -15.2871   24.2749 O   0  0  0  0  0  0  0  0  0  0  0  0
    5.7170  -13.2699   26.7216 C   0  0  0  0  0  0  0  0  0  0  0  0
    6.9441  -12.6893   26.0687 C   0  0  1  0  0  0  0  0  0  0  0  0
    7.5821  -11.7340   27.0528 C   0  0  0  0  0  0  0  0  0  0  0  0
    7.9577  -13.7409   25.7268 C   0  0  2  0  0  0  0  0  0  0  0  0
    7.5117  -14.7087   24.7730 N   0  0  0  0  0  0  0  0  0  0  0  0
    8.3135  -14.4551   26.9782 C   0  0  0  0  0  0  0  0  0  0  0  0
    8.9077  -13.9108   27.9470 O   0  0  0  0  0  0  0  0  0  0  0  0
    8.0003  -15.8139   27.1607 O   0  0  0  0  0  0  0  0  0  0  0  0
  2  1  1  1
  2  7  1  0
  3  4  1  0
  3  2  1  0
  4  5  1  0
  5  6  2  0
  5  9  1  0
  7  8  2  0
 10  7  1  0
 10 11  1  0
 11 17  1  0
 12 13  1  0
 11 12  1  1
 13 14  1  0
 14 15  1  0
 15 16  1  0
 17 18  2  0
 20 19  1  1
 20 22  1  0
 21 20  1  0
 22 24  1  0
 23 17  1  0
 22 23  1  6
 24 25  2  0
 24 26  1  0
M  END
$$$$
