EKV.pdb
     RDKit          3D

 26 25  0  0  1  0  0  0  0  0999 V2000
    9.3138  -18.4138   19.9395 N   0  0  0  0  0  0  0  0  0  0  0  0
   10.4681  -17.5834   20.0959 C   0  0  1  0  0  0  0  0  0  0  0  0
   11.2755  -17.3438   18.8738 C   0  0  0  0  0  0  0  0  0  0  0  0
   10.5928  -17.4616   17.5612 C   0  0  0  0  0  0  0  0  0  0  0  0
   11.4175  -17.2833   16.3604 C   0  0  0  0  0  0  0  0  0  0  0  0
   11.0015  -16.7276   15.3297 O   0  0  0  0  0  0  0  0  0  0  0  0
   10.1503  -16.3326   20.8374 C   0  0  0  0  0  0  0  0  0  0  0  0
   11.0760  -15.5170   21.1199 O   0  0  0  0  0  0  0  0  0  0  0  0
   12.7497  -17.7372   16.3014 O   0  0  0  0  0  0  0  0  0  0  0  0
    8.8470  -15.9858   21.2570 N   0  0  0  0  0  0  0  0  0  0  0  0
    8.5451  -14.7937   22.0612 C   0  0  1  0  0  0  0  0  0  0  0  0
    7.3023  -14.1329   21.5684 C   0  0  0  0  0  0  0  0  0  0  0  0
    7.5975  -13.2141   20.4228 C   0  0  0  0  0  0  0  0  0  0  0  0
    7.7875  -13.9945   19.1237 C   0  0  0  0  0  0  0  0  0  0  0  0
    8.1296  -13.0904   17.9764 C   0  0  0  0  0  0  0  0  0  0  0  0
    8.2921  -13.9086   16.7877 N   0  0  0  0  0  0  0  0  0  0  0  0
    8.5899  -15.0924   23.4915 C   0  0  0  0  0  0  0  0  0  0  0  0
    8.3948  -14.2313   24.3586 O   0  0  0  0  0  0  0  0  0  0  0  0
    7.2256  -18.3019   26.7731 C   0  0  0  0  0  0  0  0  0  0  0  0
    7.5233  -17.9140   25.3482 C   0  0  1  0  0  0  0  0  0  0  0  0
    6.2375  -17.4137   24.7280 C   0  0  0  0  0  0  0  0  0  0  0  0
    8.5357  -16.8107   25.2590 C   0  0  2  0  0  0  0  0  0  0  0  0
    8.8642  -16.4116   23.9256 N   0  0  0  0  0  0  0  0  0  0  0  0
    9.7790  -17.2781   25.9212 C   0  0  0  0  0  0  0  0  0  0  0  0
   10.8771  -17.4227   25.3203 O   0  0  0  0  0  0  0  0  0  0  0  0
    9.8051  -17.5942   27.2912 O   0  0  0  0  0  0  0  0  0  0  0  0
  2  1  1  6
  2  7  1  0
  3  4  1  0
  3  2  1  0
  4  5  1  0
  5  6  2  0
  5  9  1  0
  7  8  2  0
 10  7  1  0
 10 11  1  0
 11 17  1  0
 12 13  1  0
 11 12  1  6
 13 14  1  0
 14 15  1  0
 15 16  1  0
 17 18  2  0
 20 19  1  1
 20 22  1  0
 21 20  1  0
 22 24  1  0
 23 17  1  0
 22 23  1  6
 24 25  2  0
 24 26  1  0
M  END
$$$$
