EKV.pdb
     RDKit          3D

 26 25  0  0  1  0  0  0  0  0999 V2000
   11.4996  -17.8661   20.7777 N   0  0  0  0  0  0  0  0  0  0  0  0
   10.6057  -16.7740   20.5435 C   0  0  1  0  0  0  0  0  0  0  0  0
    9.9468  -16.7379   19.2140 C   0  0  0  0  0  0  0  0  0  0  0  0
   10.5440  -17.5507   18.1252 C   0  0  0  0  0  0  0  0  0  0  0  0
    9.8219  -17.5912   16.8481 C   0  0  0  0  0  0  0  0  0  0  0  0
    9.2756  -18.6183   16.4115 O   0  0  0  0  0  0  0  0  0  0  0  0
    9.6509  -16.5921   21.6708 C   0  0  0  0  0  0  0  0  0  0  0  0
    8.7716  -15.6839   21.6094 O   0  0  0  0  0  0  0  0  0  0  0  0
    9.7020  -16.4526   16.0275 O   0  0  0  0  0  0  0  0  0  0  0  0
    9.6614  -17.3896   22.8365 N   0  0  0  0  0  0  0  0  0  0  0  0
    8.6933  -17.2371   23.9312 C   0  0  1  0  0  0  0  0  0  0  0  0
    8.6254  -18.4847   24.7452 C   0  0  0  0  0  0  0  0  0  0  0  0
    7.6977  -18.3196   25.9096 C   0  0  0  0  0  0  0  0  0  0  0  0
    7.6479  -19.5870   26.7604 C   0  0  0  0  0  0  0  0  0  0  0  0
    6.7356  -19.4295   27.9409 C   0  0  0  0  0  0  0  0  0  0  0  0
    6.8101  -20.6423   28.7361 N   0  0  0  0  0  0  0  0  0  0  0  0
    8.9207  -15.9980   24.6727 C   0  0  0  0  0  0  0  0  0  0  0  0
   10.0363  -15.6696   25.0958 O   0  0  0  0  0  0  0  0  0  0  0  0
    5.6668  -13.4717   26.2892 C   0  0  0  0  0  0  0  0  0  0  0  0
    6.9106  -12.9460   25.6214 C   0  0  1  0  0  0  0  0  0  0  0  0
    7.3377  -11.6968   26.3598 C   0  0  0  0  0  0  0  0  0  0  0  0
    8.0453  -13.9254   25.6815 C   0  0  2  0  0  0  0  0  0  0  0  0
    7.8376  -15.1229   24.9277 N   0  0  0  0  0  0  0  0  0  0  0  0
    8.2470  -14.3028   27.1027 C   0  0  0  0  0  0  0  0  0  0  0  0
    7.8532  -15.3928   27.5973 O   0  0  0  0  0  0  0  0  0  0  0  0
    8.9057  -13.4456   28.0020 O   0  0  0  0  0  0  0  0  0  0  0  0
  2  1  1  1
  2  7  1  0
  3  4  1  0
  3  2  1  0
  4  5  1  0
  5  6  2  0
  5  9  1  0
  7  8  2  0
 10  7  1  0
 10 11  1  0
 11 17  1  0
 12 13  1  0
 11 12  1  1
 13 14  1  0
 14 15  1  0
 15 16  1  0
 17 18  2  0
 20 19  1  1
 20 22  1  0
 21 20  1  0
 22 24  1  0
 23 17  1  0
 22 23  1  6
 24 25  2  0
 24 26  1  0
M  END
$$$$
