EKV.pdb
     RDKit          3D

 26 25  0  0  1  0  0  0  0  0999 V2000
    8.8254  -17.2131   20.1288 N   0  0  0  0  0  0  0  0  0  0  0  0
    7.8934  -16.1598   20.3908 C   0  0  1  0  0  0  0  0  0  0  0  0
    6.7161  -16.0852   19.4901 C   0  0  0  0  0  0  0  0  0  0  0  0
    6.0191  -17.3529   19.1585 C   0  0  0  0  0  0  0  0  0  0  0  0
    6.6783  -18.2472   18.1996 C   0  0  0  0  0  0  0  0  0  0  0  0
    6.7830  -17.9838   16.9897 O   0  0  0  0  0  0  0  0  0  0  0  0
    7.5280  -16.0936   21.8322 C   0  0  0  0  0  0  0  0  0  0  0  0
    6.7330  -15.1966   22.2384 O   0  0  0  0  0  0  0  0  0  0  0  0
    7.2407  -19.4760   18.5970 O   0  0  0  0  0  0  0  0  0  0  0  0
    8.0230  -16.9921   22.8031 N   0  0  0  0  0  0  0  0  0  0  0  0
    7.6828  -16.9109   24.2302 C   0  0  1  0  0  0  0  0  0  0  0  0
    7.9445  -18.2154   24.9039 C   0  0  0  0  0  0  0  0  0  0  0  0
    7.7721  -18.1007   26.3875 C   0  0  0  0  0  0  0  0  0  0  0  0
    8.0265  -19.4389   27.0782 C   0  0  0  0  0  0  0  0  0  0  0  0
    7.8412  -19.3426   28.5638 C   0  0  0  0  0  0  0  0  0  0  0  0
    8.0721  -20.6574   29.1354 N   0  0  0  0  0  0  0  0  0  0  0  0
    8.2847  -15.7338   24.8538 C   0  0  0  0  0  0  0  0  0  0  0  0
    9.4788  -15.4414   24.7117 O   0  0  0  0  0  0  0  0  0  0  0  0
    6.6436  -12.0890   24.9579 C   0  0  0  0  0  0  0  0  0  0  0  0
    7.1254  -12.5317   26.3148 C   0  0  1  0  0  0  0  0  0  0  0  0
    5.9164  -12.9611   27.1162 C   0  0  0  0  0  0  0  0  0  0  0  0
    8.0605  -13.7017   26.2322 C   0  0  2  0  0  0  0  0  0  0  0  0
    7.4899  -14.8792   25.6550 N   0  0  0  0  0  0  0  0  0  0  0  0
    8.5028  -14.0301   27.6104 C   0  0  0  0  0  0  0  0  0  0  0  0
    9.0990  -13.2152   28.3642 O   0  0  0  0  0  0  0  0  0  0  0  0
    8.2764  -15.3005   28.1693 O   0  0  0  0  0  0  0  0  0  0  0  0
  2  1  1  1
  2  7  1  0
  3  4  1  0
  3  2  1  0
  4  5  1  0
  5  6  2  0
  5  9  1  0
  7  8  2  0
 10  7  1  0
 10 11  1  0
 11 17  1  0
 12 13  1  0
 11 12  1  1
 13 14  1  0
 14 15  1  0
 15 16  1  0
 17 18  2  0
 20 19  1  6
 20 22  1  0
 21 20  1  0
 22 24  1  0
 23 17  1  0
 22 23  1  1
 24 25  2  0
 24 26  1  0
M  END
$$$$
