EKV.pdb
     RDKit          3D

 26 25  0  0  1  0  0  0  0  0999 V2000
    8.3096  -13.3345   18.8291 N   0  0  0  0  0  0  0  0  0  0  0  0
    8.7932  -14.5627   19.3806 C   0  0  1  0  0  0  0  0  0  0  0  0
   10.2646  -14.7565   19.3631 C   0  0  0  0  0  0  0  0  0  0  0  0
   11.1211  -13.5545   19.5199 C   0  0  0  0  0  0  0  0  0  0  0  0
   12.5737  -13.7647   19.5244 C   0  0  0  0  0  0  0  0  0  0  0  0
   13.0952  -14.8895   19.4431 O   0  0  0  0  0  0  0  0  0  0  0  0
    8.1851  -14.8472   20.7091 C   0  0  0  0  0  0  0  0  0  0  0  0
    7.4370  -13.9848   21.2555 O   0  0  0  0  0  0  0  0  0  0  0  0
   13.4783  -12.6894   19.6225 O   0  0  0  0  0  0  0  0  0  0  0  0
    8.3928  -16.0504   21.4191 N   0  0  0  0  0  0  0  0  0  0  0  0
    7.8044  -16.3254   22.7370 C   0  0  1  0  0  0  0  0  0  0  0  0
    7.8052  -17.7908   23.0133 C   0  0  0  0  0  0  0  0  0  0  0  0
    7.2966  -18.0803   24.3921 C   0  0  0  0  0  0  0  0  0  0  0  0
    7.2518  -19.5833   24.6601 C   0  0  0  0  0  0  0  0  0  0  0  0
    6.5623  -19.8974   25.9549 C   0  0  0  0  0  0  0  0  0  0  0  0
    6.6046  -21.3353   26.1536 N   0  0  0  0  0  0  0  0  0  0  0  0
    8.3952  -15.4766   23.7702 C   0  0  0  0  0  0  0  0  0  0  0  0
    9.6183  -15.3680   23.9245 O   0  0  0  0  0  0  0  0  0  0  0  0
    5.9476  -13.0573   26.5311 C   0  0  0  0  0  0  0  0  0  0  0  0
    7.2840  -12.6710   25.9532 C   0  0  1  0  0  0  0  0  0  0  0  0
    8.0223  -11.8633   26.9976 C   0  0  0  0  0  0  0  0  0  0  0  0
    8.1255  -13.8668   25.6183 C   0  0  2  0  0  0  0  0  0  0  0  0
    7.5554  -14.7396   24.6393 N   0  0  0  0  0  0  0  0  0  0  0  0
    8.3313  -14.6435   26.8661 C   0  0  0  0  0  0  0  0  0  0  0  0
    7.8071  -15.7689   27.0815 O   0  0  0  0  0  0  0  0  0  0  0  0
    9.1434  -14.1573   27.9062 O   0  0  0  0  0  0  0  0  0  0  0  0
  2  1  1  1
  2  7  1  0
  3  4  1  0
  3  2  1  0
  4  5  1  0
  5  6  2  0
  5  9  1  0
  7  8  2  0
 10  7  1  0
 10 11  1  0
 11 17  1  0
 12 13  1  0
 11 12  1  1
 13 14  1  0
 14 15  1  0
 15 16  1  0
 17 18  2  0
 20 19  1  1
 20 22  1  0
 21 20  1  0
 22 24  1  0
 23 17  1  0
 22 23  1  6
 24 25  2  0
 24 26  1  0
M  END
$$$$
