EKV.pdb
     RDKit          3D

 26 25  0  0  1  0  0  0  0  0999 V2000
   10.4597  -18.2877   20.9249 N   0  0  0  0  0  0  0  0  0  0  0  0
   10.3743  -16.8763   20.7078 C   0  0  1  0  0  0  0  0  0  0  0  0
   10.2681  -16.4342   19.2949 C   0  0  0  0  0  0  0  0  0  0  0  0
    9.9122  -17.4544   18.2772 C   0  0  0  0  0  0  0  0  0  0  0  0
    9.6632  -16.9778   16.9117 C   0  0  0  0  0  0  0  0  0  0  0  0
    8.5402  -16.6281   16.5109 O   0  0  0  0  0  0  0  0  0  0  0  0
    9.3590  -16.2432   21.5930 C   0  0  0  0  0  0  0  0  0  0  0  0
    9.2825  -14.9817   21.6599 O   0  0  0  0  0  0  0  0  0  0  0  0
   10.6960  -16.8862   15.9582 O   0  0  0  0  0  0  0  0  0  0  0  0
    8.4490  -16.9785   22.3844 N   0  0  0  0  0  0  0  0  0  0  0  0
    7.4595  -16.3539   23.2731 C   0  0  1  0  0  0  0  0  0  0  0  0
    6.3588  -17.3111   23.5831 C   0  0  0  0  0  0  0  0  0  0  0  0
    5.8229  -17.9403   22.3338 C   0  0  0  0  0  0  0  0  0  0  0  0
    4.7929  -19.0206   22.6574 C   0  0  0  0  0  0  0  0  0  0  0  0
    4.2160  -19.6299   21.4138 C   0  0  0  0  0  0  0  0  0  0  0  0
    3.3043  -20.6889   21.8090 N   0  0  0  0  0  0  0  0  0  0  0  0
    8.1030  -15.7208   24.4228 C   0  0  0  0  0  0  0  0  0  0  0  0
    9.1195  -16.1833   24.9560 O   0  0  0  0  0  0  0  0  0  0  0  0
    7.6061  -11.5960   25.3029 C   0  0  0  0  0  0  0  0  0  0  0  0
    7.6083  -12.5669   26.4547 C   0  0  1  0  0  0  0  0  0  0  0  0
    6.1713  -12.7960   26.8677 C   0  0  0  0  0  0  0  0  0  0  0  0
    8.1949  -13.8950   26.0775 C   0  0  2  0  0  0  0  0  0  0  0  0
    7.5608  -14.5304   24.9642 N   0  0  0  0  0  0  0  0  0  0  0  0
    8.0779  -14.7951   27.2518 C   0  0  0  0  0  0  0  0  0  0  0  0
    8.7506  -14.6547   28.3079 O   0  0  0  0  0  0  0  0  0  0  0  0
    7.1874  -15.8836   27.2546 O   0  0  0  0  0  0  0  0  0  0  0  0
  2  1  1  6
  2  7  1  0
  3  4  1  0
  3  2  1  0
  4  5  1  0
  5  6  2  0
  5  9  1  0
  7  8  2  0
 10  7  1  0
 10 11  1  0
 11 17  1  0
 12 13  1  0
 11 12  1  1
 13 14  1  0
 14 15  1  0
 15 16  1  0
 17 18  2  0
 20 19  1  6
 20 22  1  0
 21 20  1  0
 22 24  1  0
 23 17  1  0
 22 23  1  6
 24 25  2  0
 24 26  1  0
M  END
$$$$
