EKV.pdb
     RDKit          3D

 26 25  0  0  1  0  0  0  0  0999 V2000
    9.7583  -16.2274   19.5785 N   0  0  0  0  0  0  0  0  0  0  0  0
    8.3871  -15.8987   19.8195 C   0  0  1  0  0  0  0  0  0  0  0  0
    7.3854  -16.6033   18.9811 C   0  0  0  0  0  0  0  0  0  0  0  0
    7.6627  -18.0143   18.6134 C   0  0  0  0  0  0  0  0  0  0  0  0
    6.5044  -18.8783   18.3567 C   0  0  0  0  0  0  0  0  0  0  0  0
    5.3342  -18.4605   18.3603 O   0  0  0  0  0  0  0  0  0  0  0  0
    8.0590  -15.9345   21.2709 C   0  0  0  0  0  0  0  0  0  0  0  0
    6.9265  -15.5338   21.6694 O   0  0  0  0  0  0  0  0  0  0  0  0
    6.6500  -20.2531   18.0868 O   0  0  0  0  0  0  0  0  0  0  0  0
    8.9530  -16.4006   22.2601 N   0  0  0  0  0  0  0  0  0  0  0  0
    8.5945  -16.5322   23.6789 C   0  0  1  0  0  0  0  0  0  0  0  0
    9.1097  -17.8185   24.2301 C   0  0  0  0  0  0  0  0  0  0  0  0
    8.2991  -18.9789   23.7400 C   0  0  0  0  0  0  0  0  0  0  0  0
    8.8252  -20.2974   24.3034 C   0  0  0  0  0  0  0  0  0  0  0  0
    8.0016  -21.4655   23.8475 C   0  0  0  0  0  0  0  0  0  0  0  0
    8.5872  -22.6751   24.3977 N   0  0  0  0  0  0  0  0  0  0  0  0
    8.9428  -15.3267   24.4288 C   0  0  0  0  0  0  0  0  0  0  0  0
   10.0487  -14.7792   24.3344 O   0  0  0  0  0  0  0  0  0  0  0  0
    6.8111  -12.0642   24.7203 C   0  0  0  0  0  0  0  0  0  0  0  0
    7.2246  -12.5374   26.0894 C   0  0  1  0  0  0  0  0  0  0  0  0
    6.0217  -13.1887   26.7352 C   0  0  0  0  0  0  0  0  0  0  0  0
    8.3227  -13.5576   26.0306 C   0  0  2  0  0  0  0  0  0  0  0  0
    7.9937  -14.7439   25.3025 N   0  0  0  0  0  0  0  0  0  0  0  0
    8.6576  -13.9478   27.4229 C   0  0  0  0  0  0  0  0  0  0  0  0
    8.5067  -15.1139   27.8758 O   0  0  0  0  0  0  0  0  0  0  0  0
    9.1760  -13.0164   28.3401 O   0  0  0  0  0  0  0  0  0  0  0  0
  2  1  1  1
  2  7  1  0
  3  4  1  0
  3  2  1  0
  4  5  1  0
  5  6  2  0
  5  9  1  0
  7  8  2  0
 10  7  1  0
 10 11  1  0
 11 17  1  0
 12 13  1  0
 11 12  1  1
 13 14  1  0
 14 15  1  0
 15 16  1  0
 17 18  2  0
 20 19  1  6
 20 22  1  0
 21 20  1  0
 22 24  1  0
 23 17  1  0
 22 23  1  6
 24 25  2  0
 24 26  1  0
M  END
$$$$
