EKV.pdb
     RDKit          3D

 26 25  0  0  1  0  0  0  0  0999 V2000
    8.9452  -17.3131   19.9778 N   0  0  0  0  0  0  0  0  0  0  0  0
    8.1922  -16.1247   20.2367 C   0  0  1  0  0  0  0  0  0  0  0  0
    7.1774  -15.7550   19.2186 C   0  0  0  0  0  0  0  0  0  0  0  0
    7.0014  -16.6632   18.0579 C   0  0  0  0  0  0  0  0  0  0  0  0
    8.1163  -16.7578   17.1081 C   0  0  0  0  0  0  0  0  0  0  0  0
    9.2250  -16.2347   17.3112 O   0  0  0  0  0  0  0  0  0  0  0  0
    7.6571  -16.1033   21.6255 C   0  0  0  0  0  0  0  0  0  0  0  0
    6.8495  -15.1933   21.9740 O   0  0  0  0  0  0  0  0  0  0  0  0
    7.9965  -17.4570   15.8912 O   0  0  0  0  0  0  0  0  0  0  0  0
    8.0001  -17.0594   22.6070 N   0  0  0  0  0  0  0  0  0  0  0  0
    7.5716  -16.9701   24.0096 C   0  0  1  0  0  0  0  0  0  0  0  0
    7.6420  -18.3089   24.6628 C   0  0  0  0  0  0  0  0  0  0  0  0
    7.3519  -18.2099   26.1291 C   0  0  0  0  0  0  0  0  0  0  0  0
    7.4843  -19.5698   26.8114 C   0  0  0  0  0  0  0  0  0  0  0  0
    7.2410  -19.4772   28.2889 C   0  0  0  0  0  0  0  0  0  0  0  0
    7.2690  -20.8214   28.8378 N   0  0  0  0  0  0  0  0  0  0  0  0
    8.2530  -15.8796   24.7048 C   0  0  0  0  0  0  0  0  0  0  0  0
    9.4849  -15.8213   24.8074 O   0  0  0  0  0  0  0  0  0  0  0  0
    7.2854  -11.9295   24.5946 C   0  0  0  0  0  0  0  0  0  0  0  0
    7.4352  -12.4742   25.9911 C   0  0  1  0  0  0  0  0  0  0  0  0
    6.0476  -12.6915   26.5528 C   0  0  0  0  0  0  0  0  0  0  0  0
    8.1511  -13.7922   26.0134 C   0  0  2  0  0  0  0  0  0  0  0  0
    7.4949  -14.8375   25.2906 N   0  0  0  0  0  0  0  0  0  0  0  0
    8.2778  -14.2184   27.4294 C   0  0  0  0  0  0  0  0  0  0  0  0
    7.7227  -15.2468   27.9005 O   0  0  0  0  0  0  0  0  0  0  0  0
    9.0438  -13.4818   28.3504 O   0  0  0  0  0  0  0  0  0  0  0  0
  2  1  1  6
  2  7  1  0
  3  4  1  0
  3  2  1  0
  4  5  1  0
  5  6  2  0
  5  9  1  0
  7  8  2  0
 10  7  1  0
 10 11  1  0
 11 17  1  0
 12 13  1  0
 11 12  1  1
 13 14  1  0
 14 15  1  0
 15 16  1  0
 17 18  2  0
 20 19  1  6
 20 22  1  0
 21 20  1  0
 22 24  1  0
 23 17  1  0
 22 23  1  6
 24 25  2  0
 24 26  1  0
M  END
$$$$
