EKV.pdb
     RDKit          3D

 26 25  0  0  1  0  0  0  0  0999 V2000
    5.2543  -17.4105   20.0523 N   0  0  0  0  0  0  0  0  0  0  0  0
    6.5388  -17.1852   20.6404 C   0  0  1  0  0  0  0  0  0  0  0  0
    7.3658  -16.1182   20.0233 C   0  0  0  0  0  0  0  0  0  0  0  0
    7.9735  -16.3953   18.6979 C   0  0  0  0  0  0  0  0  0  0  0  0
    8.8261  -15.3490   18.1215 C   0  0  0  0  0  0  0  0  0  0  0  0
    9.9532  -15.0730   18.5658 O   0  0  0  0  0  0  0  0  0  0  0  0
    6.4540  -17.0715   22.1220 C   0  0  0  0  0  0  0  0  0  0  0  0
    5.4553  -16.5033   22.6526 O   0  0  0  0  0  0  0  0  0  0  0  0
    8.4135  -14.5827   17.0139 O   0  0  0  0  0  0  0  0  0  0  0  0
    7.4419  -17.5712   22.9992 N   0  0  0  0  0  0  0  0  0  0  0  0
    7.3781  -17.4237   24.4597 C   0  0  1  0  0  0  0  0  0  0  0  0
    7.6461  -18.7295   25.1282 C   0  0  0  0  0  0  0  0  0  0  0  0
    7.7226  -18.5687   26.6155 C   0  0  0  0  0  0  0  0  0  0  0  0
    7.9861  -19.9069   27.3030 C   0  0  0  0  0  0  0  0  0  0  0  0
    7.9953  -19.7727   28.7971 C   0  0  0  0  0  0  0  0  0  0  0  0
    6.6928  -20.1763   29.2963 N   0  0  0  0  0  0  0  0  0  0  0  0
    8.1834  -16.2918   24.9150 C   0  0  0  0  0  0  0  0  0  0  0  0
    9.4000  -16.2113   24.7029 O   0  0  0  0  0  0  0  0  0  0  0  0
    7.0401  -12.3716   24.9302 C   0  0  0  0  0  0  0  0  0  0  0  0
    7.6065  -12.8466   26.2427 C   0  0  1  0  0  0  0  0  0  0  0  0
    6.4483  -13.0820   27.1868 C   0  0  0  0  0  0  0  0  0  0  0  0
    8.3557  -14.1387   26.1042 C   0  0  2  0  0  0  0  0  0  0  0  0
    7.5692  -15.2339   25.6273 N   0  0  0  0  0  0  0  0  0  0  0  0
    8.8907  -14.5011   27.4404 C   0  0  0  0  0  0  0  0  0  0  0  0
    8.5356  -15.5279   28.0787 O   0  0  0  0  0  0  0  0  0  0  0  0
    9.8486  -13.7006   28.0877 O   0  0  0  0  0  0  0  0  0  0  0  0
  2  1  1  6
  2  7  1  0
  3  4  1  0
  3  2  1  0
  4  5  1  0
  5  6  2  0
  5  9  1  0
  7  8  2  0
 10  7  1  0
 10 11  1  0
 11 17  1  0
 12 13  1  0
 11 12  1  1
 13 14  1  0
 14 15  1  0
 15 16  1  0
 17 18  2  0
 20 19  1  6
 20 22  1  0
 21 20  1  0
 22 24  1  0
 23 17  1  0
 22 23  1  1
 24 25  2  0
 24 26  1  0
M  END
$$$$
