EKV.pdb
     RDKit          3D

 26 25  0  0  1  0  0  0  0  0999 V2000
    8.8988  -13.6952   18.7293 N   0  0  0  0  0  0  0  0  0  0  0  0
    9.1456  -14.8691   19.5088 C   0  0  1  0  0  0  0  0  0  0  0  0
   10.5699  -15.2237   19.7293 C   0  0  0  0  0  0  0  0  0  0  0  0
   11.5952  -14.2050   19.3918 C   0  0  0  0  0  0  0  0  0  0  0  0
   12.9995  -14.5730   19.6079 C   0  0  0  0  0  0  0  0  0  0  0  0
   13.3489  -15.6798   20.0515 O   0  0  0  0  0  0  0  0  0  0  0  0
    8.3437  -14.8763   20.7627 C   0  0  0  0  0  0  0  0  0  0  0  0
    7.8496  -13.7959   21.1990 O   0  0  0  0  0  0  0  0  0  0  0  0
   14.0522  -13.6817   19.3217 O   0  0  0  0  0  0  0  0  0  0  0  0
    8.0899  -16.0426   21.5180 N   0  0  0  0  0  0  0  0  0  0  0  0
    7.3171  -16.0463   22.7676 C   0  0  1  0  0  0  0  0  0  0  0  0
    6.7811  -17.4099   23.0456 C   0  0  0  0  0  0  0  0  0  0  0  0
    5.8406  -17.8504   21.9662 C   0  0  0  0  0  0  0  0  0  0  0  0
    5.4852  -19.3286   22.1126 C   0  0  0  0  0  0  0  0  0  0  0  0
    4.5334  -19.7806   21.0447 C   0  0  0  0  0  0  0  0  0  0  0  0
    4.3082  -21.2054   21.2119 N   0  0  0  0  0  0  0  0  0  0  0  0
    8.0626  -15.4152   23.8552 C   0  0  0  0  0  0  0  0  0  0  0  0
    9.2940  -15.4920   23.9516 O   0  0  0  0  0  0  0  0  0  0  0  0
    8.2285  -12.0292   27.4137 C   0  0  0  0  0  0  0  0  0  0  0  0
    7.3692  -12.8098   26.4537 C   0  0  1  0  0  0  0  0  0  0  0  0
    6.9798  -11.8821   25.3241 C   0  0  0  0  0  0  0  0  0  0  0  0
    8.0987  -13.9774   25.8580 C   0  0  2  0  0  0  0  0  0  0  0  0
    7.3705  -14.6811   24.8482 N   0  0  0  0  0  0  0  0  0  0  0  0
    8.4069  -14.9296   26.9539 C   0  0  0  0  0  0  0  0  0  0  0  0
    7.8031  -16.0235   27.1177 O   0  0  0  0  0  0  0  0  0  0  0  0
    9.4155  -14.6606   27.8963 O   0  0  0  0  0  0  0  0  0  0  0  0
  2  1  1  1
  2  7  1  0
  3  4  1  0
  3  2  1  0
  4  5  1  0
  5  6  2  0
  5  9  1  0
  7  8  2  0
 10  7  1  0
 10 11  1  0
 11 17  1  0
 12 13  1  0
 11 12  1  1
 13 14  1  0
 14 15  1  0
 15 16  1  0
 17 18  2  0
 20 19  1  1
 20 22  1  0
 21 20  1  0
 22 24  1  0
 23 17  1  0
 22 23  1  6
 24 25  2  0
 24 26  1  0
M  END
$$$$
