EKV.pdb
     RDKit          3D

 26 25  0  0  1  0  0  0  0  0999 V2000
    9.7871  -17.0332   20.0207 N   0  0  0  0  0  0  0  0  0  0  0  0
    9.2160  -15.7321   20.1866 C   0  0  1  0  0  0  0  0  0  0  0  0
    8.4196  -15.2139   19.0463 C   0  0  0  0  0  0  0  0  0  0  0  0
    8.6393  -15.8304   17.7142 C   0  0  0  0  0  0  0  0  0  0  0  0
    7.7820  -15.3705   16.6152 C   0  0  0  0  0  0  0  0  0  0  0  0
    6.9508  -14.4557   16.7423 O   0  0  0  0  0  0  0  0  0  0  0  0
    8.5147  -15.6008   21.4929 C   0  0  0  0  0  0  0  0  0  0  0  0
    7.8142  -14.5737   21.7298 O   0  0  0  0  0  0  0  0  0  0  0  0
    7.8496  -15.9459   15.3313 O   0  0  0  0  0  0  0  0  0  0  0  0
    8.5806  -16.5751   22.5134 N   0  0  0  0  0  0  0  0  0  0  0  0
    7.8537  -16.4661   23.7857 C   0  0  1  0  0  0  0  0  0  0  0  0
    7.7026  -17.8087   24.4170 C   0  0  0  0  0  0  0  0  0  0  0  0
    6.7172  -18.6504   23.6658 C   0  0  0  0  0  0  0  0  0  0  0  0
    6.6957  -20.0823   24.1970 C   0  0  0  0  0  0  0  0  0  0  0  0
    5.6299  -20.9053   23.5356 C   0  0  0  0  0  0  0  0  0  0  0  0
    5.7305  -22.2644   24.0371 N   0  0  0  0  0  0  0  0  0  0  0  0
    8.4200  -15.4181   24.6329 C   0  0  0  0  0  0  0  0  0  0  0  0
    9.6319  -15.3339   24.8688 O   0  0  0  0  0  0  0  0  0  0  0  0
    7.2320  -11.5301   24.9044 C   0  0  0  0  0  0  0  0  0  0  0  0
    7.3308  -12.2192   26.2403 C   0  0  1  0  0  0  0  0  0  0  0  0
    5.9253  -12.5377   26.7001 C   0  0  0  0  0  0  0  0  0  0  0  0
    8.0910  -13.5098   26.1594 C   0  0  2  0  0  0  0  0  0  0  0  0
    7.5683  -14.4495   25.2165 N   0  0  0  0  0  0  0  0  0  0  0  0
    8.0642  -14.1397   27.5030 C   0  0  0  0  0  0  0  0  0  0  0  0
    8.5503  -13.6033   28.5345 O   0  0  0  0  0  0  0  0  0  0  0  0
    7.4804  -15.4024   27.7088 O   0  0  0  0  0  0  0  0  0  0  0  0
  2  1  1  6
  2  7  1  0
  3  4  1  0
  3  2  1  0
  4  5  1  0
  5  6  2  0
  5  9  1  0
  7  8  2  0
 10  7  1  0
 10 11  1  0
 11 17  1  0
 12 13  1  0
 11 12  1  1
 13 14  1  0
 14 15  1  0
 15 16  1  0
 17 18  2  0
 20 19  1  6
 20 22  1  0
 21 20  1  0
 22 24  1  0
 23 17  1  0
 22 23  1  6
 24 25  2  0
 24 26  1  0
M  END
$$$$
