KRL.pdb
     RDKit          3D

 29 28  0  0  1  0  0  0  0  0999 V2000
   24.7734  -20.5029   -9.0632 N   0  0  0  0  0  0  0  0  0  0  0  0
   24.5684  -20.9432  -10.3883 C   0  0  1  0  0  0  0  0  0  0  0  0
   23.1426  -20.7353  -10.8255 C   0  0  0  0  0  0  0  0  0  0  0  0
   22.1536  -21.6623  -10.2284 C   0  0  0  0  0  0  0  0  0  0  0  0
   20.7607  -21.6455  -10.7130 C   0  0  0  0  0  0  0  0  0  0  0  0
   19.8297  -22.6698  -10.1633 C   0  0  0  0  0  0  0  0  0  0  0  0
   19.2218  -22.3450   -8.9189 N   0  0  0  0  0  0  0  0  0  0  0  0
   25.5356  -20.3061  -11.3032 C   0  0  0  0  0  0  0  0  0  0  0  0
   25.6892  -19.0544  -11.3722 O   0  0  0  0  0  0  0  0  0  0  0  0
   31.2763  -21.3031   -9.3187 N   0  0  0  0  0  0  0  0  0  0  0  0
   31.4660  -22.2556  -10.3398 C   0  0  0  0  0  0  0  0  0  0  0  0
   31.9095  -23.4386  -10.0966 N   0  0  0  0  0  0  0  0  0  0  0  0
   31.1558  -21.8997  -11.6984 N   0  0  0  0  0  0  0  0  0  0  0  0
   30.8340  -20.5726  -12.1037 C   0  0  0  0  0  0  0  0  0  0  0  0
   29.3570  -20.2568  -12.0227 C   0  0  0  0  0  0  0  0  0  0  0  0
   28.5792  -20.8808  -13.1329 C   0  0  0  0  0  0  0  0  0  0  0  0
   27.1612  -20.4509  -13.2211 C   0  0  2  0  0  0  0  0  0  0  0  0
   26.3573  -21.0692  -12.1659 N   0  0  0  0  0  0  0  0  0  0  0  0
   26.5084  -20.6697  -14.5521 C   0  0  0  0  0  0  0  0  0  0  0  0
   25.7204  -21.6282  -14.7292 O   0  0  0  0  0  0  0  0  0  0  0  0
   32.0108  -24.1033  -10.9184 C   0  0  0  0  0  0  0  0  0  0  0  0
   22.8334  -19.2083  -17.6377 C   0  0  1  0  0  0  0  0  0  0  0  0
   23.4376  -18.3326  -16.6190 C   0  0  0  0  0  0  0  0  0  0  0  0
   23.6821  -16.9510  -17.2521 C   0  0  0  0  0  0  0  0  0  0  0  0
   24.6256  -18.8021  -15.8923 C   0  0  1  0  0  0  0  0  0  0  0  0
   25.7397  -19.4158  -16.6294 N   0  0  0  0  0  0  0  0  0  0  0  0
   26.7725  -19.7929  -15.6228 C   0  0  0  0  0  0  0  0  0  0  0  0
   26.4183  -18.5536  -17.6024 O   0  0  0  0  0  0  0  0  0  0  0  0
   27.3446  -17.7360  -17.3782 O   0  0  0  0  0  0  0  0  0  0  0  0
  2  1  1  1
  3  2  1  0
  4  5  1  0
  4  3  1  0
  6  7  1  0
  6  5  1  0
  8  9  2  0
  8  2  1  0
 11 10  1  0
 12 11  2  0
 13 11  1  0
 14 13  1  0
 15 14  1  0
 16 15  1  0
 17 16  1  6
 17 18  1  0
 18  8  1  0
 19 17  1  0
 19 26  1  0
 20 19  2  0
 22 21  1  1
 22 24  1  0
 23 22  1  0
 25 24  1  1
 25 26  1  0
 25 27  1  0
 27 29  1  0
 28 27  2  0
M  END
$$$$
