KRL.pdb
     RDKit          3D

 29 28  0  0  1  0  0  0  0  0999 V2000
   19.1255  -24.9435   -9.1018 N   0  0  0  0  0  0  0  0  0  0  0  0
   18.0502  -25.6385   -8.5078 C   0  0  1  0  0  0  0  0  0  0  0  0
   18.1424  -27.1200   -8.7609 C   0  0  0  0  0  0  0  0  0  0  0  0
   18.5415  -27.5061  -10.1341 C   0  0  0  0  0  0  0  0  0  0  0  0
   19.8340  -28.1829  -10.3493 C   0  0  0  0  0  0  0  0  0  0  0  0
   20.1127  -28.7143  -11.7125 C   0  0  0  0  0  0  0  0  0  0  0  0
   21.4347  -29.1928  -11.9287 N   0  0  0  0  0  0  0  0  0  0  0  0
   17.9553  -25.3186   -7.0701 C   0  0  0  0  0  0  0  0  0  0  0  0
   18.8710  -24.7174   -6.4415 O   0  0  0  0  0  0  0  0  0  0  0  0
   13.4784  -24.0634   -1.1757 N   0  0  0  0  0  0  0  0  0  0  0  0
   13.4486  -22.6559   -1.2374 C   0  0  0  0  0  0  0  0  0  0  0  0
   13.3057  -21.9289   -0.1855 N   0  0  0  0  0  0  0  0  0  0  0  0
   13.5816  -22.0061   -2.5136 N   0  0  0  0  0  0  0  0  0  0  0  0
   13.8447  -22.7094   -3.7241 C   0  0  0  0  0  0  0  0  0  0  0  0
   15.1077  -23.5404   -3.6784 C   0  0  0  0  0  0  0  0  0  0  0  0
   15.4038  -24.1991   -4.9843 C   0  0  0  0  0  0  0  0  0  0  0  0
   16.5762  -25.1095   -4.9735 C   0  0  2  0  0  0  0  0  0  0  0  0
   16.8194  -25.6701   -6.3033 N   0  0  0  0  0  0  0  0  0  0  0  0
   16.5206  -26.2113   -3.9593 C   0  0  0  0  0  0  0  0  0  0  0  0
   15.7875  -27.2117   -4.1399 O   0  0  0  0  0  0  0  0  0  0  0  0
   13.2618  -22.4255    0.7520 C   0  0  0  0  0  0  0  0  0  0  0  0
   19.8362  -28.9969   -2.1952 C   0  0  1  0  0  0  0  0  0  0  0  0
   19.7520  -27.5966   -1.7463 C   0  0  0  0  0  0  0  0  0  0  0  0
   21.0258  -27.2673   -0.9473 C   0  0  0  0  0  0  0  0  0  0  0  0
   18.5470  -27.1499   -1.0334 C   0  0  2  0  0  0  0  0  0  0  0  0
   17.2443  -27.1682   -1.7145 N   0  0  0  0  0  0  0  0  0  0  0  0
   17.2994  -26.1350   -2.7877 C   0  0  0  0  0  0  0  0  0  0  0  0
   16.0819  -26.8304   -0.8865 O   0  0  0  0  0  0  0  0  0  0  0  0
   15.4647  -25.7375   -0.8518 O   0  0  0  0  0  0  0  0  0  0  0  0
  2  1  1  1
  3  2  1  0
  4  5  1  0
  4  3  1  0
  6  7  1  0
  6  5  1  0
  8  9  2  0
  8  2  1  0
 11 10  1  0
 12 11  2  0
 13 11  1  0
 14 13  1  0
 15 14  1  0
 16 15  1  0
 17 16  1  6
 17 18  1  0
 18  8  1  0
 19 17  1  0
 19 26  1  0
 20 19  2  0
 22 21  1  6
 22 24  1  0
 23 22  1  0
 25 24  1  6
 25 26  1  0
 25 27  1  0
 27 29  1  0
 28 27  2  0
M  END
$$$$
