KRL.pdb
     RDKit          3D

 29 28  0  0  1  0  0  0  0  0999 V2000
   14.0990  -13.2858  -14.7570 N   0  0  0  0  0  0  0  0  0  0  0  0
   13.8559  -12.4348  -13.6576 C   0  0  1  0  0  0  0  0  0  0  0  0
   13.2959  -13.1942  -12.4841 C   0  0  0  0  0  0  0  0  0  0  0  0
   11.8556  -13.5284  -12.5728 C   0  0  0  0  0  0  0  0  0  0  0  0
   10.9695  -13.2215  -11.4344 C   0  0  0  0  0  0  0  0  0  0  0  0
    9.5422  -13.6323  -11.5446 C   0  0  0  0  0  0  0  0  0  0  0  0
    8.7551  -13.4442  -10.3747 N   0  0  0  0  0  0  0  0  0  0  0  0
   15.0732  -11.6770  -13.3077 C   0  0  0  0  0  0  0  0  0  0  0  0
   16.2371  -12.1019  -13.5524 O   0  0  0  0  0  0  0  0  0  0  0  0
   22.4758   -9.1793  -14.3966 N   0  0  0  0  0  0  0  0  0  0  0  0
   21.7222   -8.5940  -13.3596 C   0  0  0  0  0  0  0  0  0  0  0  0
   22.2043   -8.4196  -12.1795 N   0  0  0  0  0  0  0  0  0  0  0  0
   20.3713   -8.1766  -13.6227 N   0  0  0  0  0  0  0  0  0  0  0  0
   19.2667   -9.0757  -13.6449 C   0  0  0  0  0  0  0  0  0  0  0  0
   17.9478   -8.4059  -13.9608 C   0  0  0  0  0  0  0  0  0  0  0  0
   16.8012   -9.3604  -13.9255 C   0  0  0  0  0  0  0  0  0  0  0  0
   16.1630   -9.5216  -12.5951 C   0  0  2  0  0  0  0  0  0  0  0  0
   15.0065  -10.4153  -12.6710 N   0  0  0  0  0  0  0  0  0  0  0  0
   15.7752   -8.2448  -11.9131 C   0  0  0  0  0  0  0  0  0  0  0  0
   15.0733   -7.3907  -12.5037 O   0  0  0  0  0  0  0  0  0  0  0  0
   21.5705   -7.9784  -11.4507 C   0  0  0  0  0  0  0  0  0  0  0  0
   13.0602   -7.3346   -6.8782 C   0  0  1  0  0  0  0  0  0  0  0  0
   13.8517   -6.6871   -7.9382 C   0  0  0  0  0  0  0  0  0  0  0  0
   12.9222   -5.7529   -8.7338 C   0  0  0  0  0  0  0  0  0  0  0  0
   14.6577   -7.5259   -8.8363 C   0  0  2  0  0  0  0  0  0  0  0  0
   15.6172   -6.9001   -9.7578 N   0  0  0  0  0  0  0  0  0  0  0  0
   16.1951   -7.9919  -10.5922 C   0  0  0  0  0  0  0  0  0  0  0  0
   16.7573   -6.2206   -9.1338 O   0  0  0  0  0  0  0  0  0  0  0  0
   17.8985   -6.6960   -8.9137 O   0  0  0  0  0  0  0  0  0  0  0  0
  2  1  1  6
  3  2  1  0
  4  5  1  0
  4  3  1  0
  6  7  1  0
  6  5  1  0
  8  9  2  0
  8  2  1  0
 11 10  1  0
 12 11  2  0
 13 11  1  0
 14 13  1  0
 15 14  1  0
 16 15  1  0
 17 16  1  6
 17 18  1  0
 18  8  1  0
 19 17  1  0
 19 26  1  0
 20 19  2  0
 22 21  1  1
 22 24  1  0
 23 22  1  0
 25 24  1  6
 25 26  1  0
 25 27  1  0
 27 29  1  0
 28 27  2  0
M  END
$$$$
