KRL.pdb
     RDKit          3D

 29 28  0  0  1  0  0  0  0  0999 V2000
   24.8330  -18.5883  -18.9831 N   0  0  0  0  0  0  0  0  0  0  0  0
   23.6956  -19.4080  -19.1457 C   0  0  1  0  0  0  0  0  0  0  0  0
   23.9597  -20.5350  -20.1087 C   0  0  0  0  0  0  0  0  0  0  0  0
   24.0609  -20.1426  -21.5334 C   0  0  0  0  0  0  0  0  0  0  0  0
   23.0549  -20.6343  -22.4932 C   0  0  0  0  0  0  0  0  0  0  0  0
   23.2300  -20.2602  -23.9241 C   0  0  0  0  0  0  0  0  0  0  0  0
   24.1220  -19.1805  -24.1737 N   0  0  0  0  0  0  0  0  0  0  0  0
   23.2098  -19.8885  -17.8375 C   0  0  0  0  0  0  0  0  0  0  0  0
   22.3316  -20.7889  -17.7229 O   0  0  0  0  0  0  0  0  0  0  0  0
   25.7271  -22.4331  -11.9947 N   0  0  0  0  0  0  0  0  0  0  0  0
   25.5842  -21.2421  -11.2550 C   0  0  0  0  0  0  0  0  0  0  0  0
   25.2152  -21.2436  -10.0225 N   0  0  0  0  0  0  0  0  0  0  0  0
   25.8581  -19.9824  -11.8928 N   0  0  0  0  0  0  0  0  0  0  0  0
   26.4201  -19.8737  -13.1972 C   0  0  0  0  0  0  0  0  0  0  0  0
   25.4634  -20.2627  -14.3023 C   0  0  0  0  0  0  0  0  0  0  0  0
   24.1824  -19.4996  -14.2417 C   0  0  0  0  0  0  0  0  0  0  0  0
   23.2135  -19.8183  -15.3202 C   0  0  2  0  0  0  0  0  0  0  0  0
   23.7058  -19.3629  -16.6211 N   0  0  0  0  0  0  0  0  0  0  0  0
   21.8205  -19.3126  -15.0981 C   0  0  0  0  0  0  0  0  0  0  0  0
   21.5862  -18.0825  -15.0465 O   0  0  0  0  0  0  0  0  0  0  0  0
   25.1727  -20.3082   -9.5218 C   0  0  0  0  0  0  0  0  0  0  0  0
   17.9785  -18.4897  -17.2365 C   0  0  1  0  0  0  0  0  0  0  0  0
   18.4540  -19.8675  -17.0243 C   0  0  0  0  0  0  0  0  0  0  0  0
   17.6737  -20.7994  -17.9687 C   0  0  0  0  0  0  0  0  0  0  0  0
   18.4890  -20.4046  -15.6568 C   0  0  2  0  0  0  0  0  0  0  0  0
   19.3599  -19.7837  -14.6483 N   0  0  0  0  0  0  0  0  0  0  0  0
   20.7534  -20.2203  -14.9480 C   0  0  0  0  0  0  0  0  0  0  0  0
   19.1058  -20.1681  -13.2560 O   0  0  0  0  0  0  0  0  0  0  0  0
   19.7182  -21.0323  -12.5817 O   0  0  0  0  0  0  0  0  0  0  0  0
  2  1  1  1
  3  2  1  0
  4  5  1  0
  4  3  1  0
  6  7  1  0
  6  5  1  0
  8  9  2  0
  8  2  1  0
 11 10  1  0
 12 11  2  0
 13 11  1  0
 14 13  1  0
 15 14  1  0
 16 15  1  0
 17 16  1  1
 17 18  1  0
 18  8  1  0
 19 17  1  0
 19 26  1  0
 20 19  2  0
 22 21  1  6
 22 24  1  0
 23 22  1  0
 25 24  1  6
 25 26  1  0
 25 27  1  0
 27 29  1  0
 28 27  2  0
M  END
$$$$
