KRL.pdb
     RDKit          3D

 29 28  0  0  1  0  0  0  0  0999 V2000
   22.0655  -20.0210  -18.8073 N   0  0  0  0  0  0  0  0  0  0  0  0
   23.0360  -19.3603  -18.0239 C   0  0  1  0  0  0  0  0  0  0  0  0
   22.4550  -18.1646  -17.3167 C   0  0  0  0  0  0  0  0  0  0  0  0
   21.1507  -18.3914  -16.6525 C   0  0  0  0  0  0  0  0  0  0  0  0
   20.8471  -17.6863  -15.3932 C   0  0  0  0  0  0  0  0  0  0  0  0
   20.2413  -16.3294  -15.4944 C   0  0  0  0  0  0  0  0  0  0  0  0
   19.6130  -15.8459  -14.3134 N   0  0  0  0  0  0  0  0  0  0  0  0
   23.6830  -20.3049  -17.0924 C   0  0  0  0  0  0  0  0  0  0  0  0
   23.0630  -21.2609  -16.5477 O   0  0  0  0  0  0  0  0  0  0  0  0
   29.9073  -25.3564  -15.6558 N   0  0  0  0  0  0  0  0  0  0  0  0
   29.5565  -24.8175  -16.9097 C   0  0  0  0  0  0  0  0  0  0  0  0
   29.2657  -25.5636  -17.9167 N   0  0  0  0  0  0  0  0  0  0  0  0
   29.5209  -23.3892  -17.0749 N   0  0  0  0  0  0  0  0  0  0  0  0
   29.3468  -22.4820  -15.9905 C   0  0  0  0  0  0  0  0  0  0  0  0
   27.9114  -22.3584  -15.5298 C   0  0  0  0  0  0  0  0  0  0  0  0
   27.1318  -21.3850  -16.3493 C   0  0  0  0  0  0  0  0  0  0  0  0
   25.7267  -21.1858  -15.9140 C   0  0  2  0  0  0  0  0  0  0  0  0
   25.0518  -20.1938  -16.7520 N   0  0  0  0  0  0  0  0  0  0  0  0
   25.5490  -20.8354  -14.4678 C   0  0  0  0  0  0  0  0  0  0  0  0
   25.8500  -19.6952  -14.0434 O   0  0  0  0  0  0  0  0  0  0  0  0
   29.0414  -25.0818  -18.8360 C   0  0  0  0  0  0  0  0  0  0  0  0
   22.8477  -19.3192  -10.8631 C   0  0  1  0  0  0  0  0  0  0  0  0
   22.5099  -20.3376  -11.8721 C   0  0  0  0  0  0  0  0  0  0  0  0
   21.0095  -20.6596  -11.7509 C   0  0  0  0  0  0  0  0  0  0  0  0
   23.3135  -21.5663  -11.9386 C   0  0  2  0  0  0  0  0  0  0  0  0
   24.7682  -21.4801  -12.1327 N   0  0  0  0  0  0  0  0  0  0  0  0
   25.0353  -21.7886  -13.5664 C   0  0  0  0  0  0  0  0  0  0  0  0
   25.5767  -22.4267  -11.3574 O   0  0  0  0  0  0  0  0  0  0  0  0
   25.9307  -23.5821  -11.6986 O   0  0  0  0  0  0  0  0  0  0  0  0
  2  1  1  1
  3  2  1  0
  4  5  1  0
  4  3  1  0
  6  7  1  0
  6  5  1  0
  8  9  2  0
  8  2  1  0
 11 10  1  0
 12 11  2  0
 13 11  1  0
 14 13  1  0
 15 14  1  0
 16 15  1  0
 17 16  1  6
 17 18  1  0
 18  8  1  0
 19 17  1  0
 19 26  1  0
 20 19  2  0
 22 21  1  6
 22 24  1  0
 23 22  1  0
 25 24  1  6
 25 26  1  0
 25 27  1  0
 27 29  1  0
 28 27  2  0
M  END
$$$$
