KRL.pdb
     RDKit          3D

 29 28  0  0  1  0  0  0  0  0999 V2000
   22.7051  -20.7585  -15.8359 N   0  0  0  0  0  0  0  0  0  0  0  0
   23.3330  -19.9786  -14.8411 C   0  0  1  0  0  0  0  0  0  0  0  0
   22.3267  -19.3562  -13.9098 C   0  0  0  0  0  0  0  0  0  0  0  0
   20.9172  -19.7462  -14.1452 C   0  0  0  0  0  0  0  0  0  0  0  0
   20.2655  -20.6966  -13.2248 C   0  0  0  0  0  0  0  0  0  0  0  0
   18.8502  -21.0651  -13.5067 C   0  0  0  0  0  0  0  0  0  0  0  0
   18.3073  -22.0947  -12.6890 N   0  0  0  0  0  0  0  0  0  0  0  0
   24.3485  -20.7725  -14.1222 C   0  0  0  0  0  0  0  0  0  0  0  0
   24.1961  -21.9977  -13.8559 O   0  0  0  0  0  0  0  0  0  0  0  0
   31.3041  -23.9512  -14.6221 N   0  0  0  0  0  0  0  0  0  0  0  0
   30.6489  -22.9985  -15.4276 C   0  0  0  0  0  0  0  0  0  0  0  0
   30.4314  -23.1967  -16.6802 N   0  0  0  0  0  0  0  0  0  0  0  0
   30.2073  -21.7639  -14.8365 N   0  0  0  0  0  0  0  0  0  0  0  0
   30.3157  -21.4822  -13.4444 C   0  0  0  0  0  0  0  0  0  0  0  0
   28.9896  -21.5059  -12.7174 C   0  0  0  0  0  0  0  0  0  0  0  0
   27.9111  -20.8076  -13.4765 C   0  0  0  0  0  0  0  0  0  0  0  0
   26.5478  -20.9620  -12.9102 C   0  0  2  0  0  0  0  0  0  0  0  0
   25.5668  -20.2010  -13.6850 N   0  0  0  0  0  0  0  0  0  0  0  0
   26.4180  -20.6262  -11.4555 C   0  0  0  0  0  0  0  0  0  0  0  0
   26.4614  -19.4356  -11.0666 O   0  0  0  0  0  0  0  0  0  0  0  0
   29.9427  -22.4250  -17.2215 C   0  0  0  0  0  0  0  0  0  0  0  0
   26.7332  -19.1894   -6.8228 C   0  0  1  0  0  0  0  0  0  0  0  0
   27.5779  -20.3209   -7.2418 C   0  0  0  0  0  0  0  0  0  0  0  0
   29.0454  -19.9665   -6.9410 C   0  0  0  0  0  0  0  0  0  0  0  0
   27.4282  -20.8539   -8.6031 C   0  0  2  0  0  0  0  0  0  0  0  0
   26.1297  -21.3846   -9.0430 N   0  0  0  0  0  0  0  0  0  0  0  0
   26.2410  -21.6514  -10.5054 C   0  0  0  0  0  0  0  0  0  0  0  0
   24.9811  -20.4872   -8.8814 O   0  0  0  0  0  0  0  0  0  0  0  0
   24.4149  -20.1620   -7.8088 O   0  0  0  0  0  0  0  0  0  0  0  0
  2  1  1  6
  3  2  1  0
  4  5  1  0
  4  3  1  0
  6  7  1  0
  6  5  1  0
  8  9  2  0
  8  2  1  0
 11 10  1  0
 12 11  2  0
 13 11  1  0
 14 13  1  0
 15 14  1  0
 16 15  1  0
 17 16  1  6
 17 18  1  0
 18  8  1  0
 19 17  1  0
 19 26  1  0
 20 19  2  0
 22 21  1  1
 22 24  1  0
 23 22  1  0
 25 24  1  1
 25 26  1  0
 25 27  1  0
 27 29  1  0
 28 27  2  0
M  END
$$$$
