KRL.pdb
     RDKit          3D

 29 28  0  0  1  0  0  0  0  0999 V2000
   21.6909  -34.3319   -8.3095 N   0  0  0  0  0  0  0  0  0  0  0  0
   20.5819  -33.4695   -8.1744 C   0  0  1  0  0  0  0  0  0  0  0  0
   19.9428  -33.5994   -6.8172 C   0  0  0  0  0  0  0  0  0  0  0  0
   20.7292  -34.3544   -5.8145 C   0  0  0  0  0  0  0  0  0  0  0  0
   20.1526  -34.6032   -4.4800 C   0  0  0  0  0  0  0  0  0  0  0  0
   20.9780  -35.3722   -3.5075 C   0  0  0  0  0  0  0  0  0  0  0  0
   20.3586  -35.6488   -2.2573 N   0  0  0  0  0  0  0  0  0  0  0  0
   20.9644  -32.0782   -8.4849 C   0  0  0  0  0  0  0  0  0  0  0  0
   22.0824  -31.5879   -8.1610 O   0  0  0  0  0  0  0  0  0  0  0  0
   19.9025  -28.6009  -15.5066 N   0  0  0  0  0  0  0  0  0  0  0  0
   21.0833  -28.2006  -14.8499 C   0  0  0  0  0  0  0  0  0  0  0  0
   21.7066  -27.1196  -15.1636 N   0  0  0  0  0  0  0  0  0  0  0  0
   21.6131  -29.0224  -13.7951 N   0  0  0  0  0  0  0  0  0  0  0  0
   21.0250  -30.2573  -13.3973 C   0  0  0  0  0  0  0  0  0  0  0  0
   20.2776  -30.1762  -12.0848 C   0  0  0  0  0  0  0  0  0  0  0  0
   21.1850  -29.9249  -10.9270 C   0  0  0  0  0  0  0  0  0  0  0  0
   20.5112  -29.8691   -9.6056 C   0  0  2  0  0  0  0  0  0  0  0  0
   20.0913  -31.2024   -9.1723 N   0  0  0  0  0  0  0  0  0  0  0  0
   19.3564  -28.9182   -9.5164 C   0  0  0  0  0  0  0  0  0  0  0  0
   18.2146  -29.2589   -9.9049 O   0  0  0  0  0  0  0  0  0  0  0  0
   22.5437  -26.8460  -14.5704 C   0  0  0  0  0  0  0  0  0  0  0  0
   18.7553  -22.9874   -7.7917 C   0  0  1  0  0  0  0  0  0  0  0  0
   18.1191  -24.3132   -7.8746 C   0  0  0  0  0  0  0  0  0  0  0  0
   17.2243  -24.4987   -6.6358 C   0  0  0  0  0  0  0  0  0  0  0  0
   18.9640  -25.4941   -8.1015 C   0  0  2  0  0  0  0  0  0  0  0  0
   18.4292  -26.6455   -8.8429 N   0  0  0  0  0  0  0  0  0  0  0  0
   19.5431  -27.6254   -8.9882 C   0  0  0  0  0  0  0  0  0  0  0  0
   17.9530  -26.3691  -10.2022 O   0  0  0  0  0  0  0  0  0  0  0  0
   18.6501  -26.1159  -11.2154 O   0  0  0  0  0  0  0  0  0  0  0  0
  2  1  1  1
  3  2  1  0
  4  5  1  0
  4  3  1  0
  6  7  1  0
  6  5  1  0
  8  9  2  0
  8  2  1  0
 11 10  1  0
 12 11  2  0
 13 11  1  0
 14 13  1  0
 15 14  1  0
 16 15  1  0
 17 16  1  6
 17 18  1  0
 18  8  1  0
 19 17  1  0
 19 26  1  0
 20 19  2  0
 22 21  1  6
 22 24  1  0
 23 22  1  0
 25 24  1  1
 25 26  1  0
 25 27  1  0
 27 29  1  0
 28 27  2  0
M  END
$$$$
