KRL.pdb
     RDKit          3D

 29 28  0  0  1  0  0  0  0  0999 V2000
   25.8924  -22.0554  -13.9616 N   0  0  0  0  0  0  0  0  0  0  0  0
   26.5285  -20.8505  -13.5931 C   0  0  1  0  0  0  0  0  0  0  0  0
   26.3284  -19.7796  -14.6326 C   0  0  0  0  0  0  0  0  0  0  0  0
   25.5535  -20.1900  -15.8264 C   0  0  0  0  0  0  0  0  0  0  0  0
   25.5173  -19.3051  -17.0056 C   0  0  0  0  0  0  0  0  0  0  0  0
   24.6090  -19.6860  -18.1228 C   0  0  0  0  0  0  0  0  0  0  0  0
   24.5300  -18.7564  -19.1966 N   0  0  0  0  0  0  0  0  0  0  0  0
   26.0899  -20.4204  -12.2511 C   0  0  0  0  0  0  0  0  0  0  0  0
   26.4400  -19.3213  -11.7370 O   0  0  0  0  0  0  0  0  0  0  0  0
   20.2464  -23.0268   -8.1410 N   0  0  0  0  0  0  0  0  0  0  0  0
   19.5648  -21.9145   -8.6741 C   0  0  0  0  0  0  0  0  0  0  0  0
   18.3595  -21.6231   -8.3309 N   0  0  0  0  0  0  0  0  0  0  0  0
   20.2324  -21.0752   -9.6325 N   0  0  0  0  0  0  0  0  0  0  0  0
   21.0136  -21.5870  -10.7082 C   0  0  0  0  0  0  0  0  0  0  0  0
   22.3290  -20.8648  -10.8974 C   0  0  0  0  0  0  0  0  0  0  0  0
   23.3631  -21.2968   -9.9120 C   0  0  0  0  0  0  0  0  0  0  0  0
   24.7259  -20.7645  -10.1624 C   0  0  2  0  0  0  0  0  0  0  0  0
   25.2410  -21.2232  -11.4532 N   0  0  0  0  0  0  0  0  0  0  0  0
   25.7296  -21.0449   -9.0856 C   0  0  0  0  0  0  0  0  0  0  0  0
   26.3667  -22.1242   -9.0690 O   0  0  0  0  0  0  0  0  0  0  0  0
   17.9167  -20.7659   -8.7742 C   0  0  0  0  0  0  0  0  0  0  0  0
   28.9163  -17.8384   -4.9154 C   0  0  1  0  0  0  0  0  0  0  0  0
   28.5752  -19.1393   -5.5160 C   0  0  0  0  0  0  0  0  0  0  0  0
   29.8848  -19.8766   -5.8492 C   0  0  0  0  0  0  0  0  0  0  0  0
   27.6414  -19.1755   -6.6503 C   0  0  2  0  0  0  0  0  0  0  0  0
   26.8238  -20.3740   -6.8876 N   0  0  0  0  0  0  0  0  0  0  0  0
   25.9712  -20.0910   -8.0772 C   0  0  0  0  0  0  0  0  0  0  0  0
   25.9029  -20.7471   -5.8089 O   0  0  0  0  0  0  0  0  0  0  0  0
   24.6786  -20.4801   -5.7278 O   0  0  0  0  0  0  0  0  0  0  0  0
  2  1  1  6
  3  2  1  0
  4  5  1  0
  4  3  1  0
  6  7  1  0
  6  5  1  0
  8  9  2  0
  8  2  1  0
 11 10  1  0
 12 11  2  0
 13 11  1  0
 14 13  1  0
 15 14  1  0
 16 15  1  0
 17 16  1  1
 17 18  1  0
 18  8  1  0
 19 17  1  0
 19 26  1  0
 20 19  2  0
 22 21  1  1
 22 24  1  0
 23 22  1  0
 25 24  1  6
 25 26  1  0
 25 27  1  0
 27 29  1  0
 28 27  2  0
M  END
$$$$
