KRL.pdb
     RDKit          3D

 29 28  0  0  1  0  0  0  0  0999 V2000
   17.6608  -20.4288  -11.5346 N   0  0  0  0  0  0  0  0  0  0  0  0
   18.6066  -21.2588  -12.1738 C   0  0  1  0  0  0  0  0  0  0  0  0
   18.0416  -21.8798  -13.4237 C   0  0  0  0  0  0  0  0  0  0  0  0
   16.9971  -22.9074  -13.2062 C   0  0  0  0  0  0  0  0  0  0  0  0
   17.3945  -24.2713  -12.8100 C   0  0  0  0  0  0  0  0  0  0  0  0
   16.3120  -25.2800  -12.6393 C   0  0  0  0  0  0  0  0  0  0  0  0
   16.1529  -26.2001  -13.7124 N   0  0  0  0  0  0  0  0  0  0  0  0
   19.8583  -20.5197  -12.4295 C   0  0  0  0  0  0  0  0  0  0  0  0
   19.8818  -19.2837  -12.6880 O   0  0  0  0  0  0  0  0  0  0  0  0
   25.4051  -23.9983  -13.4065 N   0  0  0  0  0  0  0  0  0  0  0  0
   26.3877  -23.1780  -13.9960 C   0  0  0  0  0  0  0  0  0  0  0  0
   26.9512  -23.4815  -15.1121 N   0  0  0  0  0  0  0  0  0  0  0  0
   26.7769  -21.9621  -13.3336 N   0  0  0  0  0  0  0  0  0  0  0  0
   26.0386  -21.3875  -12.2593 C   0  0  0  0  0  0  0  0  0  0  0  0
   24.8489  -20.5706  -12.7120 C   0  0  0  0  0  0  0  0  0  0  0  0
   23.5492  -21.2238  -12.3785 C   0  0  0  0  0  0  0  0  0  0  0  0
   22.3441  -20.4846  -12.8308 C   0  0  2  0  0  0  0  0  0  0  0  0
   21.1197  -21.1599  -12.3987 N   0  0  0  0  0  0  0  0  0  0  0  0
   22.2794  -20.2063  -14.3018 C   0  0  0  0  0  0  0  0  0  0  0  0
   21.9988  -21.1182  -15.1146 O   0  0  0  0  0  0  0  0  0  0  0  0
   27.6909  -22.8172  -15.4850 C   0  0  0  0  0  0  0  0  0  0  0  0
   20.5102  -15.2616  -16.6228 C   0  0  1  0  0  0  0  0  0  0  0  0
   20.9181  -16.6558  -16.8666 C   0  0  0  0  0  0  0  0  0  0  0  0
   19.7644  -17.5796  -16.4363 C   0  0  0  0  0  0  0  0  0  0  0  0
   22.2032  -17.1247  -16.3296 C   0  0  2  0  0  0  0  0  0  0  0  0
   22.4764  -18.5663  -16.2384 N   0  0  0  0  0  0  0  0  0  0  0  0
   22.5313  -18.9083  -14.7885 C   0  0  0  0  0  0  0  0  0  0  0  0
   23.7504  -19.0159  -16.8090 O   0  0  0  0  0  0  0  0  0  0  0  0
   24.8685  -19.0520  -16.2388 O   0  0  0  0  0  0  0  0  0  0  0  0
  2  1  1  6
  3  2  1  0
  4  5  1  0
  4  3  1  0
  6  7  1  0
  6  5  1  0
  8  9  2  0
  8  2  1  0
 11 10  1  0
 12 11  2  0
 13 11  1  0
 14 13  1  0
 15 14  1  0
 16 15  1  0
 17 16  1  6
 17 18  1  0
 18  8  1  0
 19 17  1  0
 19 26  1  0
 20 19  2  0
 22 21  1  6
 22 24  1  0
 23 22  1  0
 25 24  1  6
 25 26  1  0
 25 27  1  0
 27 29  1  0
 28 27  2  0
M  END
$$$$
