KRL.pdb
     RDKit          3D

 29 28  0  0  1  0  0  0  0  0999 V2000
   21.1288  -19.6888  -16.9426 N   0  0  0  0  0  0  0  0  0  0  0  0
   21.8915  -18.7099  -16.2703 C   0  0  1  0  0  0  0  0  0  0  0  0
   21.1456  -18.1408  -15.0925 C   0  0  0  0  0  0  0  0  0  0  0  0
   20.0904  -17.1558  -15.4247 C   0  0  0  0  0  0  0  0  0  0  0  0
   20.4385  -15.9607  -16.2155 C   0  0  0  0  0  0  0  0  0  0  0  0
   19.3731  -14.9411  -16.4248 C   0  0  0  0  0  0  0  0  0  0  0  0
   19.6940  -13.8920  -17.3303 N   0  0  0  0  0  0  0  0  0  0  0  0
   23.2123  -19.2492  -15.8921 C   0  0  0  0  0  0  0  0  0  0  0  0
   23.3627  -20.3952  -15.3831 O   0  0  0  0  0  0  0  0  0  0  0  0
   29.4248  -20.4127  -19.0786 N   0  0  0  0  0  0  0  0  0  0  0  0
   29.1092  -19.4403  -20.0486 C   0  0  0  0  0  0  0  0  0  0  0  0
   29.2823  -19.6488  -21.3064 N   0  0  0  0  0  0  0  0  0  0  0  0
   28.5766  -18.1732  -19.6250 N   0  0  0  0  0  0  0  0  0  0  0  0
   28.2991  -17.8588  -18.2637 C   0  0  0  0  0  0  0  0  0  0  0  0
   27.2018  -18.7060  -17.6588 C   0  0  0  0  0  0  0  0  0  0  0  0
   26.8073  -18.2400  -16.2971 C   0  0  0  0  0  0  0  0  0  0  0  0
   25.7093  -19.0138  -15.6656 C   0  0  2  0  0  0  0  0  0  0  0  0
   24.4011  -18.5055  -16.0806 N   0  0  0  0  0  0  0  0  0  0  0  0
   25.7688  -19.1048  -14.1710 C   0  0  0  0  0  0  0  0  0  0  0  0
   25.0257  -18.3927  -13.4558 O   0  0  0  0  0  0  0  0  0  0  0  0
   29.0737  -18.8466  -21.9700 C   0  0  0  0  0  0  0  0  0  0  0  0
   24.2760  -21.8810   -9.8017 C   0  0  1  0  0  0  0  0  0  0  0  0
   25.2567  -20.8404  -10.1552 C   0  0  0  0  0  0  0  0  0  0  0  0
   24.9673  -19.5928   -9.3011 C   0  0  0  0  0  0  0  0  0  0  0  0
   25.4380  -20.4857  -11.5698 C   0  0  2  0  0  0  0  0  0  0  0  0
   26.7742  -20.1326  -12.0707 N   0  0  0  0  0  0  0  0  0  0  0  0
   26.6633  -19.9998  -13.5514 C   0  0  0  0  0  0  0  0  0  0  0  0
   27.8316  -21.1201  -11.8309 O   0  0  0  0  0  0  0  0  0  0  0  0
   28.1274  -22.1072  -12.5484 O   0  0  0  0  0  0  0  0  0  0  0  0
  2  1  1  1
  3  2  1  0
  4  5  1  0
  4  3  1  0
  6  7  1  0
  6  5  1  0
  8  9  2  0
  8  2  1  0
 11 10  1  0
 12 11  2  0
 13 11  1  0
 14 13  1  0
 15 14  1  0
 16 15  1  0
 17 16  1  1
 17 18  1  0
 18  8  1  0
 19 17  1  0
 19 26  1  0
 20 19  2  0
 22 21  1  1
 22 24  1  0
 23 22  1  0
 25 24  1  1
 25 26  1  0
 25 27  1  0
 27 29  1  0
 28 27  2  0
M  END
$$$$
