KRL.pdb
     RDKit          3D

 29 28  0  0  1  0  0  0  0  0999 V2000
   22.9717  -17.8647  -19.5828 N   0  0  0  0  0  0  0  0  0  0  0  0
   23.0787  -17.6802  -18.1877 C   0  0  1  0  0  0  0  0  0  0  0  0
   21.8471  -17.0252  -17.6207 C   0  0  0  0  0  0  0  0  0  0  0  0
   20.5581  -17.5489  -18.1289 C   0  0  0  0  0  0  0  0  0  0  0  0
   19.3025  -16.8749  -17.7493 C   0  0  0  0  0  0  0  0  0  0  0  0
   18.0471  -17.3445  -18.3988 C   0  0  0  0  0  0  0  0  0  0  0  0
   16.8746  -16.6050  -18.0796 N   0  0  0  0  0  0  0  0  0  0  0  0
   23.3960  -18.9562  -17.5173 C   0  0  0  0  0  0  0  0  0  0  0  0
   22.5560  -19.8913  -17.3942 O   0  0  0  0  0  0  0  0  0  0  0  0
   27.5224  -25.1432  -15.9543 N   0  0  0  0  0  0  0  0  0  0  0  0
   28.2081  -24.5192  -17.0156 C   0  0  0  0  0  0  0  0  0  0  0  0
   28.4919  -25.1417  -18.1052 N   0  0  0  0  0  0  0  0  0  0  0  0
   28.6057  -23.1434  -16.8820 N   0  0  0  0  0  0  0  0  0  0  0  0
   28.2769  -22.3420  -15.7513 C   0  0  0  0  0  0  0  0  0  0  0  0
   26.7985  -22.0471  -15.6283 C   0  0  0  0  0  0  0  0  0  0  0  0
   26.4128  -20.7755  -16.3075 C   0  0  0  0  0  0  0  0  0  0  0  0
   24.9708  -20.4337  -16.2217 C   0  0  2  0  0  0  0  0  0  0  0  0
   24.6749  -19.2099  -16.9678 N   0  0  0  0  0  0  0  0  0  0  0  0
   24.4205  -20.3277  -14.8319 C   0  0  0  0  0  0  0  0  0  0  0  0
   24.5525  -19.2719  -14.1694 O   0  0  0  0  0  0  0  0  0  0  0  0
   29.0729  -24.6251  -18.8284 C   0  0  0  0  0  0  0  0  0  0  0  0
   25.2663  -22.2006  -10.7859 C   0  0  2  0  0  0  0  0  0  0  0  0
   25.2498  -20.9196  -11.5128 C   0  0  0  0  0  0  0  0  0  0  0  0
   25.8829  -19.8439  -10.6118 C   0  0  0  0  0  0  0  0  0  0  0  0
   23.9851  -20.4487  -12.0945 C   0  0  2  0  0  0  0  0  0  0  0  0
   23.1549  -21.3694  -12.8847 N   0  0  0  0  0  0  0  0  0  0  0  0
   23.7419  -21.4189  -14.2541 C   0  0  0  0  0  0  0  0  0  0  0  0
   21.7519  -20.9799  -13.0594 O   0  0  0  0  0  0  0  0  0  0  0  0
   21.2203  -20.4921  -14.0872 O   0  0  0  0  0  0  0  0  0  0  0  0
  2  1  1  6
  3  2  1  0
  4  5  1  0
  4  3  1  0
  6  7  1  0
  6  5  1  0
  8  9  2  0
  8  2  1  0
 11 10  1  0
 12 11  2  0
 13 11  1  0
 14 13  1  0
 15 14  1  0
 16 15  1  0
 17 16  1  1
 17 18  1  0
 18  8  1  0
 19 17  1  0
 19 26  1  0
 20 19  2  0
 22 21  1  6
 22 24  1  0
 23 22  1  0
 25 24  1  1
 25 26  1  0
 25 27  1  0
 27 29  1  0
 28 27  2  0
M  END
$$$$
