KRL.pdb
     RDKit          3D

 29 28  0  0  1  0  0  0  0  0999 V2000
   27.3083  -22.7637  -16.6843 N   0  0  0  0  0  0  0  0  0  0  0  0
   26.8361  -21.4884  -16.3065 C   0  0  1  0  0  0  0  0  0  0  0  0
   27.1045  -20.4611  -17.3742 C   0  0  0  0  0  0  0  0  0  0  0  0
   28.4936  -20.4262  -17.8873 C   0  0  0  0  0  0  0  0  0  0  0  0
   28.9089  -21.3947  -18.9191 C   0  0  0  0  0  0  0  0  0  0  0  0
   30.2471  -21.2014  -19.5438 C   0  0  0  0  0  0  0  0  0  0  0  0
   30.4745  -19.9254  -20.1300 N   0  0  0  0  0  0  0  0  0  0  0  0
   25.4096  -21.5519  -15.9333 C   0  0  0  0  0  0  0  0  0  0  0  0
   24.5312  -22.0744  -16.6753 O   0  0  0  0  0  0  0  0  0  0  0  0
   24.2859  -21.2335   -7.6758 N   0  0  0  0  0  0  0  0  0  0  0  0
   25.4547  -20.8358   -8.3551 C   0  0  0  0  0  0  0  0  0  0  0  0
   26.5058  -20.4362   -7.7297 N   0  0  0  0  0  0  0  0  0  0  0  0
   25.4793  -20.8756   -9.7926 N   0  0  0  0  0  0  0  0  0  0  0  0
   24.3456  -21.2195  -10.5836 C   0  0  0  0  0  0  0  0  0  0  0  0
   24.6154  -21.1918  -12.0716 C   0  0  0  0  0  0  0  0  0  0  0  0
   23.3730  -21.3678  -12.8792 C   0  0  0  0  0  0  0  0  0  0  0  0
   23.5250  -21.0872  -14.3289 C   0  0  2  0  0  0  0  0  0  0  0  0
   24.9373  -21.0258  -14.7077 N   0  0  0  0  0  0  0  0  0  0  0  0
   22.8126  -19.8643  -14.8215 C   0  0  0  0  0  0  0  0  0  0  0  0
   23.3315  -18.7295  -14.7034 O   0  0  0  0  0  0  0  0  0  0  0  0
   27.3076  -20.0544   -8.3117 C   0  0  0  0  0  0  0  0  0  0  0  0
   18.4703  -17.5857  -17.7128 C   0  0  1  0  0  0  0  0  0  0  0  0
   19.8405  -17.9476  -18.1140 C   0  0  0  0  0  0  0  0  0  0  0  0
   19.8331  -18.2778  -19.6175 C   0  0  0  0  0  0  0  0  0  0  0  0
   20.5573  -18.9764  -17.3474 C   0  0  2  0  0  0  0  0  0  0  0  0
   20.7704  -18.7982  -15.9038 N   0  0  0  0  0  0  0  0  0  0  0  0
   21.5466  -19.9791  -15.4291 C   0  0  0  0  0  0  0  0  0  0  0  0
   19.5600  -18.7504  -15.0771 O   0  0  0  0  0  0  0  0  0  0  0  0
   18.8886  -19.7238  -14.6546 O   0  0  0  0  0  0  0  0  0  0  0  0
  2  1  1  6
  3  2  1  0
  4  5  1  0
  4  3  1  0
  6  7  1  0
  6  5  1  0
  8  9  2  0
  8  2  1  0
 11 10  1  0
 12 11  2  0
 13 11  1  0
 14 13  1  0
 15 14  1  0
 16 15  1  0
 17 16  1  1
 17 18  1  0
 18  8  1  0
 19 17  1  0
 19 26  1  0
 20 19  2  0
 22 21  1  6
 22 24  1  0
 23 22  1  0
 25 24  1  6
 25 26  1  0
 25 27  1  0
 27 29  1  0
 28 27  2  0
M  END
$$$$
