KRL.pdb
     RDKit          3D

 29 28  0  0  1  0  0  0  0  0999 V2000
   18.7972  -31.9504   -6.3659 N   0  0  0  0  0  0  0  0  0  0  0  0
   17.7800  -30.9864   -6.1987 C   0  0  1  0  0  0  0  0  0  0  0  0
   16.5833  -31.5629   -5.4895 C   0  0  0  0  0  0  0  0  0  0  0  0
   15.5977  -32.2459   -6.3590 C   0  0  0  0  0  0  0  0  0  0  0  0
   14.3712  -32.8064   -5.7620 C   0  0  0  0  0  0  0  0  0  0  0  0
   13.4059  -33.4764   -6.6771 C   0  0  0  0  0  0  0  0  0  0  0  0
   12.2143  -33.9597   -6.0688 N   0  0  0  0  0  0  0  0  0  0  0  0
   18.3084  -29.7847   -5.5242 C   0  0  0  0  0  0  0  0  0  0  0  0
   19.3036  -29.8186   -4.7472 O   0  0  0  0  0  0  0  0  0  0  0  0
   17.2579  -22.1527   -9.0154 N   0  0  0  0  0  0  0  0  0  0  0  0
   16.5786  -23.3840   -9.1064 C   0  0  0  0  0  0  0  0  0  0  0  0
   15.5047  -23.5220   -9.8015 N   0  0  0  0  0  0  0  0  0  0  0  0
   17.0972  -24.5258   -8.4021 N   0  0  0  0  0  0  0  0  0  0  0  0
   18.3788  -24.5435   -7.7803 C   0  0  0  0  0  0  0  0  0  0  0  0
   18.7101  -25.8609   -7.1152 C   0  0  0  0  0  0  0  0  0  0  0  0
   17.9088  -26.0917   -5.8776 C   0  0  0  0  0  0  0  0  0  0  0  0
   18.2865  -27.3016   -5.1051 C   0  0  2  0  0  0  0  0  0  0  0  0
   17.7247  -28.5095   -5.7113 N   0  0  0  0  0  0  0  0  0  0  0  0
   17.9478  -27.2601   -3.6459 C   0  0  0  0  0  0  0  0  0  0  0  0
   16.8361  -27.6672   -3.2345 O   0  0  0  0  0  0  0  0  0  0  0  0
   15.0677  -24.4888   -9.8428 C   0  0  0  0  0  0  0  0  0  0  0  0
   20.8578  -25.0590    1.3521 C   0  0  1  0  0  0  0  0  0  0  0  0
   19.8609  -26.0196    0.8493 C   0  0  0  0  0  0  0  0  0  0  0  0
   19.9339  -27.2903    1.7151 C   0  0  0  0  0  0  0  0  0  0  0  0
   19.8528  -26.3516   -0.5823 C   0  0  2  0  0  0  0  0  0  0  0  0
   18.5790  -26.6258   -1.2631 N   0  0  0  0  0  0  0  0  0  0  0  0
   18.8826  -26.7636   -2.7161 C   0  0  0  0  0  0  0  0  0  0  0  0
   17.5575  -25.5785   -1.1605 O   0  0  0  0  0  0  0  0  0  0  0  0
   17.4199  -24.5750   -1.9025 O   0  0  0  0  0  0  0  0  0  0  0  0
  2  1  1  1
  3  2  1  0
  4  5  1  0
  4  3  1  0
  6  7  1  0
  6  5  1  0
  8  9  2  0
  8  2  1  0
 11 10  1  0
 12 11  2  0
 13 11  1  0
 14 13  1  0
 15 14  1  0
 16 15  1  0
 17 16  1  6
 17 18  1  0
 18  8  1  0
 19 17  1  0
 19 26  1  0
 20 19  2  0
 22 21  1  1
 22 24  1  0
 23 22  1  0
 25 24  1  1
 25 26  1  0
 25 27  1  0
 27 29  1  0
 28 27  2  0
M  END
$$$$
