KRL.pdb
     RDKit          3D

 29 28  0  0  1  0  0  0  0  0999 V2000
   28.5295  -22.0653  -18.2949 N   0  0  0  0  0  0  0  0  0  0  0  0
   28.2442  -21.0379  -17.3701 C   0  0  1  0  0  0  0  0  0  0  0  0
   27.8878  -19.7511  -18.0661 C   0  0  0  0  0  0  0  0  0  0  0  0
   28.5685  -19.5199  -19.3612 C   0  0  0  0  0  0  0  0  0  0  0  0
   29.9934  -19.1396  -19.3727 C   0  0  0  0  0  0  0  0  0  0  0  0
   30.5652  -18.6567  -20.6604 C   0  0  0  0  0  0  0  0  0  0  0  0
   29.6514  -18.5737  -21.7474 N   0  0  0  0  0  0  0  0  0  0  0  0
   27.2020  -21.4697  -16.4185 C   0  0  0  0  0  0  0  0  0  0  0  0
   26.1834  -22.1274  -16.7720 O   0  0  0  0  0  0  0  0  0  0  0  0
   23.3777  -19.7628  -10.0524 N   0  0  0  0  0  0  0  0  0  0  0  0
   23.7262  -20.7852   -9.1472 C   0  0  0  0  0  0  0  0  0  0  0  0
   22.9547  -21.1311   -8.1774 N   0  0  0  0  0  0  0  0  0  0  0  0
   24.9827  -21.4666   -9.3076 N   0  0  0  0  0  0  0  0  0  0  0  0
   25.9419  -21.1123  -10.2992 C   0  0  0  0  0  0  0  0  0  0  0  0
   25.4883  -21.4064  -11.7118 C   0  0  0  0  0  0  0  0  0  0  0  0
   26.5518  -21.1288  -12.7212 C   0  0  0  0  0  0  0  0  0  0  0  0
   26.1542  -21.3708  -14.1307 C   0  0  2  0  0  0  0  0  0  0  0  0
   27.2844  -21.1694  -15.0383 N   0  0  0  0  0  0  0  0  0  0  0  0
   24.9729  -20.5809  -14.6064 C   0  0  0  0  0  0  0  0  0  0  0  0
   25.0629  -19.3453  -14.7962 O   0  0  0  0  0  0  0  0  0  0  0  0
   23.3073  -21.8810   -7.5135 C   0  0  0  0  0  0  0  0  0  0  0  0
   20.0056  -20.9626  -17.5057 C   0  0  1  0  0  0  0  0  0  0  0  0
   21.2758  -20.2170  -17.5220 C   0  0  0  0  0  0  0  0  0  0  0  0
   21.6523  -19.9348  -18.9877 C   0  0  0  0  0  0  0  0  0  0  0  0
   22.4220  -20.7489  -16.7717 C   0  0  2  0  0  0  0  0  0  0  0  0
   22.5335  -20.4953  -15.3279 N   0  0  0  0  0  0  0  0  0  0  0  0
   23.7430  -21.2238  -14.8499 C   0  0  0  0  0  0  0  0  0  0  0  0
   21.4195  -20.9752  -14.5036 O   0  0  0  0  0  0  0  0  0  0  0  0
   20.3124  -20.4124  -14.3190 O   0  0  0  0  0  0  0  0  0  0  0  0
  2  1  1  6
  3  2  1  0
  4  5  1  0
  4  3  1  0
  6  7  1  0
  6  5  1  0
  8  9  2  0
  8  2  1  0
 11 10  1  0
 12 11  2  0
 13 11  1  0
 14 13  1  0
 15 14  1  0
 16 15  1  0
 17 16  1  1
 17 18  1  0
 18  8  1  0
 19 17  1  0
 19 26  1  0
 20 19  2  0
 22 21  1  1
 22 24  1  0
 23 22  1  0
 25 24  1  6
 25 26  1  0
 25 27  1  0
 27 29  1  0
 28 27  2  0
M  END
$$$$
