LYC.pdb
     RDKit          3D

 27 27  0  0  1  0  0  0  0  0999 V2000
    5.8120  -11.0940   25.9396 C   0  0  0  0  0  0  0  0  0  0  0  0
    6.7603  -12.2676   26.0649 C   0  0  1  0  0  0  0  0  0  0  0  0
    7.2288  -12.3084   27.5229 C   0  0  0  0  0  0  0  0  0  0  0  0
    6.0892  -13.5761   25.7967 C   0  0  0  0  0  0  0  0  0  0  0  0
    6.9435  -14.7790   26.0413 C   0  0  2  0  0  0  0  0  0  0  0  0
    8.0718  -14.3385   26.8771 N   0  0  0  0  0  0  0  0  0  0  0  0
    7.5375  -15.3655   24.8227 C   0  0  0  0  0  0  0  0  0  0  0  0
    6.7771  -16.0890   24.0994 O   0  0  0  0  0  0  0  0  0  0  0  0
    6.1318  -13.6290   18.3163 O   0  0  0  0  0  0  0  0  0  0  0  0
    7.0755  -13.8830   19.3174 C   0  0  0  0  0  0  0  0  0  0  0  0
    7.7016  -12.8948   20.0273 C   0  0  0  0  0  0  0  0  0  0  0  0
    8.6382  -13.2105   21.0184 C   0  0  0  0  0  0  0  0  0  0  0  0
    8.9507  -14.5191   21.3017 C   0  0  0  0  0  0  0  0  0  0  0  0
    9.9266  -14.8967   22.3327 C   0  0  0  0  0  0  0  0  0  0  0  0
    9.4969  -15.9271   23.3210 C   0  0  2  0  0  0  0  0  0  0  0  0
    8.8908  -15.1579   24.4370 N   0  0  0  0  0  0  0  0  0  0  0  0
   10.5656  -16.7418   23.9132 C   0  0  0  0  0  0  0  0  0  0  0  0
   11.2852  -16.2148   24.8198 O   0  0  0  0  0  0  0  0  0  0  0  0
    8.2988  -15.4901   20.5650 C   0  0  0  0  0  0  0  0  0  0  0  0
    7.3736  -15.2002   19.5849 C   0  0  0  0  0  0  0  0  0  0  0  0
   10.8632  -18.0852   23.5584 N   0  0  0  0  0  0  0  0  0  0  0  0
   11.3756  -18.9899   24.5395 C   0  0  1  0  0  0  0  0  0  0  0  0
   10.4510  -19.0867   25.7529 C   0  0  0  0  0  0  0  0  0  0  0  0
   11.4151  -19.3896   27.2598 S   0  0  0  0  0  0  0  0  0  0  0  0
   11.6506  -20.3385   24.0339 C   0  0  0  0  0  0  0  0  0  0  0  0
   12.5790  -21.1960   24.5860 O   0  0  0  0  0  0  0  0  0  0  0  0
   11.0175  -20.7793   23.0300 O   0  0  0  0  0  0  0  0  0  0  0  0
  2  1  1  1
  3  2  1  0
  4  5  1  0
  4  2  1  0
  5  6  1  1
  7  5  1  0
  7  8  2  0
  9 10  1  0
 10 11  2  0
 11 12  1  0
 13 12  2  0
 13 14  1  0
 15 14  1  6
 15 16  1  0
 16  7  1  0
 17 15  1  0
 18 17  2  0
 19 13  1  0
 20 10  1  0
 20 19  2  0
 21 17  1  0
 22 21  1  0
 22 25  1  0
 22 23  1  1
 24 23  1  0
 25 26  1  0
 27 25  2  0
M  END
$$$$
