LYC.pdb
     RDKit          3D

 27 27  0  0  1  0  0  0  0  0999 V2000
    7.7480  -12.9195   16.5343 C   0  0  0  0  0  0  0  0  0  0  0  0
    7.8994  -14.2438   17.2525 C   0  0  1  0  0  0  0  0  0  0  0  0
    6.6138  -15.0374   16.9998 C   0  0  0  0  0  0  0  0  0  0  0  0
    9.0217  -15.0658   16.7053 C   0  0  0  0  0  0  0  0  0  0  0  0
    9.4848  -16.1686   17.6031 C   0  0  2  0  0  0  0  0  0  0  0  0
    8.5911  -16.1710   18.7723 N   0  0  0  0  0  0  0  0  0  0  0  0
   10.8534  -15.9940   18.1305 C   0  0  0  0  0  0  0  0  0  0  0  0
   11.8163  -16.2889   17.3491 O   0  0  0  0  0  0  0  0  0  0  0  0
   18.2603  -12.8145   18.4375 O   0  0  0  0  0  0  0  0  0  0  0  0
   16.9495  -13.1031   18.8323 C   0  0  0  0  0  0  0  0  0  0  0  0
   16.5736  -13.2471   20.1402 C   0  0  0  0  0  0  0  0  0  0  0  0
   15.2456  -13.5362   20.4746 C   0  0  0  0  0  0  0  0  0  0  0  0
   14.2887  -13.6821   19.4982 C   0  0  0  0  0  0  0  0  0  0  0  0
   12.8840  -13.9852   19.8026 C   0  0  0  0  0  0  0  0  0  0  0  0
   12.5221  -15.4244   19.9473 C   0  0  2  0  0  0  0  0  0  0  0  0
   11.1288  -15.5214   19.4436 N   0  0  0  0  0  0  0  0  0  0  0  0
   12.5039  -15.9530   21.3173 C   0  0  0  0  0  0  0  0  0  0  0  0
   11.4687  -15.7413   22.0251 O   0  0  0  0  0  0  0  0  0  0  0  0
   14.7046  -13.5298   18.1888 C   0  0  0  0  0  0  0  0  0  0  0  0
   16.0073  -13.2451   17.8386 C   0  0  0  0  0  0  0  0  0  0  0  0
   13.5547  -16.6933   21.9233 N   0  0  0  0  0  0  0  0  0  0  0  0
   13.6328  -16.7942   23.3472 C   0  0  1  0  0  0  0  0  0  0  0  0
   12.9235  -18.0465   23.8622 C   0  0  0  0  0  0  0  0  0  0  0  0
   13.4630  -19.5069   22.9304 S   0  0  0  0  0  0  0  0  0  0  0  0
   14.9975  -16.7585   23.8822 C   0  0  0  0  0  0  0  0  0  0  0  0
   15.2991  -16.6091   25.2197 O   0  0  0  0  0  0  0  0  0  0  0  0
   15.9871  -16.8681   23.1000 O   0  0  0  0  0  0  0  0  0  0  0  0
  2  1  1  6
  3  2  1  0
  4  5  1  0
  4  2  1  0
  5  6  1  1
  7  5  1  0
  7  8  2  0
  9 10  1  0
 10 11  2  0
 11 12  1  0
 13 12  2  0
 13 14  1  0
 15 14  1  1
 15 16  1  0
 16  7  1  0
 17 15  1  0
 18 17  2  0
 19 13  1  0
 20 10  1  0
 20 19  2  0
 21 17  1  0
 22 21  1  0
 22 25  1  0
 22 23  1  6
 24 23  1  0
 25 26  1  0
 27 25  2  0
M  END
$$$$
