LYC.pdb
     RDKit          3D

 27 27  0  0  1  0  0  0  0  0999 V2000
    6.1263  -13.5506   19.2470 C   0  0  0  0  0  0  0  0  0  0  0  0
    7.6091  -13.7839   19.4458 C   0  0  1  0  0  0  0  0  0  0  0  0
    8.2800  -12.4068   19.4511 C   0  0  0  0  0  0  0  0  0  0  0  0
    7.9169  -14.4125   20.7666 C   0  0  0  0  0  0  0  0  0  0  0  0
    9.3748  -14.5734   21.0582 C   0  0  2  0  0  0  0  0  0  0  0  0
    9.9183  -15.4772   20.0318 N   0  0  0  0  0  0  0  0  0  0  0  0
    9.6724  -15.2026   22.3610 C   0  0  0  0  0  0  0  0  0  0  0  0
   10.3877  -16.2575   22.3438 O   0  0  0  0  0  0  0  0  0  0  0  0
   10.1656  -15.9754   31.2823 O   0  0  0  0  0  0  0  0  0  0  0  0
    9.9416  -15.5343   29.9736 C   0  0  0  0  0  0  0  0  0  0  0  0
   10.4536  -14.3665   29.4768 C   0  0  0  0  0  0  0  0  0  0  0  0
   10.1950  -13.9768   28.1576 C   0  0  0  0  0  0  0  0  0  0  0  0
    9.4216  -14.7570   27.3309 C   0  0  0  0  0  0  0  0  0  0  0  0
    9.1245  -14.3877   25.9406 C   0  0  0  0  0  0  0  0  0  0  0  0
    9.5348  -15.3569   24.8843 C   0  0  2  0  0  0  0  0  0  0  0  0
    9.2024  -14.6881   23.6011 N   0  0  0  0  0  0  0  0  0  0  0  0
    8.8267  -16.6433   24.8754 C   0  0  0  0  0  0  0  0  0  0  0  0
    9.1101  -17.4870   25.7839 O   0  0  0  0  0  0  0  0  0  0  0  0
    8.9216  -15.9290   27.8666 C   0  0  0  0  0  0  0  0  0  0  0  0
    9.1645  -16.3307   29.1629 C   0  0  0  0  0  0  0  0  0  0  0  0
    7.8374  -17.0269   23.9301 N   0  0  0  0  0  0  0  0  0  0  0  0
    7.1661  -18.2820   24.0633 C   0  0  1  0  0  0  0  0  0  0  0  0
    5.7484  -18.2248   23.4946 C   0  0  0  0  0  0  0  0  0  0  0  0
    5.7972  -17.9637   21.6998 S   0  0  0  0  0  0  0  0  0  0  0  0
    7.8794  -19.4159   23.4671 C   0  0  0  0  0  0  0  0  0  0  0  0
    7.4755  -20.7295   23.5825 O   0  0  0  0  0  0  0  0  0  0  0  0
    8.9359  -19.2178   22.7979 O   0  0  0  0  0  0  0  0  0  0  0  0
  2  1  1  1
  3  2  1  0
  4  5  1  0
  4  2  1  0
  5  6  1  6
  7  5  1  0
  7  8  2  0
  9 10  1  0
 10 11  2  0
 11 12  1  0
 13 12  2  0
 13 14  1  0
 15 14  1  1
 15 16  1  0
 16  7  1  0
 17 15  1  0
 18 17  2  0
 19 13  1  0
 20 10  1  0
 20 19  2  0
 21 17  1  0
 22 21  1  0
 22 25  1  0
 22 23  1  6
 24 23  1  0
 25 26  1  0
 27 25  2  0
M  END
$$$$
