LYC.pdb
     RDKit          3D

 27 27  0  0  1  0  0  0  0  0999 V2000
    7.9999  -12.3079   28.0818 C   0  0  0  0  0  0  0  0  0  0  0  0
    6.9315  -13.2727   27.6125 C   0  0  1  0  0  0  0  0  0  0  0  0
    6.1097  -12.5430   26.5454 C   0  0  0  0  0  0  0  0  0  0  0  0
    7.5058  -14.4849   26.9527 C   0  0  0  0  0  0  0  0  0  0  0  0
    6.5360  -15.2634   26.1219 C   0  0  2  0  0  0  0  0  0  0  0  0
    6.3229  -16.5485   26.8065 N   0  0  0  0  0  0  0  0  0  0  0  0
    7.0195  -15.5938   24.7659 C   0  0  0  0  0  0  0  0  0  0  0  0
    7.5936  -16.7219   24.6156 O   0  0  0  0  0  0  0  0  0  0  0  0
    8.8669  -14.2629   16.0727 O   0  0  0  0  0  0  0  0  0  0  0  0
    8.4289  -14.1446   17.3961 C   0  0  0  0  0  0  0  0  0  0  0  0
    8.7648  -13.0950   18.2073 C   0  0  0  0  0  0  0  0  0  0  0  0
    8.2956  -13.0309   19.5244 C   0  0  0  0  0  0  0  0  0  0  0  0
    7.4873  -14.0197   20.0336 C   0  0  0  0  0  0  0  0  0  0  0  0
    6.9720  -13.9937   21.4089 C   0  0  0  0  0  0  0  0  0  0  0  0
    7.4561  -15.0622   22.3294 C   0  0  2  0  0  0  0  0  0  0  0  0
    6.8720  -14.7224   23.6513 N   0  0  0  0  0  0  0  0  0  0  0  0
    8.9093  -15.1374   22.5268 C   0  0  0  0  0  0  0  0  0  0  0  0
    9.4684  -14.2163   23.2023 O   0  0  0  0  0  0  0  0  0  0  0  0
    7.1688  -15.0639   19.1858 C   0  0  0  0  0  0  0  0  0  0  0  0
    7.6205  -15.1456   17.8858 C   0  0  0  0  0  0  0  0  0  0  0  0
    9.7516  -16.1664   22.0255 N   0  0  0  0  0  0  0  0  0  0  0  0
   11.1715  -16.0014   22.0385 C   0  0  1  0  0  0  0  0  0  0  0  0
   11.8275  -16.8575   23.1216 C   0  0  0  0  0  0  0  0  0  0  0  0
   10.5856  -17.4278   24.3152 S   0  0  0  0  0  0  0  0  0  0  0  0
   11.8233  -16.2681   20.7524 C   0  0  0  0  0  0  0  0  0  0  0  0
   13.1756  -16.1187   20.5261 O   0  0  0  0  0  0  0  0  0  0  0  0
   11.1363  -16.6611   19.7641 O   0  0  0  0  0  0  0  0  0  0  0  0
  2  1  1  6
  3  2  1  0
  4  5  1  0
  4  2  1  0
  5  6  1  1
  7  5  1  0
  7  8  2  0
  9 10  1  0
 10 11  2  0
 11 12  1  0
 13 12  2  0
 13 14  1  0
 15 14  1  6
 15 16  1  0
 16  7  1  0
 17 15  1  0
 18 17  2  0
 19 13  1  0
 20 10  1  0
 20 19  2  0
 21 17  1  0
 22 21  1  0
 22 25  1  0
 22 23  1  1
 24 23  1  0
 25 26  1  0
 27 25  2  0
M  END
$$$$
