LYC.pdb
     RDKit          3D

 27 27  0  0  1  0  0  0  0  0999 V2000
    8.1685  -12.3768   19.7027 C   0  0  0  0  0  0  0  0  0  0  0  0
    7.2516  -13.5552   19.9541 C   0  0  1  0  0  0  0  0  0  0  0  0
    6.1214  -13.4681   18.9238 C   0  0  0  0  0  0  0  0  0  0  0  0
    7.9322  -14.8671   19.7298 C   0  0  0  0  0  0  0  0  0  0  0  0
    8.9489  -15.2293   20.7649 C   0  0  2  0  0  0  0  0  0  0  0  0
    9.5483  -16.5064   20.3462 N   0  0  0  0  0  0  0  0  0  0  0  0
    8.3934  -15.4575   22.1144 C   0  0  0  0  0  0  0  0  0  0  0  0
    7.7895  -14.4789   22.6643 O   0  0  0  0  0  0  0  0  0  0  0  0
    8.0651  -19.4386   30.1613 O   0  0  0  0  0  0  0  0  0  0  0  0
    8.1401  -19.1232   28.8003 C   0  0  0  0  0  0  0  0  0  0  0  0
    7.0456  -19.0685   27.9807 C   0  0  0  0  0  0  0  0  0  0  0  0
    7.1828  -18.7470   26.6254 C   0  0  0  0  0  0  0  0  0  0  0  0
    8.4189  -18.4789   26.0863 C   0  0  0  0  0  0  0  0  0  0  0  0
    8.6101  -18.1373   24.6705 C   0  0  0  0  0  0  0  0  0  0  0  0
    8.0485  -16.8349   24.2106 C   0  0  2  0  0  0  0  0  0  0  0  0
    8.5048  -16.6964   22.8045 N   0  0  0  0  0  0  0  0  0  0  0  0
    8.5228  -15.6389   24.9186 C   0  0  0  0  0  0  0  0  0  0  0  0
    9.7310  -15.2818   24.7441 O   0  0  0  0  0  0  0  0  0  0  0  0
    9.5012  -18.5435   26.9437 C   0  0  0  0  0  0  0  0  0  0  0  0
    9.3873  -18.8582   28.2811 C   0  0  0  0  0  0  0  0  0  0  0  0
    7.7359  -14.8358   25.7874 N   0  0  0  0  0  0  0  0  0  0  0  0
    8.3392  -13.7654   26.5182 C   0  0  1  0  0  0  0  0  0  0  0  0
    7.2884  -12.8635   27.1653 C   0  0  0  0  0  0  0  0  0  0  0  0
    5.6920  -13.0477   26.3230 S   0  0  0  0  0  0  0  0  0  0  0  0
    9.3000  -14.1958   27.5388 C   0  0  0  0  0  0  0  0  0  0  0  0
    9.5542  -15.5144   27.8531 O   0  0  0  0  0  0  0  0  0  0  0  0
    9.9560  -13.3337   28.1941 O   0  0  0  0  0  0  0  0  0  0  0  0
  2  1  1  6
  3  2  1  0
  4  5  1  0
  4  2  1  0
  5  6  1  6
  7  5  1  0
  7  8  2  0
  9 10  1  0
 10 11  2  0
 11 12  1  0
 13 12  2  0
 13 14  1  0
 15 14  1  1
 15 16  1  0
 16  7  1  0
 17 15  1  0
 18 17  2  0
 19 13  1  0
 20 10  1  0
 20 19  2  0
 21 17  1  0
 22 21  1  0
 22 25  1  0
 22 23  1  1
 24 23  1  0
 25 26  1  0
 27 25  2  0
M  END
$$$$
