LYC.pdb
     RDKit          3D

 27 27  0  0  1  0  0  0  0  0999 V2000
    5.9617  -13.9359   19.1905 C   0  0  0  0  0  0  0  0  0  0  0  0
    7.4552  -13.8003   19.3991 C   0  0  1  0  0  0  0  0  0  0  0  0
    7.7521  -12.3037   19.5357 C   0  0  0  0  0  0  0  0  0  0  0  0
    7.9160  -14.4432   20.6675 C   0  0  0  0  0  0  0  0  0  0  0  0
    9.3488  -14.1895   21.0127 C   0  0  2  0  0  0  0  0  0  0  0  0
   10.1578  -14.7602   19.9239 N   0  0  0  0  0  0  0  0  0  0  0  0
    9.8048  -14.8479   22.2538 C   0  0  0  0  0  0  0  0  0  0  0  0
   10.5249  -15.8916   22.1238 O   0  0  0  0  0  0  0  0  0  0  0  0
   10.7885  -16.0645   31.1144 O   0  0  0  0  0  0  0  0  0  0  0  0
   10.5095  -15.5725   29.8348 C   0  0  0  0  0  0  0  0  0  0  0  0
   11.2010  -14.5413   29.2594 C   0  0  0  0  0  0  0  0  0  0  0  0
   10.8759  -14.0917   27.9744 C   0  0  0  0  0  0  0  0  0  0  0  0
    9.8556  -14.6748   27.2608 C   0  0  0  0  0  0  0  0  0  0  0  0
    9.4800  -14.2361   25.9102 C   0  0  0  0  0  0  0  0  0  0  0  0
   10.0261  -15.0261   24.7696 C   0  0  2  0  0  0  0  0  0  0  0  0
    9.4786  -14.3724   23.5542 N   0  0  0  0  0  0  0  0  0  0  0  0
    9.6154  -16.4344   24.7019 C   0  0  0  0  0  0  0  0  0  0  0  0
    8.4149  -16.6908   24.3696 O   0  0  0  0  0  0  0  0  0  0  0  0
    9.1794  -15.7132   27.8734 C   0  0  0  0  0  0  0  0  0  0  0  0
    9.4839  -16.1707   29.1378 C   0  0  0  0  0  0  0  0  0  0  0  0
   10.4568  -17.5467   24.9744 N   0  0  0  0  0  0  0  0  0  0  0  0
    9.9109  -18.8674   25.0113 C   0  0  1  0  0  0  0  0  0  0  0  0
    9.8102  -19.4738   23.6117 C   0  0  0  0  0  0  0  0  0  0  0  0
   10.6397  -21.0866   23.5604 S   0  0  0  0  0  0  0  0  0  0  0  0
   10.6316  -19.7956   25.8883 C   0  0  0  0  0  0  0  0  0  0  0  0
   10.3023  -21.1260   26.0421 O   0  0  0  0  0  0  0  0  0  0  0  0
   11.6227  -19.3886   26.5629 O   0  0  0  0  0  0  0  0  0  0  0  0
  2  1  1  1
  3  2  1  0
  4  5  1  0
  4  2  1  0
  5  6  1  6
  7  5  1  0
  7  8  2  0
  9 10  1  0
 10 11  2  0
 11 12  1  0
 13 12  2  0
 13 14  1  0
 15 14  1  1
 15 16  1  0
 16  7  1  0
 17 15  1  0
 18 17  2  0
 19 13  1  0
 20 10  1  0
 20 19  2  0
 21 17  1  0
 22 21  1  0
 22 25  1  0
 22 23  1  6
 24 23  1  0
 25 26  1  0
 27 25  2  0
M  END
$$$$
