LYC.pdb
     RDKit          3D

 27 27  0  0  1  0  0  0  0  0999 V2000
    7.8019  -12.7063   17.9607 C   0  0  0  0  0  0  0  0  0  0  0  0
    7.8526  -14.1066   18.5345 C   0  0  1  0  0  0  0  0  0  0  0  0
    7.1471  -15.0249   17.5317 C   0  0  0  0  0  0  0  0  0  0  0  0
    9.2505  -14.6185   18.6702 C   0  0  0  0  0  0  0  0  0  0  0  0
    9.4072  -15.7660   19.6164 C   0  0  2  0  0  0  0  0  0  0  0  0
    8.2022  -16.5997   19.4798 N   0  0  0  0  0  0  0  0  0  0  0  0
    9.4818  -15.3792   21.0400 C   0  0  0  0  0  0  0  0  0  0  0  0
   10.6044  -14.9499   21.4646 O   0  0  0  0  0  0  0  0  0  0  0  0
    6.6498  -12.2716   28.9033 O   0  0  0  0  0  0  0  0  0  0  0  0
    6.7631  -12.8589   27.6386 C   0  0  0  0  0  0  0  0  0  0  0  0
    6.4457  -14.1659   27.3864 C   0  0  0  0  0  0  0  0  0  0  0  0
    6.5796  -14.6984   26.0989 C   0  0  0  0  0  0  0  0  0  0  0  0
    7.0326  -13.9218   25.0586 C   0  0  0  0  0  0  0  0  0  0  0  0
    7.1887  -14.4381   23.6923 C   0  0  0  0  0  0  0  0  0  0  0  0
    8.5023  -15.0560   23.3522 C   0  0  2  0  0  0  0  0  0  0  0  0
    8.3761  -15.4658   21.9307 N   0  0  0  0  0  0  0  0  0  0  0  0
    8.8616  -16.2671   24.1010 C   0  0  0  0  0  0  0  0  0  0  0  0
    8.4890  -17.3900   23.6343 O   0  0  0  0  0  0  0  0  0  0  0  0
    7.3435  -12.6070   25.3505 C   0  0  0  0  0  0  0  0  0  0  0  0
    7.2186  -12.0635   26.6113 C   0  0  0  0  0  0  0  0  0  0  0  0
    9.6026  -16.2905   25.3133 N   0  0  0  0  0  0  0  0  0  0  0  0
    9.9706  -17.5386   25.9054 C   0  0  1  0  0  0  0  0  0  0  0  0
   10.7683  -18.4085   24.9341 C   0  0  0  0  0  0  0  0  0  0  0  0
   12.3589  -17.6268   24.5454 S   0  0  0  0  0  0  0  0  0  0  0  0
   10.7129  -17.4157   27.1639 C   0  0  0  0  0  0  0  0  0  0  0  0
   11.0657  -18.4851   27.9601 O   0  0  0  0  0  0  0  0  0  0  0  0
   11.0697  -16.2741   27.5794 O   0  0  0  0  0  0  0  0  0  0  0  0
  2  1  1  6
  3  2  1  0
  4  5  1  0
  4  2  1  0
  5  6  1  1
  7  5  1  0
  7  8  2  0
  9 10  1  0
 10 11  2  0
 11 12  1  0
 13 12  2  0
 13 14  1  0
 15 14  1  1
 15 16  1  0
 16  7  1  0
 17 15  1  0
 18 17  2  0
 19 13  1  0
 20 10  1  0
 20 19  2  0
 21 17  1  0
 22 21  1  0
 22 25  1  0
 22 23  1  6
 24 23  1  0
 25 26  1  0
 27 25  2  0
M  END
$$$$
