LYC.pdb
     RDKit          3D

 27 27  0  0  1  0  0  0  0  0999 V2000
    6.3337  -13.7110   20.2463 C   0  0  0  0  0  0  0  0  0  0  0  0
    7.2375  -13.9667   19.0588 C   0  0  1  0  0  0  0  0  0  0  0  0
    7.6586  -12.5975   18.5162 C   0  0  0  0  0  0  0  0  0  0  0  0
    8.4954  -14.6786   19.4406 C   0  0  0  0  0  0  0  0  0  0  0  0
    9.4162  -14.9764   18.3004 C   0  0  2  0  0  0  0  0  0  0  0  0
    8.8584  -16.1407   17.5941 N   0  0  0  0  0  0  0  0  0  0  0  0
   10.7857  -15.3558   18.7032 C   0  0  0  0  0  0  0  0  0  0  0  0
   10.9854  -16.5815   18.9904 O   0  0  0  0  0  0  0  0  0  0  0  0
   19.6350  -14.8196   19.6654 O   0  0  0  0  0  0  0  0  0  0  0  0
   18.2937  -14.5303   19.3924 C   0  0  0  0  0  0  0  0  0  0  0  0
   17.8975  -13.6565   18.4167 C   0  0  0  0  0  0  0  0  0  0  0  0
   16.5392  -13.4067   18.1894 C   0  0  0  0  0  0  0  0  0  0  0  0
   15.5723  -14.0327   18.9401 C   0  0  0  0  0  0  0  0  0  0  0  0
   14.1360  -13.8013   18.7367 C   0  0  0  0  0  0  0  0  0  0  0  0
   13.2065  -14.8503   19.2455 C   0  0  2  0  0  0  0  0  0  0  0  0
   11.8612  -14.4281   18.7803 N   0  0  0  0  0  0  0  0  0  0  0  0
   13.1162  -14.9827   20.7052 C   0  0  0  0  0  0  0  0  0  0  0  0
   12.3322  -14.1988   21.3284 O   0  0  0  0  0  0  0  0  0  0  0  0
   16.0093  -14.9084   19.9162 C   0  0  0  0  0  0  0  0  0  0  0  0
   17.3419  -15.1681   20.1558 C   0  0  0  0  0  0  0  0  0  0  0  0
   13.8348  -15.9264   21.4878 N   0  0  0  0  0  0  0  0  0  0  0  0
   13.4123  -16.2232   22.8209 C   0  0  1  0  0  0  0  0  0  0  0  0
   11.9395  -16.6294   22.8670 C   0  0  0  0  0  0  0  0  0  0  0  0
   11.4723  -17.1233   24.5492 S   0  0  0  0  0  0  0  0  0  0  0  0
   14.2162  -17.2465   23.4966 C   0  0  0  0  0  0  0  0  0  0  0  0
   15.2311  -17.9565   22.8899 O   0  0  0  0  0  0  0  0  0  0  0  0
   13.9954  -17.5245   24.7119 O   0  0  0  0  0  0  0  0  0  0  0  0
  2  1  1  1
  3  2  1  0
  4  5  1  0
  4  2  1  0
  5  6  1  1
  7  5  1  0
  7  8  2  0
  9 10  1  0
 10 11  2  0
 11 12  1  0
 13 12  2  0
 13 14  1  0
 15 14  1  1
 15 16  1  0
 16  7  1  0
 17 15  1  0
 18 17  2  0
 19 13  1  0
 20 10  1  0
 20 19  2  0
 21 17  1  0
 22 21  1  0
 22 25  1  0
 22 23  1  6
 24 23  1  0
 25 26  1  0
 27 25  2  0
M  END
$$$$
