LYC.pdb
     RDKit          3D

 27 27  0  0  1  0  0  0  0  0999 V2000
    7.0779  -12.5571   18.3280 C   0  0  0  0  0  0  0  0  0  0  0  0
    7.0042  -13.7974   19.1932 C   0  0  1  0  0  0  0  0  0  0  0  0
    7.9258  -14.8414   18.5550 C   0  0  0  0  0  0  0  0  0  0  0  0
    7.5213  -13.5614   20.5758 C   0  0  0  0  0  0  0  0  0  0  0  0
    7.3805  -14.7260   21.5034 C   0  0  2  0  0  0  0  0  0  0  0  0
    5.9537  -14.8258   21.8500 N   0  0  0  0  0  0  0  0  0  0  0  0
    8.1061  -14.5810   22.7818 C   0  0  0  0  0  0  0  0  0  0  0  0
    7.6951  -13.6768   23.5807 O   0  0  0  0  0  0  0  0  0  0  0  0
   10.8879  -15.1764   30.8130 O   0  0  0  0  0  0  0  0  0  0  0  0
   10.4076  -15.2722   29.5025 C   0  0  0  0  0  0  0  0  0  0  0  0
   10.1246  -16.4635   28.8916 C   0  0  0  0  0  0  0  0  0  0  0  0
    9.6459  -16.4967   27.5767 C   0  0  0  0  0  0  0  0  0  0  0  0
    9.4490  -15.3345   26.8689 C   0  0  0  0  0  0  0  0  0  0  0  0
    8.9487  -15.3216   25.4879 C   0  0  0  0  0  0  0  0  0  0  0  0
    9.9615  -15.1533   24.4066 C   0  0  2  0  0  0  0  0  0  0  0  0
    9.2172  -15.3919   23.1443 N   0  0  0  0  0  0  0  0  0  0  0  0
   11.0799  -16.1049   24.4130 C   0  0  0  0  0  0  0  0  0  0  0  0
   10.8308  -17.3207   24.1349 O   0  0  0  0  0  0  0  0  0  0  0  0
    9.7454  -14.1506   27.5177 C   0  0  0  0  0  0  0  0  0  0  0  0
   10.2176  -14.0965   28.8119 C   0  0  0  0  0  0  0  0  0  0  0  0
   12.4321  -15.7773   24.7019 N   0  0  0  0  0  0  0  0  0  0  0  0
   13.4517  -16.7731   24.5889 C   0  0  1  0  0  0  0  0  0  0  0  0
   14.7011  -16.2234   23.9010 C   0  0  0  0  0  0  0  0  0  0  0  0
   15.9744  -17.5104   23.7805 S   0  0  0  0  0  0  0  0  0  0  0  0
   13.8350  -17.3935   25.8609 C   0  0  0  0  0  0  0  0  0  0  0  0
   14.1058  -18.7371   26.0143 O   0  0  0  0  0  0  0  0  0  0  0  0
   13.9339  -16.6856   26.9060 O   0  0  0  0  0  0  0  0  0  0  0  0
  2  1  1  6
  3  2  1  0
  4  5  1  0
  4  2  1  0
  5  6  1  1
  7  5  1  0
  7  8  2  0
  9 10  1  0
 10 11  2  0
 11 12  1  0
 13 12  2  0
 13 14  1  0
 15 14  1  1
 15 16  1  0
 16  7  1  0
 17 15  1  0
 18 17  2  0
 19 13  1  0
 20 10  1  0
 20 19  2  0
 21 17  1  0
 22 21  1  0
 22 25  1  0
 22 23  1  1
 24 23  1  0
 25 26  1  0
 27 25  2  0
M  END
$$$$
