LYC.pdb
     RDKit          3D

 27 27  0  0  1  0  0  0  0  0999 V2000
    6.6294  -18.7896   18.8234 C   0  0  0  0  0  0  0  0  0  0  0  0
    7.9772  -19.4475   18.6158 C   0  0  1  0  0  0  0  0  0  0  0  0
    8.1556  -19.6311   17.1054 C   0  0  0  0  0  0  0  0  0  0  0  0
    9.1100  -18.5881   19.0770 C   0  0  0  0  0  0  0  0  0  0  0  0
    9.5090  -18.7918   20.5038 C   0  0  2  0  0  0  0  0  0  0  0  0
    8.2839  -19.1309   21.2455 N   0  0  0  0  0  0  0  0  0  0  0  0
   10.0693  -17.5927   21.1595 C   0  0  0  0  0  0  0  0  0  0  0  0
   11.1751  -17.1493   20.7063 O   0  0  0  0  0  0  0  0  0  0  0  0
    6.9549  -12.6327   18.1818 O   0  0  0  0  0  0  0  0  0  0  0  0
    7.5208  -13.1373   19.3576 C   0  0  0  0  0  0  0  0  0  0  0  0
    8.8635  -13.1032   19.6195 C   0  0  0  0  0  0  0  0  0  0  0  0
    9.3720  -13.6242   20.8149 C   0  0  0  0  0  0  0  0  0  0  0  0
    8.5356  -14.1818   21.7529 C   0  0  0  0  0  0  0  0  0  0  0  0
    9.0248  -14.7402   23.0204 C   0  0  0  0  0  0  0  0  0  0  0  0
   10.0858  -15.7841   22.9311 C   0  0  2  0  0  0  0  0  0  0  0  0
    9.4369  -16.9322   22.2491 N   0  0  0  0  0  0  0  0  0  0  0  0
   10.5981  -16.2978   24.2079 C   0  0  0  0  0  0  0  0  0  0  0  0
   11.1504  -15.4741   25.0042 O   0  0  0  0  0  0  0  0  0  0  0  0
    7.1861  -14.1989   21.4544 C   0  0  0  0  0  0  0  0  0  0  0  0
    6.6653  -13.6911   20.2833 C   0  0  0  0  0  0  0  0  0  0  0  0
   10.5232  -17.6509   24.6352 N   0  0  0  0  0  0  0  0  0  0  0  0
   11.0695  -18.0356   25.8991 C   0  0  1  0  0  0  0  0  0  0  0  0
    9.9771  -18.4749   26.8739 C   0  0  0  0  0  0  0  0  0  0  0  0
   10.7128  -19.0647   28.4240 S   0  0  0  0  0  0  0  0  0  0  0  0
   12.0956  -19.0801   25.8220 C   0  0  0  0  0  0  0  0  0  0  0  0
   13.2793  -19.0538   26.5294 O   0  0  0  0  0  0  0  0  0  0  0  0
   11.9214  -20.0842   25.0706 O   0  0  0  0  0  0  0  0  0  0  0  0
  2  1  1  6
  3  2  1  0
  4  5  1  0
  4  2  1  0
  5  6  1  1
  7  5  1  0
  7  8  2  0
  9 10  1  0
 10 11  2  0
 11 12  1  0
 13 12  2  0
 13 14  1  0
 15 14  1  1
 15 16  1  0
 16  7  1  0
 17 15  1  0
 18 17  2  0
 19 13  1  0
 20 10  1  0
 20 19  2  0
 21 17  1  0
 22 21  1  0
 22 25  1  0
 22 23  1  1
 24 23  1  0
 25 26  1  0
 27 25  2  0
M  END
$$$$
