LYC.pdb
     RDKit          3D

 27 27  0  0  1  0  0  0  0  0999 V2000
    7.1042  -19.9416   18.8803 C   0  0  0  0  0  0  0  0  0  0  0  0
    6.9161  -18.4559   19.1033 C   0  0  1  0  0  0  0  0  0  0  0  0
    5.4807  -18.2581   19.6004 C   0  0  0  0  0  0  0  0  0  0  0  0
    7.8142  -17.9198   20.1713 C   0  0  0  0  0  0  0  0  0  0  0  0
    7.6014  -16.4769   20.5014 C   0  0  2  0  0  0  0  0  0  0  0  0
    7.9331  -15.7084   19.2910 N   0  0  0  0  0  0  0  0  0  0  0  0
    8.4775  -15.9586   21.5718 C   0  0  0  0  0  0  0  0  0  0  0  0
    9.6393  -15.5631   21.2273 O   0  0  0  0  0  0  0  0  0  0  0  0
   10.8640  -14.3955   30.1099 O   0  0  0  0  0  0  0  0  0  0  0  0
   10.1992  -14.5238   28.8856 C   0  0  0  0  0  0  0  0  0  0  0  0
    9.8433  -13.4550   28.1088 C   0  0  0  0  0  0  0  0  0  0  0  0
    9.1787  -13.6457   26.8917 C   0  0  0  0  0  0  0  0  0  0  0  0
    8.8683  -14.9097   26.4487 C   0  0  0  0  0  0  0  0  0  0  0  0
    8.1723  -15.1570   25.1790 C   0  0  0  0  0  0  0  0  0  0  0  0
    9.0248  -15.4175   23.9838 C   0  0  2  0  0  0  0  0  0  0  0  0
    8.0827  -15.8866   22.9365 N   0  0  0  0  0  0  0  0  0  0  0  0
   10.0389  -16.4697   24.1285 C   0  0  0  0  0  0  0  0  0  0  0  0
    9.6607  -17.6803   24.0336 O   0  0  0  0  0  0  0  0  0  0  0  0
    9.2431  -15.9648   27.2592 C   0  0  0  0  0  0  0  0  0  0  0  0
    9.8980  -15.7983   28.4609 C   0  0  0  0  0  0  0  0  0  0  0  0
   11.4225  -16.2467   24.3632 N   0  0  0  0  0  0  0  0  0  0  0  0
   12.3555  -17.3215   24.2290 C   0  0  1  0  0  0  0  0  0  0  0  0
   12.4958  -17.7661   22.7733 C   0  0  0  0  0  0  0  0  0  0  0  0
   13.5390  -19.2465   22.6623 S   0  0  0  0  0  0  0  0  0  0  0  0
   13.6858  -17.0398   24.7776 C   0  0  0  0  0  0  0  0  0  0  0  0
   14.7069  -17.9647   24.8409 O   0  0  0  0  0  0  0  0  0  0  0  0
   13.9525  -15.8883   25.2313 O   0  0  0  0  0  0  0  0  0  0  0  0
  2  1  1  1
  3  2  1  0
  4  5  1  0
  4  2  1  0
  5  6  1  6
  7  5  1  0
  7  8  2  0
  9 10  1  0
 10 11  2  0
 11 12  1  0
 13 12  2  0
 13 14  1  0
 15 14  1  1
 15 16  1  0
 16  7  1  0
 17 15  1  0
 18 17  2  0
 19 13  1  0
 20 10  1  0
 20 19  2  0
 21 17  1  0
 22 21  1  0
 22 25  1  0
 22 23  1  6
 24 23  1  0
 25 26  1  0
 27 25  2  0
M  END
$$$$
