LYC.pdb
     RDKit          3D

 27 27  0  0  1  0  0  0  0  0999 V2000
    8.7999  -21.3655   19.1881 C   0  0  0  0  0  0  0  0  0  0  0  0
    8.8466  -19.9058   18.7886 C   0  0  1  0  0  0  0  0  0  0  0  0
    7.4123  -19.4915   18.4458 C   0  0  0  0  0  0  0  0  0  0  0  0
    9.2894  -19.0204   19.9086 C   0  0  0  0  0  0  0  0  0  0  0  0
    9.0565  -17.5607   19.6815 C   0  0  2  0  0  0  0  0  0  0  0  0
   10.0392  -17.1227   18.6774 N   0  0  0  0  0  0  0  0  0  0  0  0
    9.2772  -16.7136   20.8713 C   0  0  0  0  0  0  0  0  0  0  0  0
   10.4847  -16.4243   21.1592 O   0  0  0  0  0  0  0  0  0  0  0  0
    6.8241  -11.4721   27.7715 O   0  0  0  0  0  0  0  0  0  0  0  0
    6.8969  -12.2790   26.6309 C   0  0  0  0  0  0  0  0  0  0  0  0
    6.4245  -13.5625   26.5877 C   0  0  0  0  0  0  0  0  0  0  0  0
    6.5253  -14.3223   25.4165 C   0  0  0  0  0  0  0  0  0  0  0  0
    7.1005  -13.7975   24.2834 C   0  0  0  0  0  0  0  0  0  0  0  0
    7.2275  -14.5577   23.0328 C   0  0  0  0  0  0  0  0  0  0  0  0
    8.4915  -15.3236   22.8361 C   0  0  2  0  0  0  0  0  0  0  0  0
    8.2196  -16.2221   21.6858 N   0  0  0  0  0  0  0  0  0  0  0  0
    8.9039  -16.1894   23.9482 C   0  0  0  0  0  0  0  0  0  0  0  0
    8.2268  -17.2436   24.1668 O   0  0  0  0  0  0  0  0  0  0  0  0
    7.5663  -12.4986   24.3639 C   0  0  0  0  0  0  0  0  0  0  0  0
    7.4766  -11.7338   25.5075 C   0  0  0  0  0  0  0  0  0  0  0  0
   10.0104  -15.9486   24.8066 N   0  0  0  0  0  0  0  0  0  0  0  0
   10.3287  -16.8780   25.8451 C   0  0  1  0  0  0  0  0  0  0  0  0
   11.7165  -17.4879   25.6484 C   0  0  0  0  0  0  0  0  0  0  0  0
   11.8860  -18.1437   23.9652 S   0  0  0  0  0  0  0  0  0  0  0  0
   10.2316  -16.3273   27.2005 C   0  0  0  0  0  0  0  0  0  0  0  0
   10.4314  -17.0636   28.3495 O   0  0  0  0  0  0  0  0  0  0  0  0
    9.9486  -15.1047   27.3682 O   0  0  0  0  0  0  0  0  0  0  0  0
  2  1  1  1
  3  2  1  0
  4  5  1  0
  4  2  1  0
  5  6  1  6
  7  5  1  0
  7  8  2  0
  9 10  1  0
 10 11  2  0
 11 12  1  0
 13 12  2  0
 13 14  1  0
 15 14  1  1
 15 16  1  0
 16  7  1  0
 17 15  1  0
 18 17  2  0
 19 13  1  0
 20 10  1  0
 20 19  2  0
 21 17  1  0
 22 21  1  0
 22 25  1  0
 22 23  1  6
 24 23  1  0
 25 26  1  0
 27 25  2  0
M  END
$$$$
