QDH.pdb
     RDKit          3D

 28 28  0  0  1  0  0  0  0  0999 V2000
   26.7124  -21.5291  -15.2602 N   0  0  0  0  0  0  0  0  0  0  0  0
   28.0097  -21.1105  -15.6455 C   0  0  0  0  0  0  0  0  0  0  0  0
   28.9135  -21.9507  -15.8293 O   0  0  0  0  0  0  0  0  0  0  0  0
   28.2929  -19.6725  -15.8301 C   0  0  0  0  0  0  0  0  0  0  0  0
   27.0533  -18.8794  -15.5302 C   0  0  0  0  0  0  0  0  0  0  0  0
   26.1582  -18.7789  -16.7519 C   0  0  2  0  0  0  0  0  0  0  0  0
   26.6688  -17.8747  -17.7329 N   0  0  0  0  0  0  0  0  0  0  0  0
   24.7988  -18.3967  -16.2738 C   0  0  0  0  0  0  0  0  0  0  0  0
   24.5018  -17.2239  -15.9999 O   0  0  0  0  0  0  0  0  0  0  0  0
   23.7494  -19.3392  -16.0972 N   0  0  0  0  0  0  0  0  0  0  0  0
   22.4480  -19.0357  -15.6802 C   0  0  1  0  0  0  0  0  0  0  0  0
   21.3571  -18.9739  -16.6699 C   0  0  0  0  0  0  0  0  0  0  0  0
   20.0495  -18.5639  -16.0932 C   0  0  0  0  0  0  0  0  0  0  0  0
   19.8598  -17.4946  -15.4676 O   0  0  0  0  0  0  0  0  0  0  0  0
   22.0354  -19.9881  -14.6167 C   0  0  0  0  0  0  0  0  0  0  0  0
   22.1456  -21.2362  -14.7220 O   0  0  0  0  0  0  0  0  0  0  0  0
   18.9694  -19.4183  -16.2572 O   0  0  0  0  0  0  0  0  0  0  0  0
   21.4886  -19.4612  -13.4200 N   0  0  0  0  0  0  0  0  0  0  0  0
   21.1006  -20.3556  -12.3467 C   0  0  1  0  0  0  0  0  0  0  0  0
   21.2436  -19.6227  -11.0273 C   0  0  0  0  0  0  0  0  0  0  0  0
   20.8055  -20.4525   -9.8930 C   0  0  0  0  0  0  0  0  0  0  0  0
   20.3416  -21.7505   -9.9765 C   0  0  0  0  0  0  0  0  0  0  0  0
   20.0349  -22.1853   -8.7354 N   0  0  0  0  0  0  0  0  0  0  0  0
   20.2960  -21.1886   -7.8733 C   0  0  0  0  0  0  0  0  0  0  0  0
   20.7673  -20.1311   -8.5886 N   0  0  0  0  0  0  0  0  0  0  0  0
   19.7006  -20.8173  -12.5350 C   0  0  0  0  0  0  0  0  0  0  0  0
   19.4042  -22.0273  -12.3574 O   0  0  0  0  0  0  0  0  0  0  0  0
   18.7313  -19.9063  -12.9061 O   0  0  0  0  0  0  0  0  0  0  0  0
  2  3  2  0
  2  1  1  0
  4  2  1  0
  5  4  1  0
  5  6  1  0
  6  8  1  0
  6  7  1  6
  8  9  2  0
 10 11  1  0
 10  8  1  0
 11 12  1  6
 13 12  1  0
 14 13  2  0
 15 18  1  0
 15 11  1  0
 16 15  2  0
 17 13  1  0
 19 18  1  0
 19 20  1  1
 21 20  1  0
 22 21  2  0
 23 22  1  0
 24 23  1  0
 24 25  2  0
 25 21  1  0
 26 28  1  0
 26 19  1  0
 27 26  2  0
M  END
$$$$
