QDH.pdb
     RDKit          3D

 28 28  0  0  1  0  0  0  0  0999 V2000
   22.4855  -12.8235  -18.2060 N   0  0  0  0  0  0  0  0  0  0  0  0
   23.1318  -13.7865  -17.3927 C   0  0  0  0  0  0  0  0  0  0  0  0
   23.1073  -14.9939  -17.7065 O   0  0  0  0  0  0  0  0  0  0  0  0
   23.8378  -13.3586  -16.1679 C   0  0  0  0  0  0  0  0  0  0  0  0
   23.6647  -11.8779  -15.9861 C   0  0  0  0  0  0  0  0  0  0  0  0
   24.8026  -11.1096  -16.6333 C   0  0  2  0  0  0  0  0  0  0  0  0
   26.0620  -11.3665  -16.0099 N   0  0  0  0  0  0  0  0  0  0  0  0
   24.4337   -9.6654  -16.6044 C   0  0  0  0  0  0  0  0  0  0  0  0
   24.6843   -8.9403  -15.6297 O   0  0  0  0  0  0  0  0  0  0  0  0
   23.7727   -9.0160  -17.6824 N   0  0  0  0  0  0  0  0  0  0  0  0
   23.4618   -7.6523  -17.7399 C   0  0  1  0  0  0  0  0  0  0  0  0
   23.6770   -6.9039  -18.9918 C   0  0  0  0  0  0  0  0  0  0  0  0
   23.4121   -5.4460  -18.8695 C   0  0  0  0  0  0  0  0  0  0  0  0
   22.6207   -4.8099  -19.6042 O   0  0  0  0  0  0  0  0  0  0  0  0
   22.0465   -7.4509  -17.3345 C   0  0  0  0  0  0  0  0  0  0  0  0
   21.0668   -7.8674  -18.0038 O   0  0  0  0  0  0  0  0  0  0  0  0
   24.0829   -4.7435  -17.8796 O   0  0  0  0  0  0  0  0  0  0  0  0
   21.7871   -6.7520  -16.1291 N   0  0  0  0  0  0  0  0  0  0  0  0
   20.4193   -6.5047  -15.7161 C   0  0  1  0  0  0  0  0  0  0  0  0
   20.2698   -6.9084  -14.2624 C   0  0  0  0  0  0  0  0  0  0  0  0
   19.8657   -8.3176  -14.1273 C   0  0  0  0  0  0  0  0  0  0  0  0
   19.5882   -9.1794  -15.1700 C   0  0  0  0  0  0  0  0  0  0  0  0
   19.2531  -10.3850  -14.6626 N   0  0  0  0  0  0  0  0  0  0  0  0
   19.3140  -10.2998  -13.3232 C   0  0  0  0  0  0  0  0  0  0  0  0
   19.6895   -9.0317  -13.0025 N   0  0  0  0  0  0  0  0  0  0  0  0
   20.0734   -5.0705  -15.8949 C   0  0  0  0  0  0  0  0  0  0  0  0
   18.9264   -4.6535  -15.5884 O   0  0  0  0  0  0  0  0  0  0  0  0
   21.0219   -4.2031  -16.3998 O   0  0  0  0  0  0  0  0  0  0  0  0
  2  3  2  0
  2  1  1  0
  4  2  1  0
  5  4  1  0
  5  6  1  0
  6  8  1  0
  6  7  1  1
  8  9  2  0
 10 11  1  0
 10  8  1  0
 11 12  1  6
 13 12  1  0
 14 13  2  0
 15 18  1  0
 15 11  1  0
 16 15  2  0
 17 13  1  0
 19 18  1  0
 19 20  1  1
 21 20  1  0
 22 21  2  0
 23 22  1  0
 24 23  1  0
 24 25  2  0
 25 21  1  0
 26 28  1  0
 26 19  1  0
 27 26  2  0
M  END
$$$$
