QDH.pdb
     RDKit          3D

 28 28  0  0  1  0  0  0  0  0999 V2000
   12.1532  -11.2836  -12.6039 N   0  0  0  0  0  0  0  0  0  0  0  0
   12.5907  -12.1056  -13.6714 C   0  0  0  0  0  0  0  0  0  0  0  0
   11.7895  -12.8697  -14.2467 O   0  0  0  0  0  0  0  0  0  0  0  0
   14.0020  -12.0575  -14.1047 C   0  0  0  0  0  0  0  0  0  0  0  0
   14.7512  -11.0761  -13.2497 C   0  0  0  0  0  0  0  0  0  0  0  0
   16.2358  -11.0961  -13.5649 C   0  0  2  0  0  0  0  0  0  0  0  0
   16.8013  -12.4035  -13.4589 N   0  0  0  0  0  0  0  0  0  0  0  0
   16.8937  -10.1127  -12.6578 C   0  0  0  0  0  0  0  0  0  0  0  0
   17.2087  -10.3987  -11.4927 O   0  0  0  0  0  0  0  0  0  0  0  0
   17.2070   -8.7846  -13.0563 N   0  0  0  0  0  0  0  0  0  0  0  0
   17.8499   -7.8292  -12.2604 C   0  0  1  0  0  0  0  0  0  0  0  0
   18.9146   -6.9897  -12.8395 C   0  0  0  0  0  0  0  0  0  0  0  0
   20.0763   -7.7651  -13.3492 C   0  0  0  0  0  0  0  0  0  0  0  0
   20.3835   -7.8590  -14.5606 O   0  0  0  0  0  0  0  0  0  0  0  0
   16.8367   -6.9205  -11.6640 C   0  0  0  0  0  0  0  0  0  0  0  0
   16.0176   -6.2521  -12.3448 O   0  0  0  0  0  0  0  0  0  0  0  0
   20.8719   -8.4274  -12.4263 O   0  0  0  0  0  0  0  0  0  0  0  0
   16.7912   -6.8009  -10.2525 N   0  0  0  0  0  0  0  0  0  0  0  0
   15.8353   -5.9040   -9.6327 C   0  0  1  0  0  0  0  0  0  0  0  0
   15.5001   -6.4298   -8.2509 C   0  0  0  0  0  0  0  0  0  0  0  0
   14.5627   -7.5632   -8.3120 C   0  0  0  0  0  0  0  0  0  0  0  0
   13.9727   -8.0595   -9.4577 C   0  0  0  0  0  0  0  0  0  0  0  0
   13.1764   -9.0978   -9.1241 N   0  0  0  0  0  0  0  0  0  0  0  0
   13.2530   -9.2650   -7.7934 C   0  0  0  0  0  0  0  0  0  0  0  0
   14.1032   -8.3224   -7.3028 N   0  0  0  0  0  0  0  0  0  0  0  0
   16.3936   -4.5295   -9.5439 C   0  0  0  0  0  0  0  0  0  0  0  0
   17.5837   -4.3069   -9.8867 O   0  0  0  0  0  0  0  0  0  0  0  0
   15.5941   -3.5025   -9.0824 O   0  0  0  0  0  0  0  0  0  0  0  0
  2  3  2  0
  2  1  1  0
  4  2  1  0
  5  4  1  0
  5  6  1  0
  6  8  1  0
  6  7  1  1
  8  9  2  0
 10 11  1  0
 10  8  1  0
 11 12  1  6
 13 12  1  0
 14 13  2  0
 15 18  1  0
 15 11  1  0
 16 15  2  0
 17 13  1  0
 19 18  1  0
 19 20  1  1
 21 20  1  0
 22 21  2  0
 23 22  1  0
 24 23  1  0
 24 25  2  0
 25 21  1  0
 26 28  1  0
 26 19  1  0
 27 26  2  0
M  END
$$$$
