QDH.pdb
     RDKit          3D

 28 28  0  0  1  0  0  0  0  0999 V2000
   16.9370  -16.5084  -15.6094 N   0  0  0  0  0  0  0  0  0  0  0  0
   17.6851  -17.1249  -16.6423 C   0  0  0  0  0  0  0  0  0  0  0  0
   17.6880  -18.3669  -16.7622 O   0  0  0  0  0  0  0  0  0  0  0  0
   18.4650  -16.2931  -17.5813 C   0  0  0  0  0  0  0  0  0  0  0  0
   18.2618  -14.8431  -17.2471 C   0  0  0  0  0  0  0  0  0  0  0  0
   18.3659  -13.9749  -18.4879 C   0  0  2  0  0  0  0  0  0  0  0  0
   19.0594  -14.6240  -19.5547 N   0  0  0  0  0  0  0  0  0  0  0  0
   19.0130  -12.6955  -18.0793 C   0  0  0  0  0  0  0  0  0  0  0  0
   18.7566  -12.1426  -16.9989 O   0  0  0  0  0  0  0  0  0  0  0  0
   19.9646  -12.0185  -18.8898 N   0  0  0  0  0  0  0  0  0  0  0  0
   20.6703  -10.8669  -18.5222 C   0  0  1  0  0  0  0  0  0  0  0  0
   21.9921  -10.5965  -19.1167 C   0  0  0  0  0  0  0  0  0  0  0  0
   22.9715  -11.6982  -18.9223 C   0  0  0  0  0  0  0  0  0  0  0  0
   23.1683  -12.2811  -17.8305 O   0  0  0  0  0  0  0  0  0  0  0  0
   19.8201   -9.6708  -18.7561 C   0  0  0  0  0  0  0  0  0  0  0  0
   19.2476   -9.4294  -19.8493 O   0  0  0  0  0  0  0  0  0  0  0  0
   23.7156  -12.1082  -20.0185 O   0  0  0  0  0  0  0  0  0  0  0  0
   19.6454   -8.7534  -17.6901 N   0  0  0  0  0  0  0  0  0  0  0  0
   18.8063   -7.5848  -17.8714 C   0  0  1  0  0  0  0  0  0  0  0  0
   17.6620   -7.6491  -16.8790 C   0  0  0  0  0  0  0  0  0  0  0  0
   16.7868   -6.4696  -16.9796 C   0  0  0  0  0  0  0  0  0  0  0  0
   16.7501   -5.5818  -18.0367 C   0  0  0  0  0  0  0  0  0  0  0  0
   15.8279   -4.6306  -17.7761 N   0  0  0  0  0  0  0  0  0  0  0  0
   15.2838   -4.9012  -16.5780 C   0  0  0  0  0  0  0  0  0  0  0  0
   15.8754   -6.0281  -16.0962 N   0  0  0  0  0  0  0  0  0  0  0  0
   19.5961   -6.3416  -17.6733 C   0  0  0  0  0  0  0  0  0  0  0  0
   20.7855   -6.4057  -17.2675 O   0  0  0  0  0  0  0  0  0  0  0  0
   19.0119   -5.1188  -17.9387 O   0  0  0  0  0  0  0  0  0  0  0  0
  2  3  2  0
  2  1  1  0
  4  2  1  0
  5  4  1  0
  5  6  1  0
  6  8  1  0
  6  7  1  6
  8  9  2  0
 10 11  1  0
 10  8  1  0
 11 12  1  6
 13 12  1  0
 14 13  2  0
 15 18  1  0
 15 11  1  0
 16 15  2  0
 17 13  1  0
 19 18  1  0
 19 20  1  1
 21 20  1  0
 22 21  2  0
 23 22  1  0
 24 23  1  0
 24 25  2  0
 25 21  1  0
 26 28  1  0
 26 19  1  0
 27 26  2  0
M  END
$$$$
