QDH.pdb
     RDKit          3D

 28 28  0  0  1  0  0  0  0  0999 V2000
   19.4150  -13.5623  -16.5421 N   0  0  0  0  0  0  0  0  0  0  0  0
   18.3044  -14.0061  -15.7830 C   0  0  0  0  0  0  0  0  0  0  0  0
   18.2496  -15.1848  -15.3777 O   0  0  0  0  0  0  0  0  0  0  0  0
   17.2066  -13.0685  -15.4702 C   0  0  0  0  0  0  0  0  0  0  0  0
   17.5769  -11.6932  -15.9466 C   0  0  0  0  0  0  0  0  0  0  0  0
   16.5183  -10.6761  -15.5607 C   0  0  2  0  0  0  0  0  0  0  0  0
   15.2512  -10.9488  -16.1611 N   0  0  0  0  0  0  0  0  0  0  0  0
   17.0457   -9.3297  -15.9236 C   0  0  0  0  0  0  0  0  0  0  0  0
   17.1601   -8.9624  -17.1028 O   0  0  0  0  0  0  0  0  0  0  0  0
   17.4537   -8.3735  -14.9541 N   0  0  0  0  0  0  0  0  0  0  0  0
   17.9263   -7.0858  -15.2334 C   0  0  1  0  0  0  0  0  0  0  0  0
   17.0223   -5.9287  -15.1007 C   0  0  0  0  0  0  0  0  0  0  0  0
   17.6434   -4.6368  -15.4956 C   0  0  0  0  0  0  0  0  0  0  0  0
   18.0854   -4.3892  -16.6419 O   0  0  0  0  0  0  0  0  0  0  0  0
   19.1304   -6.8115  -14.4070 C   0  0  0  0  0  0  0  0  0  0  0  0
   19.1755   -6.9953  -13.1639 O   0  0  0  0  0  0  0  0  0  0  0  0
   17.7404   -3.6410  -14.5352 O   0  0  0  0  0  0  0  0  0  0  0  0
   20.2897   -6.3164  -15.0547 N   0  0  0  0  0  0  0  0  0  0  0  0
   21.5098   -6.1125  -14.2981 C   0  0  1  0  0  0  0  0  0  0  0  0
   22.6831   -6.5944  -15.1284 C   0  0  0  0  0  0  0  0  0  0  0  0
   22.5961   -8.0370  -15.4085 C   0  0  0  0  0  0  0  0  0  0  0  0
   22.1218   -8.9991  -14.5389 C   0  0  0  0  0  0  0  0  0  0  0  0
   22.1940  -10.2057  -15.1409 N   0  0  0  0  0  0  0  0  0  0  0  0
   22.7035  -10.0228  -16.3705 C   0  0  0  0  0  0  0  0  0  0  0  0
   22.9473   -8.6932  -16.5275 N   0  0  0  0  0  0  0  0  0  0  0  0
   21.6734   -4.6764  -13.9524 C   0  0  0  0  0  0  0  0  0  0  0  0
   20.8613   -3.8228  -14.3944 O   0  0  0  0  0  0  0  0  0  0  0  0
   22.7236   -4.2902  -13.1431 O   0  0  0  0  0  0  0  0  0  0  0  0
  2  3  2  0
  2  1  1  0
  4  2  1  0
  5  4  1  0
  5  6  1  0
  6  8  1  0
  6  7  1  6
  8  9  2  0
 10 11  1  0
 10  8  1  0
 11 12  1  1
 13 12  1  0
 14 13  2  0
 15 18  1  0
 15 11  1  0
 16 15  2  0
 17 13  1  0
 19 18  1  0
 19 20  1  6
 21 20  1  0
 22 21  2  0
 23 22  1  0
 24 23  1  0
 24 25  2  0
 25 21  1  0
 26 28  1  0
 26 19  1  0
 27 26  2  0
M  END
$$$$
