QDH.pdb
     RDKit          3D

 28 28  0  0  1  0  0  0  0  0999 V2000
   45.7662  -17.1856   -9.9755 N   0  0  0  0  0  0  0  0  0  0  0  0
   44.4292  -16.8788   -9.6221 C   0  0  0  0  0  0  0  0  0  0  0  0
   43.5713  -17.7827   -9.5603 O   0  0  0  0  0  0  0  0  0  0  0  0
   44.0498  -15.4824   -9.3255 C   0  0  0  0  0  0  0  0  0  0  0  0
   45.1985  -14.5740   -9.6581 C   0  0  0  0  0  0  0  0  0  0  0  0
   45.7223  -13.8757   -8.4164 C   0  0  2  0  0  0  0  0  0  0  0  0
   45.5464  -14.6562   -7.2330 N   0  0  0  0  0  0  0  0  0  0  0  0
   45.0432  -12.5510   -8.3345 C   0  0  0  0  0  0  0  0  0  0  0  0
   44.2095  -12.2909   -7.4536 O   0  0  0  0  0  0  0  0  0  0  0  0
   45.2976  -11.4952   -9.2516 N   0  0  0  0  0  0  0  0  0  0  0  0
   44.7598  -10.2051   -9.1732 C   0  0  1  0  0  0  0  0  0  0  0  0
   45.3012   -9.1323  -10.0273 C   0  0  0  0  0  0  0  0  0  0  0  0
   44.7397   -7.7887   -9.7271 C   0  0  0  0  0  0  0  0  0  0  0  0
   44.5712   -7.3383   -8.5698 O   0  0  0  0  0  0  0  0  0  0  0  0
   43.2934  -10.2664   -9.4054 C   0  0  0  0  0  0  0  0  0  0  0  0
   42.7222  -11.2241   -9.9866 O   0  0  0  0  0  0  0  0  0  0  0  0
   44.3789   -6.9809  -10.7951 O   0  0  0  0  0  0  0  0  0  0  0  0
   42.4962   -9.1878   -8.9473 N   0  0  0  0  0  0  0  0  0  0  0  0
   41.0920   -9.3995   -8.6539 C   0  0  1  0  0  0  0  0  0  0  0  0
   40.9697   -9.9935   -7.2645 C   0  0  0  0  0  0  0  0  0  0  0  0
   39.5637  -10.1114   -6.8443 C   0  0  0  0  0  0  0  0  0  0  0  0
   38.6204  -10.9444   -7.4128 C   0  0  0  0  0  0  0  0  0  0  0  0
   37.4465  -10.7803   -6.7660 N   0  0  0  0  0  0  0  0  0  0  0  0
   37.6314   -9.8620   -5.8030 C   0  0  0  0  0  0  0  0  0  0  0  0
   38.9295   -9.4569   -5.8567 N   0  0  0  0  0  0  0  0  0  0  0  0
   40.3441   -8.1181   -8.7385 C   0  0  0  0  0  0  0  0  0  0  0  0
   39.1094   -8.1210   -8.9812 O   0  0  0  0  0  0  0  0  0  0  0  0
   41.0174   -6.9274   -8.5483 O   0  0  0  0  0  0  0  0  0  0  0  0
  2  3  2  0
  2  1  1  0
  4  2  1  0
  5  4  1  0
  5  6  1  0
  6  8  1  0
  6  7  1  1
  8  9  2  0
 10 11  1  0
 10  8  1  0
 11 12  1  6
 13 12  1  0
 14 13  2  0
 15 18  1  0
 15 11  1  0
 16 15  2  0
 17 13  1  0
 19 18  1  0
 19 20  1  1
 21 20  1  0
 22 21  2  0
 23 22  1  0
 24 23  1  0
 24 25  2  0
 25 21  1  0
 26 28  1  0
 26 19  1  0
 27 26  2  0
M  END
$$$$
