QDH.pdb
     RDKit          3D

 28 28  0  0  1  0  0  0  0  0999 V2000
   22.5244  -15.3322  -19.3536 N   0  0  0  0  0  0  0  0  0  0  0  0
   21.3001  -14.9715  -19.9681 C   0  0  0  0  0  0  0  0  0  0  0  0
   20.8383  -15.6580  -20.9020 O   0  0  0  0  0  0  0  0  0  0  0  0
   20.5676  -13.7770  -19.5007 C   0  0  0  0  0  0  0  0  0  0  0  0
   21.2907  -13.1777  -18.3288 C   0  0  0  0  0  0  0  0  0  0  0  0
   22.2763  -12.1145  -18.7783 C   0  0  2  0  0  0  0  0  0  0  0  0
   23.6093  -12.6153  -18.8912 N   0  0  0  0  0  0  0  0  0  0  0  0
   22.1708  -10.9793  -17.8176 C   0  0  0  0  0  0  0  0  0  0  0  0
   22.4483  -11.1053  -16.6152 O   0  0  0  0  0  0  0  0  0  0  0  0
   21.7480   -9.6782  -18.2037 N   0  0  0  0  0  0  0  0  0  0  0  0
   21.5938   -8.5862  -17.3416 C   0  0  1  0  0  0  0  0  0  0  0  0
   21.6552   -7.2145  -17.8784 C   0  0  0  0  0  0  0  0  0  0  0  0
   21.4731   -6.1600  -16.8461 C   0  0  0  0  0  0  0  0  0  0  0  0
   22.1435   -6.0852  -15.7899 O   0  0  0  0  0  0  0  0  0  0  0  0
   20.3138   -8.7203  -16.5987 C   0  0  0  0  0  0  0  0  0  0  0  0
   19.2313   -9.0645  -17.1379 O   0  0  0  0  0  0  0  0  0  0  0  0
   20.4994   -5.1969  -17.0646 O   0  0  0  0  0  0  0  0  0  0  0  0
   20.3134   -8.4454  -15.2083 N   0  0  0  0  0  0  0  0  0  0  0  0
   19.0692   -8.4793  -14.4645 C   0  0  1  0  0  0  0  0  0  0  0  0
   19.2965   -9.2367  -13.1710 C   0  0  0  0  0  0  0  0  0  0  0  0
   18.0740   -9.2969  -12.3531 C   0  0  0  0  0  0  0  0  0  0  0  0
   16.8188   -9.6526  -12.8057 C   0  0  0  0  0  0  0  0  0  0  0  0
   15.9494   -9.5931  -11.7742 N   0  0  0  0  0  0  0  0  0  0  0  0
   16.6311   -9.2076  -10.6826 C   0  0  0  0  0  0  0  0  0  0  0  0
   17.9307   -9.0281  -11.0441 N   0  0  0  0  0  0  0  0  0  0  0  0
   18.5945   -7.0997  -14.1819 C   0  0  0  0  0  0  0  0  0  0  0  0
   19.4048   -6.1371  -14.1931 O   0  0  0  0  0  0  0  0  0  0  0  0
   17.2579   -6.8865  -13.9077 O   0  0  0  0  0  0  0  0  0  0  0  0
  2  3  2  0
  2  1  1  0
  4  2  1  0
  5  4  1  0
  5  6  1  0
  6  8  1  0
  6  7  1  1
  8  9  2  0
 10 11  1  0
 10  8  1  0
 11 12  1  6
 13 12  1  0
 14 13  2  0
 15 18  1  0
 15 11  1  0
 16 15  2  0
 17 13  1  0
 19 18  1  0
 19 20  1  1
 21 20  1  0
 22 21  2  0
 23 22  1  0
 24 23  1  0
 24 25  2  0
 25 21  1  0
 26 28  1  0
 26 19  1  0
 27 26  2  0
M  END
$$$$
