QDH.pdb
     RDKit          3D

 28 28  0  0  1  0  0  0  0  0999 V2000
   26.5085  -10.2786  -14.9657 N   0  0  0  0  0  0  0  0  0  0  0  0
   26.0624  -10.5252  -16.2874 C   0  0  0  0  0  0  0  0  0  0  0  0
   26.8866  -10.7036  -17.2069 O   0  0  0  0  0  0  0  0  0  0  0  0
   24.6148  -10.5710  -16.5774 C   0  0  0  0  0  0  0  0  0  0  0  0
   23.8465  -10.2900  -15.3180 C   0  0  0  0  0  0  0  0  0  0  0  0
   22.3536  -10.2367  -15.5871 C   0  0  2  0  0  0  0  0  0  0  0  0
   22.0451  -10.2968  -16.9806 N   0  0  0  0  0  0  0  0  0  0  0  0
   21.8312   -9.0004  -14.9381 C   0  0  0  0  0  0  0  0  0  0  0  0
   22.0499   -8.7391  -13.7454 O   0  0  0  0  0  0  0  0  0  0  0  0
   21.0498   -8.0360  -15.6310 N   0  0  0  0  0  0  0  0  0  0  0  0
   20.4989   -6.8801  -15.0654 C   0  0  1  0  0  0  0  0  0  0  0  0
   20.1722   -5.7278  -15.9250 C   0  0  0  0  0  0  0  0  0  0  0  0
   21.3407   -5.1857  -16.6674 C   0  0  0  0  0  0  0  0  0  0  0  0
   22.3072   -4.5982  -16.1276 O   0  0  0  0  0  0  0  0  0  0  0  0
   19.2710   -7.2376  -14.3086 C   0  0  0  0  0  0  0  0  0  0  0  0
   18.3519   -7.9567  -14.7769 O   0  0  0  0  0  0  0  0  0  0  0  0
   21.3643   -5.3392  -18.0456 O   0  0  0  0  0  0  0  0  0  0  0  0
   19.1285   -6.7415  -12.9887 N   0  0  0  0  0  0  0  0  0  0  0  0
   17.9096   -6.9989  -12.2466 C   0  0  1  0  0  0  0  0  0  0  0  0
   18.2719   -7.2994  -10.8055 C   0  0  0  0  0  0  0  0  0  0  0  0
   17.0740   -7.4758   -9.9682 C   0  0  0  0  0  0  0  0  0  0  0  0
   16.3855   -6.4664   -9.3247 C   0  0  0  0  0  0  0  0  0  0  0  0
   15.3452   -7.0063   -8.6540 N   0  0  0  0  0  0  0  0  0  0  0  0
   15.3650   -8.3334   -8.8619 C   0  0  0  0  0  0  0  0  0  0  0  0
   16.4257   -8.6137   -9.6671 N   0  0  0  0  0  0  0  0  0  0  0  0
   16.9991   -5.8266  -12.3195 C   0  0  0  0  0  0  0  0  0  0  0  0
   17.4706   -4.6652  -12.4295 O   0  0  0  0  0  0  0  0  0  0  0  0
   15.6336   -6.0256  -12.2653 O   0  0  0  0  0  0  0  0  0  0  0  0
  2  3  2  0
  2  1  1  0
  4  2  1  0
  5  4  1  0
  5  6  1  0
  6  8  1  0
  6  7  1  6
  8  9  2  0
 10 11  1  0
 10  8  1  0
 11 12  1  6
 13 12  1  0
 14 13  2  0
 15 18  1  0
 15 11  1  0
 16 15  2  0
 17 13  1  0
 19 18  1  0
 19 20  1  1
 21 20  1  0
 22 21  2  0
 23 22  1  0
 24 23  1  0
 24 25  2  0
 25 21  1  0
 26 28  1  0
 26 19  1  0
 27 26  2  0
M  END
$$$$
