QDH.pdb
     RDKit          3D

 28 28  0  0  1  0  0  0  0  0999 V2000
   27.6013  -22.5131  -15.6435 N   0  0  0  0  0  0  0  0  0  0  0  0
   27.8540  -21.2375  -16.2054 C   0  0  0  0  0  0  0  0  0  0  0  0
   28.6294  -21.1195  -17.1758 O   0  0  0  0  0  0  0  0  0  0  0  0
   27.1961  -20.0421  -15.6394 C   0  0  0  0  0  0  0  0  0  0  0  0
   26.2930  -20.4580  -14.5139 C   0  0  0  0  0  0  0  0  0  0  0  0
   25.0433  -21.1416  -15.0381 C   0  0  2  0  0  0  0  0  0  0  0  0
   24.8145  -20.8787  -16.4234 N   0  0  0  0  0  0  0  0  0  0  0  0
   23.9067  -20.7055  -14.1774 C   0  0  0  0  0  0  0  0  0  0  0  0
   24.0802  -20.2532  -13.0355 O   0  0  0  0  0  0  0  0  0  0  0  0
   22.5502  -20.7744  -14.5968 N   0  0  0  0  0  0  0  0  0  0  0  0
   21.4430  -20.3994  -13.8268 C   0  0  1  0  0  0  0  0  0  0  0  0
   20.2752  -19.7772  -14.4770 C   0  0  0  0  0  0  0  0  0  0  0  0
   19.4204  -18.9933  -13.5467 C   0  0  0  0  0  0  0  0  0  0  0  0
   19.8051  -18.5539  -12.4378 O   0  0  0  0  0  0  0  0  0  0  0  0
   20.9555  -21.5738  -13.0579 C   0  0  0  0  0  0  0  0  0  0  0  0
   21.6958  -22.5253  -12.7006 O   0  0  0  0  0  0  0  0  0  0  0  0
   18.1134  -18.7307  -13.9290 O   0  0  0  0  0  0  0  0  0  0  0  0
   19.5827  -21.6240  -12.7089 N   0  0  0  0  0  0  0  0  0  0  0  0
   19.0904  -22.6924  -11.8611 C   0  0  1  0  0  0  0  0  0  0  0  0
   19.7363  -22.5663  -10.4953 C   0  0  0  0  0  0  0  0  0  0  0  0
   19.1712  -23.5280   -9.5346 C   0  0  0  0  0  0  0  0  0  0  0  0
   18.1159  -24.3845   -9.7787 C   0  0  0  0  0  0  0  0  0  0  0  0
   17.8794  -25.1139   -8.6672 N   0  0  0  0  0  0  0  0  0  0  0  0
   18.7634  -24.7344   -7.7294 C   0  0  0  0  0  0  0  0  0  0  0  0
   19.5509  -23.7634   -8.2672 N   0  0  0  0  0  0  0  0  0  0  0  0
   17.6105  -22.6232  -11.7439 C   0  0  0  0  0  0  0  0  0  0  0  0
   17.0115  -21.5323  -11.9300 O   0  0  0  0  0  0  0  0  0  0  0  0
   16.9021  -23.7661  -11.4294 O   0  0  0  0  0  0  0  0  0  0  0  0
  2  3  2  0
  2  1  1  0
  4  2  1  0
  5  4  1  0
  5  6  1  0
  6  8  1  0
  6  7  1  6
  8  9  2  0
 10 11  1  0
 10  8  1  0
 11 12  1  6
 13 12  1  0
 14 13  2  0
 15 18  1  0
 15 11  1  0
 16 15  2  0
 17 13  1  0
 19 18  1  0
 19 20  1  1
 21 20  1  0
 22 21  2  0
 23 22  1  0
 24 23  1  0
 24 25  2  0
 25 21  1  0
 26 28  1  0
 26 19  1  0
 27 26  2  0
M  END
$$$$
