QDH.pdb
     RDKit          3D

 28 28  0  0  1  0  0  0  0  0999 V2000
   28.0794  -20.6678  -16.8688 N   0  0  0  0  0  0  0  0  0  0  0  0
   27.2721  -20.8851  -15.7253 C   0  0  0  0  0  0  0  0  0  0  0  0
   26.8095  -22.0192  -15.4877 O   0  0  0  0  0  0  0  0  0  0  0  0
   26.9771  -19.7634  -14.8106 C   0  0  0  0  0  0  0  0  0  0  0  0
   26.0023  -18.8292  -15.4682 C   0  0  0  0  0  0  0  0  0  0  0  0
   24.5698  -19.2391  -15.1788 C   0  0  2  0  0  0  0  0  0  0  0  0
   24.3507  -20.6378  -15.3690 N   0  0  0  0  0  0  0  0  0  0  0  0
   23.6873  -18.3995  -16.0383 C   0  0  0  0  0  0  0  0  0  0  0  0
   23.7606  -17.1612  -16.0473 O   0  0  0  0  0  0  0  0  0  0  0  0
   22.7038  -18.9496  -16.9048 N   0  0  0  0  0  0  0  0  0  0  0  0
   21.7440  -18.2161  -17.6120 C   0  0  1  0  0  0  0  0  0  0  0  0
   21.8241  -18.1298  -19.0816 C   0  0  0  0  0  0  0  0  0  0  0  0
   23.1708  -18.4464  -19.6263 C   0  0  0  0  0  0  0  0  0  0  0  0
   24.2033  -17.7786  -19.3841 O   0  0  0  0  0  0  0  0  0  0  0  0
   20.3876  -18.7141  -17.2652 C   0  0  0  0  0  0  0  0  0  0  0  0
   20.0585  -19.9265  -17.3194 O   0  0  0  0  0  0  0  0  0  0  0  0
   23.2941  -19.5511  -20.4556 O   0  0  0  0  0  0  0  0  0  0  0  0
   19.4129  -17.7720  -16.8512 N   0  0  0  0  0  0  0  0  0  0  0  0
   18.7048  -17.9657  -15.6007 C   0  0  1  0  0  0  0  0  0  0  0  0
   19.7163  -18.0219  -14.4728 C   0  0  0  0  0  0  0  0  0  0  0  0
   19.0657  -18.2209  -13.1673 C   0  0  0  0  0  0  0  0  0  0  0  0
   17.7109  -18.3889  -12.9598 C   0  0  0  0  0  0  0  0  0  0  0  0
   17.4874  -18.5429  -11.6371 N   0  0  0  0  0  0  0  0  0  0  0  0
   18.6727  -18.4754  -11.0083 C   0  0  0  0  0  0  0  0  0  0  0  0
   19.6343  -18.2782  -11.9509 N   0  0  0  0  0  0  0  0  0  0  0  0
   17.7364  -16.8612  -15.3750 C   0  0  0  0  0  0  0  0  0  0  0  0
   18.1056  -15.6635  -15.4867 O   0  0  0  0  0  0  0  0  0  0  0  0
   16.4305  -17.1632  -15.0424 O   0  0  0  0  0  0  0  0  0  0  0  0
  2  3  2  0
  2  1  1  0
  4  2  1  0
  5  4  1  0
  5  6  1  0
  6  8  1  0
  6  7  1  6
  8  9  2  0
 10 11  1  0
 10  8  1  0
 11 12  1  6
 13 12  1  0
 14 13  2  0
 15 18  1  0
 15 11  1  0
 16 15  2  0
 17 13  1  0
 19 18  1  0
 19 20  1  1
 21 20  1  0
 22 21  2  0
 23 22  1  0
 24 23  1  0
 24 25  2  0
 25 21  1  0
 26 28  1  0
 26 19  1  0
 27 26  2  0
M  END
$$$$
