QDH.pdb
     RDKit          3D

 28 28  0  0  1  0  0  0  0  0999 V2000
   22.3773  -20.4313  -13.5151 N   0  0  0  0  0  0  0  0  0  0  0  0
   21.0626  -19.9358  -13.6955 C   0  0  0  0  0  0  0  0  0  0  0  0
   20.1276  -20.3587  -12.9857 O   0  0  0  0  0  0  0  0  0  0  0  0
   20.7981  -18.9139  -14.7288 C   0  0  0  0  0  0  0  0  0  0  0  0
   22.0605  -18.6455  -15.4967 C   0  0  0  0  0  0  0  0  0  0  0  0
   21.7573  -18.2703  -16.9359 C   0  0  2  0  0  0  0  0  0  0  0  0
   22.3183  -19.1915  -17.8725 N   0  0  0  0  0  0  0  0  0  0  0  0
   22.2448  -16.8766  -17.1417 C   0  0  0  0  0  0  0  0  0  0  0  0
   22.1680  -16.0135  -16.2541 O   0  0  0  0  0  0  0  0  0  0  0  0
   22.8295  -16.4353  -18.3599 N   0  0  0  0  0  0  0  0  0  0  0  0
   23.2359  -15.1247  -18.6368 C   0  0  1  0  0  0  0  0  0  0  0  0
   24.1436  -14.8626  -19.7686 C   0  0  0  0  0  0  0  0  0  0  0  0
   24.7339  -13.4981  -19.7576 C   0  0  0  0  0  0  0  0  0  0  0  0
   24.0670  -12.4414  -19.8540 O   0  0  0  0  0  0  0  0  0  0  0  0
   22.0381  -14.2632  -18.8137 C   0  0  0  0  0  0  0  0  0  0  0  0
   20.9436  -14.6815  -19.2700 O   0  0  0  0  0  0  0  0  0  0  0  0
   26.1106  -13.3857  -19.6328 O   0  0  0  0  0  0  0  0  0  0  0  0
   22.1347  -12.8972  -18.4485 N   0  0  0  0  0  0  0  0  0  0  0  0
   20.9407  -12.0762  -18.3955 C   0  0  1  0  0  0  0  0  0  0  0  0
   20.0024  -12.6494  -17.3517 C   0  0  0  0  0  0  0  0  0  0  0  0
   18.7953  -11.8221  -17.1913 C   0  0  0  0  0  0  0  0  0  0  0  0
   18.1428  -11.1451  -18.2026 C   0  0  0  0  0  0  0  0  0  0  0  0
   17.0801  -10.4968  -17.6792 N   0  0  0  0  0  0  0  0  0  0  0  0
   17.0505  -10.7516  -16.3605 C   0  0  0  0  0  0  0  0  0  0  0  0
   18.1032  -11.5634  -16.0688 N   0  0  0  0  0  0  0  0  0  0  0  0
   21.2904  -10.6705  -18.0634 C   0  0  0  0  0  0  0  0  0  0  0  0
   22.4839  -10.3566  -17.8181 O   0  0  0  0  0  0  0  0  0  0  0  0
   20.2936   -9.7153  -18.0271 O   0  0  0  0  0  0  0  0  0  0  0  0
  2  3  2  0
  2  1  1  0
  4  2  1  0
  5  4  1  0
  5  6  1  0
  6  8  1  0
  6  7  1  6
  8  9  2  0
 10 11  1  0
 10  8  1  0
 11 12  1  6
 13 12  1  0
 14 13  2  0
 15 18  1  0
 15 11  1  0
 16 15  2  0
 17 13  1  0
 19 18  1  0
 19 20  1  1
 21 20  1  0
 22 21  2  0
 23 22  1  0
 24 23  1  0
 24 25  2  0
 25 21  1  0
 26 28  1  0
 26 19  1  0
 27 26  2  0
M  END
$$$$
