PGV.pdb
     RDKit          3D

 19 19  0  0  1  0  0  0  0  0999 V2000
   25.5124  -19.7853  -12.9249 N   0  0  0  0  0  0  0  0  0  0  0  0
   25.9209  -18.8794  -13.9721 C   0  0  0  0  0  0  0  0  0  0  0  0
   27.4154  -18.9974  -14.1109 C   0  0  0  0  0  0  0  0  0  0  0  0
   27.8037  -19.6175  -12.7817 C   0  0  0  0  0  0  0  0  0  0  0  0
   26.6447  -20.5772  -12.5569 C   0  0  1  0  0  0  0  0  0  0  0  0
   26.5856  -21.0119  -11.1280 C   0  0  0  0  0  0  0  0  0  0  0  0
   27.5259  -21.7064  -10.6574 O   0  0  0  0  0  0  0  0  0  0  0  0
   25.5129  -20.6744  -10.2783 N   0  0  0  0  0  0  0  0  0  0  0  0
   25.5352  -21.0394   -8.8863 C   0  0  0  0  0  0  0  0  0  0  0  0
   26.3228  -20.1070   -8.0515 C   0  0  0  0  0  0  0  0  0  0  0  0
   26.4492  -18.9049   -8.4769 O   0  0  0  0  0  0  0  0  0  0  0  0
   28.2417  -18.5178   -3.8491 C   0  0  0  0  0  0  0  0  0  0  0  0
   27.6579  -19.6731   -4.5965 C   0  0  2  0  0  0  0  0  0  0  0  0
   28.4093  -20.9656   -4.3576 C   0  0  0  0  0  0  0  0  0  0  0  0
   27.5915  -19.3451   -6.0841 C   0  0  2  0  0  0  0  0  0  0  0  0
   26.9530  -20.4194   -6.8272 N   0  0  0  0  0  0  0  0  0  0  0  0
   28.9948  -19.2738   -6.5606 C   0  0  0  0  0  0  0  0  0  0  0  0
   29.4688  -20.2540   -7.1850 O   0  0  0  0  0  0  0  0  0  0  0  0
   29.8198  -18.1803   -6.3555 O   0  0  0  0  0  0  0  0  0  0  0  0
  2  1  1  0
  3  4  1  0
  3  2  1  0
  4  5  1  0
  5  6  1  1
  5  1  1  0
  6  8  1  0
  7  6  2  0
  8  9  1  0
  9 10  1  0
 10 11  2  0
 10 16  1  0
 13 12  1  1
 13 15  1  0
 14 13  1  0
 15 17  1  0
 15 16  1  6
 17 18  2  0
 17 19  1  0
M  END
$$$$
