PGV.pdb
     RDKit          3D

 19 19  0  0  1  0  0  0  0  0999 V2000
   25.8990  -23.7601  -15.1754 N   0  0  0  0  0  0  0  0  0  0  0  0
   24.8387  -24.6026  -15.6757 C   0  0  0  0  0  0  0  0  0  0  0  0
   23.5804  -23.7762  -15.6974 C   0  0  0  0  0  0  0  0  0  0  0  0
   23.9287  -22.6531  -14.7387 C   0  0  0  0  0  0  0  0  0  0  0  0
   25.3950  -22.4258  -15.0745 C   0  0  1  0  0  0  0  0  0  0  0  0
   26.0730  -21.6496  -13.9919 C   0  0  0  0  0  0  0  0  0  0  0  0
   27.3290  -21.6918  -13.8994 O   0  0  0  0  0  0  0  0  0  0  0  0
   25.3595  -20.8660  -13.0625 N   0  0  0  0  0  0  0  0  0  0  0  0
   26.0547  -20.0377  -12.1129 C   0  0  0  0  0  0  0  0  0  0  0  0
   26.0971  -20.6183  -10.7536 C   0  0  0  0  0  0  0  0  0  0  0  0
   25.5893  -21.7846  -10.5994 O   0  0  0  0  0  0  0  0  0  0  0  0
   26.8791  -18.6261   -7.0605 C   0  0  0  0  0  0  0  0  0  0  0  0
   27.3980  -20.0123   -7.2688 C   0  0  2  0  0  0  0  0  0  0  0  0
   28.8725  -20.0408   -7.6113 C   0  0  0  0  0  0  0  0  0  0  0  0
   26.5731  -20.7169   -8.3402 C   0  0  2  0  0  0  0  0  0  0  0  0
   26.6438  -20.0044   -9.6056 N   0  0  0  0  0  0  0  0  0  0  0  0
   25.1601  -20.6502   -7.8927 C   0  0  0  0  0  0  0  0  0  0  0  0
   24.3872  -19.8396   -8.4592 O   0  0  0  0  0  0  0  0  0  0  0  0
   24.6390  -21.4360   -6.8782 O   0  0  0  0  0  0  0  0  0  0  0  0
  2  1  1  0
  3  4  1  0
  3  2  1  0
  4  5  1  0
  5  6  1  1
  5  1  1  0
  6  8  1  0
  7  6  2  0
  8  9  1  0
  9 10  1  0
 10 11  2  0
 10 16  1  0
 13 12  1  6
 13 15  1  0
 14 13  1  0
 15 17  1  0
 15 16  1  6
 17 18  2  0
 17 19  1  0
M  END
$$$$
