PGV.pdb
     RDKit          3D

 19 19  0  0  1  0  0  0  0  0999 V2000
   18.3850  -11.4810  -19.1635 N   0  0  0  0  0  0  0  0  0  0  0  0
   17.9601  -12.3749  -20.2145 C   0  0  0  0  0  0  0  0  0  0  0  0
   19.2011  -12.9305  -20.8610 C   0  0  0  0  0  0  0  0  0  0  0  0
   20.2522  -11.9227  -20.4351 C   0  0  0  0  0  0  0  0  0  0  0  0
   19.8012  -11.6116  -19.0158 C   0  0  1  0  0  0  0  0  0  0  0  0
   20.4333  -10.3499  -18.5230 C   0  0  0  0  0  0  0  0  0  0  0  0
   21.6604  -10.3484  -18.2363 O   0  0  0  0  0  0  0  0  0  0  0  0
   19.7077   -9.1520  -18.3645 N   0  0  0  0  0  0  0  0  0  0  0  0
   20.3814   -7.9221  -18.0409 C   0  0  0  0  0  0  0  0  0  0  0  0
   20.5058   -7.6906  -16.5857 C   0  0  0  0  0  0  0  0  0  0  0  0
   19.4191   -7.5950  -15.9135 O   0  0  0  0  0  0  0  0  0  0  0  0
   23.8327   -8.6945  -14.3384 C   0  0  0  0  0  0  0  0  0  0  0  0
   22.4343   -8.6953  -13.8104 C   0  0  2  0  0  0  0  0  0  0  0  0
   21.7200  -10.0095  -14.0449 C   0  0  0  0  0  0  0  0  0  0  0  0
   21.6539   -7.5326  -14.4137 C   0  0  2  0  0  0  0  0  0  0  0  0
   21.7138   -7.5619  -15.8661 N   0  0  0  0  0  0  0  0  0  0  0  0
   22.3485   -6.2939  -13.9841 C   0  0  0  0  0  0  0  0  0  0  0  0
   22.3186   -5.9776  -12.7698 O   0  0  0  0  0  0  0  0  0  0  0  0
   23.0338   -5.4588  -14.8509 O   0  0  0  0  0  0  0  0  0  0  0  0
  2  1  1  0
  3  4  1  0
  3  2  1  0
  4  5  1  0
  5  6  1  6
  5  1  1  0
  6  8  1  0
  7  6  2  0
  8  9  1  0
  9 10  1  0
 10 11  2  0
 10 16  1  0
 13 12  1  6
 13 15  1  0
 14 13  1  0
 15 17  1  0
 15 16  1  6
 17 18  2  0
 17 19  1  0
M  END
$$$$
