PGV.pdb
     RDKit          3D

 19 19  0  0  1  0  0  0  0  0999 V2000
   22.5714  -20.0423  -17.9261 N   0  0  0  0  0  0  0  0  0  0  0  0
   22.3944  -19.7083  -19.3195 C   0  0  0  0  0  0  0  0  0  0  0  0
   23.1886  -18.4573  -19.5861 C   0  0  0  0  0  0  0  0  0  0  0  0
   23.3699  -17.8992  -18.1869 C   0  0  0  0  0  0  0  0  0  0  0  0
   23.5734  -19.1769  -17.3864 C   0  0  1  0  0  0  0  0  0  0  0  0
   23.3721  -18.9259  -15.9267 C   0  0  0  0  0  0  0  0  0  0  0  0
   24.1724  -18.1670  -15.3173 O   0  0  0  0  0  0  0  0  0  0  0  0
   22.3152  -19.5078  -15.1978 N   0  0  0  0  0  0  0  0  0  0  0  0
   22.0489  -19.1055  -13.8419 C   0  0  0  0  0  0  0  0  0  0  0  0
   22.4409  -20.1237  -12.8438 C   0  0  0  0  0  0  0  0  0  0  0  0
   21.9305  -21.2924  -12.9687 O   0  0  0  0  0  0  0  0  0  0  0  0
   24.4133  -19.5243   -9.1010 C   0  0  0  0  0  0  0  0  0  0  0  0
   24.7346  -20.7335   -9.9189 C   0  0  2  0  0  0  0  0  0  0  0  0
   26.0354  -20.5965  -10.6814 C   0  0  0  0  0  0  0  0  0  0  0  0
   23.5768  -21.0416  -10.8619 C   0  0  2  0  0  0  0  0  0  0  0  0
   23.3255  -19.9270  -11.7610 N   0  0  0  0  0  0  0  0  0  0  0  0
   22.3694  -21.1826  -10.0111 C   0  0  0  0  0  0  0  0  0  0  0  0
   21.5624  -20.2234   -9.9481 O   0  0  0  0  0  0  0  0  0  0  0  0
   22.0777  -22.3196   -9.2761 O   0  0  0  0  0  0  0  0  0  0  0  0
  2  1  1  0
  3  4  1  0
  3  2  1  0
  4  5  1  0
  5  6  1  1
  5  1  1  0
  6  8  1  0
  7  6  2  0
  8  9  1  0
  9 10  1  0
 10 11  2  0
 10 16  1  0
 13 12  1  6
 13 15  1  0
 14 13  1  0
 15 17  1  0
 15 16  1  6
 17 18  2  0
 17 19  1  0
M  END
$$$$
