PGV.pdb
     RDKit          3D

 19 19  0  0  1  0  0  0  0  0999 V2000
   17.8549  -14.6774  -19.2651 N   0  0  0  0  0  0  0  0  0  0  0  0
   16.7220  -15.5126  -18.9438 C   0  0  0  0  0  0  0  0  0  0  0  0
   15.7081  -14.6456  -18.2459 C   0  0  0  0  0  0  0  0  0  0  0  0
   16.5598  -13.4760  -17.7894 C   0  0  0  0  0  0  0  0  0  0  0  0
   17.5043  -13.3225  -18.9722 C   0  0  1  0  0  0  0  0  0  0  0  0
   18.6961  -12.5025  -18.5963 C   0  0  0  0  0  0  0  0  0  0  0  0
   19.7551  -13.0847  -18.2394 O   0  0  0  0  0  0  0  0  0  0  0  0
   18.6842  -11.0933  -18.6248 N   0  0  0  0  0  0  0  0  0  0  0  0
   19.8817  -10.3428  -18.3525 C   0  0  0  0  0  0  0  0  0  0  0  0
   20.0392   -9.9940  -16.9242 C   0  0  0  0  0  0  0  0  0  0  0  0
   18.9975  -10.0788  -16.1828 O   0  0  0  0  0  0  0  0  0  0  0  0
   22.5231   -9.7162  -12.7711 C   0  0  0  0  0  0  0  0  0  0  0  0
   22.4812  -10.0227  -14.2335 C   0  0  2  0  0  0  0  0  0  0  0  0
   23.7323   -9.5787  -14.9614 C   0  0  0  0  0  0  0  0  0  0  0  0
   21.2357   -9.4014  -14.8558 C   0  0  2  0  0  0  0  0  0  0  0  0
   21.2333   -9.5722  -16.2997 N   0  0  0  0  0  0  0  0  0  0  0  0
   21.3227   -7.9424  -14.6002 C   0  0  0  0  0  0  0  0  0  0  0  0
   21.7584   -7.1969  -15.5111 O   0  0  0  0  0  0  0  0  0  0  0  0
   20.9485   -7.3494  -13.4058 O   0  0  0  0  0  0  0  0  0  0  0  0
  2  1  1  0
  3  4  1  0
  3  2  1  0
  4  5  1  0
  5  6  1  1
  5  1  1  0
  6  8  1  0
  7  6  2  0
  8  9  1  0
  9 10  1  0
 10 11  2  0
 10 16  1  0
 13 12  1  1
 13 15  1  0
 14 13  1  0
 15 17  1  0
 15 16  1  6
 17 18  2  0
 17 19  1  0
M  END
$$$$
