PGV.pdb
     RDKit          3D

 19 19  0  0  1  0  0  0  0  0999 V2000
   18.7932  -11.7720  -18.1749 N   0  0  0  0  0  0  0  0  0  0  0  0
   19.6298  -12.4763  -19.1173 C   0  0  0  0  0  0  0  0  0  0  0  0
   20.7636  -13.0906  -18.3402 C   0  0  0  0  0  0  0  0  0  0  0  0
   20.7460  -12.2712  -17.0634 C   0  0  0  0  0  0  0  0  0  0  0  0
   19.2504  -12.0837  -16.8565 C   0  0  1  0  0  0  0  0  0  0  0  0
   18.9835  -10.9735  -15.8921 C   0  0  0  0  0  0  0  0  0  0  0  0
   17.9322  -11.0017  -15.1979 O   0  0  0  0  0  0  0  0  0  0  0  0
   19.8663   -9.8873  -15.7257 N   0  0  0  0  0  0  0  0  0  0  0  0
   19.6421   -8.9098  -14.6935 C   0  0  0  0  0  0  0  0  0  0  0  0
   20.6398   -7.8183  -14.6973 C   0  0  0  0  0  0  0  0  0  0  0  0
   21.8351   -8.1194  -15.0476 O   0  0  0  0  0  0  0  0  0  0  0  0
   19.9419   -3.6993  -13.8092 C   0  0  0  0  0  0  0  0  0  0  0  0
   20.8592   -4.1265  -14.9094 C   0  0  2  0  0  0  0  0  0  0  0  0
   20.1866   -4.1286  -16.2658 C   0  0  0  0  0  0  0  0  0  0  0  0
   21.4484   -5.4956  -14.5880 C   0  0  2  0  0  0  0  0  0  0  0  0
   20.3983   -6.4720  -14.3472 N   0  0  0  0  0  0  0  0  0  0  0  0
   22.1893   -5.3439  -13.3115 C   0  0  0  0  0  0  0  0  0  0  0  0
   21.6574   -5.7610  -12.2539 O   0  0  0  0  0  0  0  0  0  0  0  0
   23.4438   -4.7645  -13.2169 O   0  0  0  0  0  0  0  0  0  0  0  0
  2  1  1  0
  3  4  1  0
  3  2  1  0
  4  5  1  0
  5  6  1  1
  5  1  1  0
  6  8  1  0
  7  6  2  0
  8  9  1  0
  9 10  1  0
 10 11  2  0
 10 16  1  0
 13 12  1  1
 13 15  1  0
 14 13  1  0
 15 17  1  0
 15 16  1  1
 17 18  2  0
 17 19  1  0
M  END
$$$$
