PGV.pdb
     RDKit          3D

 19 19  0  0  1  0  0  0  0  0999 V2000
   18.7860  -10.7419  -15.3668 N   0  0  0  0  0  0  0  0  0  0  0  0
   17.8077  -11.3257  -16.2537 C   0  0  0  0  0  0  0  0  0  0  0  0
   18.4730  -11.5219  -17.5900 C   0  0  0  0  0  0  0  0  0  0  0  0
   19.6540  -10.5745  -17.4921 C   0  0  0  0  0  0  0  0  0  0  0  0
   20.0506  -10.7509  -16.0340 C   0  0  1  0  0  0  0  0  0  0  0  0
   20.9309   -9.6296  -15.5844 C   0  0  0  0  0  0  0  0  0  0  0  0
   22.0559   -9.4744  -16.1305 O   0  0  0  0  0  0  0  0  0  0  0  0
   20.5515   -8.7314  -14.5666 N   0  0  0  0  0  0  0  0  0  0  0  0
   21.3875   -7.6104  -14.2267 C   0  0  0  0  0  0  0  0  0  0  0  0
   20.8975   -6.3289  -14.7782 C   0  0  0  0  0  0  0  0  0  0  0  0
   21.5520   -5.2711  -14.4707 O   0  0  0  0  0  0  0  0  0  0  0  0
   17.5869   -5.7210  -17.4499 C   0  0  0  0  0  0  0  0  0  0  0  0
   18.8839   -4.9893  -17.5794 C   0  0  2  0  0  0  0  0  0  0  0  0
   19.8252   -5.6364  -18.5731 C   0  0  0  0  0  0  0  0  0  0  0  0
   19.5405   -4.8558  -16.2098 C   0  0  2  0  0  0  0  0  0  0  0  0
   19.7705   -6.1612  -15.6122 N   0  0  0  0  0  0  0  0  0  0  0  0
   18.5609   -4.1571  -15.3417 C   0  0  0  0  0  0  0  0  0  0  0  0
   17.8311   -4.8428  -14.5849 O   0  0  0  0  0  0  0  0  0  0  0  0
   18.4026   -2.7814  -15.3167 O   0  0  0  0  0  0  0  0  0  0  0  0
  2  1  1  0
  3  4  1  0
  3  2  1  0
  4  5  1  0
  5  6  1  1
  5  1  1  0
  6  8  1  0
  7  6  2  0
  8  9  1  0
  9 10  1  0
 10 11  2  0
 10 16  1  0
 13 12  1  1
 13 15  1  0
 14 13  1  0
 15 17  1  0
 15 16  1  1
 17 18  2  0
 17 19  1  0
M  END
$$$$
