PGV.pdb
     RDKit          3D

 19 19  0  0  1  0  0  0  0  0999 V2000
   26.2043  -20.8470  -14.7925 N   0  0  0  0  0  0  0  0  0  0  0  0
   24.8529  -20.7855  -15.2968 C   0  0  0  0  0  0  0  0  0  0  0  0
   24.2292  -19.5254  -14.7584 C   0  0  0  0  0  0  0  0  0  0  0  0
   25.1328  -19.2088  -13.5815 C   0  0  0  0  0  0  0  0  0  0  0  0
   26.4908  -19.6076  -14.1395 C   0  0  1  0  0  0  0  0  0  0  0  0
   27.4894  -19.7701  -13.0393 C   0  0  0  0  0  0  0  0  0  0  0  0
   27.7806  -18.7760  -12.3217 O   0  0  0  0  0  0  0  0  0  0  0  0
   28.1240  -20.9993  -12.7690 N   0  0  0  0  0  0  0  0  0  0  0  0
   29.0669  -21.1175  -11.6882 C   0  0  0  0  0  0  0  0  0  0  0  0
   28.4230  -21.3119  -10.3712 C   0  0  0  0  0  0  0  0  0  0  0  0
   28.9173  -22.2128   -9.6056 O   0  0  0  0  0  0  0  0  0  0  0  0
   26.6144  -18.7516   -7.7192 C   0  0  0  0  0  0  0  0  0  0  0  0
   27.0982  -20.1445   -7.4742 C   0  0  2  0  0  0  0  0  0  0  0  0
   28.5904  -20.2116   -7.2264 C   0  0  0  0  0  0  0  0  0  0  0  0
   26.6953  -21.0433   -8.6381 C   0  0  2  0  0  0  0  0  0  0  0  0
   27.3094  -20.5974   -9.8783 N   0  0  0  0  0  0  0  0  0  0  0  0
   25.2302  -20.8801   -8.8061 C   0  0  0  0  0  0  0  0  0  0  0  0
   24.4694  -21.3171   -7.9086 O   0  0  0  0  0  0  0  0  0  0  0  0
   24.6474  -20.2688   -9.9038 O   0  0  0  0  0  0  0  0  0  0  0  0
  2  1  1  0
  3  4  1  0
  3  2  1  0
  4  5  1  0
  5  6  1  1
  5  1  1  0
  6  8  1  0
  7  6  2  0
  8  9  1  0
  9 10  1  0
 10 11  2  0
 10 16  1  0
 13 12  1  6
 13 15  1  0
 14 13  1  0
 15 17  1  0
 15 16  1  6
 17 18  2  0
 17 19  1  0
M  END
$$$$
