PGV.pdb
     RDKit          3D

 19 19  0  0  1  0  0  0  0  0999 V2000
   19.8967  -10.6141  -17.7284 N   0  0  0  0  0  0  0  0  0  0  0  0
   20.0122  -11.9405  -17.1703 C   0  0  0  0  0  0  0  0  0  0  0  0
   18.8489  -12.1375  -16.2350 C   0  0  0  0  0  0  0  0  0  0  0  0
   18.4217  -10.7072  -15.9637 C   0  0  0  0  0  0  0  0  0  0  0  0
   18.6339  -10.0740  -17.3307 C   0  0  1  0  0  0  0  0  0  0  0  0
   18.6685   -8.5835  -17.2253 C   0  0  0  0  0  0  0  0  0  0  0  0
   17.6244   -7.9671  -16.8819 O   0  0  0  0  0  0  0  0  0  0  0  0
   19.8303   -7.8326  -17.4962 N   0  0  0  0  0  0  0  0  0  0  0  0
   19.8095   -6.3954  -17.4248 C   0  0  0  0  0  0  0  0  0  0  0  0
   19.9734   -5.8773  -16.0495 C   0  0  0  0  0  0  0  0  0  0  0  0
   19.3074   -4.8284  -15.7361 O   0  0  0  0  0  0  0  0  0  0  0  0
   21.7997   -7.9437  -12.8840 C   0  0  0  0  0  0  0  0  0  0  0  0
   20.6764   -6.9838  -12.6581 C   0  0  2  0  0  0  0  0  0  0  0  0
   19.3217   -7.6598  -12.6439 C   0  0  0  0  0  0  0  0  0  0  0  0
   20.7250   -5.8765  -13.7052 C   0  0  2  0  0  0  0  0  0  0  0  0
   20.8000   -6.4305  -15.0473 N   0  0  0  0  0  0  0  0  0  0  0  0
   21.9926   -5.1397  -13.4775 C   0  0  0  0  0  0  0  0  0  0  0  0
   22.9275   -5.2816  -14.3029 O   0  0  0  0  0  0  0  0  0  0  0  0
   22.2072   -4.2976  -12.3991 O   0  0  0  0  0  0  0  0  0  0  0  0
  2  1  1  0
  3  4  1  0
  3  2  1  0
  4  5  1  0
  5  6  1  1
  5  1  1  0
  6  8  1  0
  7  6  2  0
  8  9  1  0
  9 10  1  0
 10 11  2  0
 10 16  1  0
 13 12  1  6
 13 15  1  0
 14 13  1  0
 15 17  1  0
 15 16  1  6
 17 18  2  0
 17 19  1  0
M  END
$$$$
