PGV.pdb
     RDKit          3D

 19 19  0  0  1  0  0  0  0  0999 V2000
   23.0929  -20.1945  -14.2744 N   0  0  0  0  0  0  0  0  0  0  0  0
   22.3635  -19.7840  -15.4507 C   0  0  0  0  0  0  0  0  0  0  0  0
   22.8324  -20.6449  -16.5934 C   0  0  0  0  0  0  0  0  0  0  0  0
   24.1599  -21.1608  -16.0705 C   0  0  0  0  0  0  0  0  0  0  0  0
   23.8323  -21.3741  -14.6002 C   0  0  1  0  0  0  0  0  0  0  0  0
   25.0827  -21.4949  -13.7903 C   0  0  0  0  0  0  0  0  0  0  0  0
   25.7691  -22.5485  -13.8726 O   0  0  0  0  0  0  0  0  0  0  0  0
   25.5296  -20.4706  -12.9313 N   0  0  0  0  0  0  0  0  0  0  0  0
   26.7831  -20.5907  -12.2345 C   0  0  0  0  0  0  0  0  0  0  0  0
   26.6253  -20.9385  -10.8060 C   0  0  0  0  0  0  0  0  0  0  0  0
   25.8730  -21.9376  -10.5267 O   0  0  0  0  0  0  0  0  0  0  0  0
   27.5701  -18.6918   -7.2244 C   0  0  0  0  0  0  0  0  0  0  0  0
   27.9545  -20.1282   -7.3769 C   0  0  2  0  0  0  0  0  0  0  0  0
   29.4062  -20.3081   -7.7673 C   0  0  0  0  0  0  0  0  0  0  0  0
   27.0291  -20.8065   -8.3811 C   0  0  2  0  0  0  0  0  0  0  0  0
   27.2258  -20.2689   -9.7176 N   0  0  0  0  0  0  0  0  0  0  0  0
   25.6448  -20.4540   -7.9800 C   0  0  0  0  0  0  0  0  0  0  0  0
   25.0505  -19.5431   -8.6064 O   0  0  0  0  0  0  0  0  0  0  0  0
   24.9639  -21.0757   -6.9465 O   0  0  0  0  0  0  0  0  0  0  0  0
  2  1  1  0
  3  4  1  0
  3  2  1  0
  4  5  1  0
  5  6  1  1
  5  1  1  0
  6  8  1  0
  7  6  2  0
  8  9  1  0
  9 10  1  0
 10 11  2  0
 10 16  1  0
 13 12  1  6
 13 15  1  0
 14 13  1  0
 15 17  1  0
 15 16  1  6
 17 18  2  0
 17 19  1  0
M  END
$$$$
