PGV.pdb
     RDKit          3D

 19 19  0  0  1  0  0  0  0  0999 V2000
   25.3449  -18.2655  -15.1840 N   0  0  0  0  0  0  0  0  0  0  0  0
   24.8970  -16.9256  -14.8866 C   0  0  0  0  0  0  0  0  0  0  0  0
   26.0835  -16.0112  -15.0378 C   0  0  0  0  0  0  0  0  0  0  0  0
   27.2423  -16.9856  -14.9392 C   0  0  0  0  0  0  0  0  0  0  0  0
   26.6806  -18.1851  -15.6878 C   0  0  1  0  0  0  0  0  0  0  0  0
   27.4706  -19.4171  -15.3843 C   0  0  0  0  0  0  0  0  0  0  0  0
   28.7060  -19.4318  -15.6320 O   0  0  0  0  0  0  0  0  0  0  0  0
   26.8859  -20.5727  -14.8278 N   0  0  0  0  0  0  0  0  0  0  0  0
   27.6715  -21.4887  -14.0435 C   0  0  0  0  0  0  0  0  0  0  0  0
   27.2552  -21.5482  -12.6258 C   0  0  0  0  0  0  0  0  0  0  0  0
   27.7967  -22.4503  -11.8944 O   0  0  0  0  0  0  0  0  0  0  0  0
   25.5436  -20.7907   -8.3200 C   0  0  0  0  0  0  0  0  0  0  0  0
   26.1897  -20.3131   -9.5805 C   0  0  2  0  0  0  0  0  0  0  0  0
   25.9678  -18.8364   -9.8298 C   0  0  0  0  0  0  0  0  0  0  0  0
   25.7007  -21.1472  -10.7595 C   0  0  2  0  0  0  0  0  0  0  0  0
   26.3118  -20.7031  -12.0018 N   0  0  0  0  0  0  0  0  0  0  0  0
   24.2456  -20.8849  -10.8835 C   0  0  0  0  0  0  0  0  0  0  0  0
   23.8388  -20.1954  -11.8501 O   0  0  0  0  0  0  0  0  0  0  0  0
   23.3016  -21.3599   -9.9882 O   0  0  0  0  0  0  0  0  0  0  0  0
  2  1  1  0
  3  4  1  0
  3  2  1  0
  4  5  1  0
  5  6  1  1
  5  1  1  0
  6  8  1  0
  7  6  2  0
  8  9  1  0
  9 10  1  0
 10 11  2  0
 10 16  1  0
 13 12  1  1
 13 15  1  0
 14 13  1  0
 15 17  1  0
 15 16  1  6
 17 18  2  0
 17 19  1  0
M  END
$$$$
