PGV.pdb
     RDKit          3D

 19 19  0  0  1  0  0  0  0  0999 V2000
   17.1926  -10.7510  -13.9244 N   0  0  0  0  0  0  0  0  0  0  0  0
   16.6351  -10.9193  -15.2454 C   0  0  0  0  0  0  0  0  0  0  0  0
   17.2443   -9.8629  -16.1283 C   0  0  0  0  0  0  0  0  0  0  0  0
   17.7463   -8.8569  -15.1095 C   0  0  0  0  0  0  0  0  0  0  0  0
   18.2392   -9.7801  -14.0051 C   0  0  1  0  0  0  0  0  0  0  0  0
   18.4097   -9.0300  -12.7236 C   0  0  0  0  0  0  0  0  0  0  0  0
   19.2426   -8.0859  -12.6700 O   0  0  0  0  0  0  0  0  0  0  0  0
   17.6712   -9.3375  -11.5630 N   0  0  0  0  0  0  0  0  0  0  0  0
   17.6979   -8.4614  -10.4216 C   0  0  0  0  0  0  0  0  0  0  0  0
   16.5484   -7.5324  -10.3724 C   0  0  0  0  0  0  0  0  0  0  0  0
   15.9370   -7.2994  -11.4742 O   0  0  0  0  0  0  0  0  0  0  0  0
   14.7575   -6.0018   -6.8658 C   0  0  0  0  0  0  0  0  0  0  0  0
   13.9596   -6.2879   -8.0970 C   0  0  2  0  0  0  0  0  0  0  0  0
   13.3258   -7.6628   -8.0783 C   0  0  0  0  0  0  0  0  0  0  0  0
   14.8335   -6.1044   -9.3329 C   0  0  2  0  0  0  0  0  0  0  0  0
   16.0621   -6.8740   -9.2220 N   0  0  0  0  0  0  0  0  0  0  0  0
   15.2280   -4.6744   -9.3587 C   0  0  0  0  0  0  0  0  0  0  0  0
   16.2983   -4.3353   -8.7976 O   0  0  0  0  0  0  0  0  0  0  0  0
   14.4788   -3.6830   -9.9704 O   0  0  0  0  0  0  0  0  0  0  0  0
  2  1  1  0
  3  4  1  0
  3  2  1  0
  4  5  1  0
  5  6  1  1
  5  1  1  0
  6  8  1  0
  7  6  2  0
  8  9  1  0
  9 10  1  0
 10 11  2  0
 10 16  1  0
 13 12  1  1
 13 15  1  0
 14 13  1  0
 15 17  1  0
 15 16  1  1
 17 18  2  0
 17 19  1  0
M  END
$$$$
