PGV.pdb
     RDKit          3D

 19 19  0  0  1  0  0  0  0  0999 V2000
   25.9073  -22.7639  -13.7796 N   0  0  0  0  0  0  0  0  0  0  0  0
   24.8441  -23.6293  -14.2322 C   0  0  0  0  0  0  0  0  0  0  0  0
   23.5429  -22.9212  -13.9633 C   0  0  0  0  0  0  0  0  0  0  0  0
   23.9548  -21.8975  -12.9219 C   0  0  0  0  0  0  0  0  0  0  0  0
   25.3333  -21.5019  -13.4297 C   0  0  1  0  0  0  0  0  0  0  0  0
   26.1131  -20.8072  -12.3604 C   0  0  0  0  0  0  0  0  0  0  0  0
   25.6936  -19.7080  -11.9093 O   0  0  0  0  0  0  0  0  0  0  0  0
   27.3083  -21.3352  -11.8315 N   0  0  0  0  0  0  0  0  0  0  0  0
   28.0741  -20.5942  -10.8642 C   0  0  0  0  0  0  0  0  0  0  0  0
   27.6347  -20.8255   -9.4714 C   0  0  0  0  0  0  0  0  0  0  0  0
   26.8784  -21.8375   -9.2569 O   0  0  0  0  0  0  0  0  0  0  0  0
   29.5703  -19.5262   -6.0828 C   0  0  0  0  0  0  0  0  0  0  0  0
   28.0828  -19.5707   -5.9436 C   0  0  2  0  0  0  0  0  0  0  0  0
   27.6359  -20.0413   -4.5757 C   0  0  0  0  0  0  0  0  0  0  0  0
   27.4870  -20.4419   -7.0441 C   0  0  2  0  0  0  0  0  0  0  0  0
   27.9693  -20.0314   -8.3528 N   0  0  0  0  0  0  0  0  0  0  0  0
   26.0247  -20.1913   -7.0316 C   0  0  0  0  0  0  0  0  0  0  0  0
   25.5808  -19.1890   -7.6430 O   0  0  0  0  0  0  0  0  0  0  0  0
   25.1127  -21.0046   -6.3797 O   0  0  0  0  0  0  0  0  0  0  0  0
  2  1  1  0
  3  4  1  0
  3  2  1  0
  4  5  1  0
  5  6  1  1
  5  1  1  0
  6  8  1  0
  7  6  2  0
  8  9  1  0
  9 10  1  0
 10 11  2  0
 10 16  1  0
 13 12  1  1
 13 15  1  0
 14 13  1  0
 15 17  1  0
 15 16  1  6
 17 18  2  0
 17 19  1  0
M  END
$$$$
