ASR.pdb
     RDKit          3D

 23 22  0  0  1  0  0  0  0  0999 V2000
   10.2851  -18.9535   14.2414 C   0  0  0  0  0  0  0  0  0  0  0  0
    9.7351  -20.3094   14.6298 C   0  0  2  0  0  0  0  0  0  0  0  0
    8.4514  -20.5266   13.9963 N   0  0  0  0  0  0  0  0  0  0  0  0
    9.5255  -20.2890   16.1160 C   0  0  0  0  0  0  0  0  0  0  0  0
    8.7569  -19.4592   16.6469 O   0  0  0  0  0  0  0  0  0  0  0  0
   10.6207  -22.6937   20.1996 O   0  0  0  0  0  0  0  0  0  0  0  0
   10.9303  -22.4519   18.8613 C   0  0  0  0  0  0  0  0  0  0  0  0
   10.0815  -21.2643   18.3854 C   0  0  2  0  0  0  0  0  0  0  0  0
   10.1929  -21.2110   16.9679 N   0  0  0  0  0  0  0  0  0  0  0  0
   10.4091  -20.0372   19.0927 C   0  0  0  0  0  0  0  0  0  0  0  0
   11.2947  -19.2699   18.6565 O   0  0  0  0  0  0  0  0  0  0  0  0
    7.3477  -13.2884   21.8174 N   0  0  0  0  0  0  0  0  0  0  0  0
    7.7562  -13.5506   20.4814 C   0  0  0  0  0  0  0  0  0  0  0  0
    7.5124  -12.7312   19.5016 N   0  0  0  0  0  0  0  0  0  0  0  0
    8.4579  -14.7327   20.1472 N   0  0  0  0  0  0  0  0  0  0  0  0
    9.4451  -15.2546   21.0647 C   0  0  0  0  0  0  0  0  0  0  0  0
    8.8706  -16.3805   21.9007 C   0  0  0  0  0  0  0  0  0  0  0  0
    8.6981  -17.6463   21.1417 C   0  0  0  0  0  0  0  0  0  0  0  0
   10.0011  -18.3723   20.9558 C   0  0  2  0  0  0  0  0  0  0  0  0
    9.7500  -19.6648   20.2861 N   0  0  0  0  0  0  0  0  0  0  0  0
   10.7882  -18.5659   22.1709 C   0  0  0  0  0  0  0  0  0  0  0  0
   11.4131  -17.6949   22.8136 O   0  0  0  0  0  0  0  0  0  0  0  0
   10.8713  -19.8687   22.7022 O   0  0  0  0  0  0  0  0  0  0  0  0
  2  1  1  6
  2  3  1  0
  4  2  1  0
  4  9  1  0
  5  4  2  0
  7  6  1  0
  8  9  1  0
  8  7  1  1
  8 10  1  0
 10 11  2  0
 10 20  1  0
 13 12  1  0
 13 14  2  0
 15 13  1  0
 16 17  1  0
 16 15  1  0
 18 17  1  0
 19 18  1  1
 20 19  1  0
 21 23  1  0
 21 19  1  0
 22 21  2  0
M  END
$$$$
