ASR.pdb
     RDKit          3D

 23 22  0  0  1  0  0  0  0  0999 V2000
    6.6129  -13.2390   19.0509 C   0  0  0  0  0  0  0  0  0  0  0  0
    7.9795  -13.3940   18.4183 C   0  0  2  0  0  0  0  0  0  0  0  0
    7.8470  -13.6144   16.9935 N   0  0  0  0  0  0  0  0  0  0  0  0
    8.6079  -14.6152   19.0240 C   0  0  0  0  0  0  0  0  0  0  0  0
    8.8087  -14.6933   20.2548 O   0  0  0  0  0  0  0  0  0  0  0  0
   10.9400  -17.1973   16.7572 O   0  0  0  0  0  0  0  0  0  0  0  0
    9.8929  -17.7921   17.4608 C   0  0  0  0  0  0  0  0  0  0  0  0
    9.5942  -16.9232   18.6908 C   0  0  2  0  0  0  0  0  0  0  0  0
    8.9951  -15.7217   18.2196 N   0  0  0  0  0  0  0  0  0  0  0  0
   10.7610  -16.7571   19.5419 C   0  0  0  0  0  0  0  0  0  0  0  0
   11.4428  -15.7105   19.4877 O   0  0  0  0  0  0  0  0  0  0  0  0
   12.2013  -16.0995   28.8597 N   0  0  0  0  0  0  0  0  0  0  0  0
   11.4057  -16.4196   27.7261 C   0  0  0  0  0  0  0  0  0  0  0  0
   10.1060  -16.4319   27.7645 N   0  0  0  0  0  0  0  0  0  0  0  0
   11.9971  -16.7450   26.4828 N   0  0  0  0  0  0  0  0  0  0  0  0
   11.1581  -16.8917   25.3153 C   0  0  0  0  0  0  0  0  0  0  0  0
   11.9924  -17.1011   24.0676 C   0  0  0  0  0  0  0  0  0  0  0  0
   11.1761  -17.3283   22.8469 C   0  0  0  0  0  0  0  0  0  0  0  0
   12.0294  -17.4613   21.6167 C   0  0  2  0  0  0  0  0  0  0  0  0
   11.1685  -17.7573   20.4534 N   0  0  0  0  0  0  0  0  0  0  0  0
   13.1179  -18.4306   21.7122 C   0  0  0  0  0  0  0  0  0  0  0  0
   13.1139  -19.6138   21.3092 O   0  0  0  0  0  0  0  0  0  0  0  0
   14.3191  -18.0156   22.3214 O   0  0  0  0  0  0  0  0  0  0  0  0
  2  1  1  1
  2  3  1  0
  4  2  1  0
  4  9  1  0
  5  4  2  0
  7  6  1  0
  8  9  1  0
  8  7  1  6
  8 10  1  0
 10 11  2  0
 10 20  1  0
 13 12  1  0
 13 14  2  0
 15 13  1  0
 16 17  1  0
 16 15  1  0
 18 17  1  0
 19 18  1  1
 20 19  1  0
 21 23  1  0
 21 19  1  0
 22 21  2  0
M  END
$$$$
