ASR.pdb
     RDKit          3D

 23 22  0  0  1  0  0  0  0  0999 V2000
    6.7705  -14.2538   19.8127 C   0  0  0  0  0  0  0  0  0  0  0  0
    7.2270  -12.9623   20.4573 C   0  0  2  0  0  0  0  0  0  0  0  0
    8.0683  -12.2191   19.5429 N   0  0  0  0  0  0  0  0  0  0  0  0
    8.0530  -13.3364   21.6535 C   0  0  0  0  0  0  0  0  0  0  0  0
    9.2794  -13.5507   21.5480 O   0  0  0  0  0  0  0  0  0  0  0  0
    6.0795  -14.3965   25.1799 O   0  0  0  0  0  0  0  0  0  0  0  0
    7.2095  -13.5890   25.3070 C   0  0  0  0  0  0  0  0  0  0  0  0
    8.1408  -13.8867   24.1233 C   0  0  2  0  0  0  0  0  0  0  0  0
    7.4692  -13.4592   22.9440 N   0  0  0  0  0  0  0  0  0  0  0  0
    8.6051  -15.2643   24.1232 C   0  0  0  0  0  0  0  0  0  0  0  0
    8.0487  -16.1219   23.4033 O   0  0  0  0  0  0  0  0  0  0  0  0
   14.2578  -19.8108   25.2369 N   0  0  0  0  0  0  0  0  0  0  0  0
   14.2451  -20.4930   23.9899 C   0  0  0  0  0  0  0  0  0  0  0  0
   14.7429  -21.6849   23.8395 N   0  0  0  0  0  0  0  0  0  0  0  0
   13.6825  -19.9006   22.8350 N   0  0  0  0  0  0  0  0  0  0  0  0
   13.1694  -18.5516   22.9084 C   0  0  0  0  0  0  0  0  0  0  0  0
   12.0002  -18.4649   23.8687 C   0  0  0  0  0  0  0  0  0  0  0  0
   11.3928  -17.1102   23.9332 C   0  0  0  0  0  0  0  0  0  0  0  0
   10.2203  -17.0641   24.8725 C   0  0  2  0  0  0  0  0  0  0  0  0
    9.6893  -15.6867   24.9253 N   0  0  0  0  0  0  0  0  0  0  0  0
   10.4770  -17.5693   26.2187 C   0  0  0  0  0  0  0  0  0  0  0  0
   10.7585  -18.7427   26.5449 O   0  0  0  0  0  0  0  0  0  0  0  0
   10.4069  -16.6565   27.2903 O   0  0  0  0  0  0  0  0  0  0  0  0
  2  1  1  6
  2  3  1  0
  4  2  1  0
  4  9  1  0
  5  4  2  0
  7  6  1  0
  8  9  1  0
  8  7  1  1
  8 10  1  0
 10 11  2  0
 10 20  1  0
 13 12  1  0
 13 14  2  0
 15 13  1  0
 16 17  1  0
 16 15  1  0
 18 17  1  0
 19 18  1  6
 20 19  1  0
 21 23  1  0
 21 19  1  0
 22 21  2  0
M  END
$$$$
