ASR.pdb
     RDKit          3D

 23 22  0  0  1  0  0  0  0  0999 V2000
    6.6270  -20.6894   16.6361 C   0  0  0  0  0  0  0  0  0  0  0  0
    7.9145  -19.9053   16.7758 C   0  0  2  0  0  0  0  0  0  0  0  0
    9.0021  -20.6150   16.1358 N   0  0  0  0  0  0  0  0  0  0  0  0
    8.2156  -19.8134   18.2434 C   0  0  0  0  0  0  0  0  0  0  0  0
    7.4971  -19.1340   19.0072 O   0  0  0  0  0  0  0  0  0  0  0  0
   11.8955  -21.2348   19.6609 O   0  0  0  0  0  0  0  0  0  0  0  0
   10.7532  -21.5621   20.3914 C   0  0  0  0  0  0  0  0  0  0  0  0
    9.7191  -20.4473   20.1795 C   0  0  2  0  0  0  0  0  0  0  0  0
    9.3261  -20.4947   18.8128 N   0  0  0  0  0  0  0  0  0  0  0  0
   10.1951  -19.1593   20.6569 C   0  0  0  0  0  0  0  0  0  0  0  0
   10.8821  -18.4221   19.9169 O   0  0  0  0  0  0  0  0  0  0  0  0
    6.8884  -11.9364   21.1816 N   0  0  0  0  0  0  0  0  0  0  0  0
    7.7504  -12.7309   20.3777 C   0  0  0  0  0  0  0  0  0  0  0  0
    7.8066  -12.6126   19.0840 N   0  0  0  0  0  0  0  0  0  0  0  0
    8.6016  -13.7030   20.9538 N   0  0  0  0  0  0  0  0  0  0  0  0
    8.4978  -13.9884   22.3667 C   0  0  0  0  0  0  0  0  0  0  0  0
    9.5045  -15.0410   22.7853 C   0  0  0  0  0  0  0  0  0  0  0  0
    9.1563  -16.4066   22.3143 C   0  0  0  0  0  0  0  0  0  0  0  0
   10.3181  -17.3536   22.4272 C   0  0  2  0  0  0  0  0  0  0  0  0
    9.9056  -18.6925   21.9591 N   0  0  0  0  0  0  0  0  0  0  0  0
   10.9312  -17.4366   23.7503 C   0  0  0  0  0  0  0  0  0  0  0  0
   10.9269  -18.4172   24.5253 O   0  0  0  0  0  0  0  0  0  0  0  0
   11.6103  -16.3006   24.2349 O   0  0  0  0  0  0  0  0  0  0  0  0
  2  1  1  1
  2  3  1  0
  4  2  1  0
  4  9  1  0
  5  4  2  0
  7  6  1  0
  8  9  1  0
  8  7  1  6
  8 10  1  0
 10 11  2  0
 10 20  1  0
 13 12  1  0
 13 14  2  0
 15 13  1  0
 16 17  1  0
 16 15  1  0
 18 17  1  0
 19 18  1  1
 20 19  1  0
 21 23  1  0
 21 19  1  0
 22 21  2  0
M  END
$$$$
