ASR.pdb
     RDKit          3D

 23 22  0  0  1  0  0  0  0  0999 V2000
    7.5209  -12.5221   19.2521 C   0  0  0  0  0  0  0  0  0  0  0  0
    7.8579  -13.9816   19.4712 C   0  0  2  0  0  0  0  0  0  0  0  0
    6.6440  -14.7564   19.6207 N   0  0  0  0  0  0  0  0  0  0  0  0
    8.6280  -14.0663   20.7568 C   0  0  0  0  0  0  0  0  0  0  0  0
    9.8089  -13.6643   20.8282 O   0  0  0  0  0  0  0  0  0  0  0  0
    6.7435  -15.6648   24.1988 O   0  0  0  0  0  0  0  0  0  0  0  0
    7.6598  -14.6167   24.2842 C   0  0  0  0  0  0  0  0  0  0  0  0
    8.7050  -14.8091   23.1762 C   0  0  2  0  0  0  0  0  0  0  0  0
    8.0412  -14.6057   21.9342 N   0  0  0  0  0  0  0  0  0  0  0  0
    9.4235  -16.0655   23.3116 C   0  0  0  0  0  0  0  0  0  0  0  0
    8.9634  -17.1169   22.8154 O   0  0  0  0  0  0  0  0  0  0  0  0
   14.6360  -20.7098   21.8740 N   0  0  0  0  0  0  0  0  0  0  0  0
   14.6902  -19.9711   20.6608 C   0  0  0  0  0  0  0  0  0  0  0  0
   14.8113  -20.5421   19.4989 N   0  0  0  0  0  0  0  0  0  0  0  0
   14.6138  -18.5584   20.6577 N   0  0  0  0  0  0  0  0  0  0  0  0
   14.4418  -17.8550   21.9083 C   0  0  0  0  0  0  0  0  0  0  0  0
   13.0224  -17.9937   22.4208 C   0  0  0  0  0  0  0  0  0  0  0  0
   12.7884  -17.2788   23.7023 C   0  0  0  0  0  0  0  0  0  0  0  0
   11.3712  -17.4301   24.1798 C   0  0  2  0  0  0  0  0  0  0  0  0
   10.6549  -16.1509   23.9999 N   0  0  0  0  0  0  0  0  0  0  0  0
   11.2210  -17.9167   25.5488 C   0  0  0  0  0  0  0  0  0  0  0  0
   10.8865  -17.2539   26.5543 O   0  0  0  0  0  0  0  0  0  0  0  0
   11.4744  -19.2811   25.7952 O   0  0  0  0  0  0  0  0  0  0  0  0
  2  1  1  1
  2  3  1  0
  4  2  1  0
  4  9  1  0
  5  4  2  0
  7  6  1  0
  8  9  1  0
  8  7  1  1
  8 10  1  0
 10 11  2  0
 10 20  1  0
 13 12  1  0
 13 14  2  0
 15 13  1  0
 16 17  1  0
 16 15  1  0
 18 17  1  0
 19 18  1  1
 20 19  1  0
 21 23  1  0
 21 19  1  0
 22 21  2  0
M  END
$$$$
