ASR.pdb
     RDKit          3D

 23 22  0  0  1  0  0  0  0  0999 V2000
    7.4294  -12.9469   17.5936 C   0  0  0  0  0  0  0  0  0  0  0  0
    8.6584  -13.6651   18.1087 C   0  0  2  0  0  0  0  0  0  0  0  0
    9.1928  -14.5365   17.0833 N   0  0  0  0  0  0  0  0  0  0  0  0
    8.2176  -14.5171   19.2632 C   0  0  0  0  0  0  0  0  0  0  0  0
    7.7444  -14.0034   20.2993 O   0  0  0  0  0  0  0  0  0  0  0  0
    9.6800  -18.4300   19.6611 O   0  0  0  0  0  0  0  0  0  0  0  0
    8.3021  -18.2480   19.7776 C   0  0  0  0  0  0  0  0  0  0  0  0
    8.0539  -16.8237   20.2944 C   0  0  2  0  0  0  0  0  0  0  0  0
    8.3233  -15.9342   19.2171 N   0  0  0  0  0  0  0  0  0  0  0  0
    8.7703  -16.5559   21.5307 C   0  0  0  0  0  0  0  0  0  0  0  0
    9.9934  -16.2971   21.5126 O   0  0  0  0  0  0  0  0  0  0  0  0
    7.2045  -10.6979   25.9791 N   0  0  0  0  0  0  0  0  0  0  0  0
    6.6514  -11.7859   26.7077 C   0  0  0  0  0  0  0  0  0  0  0  0
    5.8214  -11.6172   27.6944 N   0  0  0  0  0  0  0  0  0  0  0  0
    6.9813  -13.1246   26.3909 N   0  0  0  0  0  0  0  0  0  0  0  0
    8.3560  -13.5588   26.4911 C   0  0  0  0  0  0  0  0  0  0  0  0
    8.4810  -15.0422   26.2073 C   0  0  0  0  0  0  0  0  0  0  0  0
    7.8507  -15.4497   24.9248 C   0  0  0  0  0  0  0  0  0  0  0  0
    8.8123  -16.1865   24.0349 C   0  0  2  0  0  0  0  0  0  0  0  0
    8.1241  -16.5764   22.7874 N   0  0  0  0  0  0  0  0  0  0  0  0
    9.4691  -17.3404   24.6435 C   0  0  0  0  0  0  0  0  0  0  0  0
    9.1086  -18.5356   24.5805 O   0  0  0  0  0  0  0  0  0  0  0  0
   10.6420  -17.1133   25.3911 O   0  0  0  0  0  0  0  0  0  0  0  0
  2  1  1  6
  2  3  1  0
  4  2  1  0
  4  9  1  0
  5  4  2  0
  7  6  1  0
  8  9  1  0
  8  7  1  6
  8 10  1  0
 10 11  2  0
 10 20  1  0
 13 12  1  0
 13 14  2  0
 15 13  1  0
 16 17  1  0
 16 15  1  0
 18 17  1  0
 19 18  1  1
 20 19  1  0
 21 23  1  0
 21 19  1  0
 22 21  2  0
M  END
$$$$
