ASR.pdb
     RDKit          3D

 23 22  0  0  1  0  0  0  0  0999 V2000
    9.5660  -18.7655   16.0924 C   0  0  0  0  0  0  0  0  0  0  0  0
   10.9821  -18.4148   16.4968 C   0  0  2  0  0  0  0  0  0  0  0  0
   11.9062  -19.4050   15.9850 N   0  0  0  0  0  0  0  0  0  0  0  0
   11.0340  -18.4577   17.9963 C   0  0  0  0  0  0  0  0  0  0  0  0
   10.4078  -17.6255   18.6867 O   0  0  0  0  0  0  0  0  0  0  0  0
   14.0581  -20.5095   20.0043 O   0  0  0  0  0  0  0  0  0  0  0  0
   12.7496  -20.8367   20.3594 C   0  0  0  0  0  0  0  0  0  0  0  0
   11.8649  -19.6108   20.0917 C   0  0  2  0  0  0  0  0  0  0  0  0
   11.7957  -19.4443   18.6803 N   0  0  0  0  0  0  0  0  0  0  0  0
   12.2983  -18.4461   20.8459 C   0  0  0  0  0  0  0  0  0  0  0  0
   13.1537  -17.6660   20.3737 O   0  0  0  0  0  0  0  0  0  0  0  0
    9.0149  -12.2103   19.2539 N   0  0  0  0  0  0  0  0  0  0  0  0
    8.1776  -13.2913   19.6422 C   0  0  0  0  0  0  0  0  0  0  0  0
    6.9218  -13.3573   19.3114 N   0  0  0  0  0  0  0  0  0  0  0  0
    8.6764  -14.3637   20.4185 N   0  0  0  0  0  0  0  0  0  0  0  0
   10.0669  -14.3674   20.8119 C   0  0  0  0  0  0  0  0  0  0  0  0
   10.3847  -15.5690   21.6789 C   0  0  0  0  0  0  0  0  0  0  0  0
   11.8361  -15.7252   21.9567 C   0  0  0  0  0  0  0  0  0  0  0  0
   12.1145  -16.9047   22.8459 C   0  0  2  0  0  0  0  0  0  0  0  0
   11.7786  -18.1502   22.1264 N   0  0  0  0  0  0  0  0  0  0  0  0
   11.4611  -16.8716   24.1518 C   0  0  0  0  0  0  0  0  0  0  0  0
   10.4746  -17.5447   24.5208 O   0  0  0  0  0  0  0  0  0  0  0  0
   11.9773  -15.9930   25.1255 O   0  0  0  0  0  0  0  0  0  0  0  0
  2  1  1  1
  2  3  1  0
  4  2  1  0
  4  9  1  0
  5  4  2  0
  7  6  1  0
  8  9  1  0
  8  7  1  6
  8 10  1  0
 10 11  2  0
 10 20  1  0
 13 12  1  0
 13 14  2  0
 15 13  1  0
 16 17  1  0
 16 15  1  0
 18 17  1  0
 19 18  1  6
 20 19  1  0
 21 23  1  0
 21 19  1  0
 22 21  2  0
M  END
$$$$
