ASR.pdb
     RDKit          3D

 23 22  0  0  1  0  0  0  0  0999 V2000
    8.0580  -12.0341   19.9959 C   0  0  0  0  0  0  0  0  0  0  0  0
    8.3272  -13.0787   18.9339 C   0  0  2  0  0  0  0  0  0  0  0  0
    7.0810  -13.5288   18.3502 N   0  0  0  0  0  0  0  0  0  0  0  0
    8.9708  -14.2478   19.6210 C   0  0  0  0  0  0  0  0  0  0  0  0
    8.2839  -15.0936   20.2326 O   0  0  0  0  0  0  0  0  0  0  0  0
   13.2180  -14.6556   19.6117 O   0  0  0  0  0  0  0  0  0  0  0  0
   12.3633  -15.7241   19.3410 C   0  0  0  0  0  0  0  0  0  0  0  0
   11.0845  -15.5297   20.1681 C   0  0  2  0  0  0  0  0  0  0  0  0
   10.3804  -14.4320   19.5992 N   0  0  0  0  0  0  0  0  0  0  0  0
   11.3611  -15.4348   21.5921 C   0  0  0  0  0  0  0  0  0  0  0  0
   11.8238  -14.3808   22.0803 O   0  0  0  0  0  0  0  0  0  0  0  0
    6.9533  -19.0170   27.4953 N   0  0  0  0  0  0  0  0  0  0  0  0
    7.3116  -19.2960   26.1484 C   0  0  0  0  0  0  0  0  0  0  0  0
    6.8037  -20.2895   25.4808 N   0  0  0  0  0  0  0  0  0  0  0  0
    8.2517  -18.4952   25.4582 N   0  0  0  0  0  0  0  0  0  0  0  0
    8.3054  -17.0759   25.7248 C   0  0  0  0  0  0  0  0  0  0  0  0
    9.3629  -16.4013   24.8744 C   0  0  0  0  0  0  0  0  0  0  0  0
   10.6116  -17.1971   24.7498 C   0  0  0  0  0  0  0  0  0  0  0  0
   11.6212  -16.5238   23.8628 C   0  0  2  0  0  0  0  0  0  0  0  0
   11.1222  -16.5142   22.4726 N   0  0  0  0  0  0  0  0  0  0  0  0
   12.9722  -17.0757   23.9216 C   0  0  0  0  0  0  0  0  0  0  0  0
   13.5646  -17.7211   23.0300 O   0  0  0  0  0  0  0  0  0  0  0  0
   13.7160  -16.8747   25.1017 O   0  0  0  0  0  0  0  0  0  0  0  0
  2  1  1  1
  2  3  1  0
  4  2  1  0
  4  9  1  0
  5  4  2  0
  7  6  1  0
  8  9  1  0
  8  7  1  6
  8 10  1  0
 10 11  2  0
 10 20  1  0
 13 12  1  0
 13 14  2  0
 15 13  1  0
 16 17  1  0
 16 15  1  0
 18 17  1  0
 19 18  1  1
 20 19  1  0
 21 23  1  0
 21 19  1  0
 22 21  2  0
M  END
$$$$
