ASR.pdb
     RDKit          3D

 23 22  0  0  1  0  0  0  0  0999 V2000
    8.5737  -12.3647   18.7111 C   0  0  0  0  0  0  0  0  0  0  0  0
    8.7677  -13.6414   17.9210 C   0  0  2  0  0  0  0  0  0  0  0  0
    7.5436  -13.9918   17.2318 N   0  0  0  0  0  0  0  0  0  0  0  0
    9.0746  -14.7278   18.9103 C   0  0  0  0  0  0  0  0  0  0  0  0
    8.1955  -15.1601   19.6859 O   0  0  0  0  0  0  0  0  0  0  0  0
   13.1332  -15.9532   19.7887 O   0  0  0  0  0  0  0  0  0  0  0  0
   12.1224  -16.8516   19.4469 C   0  0  0  0  0  0  0  0  0  0  0  0
   10.7888  -16.2771   19.9455 C   0  0  2  0  0  0  0  0  0  0  0  0
   10.3730  -15.3004   18.9980 N   0  0  0  0  0  0  0  0  0  0  0  0
   10.8668  -15.8272   21.3257 C   0  0  0  0  0  0  0  0  0  0  0  0
   11.2011  -14.6523   21.5927 O   0  0  0  0  0  0  0  0  0  0  0  0
    5.2534  -13.4851   26.9976 N   0  0  0  0  0  0  0  0  0  0  0  0
    6.5073  -12.8324   27.1469 C   0  0  0  0  0  0  0  0  0  0  0  0
    6.6319  -11.6856   27.7471 N   0  0  0  0  0  0  0  0  0  0  0  0
    7.6980  -13.4063   26.6427 N   0  0  0  0  0  0  0  0  0  0  0  0
    7.6148  -14.4970   25.6983 C   0  0  0  0  0  0  0  0  0  0  0  0
    8.9843  -15.0838   25.4215 C   0  0  0  0  0  0  0  0  0  0  0  0
    9.1048  -15.6791   24.0653 C   0  0  0  0  0  0  0  0  0  0  0  0
   10.4896  -16.2004   23.8012 C   0  0  2  0  0  0  0  0  0  0  0  0
   10.5724  -16.6862   22.4086 N   0  0  0  0  0  0  0  0  0  0  0  0
   10.9616  -17.2220   24.7322 C   0  0  0  0  0  0  0  0  0  0  0  0
   11.1874  -18.4258   24.4828 O   0  0  0  0  0  0  0  0  0  0  0  0
   11.1980  -16.8386   26.0677 O   0  0  0  0  0  0  0  0  0  0  0  0
  2  1  1  1
  2  3  1  0
  4  2  1  0
  4  9  1  0
  5  4  2  0
  7  6  1  0
  8  9  1  0
  8  7  1  6
  8 10  1  0
 10 11  2  0
 10 20  1  0
 13 12  1  0
 13 14  2  0
 15 13  1  0
 16 17  1  0
 16 15  1  0
 18 17  1  0
 19 18  1  1
 20 19  1  0
 21 23  1  0
 21 19  1  0
 22 21  2  0
M  END
$$$$
