ASR.pdb
     RDKit          3D

 23 22  0  0  1  0  0  0  0  0999 V2000
    5.8773  -18.2150   19.2190 C   0  0  0  0  0  0  0  0  0  0  0  0
    6.6679  -17.5485   18.1134 C   0  0  2  0  0  0  0  0  0  0  0  0
    7.2096  -18.5475   17.2162 N   0  0  0  0  0  0  0  0  0  0  0  0
    7.8158  -16.8331   18.7642 C   0  0  0  0  0  0  0  0  0  0  0  0
    8.8785  -17.4321   19.0343 O   0  0  0  0  0  0  0  0  0  0  0  0
    7.2255  -12.9739   20.3933 O   0  0  0  0  0  0  0  0  0  0  0  0
    8.3600  -13.2166   19.6190 C   0  0  0  0  0  0  0  0  0  0  0  0
    8.7308  -14.6985   19.7727 C   0  0  2  0  0  0  0  0  0  0  0  0
    7.7329  -15.4527   19.0946 N   0  0  0  0  0  0  0  0  0  0  0  0
    8.9671  -15.0641   21.1597 C   0  0  0  0  0  0  0  0  0  0  0  0
    8.0081  -15.2995   21.9266 O   0  0  0  0  0  0  0  0  0  0  0  0
    6.8509  -19.5668   23.4552 N   0  0  0  0  0  0  0  0  0  0  0  0
    6.7316  -18.6671   24.5492 C   0  0  0  0  0  0  0  0  0  0  0  0
    5.5935  -18.1525   24.9108 N   0  0  0  0  0  0  0  0  0  0  0  0
    7.8611  -18.2819   25.3090 N   0  0  0  0  0  0  0  0  0  0  0  0
    9.1736  -18.7342   24.9073 C   0  0  0  0  0  0  0  0  0  0  0  0
   10.0809  -17.5621   24.5919 C   0  0  0  0  0  0  0  0  0  0  0  0
    9.8764  -17.0122   23.2266 C   0  0  0  0  0  0  0  0  0  0  0  0
   10.5293  -15.6689   23.0580 C   0  0  2  0  0  0  0  0  0  0  0  0
   10.2720  -15.1675   21.6926 N   0  0  0  0  0  0  0  0  0  0  0  0
   11.9571  -15.6247   23.3626 C   0  0  0  0  0  0  0  0  0  0  0  0
   12.5166  -15.9923   24.4181 O   0  0  0  0  0  0  0  0  0  0  0  0
   12.8264  -15.1160   22.3767 O   0  0  0  0  0  0  0  0  0  0  0  0
  2  1  1  1
  2  3  1  0
  4  2  1  0
  4  9  1  0
  5  4  2  0
  7  6  1  0
  8  9  1  0
  8  7  1  1
  8 10  1  0
 10 11  2  0
 10 20  1  0
 13 12  1  0
 13 14  2  0
 15 13  1  0
 16 17  1  0
 16 15  1  0
 18 17  1  0
 19 18  1  6
 20 19  1  0
 21 23  1  0
 21 19  1  0
 22 21  2  0
M  END
$$$$
