ASR.pdb
     RDKit          3D

 23 22  0  0  1  0  0  0  0  0999 V2000
    8.5581  -11.9204   19.7072 C   0  0  0  0  0  0  0  0  0  0  0  0
    8.1357  -13.0447   18.7856 C   0  0  2  0  0  0  0  0  0  0  0  0
    6.7554  -12.8691   18.3854 N   0  0  0  0  0  0  0  0  0  0  0  0
    8.2359  -14.3189   19.5727 C   0  0  0  0  0  0  0  0  0  0  0  0
    7.2927  -14.7056   20.2953 O   0  0  0  0  0  0  0  0  0  0  0  0
   11.2121  -16.9871   18.5500 O   0  0  0  0  0  0  0  0  0  0  0  0
    9.9790  -17.3910   19.0616 C   0  0  0  0  0  0  0  0  0  0  0  0
    9.5683  -16.3922   20.1529 C   0  0  2  0  0  0  0  0  0  0  0  0
    9.4045  -15.1270   19.5228 N   0  0  0  0  0  0  0  0  0  0  0  0
   10.4724  -16.4203   21.2909 C   0  0  0  0  0  0  0  0  0  0  0  0
   11.4288  -15.6182   21.3621 O   0  0  0  0  0  0  0  0  0  0  0  0
   12.0013  -22.4429   27.4531 N   0  0  0  0  0  0  0  0  0  0  0  0
   12.6619  -21.2930   27.9649 C   0  0  0  0  0  0  0  0  0  0  0  0
   13.4480  -21.3403   28.9996 N   0  0  0  0  0  0  0  0  0  0  0  0
   12.4942  -20.0226   27.3652 N   0  0  0  0  0  0  0  0  0  0  0  0
   11.5421  -19.8666   26.2893 C   0  0  0  0  0  0  0  0  0  0  0  0
   11.6176  -18.4758   25.6923 C   0  0  0  0  0  0  0  0  0  0  0  0
   10.6651  -18.2655   24.5714 C   0  0  0  0  0  0  0  0  0  0  0  0
   11.2589  -17.4193   23.4802 C   0  0  2  0  0  0  0  0  0  0  0  0
   10.3110  -17.3421   22.3499 N   0  0  0  0  0  0  0  0  0  0  0  0
   12.5808  -17.8333   23.0168 C   0  0  0  0  0  0  0  0  0  0  0  0
   12.8506  -18.7877   22.2562 O   0  0  0  0  0  0  0  0  0  0  0  0
   13.6961  -17.0939   23.4593 O   0  0  0  0  0  0  0  0  0  0  0  0
  2  1  1  1
  2  3  1  0
  4  2  1  0
  4  9  1  0
  5  4  2  0
  7  6  1  0
  8  9  1  0
  8  7  1  6
  8 10  1  0
 10 11  2  0
 10 20  1  0
 13 12  1  0
 13 14  2  0
 15 13  1  0
 16 17  1  0
 16 15  1  0
 18 17  1  0
 19 18  1  1
 20 19  1  0
 21 23  1  0
 21 19  1  0
 22 21  2  0
M  END
$$$$
