ASR.pdb
     RDKit          3D

 23 22  0  0  1  0  0  0  0  0999 V2000
    4.9462  -20.9138   19.4892 C   0  0  0  0  0  0  0  0  0  0  0  0
    4.9722  -21.5290   20.8721 C   0  0  2  0  0  0  0  0  0  0  0  0
    3.6730  -22.0792   21.1972 N   0  0  0  0  0  0  0  0  0  0  0  0
    5.2662  -20.4206   21.8405 C   0  0  0  0  0  0  0  0  0  0  0  0
    4.6592  -19.3304   21.7755 O   0  0  0  0  0  0  0  0  0  0  0  0
    7.6060  -21.1899   25.2108 O   0  0  0  0  0  0  0  0  0  0  0  0
    6.6494  -20.1755   25.1741 C   0  0  0  0  0  0  0  0  0  0  0  0
    6.6647  -19.5599   23.7677 C   0  0  2  0  0  0  0  0  0  0  0  0
    6.2431  -20.5732   22.8622 N   0  0  0  0  0  0  0  0  0  0  0  0
    7.9360  -18.9253   23.4602 C   0  0  0  0  0  0  0  0  0  0  0  0
    8.8455  -19.5679   22.8919 O   0  0  0  0  0  0  0  0  0  0  0  0
    7.3413  -11.8994   19.6374 N   0  0  0  0  0  0  0  0  0  0  0  0
    7.5445  -13.1223   18.9419 C   0  0  0  0  0  0  0  0  0  0  0  0
    7.4005  -13.2268   17.6538 N   0  0  0  0  0  0  0  0  0  0  0  0
    7.9187  -14.3024   19.6264 N   0  0  0  0  0  0  0  0  0  0  0  0
    8.4424  -14.2069   20.9700 C   0  0  0  0  0  0  0  0  0  0  0  0
    8.7590  -15.5790   21.5301 C   0  0  0  0  0  0  0  0  0  0  0  0
    9.2291  -15.5436   22.9393 C   0  0  0  0  0  0  0  0  0  0  0  0
    9.4839  -16.9221   23.4817 C   0  0  2  0  0  0  0  0  0  0  0  0
    8.1941  -17.5745   23.7860 N   0  0  0  0  0  0  0  0  0  0  0  0
   10.3780  -16.9851   24.6350 C   0  0  0  0  0  0  0  0  0  0  0  0
   10.0566  -17.1368   25.8333 O   0  0  0  0  0  0  0  0  0  0  0  0
   11.7630  -16.8646   24.4031 O   0  0  0  0  0  0  0  0  0  0  0  0
  2  1  1  6
  2  3  1  0
  4  2  1  0
  4  9  1  0
  5  4  2  0
  7  6  1  0
  8  9  1  0
  8  7  1  1
  8 10  1  0
 10 11  2  0
 10 20  1  0
 13 12  1  0
 13 14  2  0
 15 13  1  0
 16 17  1  0
 16 15  1  0
 18 17  1  0
 19 18  1  1
 20 19  1  0
 21 23  1  0
 21 19  1  0
 22 21  2  0
M  END
$$$$
