ASR.pdb
     RDKit          3D

 23 22  0  0  1  0  0  0  0  0999 V2000
    9.2830  -14.4767   16.8107 C   0  0  0  0  0  0  0  0  0  0  0  0
    8.0542  -13.7931   17.3714 C   0  0  2  0  0  0  0  0  0  0  0  0
    8.0807  -12.3809   17.0534 N   0  0  0  0  0  0  0  0  0  0  0  0
    8.1140  -13.9374   18.8643 C   0  0  0  0  0  0  0  0  0  0  0  0
    8.9523  -13.3031   19.5398 O   0  0  0  0  0  0  0  0  0  0  0  0
    5.9268  -16.9601   20.8411 O   0  0  0  0  0  0  0  0  0  0  0  0
    5.7769  -15.6369   21.2558 C   0  0  0  0  0  0  0  0  0  0  0  0
    7.0931  -14.8991   20.9723 C   0  0  2  0  0  0  0  0  0  0  0  0
    7.2210  -14.7986   19.5587 N   0  0  0  0  0  0  0  0  0  0  0  0
    8.2195  -15.4989   21.6687 C   0  0  0  0  0  0  0  0  0  0  0  0
    9.1116  -16.1012   21.0326 O   0  0  0  0  0  0  0  0  0  0  0  0
   12.1253  -15.1769   28.9556 N   0  0  0  0  0  0  0  0  0  0  0  0
   10.8055  -14.6576   28.8609 C   0  0  0  0  0  0  0  0  0  0  0  0
   10.4017  -13.6408   29.5636 N   0  0  0  0  0  0  0  0  0  0  0  0
    9.8530  -15.2296   27.9850 N   0  0  0  0  0  0  0  0  0  0  0  0
   10.0052  -16.6065   27.5734 C   0  0  0  0  0  0  0  0  0  0  0  0
   10.2273  -16.7067   26.0777 C   0  0  0  0  0  0  0  0  0  0  0  0
    9.2172  -15.9609   25.2829 C   0  0  0  0  0  0  0  0  0  0  0  0
    9.4069  -16.1589   23.8050 C   0  0  2  0  0  0  0  0  0  0  0  0
    8.3521  -15.4276   23.0739 N   0  0  0  0  0  0  0  0  0  0  0  0
    9.4705  -17.5497   23.3633 C   0  0  0  0  0  0  0  0  0  0  0  0
    8.5102  -18.3257   23.1687 O   0  0  0  0  0  0  0  0  0  0  0  0
   10.7421  -18.1072   23.1212 O   0  0  0  0  0  0  0  0  0  0  0  0
  2  1  1  6
  2  3  1  0
  4  2  1  0
  4  9  1  0
  5  4  2  0
  7  6  1  0
  8  9  1  0
  8  7  1  6
  8 10  1  0
 10 11  2  0
 10 20  1  0
 13 12  1  0
 13 14  2  0
 15 13  1  0
 16 17  1  0
 16 15  1  0
 18 17  1  0
 19 18  1  1
 20 19  1  0
 21 23  1  0
 21 19  1  0
 22 21  2  0
M  END
$$$$
