ASR.pdb
     RDKit          3D

 23 22  0  0  1  0  0  0  0  0999 V2000
   11.3984  -17.1391   15.7035 C   0  0  0  0  0  0  0  0  0  0  0  0
   11.6678  -18.5683   16.1240 C   0  0  2  0  0  0  0  0  0  0  0  0
   10.7910  -19.4718   15.4090 N   0  0  0  0  0  0  0  0  0  0  0  0
   11.3454  -18.6638   17.5869 C   0  0  0  0  0  0  0  0  0  0  0  0
   10.5826  -17.8390   18.1337 O   0  0  0  0  0  0  0  0  0  0  0  0
   11.8709  -21.5787   21.4423 O   0  0  0  0  0  0  0  0  0  0  0  0
   12.3581  -21.1835   20.1966 C   0  0  0  0  0  0  0  0  0  0  0  0
   11.6030  -19.9158   19.7725 C   0  0  2  0  0  0  0  0  0  0  0  0
   11.8958  -19.6937   18.3979 N   0  0  0  0  0  0  0  0  0  0  0  0
   11.8640  -18.7975   20.6640 C   0  0  0  0  0  0  0  0  0  0  0  0
   12.8756  -18.0803   20.5037 O   0  0  0  0  0  0  0  0  0  0  0  0
    6.4773  -12.9569   20.6445 N   0  0  0  0  0  0  0  0  0  0  0  0
    7.5876  -13.0355   19.7604 C   0  0  0  0  0  0  0  0  0  0  0  0
    7.6804  -12.3070   18.6874 N   0  0  0  0  0  0  0  0  0  0  0  0
    8.6613  -13.9228   20.0080 N   0  0  0  0  0  0  0  0  0  0  0  0
    8.6461  -14.7390   21.2005 C   0  0  0  0  0  0  0  0  0  0  0  0
    9.9238  -15.5441   21.3261 C   0  0  0  0  0  0  0  0  0  0  0  0
    9.9437  -16.4317   22.5176 C   0  0  0  0  0  0  0  0  0  0  0  0
   11.1870  -17.2748   22.5699 C   0  0  2  0  0  0  0  0  0  0  0  0
   10.9980  -18.4780   21.7342 N   0  0  0  0  0  0  0  0  0  0  0  0
   11.6370  -17.6434   23.9097 C   0  0  0  0  0  0  0  0  0  0  0  0
   11.5577  -18.7671   24.4513 O   0  0  0  0  0  0  0  0  0  0  0  0
   12.2307  -16.6425   24.7047 O   0  0  0  0  0  0  0  0  0  0  0  0
  2  1  1  6
  2  3  1  0
  4  2  1  0
  4  9  1  0
  5  4  2  0
  7  6  1  0
  8  9  1  0
  8  7  1  1
  8 10  1  0
 10 11  2  0
 10 20  1  0
 13 12  1  0
 13 14  2  0
 15 13  1  0
 16 17  1  0
 16 15  1  0
 18 17  1  0
 19 18  1  1
 20 19  1  0
 21 23  1  0
 21 19  1  0
 22 21  2  0
M  END
$$$$
