MQK.pdb
     RDKit          3D

 27 26  0  0  1  0  0  0  0  0999 V2000
   25.8477  -13.3699  -23.6161 C   0  0  0  0  0  0  0  0  0  0  0  0
   25.6204  -15.0550  -23.0409 S   0  0  0  0  0  0  0  0  0  0  0  0
   24.8525  -15.0973  -21.3950 C   0  0  0  0  0  0  0  0  0  0  0  0
   25.5021  -14.0849  -20.5154 C   0  0  0  0  0  0  0  0  0  0  0  0
   24.6970  -13.7277  -19.3108 C   0  0  2  0  0  0  0  0  0  0  0  0
   23.3227  -14.1358  -19.5113 N   0  0  0  0  0  0  0  0  0  0  0  0
   24.7327  -12.2541  -19.1017 C   0  0  0  0  0  0  0  0  0  0  0  0
   25.8280  -11.6467  -18.8543 O   0  0  0  0  0  0  0  0  0  0  0  0
   24.6947   -7.7017  -22.2116 N   0  0  0  0  0  0  0  0  0  0  0  0
   23.6223   -8.5823  -22.5194 C   0  0  0  0  0  0  0  0  0  0  0  0
   23.1199   -8.5790  -23.6539 O   0  0  0  0  0  0  0  0  0  0  0  0
   23.1444   -9.4874  -21.4361 C   0  0  0  0  0  0  0  0  0  0  0  0
   23.9822   -9.2621  -20.2303 C   0  0  0  0  0  0  0  0  0  0  0  0
   23.6199   -9.9931  -19.0025 C   0  0  2  0  0  0  0  0  0  0  0  0
   23.5713  -11.4350  -19.1616 N   0  0  0  0  0  0  0  0  0  0  0  0
   22.3651   -9.4980  -18.3327 C   0  0  0  0  0  0  0  0  0  0  0  0
   21.2531   -9.8790  -18.7744 O   0  0  0  0  0  0  0  0  0  0  0  0
   22.4876   -8.6300  -17.2399 N   0  0  0  0  0  0  0  0  0  0  0  0
   21.4827   -8.0687  -16.4055 C   0  0  1  0  0  0  0  0  0  0  0  0
   21.4847   -8.6102  -15.0188 C   0  0  0  0  0  0  0  0  0  0  0  0
   20.3282   -8.0940  -14.2205 C   0  0  0  0  0  0  0  0  0  0  0  0
   20.1160   -8.9528  -12.9764 C   0  0  0  0  0  0  0  0  0  0  0  0
   18.9570   -8.3006  -12.2232 C   0  0  0  0  0  0  0  0  0  0  0  0
   18.6686   -9.0552  -11.0128 N   0  0  0  0  0  0  0  0  0  0  0  0
   21.4564   -6.5972  -16.4684 C   0  0  0  0  0  0  0  0  0  0  0  0
   22.4424   -5.8961  -16.7281 O   0  0  0  0  0  0  0  0  0  0  0  0
   20.2476   -5.9569  -16.2204 O   0  0  0  0  0  0  0  0  0  0  0  0
  2  1  1  0
  3  4  1  0
  3  2  1  0
  4  5  1  0
  5  6  1  6
  7  5  1  0
  8  7  2  0
 10  9  1  0
 11 10  2  0
 12 10  1  0
 14 13  1  6
 13 12  1  0
 14 15  1  0
 15  7  1  0
 16 14  1  0
 17 16  2  0
 18 16  1  0
 19 25  1  0
 19 18  1  0
 19 20  1  1
 21 20  1  0
 22 21  1  0
 22 23  1  0
 23 24  1  0
 25 27  1  0
 26 25  2  0
M  END
$$$$
