MQK.pdb
     RDKit          3D

 27 26  0  0  1  0  0  0  0  0999 V2000
   26.4287  -18.7062   -7.3461 C   0  0  0  0  0  0  0  0  0  0  0  0
   27.6408  -20.0209   -7.1899 S   0  0  0  0  0  0  0  0  0  0  0  0
   27.5447  -21.1822   -8.5838 C   0  0  0  0  0  0  0  0  0  0  0  0
   26.6986  -20.5979   -9.6623 C   0  0  0  0  0  0  0  0  0  0  0  0
   26.5214  -21.4946  -10.8419 C   0  0  2  0  0  0  0  0  0  0  0  0
   27.8195  -21.8657  -11.3644 N   0  0  0  0  0  0  0  0  0  0  0  0
   25.7638  -20.7806  -11.9063 C   0  0  0  0  0  0  0  0  0  0  0  0
   26.3663  -20.1329  -12.8268 O   0  0  0  0  0  0  0  0  0  0  0  0
   25.1649  -24.5565  -14.7990 N   0  0  0  0  0  0  0  0  0  0  0  0
   23.9771  -24.1402  -15.4591 C   0  0  0  0  0  0  0  0  0  0  0  0
   23.5206  -24.8084  -16.3997 O   0  0  0  0  0  0  0  0  0  0  0  0
   23.3245  -22.8908  -14.9754 C   0  0  0  0  0  0  0  0  0  0  0  0
   24.0819  -22.3882  -13.8005 C   0  0  0  0  0  0  0  0  0  0  0  0
   23.6101  -21.1434  -13.1672 C   0  0  2  0  0  0  0  0  0  0  0  0
   24.3429  -20.7701  -11.9713 N   0  0  0  0  0  0  0  0  0  0  0  0
   22.1273  -21.1031  -12.9063 C   0  0  0  0  0  0  0  0  0  0  0  0
   21.6321  -21.9304  -12.1019 O   0  0  0  0  0  0  0  0  0  0  0  0
   21.3564  -20.1414  -13.5723 N   0  0  0  0  0  0  0  0  0  0  0  0
   19.9448  -19.9797  -13.6206 C   0  0  1  0  0  0  0  0  0  0  0  0
   19.4916  -18.9707  -14.6171 C   0  0  0  0  0  0  0  0  0  0  0  0
   19.2875  -17.6263  -13.9911 C   0  0  0  0  0  0  0  0  0  0  0  0
   18.9275  -16.5935  -15.0560 C   0  0  0  0  0  0  0  0  0  0  0  0
   18.8006  -15.2655  -14.3102 C   0  0  0  0  0  0  0  0  0  0  0  0
   18.4341  -14.2096  -15.2420 N   0  0  0  0  0  0  0  0  0  0  0  0
   19.2339  -21.2666  -13.7130 C   0  0  0  0  0  0  0  0  0  0  0  0
   19.5786  -22.1982  -14.4510 O   0  0  0  0  0  0  0  0  0  0  0  0
   18.1052  -21.4447  -12.9213 O   0  0  0  0  0  0  0  0  0  0  0  0
  2  1  1  0
  3  4  1  0
  3  2  1  0
  4  5  1  0
  5  6  1  6
  7  5  1  0
  8  7  2  0
 10  9  1  0
 11 10  2  0
 12 10  1  0
 14 13  1  1
 13 12  1  0
 14 15  1  0
 15  7  1  0
 16 14  1  0
 17 16  2  0
 18 16  1  0
 19 25  1  0
 19 18  1  0
 19 20  1  6
 21 20  1  0
 22 21  1  0
 22 23  1  0
 23 24  1  0
 25 27  1  0
 26 25  2  0
M  END
$$$$
