MQK.pdb
     RDKit          3D

 27 26  0  0  1  0  0  0  0  0999 V2000
   27.8531  -14.9147  -18.5439 C   0  0  0  0  0  0  0  0  0  0  0  0
   28.2832  -15.3501  -16.8565 S   0  0  0  0  0  0  0  0  0  0  0  0
   27.0174  -14.7861  -15.6817 C   0  0  0  0  0  0  0  0  0  0  0  0
   26.2524  -13.6548  -16.2777 C   0  0  0  0  0  0  0  0  0  0  0  0
   25.1193  -13.1806  -15.4303 C   0  0  2  0  0  0  0  0  0  0  0  0
   24.1676  -14.2567  -15.2521 N   0  0  0  0  0  0  0  0  0  0  0  0
   24.4333  -12.0417  -16.1003 C   0  0  0  0  0  0  0  0  0  0  0  0
   25.0579  -10.9635  -16.3783 O   0  0  0  0  0  0  0  0  0  0  0  0
   20.1973  -10.4757  -20.2206 N   0  0  0  0  0  0  0  0  0  0  0  0
   20.8974  -11.7055  -20.3532 C   0  0  0  0  0  0  0  0  0  0  0  0
   20.9208  -12.2940  -21.4453 O   0  0  0  0  0  0  0  0  0  0  0  0
   21.5847  -12.2385  -19.1430 C   0  0  0  0  0  0  0  0  0  0  0  0
   21.2783  -11.3458  -17.9959 C   0  0  0  0  0  0  0  0  0  0  0  0
   22.3964  -10.9570  -17.1173 C   0  0  2  0  0  0  0  0  0  0  0  0
   23.0603  -12.0739  -16.4706 N   0  0  0  0  0  0  0  0  0  0  0  0
   22.0509   -9.8964  -16.1053 C   0  0  0  0  0  0  0  0  0  0  0  0
   21.8458  -10.2401  -14.9151 O   0  0  0  0  0  0  0  0  0  0  0  0
   21.9722   -8.5644  -16.5321 N   0  0  0  0  0  0  0  0  0  0  0  0
   21.7520   -7.3785  -15.7796 C   0  0  1  0  0  0  0  0  0  0  0  0
   22.0743   -6.1294  -16.5228 C   0  0  0  0  0  0  0  0  0  0  0  0
   21.9279   -4.9164  -15.6578 C   0  0  0  0  0  0  0  0  0  0  0  0
   22.3501   -3.6645  -16.4226 C   0  0  0  0  0  0  0  0  0  0  0  0
   21.9913   -2.4900  -15.5127 C   0  0  0  0  0  0  0  0  0  0  0  0
   22.5146   -1.2535  -16.0739 N   0  0  0  0  0  0  0  0  0  0  0  0
   20.4286   -7.3600  -15.1329 C   0  0  0  0  0  0  0  0  0  0  0  0
   19.3700   -7.6360  -15.7110 O   0  0  0  0  0  0  0  0  0  0  0  0
   20.3661   -7.0104  -13.7888 O   0  0  0  0  0  0  0  0  0  0  0  0
  2  1  1  0
  3  4  1  0
  3  2  1  0
  4  5  1  0
  5  6  1  6
  7  5  1  0
  8  7  2  0
 10  9  1  0
 11 10  2  0
 12 10  1  0
 14 13  1  1
 13 12  1  0
 14 15  1  0
 15  7  1  0
 16 14  1  0
 17 16  2  0
 18 16  1  0
 19 25  1  0
 19 18  1  0
 19 20  1  6
 21 20  1  0
 22 21  1  0
 22 23  1  0
 23 24  1  0
 25 27  1  0
 26 25  2  0
M  END
$$$$
