MQK.pdb
     RDKit          3D

 27 26  0  0  1  0  0  0  0  0999 V2000
   25.7503  -34.7421  -19.3908 C   0  0  0  0  0  0  0  0  0  0  0  0
   26.2938  -34.9283  -17.6903 S   0  0  0  0  0  0  0  0  0  0  0  0
   26.1182  -33.3760  -16.7629 C   0  0  0  0  0  0  0  0  0  0  0  0
   26.6042  -33.5707  -15.3678 C   0  0  0  0  0  0  0  0  0  0  0  0
   26.5476  -32.3359  -14.5318 C   0  0  2  0  0  0  0  0  0  0  0  0
   27.8058  -31.6272  -14.6334 N   0  0  0  0  0  0  0  0  0  0  0  0
   26.3196  -32.7036  -13.1073 C   0  0  0  0  0  0  0  0  0  0  0  0
   26.7218  -31.9521  -12.1569 O   0  0  0  0  0  0  0  0  0  0  0  0
   24.9577  -30.8972   -9.1777 N   0  0  0  0  0  0  0  0  0  0  0  0
   24.4073  -32.0015   -8.4723 C   0  0  0  0  0  0  0  0  0  0  0  0
   24.0874  -31.8815   -7.2794 O   0  0  0  0  0  0  0  0  0  0  0  0
   24.2384  -33.2792   -9.2205 C   0  0  0  0  0  0  0  0  0  0  0  0
   24.6539  -33.0583  -10.6295 C   0  0  0  0  0  0  0  0  0  0  0  0
   25.3045  -34.1792  -11.3319 C   0  0  2  0  0  0  0  0  0  0  0  0
   25.6504  -33.8951  -12.7126 N   0  0  0  0  0  0  0  0  0  0  0  0
   24.5621  -35.4861  -11.2368 C   0  0  0  0  0  0  0  0  0  0  0  0
   23.4623  -35.6016  -11.8317 O   0  0  0  0  0  0  0  0  0  0  0  0
   25.1289  -36.5249  -10.4868 N   0  0  0  0  0  0  0  0  0  0  0  0
   24.6603  -37.8486  -10.2648 C   0  0  1  0  0  0  0  0  0  0  0  0
   25.6670  -38.7409   -9.6271 C   0  0  0  0  0  0  0  0  0  0  0  0
   25.1290  -40.1219   -9.4162 C   0  0  0  0  0  0  0  0  0  0  0  0
   26.1615  -40.9912   -8.7030 C   0  0  0  0  0  0  0  0  0  0  0  0
   25.5218  -42.3746   -8.5895 C   0  0  0  0  0  0  0  0  0  0  0  0
   26.4499  -43.2963   -7.9518 N   0  0  0  0  0  0  0  0  0  0  0  0
   23.3419  -37.8761   -9.6083 C   0  0  0  0  0  0  0  0  0  0  0  0
   22.6240  -38.8814   -9.5356 O   0  0  0  0  0  0  0  0  0  0  0  0
   22.8759  -36.6986   -9.0349 O   0  0  0  0  0  0  0  0  0  0  0  0
  2  1  1  0
  3  4  1  0
  3  2  1  0
  4  5  1  0
  5  6  1  1
  7  5  1  0
  8  7  2  0
 10  9  1  0
 11 10  2  0
 12 10  1  0
 14 13  1  6
 13 12  1  0
 14 15  1  0
 15  7  1  0
 16 14  1  0
 17 16  2  0
 18 16  1  0
 19 25  1  0
 19 18  1  0
 19 20  1  1
 21 20  1  0
 22 21  1  0
 22 23  1  0
 23 24  1  0
 25 27  1  0
 26 25  2  0
M  END
$$$$
