MQK.pdb
     RDKit          3D

 27 26  0  0  1  0  0  0  0  0999 V2000
   19.6181  -14.3570  -16.7259 C   0  0  0  0  0  0  0  0  0  0  0  0
   18.5669  -12.9537  -16.3413 S   0  0  0  0  0  0  0  0  0  0  0  0
   16.8423  -13.4654  -16.0874 C   0  0  0  0  0  0  0  0  0  0  0  0
   16.0017  -12.2662  -15.8117 C   0  0  0  0  0  0  0  0  0  0  0  0
   16.6476  -11.2730  -14.9044 C   0  0  2  0  0  0  0  0  0  0  0  0
   16.8154  -11.8581  -13.5909 N   0  0  0  0  0  0  0  0  0  0  0  0
   15.7835  -10.0667  -14.7836 C   0  0  0  0  0  0  0  0  0  0  0  0
   15.3756   -9.4383  -15.8173 O   0  0  0  0  0  0  0  0  0  0  0  0
   11.1042   -8.9090  -11.2663 N   0  0  0  0  0  0  0  0  0  0  0  0
   11.1238   -9.6931  -12.4516 C   0  0  0  0  0  0  0  0  0  0  0  0
   10.1723  -10.4439  -12.7173 O   0  0  0  0  0  0  0  0  0  0  0  0
   12.3164   -9.5701  -13.3367 C   0  0  0  0  0  0  0  0  0  0  0  0
   13.2443   -8.5745  -12.7412 C   0  0  0  0  0  0  0  0  0  0  0  0
   14.5329   -8.3519  -13.4215 C   0  0  2  0  0  0  0  0  0  0  0  0
   15.3597   -9.5396  -13.5323 N   0  0  0  0  0  0  0  0  0  0  0  0
   15.3367   -7.2045  -12.8685 C   0  0  0  0  0  0  0  0  0  0  0  0
   16.1348   -7.4248  -11.9244 O   0  0  0  0  0  0  0  0  0  0  0  0
   15.1628   -5.9331  -13.4306 N   0  0  0  0  0  0  0  0  0  0  0  0
   15.7752   -4.6958  -13.0914 C   0  0  1  0  0  0  0  0  0  0  0  0
   15.8868   -3.7495  -14.2353 C   0  0  0  0  0  0  0  0  0  0  0  0
   16.5435   -2.4664  -13.8312 C   0  0  0  0  0  0  0  0  0  0  0  0
   16.6235   -1.5129  -15.0206 C   0  0  0  0  0  0  0  0  0  0  0  0
   17.2575   -0.2333  -14.4760 C   0  0  0  0  0  0  0  0  0  0  0  0
   17.3842    0.7474  -15.5436 N   0  0  0  0  0  0  0  0  0  0  0  0
   15.1953   -4.0949  -11.8779 C   0  0  0  0  0  0  0  0  0  0  0  0
   14.0287   -4.2723  -11.5054 O   0  0  0  0  0  0  0  0  0  0  0  0
   16.0105   -3.2775  -11.1033 O   0  0  0  0  0  0  0  0  0  0  0  0
  2  1  1  0
  3  4  1  0
  3  2  1  0
  4  5  1  0
  5  6  1  1
  7  5  1  0
  8  7  2  0
 10  9  1  0
 11 10  2  0
 12 10  1  0
 14 13  1  1
 13 12  1  0
 14 15  1  0
 15  7  1  0
 16 14  1  0
 17 16  2  0
 18 16  1  0
 19 25  1  0
 19 18  1  0
 19 20  1  6
 21 20  1  0
 22 21  1  0
 22 23  1  0
 23 24  1  0
 25 27  1  0
 26 25  2  0
M  END
$$$$
