MQK.pdb
     RDKit          3D

 27 26  0  0  1  0  0  0  0  0999 V2000
   28.3193  -21.1733  -10.2884 C   0  0  0  0  0  0  0  0  0  0  0  0
   29.3841  -21.0608  -11.7291 S   0  0  0  0  0  0  0  0  0  0  0  0
   28.4192  -20.8424  -13.2529 C   0  0  0  0  0  0  0  0  0  0  0  0
   26.9940  -20.5783  -12.9072 C   0  0  0  0  0  0  0  0  0  0  0  0
   26.0311  -21.5060  -13.5700 C   0  0  2  0  0  0  0  0  0  0  0  0
   26.2492  -21.4851  -15.0009 N   0  0  0  0  0  0  0  0  0  0  0  0
   24.6365  -21.0648  -13.2924 C   0  0  0  0  0  0  0  0  0  0  0  0
   24.2555  -20.7804  -12.1076 O   0  0  0  0  0  0  0  0  0  0  0  0
   19.9663  -17.6705  -14.7488 N   0  0  0  0  0  0  0  0  0  0  0  0
   21.2945  -17.2312  -15.0000 C   0  0  0  0  0  0  0  0  0  0  0  0
   21.5470  -16.0181  -15.0664 O   0  0  0  0  0  0  0  0  0  0  0  0
   22.3420  -18.2765  -15.1752 C   0  0  0  0  0  0  0  0  0  0  0  0
   21.7064  -19.6105  -15.0227 C   0  0  0  0  0  0  0  0  0  0  0  0
   22.2836  -20.5304  -14.0259 C   0  0  2  0  0  0  0  0  0  0  0  0
   23.6496  -20.9317  -14.3080 N   0  0  0  0  0  0  0  0  0  0  0  0
   21.4338  -21.7383  -13.7305 C   0  0  0  0  0  0  0  0  0  0  0  0
   21.5416  -22.7486  -14.4683 O   0  0  0  0  0  0  0  0  0  0  0  0
   20.5543  -21.6878  -12.6411 N   0  0  0  0  0  0  0  0  0  0  0  0
   19.7684  -22.7181  -12.0565 C   0  0  1  0  0  0  0  0  0  0  0  0
   19.6564  -22.6184  -10.5754 C   0  0  0  0  0  0  0  0  0  0  0  0
   18.9563  -23.8057   -9.9912 C   0  0  0  0  0  0  0  0  0  0  0  0
   18.8010  -23.6411   -8.4815 C   0  0  0  0  0  0  0  0  0  0  0  0
   18.2010  -24.9571   -7.9872 C   0  0  0  0  0  0  0  0  0  0  0  0
   18.0174  -24.9043   -6.5446 N   0  0  0  0  0  0  0  0  0  0  0  0
   18.4753  -22.8956  -12.7393 C   0  0  0  0  0  0  0  0  0  0  0  0
   17.7520  -21.9620  -13.1089 O   0  0  0  0  0  0  0  0  0  0  0  0
   18.0410  -24.1935  -12.9832 O   0  0  0  0  0  0  0  0  0  0  0  0
  2  1  1  0
  3  4  1  0
  3  2  1  0
  4  5  1  0
  5  6  1  6
  7  5  1  0
  8  7  2  0
 10  9  1  0
 11 10  2  0
 12 10  1  0
 14 13  1  6
 13 12  1  0
 14 15  1  0
 15  7  1  0
 16 14  1  0
 17 16  2  0
 18 16  1  0
 19 25  1  0
 19 18  1  0
 19 20  1  1
 21 20  1  0
 22 21  1  0
 22 23  1  0
 23 24  1  0
 25 27  1  0
 26 25  2  0
M  END
$$$$
