MQK.pdb
     RDKit          3D

 27 26  0  0  1  0  0  0  0  0999 V2000
   14.8100  -13.4658  -19.2637 C   0  0  0  0  0  0  0  0  0  0  0  0
   16.1393  -14.0664  -20.3098 S   0  0  0  0  0  0  0  0  0  0  0  0
   17.7455  -13.9647  -19.4669 C   0  0  0  0  0  0  0  0  0  0  0  0
   17.7095  -12.8714  -18.4551 C   0  0  0  0  0  0  0  0  0  0  0  0
   18.9844  -12.7099  -17.6965 C   0  0  2  0  0  0  0  0  0  0  0  0
   19.2337  -13.9018  -16.9138 N   0  0  0  0  0  0  0  0  0  0  0  0
   18.8762  -11.5461  -16.7743 C   0  0  0  0  0  0  0  0  0  0  0  0
   18.0651  -11.5557  -15.7885 O   0  0  0  0  0  0  0  0  0  0  0  0
   23.1009   -8.0535  -14.5228 N   0  0  0  0  0  0  0  0  0  0  0  0
   22.0473   -7.1862  -14.1255 C   0  0  0  0  0  0  0  0  0  0  0  0
   22.2873   -6.2034  -13.4071 O   0  0  0  0  0  0  0  0  0  0  0  0
   20.6737   -7.5101  -14.6043 C   0  0  0  0  0  0  0  0  0  0  0  0
   20.7524   -8.6983  -15.4923 C   0  0  0  0  0  0  0  0  0  0  0  0
   19.4923   -9.2059  -16.0647 C   0  0  2  0  0  0  0  0  0  0  0  0
   19.6538  -10.3645  -16.9238 N   0  0  0  0  0  0  0  0  0  0  0  0
   18.6557   -8.1582  -16.7508 C   0  0  0  0  0  0  0  0  0  0  0  0
   18.8945   -7.8855  -17.9530 O   0  0  0  0  0  0  0  0  0  0  0  0
   17.6407   -7.5276  -16.0195 N   0  0  0  0  0  0  0  0  0  0  0  0
   16.7305   -6.5099  -16.4157 C   0  0  1  0  0  0  0  0  0  0  0  0
   15.3112   -6.8141  -16.0848 C   0  0  0  0  0  0  0  0  0  0  0  0
   14.3782   -5.7890  -16.6503 C   0  0  0  0  0  0  0  0  0  0  0  0
   12.9286   -6.1812  -16.3760 C   0  0  0  0  0  0  0  0  0  0  0  0
   12.0795   -5.1186  -17.0730 C   0  0  0  0  0  0  0  0  0  0  0  0
   10.6721   -5.3390  -16.7760 N   0  0  0  0  0  0  0  0  0  0  0  0
   17.1654   -5.1687  -15.9890 C   0  0  0  0  0  0  0  0  0  0  0  0
   17.6084   -4.9085  -14.8633 O   0  0  0  0  0  0  0  0  0  0  0  0
   17.0720   -4.1311  -16.9093 O   0  0  0  0  0  0  0  0  0  0  0  0
  2  1  1  0
  3  4  1  0
  3  2  1  0
  4  5  1  0
  5  6  1  1
  7  5  1  0
  8  7  2  0
 10  9  1  0
 11 10  2  0
 12 10  1  0
 14 13  1  6
 13 12  1  0
 14 15  1  0
 15  7  1  0
 16 14  1  0
 17 16  2  0
 18 16  1  0
 19 25  1  0
 19 18  1  0
 19 20  1  1
 21 20  1  0
 22 21  1  0
 22 23  1  0
 23 24  1  0
 25 27  1  0
 26 25  2  0
M  END
$$$$
