MQK.pdb
     RDKit          3D

 27 26  0  0  1  0  0  0  0  0999 V2000
   14.3077  -14.9349  -16.2043 C   0  0  0  0  0  0  0  0  0  0  0  0
   14.0328  -13.2787  -15.5691 S   0  0  0  0  0  0  0  0  0  0  0  0
   15.5285  -12.6121  -14.7823 C   0  0  0  0  0  0  0  0  0  0  0  0
   15.2358  -11.2657  -14.2148 C   0  0  0  0  0  0  0  0  0  0  0  0
   16.3957  -10.6424  -13.5126 C   0  0  2  0  0  0  0  0  0  0  0  0
   16.7114  -11.4115  -12.3274 N   0  0  0  0  0  0  0  0  0  0  0  0
   16.0479   -9.2540  -13.1031 C   0  0  0  0  0  0  0  0  0  0  0  0
   15.7449   -8.3649  -13.9677 O   0  0  0  0  0  0  0  0  0  0  0  0
   15.5843   -6.6214   -7.3606 N   0  0  0  0  0  0  0  0  0  0  0  0
   14.3063   -6.9406   -7.8944 C   0  0  0  0  0  0  0  0  0  0  0  0
   13.3094   -6.9566   -7.1559 O   0  0  0  0  0  0  0  0  0  0  0  0
   14.2274   -7.2473   -9.3506 C   0  0  0  0  0  0  0  0  0  0  0  0
   15.6056   -7.2588   -9.9049 C   0  0  0  0  0  0  0  0  0  0  0  0
   15.7540   -7.4571  -11.3581 C   0  0  2  0  0  0  0  0  0  0  0  0
   16.0291   -8.8285  -11.7459 N   0  0  0  0  0  0  0  0  0  0  0  0
   16.7336   -6.5209  -12.0155 C   0  0  0  0  0  0  0  0  0  0  0  0
   17.8376   -6.9759  -12.4040 O   0  0  0  0  0  0  0  0  0  0  0  0
   16.3740   -5.1756  -12.1691 N   0  0  0  0  0  0  0  0  0  0  0  0
   16.9483   -4.1674  -12.9904 C   0  0  1  0  0  0  0  0  0  0  0  0
   17.3363   -4.6478  -14.3451 C   0  0  0  0  0  0  0  0  0  0  0  0
   17.9434   -3.5546  -15.1681 C   0  0  0  0  0  0  0  0  0  0  0  0
   18.4747   -4.1138  -16.4854 C   0  0  0  0  0  0  0  0  0  0  0  0
   19.0758   -2.9181  -17.2236 C   0  0  0  0  0  0  0  0  0  0  0  0
   19.6397   -3.3543  -18.4921 N   0  0  0  0  0  0  0  0  0  0  0  0
   16.1482   -2.9306  -13.0056 C   0  0  0  0  0  0  0  0  0  0  0  0
   14.9111   -2.9044  -12.9946 O   0  0  0  0  0  0  0  0  0  0  0  0
   16.8263   -1.7174  -13.0340 O   0  0  0  0  0  0  0  0  0  0  0  0
  2  1  1  0
  3  4  1  0
  3  2  1  0
  4  5  1  0
  5  6  1  1
  7  5  1  0
  8  7  2  0
 10  9  1  0
 11 10  2  0
 12 10  1  0
 14 13  1  1
 13 12  1  0
 14 15  1  0
 15  7  1  0
 16 14  1  0
 17 16  2  0
 18 16  1  0
 19 25  1  0
 19 18  1  0
 19 20  1  6
 21 20  1  0
 22 21  1  0
 22 23  1  0
 23 24  1  0
 25 27  1  0
 26 25  2  0
M  END
$$$$
