MQK.pdb
     RDKit          3D

 27 26  0  0  1  0  0  0  0  0999 V2000
   26.0060  -17.5699  -18.5212 C   0  0  0  0  0  0  0  0  0  0  0  0
   27.7207  -17.8637  -18.0789 S   0  0  0  0  0  0  0  0  0  0  0  0
   27.8607  -18.6476  -16.4460 C   0  0  0  0  0  0  0  0  0  0  0  0
   26.5426  -19.2215  -16.0536 C   0  0  0  0  0  0  0  0  0  0  0  0
   26.4890  -19.6971  -14.6401 C   0  0  2  0  0  0  0  0  0  0  0  0
   27.4244  -20.7876  -14.4629 N   0  0  0  0  0  0  0  0  0  0  0  0
   25.1185  -20.1869  -14.3266 C   0  0  0  0  0  0  0  0  0  0  0  0
   24.8456  -21.4340  -14.3242 O   0  0  0  0  0  0  0  0  0  0  0  0
   21.7530  -19.5533  -10.2040 N   0  0  0  0  0  0  0  0  0  0  0  0
   20.5651  -19.7617  -10.9561 C   0  0  0  0  0  0  0  0  0  0  0  0
   19.5645  -20.2575  -10.4150 O   0  0  0  0  0  0  0  0  0  0  0  0
   20.5828  -19.3642  -12.3922 C   0  0  0  0  0  0  0  0  0  0  0  0
   21.9641  -18.9505  -12.7494 C   0  0  0  0  0  0  0  0  0  0  0  0
   22.7073  -19.8022  -13.6957 C   0  0  2  0  0  0  0  0  0  0  0  0
   24.0377  -19.3167  -14.0138 N   0  0  0  0  0  0  0  0  0  0  0  0
   21.9545  -20.1310  -14.9581 C   0  0  0  0  0  0  0  0  0  0  0  0
   21.8813  -19.2626  -15.8621 O   0  0  0  0  0  0  0  0  0  0  0  0
   21.3643  -21.3961  -15.0752 N   0  0  0  0  0  0  0  0  0  0  0  0
   20.6477  -21.9698  -16.1607 C   0  0  1  0  0  0  0  0  0  0  0  0
   20.6834  -23.4580  -16.1818 C   0  0  0  0  0  0  0  0  0  0  0  0
   20.0840  -24.0091  -17.4380 C   0  0  0  0  0  0  0  0  0  0  0  0
   20.1430  -25.5345  -17.4301 C   0  0  0  0  0  0  0  0  0  0  0  0
   19.5214  -25.9738  -18.7555 C   0  0  0  0  0  0  0  0  0  0  0  0
   19.5698  -27.4240  -18.8662 N   0  0  0  0  0  0  0  0  0  0  0  0
   19.2941  -21.4062  -16.3020 C   0  0  0  0  0  0  0  0  0  0  0  0
   18.5775  -21.0752  -15.3490 O   0  0  0  0  0  0  0  0  0  0  0  0
   18.7911  -21.2359  -17.5866 O   0  0  0  0  0  0  0  0  0  0  0  0
  2  1  1  0
  3  4  1  0
  3  2  1  0
  4  5  1  0
  5  6  1  6
  7  5  1  0
  8  7  2  0
 10  9  1  0
 11 10  2  0
 12 10  1  0
 14 13  1  6
 13 12  1  0
 14 15  1  0
 15  7  1  0
 16 14  1  0
 17 16  2  0
 18 16  1  0
 19 25  1  0
 19 18  1  0
 19 20  1  1
 21 20  1  0
 22 21  1  0
 22 23  1  0
 23 24  1  0
 25 27  1  0
 26 25  2  0
M  END
$$$$
