MQK.pdb
     RDKit          3D

 27 26  0  0  1  0  0  0  0  0999 V2000
   28.8009  -15.2740  -17.3950 C   0  0  0  0  0  0  0  0  0  0  0  0
   27.6270  -16.3340  -16.5462 S   0  0  0  0  0  0  0  0  0  0  0  0
   28.0170  -18.0908  -16.7959 C   0  0  0  0  0  0  0  0  0  0  0  0
   27.0234  -18.9304  -16.0691 C   0  0  0  0  0  0  0  0  0  0  0  0
   27.6131  -20.1407  -15.4254 C   0  0  2  0  0  0  0  0  0  0  0  0
   28.1044  -21.0395  -16.4483 N   0  0  0  0  0  0  0  0  0  0  0  0
   26.5700  -20.8455  -14.6305 C   0  0  0  0  0  0  0  0  0  0  0  0
   25.8270  -21.7396  -15.1581 O   0  0  0  0  0  0  0  0  0  0  0  0
   26.1759  -21.6351   -8.5378 N   0  0  0  0  0  0  0  0  0  0  0  0
   25.8278  -20.2975   -8.8692 C   0  0  0  0  0  0  0  0  0  0  0  0
   25.8355  -19.4172   -7.9947 O   0  0  0  0  0  0  0  0  0  0  0  0
   25.4624  -20.0138  -10.2858 C   0  0  0  0  0  0  0  0  0  0  0  0
   25.5140  -21.2869  -11.0496 C   0  0  0  0  0  0  0  0  0  0  0  0
   25.2706  -21.2206  -12.5020 C   0  0  2  0  0  0  0  0  0  0  0  0
   26.3324  -20.5774  -13.2539 N   0  0  0  0  0  0  0  0  0  0  0  0
   23.9342  -20.6389  -12.8815 C   0  0  0  0  0  0  0  0  0  0  0  0
   23.7997  -19.3905  -12.8943 O   0  0  0  0  0  0  0  0  0  0  0  0
   22.8907  -21.5153  -13.2069 N   0  0  0  0  0  0  0  0  0  0  0  0
   21.5748  -21.2342  -13.6654 C   0  0  1  0  0  0  0  0  0  0  0  0
   21.0726  -22.2056  -14.6757 C   0  0  0  0  0  0  0  0  0  0  0  0
   19.7806  -21.7552  -15.2832 C   0  0  0  0  0  0  0  0  0  0  0  0
   19.3169  -22.7503  -16.3439 C   0  0  0  0  0  0  0  0  0  0  0  0
   18.0570  -22.1378  -16.9551 C   0  0  0  0  0  0  0  0  0  0  0  0
   17.5310  -23.0188  -17.9870 N   0  0  0  0  0  0  0  0  0  0  0  0
   20.6339  -20.9883  -12.5590 C   0  0  0  0  0  0  0  0  0  0  0  0
   19.6667  -20.2196  -12.6287 O   0  0  0  0  0  0  0  0  0  0  0  0
   20.8466  -21.6625  -11.3620 O   0  0  0  0  0  0  0  0  0  0  0  0
  2  1  1  0
  3  4  1  0
  3  2  1  0
  4  5  1  0
  5  6  1  6
  7  5  1  0
  8  7  2  0
 10  9  1  0
 11 10  2  0
 12 10  1  0
 14 13  1  1
 13 12  1  0
 14 15  1  0
 15  7  1  0
 16 14  1  0
 17 16  2  0
 18 16  1  0
 19 25  1  0
 19 18  1  0
 19 20  1  1
 21 20  1  0
 22 21  1  0
 22 23  1  0
 23 24  1  0
 25 27  1  0
 26 25  2  0
M  END
$$$$
