MQK.pdb
     RDKit          3D

 27 26  0  0  1  0  0  0  0  0999 V2000
   19.1503  -14.3396  -21.9386 C   0  0  0  0  0  0  0  0  0  0  0  0
   18.7693  -13.3184  -20.5125 S   0  0  0  0  0  0  0  0  0  0  0  0
   20.2603  -12.9493  -19.5422 C   0  0  0  0  0  0  0  0  0  0  0  0
   19.9053  -12.0588  -18.4014 C   0  0  0  0  0  0  0  0  0  0  0  0
   21.0597  -11.7217  -17.5180 C   0  0  2  0  0  0  0  0  0  0  0  0
   21.4665  -12.9020  -16.7853 N   0  0  0  0  0  0  0  0  0  0  0  0
   20.6568  -10.6698  -16.5444 C   0  0  0  0  0  0  0  0  0  0  0  0
   19.8402  -10.9230  -15.5963 O   0  0  0  0  0  0  0  0  0  0  0  0
   23.5318   -5.4991  -14.9915 N   0  0  0  0  0  0  0  0  0  0  0  0
   22.2837   -5.1432  -14.4121 C   0  0  0  0  0  0  0  0  0  0  0  0
   22.1640   -4.0692  -13.8022 O   0  0  0  0  0  0  0  0  0  0  0  0
   21.1544   -6.1025  -14.5709 C   0  0  0  0  0  0  0  0  0  0  0  0
   21.6081   -7.2261  -15.4300 C   0  0  0  0  0  0  0  0  0  0  0  0
   20.6244   -8.2742  -15.7570 C   0  0  2  0  0  0  0  0  0  0  0  0
   21.1438   -9.3346  -16.6011 N   0  0  0  0  0  0  0  0  0  0  0  0
   19.3240   -7.7540  -16.3109 C   0  0  0  0  0  0  0  0  0  0  0  0
   19.2377   -7.5316  -17.5438 O   0  0  0  0  0  0  0  0  0  0  0  0
   18.2585   -7.5384  -15.4272 N   0  0  0  0  0  0  0  0  0  0  0  0
   16.9407   -7.0724  -15.6861 C   0  0  1  0  0  0  0  0  0  0  0  0
   15.8783   -8.0531  -15.3312 C   0  0  0  0  0  0  0  0  0  0  0  0
   14.5166   -7.5538  -15.7022 C   0  0  0  0  0  0  0  0  0  0  0  0
   13.4701   -8.6399  -15.4666 C   0  0  0  0  0  0  0  0  0  0  0  0
   12.1524   -8.0534  -15.9722 C   0  0  0  0  0  0  0  0  0  0  0  0
   11.1184   -9.0772  -15.9560 N   0  0  0  0  0  0  0  0  0  0  0  0
   16.7056   -5.7215  -15.1477 C   0  0  0  0  0  0  0  0  0  0  0  0
   15.9880   -4.8729  -15.6920 O   0  0  0  0  0  0  0  0  0  0  0  0
   17.3294   -5.3794  -13.9535 O   0  0  0  0  0  0  0  0  0  0  0  0
  2  1  1  0
  3  4  1  0
  3  2  1  0
  4  5  1  0
  5  6  1  1
  7  5  1  0
  8  7  2  0
 10  9  1  0
 11 10  2  0
 12 10  1  0
 14 13  1  6
 13 12  1  0
 14 15  1  0
 15  7  1  0
 16 14  1  0
 17 16  2  0
 18 16  1  0
 19 25  1  0
 19 18  1  0
 19 20  1  1
 21 20  1  0
 22 21  1  0
 22 23  1  0
 23 24  1  0
 25 27  1  0
 26 25  2  0
M  END
$$$$
