MQK.pdb
     RDKit          3D

 27 26  0  0  1  0  0  0  0  0999 V2000
   25.8861  -17.0070  -18.0339 C   0  0  0  0  0  0  0  0  0  0  0  0
   27.3137  -17.8770  -18.6874 S   0  0  0  0  0  0  0  0  0  0  0  0
   27.9739  -19.0679  -17.4846 C   0  0  0  0  0  0  0  0  0  0  0  0
   26.8686  -19.5671  -16.6188 C   0  0  0  0  0  0  0  0  0  0  0  0
   27.3368  -20.3041  -15.4086 C   0  0  2  0  0  0  0  0  0  0  0  0
   28.2029  -21.3916  -15.8119 N   0  0  0  0  0  0  0  0  0  0  0  0
   26.1673  -20.8689  -14.6808 C   0  0  0  0  0  0  0  0  0  0  0  0
   25.6156  -21.9569  -15.0573 O   0  0  0  0  0  0  0  0  0  0  0  0
   24.8815  -20.6986   -8.6691 N   0  0  0  0  0  0  0  0  0  0  0  0
   26.1005  -21.0789   -9.2933 C   0  0  0  0  0  0  0  0  0  0  0  0
   27.1217  -21.2534   -8.6105 O   0  0  0  0  0  0  0  0  0  0  0  0
   26.0891  -21.2529  -10.7733 C   0  0  0  0  0  0  0  0  0  0  0  0
   24.7709  -20.8036  -11.2903 C   0  0  0  0  0  0  0  0  0  0  0  0
   24.5497  -20.8742  -12.7460 C   0  0  2  0  0  0  0  0  0  0  0  0
   25.5934  -20.2482  -13.5369 N   0  0  0  0  0  0  0  0  0  0  0  0
   23.1945  -20.3918  -13.1922 C   0  0  0  0  0  0  0  0  0  0  0  0
   22.9278  -19.1682  -13.1002 O   0  0  0  0  0  0  0  0  0  0  0  0
   22.2822  -21.3291  -13.6942 N   0  0  0  0  0  0  0  0  0  0  0  0
   20.9746  -21.1371  -14.2176 C   0  0  1  0  0  0  0  0  0  0  0  0
   20.4947  -22.2676  -15.0592 C   0  0  0  0  0  0  0  0  0  0  0  0
   19.2370  -21.9181  -15.7921 C   0  0  0  0  0  0  0  0  0  0  0  0
   18.7731  -23.0972  -16.6434 C   0  0  0  0  0  0  0  0  0  0  0  0
   17.6280  -22.5570  -17.4995 C   0  0  0  0  0  0  0  0  0  0  0  0
   17.1141  -23.6128  -18.3590 N   0  0  0  0  0  0  0  0  0  0  0  0
   20.0118  -20.7145  -13.1859 C   0  0  0  0  0  0  0  0  0  0  0  0
   19.1380  -19.8563  -13.3623 O   0  0  0  0  0  0  0  0  0  0  0  0
   20.0905  -21.3183  -11.9362 O   0  0  0  0  0  0  0  0  0  0  0  0
  2  1  1  0
  3  4  1  0
  3  2  1  0
  4  5  1  0
  5  6  1  6
  7  5  1  0
  8  7  2  0
 10  9  1  0
 11 10  2  0
 12 10  1  0
 14 13  1  1
 13 12  1  0
 14 15  1  0
 15  7  1  0
 16 14  1  0
 17 16  2  0
 18 16  1  0
 19 25  1  0
 19 18  1  0
 19 20  1  1
 21 20  1  0
 22 21  1  0
 22 23  1  0
 23 24  1  0
 25 27  1  0
 26 25  2  0
M  END
$$$$
