MQK.pdb
     RDKit          3D

 27 26  0  0  1  0  0  0  0  0999 V2000
   22.1159  -25.6040  -22.0578 C   0  0  0  0  0  0  0  0  0  0  0  0
   21.4185  -23.9540  -21.9430 S   0  0  0  0  0  0  0  0  0  0  0  0
   22.6447  -22.7547  -21.3440 C   0  0  0  0  0  0  0  0  0  0  0  0
   22.6857  -22.7848  -19.8548 C   0  0  0  0  0  0  0  0  0  0  0  0
   23.6856  -21.8501  -19.2602 C   0  0  2  0  0  0  0  0  0  0  0  0
   25.0170  -22.3875  -19.4453 N   0  0  0  0  0  0  0  0  0  0  0  0
   23.4286  -21.7012  -17.8014 C   0  0  0  0  0  0  0  0  0  0  0  0
   23.2430  -22.7198  -17.0544 O   0  0  0  0  0  0  0  0  0  0  0  0
   25.1552  -16.8803  -15.5043 N   0  0  0  0  0  0  0  0  0  0  0  0
   26.0468  -17.9653  -15.2855 C   0  0  0  0  0  0  0  0  0  0  0  0
   27.2726  -17.7725  -15.2804 O   0  0  0  0  0  0  0  0  0  0  0  0
   25.4486  -19.3127  -15.0680 C   0  0  0  0  0  0  0  0  0  0  0  0
   23.9695  -19.1858  -15.1229 C   0  0  0  0  0  0  0  0  0  0  0  0
   23.2112  -20.3034  -15.7136 C   0  0  2  0  0  0  0  0  0  0  0  0
   23.3728  -20.4381  -17.1497 N   0  0  0  0  0  0  0  0  0  0  0  0
   21.7504  -20.3247  -15.3472 C   0  0  0  0  0  0  0  0  0  0  0  0
   20.9515  -19.6133  -16.0048 O   0  0  0  0  0  0  0  0  0  0  0  0
   21.3387  -21.1397  -14.2847 N   0  0  0  0  0  0  0  0  0  0  0  0
   20.0427  -21.3306  -13.7325 C   0  0  1  0  0  0  0  0  0  0  0  0
   19.9325  -22.5369  -12.8669 C   0  0  0  0  0  0  0  0  0  0  0  0
   18.5049  -22.8866  -12.5827 C   0  0  0  0  0  0  0  0  0  0  0  0
   18.4218  -24.2173  -11.8392 C   0  0  0  0  0  0  0  0  0  0  0  0
   16.9323  -24.5521  -11.7671 C   0  0  0  0  0  0  0  0  0  0  0  0
   16.7387  -25.7793  -11.0093 N   0  0  0  0  0  0  0  0  0  0  0  0
   19.5084  -20.1051  -13.1141 C   0  0  0  0  0  0  0  0  0  0  0  0
   20.1538  -19.3745  -12.3519 O   0  0  0  0  0  0  0  0  0  0  0  0
   18.1970  -19.7477  -13.4055 O   0  0  0  0  0  0  0  0  0  0  0  0
  2  1  1  0
  3  4  1  0
  3  2  1  0
  4  5  1  0
  5  6  1  1
  7  5  1  0
  8  7  2  0
 10  9  1  0
 11 10  2  0
 12 10  1  0
 14 13  1  6
 13 12  1  0
 14 15  1  0
 15  7  1  0
 16 14  1  0
 17 16  2  0
 18 16  1  0
 19 25  1  0
 19 18  1  0
 19 20  1  1
 21 20  1  0
 22 21  1  0
 22 23  1  0
 23 24  1  0
 25 27  1  0
 26 25  2  0
M  END
$$$$
