MQK.pdb
     RDKit          3D

 27 26  0  0  1  0  0  0  0  0999 V2000
   27.6538  -18.7960   -4.4507 C   0  0  0  0  0  0  0  0  0  0  0  0
   29.0808  -19.4045   -5.3537 S   0  0  0  0  0  0  0  0  0  0  0  0
   28.5987  -20.6129   -6.6218 C   0  0  0  0  0  0  0  0  0  0  0  0
   27.5451  -20.0249   -7.4962 C   0  0  0  0  0  0  0  0  0  0  0  0
   27.0972  -20.9316   -8.5935 C   0  0  2  0  0  0  0  0  0  0  0  0
   28.2406  -21.3281   -9.3879 N   0  0  0  0  0  0  0  0  0  0  0  0
   26.1294  -20.2179   -9.4713 C   0  0  0  0  0  0  0  0  0  0  0  0
   26.3586  -19.0311   -9.8820 O   0  0  0  0  0  0  0  0  0  0  0  0
   26.9512  -21.8754  -14.0975 N   0  0  0  0  0  0  0  0  0  0  0  0
   25.9158  -21.0684  -14.6423 C   0  0  0  0  0  0  0  0  0  0  0  0
   25.8892  -20.8274  -15.8592 O   0  0  0  0  0  0  0  0  0  0  0  0
   24.8894  -20.5397  -13.7000 C   0  0  0  0  0  0  0  0  0  0  0  0
   25.2142  -21.0194  -12.3321 C   0  0  0  0  0  0  0  0  0  0  0  0
   24.3522  -20.5622  -11.2271 C   0  0  2  0  0  0  0  0  0  0  0  0
   24.9050  -20.7970   -9.9058 N   0  0  0  0  0  0  0  0  0  0  0  0
   22.9340  -21.0642  -11.2977 C   0  0  0  0  0  0  0  0  0  0  0  0
   22.6837  -22.2278  -10.8977 O   0  0  0  0  0  0  0  0  0  0  0  0
   21.9466  -20.2110  -11.8076 N   0  0  0  0  0  0  0  0  0  0  0  0
   20.6107  -20.4967  -12.2009 C   0  0  1  0  0  0  0  0  0  0  0  0
   19.9949  -19.4353  -13.0440 C   0  0  0  0  0  0  0  0  0  0  0  0
   18.6041  -19.7975  -13.4629 C   0  0  0  0  0  0  0  0  0  0  0  0
   17.5812  -19.0693  -12.5947 C   0  0  0  0  0  0  0  0  0  0  0  0
   16.2534  -19.1875  -13.3423 C   0  0  0  0  0  0  0  0  0  0  0  0
   15.1968  -18.5445  -12.5757 N   0  0  0  0  0  0  0  0  0  0  0  0
   20.4651  -21.8539  -12.7546 C   0  0  0  0  0  0  0  0  0  0  0  0
   19.5679  -22.6425  -12.4313 O   0  0  0  0  0  0  0  0  0  0  0  0
   21.3941  -22.2743  -13.6994 O   0  0  0  0  0  0  0  0  0  0  0  0
  2  1  1  0
  3  4  1  0
  3  2  1  0
  4  5  1  0
  5  6  1  6
  7  5  1  0
  8  7  2  0
 10  9  1  0
 11 10  2  0
 12 10  1  0
 14 13  1  6
 13 12  1  0
 14 15  1  0
 15  7  1  0
 16 14  1  0
 17 16  2  0
 18 16  1  0
 19 25  1  0
 19 18  1  0
 19 20  1  6
 21 20  1  0
 22 21  1  0
 22 23  1  0
 23 24  1  0
 25 27  1  0
 26 25  2  0
M  END
$$$$
