RGW.pdb
     RDKit          3D

 30 31  0  0  1  0  0  0  0  0999 V2000
    7.5996  -17.2563   16.2183 N   0  0  0  0  0  0  0  0  0  0  0  0
    7.9230  -16.6624   14.9643 C   0  0  0  0  0  0  0  0  0  0  0  0
    7.5212  -17.2292   13.8788 N   0  0  0  0  0  0  0  0  0  0  0  0
    8.6809  -15.4556   14.8930 N   0  0  0  0  0  0  0  0  0  0  0  0
    8.6503  -14.4797   15.9922 C   0  0  0  0  0  0  0  0  0  0  0  0
    7.3491  -14.5387   16.7276 C   0  0  0  0  0  0  0  0  0  0  0  0
    7.2017  -13.5779   17.8606 C   0  0  0  0  0  0  0  0  0  0  0  0
    8.3209  -13.5340   18.8423 C   0  0  2  0  0  0  0  0  0  0  0  0
    9.6160  -13.8024   18.2614 N   0  0  0  0  0  0  0  0  0  0  0  0
    8.1293  -14.4376   19.9947 C   0  0  0  0  0  0  0  0  0  0  0  0
    7.0653  -14.3523   20.6509 O   0  0  0  0  0  0  0  0  0  0  0  0
    7.6831  -16.7822   12.9636 N   0  0  0  0  0  0  0  0  0  0  0  0
    9.0829  -15.3994   20.4029 C   0  0  0  0  0  0  0  0  0  0  0  0
    8.9477  -16.3038   21.4976 C   0  0  0  0  0  0  0  0  0  0  0  0
    9.6704  -15.8700   22.7242 O   0  0  0  0  0  0  0  0  0  0  0  0
   10.5666  -15.0162   22.7512 N   0  0  0  0  0  0  0  0  0  0  0  0
    9.2857  -16.4973   23.9442 C   0  0  1  0  0  0  0  0  0  0  0  0
    9.9774  -16.3106   25.1971 C   0  0  0  0  0  0  0  0  0  0  0  0
    9.0319  -16.2603   26.3629 C   0  0  0  0  0  0  0  0  0  0  0  0
    7.8938  -15.3751   26.0918 C   0  0  0  0  0  0  0  0  0  0  0  0
    6.6655  -15.8331   25.6312 N   0  0  0  0  0  0  0  0  0  0  0  0
    5.8332  -14.7988   25.4765 C   0  0  0  0  0  0  0  0  0  0  0  0
    6.4687  -13.6687   25.8194 C   0  0  0  0  0  0  0  0  0  0  0  0
    6.0323  -12.3596   25.8276 C   0  0  0  0  0  0  0  0  0  0  0  0
    6.9212  -11.3720   26.2371 C   0  0  0  0  0  0  0  0  0  0  0  0
    8.1931  -11.7308   26.6165 C   0  0  0  0  0  0  0  0  0  0  0  0
    8.6326  -13.0508   26.6082 C   0  0  0  0  0  0  0  0  0  0  0  0
    7.7526  -14.0136   26.2045 C   0  0  0  0  0  0  0  0  0  0  0  0
   11.0752  -17.2859   25.3650 O   0  0  0  0  0  0  0  0  0  0  0  0
   11.2172  -18.2677   24.5938 O   0  0  0  0  0  0  0  0  0  0  0  0
  2  3  2  0
  2  1  1  0
  4  2  1  0
  5  4  1  0
  6  5  1  0
  7  6  1  0
  7  8  1  0
  8  9  1  6
 10  8  1  0
 10 12  1  0
 11 10  2  0
 13 12  1  0
 14 13  1  0
 15 14  2  0
 16 14  1  0
 17 28  1  0
 17 16  1  0
 17 18  1  1
 19 18  1  0
 20 19  2  0
 21 22  1  0
 21 20  1  0
 22 27  2  0
 23 22  1  0
 23 24  2  0
 24 25  1  0
 25 26  2  0
 27 19  1  0
 27 26  1  0
 28 30  1  0
 29 28  2  0
M  END
$$$$
