RGW.pdb
     RDKit          3D

 30 31  0  0  1  0  0  0  0  0999 V2000
   11.4107  -20.1547   16.2621 N   0  0  0  0  0  0  0  0  0  0  0  0
   10.4597  -20.9216   15.5292 C   0  0  0  0  0  0  0  0  0  0  0  0
   10.8082  -21.4455   14.4044 N   0  0  0  0  0  0  0  0  0  0  0  0
    9.1342  -21.1175   16.0198 N   0  0  0  0  0  0  0  0  0  0  0  0
    8.3462  -19.9883   16.5352 C   0  0  0  0  0  0  0  0  0  0  0  0
    9.1756  -19.1137   17.4211 C   0  0  0  0  0  0  0  0  0  0  0  0
    8.4815  -17.9174   17.9829 C   0  0  0  0  0  0  0  0  0  0  0  0
    8.4215  -17.8226   19.4681 C   0  0  2  0  0  0  0  0  0  0  0  0
    7.2716  -18.4774   20.0475 N   0  0  0  0  0  0  0  0  0  0  0  0
    8.4727  -16.4354   19.9722 C   0  0  0  0  0  0  0  0  0  0  0  0
    8.2700  -15.4983   19.1656 O   0  0  0  0  0  0  0  0  0  0  0  0
   10.1352  -22.0006   13.8543 N   0  0  0  0  0  0  0  0  0  0  0  0
    8.7388  -16.1014   21.3208 C   0  0  0  0  0  0  0  0  0  0  0  0
    8.7307  -14.7883   21.8780 C   0  0  0  0  0  0  0  0  0  0  0  0
    9.2385  -14.7290   23.2757 O   0  0  0  0  0  0  0  0  0  0  0  0
    9.6311  -13.7001   23.8415 N   0  0  0  0  0  0  0  0  0  0  0  0
    9.2659  -15.9586   23.9950 C   0  0  1  0  0  0  0  0  0  0  0  0
    9.9538  -16.1402   25.2507 C   0  0  0  0  0  0  0  0  0  0  0  0
    9.0005  -16.3304   26.3954 C   0  0  0  0  0  0  0  0  0  0  0  0
    7.8074  -15.4900   26.2442 C   0  0  0  0  0  0  0  0  0  0  0  0
    6.5982  -15.9657   25.7521 N   0  0  0  0  0  0  0  0  0  0  0  0
    5.7043  -14.9723   25.7292 C   0  0  0  0  0  0  0  0  0  0  0  0
    6.2803  -13.8524   26.1902 C   0  0  0  0  0  0  0  0  0  0  0  0
    5.7691  -12.5813   26.3548 C   0  0  0  0  0  0  0  0  0  0  0  0
    6.6078  -11.5950   26.8620 C   0  0  0  0  0  0  0  0  0  0  0  0
    7.9061  -11.9176   27.1792 C   0  0  0  0  0  0  0  0  0  0  0  0
    8.4211  -13.1994   27.0131 C   0  0  0  0  0  0  0  0  0  0  0  0
    7.5900  -14.1611   26.5145 C   0  0  0  0  0  0  0  0  0  0  0  0
   10.9884  -17.1918   25.1590 O   0  0  0  0  0  0  0  0  0  0  0  0
   11.0238  -18.0096   24.2057 O   0  0  0  0  0  0  0  0  0  0  0  0
  2  3  2  0
  2  1  1  0
  4  2  1  0
  5  4  1  0
  6  5  1  0
  7  6  1  0
  7  8  1  0
  8  9  1  6
 10  8  1  0
 10 12  1  0
 11 10  2  0
 13 12  1  0
 14 13  1  0
 15 14  2  0
 16 14  1  0
 17 28  1  0
 17 16  1  0
 17 18  1  1
 19 18  1  0
 20 19  2  0
 21 22  1  0
 21 20  1  0
 22 27  2  0
 23 22  1  0
 23 24  2  0
 24 25  1  0
 25 26  2  0
 27 19  1  0
 27 26  1  0
 28 30  1  0
 29 28  2  0
M  END
$$$$
