RGW.pdb
     RDKit          3D

 30 31  0  0  1  0  0  0  0  0999 V2000
    7.1443  -20.3847   13.9144 N   0  0  0  0  0  0  0  0  0  0  0  0
    8.4198  -19.7568   13.8214 C   0  0  0  0  0  0  0  0  0  0  0  0
    8.5517  -18.7094   13.0820 N   0  0  0  0  0  0  0  0  0  0  0  0
    9.5472  -20.2676   14.5314 N   0  0  0  0  0  0  0  0  0  0  0  0
    9.6258  -20.1656   15.9959 C   0  0  0  0  0  0  0  0  0  0  0  0
    8.3885  -19.5411   16.5587 C   0  0  0  0  0  0  0  0  0  0  0  0
    8.3835  -19.3324   18.0368 C   0  0  0  0  0  0  0  0  0  0  0  0
    9.2213  -18.2135   18.5511 C   0  0  2  0  0  0  0  0  0  0  0  0
   10.4263  -18.6476   19.2191 N   0  0  0  0  0  0  0  0  0  0  0  0
    8.4922  -17.2973   19.4511 C   0  0  0  0  0  0  0  0  0  0  0  0
    7.3127  -16.9885   19.1624 O   0  0  0  0  0  0  0  0  0  0  0  0
    9.4694  -18.2487   12.9856 N   0  0  0  0  0  0  0  0  0  0  0  0
    9.0515  -16.7450   20.6273 C   0  0  0  0  0  0  0  0  0  0  0  0
    8.3859  -15.8842   21.5496 C   0  0  0  0  0  0  0  0  0  0  0  0
    9.2196  -15.5063   22.7230 O   0  0  0  0  0  0  0  0  0  0  0  0
   10.0512  -14.5890   22.7326 N   0  0  0  0  0  0  0  0  0  0  0  0
    9.0297  -16.2704   23.9104 C   0  0  1  0  0  0  0  0  0  0  0  0
    9.8343  -16.1217   25.0994 C   0  0  0  0  0  0  0  0  0  0  0  0
    8.9947  -15.9966   26.3383 C   0  0  0  0  0  0  0  0  0  0  0  0
    7.8516  -15.1025   26.1228 C   0  0  0  0  0  0  0  0  0  0  0  0
    6.5953  -15.5523   25.7352 N   0  0  0  0  0  0  0  0  0  0  0  0
    5.7656  -14.5112   25.6176 C   0  0  0  0  0  0  0  0  0  0  0  0
    6.4297  -13.3845   25.9146 C   0  0  0  0  0  0  0  0  0  0  0  0
    6.0067  -12.0712   25.9352 C   0  0  0  0  0  0  0  0  0  0  0  0
    6.9263  -11.0890   26.2859 C   0  0  0  0  0  0  0  0  0  0  0  0
    8.2138  -11.4571   26.5974 C   0  0  0  0  0  0  0  0  0  0  0  0
    8.6398  -12.7814   26.5766 C   0  0  0  0  0  0  0  0  0  0  0  0
    7.7297  -13.7388   26.2309 C   0  0  0  0  0  0  0  0  0  0  0  0
   10.8732  -17.1691   25.1898 O   0  0  0  0  0  0  0  0  0  0  0  0
   10.8903  -18.1585   24.4154 O   0  0  0  0  0  0  0  0  0  0  0  0
  2  3  2  0
  2  1  1  0
  4  2  1  0
  5  4  1  0
  6  5  1  0
  7  6  1  0
  7  8  1  0
  8  9  1  1
 10  8  1  0
 10 12  1  0
 11 10  2  0
 13 12  1  0
 14 13  1  0
 15 14  2  0
 16 14  1  0
 17 28  1  0
 17 16  1  0
 17 18  1  1
 19 18  1  0
 20 19  2  0
 21 22  1  0
 21 20  1  0
 22 27  2  0
 23 22  1  0
 23 24  2  0
 24 25  1  0
 25 26  2  0
 27 19  1  0
 27 26  1  0
 28 30  1  0
 29 28  2  0
M  END
$$$$
