RGW.pdb
     RDKit          3D

 30 31  0  0  1  0  0  0  0  0999 V2000
    7.6688  -12.5171   16.1837 N   0  0  0  0  0  0  0  0  0  0  0  0
    7.7425  -13.9390   16.2343 C   0  0  0  0  0  0  0  0  0  0  0  0
    7.3597  -14.6244   15.2122 N   0  0  0  0  0  0  0  0  0  0  0  0
    8.2314  -14.6117   17.3938 N   0  0  0  0  0  0  0  0  0  0  0  0
    8.7524  -13.8547   18.5414 C   0  0  0  0  0  0  0  0  0  0  0  0
    7.6983  -13.6686   19.5862 C   0  0  0  0  0  0  0  0  0  0  0  0
    7.7944  -14.5717   20.7709 C   0  0  0  0  0  0  0  0  0  0  0  0
    8.4823  -15.8752   20.5565 C   0  0  2  0  0  0  0  0  0  0  0  0
    7.5817  -16.9709   20.2822 N   0  0  0  0  0  0  0  0  0  0  0  0
    9.3663  -16.2653   21.6735 C   0  0  0  0  0  0  0  0  0  0  0  0
   10.2827  -15.4810   22.0127 O   0  0  0  0  0  0  0  0  0  0  0  0
    7.5674  -15.6327   15.1502 N   0  0  0  0  0  0  0  0  0  0  0  0
    9.2376  -17.4801   22.3867 C   0  0  0  0  0  0  0  0  0  0  0  0
   10.0480  -17.9003   23.4828 C   0  0  0  0  0  0  0  0  0  0  0  0
   10.2346  -16.8535   24.5240 O   0  0  0  0  0  0  0  0  0  0  0  0
   10.7087  -15.7285   24.3177 N   0  0  0  0  0  0  0  0  0  0  0  0
    9.8312  -17.1940   25.8474 C   0  0  1  0  0  0  0  0  0  0  0  0
   10.2479  -16.4721   27.0257 C   0  0  0  0  0  0  0  0  0  0  0  0
    9.0831  -16.0718   27.8850 C   0  0  0  0  0  0  0  0  0  0  0  0
    8.0815  -15.3251   27.1156 C   0  0  0  0  0  0  0  0  0  0  0  0
    7.0267  -15.9332   26.4462 N   0  0  0  0  0  0  0  0  0  0  0  0
    6.2879  -15.0006   25.8373 C   0  0  0  0  0  0  0  0  0  0  0  0
    6.8176  -13.7928   26.0806 C   0  0  0  0  0  0  0  0  0  0  0  0
    6.4166  -12.5371   25.6724 C   0  0  0  0  0  0  0  0  0  0  0  0
    7.1684  -11.4410   26.0806 C   0  0  0  0  0  0  0  0  0  0  0  0
    8.2756  -11.6443   26.8699 C   0  0  0  0  0  0  0  0  0  0  0  0
    8.6794  -12.9106   27.2814 C   0  0  0  0  0  0  0  0  0  0  0  0
    7.9349  -13.9808   26.8755 C   0  0  0  0  0  0  0  0  0  0  0  0
   11.3077  -17.1935   27.7613 O   0  0  0  0  0  0  0  0  0  0  0  0
   11.6442  -18.3670   27.4635 O   0  0  0  0  0  0  0  0  0  0  0  0
  2  3  2  0
  2  1  1  0
  4  2  1  0
  5  4  1  0
  6  5  1  0
  7  6  1  0
  7  8  1  0
  8  9  1  1
 10  8  1  0
 10 12  1  0
 11 10  2  0
 13 12  1  0
 14 13  1  0
 15 14  2  0
 16 14  1  0
 17 28  1  0
 17 16  1  0
 17 18  1  1
 19 18  1  0
 20 19  2  0
 21 22  1  0
 21 20  1  0
 22 27  2  0
 23 22  1  0
 23 24  2  0
 24 25  1  0
 25 26  2  0
 27 19  1  0
 27 26  1  0
 28 30  1  0
 29 28  2  0
M  END
$$$$
