RGW.pdb
     RDKit          3D

 30 31  0  0  1  0  0  0  0  0999 V2000
    8.5987  -15.8076   15.8078 N   0  0  0  0  0  0  0  0  0  0  0  0
    8.6698  -14.4490   16.2310 C   0  0  0  0  0  0  0  0  0  0  0  0
    8.3563  -13.5152   15.4000 N   0  0  0  0  0  0  0  0  0  0  0  0
    9.0808  -14.1090   17.5545 N   0  0  0  0  0  0  0  0  0  0  0  0
    8.4702  -12.9768   18.2664 C   0  0  0  0  0  0  0  0  0  0  0  0
    7.3499  -13.4352   19.1451 C   0  0  0  0  0  0  0  0  0  0  0  0
    7.7561  -14.1184   20.4087 C   0  0  0  0  0  0  0  0  0  0  0  0
    7.6333  -15.6026   20.4287 C   0  0  2  0  0  0  0  0  0  0  0  0
    6.2987  -16.0804   20.1511 N   0  0  0  0  0  0  0  0  0  0  0  0
    8.0959  -16.2148   21.6906 C   0  0  0  0  0  0  0  0  0  0  0  0
    7.2966  -16.2762   22.6535 O   0  0  0  0  0  0  0  0  0  0  0  0
    8.3001  -12.5337   15.7119 N   0  0  0  0  0  0  0  0  0  0  0  0
    9.3965  -16.7392   21.8762 C   0  0  0  0  0  0  0  0  0  0  0  0
    9.8763  -17.4010   23.0452 C   0  0  0  0  0  0  0  0  0  0  0  0
   10.1031  -16.4879   24.1983 O   0  0  0  0  0  0  0  0  0  0  0  0
   10.4703  -15.3092   24.1044 N   0  0  0  0  0  0  0  0  0  0  0  0
    9.8752  -17.0325   25.4950 C   0  0  1  0  0  0  0  0  0  0  0  0
   10.1708  -16.3348   26.7234 C   0  0  0  0  0  0  0  0  0  0  0  0
    8.9551  -16.1778   27.5911 C   0  0  0  0  0  0  0  0  0  0  0  0
    7.8723  -15.4919   26.8772 C   0  0  0  0  0  0  0  0  0  0  0  0
    6.8390  -16.1628   26.2348 N   0  0  0  0  0  0  0  0  0  0  0  0
    6.0108  -15.2753   25.6755 C   0  0  0  0  0  0  0  0  0  0  0  0
    6.4604  -14.0368   25.9255 C   0  0  0  0  0  0  0  0  0  0  0  0
    5.9533  -12.8063   25.5610 C   0  0  0  0  0  0  0  0  0  0  0  0
    6.6389  -11.6660   25.9648 C   0  0  0  0  0  0  0  0  0  0  0  0
    7.7882  -11.8028   26.7069 C   0  0  0  0  0  0  0  0  0  0  0  0
    8.2991  -13.0437   27.0742 C   0  0  0  0  0  0  0  0  0  0  0  0
    7.6189  -14.1576   26.6730 C   0  0  0  0  0  0  0  0  0  0  0  0
   11.3276  -16.9305   27.4246 O   0  0  0  0  0  0  0  0  0  0  0  0
   11.8412  -18.0169   27.0576 O   0  0  0  0  0  0  0  0  0  0  0  0
  2  3  2  0
  2  1  1  0
  4  2  1  0
  5  4  1  0
  6  5  1  0
  7  6  1  0
  7  8  1  0
  8  9  1  1
 10  8  1  0
 10 12  1  0
 11 10  2  0
 13 12  1  0
 14 13  1  0
 15 14  2  0
 16 14  1  0
 17 28  1  0
 17 16  1  0
 17 18  1  1
 19 18  1  0
 20 19  2  0
 21 22  1  0
 21 20  1  0
 22 27  2  0
 23 22  1  0
 23 24  2  0
 24 25  1  0
 25 26  2  0
 27 19  1  0
 27 26  1  0
 28 30  1  0
 29 28  2  0
M  END
$$$$
