RGW.pdb
     RDKit          3D

 30 31  0  0  1  0  0  0  0  0999 V2000
    7.1906  -14.7734   14.5936 N   0  0  0  0  0  0  0  0  0  0  0  0
    7.9226  -13.5567   14.4771 C   0  0  0  0  0  0  0  0  0  0  0  0
    8.3986  -13.2178   13.3284 N   0  0  0  0  0  0  0  0  0  0  0  0
    8.1352  -12.7123   15.6076 N   0  0  0  0  0  0  0  0  0  0  0  0
    7.5126  -13.0169   16.9041 C   0  0  0  0  0  0  0  0  0  0  0  0
    7.5981  -14.4783   17.2117 C   0  0  0  0  0  0  0  0  0  0  0  0
    7.9776  -14.8237   18.6135 C   0  0  0  0  0  0  0  0  0  0  0  0
    9.4166  -15.1212   18.8565 C   0  0  2  0  0  0  0  0  0  0  0  0
    9.9878  -16.0488   17.9078 N   0  0  0  0  0  0  0  0  0  0  0  0
    9.6934  -15.6173   20.2197 C   0  0  0  0  0  0  0  0  0  0  0  0
    9.3062  -14.9327   21.1951 O   0  0  0  0  0  0  0  0  0  0  0  0
    8.9408  -12.3469   13.2225 N   0  0  0  0  0  0  0  0  0  0  0  0
   10.3743  -16.8275   20.4897 C   0  0  0  0  0  0  0  0  0  0  0  0
   10.6588  -17.3608   21.7817 C   0  0  0  0  0  0  0  0  0  0  0  0
   11.1276  -16.3413   22.7592 O   0  0  0  0  0  0  0  0  0  0  0  0
   11.6571  -15.2637   22.4568 N   0  0  0  0  0  0  0  0  0  0  0  0
   10.9434  -16.6502   24.1378 C   0  0  1  0  0  0  0  0  0  0  0  0
    9.9612  -16.0114   24.9806 C   0  0  0  0  0  0  0  0  0  0  0  0
    8.6438  -15.8367   24.2811 C   0  0  0  0  0  0  0  0  0  0  0  0
    7.6701  -15.1490   25.1365 C   0  0  0  0  0  0  0  0  0  0  0  0
    6.6229  -15.8015   25.7755 N   0  0  0  0  0  0  0  0  0  0  0  0
    5.9081  -14.9168   26.4773 C   0  0  0  0  0  0  0  0  0  0  0  0
    6.4464  -13.6979   26.3254 C   0  0  0  0  0  0  0  0  0  0  0  0
    6.0682  -12.4774   26.8465 C   0  0  0  0  0  0  0  0  0  0  0  0
    6.8231  -11.3577   26.5150 C   0  0  0  0  0  0  0  0  0  0  0  0
    7.9107  -11.5041   25.6868 C   0  0  0  0  0  0  0  0  0  0  0  0
    8.2917  -12.7349   25.1617 C   0  0  0  0  0  0  0  0  0  0  0  0
    7.5443  -13.8286   25.4929 C   0  0  0  0  0  0  0  0  0  0  0  0
    9.8516  -16.6800   26.2942 O   0  0  0  0  0  0  0  0  0  0  0  0
    9.5684  -16.0468   27.3420 O   0  0  0  0  0  0  0  0  0  0  0  0
  2  3  2  0
  2  1  1  0
  4  2  1  0
  5  4  1  0
  6  5  1  0
  7  6  1  0
  7  8  1  0
  8  9  1  6
 10  8  1  0
 10 12  1  0
 11 10  2  0
 13 12  1  0
 14 13  1  0
 15 14  2  0
 16 14  1  0
 17 28  1  0
 17 16  1  0
 17 18  1  1
 19 18  1  0
 20 19  2  0
 21 22  1  0
 21 20  1  0
 22 27  2  0
 23 22  1  0
 23 24  2  0
 24 25  1  0
 25 26  2  0
 27 19  1  0
 27 26  1  0
 28 30  1  0
 29 28  2  0
M  END
$$$$
