RGW.pdb
     RDKit          3D

 30 31  0  0  1  0  0  0  0  0999 V2000
    9.0055  -13.8114   15.7773 N   0  0  0  0  0  0  0  0  0  0  0  0
    7.6784  -13.9343   15.2737 C   0  0  0  0  0  0  0  0  0  0  0  0
    7.2082  -13.0085   14.5102 N   0  0  0  0  0  0  0  0  0  0  0  0
    6.8666  -15.0614   15.6005 N   0  0  0  0  0  0  0  0  0  0  0  0
    7.3987  -16.1630   16.4158 C   0  0  0  0  0  0  0  0  0  0  0  0
    7.8723  -15.6679   17.7455 C   0  0  0  0  0  0  0  0  0  0  0  0
    8.8787  -16.5279   18.4355 C   0  0  0  0  0  0  0  0  0  0  0  0
    8.7510  -16.6406   19.9151 C   0  0  2  0  0  0  0  0  0  0  0  0
    7.9528  -15.5951   20.5122 N   0  0  0  0  0  0  0  0  0  0  0  0
   10.0499  -16.6948   20.6159 C   0  0  0  0  0  0  0  0  0  0  0  0
   10.8135  -17.6612   20.3858 O   0  0  0  0  0  0  0  0  0  0  0  0
    6.2492  -13.0747   14.1365 N   0  0  0  0  0  0  0  0  0  0  0  0
   10.4845  -15.7131   21.5370 C   0  0  0  0  0  0  0  0  0  0  0  0
   11.7320  -15.7042   22.2286 C   0  0  0  0  0  0  0  0  0  0  0  0
   11.6126  -16.0075   23.6807 O   0  0  0  0  0  0  0  0  0  0  0  0
   12.5665  -16.0916   24.4655 N   0  0  0  0  0  0  0  0  0  0  0  0
   10.2945  -16.2125   24.1812 C   0  0  1  0  0  0  0  0  0  0  0  0
   10.0011  -16.5860   25.5441 C   0  0  0  0  0  0  0  0  0  0  0  0
    8.5951  -16.2333   25.9369 C   0  0  0  0  0  0  0  0  0  0  0  0
    8.5261  -14.8964   26.5374 C   0  0  0  0  0  0  0  0  0  0  0  0
    9.2043  -14.5472   27.6988 N   0  0  0  0  0  0  0  0  0  0  0  0
    8.9462  -13.2707   27.9992 C   0  0  0  0  0  0  0  0  0  0  0  0
    8.1188  -12.7607   27.0753 C   0  0  0  0  0  0  0  0  0  0  0  0
    7.5741  -11.4984   26.9559 C   0  0  0  0  0  0  0  0  0  0  0  0
    6.7327  -11.2438   25.8785 C   0  0  0  0  0  0  0  0  0  0  0  0
    6.4750  -12.2497   24.9773 C   0  0  0  0  0  0  0  0  0  0  0  0
    7.0246  -13.5221   25.0980 C   0  0  0  0  0  0  0  0  0  0  0  0
    7.8495  -13.7626   26.1592 C   0  0  0  0  0  0  0  0  0  0  0  0
   10.3563  -17.9954   25.8122 O   0  0  0  0  0  0  0  0  0  0  0  0
   10.4405  -18.4501   26.9806 O   0  0  0  0  0  0  0  0  0  0  0  0
  2  3  2  0
  2  1  1  0
  4  2  1  0
  5  4  1  0
  6  5  1  0
  7  6  1  0
  7  8  1  0
  8  9  1  1
 10  8  1  0
 10 12  1  0
 11 10  2  0
 13 12  1  0
 14 13  1  0
 15 14  2  0
 16 14  1  0
 17 28  1  0
 17 16  1  0
 17 18  1  1
 19 18  1  0
 20 19  2  0
 21 22  1  0
 21 20  1  0
 22 27  2  0
 23 22  1  0
 23 24  2  0
 24 25  1  0
 25 26  2  0
 27 19  1  0
 27 26  1  0
 28 30  1  0
 29 28  2  0
M  END
$$$$
