RGW.pdb
     RDKit          3D

 30 31  0  0  1  0  0  0  0  0999 V2000
    7.5217  -12.2829   17.2860 N   0  0  0  0  0  0  0  0  0  0  0  0
    8.1703  -13.1784   16.3875 C   0  0  0  0  0  0  0  0  0  0  0  0
    7.7417  -13.2719   15.1756 N   0  0  0  0  0  0  0  0  0  0  0  0
    9.2816  -13.9687   16.8074 N   0  0  0  0  0  0  0  0  0  0  0  0
    9.1344  -15.4125   17.0425 C   0  0  0  0  0  0  0  0  0  0  0  0
    9.8162  -15.8235   18.3088 C   0  0  0  0  0  0  0  0  0  0  0  0
    9.8015  -17.2862   18.6067 C   0  0  0  0  0  0  0  0  0  0  0  0
    8.5892  -17.8102   19.2952 C   0  0  2  0  0  0  0  0  0  0  0  0
    7.4741  -16.8919   19.2908 N   0  0  0  0  0  0  0  0  0  0  0  0
    8.8398  -18.2343   20.6876 C   0  0  0  0  0  0  0  0  0  0  0  0
    9.7927  -19.0163   20.9120 O   0  0  0  0  0  0  0  0  0  0  0  0
    8.1743  -13.9373   14.5170 N   0  0  0  0  0  0  0  0  0  0  0  0
    8.0619  -17.8064   21.7888 C   0  0  0  0  0  0  0  0  0  0  0  0
    8.2115  -18.2368   23.1405 C   0  0  0  0  0  0  0  0  0  0  0  0
    9.2126  -17.4502   23.9110 O   0  0  0  0  0  0  0  0  0  0  0  0
   10.1439  -16.8072   23.4088 N   0  0  0  0  0  0  0  0  0  0  0  0
    9.0688  -17.4527   25.3285 C   0  0  1  0  0  0  0  0  0  0  0  0
   10.0169  -16.8487   26.2338 C   0  0  0  0  0  0  0  0  0  0  0  0
    9.8156  -15.3655   26.3565 C   0  0  0  0  0  0  0  0  0  0  0  0
    8.4011  -15.0032   26.2139 C   0  0  0  0  0  0  0  0  0  0  0  0
    7.3737  -15.9385   26.1928 N   0  0  0  0  0  0  0  0  0  0  0  0
    6.2023  -15.3110   26.0498 C   0  0  0  0  0  0  0  0  0  0  0  0
    6.4181  -13.9895   25.9753 C   0  0  0  0  0  0  0  0  0  0  0  0
    5.5328  -12.9416   25.8266 C   0  0  0  0  0  0  0  0  0  0  0  0
    6.0442  -11.6495   25.7785 C   0  0  0  0  0  0  0  0  0  0  0  0
    7.4025  -11.4624   25.8800 C   0  0  0  0  0  0  0  0  0  0  0  0
    8.2948  -12.5193   26.0301 C   0  0  0  0  0  0  0  0  0  0  0  0
    7.7832  -13.7844   26.0763 C   0  0  0  0  0  0  0  0  0  0  0  0
   10.0548  -17.5520   27.5332 O   0  0  0  0  0  0  0  0  0  0  0  0
    9.1983  -18.4159   27.8479 O   0  0  0  0  0  0  0  0  0  0  0  0
  2  3  2  0
  2  1  1  0
  4  2  1  0
  5  4  1  0
  6  5  1  0
  7  6  1  0
  7  8  1  0
  8  9  1  1
 10  8  1  0
 10 12  1  0
 11 10  2  0
 13 12  1  0
 14 13  1  0
 15 14  2  0
 16 14  1  0
 17 28  1  0
 17 16  1  0
 17 18  1  1
 19 18  1  0
 20 19  2  0
 21 22  1  0
 21 20  1  0
 22 27  2  0
 23 22  1  0
 23 24  2  0
 24 25  1  0
 25 26  2  0
 27 19  1  0
 27 26  1  0
 28 30  1  0
 29 28  2  0
M  END
$$$$
