RGW.pdb
     RDKit          3D

 30 31  0  0  1  0  0  0  0  0999 V2000
    8.5885  -15.0759   17.5604 N   0  0  0  0  0  0  0  0  0  0  0  0
    8.2050  -13.7987   18.0619 C   0  0  0  0  0  0  0  0  0  0  0  0
    7.6763  -12.9413   17.2579 N   0  0  0  0  0  0  0  0  0  0  0  0
    8.3965  -13.4569   19.4339 N   0  0  0  0  0  0  0  0  0  0  0  0
    8.2109  -14.4588   20.4938 C   0  0  0  0  0  0  0  0  0  0  0  0
    6.9694  -15.2609   20.2641 C   0  0  0  0  0  0  0  0  0  0  0  0
    7.1514  -16.7424   20.2383 C   0  0  0  0  0  0  0  0  0  0  0  0
    7.8245  -17.3481   21.4207 C   0  0  2  0  0  0  0  0  0  0  0  0
    7.0818  -17.2036   22.6513 N   0  0  0  0  0  0  0  0  0  0  0  0
    9.1953  -16.8443   21.6403 C   0  0  0  0  0  0  0  0  0  0  0  0
    9.8887  -16.5429   20.6411 O   0  0  0  0  0  0  0  0  0  0  0  0
    7.4502  -11.9889   17.5828 N   0  0  0  0  0  0  0  0  0  0  0  0
    9.7742  -16.6812   22.9207 C   0  0  0  0  0  0  0  0  0  0  0  0
   11.0910  -16.2049   23.1924 C   0  0  0  0  0  0  0  0  0  0  0  0
   11.4288  -16.1753   24.6415 O   0  0  0  0  0  0  0  0  0  0  0  0
   12.5788  -16.1314   25.0980 N   0  0  0  0  0  0  0  0  0  0  0  0
   10.3321  -16.2007   25.5507 C   0  0  1  0  0  0  0  0  0  0  0  0
   10.4754  -16.3464   26.9794 C   0  0  0  0  0  0  0  0  0  0  0  0
    9.6395  -15.3542   27.7357 C   0  0  0  0  0  0  0  0  0  0  0  0
    8.4215  -15.0055   26.9958 C   0  0  0  0  0  0  0  0  0  0  0  0
    7.5921  -15.9510   26.4053 N   0  0  0  0  0  0  0  0  0  0  0  0
    6.5694  -15.3344   25.8050 C   0  0  0  0  0  0  0  0  0  0  0  0
    6.6926  -14.0102   25.9775 C   0  0  0  0  0  0  0  0  0  0  0  0
    5.8938  -12.9701   25.5481 C   0  0  0  0  0  0  0  0  0  0  0  0
    6.2695  -11.6725   25.8771 C   0  0  0  0  0  0  0  0  0  0  0  0
    7.4138  -11.4722   26.6125 C   0  0  0  0  0  0  0  0  0  0  0  0
    8.2188  -12.5212   27.0454 C   0  0  0  0  0  0  0  0  0  0  0  0
    7.8417  -13.7919   26.7174 C   0  0  0  0  0  0  0  0  0  0  0  0
   10.2691  -17.7456   27.4086 O   0  0  0  0  0  0  0  0  0  0  0  0
   10.4889  -18.1196   28.5879 O   0  0  0  0  0  0  0  0  0  0  0  0
  2  3  2  0
  2  1  1  0
  4  2  1  0
  5  4  1  0
  6  5  1  0
  7  6  1  0
  7  8  1  0
  8  9  1  1
 10  8  1  0
 10 12  1  0
 11 10  2  0
 13 12  1  0
 14 13  1  0
 15 14  2  0
 16 14  1  0
 17 28  1  0
 17 16  1  0
 17 18  1  1
 19 18  1  0
 20 19  2  0
 21 22  1  0
 21 20  1  0
 22 27  2  0
 23 22  1  0
 23 24  2  0
 24 25  1  0
 25 26  2  0
 27 19  1  0
 27 26  1  0
 28 30  1  0
 29 28  2  0
M  END
$$$$
