RGW.pdb
     RDKit          3D

 30 31  0  0  1  0  0  0  0  0999 V2000
    6.5249  -15.7640   14.3736 N   0  0  0  0  0  0  0  0  0  0  0  0
    7.8708  -15.4281   14.0487 C   0  0  0  0  0  0  0  0  0  0  0  0
    8.1937  -15.2533   12.8133 N   0  0  0  0  0  0  0  0  0  0  0  0
    8.8612  -15.2829   15.0656 N   0  0  0  0  0  0  0  0  0  0  0  0
    8.4972  -15.3530   16.4884 C   0  0  0  0  0  0  0  0  0  0  0  0
    8.1075  -14.0066   17.0107 C   0  0  0  0  0  0  0  0  0  0  0  0
    7.6308  -13.9740   18.4250 C   0  0  0  0  0  0  0  0  0  0  0  0
    8.6771  -13.8214   19.4738 C   0  0  2  0  0  0  0  0  0  0  0  0
   10.0268  -13.9279   18.9699 N   0  0  0  0  0  0  0  0  0  0  0  0
    8.5233  -14.7636   20.6006 C   0  0  0  0  0  0  0  0  0  0  0  0
    7.4620  -14.7320   21.2657 O   0  0  0  0  0  0  0  0  0  0  0  0
    9.1595  -14.9997   12.5553 N   0  0  0  0  0  0  0  0  0  0  0  0
    9.5106  -15.7052   20.9747 C   0  0  0  0  0  0  0  0  0  0  0  0
    9.4100  -16.6493   22.0392 C   0  0  0  0  0  0  0  0  0  0  0  0
    9.8885  -16.1273   23.3482 O   0  0  0  0  0  0  0  0  0  0  0  0
   10.7495  -15.2483   23.4861 N   0  0  0  0  0  0  0  0  0  0  0  0
    9.2984  -16.6962   24.5136 C   0  0  1  0  0  0  0  0  0  0  0  0
    9.7422  -16.4159   25.8580 C   0  0  0  0  0  0  0  0  0  0  0  0
    8.5950  -16.3054   26.8209 C   0  0  0  0  0  0  0  0  0  0  0  0
    7.5622  -15.3911   26.3208 C   0  0  0  0  0  0  0  0  0  0  0  0
    6.4176  -15.8224   25.6616 N   0  0  0  0  0  0  0  0  0  0  0  0
    5.6711  -14.7657   25.3263 C   0  0  0  0  0  0  0  0  0  0  0  0
    6.2825  -13.6466   25.7415 C   0  0  0  0  0  0  0  0  0  0  0  0
    5.9076  -12.3234   25.6288 C   0  0  0  0  0  0  0  0  0  0  0  0
    6.7501  -11.3530   26.1597 C   0  0  0  0  0  0  0  0  0  0  0  0
    7.9173  -11.7421   26.7733 C   0  0  0  0  0  0  0  0  0  0  0  0
    8.2949  -13.0764   26.8868 C   0  0  0  0  0  0  0  0  0  0  0  0
    7.4610  -14.0221   26.3624 C   0  0  0  0  0  0  0  0  0  0  0  0
   10.7936  -17.3592   26.2934 O   0  0  0  0  0  0  0  0  0  0  0  0
   11.0723  -18.3943   25.6378 O   0  0  0  0  0  0  0  0  0  0  0  0
  2  3  2  0
  2  1  1  0
  4  2  1  0
  5  4  1  0
  6  5  1  0
  7  6  1  0
  7  8  1  0
  8  9  1  6
 10  8  1  0
 10 12  1  0
 11 10  2  0
 13 12  1  0
 14 13  1  0
 15 14  2  0
 16 14  1  0
 17 28  1  0
 17 16  1  0
 17 18  1  1
 19 18  1  0
 20 19  2  0
 21 22  1  0
 21 20  1  0
 22 27  2  0
 23 22  1  0
 23 24  2  0
 24 25  1  0
 25 26  2  0
 27 19  1  0
 27 26  1  0
 28 30  1  0
 29 28  2  0
M  END
$$$$
