RGW.pdb
     RDKit          3D

 30 31  0  0  1  0  0  0  0  0999 V2000
    6.3504  -12.7205   15.3351 N   0  0  0  0  0  0  0  0  0  0  0  0
    7.6120  -13.1784   15.8131 C   0  0  0  0  0  0  0  0  0  0  0  0
    8.3803  -13.8432   15.0201 N   0  0  0  0  0  0  0  0  0  0  0  0
    8.0350  -12.9131   17.1498 N   0  0  0  0  0  0  0  0  0  0  0  0
    9.3415  -13.3820   17.6345 C   0  0  0  0  0  0  0  0  0  0  0  0
    9.2995  -14.8393   17.9691 C   0  0  0  0  0  0  0  0  0  0  0  0
   10.5559  -15.4091   18.5393 C   0  0  0  0  0  0  0  0  0  0  0  0
   10.5682  -16.8791   18.7786 C   0  0  2  0  0  0  0  0  0  0  0  0
   10.1391  -17.6580   17.6402 N   0  0  0  0  0  0  0  0  0  0  0  0
    9.7736  -17.2913   19.9532 C   0  0  0  0  0  0  0  0  0  0  0  0
    8.7302  -17.9589   19.7647 O   0  0  0  0  0  0  0  0  0  0  0  0
    9.2999  -14.1805   15.3428 N   0  0  0  0  0  0  0  0  0  0  0  0
   10.1242  -16.9743   21.2865 C   0  0  0  0  0  0  0  0  0  0  0  0
    9.4209  -17.3807   22.4590 C   0  0  0  0  0  0  0  0  0  0  0  0
   10.0180  -16.8678   23.7221 O   0  0  0  0  0  0  0  0  0  0  0  0
   11.0877  -16.2489   23.7974 N   0  0  0  0  0  0  0  0  0  0  0  0
    9.2875  -17.1200   24.9190 C   0  0  1  0  0  0  0  0  0  0  0  0
    9.7312  -16.7164   26.2318 C   0  0  0  0  0  0  0  0  0  0  0  0
    8.5811  -16.4415   27.1577 C   0  0  0  0  0  0  0  0  0  0  0  0
    7.6184  -15.5128   26.5549 C   0  0  0  0  0  0  0  0  0  0  0  0
    6.4520  -15.9282   25.9242 N   0  0  0  0  0  0  0  0  0  0  0  0
    5.7834  -14.8613   25.4758 C   0  0  0  0  0  0  0  0  0  0  0  0
    6.4676  -13.7509   25.7881 C   0  0  0  0  0  0  0  0  0  0  0  0
    6.1863  -12.4229   25.5405 C   0  0  0  0  0  0  0  0  0  0  0  0
    7.0899  -11.4646   25.9860 C   0  0  0  0  0  0  0  0  0  0  0  0
    8.2223  -11.8698   26.6522 C   0  0  0  0  0  0  0  0  0  0  0  0
    8.5053  -13.2090   26.9018 C   0  0  0  0  0  0  0  0  0  0  0  0
    7.6122  -14.1427   26.4604 C   0  0  0  0  0  0  0  0  0  0  0  0
   10.7263  -17.6588   26.7852 O   0  0  0  0  0  0  0  0  0  0  0  0
   10.8796  -18.8153   26.3182 O   0  0  0  0  0  0  0  0  0  0  0  0
  2  3  2  0
  2  1  1  0
  4  2  1  0
  5  4  1  0
  6  5  1  0
  7  6  1  0
  7  8  1  0
  8  9  1  6
 10  8  1  0
 10 12  1  0
 11 10  2  0
 13 12  1  0
 14 13  1  0
 15 14  2  0
 16 14  1  0
 17 28  1  0
 17 16  1  0
 17 18  1  1
 19 18  1  0
 20 19  2  0
 21 22  1  0
 21 20  1  0
 22 27  2  0
 23 22  1  0
 23 24  2  0
 24 25  1  0
 25 26  2  0
 27 19  1  0
 27 26  1  0
 28 30  1  0
 29 28  2  0
M  END
$$$$
