RGW.pdb
     RDKit          3D

 30 31  0  0  1  0  0  0  0  0999 V2000
    8.6218  -13.0053   19.7030 N   0  0  0  0  0  0  0  0  0  0  0  0
    8.2059  -13.5362   18.4480 C   0  0  0  0  0  0  0  0  0  0  0  0
    8.8308  -13.1818   17.3780 N   0  0  0  0  0  0  0  0  0  0  0  0
    7.1135  -14.4499   18.3590 N   0  0  0  0  0  0  0  0  0  0  0  0
    7.1122  -15.7014   19.1306 C   0  0  0  0  0  0  0  0  0  0  0  0
    7.8476  -16.7822   18.4037 C   0  0  0  0  0  0  0  0  0  0  0  0
    7.8618  -18.1174   19.0712 C   0  0  0  0  0  0  0  0  0  0  0  0
    8.0420  -18.1174   20.5496 C   0  0  2  0  0  0  0  0  0  0  0  0
    6.9465  -17.5109   21.2698 N   0  0  0  0  0  0  0  0  0  0  0  0
    9.2999  -17.4808   20.9896 C   0  0  0  0  0  0  0  0  0  0  0  0
   10.3847  -17.9491   20.5725 O   0  0  0  0  0  0  0  0  0  0  0  0
    8.4824  -13.4656   16.4497 N   0  0  0  0  0  0  0  0  0  0  0  0
    9.3514  -16.3666   21.8596 C   0  0  0  0  0  0  0  0  0  0  0  0
   10.5308  -15.6839   22.2808 C   0  0  0  0  0  0  0  0  0  0  0  0
   10.7958  -15.7938   23.7411 O   0  0  0  0  0  0  0  0  0  0  0  0
   11.7882  -15.3275   24.3161 N   0  0  0  0  0  0  0  0  0  0  0  0
    9.8224  -16.4912   24.5133 C   0  0  1  0  0  0  0  0  0  0  0  0
    9.8619  -16.5957   25.9522 C   0  0  0  0  0  0  0  0  0  0  0  0
    8.4884  -16.5689   26.5590 C   0  0  0  0  0  0  0  0  0  0  0  0
    7.6276  -15.5850   25.8929 C   0  0  0  0  0  0  0  0  0  0  0  0
    6.6467  -15.9312   24.9718 N   0  0  0  0  0  0  0  0  0  0  0  0
    6.0324  -14.8263   24.5379 C   0  0  0  0  0  0  0  0  0  0  0  0
    6.5734  -13.7575   25.1410 C   0  0  0  0  0  0  0  0  0  0  0  0
    6.2802  -12.4144   25.0215 C   0  0  0  0  0  0  0  0  0  0  0  0
    7.0150  -11.5103   25.7805 C   0  0  0  0  0  0  0  0  0  0  0  0
    7.9995  -11.9817   26.6165 C   0  0  0  0  0  0  0  0  0  0  0  0
    8.2947  -13.3360   26.7366 C   0  0  0  0  0  0  0  0  0  0  0  0
    7.5678  -14.2162   25.9873 C   0  0  0  0  0  0  0  0  0  0  0  0
   10.6835  -17.7422   26.3938 O   0  0  0  0  0  0  0  0  0  0  0  0
   11.0367  -18.6522   25.6025 O   0  0  0  0  0  0  0  0  0  0  0  0
  2  3  2  0
  2  1  1  0
  4  2  1  0
  5  4  1  0
  6  5  1  0
  7  6  1  0
  7  8  1  0
  8  9  1  1
 10  8  1  0
 10 12  1  0
 11 10  2  0
 13 12  1  0
 14 13  1  0
 15 14  2  0
 16 14  1  0
 17 28  1  0
 17 16  1  0
 17 18  1  1
 19 18  1  0
 20 19  2  0
 21 22  1  0
 21 20  1  0
 22 27  2  0
 23 22  1  0
 23 24  2  0
 24 25  1  0
 25 26  2  0
 27 19  1  0
 27 26  1  0
 28 30  1  0
 29 28  2  0
M  END
$$$$
