RGW.pdb
     RDKit          3D

 30 31  0  0  1  0  0  0  0  0999 V2000
    8.5130  -13.0654   17.1164 N   0  0  0  0  0  0  0  0  0  0  0  0
    8.2267  -13.9076   16.0035 C   0  0  0  0  0  0  0  0  0  0  0  0
    8.1484  -13.3880   14.8266 N   0  0  0  0  0  0  0  0  0  0  0  0
    8.0267  -15.3103   16.1718 N   0  0  0  0  0  0  0  0  0  0  0  0
    8.4025  -15.9807   17.4252 C   0  0  0  0  0  0  0  0  0  0  0  0
    7.2189  -16.6416   18.0574 C   0  0  0  0  0  0  0  0  0  0  0  0
    7.1499  -16.5590   19.5463 C   0  0  0  0  0  0  0  0  0  0  0  0
    8.0869  -17.4351   20.3030 C   0  0  2  0  0  0  0  0  0  0  0  0
    7.4714  -18.1251   21.4128 N   0  0  0  0  0  0  0  0  0  0  0  0
    9.2844  -16.7272   20.7989 C   0  0  0  0  0  0  0  0  0  0  0  0
   10.1046  -16.2817   19.9630 O   0  0  0  0  0  0  0  0  0  0  0  0
    7.9819  -13.9836   14.0013 N   0  0  0  0  0  0  0  0  0  0  0  0
    9.5607  -16.5217   22.1710 C   0  0  0  0  0  0  0  0  0  0  0  0
   10.6444  -15.7633   22.7050 C   0  0  0  0  0  0  0  0  0  0  0  0
   10.6803  -15.7378   24.1925 O   0  0  0  0  0  0  0  0  0  0  0  0
   11.4521  -15.0450   24.8687 N   0  0  0  0  0  0  0  0  0  0  0  0
    9.7497  -16.5809   24.8656 C   0  0  1  0  0  0  0  0  0  0  0  0
    9.7458  -16.7960   26.2928 C   0  0  0  0  0  0  0  0  0  0  0  0
    8.3548  -16.8107   26.8587 C   0  0  0  0  0  0  0  0  0  0  0  0
    7.5362  -15.7309   26.2962 C   0  0  0  0  0  0  0  0  0  0  0  0
    6.5493  -15.9417   25.3411 N   0  0  0  0  0  0  0  0  0  0  0  0
    5.9800  -14.7750   25.0230 C   0  0  0  0  0  0  0  0  0  0  0  0
    6.5566  -13.7962   25.7357 C   0  0  0  0  0  0  0  0  0  0  0  0
    6.3150  -12.4378   25.7561 C   0  0  0  0  0  0  0  0  0  0  0  0
    7.0780  -11.6461   26.6073 C   0  0  0  0  0  0  0  0  0  0  0  0
    8.0383  -12.2391   27.3924 C   0  0  0  0  0  0  0  0  0  0  0  0
    8.2815  -13.6089   27.3716 C   0  0  0  0  0  0  0  0  0  0  0  0
    7.5273  -14.3780   26.5326 C   0  0  0  0  0  0  0  0  0  0  0  0
   10.5521  -17.9762   26.6690 O   0  0  0  0  0  0  0  0  0  0  0  0
   11.0371  -18.7530   25.8085 O   0  0  0  0  0  0  0  0  0  0  0  0
  2  3  2  0
  2  1  1  0
  4  2  1  0
  5  4  1  0
  6  5  1  0
  7  6  1  0
  7  8  1  0
  8  9  1  1
 10  8  1  0
 10 12  1  0
 11 10  2  0
 13 12  1  0
 14 13  1  0
 15 14  2  0
 16 14  1  0
 17 28  1  0
 17 16  1  0
 17 18  1  1
 19 18  1  0
 20 19  2  0
 21 22  1  0
 21 20  1  0
 22 27  2  0
 23 22  1  0
 23 24  2  0
 24 25  1  0
 25 26  2  0
 27 19  1  0
 27 26  1  0
 28 30  1  0
 29 28  2  0
M  END
$$$$
