KKA.pdb
     RDKit          3D

 24 23  0  0  1  0  0  0  0  0999 V2000
    8.1747  -15.6672   20.6007 N   0  0  0  0  0  0  0  0  0  0  0  0
    7.9970  -14.4212   21.3117 C   0  0  1  0  0  0  0  0  0  0  0  0
    6.8197  -13.6424   20.7332 C   0  0  0  0  0  0  0  0  0  0  0  0
    6.9143  -13.7716   19.2558 C   0  0  0  0  0  0  0  0  0  0  0  0
    8.1234  -13.2226   18.5938 C   0  0  0  0  0  0  0  0  0  0  0  0
    8.1282  -13.3261   17.1143 C   0  0  0  0  0  0  0  0  0  0  0  0
    9.4116  -13.0265   16.5679 N   0  0  0  0  0  0  0  0  0  0  0  0
    7.7651  -14.7176   22.7591 C   0  0  0  0  0  0  0  0  0  0  0  0
    7.3133  -13.8253   23.5518 O   0  0  0  0  0  0  0  0  0  0  0  0
    8.0353  -15.9968   23.3133 N   0  0  0  0  0  0  0  0  0  0  0  0
    7.8286  -16.3080   24.7338 C   0  0  1  0  0  0  0  0  0  0  0  0
    7.6633  -17.7747   24.9417 C   0  0  0  0  0  0  0  0  0  0  0  0
    6.5472  -18.4221   24.2079 C   0  0  0  0  0  0  0  0  0  0  0  0
    6.5499  -19.9340   24.3438 C   0  0  0  0  0  0  0  0  0  0  0  0
    5.4463  -20.5228   23.5000 C   0  0  0  0  0  0  0  0  0  0  0  0
    5.4572  -21.9551   23.5481 N   0  0  0  0  0  0  0  0  0  0  0  0
    8.9683  -15.8040   25.5377 C   0  0  0  0  0  0  0  0  0  0  0  0
   10.1650  -16.0229   25.2240 O   0  0  0  0  0  0  0  0  0  0  0  0
    9.4959  -13.2571   28.1842 C   0  0  0  0  0  0  0  0  0  0  0  0
    9.7999  -14.6136   27.5355 C   0  0  2  0  0  0  0  0  0  0  0  0
    8.6845  -15.0350   26.7214 N   0  0  0  0  0  0  0  0  0  0  0  0
   10.0847  -15.5570   28.6162 C   0  0  0  0  0  0  0  0  0  0  0  0
    9.3394  -16.5367   28.8310 O   0  0  0  0  0  0  0  0  0  0  0  0
   11.1914  -15.3720   29.4174 O   0  0  0  0  0  0  0  0  0  0  0  0
  2  1  1  6
  3  2  1  0
  4  3  1  0
  5  4  1  0
  5  6  1  0
  7  6  1  0
  8  2  1  0
  8  9  2  0
 10  8  1  0
 11 12  1  6
 11 10  1  0
 13 12  1  0
 13 14  1  0
 14 15  1  0
 15 16  1  0
 17 11  1  0
 18 17  2  0
 20 19  1  1
 20 21  1  0
 21 17  1  0
 22 20  1  0
 22 24  1  0
 23 22  2  0
M  END
$$$$
