KKA.pdb
     RDKit          3D

 24 23  0  0  1  0  0  0  0  0999 V2000
    8.4822  -21.8580   17.8409 N   0  0  0  0  0  0  0  0  0  0  0  0
    8.0273  -21.2914   19.0906 C   0  0  1  0  0  0  0  0  0  0  0  0
    8.2490  -22.2775   20.2332 C   0  0  0  0  0  0  0  0  0  0  0  0
    7.3655  -23.4413   19.9627 C   0  0  0  0  0  0  0  0  0  0  0  0
    7.3338  -24.5292   20.9712 C   0  0  0  0  0  0  0  0  0  0  0  0
    6.3716  -25.6208   20.6841 C   0  0  0  0  0  0  0  0  0  0  0  0
    6.2884  -26.5494   21.7640 N   0  0  0  0  0  0  0  0  0  0  0  0
    8.7730  -20.0206   19.3468 C   0  0  0  0  0  0  0  0  0  0  0  0
   10.0121  -19.9128   19.0611 O   0  0  0  0  0  0  0  0  0  0  0  0
    8.1402  -18.8838   19.9159 N   0  0  0  0  0  0  0  0  0  0  0  0
    8.8590  -17.6369   20.2091 C   0  0  1  0  0  0  0  0  0  0  0  0
    7.9738  -16.4523   20.0218 C   0  0  0  0  0  0  0  0  0  0  0  0
    8.6088  -15.1219   20.1956 C   0  0  0  0  0  0  0  0  0  0  0  0
    7.6488  -13.9727   19.9458 C   0  0  0  0  0  0  0  0  0  0  0  0
    8.3527  -12.6601   20.1873 C   0  0  0  0  0  0  0  0  0  0  0  0
    7.4633  -11.5494   20.0162 N   0  0  0  0  0  0  0  0  0  0  0  0
    9.3863  -17.6657   21.5949 C   0  0  0  0  0  0  0  0  0  0  0  0
    8.6362  -17.6789   22.6027 O   0  0  0  0  0  0  0  0  0  0  0  0
   12.3633  -18.7649   23.3267 C   0  0  0  0  0  0  0  0  0  0  0  0
   11.3142  -17.6615   23.1385 C   0  0  2  0  0  0  0  0  0  0  0  0
   10.8134  -17.6792   21.7844 N   0  0  0  0  0  0  0  0  0  0  0  0
   11.9558  -16.3910   23.4754 C   0  0  0  0  0  0  0  0  0  0  0  0
   12.3539  -16.1569   24.6365 O   0  0  0  0  0  0  0  0  0  0  0  0
   12.1295  -15.4288   22.5035 O   0  0  0  0  0  0  0  0  0  0  0  0
  2  1  1  6
  3  2  1  0
  4  3  1  0
  5  4  1  0
  5  6  1  0
  7  6  1  0
  8  2  1  0
  8  9  2  0
 10  8  1  0
 11 12  1  1
 11 10  1  0
 13 12  1  0
 13 14  1  0
 14 15  1  0
 15 16  1  0
 17 11  1  0
 18 17  2  0
 20 19  1  6
 20 21  1  0
 21 17  1  0
 22 20  1  0
 22 24  1  0
 23 22  2  0
M  END
$$$$
