KKA.pdb
     RDKit          3D

 24 23  0  0  1  0  0  0  0  0999 V2000
    5.2042  -18.3488   23.4018 N   0  0  0  0  0  0  0  0  0  0  0  0
    6.0469  -19.2358   22.6320 C   0  0  1  0  0  0  0  0  0  0  0  0
    5.2669  -19.8283   21.4626 C   0  0  0  0  0  0  0  0  0  0  0  0
    3.8324  -19.7861   21.8484 C   0  0  0  0  0  0  0  0  0  0  0  0
    2.8365  -20.2290   20.8416 C   0  0  0  0  0  0  0  0  0  0  0  0
    1.4200  -20.0842   21.2569 C   0  0  0  0  0  0  0  0  0  0  0  0
    0.5226  -20.4780   20.2201 N   0  0  0  0  0  0  0  0  0  0  0  0
    7.2306  -18.4694   22.1340 C   0  0  0  0  0  0  0  0  0  0  0  0
    8.1391  -19.0353   21.4391 O   0  0  0  0  0  0  0  0  0  0  0  0
    7.3962  -17.0863   22.4102 N   0  0  0  0  0  0  0  0  0  0  0  0
    8.5747  -16.3243   21.9767 C   0  0  1  0  0  0  0  0  0  0  0  0
    8.1912  -14.9560   21.5264 C   0  0  0  0  0  0  0  0  0  0  0  0
    8.4092  -14.6504   20.0903 C   0  0  0  0  0  0  0  0  0  0  0  0
    7.6306  -13.4347   19.6209 C   0  0  0  0  0  0  0  0  0  0  0  0
    7.9283  -13.1706   18.1654 C   0  0  0  0  0  0  0  0  0  0  0  0
    7.1958  -12.0395   17.6776 N   0  0  0  0  0  0  0  0  0  0  0  0
    9.5621  -16.2402   23.0800 C   0  0  0  0  0  0  0  0  0  0  0  0
    9.3077  -15.6734   24.1721 O   0  0  0  0  0  0  0  0  0  0  0  0
   12.2385  -18.0479   24.4916 C   0  0  0  0  0  0  0  0  0  0  0  0
   11.8380  -16.6757   23.9347 C   0  0  2  0  0  0  0  0  0  0  0  0
   10.8594  -16.8331   22.8848 N   0  0  0  0  0  0  0  0  0  0  0  0
   13.0599  -16.0266   23.4605 C   0  0  0  0  0  0  0  0  0  0  0  0
   13.9554  -15.6754   24.2580 O   0  0  0  0  0  0  0  0  0  0  0  0
   13.2370  -15.7937   22.1133 O   0  0  0  0  0  0  0  0  0  0  0  0
  2  1  1  6
  3  2  1  0
  4  3  1  0
  5  4  1  0
  5  6  1  0
  7  6  1  0
  8  2  1  0
  8  9  2  0
 10  8  1  0
 11 12  1  1
 11 10  1  0
 13 12  1  0
 13 14  1  0
 14 15  1  0
 15 16  1  0
 17 11  1  0
 18 17  2  0
 20 19  1  6
 20 21  1  0
 21 17  1  0
 22 20  1  0
 22 24  1  0
 23 22  2  0
M  END
$$$$
