KKA.pdb
     RDKit          3D

 24 23  0  0  1  0  0  0  0  0999 V2000
    9.1892  -15.7406   20.7725 N   0  0  0  0  0  0  0  0  0  0  0  0
    8.7448  -14.4994   21.3656 C   0  0  1  0  0  0  0  0  0  0  0  0
    7.6026  -13.9001   20.5512 C   0  0  0  0  0  0  0  0  0  0  0  0
    8.1878  -13.4771   19.2524 C   0  0  0  0  0  0  0  0  0  0  0  0
    7.4613  -13.8556   18.0153 C   0  0  0  0  0  0  0  0  0  0  0  0
    8.0576  -13.3431   16.7577 C   0  0  0  0  0  0  0  0  0  0  0  0
    7.2692  -13.6885   15.6200 N   0  0  0  0  0  0  0  0  0  0  0  0
    8.3014  -14.7640   22.7692 C   0  0  0  0  0  0  0  0  0  0  0  0
    7.7964  -13.8382   23.4878 O   0  0  0  0  0  0  0  0  0  0  0  0
    8.4214  -16.0489   23.3619 N   0  0  0  0  0  0  0  0  0  0  0  0
    8.0442  -16.3204   24.7552 C   0  0  1  0  0  0  0  0  0  0  0  0
    7.7459  -17.7669   24.9565 C   0  0  0  0  0  0  0  0  0  0  0  0
    6.6069  -18.3185   24.1807 C   0  0  0  0  0  0  0  0  0  0  0  0
    6.4940  -19.8283   24.2909 C   0  0  0  0  0  0  0  0  0  0  0  0
    5.3462  -20.3161   23.4415 C   0  0  0  0  0  0  0  0  0  0  0  0
    5.2092  -21.7408   23.5139 N   0  0  0  0  0  0  0  0  0  0  0  0
    9.1291  -15.8910   25.6705 C   0  0  0  0  0  0  0  0  0  0  0  0
   10.3184  -16.2722   25.5337 O   0  0  0  0  0  0  0  0  0  0  0  0
    9.5102  -13.3980   28.4510 C   0  0  0  0  0  0  0  0  0  0  0  0
    9.8280  -14.7114   27.7247 C   0  0  2  0  0  0  0  0  0  0  0  0
    8.7991  -15.0031   26.7548 N   0  0  0  0  0  0  0  0  0  0  0  0
    9.9404  -15.7544   28.7439 C   0  0  0  0  0  0  0  0  0  0  0  0
    9.1336  -16.7077   28.7836 O   0  0  0  0  0  0  0  0  0  0  0  0
   10.9497  -15.6947   29.6811 O   0  0  0  0  0  0  0  0  0  0  0  0
  2  1  1  6
  3  2  1  0
  4  3  1  0
  5  4  1  0
  5  6  1  0
  7  6  1  0
  8  2  1  0
  8  9  2  0
 10  8  1  0
 11 12  1  6
 11 10  1  0
 13 12  1  0
 13 14  1  0
 14 15  1  0
 15 16  1  0
 17 11  1  0
 18 17  2  0
 20 19  1  1
 20 21  1  0
 21 17  1  0
 22 20  1  0
 22 24  1  0
 23 22  2  0
M  END
$$$$
