KKA.pdb
     RDKit          3D

 24 23  0  0  1  0  0  0  0  0999 V2000
    5.7934  -16.1969   20.9831 N   0  0  0  0  0  0  0  0  0  0  0  0
    6.9281  -15.4906   21.5337 C   0  0  1  0  0  0  0  0  0  0  0  0
    6.6723  -13.9867   21.5271 C   0  0  0  0  0  0  0  0  0  0  0  0
    7.8605  -13.3600   20.8916 C   0  0  0  0  0  0  0  0  0  0  0  0
    7.9449  -13.3916   19.4106 C   0  0  0  0  0  0  0  0  0  0  0  0
    9.2160  -12.8774   18.8451 C   0  0  0  0  0  0  0  0  0  0  0  0
    9.2127  -12.9140   17.4189 N   0  0  0  0  0  0  0  0  0  0  0  0
    7.1687  -15.9721   22.9290 C   0  0  0  0  0  0  0  0  0  0  0  0
    6.2329  -15.9764   23.7967 O   0  0  0  0  0  0  0  0  0  0  0  0
    8.4408  -16.4433   23.3488 N   0  0  0  0  0  0  0  0  0  0  0  0
    8.7243  -16.8410   24.7340 C   0  0  1  0  0  0  0  0  0  0  0  0
    9.5536  -18.0789   24.7763 C   0  0  0  0  0  0  0  0  0  0  0  0
    9.9522  -18.5586   26.1232 C   0  0  0  0  0  0  0  0  0  0  0  0
   10.8785  -19.7603   26.0714 C   0  0  0  0  0  0  0  0  0  0  0  0
   11.1537  -20.2513   27.4714 C   0  0  0  0  0  0  0  0  0  0  0  0
   11.9292  -21.4565   27.4610 N   0  0  0  0  0  0  0  0  0  0  0  0
    9.4137  -15.7404   25.4500 C   0  0  0  0  0  0  0  0  0  0  0  0
   10.4944  -15.2438   25.0449 O   0  0  0  0  0  0  0  0  0  0  0  0
    8.5917  -13.1579   27.9314 C   0  0  0  0  0  0  0  0  0  0  0  0
    9.5496  -14.2325   27.4013 C   0  0  2  0  0  0  0  0  0  0  0  0
    8.8154  -15.2264   26.6545 N   0  0  0  0  0  0  0  0  0  0  0  0
   10.2404  -14.8056   28.5561 C   0  0  0  0  0  0  0  0  0  0  0  0
   10.0499  -15.9921   28.8987 O   0  0  0  0  0  0  0  0  0  0  0  0
   11.1185  -14.0329   29.2858 O   0  0  0  0  0  0  0  0  0  0  0  0
  2  1  1  1
  3  2  1  0
  4  3  1  0
  5  4  1  0
  5  6  1  0
  7  6  1  0
  8  2  1  0
  8  9  2  0
 10  8  1  0
 11 12  1  6
 11 10  1  0
 13 12  1  0
 13 14  1  0
 14 15  1  0
 15 16  1  0
 17 11  1  0
 18 17  2  0
 20 19  1  1
 20 21  1  0
 21 17  1  0
 22 20  1  0
 22 24  1  0
 23 22  2  0
M  END
$$$$
