KKA.pdb
     RDKit          3D

 24 23  0  0  1  0  0  0  0  0999 V2000
   14.9881  -21.5392   16.1446 N   0  0  0  0  0  0  0  0  0  0  0  0
   15.6822  -20.3182   16.4866 C   0  0  1  0  0  0  0  0  0  0  0  0
   15.2515  -19.1848   15.5608 C   0  0  0  0  0  0  0  0  0  0  0  0
   15.3884  -19.6989   14.1733 C   0  0  0  0  0  0  0  0  0  0  0  0
   14.2630  -19.4581   13.2368 C   0  0  0  0  0  0  0  0  0  0  0  0
   14.5095  -19.8875   11.8387 C   0  0  0  0  0  0  0  0  0  0  0  0
   13.4074  -19.5756   10.9881 N   0  0  0  0  0  0  0  0  0  0  0  0
   15.3813  -19.9715   17.9099 C   0  0  0  0  0  0  0  0  0  0  0  0
   15.7895  -18.8769   18.4235 O   0  0  0  0  0  0  0  0  0  0  0  0
   14.6326  -20.8389   18.7488 N   0  0  0  0  0  0  0  0  0  0  0  0
   14.2869  -20.5012   20.1357 C   0  0  1  0  0  0  0  0  0  0  0  0
   13.1524  -21.3363   20.6229 C   0  0  0  0  0  0  0  0  0  0  0  0
   12.7062  -21.0918   22.0173 C   0  0  0  0  0  0  0  0  0  0  0  0
   11.4808  -21.9041   22.3958 C   0  0  0  0  0  0  0  0  0  0  0  0
   11.1032  -21.6179   23.8284 C   0  0  0  0  0  0  0  0  0  0  0  0
    9.8998  -22.3019   24.1997 N   0  0  0  0  0  0  0  0  0  0  0  0
   15.4677  -20.6820   21.0145 C   0  0  0  0  0  0  0  0  0  0  0  0
   16.1495  -21.7373   21.0209 O   0  0  0  0  0  0  0  0  0  0  0  0
   18.0454  -18.7105   22.4425 C   0  0  0  0  0  0  0  0  0  0  0  0
   16.9954  -19.7893   22.7376 C   0  0  2  0  0  0  0  0  0  0  0  0
   15.8409  -19.6024   21.8909 N   0  0  0  0  0  0  0  0  0  0  0  0
   16.6619  -19.6928   24.1584 C   0  0  0  0  0  0  0  0  0  0  0  0
   17.4942  -19.9982   25.0390 O   0  0  0  0  0  0  0  0  0  0  0  0
   15.4114  -19.2586   24.5438 O   0  0  0  0  0  0  0  0  0  0  0  0
  2  1  1  6
  3  2  1  0
  4  3  1  0
  5  4  1  0
  5  6  1  0
  7  6  1  0
  8  2  1  0
  8  9  2  0
 10  8  1  0
 11 12  1  1
 11 10  1  0
 13 12  1  0
 13 14  1  0
 14 15  1  0
 15 16  1  0
 17 11  1  0
 18 17  2  0
 20 19  1  6
 20 21  1  0
 21 17  1  0
 22 20  1  0
 22 24  1  0
 23 22  2  0
M  END
$$$$
