KKA.pdb
     RDKit          3D

 24 23  0  0  1  0  0  0  0  0999 V2000
   14.9562  -20.0510   13.9255 N   0  0  0  0  0  0  0  0  0  0  0  0
   15.2048  -21.1839   14.7882 C   0  0  1  0  0  0  0  0  0  0  0  0
   16.7040  -21.4361   14.9157 C   0  0  0  0  0  0  0  0  0  0  0  0
   17.0261  -22.5440   13.9792 C   0  0  0  0  0  0  0  0  0  0  0  0
   18.4055  -23.0897   14.0085 C   0  0  0  0  0  0  0  0  0  0  0  0
   18.6684  -24.1788   13.0366 C   0  0  0  0  0  0  0  0  0  0  0  0
   19.9865  -24.7061   13.1778 N   0  0  0  0  0  0  0  0  0  0  0  0
   14.6061  -20.9115   16.1313 C   0  0  0  0  0  0  0  0  0  0  0  0
   14.5334  -19.7241   16.5934 O   0  0  0  0  0  0  0  0  0  0  0  0
   14.0948  -21.9548   16.9478 N   0  0  0  0  0  0  0  0  0  0  0  0
   13.4392  -21.7059   18.2384 C   0  0  1  0  0  0  0  0  0  0  0  0
   12.1869  -22.5044   18.3651 C   0  0  0  0  0  0  0  0  0  0  0  0
   11.0173  -22.0223   17.5887 C   0  0  0  0  0  0  0  0  0  0  0  0
    9.8282  -22.9627   17.6678 C   0  0  0  0  0  0  0  0  0  0  0  0
    8.6690  -22.3835   16.8949 C   0  0  0  0  0  0  0  0  0  0  0  0
    7.5416  -23.2683   16.8996 N   0  0  0  0  0  0  0  0  0  0  0  0
   14.3646  -22.0283   19.3514 C   0  0  0  0  0  0  0  0  0  0  0  0
   15.2716  -22.8915   19.2471 O   0  0  0  0  0  0  0  0  0  0  0  0
   15.1795  -23.1430   21.9007 C   0  0  0  0  0  0  0  0  0  0  0  0
   15.1333  -21.6280   21.6642 C   0  0  2  0  0  0  0  0  0  0  0  0
   14.2118  -21.3207   20.5960 N   0  0  0  0  0  0  0  0  0  0  0  0
   16.4969  -21.1945   21.3613 C   0  0  0  0  0  0  0  0  0  0  0  0
   17.4248  -21.3627   22.1812 O   0  0  0  0  0  0  0  0  0  0  0  0
   16.7745  -20.5891   20.1542 O   0  0  0  0  0  0  0  0  0  0  0  0
  2  1  1  6
  3  2  1  0
  4  3  1  0
  5  4  1  0
  5  6  1  0
  7  6  1  0
  8  2  1  0
  8  9  2  0
 10  8  1  0
 11 12  1  1
 11 10  1  0
 13 12  1  0
 13 14  1  0
 14 15  1  0
 15 16  1  0
 17 11  1  0
 18 17  2  0
 20 19  1  6
 20 21  1  0
 21 17  1  0
 22 20  1  0
 22 24  1  0
 23 22  2  0
M  END
$$$$
