KKA.pdb
     RDKit          3D

 24 23  0  0  1  0  0  0  0  0999 V2000
    5.6105  -16.7661   20.9644 N   0  0  0  0  0  0  0  0  0  0  0  0
    6.8003  -16.2094   21.5678 C   0  0  1  0  0  0  0  0  0  0  0  0
    6.9391  -14.7339   21.2062 C   0  0  0  0  0  0  0  0  0  0  0  0
    7.4597  -14.6881   19.8151 C   0  0  0  0  0  0  0  0  0  0  0  0
    7.8098  -13.3593   19.2555 C   0  0  0  0  0  0  0  0  0  0  0  0
    8.2484  -13.3727   17.8387 C   0  0  0  0  0  0  0  0  0  0  0  0
    8.6516  -12.0770   17.3981 N   0  0  0  0  0  0  0  0  0  0  0  0
    6.7154  -16.3766   23.0515 C   0  0  0  0  0  0  0  0  0  0  0  0
    5.6277  -16.1522   23.6802 O   0  0  0  0  0  0  0  0  0  0  0  0
    7.8338  -16.7899   23.8228 N   0  0  0  0  0  0  0  0  0  0  0  0
    7.7626  -17.0075   25.2737 C   0  0  1  0  0  0  0  0  0  0  0  0
    8.1267  -18.4102   25.6228 C   0  0  0  0  0  0  0  0  0  0  0  0
    7.1241  -19.4529   25.2901 C   0  0  0  0  0  0  0  0  0  0  0  0
    7.5673  -20.8478   25.6933 C   0  0  0  0  0  0  0  0  0  0  0  0
    6.4673  -21.8370   25.3962 C   0  0  0  0  0  0  0  0  0  0  0  0
    6.8211  -23.1582   25.8242 N   0  0  0  0  0  0  0  0  0  0  0  0
    8.6586  -16.0578   25.9767 C   0  0  0  0  0  0  0  0  0  0  0  0
    9.8887  -15.9826   25.7320 O   0  0  0  0  0  0  0  0  0  0  0  0
    8.1757  -13.2363   28.4352 C   0  0  0  0  0  0  0  0  0  0  0  0
    8.9814  -14.3077   27.6893 C   0  0  2  0  0  0  0  0  0  0  0  0
    8.0898  -15.1918   26.9765 N   0  0  0  0  0  0  0  0  0  0  0  0
    9.7859  -15.0163   28.6842 C   0  0  0  0  0  0  0  0  0  0  0  0
   10.5957  -14.4051   29.4136 O   0  0  0  0  0  0  0  0  0  0  0  0
    9.6566  -16.3813   28.8282 O   0  0  0  0  0  0  0  0  0  0  0  0
  2  1  1  6
  3  2  1  0
  4  3  1  0
  5  4  1  0
  5  6  1  0
  7  6  1  0
  8  2  1  0
  8  9  2  0
 10  8  1  0
 11 12  1  6
 11 10  1  0
 13 12  1  0
 13 14  1  0
 14 15  1  0
 15 16  1  0
 17 11  1  0
 18 17  2  0
 20 19  1  1
 20 21  1  0
 21 17  1  0
 22 20  1  0
 22 24  1  0
 23 22  2  0
M  END
$$$$
