KKA.pdb
     RDKit          3D

 24 23  0  0  1  0  0  0  0  0999 V2000
    5.8841  -20.0418   20.6864 N   0  0  0  0  0  0  0  0  0  0  0  0
    5.4124  -18.9683   21.5318 C   0  0  1  0  0  0  0  0  0  0  0  0
    4.8578  -19.5257   22.8390 C   0  0  0  0  0  0  0  0  0  0  0  0
    5.0171  -21.0015   22.7690 C   0  0  0  0  0  0  0  0  0  0  0  0
    4.5090  -21.8026   23.9099 C   0  0  0  0  0  0  0  0  0  0  0  0
    4.6393  -23.2714   23.7505 C   0  0  0  0  0  0  0  0  0  0  0  0
    4.0415  -23.9759   24.8375 N   0  0  0  0  0  0  0  0  0  0  0  0
    6.5459  -18.0315   21.8040 C   0  0  0  0  0  0  0  0  0  0  0  0
    7.7358  -18.4637   21.9649 O   0  0  0  0  0  0  0  0  0  0  0  0
    6.3508  -16.6278   21.8952 N   0  0  0  0  0  0  0  0  0  0  0  0
    7.4585  -15.6812   22.0801 C   0  0  1  0  0  0  0  0  0  0  0  0
    7.0838  -14.3195   21.6035 C   0  0  0  0  0  0  0  0  0  0  0  0
    6.7631  -14.1924   20.1598 C   0  0  0  0  0  0  0  0  0  0  0  0
    7.6265  -13.1637   19.4519 C   0  0  0  0  0  0  0  0  0  0  0  0
    7.1990  -13.0466   18.0095 C   0  0  0  0  0  0  0  0  0  0  0  0
    8.0963  -12.2151   17.2629 N   0  0  0  0  0  0  0  0  0  0  0  0
    7.8537  -15.6309   23.5086 C   0  0  0  0  0  0  0  0  0  0  0  0
    7.0167  -15.5012   24.4366 O   0  0  0  0  0  0  0  0  0  0  0  0
    8.9415  -17.0587   25.8645 C   0  0  0  0  0  0  0  0  0  0  0  0
    9.6119  -15.8327   25.2314 C   0  0  2  0  0  0  0  0  0  0  0  0
    9.2517  -15.7356   23.8366 N   0  0  0  0  0  0  0  0  0  0  0  0
   11.0544  -15.9802   25.4221 C   0  0  0  0  0  0  0  0  0  0  0  0
   11.5525  -16.0290   26.5671 O   0  0  0  0  0  0  0  0  0  0  0  0
   11.8879  -16.0680   24.3274 O   0  0  0  0  0  0  0  0  0  0  0  0
  2  1  1  6
  3  2  1  0
  4  3  1  0
  5  4  1  0
  5  6  1  0
  7  6  1  0
  8  2  1  0
  8  9  2  0
 10  8  1  0
 11 12  1  1
 11 10  1  0
 13 12  1  0
 13 14  1  0
 14 15  1  0
 15 16  1  0
 17 11  1  0
 18 17  2  0
 20 19  1  6
 20 21  1  0
 21 17  1  0
 22 20  1  0
 22 24  1  0
 23 22  2  0
M  END
$$$$
