KKA.pdb
     RDKit          3D

 24 23  0  0  1  0  0  0  0  0999 V2000
    7.5599  -20.9049   18.2695 N   0  0  0  0  0  0  0  0  0  0  0  0
    7.1313  -20.3961   19.5529 C   0  0  1  0  0  0  0  0  0  0  0  0
    7.3457  -21.4455   20.6392 C   0  0  0  0  0  0  0  0  0  0  0  0
    7.4921  -22.7497   19.9421 C   0  0  0  0  0  0  0  0  0  0  0  0
    7.7528  -23.9491   20.7757 C   0  0  0  0  0  0  0  0  0  0  0  0
    7.7877  -25.2322   20.0324 C   0  0  0  0  0  0  0  0  0  0  0  0
    7.8852  -26.3504   20.9130 N   0  0  0  0  0  0  0  0  0  0  0  0
    7.9061  -19.1559   19.8662 C   0  0  0  0  0  0  0  0  0  0  0  0
    9.1453  -19.0605   19.5766 O   0  0  0  0  0  0  0  0  0  0  0  0
    7.3020  -18.0356   20.4961 N   0  0  0  0  0  0  0  0  0  0  0  0
    8.0288  -16.7888   20.7687 C   0  0  1  0  0  0  0  0  0  0  0  0
    7.0851  -15.6705   21.0528 C   0  0  0  0  0  0  0  0  0  0  0  0
    7.6947  -14.3368   21.2830 C   0  0  0  0  0  0  0  0  0  0  0  0
    7.9436  -13.5716   19.9958 C   0  0  0  0  0  0  0  0  0  0  0  0
    8.5072  -12.2088   20.3148 C   0  0  0  0  0  0  0  0  0  0  0  0
    8.8078  -11.4736   19.1219 N   0  0  0  0  0  0  0  0  0  0  0  0
    8.9550  -16.9774   21.9115 C   0  0  0  0  0  0  0  0  0  0  0  0
    8.6105  -17.5576   22.9713 O   0  0  0  0  0  0  0  0  0  0  0  0
   12.6158  -16.2249   22.5214 C   0  0  0  0  0  0  0  0  0  0  0  0
   11.2147  -16.7371   22.8789 C   0  0  2  0  0  0  0  0  0  0  0  0
   10.2987  -16.4739   21.7943 N   0  0  0  0  0  0  0  0  0  0  0  0
   10.8125  -16.0714   24.1176 C   0  0  0  0  0  0  0  0  0  0  0  0
    9.8535  -15.2708   24.1381 O   0  0  0  0  0  0  0  0  0  0  0  0
   11.4960  -16.3243   25.2879 O   0  0  0  0  0  0  0  0  0  0  0  0
  2  1  1  6
  3  2  1  0
  4  3  1  0
  5  4  1  0
  5  6  1  0
  7  6  1  0
  8  2  1  0
  8  9  2  0
 10  8  1  0
 11 12  1  1
 11 10  1  0
 13 12  1  0
 13 14  1  0
 14 15  1  0
 15 16  1  0
 17 11  1  0
 18 17  2  0
 20 19  1  6
 20 21  1  0
 21 17  1  0
 22 20  1  0
 22 24  1  0
 23 22  2  0
M  END
$$$$
