QTD.pdb
     RDKit          3D

 25 24  0  0  1  0  0  0  0  0999 V2000
   11.2060  -16.9198   13.9020 N   0  0  0  0  0  0  0  0  0  0  0  0
   10.0579  -17.5081   14.5197 C   0  0  0  0  0  0  0  0  0  0  0  0
   10.1903  -18.6824   14.9589 O   0  0  0  0  0  0  0  0  0  0  0  0
    8.7981  -16.7512   14.6223 C   0  0  0  0  0  0  0  0  0  0  0  0
    8.6393  -15.9442   15.8629 C   0  0  0  0  0  0  0  0  0  0  0  0
    8.5395  -16.7459   17.1327 C   0  0  2  0  0  0  0  0  0  0  0  0
    7.1887  -17.2192   17.3681 N   0  0  0  0  0  0  0  0  0  0  0  0
    9.0910  -16.0245   18.2908 C   0  0  0  0  0  0  0  0  0  0  0  0
   10.2183  -15.4876   18.1831 O   0  0  0  0  0  0  0  0  0  0  0  0
    7.7012  -13.0014   20.3333 C   0  0  0  0  0  0  0  0  0  0  0  0
    8.1249  -14.1209   21.2674 C   0  0  1  0  0  0  0  0  0  0  0  0
    7.0439  -14.6885   21.9243 O   0  0  0  0  0  0  0  0  0  0  0  0
    9.0195  -15.1136   20.6092 C   0  0  2  0  0  0  0  0  0  0  0  0
    8.4661  -15.8687   19.5474 N   0  0  0  0  0  0  0  0  0  0  0  0
    9.5607  -16.0096   21.6823 C   0  0  0  0  0  0  0  0  0  0  0  0
    9.0651  -17.1634   21.8769 O   0  0  0  0  0  0  0  0  0  0  0  0
   10.6342  -15.6517   22.5370 N   0  0  0  0  0  0  0  0  0  0  0  0
   11.1626  -16.5424   23.5538 C   0  0  1  0  0  0  0  0  0  0  0  0
   12.5587  -16.0630   23.8781 C   0  0  0  0  0  0  0  0  0  0  0  0
   13.4464  -16.0842   22.6948 C   0  0  0  0  0  0  0  0  0  0  0  0
   13.5596  -17.0475   21.9007 O   0  0  0  0  0  0  0  0  0  0  0  0
   10.3865  -16.4431   24.8173 C   0  0  0  0  0  0  0  0  0  0  0  0
   10.6571  -17.2551   25.7337 O   0  0  0  0  0  0  0  0  0  0  0  0
   14.2053  -14.9362   22.4643 O   0  0  0  0  0  0  0  0  0  0  0  0
    9.3888  -15.5153   25.0444 O   0  0  0  0  0  0  0  0  0  0  0  0
  2  1  1  0
  2  3  2  0
  4  2  1  0
  5  4  1  0
  6  5  1  0
  6  8  1  0
  6  7  1  1
  8  9  2  0
 11 10  1  6
 12 11  1  0
 13 11  1  0
 14  8  1  0
 13 14  1  6
 15 16  2  0
 15 13  1  0
 17 15  1  0
 18 17  1  0
 19 20  1  0
 18 19  1  1
 20 21  2  0
 22 18  1  0
 22 25  1  0
 23 22  2  0
 24 20  1  0
M  END
$$$$
