QTD.pdb
     RDKit          3D

 25 24  0  0  1  0  0  0  0  0999 V2000
    8.5516  -15.2664   13.1950 N   0  0  0  0  0  0  0  0  0  0  0  0
    8.5528  -16.6915   13.3179 C   0  0  0  0  0  0  0  0  0  0  0  0
    8.0765  -17.3438   12.3497 O   0  0  0  0  0  0  0  0  0  0  0  0
    9.0924  -17.3337   14.5290 C   0  0  0  0  0  0  0  0  0  0  0  0
    9.6263  -16.4021   15.5598 C   0  0  0  0  0  0  0  0  0  0  0  0
    8.5968  -15.5162   16.2084 C   0  0  2  0  0  0  0  0  0  0  0  0
    8.0905  -14.5141   15.2899 N   0  0  0  0  0  0  0  0  0  0  0  0
    9.0821  -14.9291   17.4676 C   0  0  0  0  0  0  0  0  0  0  0  0
    9.8465  -13.9375   17.4130 O   0  0  0  0  0  0  0  0  0  0  0  0
    7.7307  -12.7356   19.9776 C   0  0  0  0  0  0  0  0  0  0  0  0
    8.2268  -13.9605   20.7252 C   0  0  1  0  0  0  0  0  0  0  0  0
    7.1829  -14.7234   21.2259 O   0  0  0  0  0  0  0  0  0  0  0  0
    9.2276  -14.7441   19.9484 C   0  0  2  0  0  0  0  0  0  0  0  0
    8.7684  -15.3782   18.7691 N   0  0  0  0  0  0  0  0  0  0  0  0
    9.8466  -15.7355   20.8870 C   0  0  0  0  0  0  0  0  0  0  0  0
    9.4534  -16.9437   20.9082 O   0  0  0  0  0  0  0  0  0  0  0  0
   10.8867  -15.4137   21.7956 N   0  0  0  0  0  0  0  0  0  0  0  0
   11.4512  -16.3785   22.7213 C   0  0  1  0  0  0  0  0  0  0  0  0
   12.8033  -15.8493   23.1403 C   0  0  0  0  0  0  0  0  0  0  0  0
   13.7875  -15.8925   22.0366 C   0  0  0  0  0  0  0  0  0  0  0  0
   13.8208  -16.7674   21.1396 O   0  0  0  0  0  0  0  0  0  0  0  0
   10.6411  -16.4755   23.9635 C   0  0  0  0  0  0  0  0  0  0  0  0
   10.9614  -17.3509   24.8022 O   0  0  0  0  0  0  0  0  0  0  0  0
   14.7408  -14.8738   22.0113 O   0  0  0  0  0  0  0  0  0  0  0  0
    9.5608  -15.6642   24.2508 O   0  0  0  0  0  0  0  0  0  0  0  0
  2  1  1  0
  2  3  2  0
  4  2  1  0
  5  4  1  0
  6  5  1  0
  6  8  1  0
  6  7  1  6
  8  9  2  0
 11 10  1  6
 12 11  1  0
 13 11  1  0
 14  8  1  0
 13 14  1  6
 15 16  2  0
 15 13  1  0
 17 15  1  0
 18 17  1  0
 19 20  1  0
 18 19  1  1
 20 21  2  0
 22 18  1  0
 22 25  1  0
 23 22  2  0
 24 20  1  0
M  END
$$$$
