QTD.pdb
     RDKit          3D

 25 24  0  0  1  0  0  0  0  0999 V2000
   10.2085  -12.0402   19.7461 N   0  0  0  0  0  0  0  0  0  0  0  0
   11.2680  -12.5822   18.9527 C   0  0  0  0  0  0  0  0  0  0  0  0
   12.1475  -11.7721   18.5527 O   0  0  0  0  0  0  0  0  0  0  0  0
   11.3008  -14.0210   18.6375 C   0  0  0  0  0  0  0  0  0  0  0  0
   10.2654  -14.8458   19.3181 C   0  0  0  0  0  0  0  0  0  0  0  0
   10.4209  -16.3322   19.1405 C   0  0  2  0  0  0  0  0  0  0  0  0
    9.8247  -16.7936   17.9013 N   0  0  0  0  0  0  0  0  0  0  0  0
    9.9392  -17.0855   20.3095 C   0  0  0  0  0  0  0  0  0  0  0  0
    8.7036  -17.2178   20.4716 O   0  0  0  0  0  0  0  0  0  0  0  0
    9.1120  -20.3178   21.2703 C   0  0  0  0  0  0  0  0  0  0  0  0
   10.1315  -19.8699   22.3025 C   0  0  1  0  0  0  0  0  0  0  0  0
   11.3556  -20.4984   22.1326 O   0  0  0  0  0  0  0  0  0  0  0  0
   10.2253  -18.3875   22.4149 C   0  0  2  0  0  0  0  0  0  0  0  0
   10.7457  -17.6926   21.2968 N   0  0  0  0  0  0  0  0  0  0  0  0
   11.0120  -18.0810   23.6535 C   0  0  0  0  0  0  0  0  0  0  0  0
   12.2153  -17.6797   23.5766 O   0  0  0  0  0  0  0  0  0  0  0  0
   10.4919  -18.2101   24.9664 N   0  0  0  0  0  0  0  0  0  0  0  0
   11.2791  -17.9418   26.1559 C   0  0  1  0  0  0  0  0  0  0  0  0
   10.3053  -17.6265   27.2677 C   0  0  0  0  0  0  0  0  0  0  0  0
   10.9914  -17.3204   28.5421 C   0  0  0  0  0  0  0  0  0  0  0  0
   12.2318  -17.3654   28.7174 O   0  0  0  0  0  0  0  0  0  0  0  0
   12.0298  -19.1480   26.5921 C   0  0  0  0  0  0  0  0  0  0  0  0
   11.6317  -20.2636   26.1808 O   0  0  0  0  0  0  0  0  0  0  0  0
   10.1783  -16.9568   29.6162 O   0  0  0  0  0  0  0  0  0  0  0  0
   13.1352  -19.1168   27.4197 O   0  0  0  0  0  0  0  0  0  0  0  0
  2  1  1  0
  2  3  2  0
  4  2  1  0
  5  4  1  0
  6  5  1  0
  6  8  1  0
  6  7  1  6
  8  9  2  0
 11 10  1  6
 12 11  1  0
 13 11  1  0
 14  8  1  0
 13 14  1  6
 15 16  2  0
 15 13  1  0
 17 15  1  0
 18 17  1  0
 19 20  1  0
 18 19  1  1
 20 21  2  0
 22 18  1  0
 22 25  1  0
 23 22  2  0
 24 20  1  0
M  END
$$$$
