QTD.pdb
     RDKit          3D

 25 24  0  0  1  0  0  0  0  0999 V2000
    7.5045  -13.2796   13.7438 N   0  0  0  0  0  0  0  0  0  0  0  0
    7.2317  -14.6024   13.2732 C   0  0  0  0  0  0  0  0  0  0  0  0
    7.2323  -14.7704   12.0236 O   0  0  0  0  0  0  0  0  0  0  0  0
    6.9681  -15.6926   14.2284 C   0  0  0  0  0  0  0  0  0  0  0  0
    7.1160  -15.3307   15.6646 C   0  0  0  0  0  0  0  0  0  0  0  0
    8.3841  -15.8163   16.3138 C   0  0  2  0  0  0  0  0  0  0  0  0
    8.3630  -17.2496   16.5353 N   0  0  0  0  0  0  0  0  0  0  0  0
    8.7061  -15.0641   17.5371 C   0  0  0  0  0  0  0  0  0  0  0  0
    8.5277  -13.8237   17.5442 O   0  0  0  0  0  0  0  0  0  0  0  0
    7.6186  -13.1098   19.4725 C   0  0  0  0  0  0  0  0  0  0  0  0
    8.1208  -14.1709   20.4353 C   0  0  1  0  0  0  0  0  0  0  0  0
    7.1088  -15.0276   20.8406 O   0  0  0  0  0  0  0  0  0  0  0  0
    9.3395  -14.8694   19.9392 C   0  0  2  0  0  0  0  0  0  0  0  0
    9.2096  -15.6082   18.7388 N   0  0  0  0  0  0  0  0  0  0  0  0
    9.8437  -15.7363   21.0534 C   0  0  0  0  0  0  0  0  0  0  0  0
    9.4350  -16.9326   21.1821 O   0  0  0  0  0  0  0  0  0  0  0  0
   10.7866  -15.3037   22.0202 N   0  0  0  0  0  0  0  0  0  0  0  0
   11.5781  -16.2237   22.8160 C   0  0  1  0  0  0  0  0  0  0  0  0
   12.9088  -15.5544   23.0712 C   0  0  0  0  0  0  0  0  0  0  0  0
   13.8443  -16.4322   23.8081 C   0  0  0  0  0  0  0  0  0  0  0  0
   13.5794  -17.5924   24.2016 O   0  0  0  0  0  0  0  0  0  0  0  0
   10.9656  -16.4506   24.1510 C   0  0  0  0  0  0  0  0  0  0  0  0
   11.5136  -17.2843   24.9104 O   0  0  0  0  0  0  0  0  0  0  0  0
   15.1105  -15.9098   24.0743 O   0  0  0  0  0  0  0  0  0  0  0  0
    9.8339  -15.8024   24.6058 O   0  0  0  0  0  0  0  0  0  0  0  0
  2  1  1  0
  2  3  2  0
  4  2  1  0
  5  4  1  0
  6  5  1  0
  6  8  1  0
  6  7  1  1
  8  9  2  0
 11 10  1  6
 12 11  1  0
 13 11  1  0
 14  8  1  0
 13 14  1  6
 15 16  2  0
 15 13  1  0
 17 15  1  0
 18 17  1  0
 19 20  1  0
 18 19  1  1
 20 21  2  0
 22 18  1  0
 22 25  1  0
 23 22  2  0
 24 20  1  0
M  END
$$$$
