QTD.pdb
     RDKit          3D

 25 24  0  0  1  0  0  0  0  0999 V2000
   11.0356  -17.1730   14.5657 N   0  0  0  0  0  0  0  0  0  0  0  0
    9.6682  -17.0909   14.1542 C   0  0  0  0  0  0  0  0  0  0  0  0
    9.3647  -17.6738   13.0782 O   0  0  0  0  0  0  0  0  0  0  0  0
    8.6880  -16.3545   14.9711 C   0  0  0  0  0  0  0  0  0  0  0  0
    9.2568  -15.5966   16.1189 C   0  0  0  0  0  0  0  0  0  0  0  0
    8.2634  -14.7639   16.8839 C   0  0  2  0  0  0  0  0  0  0  0  0
    7.7513  -13.6657   16.0865 N   0  0  0  0  0  0  0  0  0  0  0  0
    8.7953  -14.3153   18.1807 C   0  0  0  0  0  0  0  0  0  0  0  0
    9.0145  -13.0931   18.3500 O   0  0  0  0  0  0  0  0  0  0  0  0
    6.6177  -15.1453   20.7926 C   0  0  0  0  0  0  0  0  0  0  0  0
    7.7659  -14.2242   21.1647 C   0  0  1  0  0  0  0  0  0  0  0  0
    7.7850  -13.9372   22.5210 O   0  0  0  0  0  0  0  0  0  0  0  0
    9.0755  -14.6895   20.6284 C   0  0  2  0  0  0  0  0  0  0  0  0
    9.0937  -15.1407   19.2868 N   0  0  0  0  0  0  0  0  0  0  0  0
    9.5909  -15.7455   21.5590 C   0  0  0  0  0  0  0  0  0  0  0  0
    8.9777  -16.8506   21.6917 O   0  0  0  0  0  0  0  0  0  0  0  0
   10.7662  -15.5996   22.3391 N   0  0  0  0  0  0  0  0  0  0  0  0
   11.3077  -16.6697   23.1563 C   0  0  1  0  0  0  0  0  0  0  0  0
   12.7502  -16.3208   23.4412 C   0  0  0  0  0  0  0  0  0  0  0  0
   13.5707  -16.2855   22.2107 C   0  0  0  0  0  0  0  0  0  0  0  0
   13.4987  -17.1185   21.2769 O   0  0  0  0  0  0  0  0  0  0  0  0
   10.6295  -16.7390   24.4770 C   0  0  0  0  0  0  0  0  0  0  0  0
   10.9192  -17.6971   25.2322 O   0  0  0  0  0  0  0  0  0  0  0  0
   14.4867  -15.2385   22.1022 O   0  0  0  0  0  0  0  0  0  0  0  0
    9.7029  -15.8168   24.9229 O   0  0  0  0  0  0  0  0  0  0  0  0
  2  1  1  0
  2  3  2  0
  4  2  1  0
  5  4  1  0
  6  5  1  0
  6  8  1  0
  6  7  1  6
  8  9  2  0
 11 10  1  1
 12 11  1  0
 13 11  1  0
 14  8  1  0
 13 14  1  6
 15 16  2  0
 15 13  1  0
 17 15  1  0
 18 17  1  0
 19 20  1  0
 18 19  1  1
 20 21  2  0
 22 18  1  0
 22 25  1  0
 23 22  2  0
 24 20  1  0
M  END
$$$$
