QTD.pdb
     RDKit          3D

 25 24  0  0  1  0  0  0  0  0999 V2000
   13.4926  -20.1866   14.6237 N   0  0  0  0  0  0  0  0  0  0  0  0
   14.2885  -19.1504   14.0417 C   0  0  0  0  0  0  0  0  0  0  0  0
   15.4752  -19.4501   13.7392 O   0  0  0  0  0  0  0  0  0  0  0  0
   13.7186  -17.8101   13.8193 C   0  0  0  0  0  0  0  0  0  0  0  0
   12.2953  -17.6483   14.2234 C   0  0  0  0  0  0  0  0  0  0  0  0
   11.7123  -16.2858   13.9606 C   0  0  2  0  0  0  0  0  0  0  0  0
   12.3634  -15.6255   12.8453 N   0  0  0  0  0  0  0  0  0  0  0  0
   11.6867  -15.4489   15.1709 C   0  0  0  0  0  0  0  0  0  0  0  0
   12.6434  -14.6673   15.3813 O   0  0  0  0  0  0  0  0  0  0  0  0
    9.6032  -13.3964   19.1782 C   0  0  0  0  0  0  0  0  0  0  0  0
    9.4371  -14.3275   17.9905 C   0  0  1  0  0  0  0  0  0  0  0  0
    8.4604  -13.8829   17.1126 O   0  0  0  0  0  0  0  0  0  0  0  0
   10.7318  -14.6607   17.3335 C   0  0  2  0  0  0  0  0  0  0  0  0
   10.6682  -15.4330   16.1488 N   0  0  0  0  0  0  0  0  0  0  0  0
   11.5988  -15.3224   18.3619 C   0  0  0  0  0  0  0  0  0  0  0  0
   12.0966  -16.4721   18.1499 O   0  0  0  0  0  0  0  0  0  0  0  0
   11.9216  -14.7359   19.6120 N   0  0  0  0  0  0  0  0  0  0  0  0
   12.8918  -15.3111   20.5253 C   0  0  1  0  0  0  0  0  0  0  0  0
   14.1141  -14.4232   20.4876 C   0  0  0  0  0  0  0  0  0  0  0  0
   15.2021  -14.9320   21.3513 C   0  0  0  0  0  0  0  0  0  0  0  0
   15.1257  -15.9537   22.0736 O   0  0  0  0  0  0  0  0  0  0  0  0
   12.4004  -15.2803   21.9276 C   0  0  0  0  0  0  0  0  0  0  0  0
   12.8867  -16.1075   22.7348 O   0  0  0  0  0  0  0  0  0  0  0  0
   16.3933  -14.2053   21.3466 O   0  0  0  0  0  0  0  0  0  0  0  0
   11.4445  -14.4000   22.3957 O   0  0  0  0  0  0  0  0  0  0  0  0
  2  1  1  0
  2  3  2  0
  4  2  1  0
  5  4  1  0
  6  5  1  0
  6  8  1  0
  6  7  1  6
  8  9  2  0
 11 10  1  1
 12 11  1  0
 13 11  1  0
 14  8  1  0
 13 14  1  6
 15 16  2  0
 15 13  1  0
 17 15  1  0
 18 17  1  0
 19 20  1  0
 18 19  1  1
 20 21  2  0
 22 18  1  0
 22 25  1  0
 23 22  2  0
 24 20  1  0
M  END
$$$$
