QTD.pdb
     RDKit          3D

 25 24  0  0  1  0  0  0  0  0999 V2000
   12.0775  -17.6918   14.6385 N   0  0  0  0  0  0  0  0  0  0  0  0
   11.5768  -17.2404   13.3770 C   0  0  0  0  0  0  0  0  0  0  0  0
   12.3608  -17.3255   12.3932 O   0  0  0  0  0  0  0  0  0  0  0  0
   10.2072  -16.7087   13.2669 C   0  0  0  0  0  0  0  0  0  0  0  0
    9.3989  -16.7677   14.5154 C   0  0  0  0  0  0  0  0  0  0  0  0
    8.7288  -15.4757   14.8988 C   0  0  2  0  0  0  0  0  0  0  0  0
    8.5972  -14.5785   13.7667 N   0  0  0  0  0  0  0  0  0  0  0  0
    9.3790  -14.8326   16.0518 C   0  0  0  0  0  0  0  0  0  0  0  0
   10.3955  -14.1272   15.8521 O   0  0  0  0  0  0  0  0  0  0  0  0
    7.6849  -12.7027   19.1067 C   0  0  0  0  0  0  0  0  0  0  0  0
    8.6840  -13.7528   19.5589 C   0  0  1  0  0  0  0  0  0  0  0  0
    8.0754  -14.7848   20.2566 O   0  0  0  0  0  0  0  0  0  0  0  0
    9.5752  -14.2130   18.4575 C   0  0  2  0  0  0  0  0  0  0  0  0
    8.9668  -14.9291   17.3989 N   0  0  0  0  0  0  0  0  0  0  0  0
   10.6823  -15.0091   19.0800 C   0  0  0  0  0  0  0  0  0  0  0  0
   10.7832  -16.2580   18.8686 O   0  0  0  0  0  0  0  0  0  0  0  0
   11.6727  -14.4490   19.9264 N   0  0  0  0  0  0  0  0  0  0  0  0
   12.7447  -15.2332   20.5115 C   0  0  1  0  0  0  0  0  0  0  0  0
   13.9729  -14.3530   20.5360 C   0  0  0  0  0  0  0  0  0  0  0  0
   15.1613  -15.0653   21.0544 C   0  0  0  0  0  0  0  0  0  0  0  0
   15.6853  -16.0701   20.5185 O   0  0  0  0  0  0  0  0  0  0  0  0
   12.4533  -15.5775   21.9276 C   0  0  0  0  0  0  0  0  0  0  0  0
   13.2399  -16.3602   22.5116 O   0  0  0  0  0  0  0  0  0  0  0  0
   15.7252  -14.5646   22.2285 O   0  0  0  0  0  0  0  0  0  0  0  0
   11.3736  -15.0908   22.6382 O   0  0  0  0  0  0  0  0  0  0  0  0
  2  1  1  0
  2  3  2  0
  4  2  1  0
  5  4  1  0
  6  5  1  0
  6  8  1  0
  6  7  1  6
  8  9  2  0
 11 10  1  6
 12 11  1  0
 13 11  1  0
 14  8  1  0
 13 14  1  6
 15 16  2  0
 15 13  1  0
 17 15  1  0
 18 17  1  0
 19 20  1  0
 18 19  1  1
 20 21  2  0
 22 18  1  0
 22 25  1  0
 23 22  2  0
 24 20  1  0
M  END
$$$$
