QTD.pdb
     RDKit          3D

 25 24  0  0  1  0  0  0  0  0999 V2000
    9.6625  -16.3617   13.0283 N   0  0  0  0  0  0  0  0  0  0  0  0
   10.2737  -17.5883   13.4377 C   0  0  0  0  0  0  0  0  0  0  0  0
   11.0229  -18.1559   12.5974 O   0  0  0  0  0  0  0  0  0  0  0  0
   10.0200  -18.1337   14.7826 C   0  0  0  0  0  0  0  0  0  0  0  0
    9.1071  -17.3251   15.6360 C   0  0  0  0  0  0  0  0  0  0  0  0
    8.8597  -17.8870   17.0101 C   0  0  2  0  0  0  0  0  0  0  0  0
    7.5262  -18.4443   17.1339 N   0  0  0  0  0  0  0  0  0  0  0  0
    9.1617  -16.9136   18.0718 C   0  0  0  0  0  0  0  0  0  0  0  0
   10.3503  -16.5508   18.2340 O   0  0  0  0  0  0  0  0  0  0  0  0
    7.9804  -13.5354   21.5233 C   0  0  0  0  0  0  0  0  0  0  0  0
    7.4863  -14.5441   20.5018 C   0  0  1  0  0  0  0  0  0  0  0  0
    6.7077  -13.9519   19.5192 O   0  0  0  0  0  0  0  0  0  0  0  0
    8.5777  -15.4062   19.9682 C   0  0  2  0  0  0  0  0  0  0  0  0
    8.2266  -16.3281   18.9530 N   0  0  0  0  0  0  0  0  0  0  0  0
    9.2081  -16.1045   21.1352 C   0  0  0  0  0  0  0  0  0  0  0  0
    8.9019  -17.3051   21.4173 O   0  0  0  0  0  0  0  0  0  0  0  0
   10.1656  -15.4997   21.9888 N   0  0  0  0  0  0  0  0  0  0  0  0
   10.8267  -16.2160   23.0641 C   0  0  1  0  0  0  0  0  0  0  0  0
   12.1978  -15.6014   23.2262 C   0  0  0  0  0  0  0  0  0  0  0  0
   13.2807  -16.5902   23.0312 C   0  0  0  0  0  0  0  0  0  0  0  0
   13.1068  -17.8204   22.8650 O   0  0  0  0  0  0  0  0  0  0  0  0
   10.1266  -16.0150   24.3596 C   0  0  0  0  0  0  0  0  0  0  0  0
    9.5614  -14.9125   24.5525 O   0  0  0  0  0  0  0  0  0  0  0  0
   14.5853  -16.0950   23.0362 O   0  0  0  0  0  0  0  0  0  0  0  0
   10.0601  -16.9639   25.3611 O   0  0  0  0  0  0  0  0  0  0  0  0
  2  1  1  0
  2  3  2  0
  4  2  1  0
  5  4  1  0
  6  5  1  0
  6  8  1  0
  6  7  1  6
  8  9  2  0
 11 10  1  6
 12 11  1  0
 13 11  1  0
 14  8  1  0
 13 14  1  6
 15 16  2  0
 15 13  1  0
 17 15  1  0
 18 17  1  0
 19 20  1  0
 18 19  1  1
 20 21  2  0
 22 18  1  0
 22 25  1  0
 23 22  2  0
 24 20  1  0
M  END
$$$$
