QTD.pdb
     RDKit          3D

 25 24  0  0  1  0  0  0  0  0999 V2000
    4.4214  -20.6155   20.2811 N   0  0  0  0  0  0  0  0  0  0  0  0
    5.5354  -21.1945   19.5958 C   0  0  0  0  0  0  0  0  0  0  0  0
    5.6636  -22.4459   19.6795 O   0  0  0  0  0  0  0  0  0  0  0  0
    6.4677  -20.3421   18.8377 C   0  0  0  0  0  0  0  0  0  0  0  0
    6.1781  -18.8828   18.8847 C   0  0  0  0  0  0  0  0  0  0  0  0
    7.0973  -18.0266   18.0558 C   0  0  2  0  0  0  0  0  0  0  0  0
    7.9176  -18.8224   17.1626 N   0  0  0  0  0  0  0  0  0  0  0  0
    7.8963  -17.1071   18.8816 C   0  0  0  0  0  0  0  0  0  0  0  0
    9.1341  -17.2886   18.9570 O   0  0  0  0  0  0  0  0  0  0  0  0
    8.6370  -12.9238   21.4680 C   0  0  0  0  0  0  0  0  0  0  0  0
    7.7259  -13.7503   20.5780 C   0  0  1  0  0  0  0  0  0  0  0  0
    7.4099  -13.0906   19.4002 O   0  0  0  0  0  0  0  0  0  0  0  0
    8.2230  -15.1400   20.3760 C   0  0  2  0  0  0  0  0  0  0  0  0
    7.4013  -16.0099   19.6198 N   0  0  0  0  0  0  0  0  0  0  0  0
    8.5118  -15.7137   21.7304 C   0  0  0  0  0  0  0  0  0  0  0  0
    7.5922  -16.2651   22.4124 O   0  0  0  0  0  0  0  0  0  0  0  0
    9.7931  -15.6875   22.3377 N   0  0  0  0  0  0  0  0  0  0  0  0
   10.0534  -16.2432   23.6529 C   0  0  1  0  0  0  0  0  0  0  0  0
   11.5545  -16.3092   23.8149 C   0  0  0  0  0  0  0  0  0  0  0  0
   12.1967  -17.1159   22.7541 C   0  0  0  0  0  0  0  0  0  0  0  0
   13.0042  -16.6711   21.9048 O   0  0  0  0  0  0  0  0  0  0  0  0
    9.5597  -15.3440   24.7283 C   0  0  0  0  0  0  0  0  0  0  0  0
    9.2780  -14.1623   24.4175 O   0  0  0  0  0  0  0  0  0  0  0  0
   11.8646  -18.4706   22.7140 O   0  0  0  0  0  0  0  0  0  0  0  0
    9.3923  -15.7276   26.0446 O   0  0  0  0  0  0  0  0  0  0  0  0
  2  1  1  0
  2  3  2  0
  4  2  1  0
  5  4  1  0
  6  5  1  0
  6  8  1  0
  6  7  1  1
  8  9  2  0
 11 10  1  6
 12 11  1  0
 13 11  1  0
 14  8  1  0
 13 14  1  1
 15 16  2  0
 15 13  1  0
 17 15  1  0
 18 17  1  0
 19 20  1  0
 18 19  1  1
 20 21  2  0
 22 18  1  0
 22 25  1  0
 23 22  2  0
 24 20  1  0
M  END
$$$$
