QTD.pdb
     RDKit          3D

 25 24  0  0  1  0  0  0  0  0999 V2000
    1.8930  -18.8366   20.6012 N   0  0  0  0  0  0  0  0  0  0  0  0
    2.7395  -19.9749   20.4177 C   0  0  0  0  0  0  0  0  0  0  0  0
    2.1906  -21.1073   20.4955 O   0  0  0  0  0  0  0  0  0  0  0  0
    4.1776  -19.7978   20.1512 C   0  0  0  0  0  0  0  0  0  0  0  0
    4.6520  -18.3872   20.1283 C   0  0  0  0  0  0  0  0  0  0  0  0
    5.5285  -18.0317   18.9575 C   0  0  2  0  0  0  0  0  0  0  0  0
    5.9415  -19.2074   18.2152 N   0  0  0  0  0  0  0  0  0  0  0  0
    6.6681  -17.1880   19.3518 C   0  0  0  0  0  0  0  0  0  0  0  0
    7.8288  -17.6332   19.1926 O   0  0  0  0  0  0  0  0  0  0  0  0
    8.7584  -12.9747   21.0183 C   0  0  0  0  0  0  0  0  0  0  0  0
    7.5410  -13.6675   20.4323 C   0  0  1  0  0  0  0  0  0  0  0  0
    7.1012  -13.0532   19.2698 O   0  0  0  0  0  0  0  0  0  0  0  0
    7.7216  -15.1406   20.3047 C   0  0  2  0  0  0  0  0  0  0  0  0
    6.5898  -15.8920   19.9068 N   0  0  0  0  0  0  0  0  0  0  0  0
    8.2683  -15.6396   21.6082 C   0  0  0  0  0  0  0  0  0  0  0  0
    7.4906  -16.0611   22.5205 O   0  0  0  0  0  0  0  0  0  0  0  0
    9.6520  -15.6796   21.9159 N   0  0  0  0  0  0  0  0  0  0  0  0
   10.1635  -16.1632   23.1851 C   0  0  1  0  0  0  0  0  0  0  0  0
   11.6715  -16.1090   23.1027 C   0  0  0  0  0  0  0  0  0  0  0  0
   12.2071  -17.0053   22.0547 C   0  0  0  0  0  0  0  0  0  0  0  0
   11.8417  -18.1899   21.8691 O   0  0  0  0  0  0  0  0  0  0  0  0
    9.7769  -15.2635   24.3031 C   0  0  0  0  0  0  0  0  0  0  0  0
    9.4315  -14.0926   24.0171 O   0  0  0  0  0  0  0  0  0  0  0  0
   13.1916  -16.4721   21.2219 O   0  0  0  0  0  0  0  0  0  0  0  0
    9.7746  -15.6356   25.6333 O   0  0  0  0  0  0  0  0  0  0  0  0
  2  1  1  0
  2  3  2  0
  4  2  1  0
  5  4  1  0
  6  5  1  0
  6  8  1  0
  6  7  1  1
  8  9  2  0
 11 10  1  6
 12 11  1  0
 13 11  1  0
 14  8  1  0
 13 14  1  1
 15 16  2  0
 15 13  1  0
 17 15  1  0
 18 17  1  0
 19 20  1  0
 18 19  1  6
 20 21  2  0
 22 18  1  0
 22 25  1  0
 23 22  2  0
 24 20  1  0
M  END
$$$$
