QTD.pdb
     RDKit          3D

 25 24  0  0  1  0  0  0  0  0999 V2000
    7.5079  -13.9519   12.2911 N   0  0  0  0  0  0  0  0  0  0  0  0
    7.1255  -14.7487   13.4157 C   0  0  0  0  0  0  0  0  0  0  0  0
    6.0397  -14.4465   13.9810 O   0  0  0  0  0  0  0  0  0  0  0  0
    7.9804  -15.8612   13.8649 C   0  0  0  0  0  0  0  0  0  0  0  0
    9.0875  -15.4823   14.7848 C   0  0  0  0  0  0  0  0  0  0  0  0
    9.2164  -16.3450   16.0114 C   0  0  2  0  0  0  0  0  0  0  0  0
    8.0962  -17.2558   16.1515 N   0  0  0  0  0  0  0  0  0  0  0  0
    9.4494  -15.5507   17.2282 C   0  0  0  0  0  0  0  0  0  0  0  0
   10.3731  -14.7037   17.2252 O   0  0  0  0  0  0  0  0  0  0  0  0
    7.3756  -13.0612   19.4432 C   0  0  0  0  0  0  0  0  0  0  0  0
    7.9348  -14.1966   20.2820 C   0  0  1  0  0  0  0  0  0  0  0  0
    6.9362  -15.0288   20.7644 O   0  0  0  0  0  0  0  0  0  0  0  0
    9.0475  -14.9197   19.6052 C   0  0  2  0  0  0  0  0  0  0  0  0
    8.7209  -15.6447   18.4341 N   0  0  0  0  0  0  0  0  0  0  0  0
    9.6912  -15.8081   20.6267 C   0  0  0  0  0  0  0  0  0  0  0  0
    9.5432  -17.0692   20.5771 O   0  0  0  0  0  0  0  0  0  0  0  0
   10.4909  -15.3265   21.6942 N   0  0  0  0  0  0  0  0  0  0  0  0
   11.1606  -16.2049   22.6357 C   0  0  1  0  0  0  0  0  0  0  0  0
   12.4359  -15.5114   23.0560 C   0  0  0  0  0  0  0  0  0  0  0  0
   13.6366  -16.3268   22.7696 C   0  0  0  0  0  0  0  0  0  0  0  0
   13.6872  -17.2593   21.9335 O   0  0  0  0  0  0  0  0  0  0  0  0
   10.3587  -16.3840   23.8741 C   0  0  0  0  0  0  0  0  0  0  0  0
    9.5803  -15.4580   24.2043 O   0  0  0  0  0  0  0  0  0  0  0  0
   14.7875  -16.0179   23.4957 O   0  0  0  0  0  0  0  0  0  0  0  0
   10.4173  -17.5031   24.6815 O   0  0  0  0  0  0  0  0  0  0  0  0
  2  1  1  0
  2  3  2  0
  4  2  1  0
  5  4  1  0
  6  5  1  0
  6  8  1  0
  6  7  1  1
  8  9  2  0
 11 10  1  6
 12 11  1  0
 13 11  1  0
 14  8  1  0
 13 14  1  6
 15 16  2  0
 15 13  1  0
 17 15  1  0
 18 17  1  0
 19 20  1  0
 18 19  1  1
 20 21  2  0
 22 18  1  0
 22 25  1  0
 23 22  2  0
 24 20  1  0
M  END
$$$$
