QTD.pdb
     RDKit          3D

 25 24  0  0  1  0  0  0  0  0999 V2000
    7.4720  -13.1699   16.2366 N   0  0  0  0  0  0  0  0  0  0  0  0
    7.9165  -14.1777   15.3242 C   0  0  0  0  0  0  0  0  0  0  0  0
    7.2689  -14.2933   14.2486 O   0  0  0  0  0  0  0  0  0  0  0  0
    9.0780  -15.0215   15.6551 C   0  0  0  0  0  0  0  0  0  0  0  0
    9.7234  -14.7314   16.9646 C   0  0  0  0  0  0  0  0  0  0  0  0
    9.5882  -15.8212   17.9938 C   0  0  2  0  0  0  0  0  0  0  0  0
    8.3787  -16.5985   17.8019 N   0  0  0  0  0  0  0  0  0  0  0  0
    9.7132  -15.3077   19.3673 C   0  0  0  0  0  0  0  0  0  0  0  0
   10.7055  -14.5986   19.6558 O   0  0  0  0  0  0  0  0  0  0  0  0
    7.1556  -13.4791   22.0187 C   0  0  0  0  0  0  0  0  0  0  0  0
    7.8389  -14.7245   22.5549 C   0  0  1  0  0  0  0  0  0  0  0  0
    6.9425  -15.7610   22.7652 O   0  0  0  0  0  0  0  0  0  0  0  0
    9.0353  -15.1144   21.7574 C   0  0  2  0  0  0  0  0  0  0  0  0
    8.8069  -15.5364   20.4257 N   0  0  0  0  0  0  0  0  0  0  0  0
    9.7702  -16.1634   22.5363 C   0  0  0  0  0  0  0  0  0  0  0  0
    9.5877  -17.3979   22.2970 O   0  0  0  0  0  0  0  0  0  0  0  0
   10.6979  -15.8699   23.5680 N   0  0  0  0  0  0  0  0  0  0  0  0
   11.3085  -16.8953   24.3939 C   0  0  1  0  0  0  0  0  0  0  0  0
   12.7411  -16.4764   24.6304 C   0  0  0  0  0  0  0  0  0  0  0  0
   13.6173  -16.8087   23.4857 C   0  0  0  0  0  0  0  0  0  0  0  0
   13.2364  -17.3654   22.4292 O   0  0  0  0  0  0  0  0  0  0  0  0
   10.6698  -16.9627   25.7342 C   0  0  0  0  0  0  0  0  0  0  0  0
   11.0186  -17.8918   26.5008 O   0  0  0  0  0  0  0  0  0  0  0  0
   14.9646  -16.4684   23.6127 O   0  0  0  0  0  0  0  0  0  0  0  0
    9.7190  -16.0688   26.1867 O   0  0  0  0  0  0  0  0  0  0  0  0
  2  1  1  0
  2  3  2  0
  4  2  1  0
  5  4  1  0
  6  5  1  0
  6  8  1  0
  6  7  1  1
  8  9  2  0
 11 10  1  6
 12 11  1  0
 13 11  1  0
 14  8  1  0
 13 14  1  6
 15 16  2  0
 15 13  1  0
 17 15  1  0
 18 17  1  0
 19 20  1  0
 18 19  1  1
 20 21  2  0
 22 18  1  0
 22 25  1  0
 23 22  2  0
 24 20  1  0
M  END
$$$$
