WEY.pdb
     RDKit          3D

 36 38  0  0  1  0  0  0  0  0999 V2000
    6.6652  -17.4639   24.1138 N   0  0  0  0  0  0  0  0  0  0  0  0
    7.7032  -16.5623   23.6677 C   0  0  1  0  0  0  0  0  0  0  0  0
    8.3113  -15.8202   24.8408 C   0  0  0  0  0  0  0  0  0  0  0  0
    7.3094  -14.9140   25.4576 C   0  0  0  0  0  0  0  0  0  0  0  0
    6.1730  -15.1990   26.1812 C   0  0  0  0  0  0  0  0  0  0  0  0
    5.5705  -14.0623   26.5387 N   0  0  0  0  0  0  0  0  0  0  0  0
    6.2668  -13.0121   26.0776 C   0  0  0  0  0  0  0  0  0  0  0  0
    6.0806  -11.6455   26.1674 C   0  0  0  0  0  0  0  0  0  0  0  0
    6.9931  -10.8248   25.5740 C   0  0  0  0  0  0  0  0  0  0  0  0
    8.0967  -11.3365   24.8870 C   0  0  0  0  0  0  0  0  0  0  0  0
    8.2820  -12.6994   24.7978 C   0  0  0  0  0  0  0  0  0  0  0  0
    7.3633  -13.5321   25.3954 C   0  0  0  0  0  0  0  0  0  0  0  0
    8.7388  -17.3963   22.9566 C   0  0  0  0  0  0  0  0  0  0  0  0
    8.9957  -18.5348   23.3889 O   0  0  0  0  0  0  0  0  0  0  0  0
    9.4137  -16.9047   21.8157 N   0  0  0  0  0  0  0  0  0  0  0  0
   10.7923  -16.9866   21.5147 C   0  0  1  0  0  0  0  0  0  0  0  0
   11.2684  -16.1814   20.3104 C   0  0  0  0  0  0  0  0  0  0  0  0
   12.7365  -16.2256   20.0775 C   0  0  0  0  0  0  0  0  0  0  0  0
   13.0265  -16.4274   18.6187 C   0  0  0  0  0  0  0  0  0  0  0  0
   14.0621  -15.9583   18.1197 O   0  0  0  0  0  0  0  0  0  0  0  0
   11.7010  -16.7186   22.6307 C   0  0  0  0  0  0  0  0  0  0  0  0
   12.2050  -15.5451   22.6982 O   0  0  0  0  0  0  0  0  0  0  0  0
   12.1082  -17.1436   17.8716 O   0  0  0  0  0  0  0  0  0  0  0  0
   11.1359  -15.5705   31.1215 O   0  0  0  0  0  0  0  0  0  0  0  0
   11.0746  -15.9859   29.7978 C   0  0  0  0  0  0  0  0  0  0  0  0
   11.0737  -15.0331   28.7977 C   0  0  0  0  0  0  0  0  0  0  0  0
   11.0146  -15.3857   27.4679 C   0  0  0  0  0  0  0  0  0  0  0  0
   10.9539  -16.7380   27.1063 C   0  0  0  0  0  0  0  0  0  0  0  0
   10.8683  -17.1091   25.6911 C   0  0  0  0  0  0  0  0  0  0  0  0
   12.2089  -17.2387   25.0523 C   0  0  2  0  0  0  0  0  0  0  0  0
   12.0742  -17.6188   23.6326 N   0  0  0  0  0  0  0  0  0  0  0  0
   12.9957  -18.2874   25.7055 C   0  0  0  0  0  0  0  0  0  0  0  0
   13.8712  -17.9720   26.7216 O   0  0  0  0  0  0  0  0  0  0  0  0
   10.9555  -17.6892   28.1278 C   0  0  0  0  0  0  0  0  0  0  0  0
   11.0152  -17.3106   29.4513 C   0  0  0  0  0  0  0  0  0  0  0  0
   12.8845  -19.4793   25.3484 O   0  0  0  0  0  0  0  0  0  0  0  0
  2  1  1  1
  3  2  1  0
  4  3  1  0
  4 12  1  0
  5  6  1  0
  5  4  2  0
  6  7  1  0
  7  8  2  0
  7 12  1  0
  8  9  1  0
  9 10  2  0
 11 10  1  0
 12 11  2  0
 13  2  1  0
 14 13  2  0
 15 13  1  0
 16 15  1  0
 16 17  1  6
 18 17  1  0
 19 23  1  0
 19 18  1  0
 20 19  2  0
 21 16  1  0
 21 31  1  0
 22 21  2  0
 24 25  1  0
 25 26  2  0
 26 27  1  0
 28 29  1  0
 28 27  2  0
 30 29  1  1
 30 31  1  0
 30 32  1  0
 32 36  2  0
 32 33  1  0
 34 28  1  0
 35 34  2  0
 35 25  1  0
M  END
$$$$
