WEY.pdb
     RDKit          3D

 36 38  0  0  1  0  0  0  0  0999 V2000
    7.0585  -16.3291   22.3351 N   0  0  0  0  0  0  0  0  0  0  0  0
    8.3088  -15.8100   22.8417 C   0  0  1  0  0  0  0  0  0  0  0  0
    8.1930  -15.4719   24.3144 C   0  0  0  0  0  0  0  0  0  0  0  0
    7.0926  -14.5003   24.5391 C   0  0  0  0  0  0  0  0  0  0  0  0
    5.7414  -14.6093   24.2968 C   0  0  0  0  0  0  0  0  0  0  0  0
    5.1277  -13.4785   24.6541 N   0  0  0  0  0  0  0  0  0  0  0  0
    6.0254  -12.6037   25.1329 C   0  0  0  0  0  0  0  0  0  0  0  0
    5.9167  -11.3171   25.6263 C   0  0  0  0  0  0  0  0  0  0  0  0
    7.0491  -10.6834   26.0438 C   0  0  0  0  0  0  0  0  0  0  0  0
    8.2986  -11.3052   25.9816 C   0  0  0  0  0  0  0  0  0  0  0  0
    8.4064  -12.5882   25.4895 C   0  0  0  0  0  0  0  0  0  0  0  0
    7.2658  -13.2322   25.0667 C   0  0  0  0  0  0  0  0  0  0  0  0
    9.3555  -16.8700   22.6082 C   0  0  0  0  0  0  0  0  0  0  0  0
    9.2277  -17.9756   23.1653 O   0  0  0  0  0  0  0  0  0  0  0  0
   10.4686  -16.6246   21.7718 N   0  0  0  0  0  0  0  0  0  0  0  0
   11.7720  -17.1616   21.8740 C   0  0  1  0  0  0  0  0  0  0  0  0
   12.6910  -16.9330   20.6787 C   0  0  0  0  0  0  0  0  0  0  0  0
   13.0298  -15.5079   20.4222 C   0  0  0  0  0  0  0  0  0  0  0  0
   13.8705  -15.3872   19.1846 C   0  0  0  0  0  0  0  0  0  0  0  0
   14.9366  -14.7515   19.2162 O   0  0  0  0  0  0  0  0  0  0  0  0
   12.5083  -16.8097   23.0893 C   0  0  0  0  0  0  0  0  0  0  0  0
   12.8077  -15.5766   23.2485 O   0  0  0  0  0  0  0  0  0  0  0  0
   13.4139  -16.0022   18.0323 O   0  0  0  0  0  0  0  0  0  0  0  0
   10.8639  -15.7637   31.3967 O   0  0  0  0  0  0  0  0  0  0  0  0
   11.0110  -16.1022   30.0579 C   0  0  0  0  0  0  0  0  0  0  0  0
   11.1297  -15.0926   29.1225 C   0  0  0  0  0  0  0  0  0  0  0  0
   11.2780  -15.3680   27.7815 C   0  0  0  0  0  0  0  0  0  0  0  0
   11.3114  -16.6979   27.3414 C   0  0  0  0  0  0  0  0  0  0  0  0
   11.4467  -16.9871   25.9112 C   0  0  0  0  0  0  0  0  0  0  0  0
   12.8384  -17.3650   25.5338 C   0  0  2  0  0  0  0  0  0  0  0  0
   12.9180  -17.6885   24.0961 N   0  0  0  0  0  0  0  0  0  0  0  0
   13.2693  -18.5573   26.2674 C   0  0  0  0  0  0  0  0  0  0  0  0
   13.3203  -19.7825   25.6390 O   0  0  0  0  0  0  0  0  0  0  0  0
   11.1902  -17.7069   28.2981 C   0  0  0  0  0  0  0  0  0  0  0  0
   11.0426  -17.4053   29.6345 C   0  0  0  0  0  0  0  0  0  0  0  0
   13.5932  -18.4788   27.4713 O   0  0  0  0  0  0  0  0  0  0  0  0
  2  1  1  1
  3  2  1  0
  4  3  1  0
  4 12  1  0
  5  6  1  0
  5  4  2  0
  6  7  1  0
  7  8  2  0
  7 12  1  0
  8  9  1  0
  9 10  2  0
 11 10  1  0
 12 11  2  0
 13  2  1  0
 14 13  2  0
 15 13  1  0
 16 15  1  0
 16 17  1  6
 18 17  1  0
 19 23  1  0
 19 18  1  0
 20 19  2  0
 21 16  1  0
 21 31  1  0
 22 21  2  0
 24 25  1  0
 25 26  2  0
 26 27  1  0
 28 29  1  0
 28 27  2  0
 30 29  1  1
 30 31  1  0
 30 32  1  0
 32 36  2  0
 32 33  1  0
 34 28  1  0
 35 34  2  0
 35 25  1  0
M  END
$$$$
