WEY.pdb
     RDKit          3D

 36 38  0  0  1  0  0  0  0  0999 V2000
   10.2777  -16.4531   20.9803 N   0  0  0  0  0  0  0  0  0  0  0  0
    9.4956  -16.2283   22.1750 C   0  0  1  0  0  0  0  0  0  0  0  0
    8.0197  -16.4311   21.8973 C   0  0  0  0  0  0  0  0  0  0  0  0
    7.5896  -15.6006   20.7437 C   0  0  0  0  0  0  0  0  0  0  0  0
    7.0093  -15.9635   19.5487 C   0  0  0  0  0  0  0  0  0  0  0  0
    6.7949  -14.8761   18.8042 N   0  0  0  0  0  0  0  0  0  0  0  0
    7.2137  -13.7835   19.4610 C   0  0  0  0  0  0  0  0  0  0  0  0
    7.2209  -12.4383   19.1433 C   0  0  0  0  0  0  0  0  0  0  0  0
    7.7299  -11.5587   20.0520 C   0  0  0  0  0  0  0  0  0  0  0  0
    8.2366  -11.9899   21.2804 C   0  0  0  0  0  0  0  0  0  0  0  0
    8.2291  -13.3314   21.5966 C   0  0  0  0  0  0  0  0  0  0  0  0
    7.7161  -14.2233   20.6825 C   0  0  0  0  0  0  0  0  0  0  0  0
    9.9906  -17.1988   23.2175 C   0  0  0  0  0  0  0  0  0  0  0  0
    9.2068  -17.5797   24.1062 O   0  0  0  0  0  0  0  0  0  0  0  0
   11.3212  -17.6764   23.1966 N   0  0  0  0  0  0  0  0  0  0  0  0
   12.1569  -17.9791   24.2955 C   0  0  1  0  0  0  0  0  0  0  0  0
   13.5589  -18.4760   23.9595 C   0  0  0  0  0  0  0  0  0  0  0  0
   14.3881  -18.8347   25.1407 C   0  0  0  0  0  0  0  0  0  0  0  0
   15.7766  -19.2066   24.7087 C   0  0  0  0  0  0  0  0  0  0  0  0
   16.1221  -19.0537   23.5260 O   0  0  0  0  0  0  0  0  0  0  0  0
   12.2756  -16.9293   25.3088 C   0  0  0  0  0  0  0  0  0  0  0  0
   12.8482  -15.8427   24.9526 O   0  0  0  0  0  0  0  0  0  0  0  0
   16.6351  -19.7166   25.6665 O   0  0  0  0  0  0  0  0  0  0  0  0
    5.8753  -12.1210   28.0136 O   0  0  0  0  0  0  0  0  0  0  0  0
    6.8787  -12.9672   27.5601 C   0  0  0  0  0  0  0  0  0  0  0  0
    6.5335  -14.0597   26.7884 C   0  0  0  0  0  0  0  0  0  0  0  0
    7.4852  -14.9329   26.3108 C   0  0  0  0  0  0  0  0  0  0  0  0
    8.8383  -14.7206   26.6062 C   0  0  0  0  0  0  0  0  0  0  0  0
    9.8463  -15.6643   26.1152 C   0  0  0  0  0  0  0  0  0  0  0  0
   10.7981  -16.0894   27.1808 C   0  0  2  0  0  0  0  0  0  0  0  0
   11.8248  -16.9954   26.6301 N   0  0  0  0  0  0  0  0  0  0  0  0
   10.0991  -16.8235   28.2381 C   0  0  0  0  0  0  0  0  0  0  0  0
   10.2406  -18.1895   28.3496 O   0  0  0  0  0  0  0  0  0  0  0  0
    9.1716  -13.6128   27.3870 C   0  0  0  0  0  0  0  0  0  0  0  0
    8.2004  -12.7537   27.8531 C   0  0  0  0  0  0  0  0  0  0  0  0
    9.3649  -16.2212   29.0497 O   0  0  0  0  0  0  0  0  0  0  0  0
  2  1  1  6
  3  2  1  0
  4  3  1  0
  4 12  1  0
  5  6  1  0
  5  4  2  0
  6  7  1  0
  7  8  2  0
  7 12  1  0
  8  9  1  0
  9 10  2  0
 11 10  1  0
 12 11  2  0
 13  2  1  0
 14 13  2  0
 15 13  1  0
 16 15  1  0
 16 17  1  6
 18 17  1  0
 19 23  1  0
 19 18  1  0
 20 19  2  0
 21 16  1  0
 21 31  1  0
 22 21  2  0
 24 25  1  0
 25 26  2  0
 26 27  1  0
 28 29  1  0
 28 27  2  0
 30 29  1  6
 30 31  1  0
 30 32  1  0
 32 36  2  0
 32 33  1  0
 34 28  1  0
 35 34  2  0
 35 25  1  0
M  END
$$$$
