WEY.pdb
     RDKit          3D

 36 38  0  0  1  0  0  0  0  0999 V2000
    6.8693  -17.9374   24.6658 N   0  0  0  0  0  0  0  0  0  0  0  0
    7.7011  -16.9431   24.0265 C   0  0  1  0  0  0  0  0  0  0  0  0
    8.2180  -15.9424   25.0405 C   0  0  0  0  0  0  0  0  0  0  0  0
    7.1111  -15.0842   25.5338 C   0  0  0  0  0  0  0  0  0  0  0  0
    5.9347  -15.4194   26.1664 C   0  0  0  0  0  0  0  0  0  0  0  0
    5.2334  -14.3135   26.4276 N   0  0  0  0  0  0  0  0  0  0  0  0
    5.9015  -13.2354   25.9896 C   0  0  0  0  0  0  0  0  0  0  0  0
    5.6236  -11.8816   26.0117 C   0  0  0  0  0  0  0  0  0  0  0  0
    6.5325  -11.0226   25.4694 C   0  0  0  0  0  0  0  0  0  0  0  0
    7.7224  -11.4829   24.9002 C   0  0  0  0  0  0  0  0  0  0  0  0
    7.9991  -12.8331   24.8784 C   0  0  0  0  0  0  0  0  0  0  0  0
    7.0844  -13.7043   25.4249 C   0  0  0  0  0  0  0  0  0  0  0  0
    8.8370  -17.6777   23.3604 C   0  0  0  0  0  0  0  0  0  0  0  0
    9.2986  -18.6960   23.9073 O   0  0  0  0  0  0  0  0  0  0  0  0
    9.3775  -17.2277   22.1339 N   0  0  0  0  0  0  0  0  0  0  0  0
   10.7151  -17.3145   21.6858 C   0  0  1  0  0  0  0  0  0  0  0  0
   11.0077  -16.7115   20.3160 C   0  0  0  0  0  0  0  0  0  0  0  0
   12.3985  -16.9195   19.8325 C   0  0  0  0  0  0  0  0  0  0  0  0
   12.4009  -17.7988   18.6160 C   0  0  0  0  0  0  0  0  0  0  0  0
   13.0628  -18.8493   18.6090 O   0  0  0  0  0  0  0  0  0  0  0  0
   11.7298  -16.8305   22.6234 C   0  0  0  0  0  0  0  0  0  0  0  0
   12.3818  -15.7845   22.2821 O   0  0  0  0  0  0  0  0  0  0  0  0
   11.6491  -17.3950   17.5268 O   0  0  0  0  0  0  0  0  0  0  0  0
    9.5106  -15.9268   29.8573 O   0  0  0  0  0  0  0  0  0  0  0  0
   10.2904  -15.8105   28.7142 C   0  0  0  0  0  0  0  0  0  0  0  0
   11.4058  -16.6145   28.5814 C   0  0  0  0  0  0  0  0  0  0  0  0
   12.2161  -16.5432   27.4702 C   0  0  0  0  0  0  0  0  0  0  0  0
   11.9142  -15.6395   26.4429 C   0  0  0  0  0  0  0  0  0  0  0  0
   12.7911  -15.5504   25.2721 C   0  0  0  0  0  0  0  0  0  0  0  0
   13.1435  -16.8890   24.7189 C   0  0  2  0  0  0  0  0  0  0  0  0
   12.0585  -17.3980   23.8576 N   0  0  0  0  0  0  0  0  0  0  0  0
   13.3301  -17.8630   25.7967 C   0  0  0  0  0  0  0  0  0  0  0  0
   12.5379  -18.9883   25.8648 O   0  0  0  0  0  0  0  0  0  0  0  0
   10.7842  -14.8338   26.5913 C   0  0  0  0  0  0  0  0  0  0  0  0
    9.9893  -14.9240   27.7132 C   0  0  0  0  0  0  0  0  0  0  0  0
   14.2072  -17.6847   26.6680 O   0  0  0  0  0  0  0  0  0  0  0  0
  2  1  1  1
  3  2  1  0
  4  3  1  0
  4 12  1  0
  5  6  1  0
  5  4  2  0
  6  7  1  0
  7  8  2  0
  7 12  1  0
  8  9  1  0
  9 10  2  0
 11 10  1  0
 12 11  2  0
 13  2  1  0
 14 13  2  0
 15 13  1  0
 16 15  1  0
 16 17  1  6
 18 17  1  0
 19 23  1  0
 19 18  1  0
 20 19  2  0
 21 16  1  0
 21 31  1  0
 22 21  2  0
 24 25  1  0
 25 26  2  0
 26 27  1  0
 28 29  1  0
 28 27  2  0
 30 29  1  1
 30 31  1  0
 30 32  1  0
 32 36  2  0
 32 33  1  0
 34 28  1  0
 35 34  2  0
 35 25  1  0
M  END
$$$$
