WEY.pdb
     RDKit          3D

 36 38  0  0  1  0  0  0  0  0999 V2000
    6.7115  -17.4490   24.5118 N   0  0  0  0  0  0  0  0  0  0  0  0
    7.5847  -16.5477   23.7945 C   0  0  1  0  0  0  0  0  0  0  0  0
    8.0709  -15.4351   24.7012 C   0  0  0  0  0  0  0  0  0  0  0  0
    6.9299  -14.6015   25.1578 C   0  0  0  0  0  0  0  0  0  0  0  0
    5.8316  -14.9311   25.9205 C   0  0  0  0  0  0  0  0  0  0  0  0
    5.0571  -13.8556   26.0822 N   0  0  0  0  0  0  0  0  0  0  0  0
    5.5993  -12.8035   25.4500 C   0  0  0  0  0  0  0  0  0  0  0  0
    5.2082  -11.4853   25.3087 C   0  0  0  0  0  0  0  0  0  0  0  0
    6.0017  -10.6461   24.5845 C   0  0  0  0  0  0  0  0  0  0  0  0
    7.1860  -11.0916   23.9922 C   0  0  0  0  0  0  0  0  0  0  0  0
    7.5754  -12.4062   24.1335 C   0  0  0  0  0  0  0  0  0  0  0  0
    6.7776  -13.2573   24.8638 C   0  0  0  0  0  0  0  0  0  0  0  0
    8.7382  -17.3684   23.2750 C   0  0  0  0  0  0  0  0  0  0  0  0
    9.2104  -18.2670   23.9951 O   0  0  0  0  0  0  0  0  0  0  0  0
    9.2831  -17.1312   21.9921 N   0  0  0  0  0  0  0  0  0  0  0  0
   10.6340  -17.2245   21.5871 C   0  0  1  0  0  0  0  0  0  0  0  0
   10.9811  -16.5881   20.2455 C   0  0  0  0  0  0  0  0  0  0  0  0
   12.4199  -16.6653   19.8776 C   0  0  0  0  0  0  0  0  0  0  0  0
   12.6090  -16.2974   18.4348 C   0  0  0  0  0  0  0  0  0  0  0  0
   11.6890  -16.4785   17.6209 O   0  0  0  0  0  0  0  0  0  0  0  0
   11.6223  -16.7807   22.5717 C   0  0  0  0  0  0  0  0  0  0  0  0
   11.9237  -15.5379   22.5700 O   0  0  0  0  0  0  0  0  0  0  0  0
   13.8277  -15.7595   18.0607 O   0  0  0  0  0  0  0  0  0  0  0  0
   11.2892  -15.1130   30.8702 O   0  0  0  0  0  0  0  0  0  0  0  0
   11.2324  -15.5889   29.5669 C   0  0  0  0  0  0  0  0  0  0  0  0
   11.3136  -14.6884   28.5225 C   0  0  0  0  0  0  0  0  0  0  0  0
   11.2628  -15.1021   27.2101 C   0  0  0  0  0  0  0  0  0  0  0  0
   11.1264  -16.4644   26.9123 C   0  0  0  0  0  0  0  0  0  0  0  0
   11.0502  -16.8990   25.5148 C   0  0  0  0  0  0  0  0  0  0  0  0
   12.3890  -17.2165   24.9413 C   0  0  2  0  0  0  0  0  0  0  0  0
   12.2713  -17.5810   23.5161 N   0  0  0  0  0  0  0  0  0  0  0  0
   12.9902  -18.3611   25.6298 C   0  0  0  0  0  0  0  0  0  0  0  0
   13.1368  -19.5674   24.9804 O   0  0  0  0  0  0  0  0  0  0  0  0
   11.0456  -17.3622   27.9779 C   0  0  0  0  0  0  0  0  0  0  0  0
   11.0986  -16.9230   29.2829 C   0  0  0  0  0  0  0  0  0  0  0  0
   13.3749  -18.2586   26.8138 O   0  0  0  0  0  0  0  0  0  0  0  0
  2  1  1  1
  3  2  1  0
  4  3  1  0
  4 12  1  0
  5  6  1  0
  5  4  2  0
  6  7  1  0
  7  8  2  0
  7 12  1  0
  8  9  1  0
  9 10  2  0
 11 10  1  0
 12 11  2  0
 13  2  1  0
 14 13  2  0
 15 13  1  0
 16 15  1  0
 16 17  1  6
 18 17  1  0
 19 23  1  0
 19 18  1  0
 20 19  2  0
 21 16  1  0
 21 31  1  0
 22 21  2  0
 24 25  1  0
 25 26  2  0
 26 27  1  0
 28 29  1  0
 28 27  2  0
 30 29  1  1
 30 31  1  0
 30 32  1  0
 32 36  2  0
 32 33  1  0
 34 28  1  0
 35 34  2  0
 35 25  1  0
M  END
$$$$
