WEY.pdb
     RDKit          3D

 36 38  0  0  1  0  0  0  0  0999 V2000
    6.6738  -18.3257   24.3109 N   0  0  0  0  0  0  0  0  0  0  0  0
    7.1961  -17.4815   23.2603 C   0  0  1  0  0  0  0  0  0  0  0  0
    6.4909  -16.1402   23.2480 C   0  0  0  0  0  0  0  0  0  0  0  0
    6.6046  -15.4818   24.5742 C   0  0  0  0  0  0  0  0  0  0  0  0
    6.4138  -15.9861   25.8413 C   0  0  0  0  0  0  0  0  0  0  0  0
    6.6243  -15.0253   26.7443 N   0  0  0  0  0  0  0  0  0  0  0  0
    6.9532  -13.8812   26.1252 C   0  0  0  0  0  0  0  0  0  0  0  0
    7.2640  -12.6159   26.5866 C   0  0  0  0  0  0  0  0  0  0  0  0
    7.5603  -11.6465   25.6752 C   0  0  0  0  0  0  0  0  0  0  0  0
    7.5545  -11.9085   24.3030 C   0  0  0  0  0  0  0  0  0  0  0  0
    7.2446  -13.1705   23.8435 C   0  0  0  0  0  0  0  0  0  0  0  0
    6.9448  -14.1527   24.7598 C   0  0  0  0  0  0  0  0  0  0  0  0
    8.6727  -17.3167   23.5174 C   0  0  0  0  0  0  0  0  0  0  0  0
    9.1035  -17.4725   24.6747 O   0  0  0  0  0  0  0  0  0  0  0  0
    9.5641  -16.9911   22.4694 N   0  0  0  0  0  0  0  0  0  0  0  0
   10.7293  -17.6833   22.0684 C   0  0  1  0  0  0  0  0  0  0  0  0
   10.8145  -18.0622   20.5937 C   0  0  0  0  0  0  0  0  0  0  0  0
   10.3523  -17.0051   19.6554 C   0  0  0  0  0  0  0  0  0  0  0  0
   11.1908  -17.0109   18.4105 C   0  0  0  0  0  0  0  0  0  0  0  0
   12.1925  -17.7409   18.3385 O   0  0  0  0  0  0  0  0  0  0  0  0
   11.9982  -17.0636   22.4542 C   0  0  0  0  0  0  0  0  0  0  0  0
   13.0626  -17.7373   22.2330 O   0  0  0  0  0  0  0  0  0  0  0  0
   10.8059  -16.1842   17.3698 O   0  0  0  0  0  0  0  0  0  0  0  0
   10.4837  -15.1110   30.6476 O   0  0  0  0  0  0  0  0  0  0  0  0
   10.5786  -15.3480   29.2826 C   0  0  0  0  0  0  0  0  0  0  0  0
   10.3245  -14.3117   28.4051 C   0  0  0  0  0  0  0  0  0  0  0  0
   10.4033  -14.4877   27.0416 C   0  0  0  0  0  0  0  0  0  0  0  0
   10.7482  -15.7409   26.5182 C   0  0  0  0  0  0  0  0  0  0  0  0
   10.8092  -15.9306   25.0664 C   0  0  0  0  0  0  0  0  0  0  0  0
   12.1445  -15.5859   24.5006 C   0  0  2  0  0  0  0  0  0  0  0  0
   12.1639  -15.8061   23.0414 N   0  0  0  0  0  0  0  0  0  0  0  0
   13.1878  -16.4366   25.0779 C   0  0  0  0  0  0  0  0  0  0  0  0
   13.1925  -17.7937   24.8395 O   0  0  0  0  0  0  0  0  0  0  0  0
   11.0019  -16.7780   27.4171 C   0  0  0  0  0  0  0  0  0  0  0  0
   10.9163  -16.5765   28.7775 C   0  0  0  0  0  0  0  0  0  0  0  0
   14.0840  -15.9433   25.7948 O   0  0  0  0  0  0  0  0  0  0  0  0
  2  1  1  1
  3  2  1  0
  4  3  1  0
  4 12  1  0
  5  6  1  0
  5  4  2  0
  6  7  1  0
  7  8  2  0
  7 12  1  0
  8  9  1  0
  9 10  2  0
 11 10  1  0
 12 11  2  0
 13  2  1  0
 14 13  2  0
 15 13  1  0
 16 15  1  0
 16 17  1  6
 18 17  1  0
 19 23  1  0
 19 18  1  0
 20 19  2  0
 21 16  1  0
 21 31  1  0
 22 21  2  0
 24 25  1  0
 25 26  2  0
 26 27  1  0
 28 29  1  0
 28 27  2  0
 30 29  1  1
 30 31  1  0
 30 32  1  0
 32 36  2  0
 32 33  1  0
 34 28  1  0
 35 34  2  0
 35 25  1  0
M  END
$$$$
