WEY.pdb
     RDKit          3D

 36 38  0  0  1  0  0  0  0  0999 V2000
    6.8817  -18.0054   24.8600 N   0  0  0  0  0  0  0  0  0  0  0  0
    7.9073  -17.1854   24.2558 C   0  0  1  0  0  0  0  0  0  0  0  0
    8.4668  -16.1978   25.2599 C   0  0  0  0  0  0  0  0  0  0  0  0
    7.4126  -15.2470   25.6956 C   0  0  0  0  0  0  0  0  0  0  0  0
    6.3635  -15.4163   26.5715 C   0  0  0  0  0  0  0  0  0  0  0  0
    5.6632  -14.2828   26.6591 N   0  0  0  0  0  0  0  0  0  0  0  0
    6.2081  -13.3473   25.8663 C   0  0  0  0  0  0  0  0  0  0  0  0
    5.8780  -12.0325   25.5963 C   0  0  0  0  0  0  0  0  0  0  0  0
    6.6542  -11.3345   24.7196 C   0  0  0  0  0  0  0  0  0  0  0  0
    7.7612  -11.9191   24.0995 C   0  0  0  0  0  0  0  0  0  0  0  0
    8.0899  -13.2302   24.3692 C   0  0  0  0  0  0  0  0  0  0  0  0
    7.3092  -13.9391   25.2537 C   0  0  0  0  0  0  0  0  0  0  0  0
    8.9812  -18.1174   23.7541 C   0  0  0  0  0  0  0  0  0  0  0  0
    9.2742  -19.1191   24.4323 O   0  0  0  0  0  0  0  0  0  0  0  0
    9.6515  -17.8691   22.5343 N   0  0  0  0  0  0  0  0  0  0  0  0
   11.0072  -18.1138   22.2182 C   0  0  1  0  0  0  0  0  0  0  0  0
   11.3951  -17.9636   20.7511 C   0  0  0  0  0  0  0  0  0  0  0  0
   10.2793  -17.5618   19.8539 C   0  0  0  0  0  0  0  0  0  0  0  0
   10.7812  -16.6437   18.7777 C   0  0  0  0  0  0  0  0  0  0  0  0
   11.5216  -17.0811   17.8822 O   0  0  0  0  0  0  0  0  0  0  0  0
   11.9872  -17.3856   23.0260 C   0  0  0  0  0  0  0  0  0  0  0  0
   13.1619  -17.2594   22.5365 O   0  0  0  0  0  0  0  0  0  0  0  0
   10.3905  -15.3173   18.8276 O   0  0  0  0  0  0  0  0  0  0  0  0
    9.5703  -17.2730   30.3331 O   0  0  0  0  0  0  0  0  0  0  0  0
   10.1508  -16.7061   29.2062 C   0  0  0  0  0  0  0  0  0  0  0  0
   11.5100  -16.4599   29.2067 C   0  0  0  0  0  0  0  0  0  0  0  0
   12.1403  -15.8997   28.1180 C   0  0  0  0  0  0  0  0  0  0  0  0
   11.3985  -15.5672   26.9767 C   0  0  0  0  0  0  0  0  0  0  0  0
   12.0685  -14.9505   25.8285 C   0  0  0  0  0  0  0  0  0  0  0  0
   12.7538  -15.9511   24.9617 C   0  0  2  0  0  0  0  0  0  0  0  0
   11.7674  -16.8129   24.2818 N   0  0  0  0  0  0  0  0  0  0  0  0
   13.6127  -16.8281   25.7609 C   0  0  0  0  0  0  0  0  0  0  0  0
   14.7290  -16.3245   26.3924 O   0  0  0  0  0  0  0  0  0  0  0  0
   10.0263  -15.8217   26.9911 C   0  0  0  0  0  0  0  0  0  0  0  0
    9.4190  -16.3831   28.0932 C   0  0  0  0  0  0  0  0  0  0  0  0
   13.3454  -18.0427   25.8779 O   0  0  0  0  0  0  0  0  0  0  0  0
  2  1  1  1
  3  2  1  0
  4  3  1  0
  4 12  1  0
  5  6  1  0
  5  4  2  0
  6  7  1  0
  7  8  2  0
  7 12  1  0
  8  9  1  0
  9 10  2  0
 11 10  1  0
 12 11  2  0
 13  2  1  0
 14 13  2  0
 15 13  1  0
 16 15  1  0
 16 17  1  6
 18 17  1  0
 19 23  1  0
 19 18  1  0
 20 19  2  0
 21 16  1  0
 21 31  1  0
 22 21  2  0
 24 25  1  0
 25 26  2  0
 26 27  1  0
 28 29  1  0
 28 27  2  0
 30 29  1  1
 30 31  1  0
 30 32  1  0
 32 36  2  0
 32 33  1  0
 34 28  1  0
 35 34  2  0
 35 25  1  0
M  END
$$$$
