WEY.pdb
     RDKit          3D

 36 38  0  0  1  0  0  0  0  0999 V2000
    6.9583  -17.5272   24.3498 N   0  0  0  0  0  0  0  0  0  0  0  0
    8.0351  -16.6209   24.0201 C   0  0  1  0  0  0  0  0  0  0  0  0
    8.5953  -15.9743   25.2710 C   0  0  0  0  0  0  0  0  0  0  0  0
    7.5513  -15.1644   25.9489 C   0  0  0  0  0  0  0  0  0  0  0  0
    6.5274  -15.5473   26.7864 C   0  0  0  0  0  0  0  0  0  0  0  0
    5.8270  -14.4738   27.1606 N   0  0  0  0  0  0  0  0  0  0  0  0
    6.3474  -13.3713   26.6000 C   0  0  0  0  0  0  0  0  0  0  0  0
    6.0067  -12.0331   26.6607 C   0  0  0  0  0  0  0  0  0  0  0  0
    6.7565  -11.1391   25.9558 C   0  0  0  0  0  0  0  0  0  0  0  0
    7.8473  -11.5487   25.1850 C   0  0  0  0  0  0  0  0  0  0  0  0
    8.1865  -12.8833   25.1250 C   0  0  0  0  0  0  0  0  0  0  0  0
    7.4325  -13.7898   25.8350 C   0  0  0  0  0  0  0  0  0  0  0  0
    9.0902  -17.4277   23.3065 C   0  0  0  0  0  0  0  0  0  0  0  0
    9.1657  -18.6502   23.5276 O   0  0  0  0  0  0  0  0  0  0  0  0
    9.9851  -16.8174   22.3978 N   0  0  0  0  0  0  0  0  0  0  0  0
   11.3359  -17.1495   22.1475 C   0  0  1  0  0  0  0  0  0  0  0  0
   11.8417  -16.8944   20.7317 C   0  0  0  0  0  0  0  0  0  0  0  0
   10.9956  -17.4790   19.6575 C   0  0  0  0  0  0  0  0  0  0  0  0
   11.5627  -17.1455   18.3084 C   0  0  0  0  0  0  0  0  0  0  0  0
   11.6027  -18.0111   17.4191 O   0  0  0  0  0  0  0  0  0  0  0  0
   12.3098  -16.5914   23.0872 C   0  0  0  0  0  0  0  0  0  0  0  0
   12.5731  -15.3449   22.9762 O   0  0  0  0  0  0  0  0  0  0  0  0
   12.0289  -15.8587   18.1048 O   0  0  0  0  0  0  0  0  0  0  0  0
    9.3896  -14.1702   28.5647 O   0  0  0  0  0  0  0  0  0  0  0  0
   10.4553  -14.9027   28.0585 C   0  0  0  0  0  0  0  0  0  0  0  0
   11.2766  -14.3208   27.1124 C   0  0  0  0  0  0  0  0  0  0  0  0
   12.3481  -14.9986   26.5751 C   0  0  0  0  0  0  0  0  0  0  0  0
   12.6237  -16.3088   26.9883 C   0  0  0  0  0  0  0  0  0  0  0  0
   13.7513  -17.0353   26.3981 C   0  0  0  0  0  0  0  0  0  0  0  0
   13.9903  -16.6609   24.9751 C   0  0  2  0  0  0  0  0  0  0  0  0
   12.9826  -17.2860   24.0965 N   0  0  0  0  0  0  0  0  0  0  0  0
   15.3029  -17.1327   24.5279 C   0  0  0  0  0  0  0  0  0  0  0  0
   15.4024  -18.0603   23.5140 O   0  0  0  0  0  0  0  0  0  0  0  0
   11.7851  -16.8833   27.9447 C   0  0  0  0  0  0  0  0  0  0  0  0
   10.7189  -16.1840   28.4671 C   0  0  0  0  0  0  0  0  0  0  0  0
   16.3472  -16.7021   25.0613 O   0  0  0  0  0  0  0  0  0  0  0  0
  2  1  1  1
  3  2  1  0
  4  3  1  0
  4 12  1  0
  5  6  1  0
  5  4  2  0
  6  7  1  0
  7  8  2  0
  7 12  1  0
  8  9  1  0
  9 10  2  0
 11 10  1  0
 12 11  2  0
 13  2  1  0
 14 13  2  0
 15 13  1  0
 16 15  1  0
 16 17  1  6
 18 17  1  0
 19 23  1  0
 19 18  1  0
 20 19  2  0
 21 16  1  0
 21 31  1  0
 22 21  2  0
 24 25  1  0
 25 26  2  0
 26 27  1  0
 28 29  1  0
 28 27  2  0
 30 29  1  1
 30 31  1  0
 30 32  1  0
 32 36  2  0
 32 33  1  0
 34 28  1  0
 35 34  2  0
 35 25  1  0
M  END
$$$$
