WEY.pdb
     RDKit          3D

 36 38  0  0  1  0  0  0  0  0999 V2000
    6.9802  -17.2188   23.0941 N   0  0  0  0  0  0  0  0  0  0  0  0
    8.0683  -16.2778   22.9534 C   0  0  1  0  0  0  0  0  0  0  0  0
    8.5725  -15.8324   24.3114 C   0  0  0  0  0  0  0  0  0  0  0  0
    7.5048  -15.1127   25.0511 C   0  0  0  0  0  0  0  0  0  0  0  0
    6.4460  -15.5964   25.7869 C   0  0  0  0  0  0  0  0  0  0  0  0
    5.7351  -14.5774   26.2758 N   0  0  0  0  0  0  0  0  0  0  0  0
    6.2822  -13.4137   25.8923 C   0  0  0  0  0  0  0  0  0  0  0  0
    5.9445  -12.0931   26.1213 C   0  0  0  0  0  0  0  0  0  0  0  0
    6.7259  -11.1185   25.5756 C   0  0  0  0  0  0  0  0  0  0  0  0
    7.8457  -11.4296   24.8004 C   0  0  0  0  0  0  0  0  0  0  0  0
    8.1820  -12.7467   24.5724 C   0  0  0  0  0  0  0  0  0  0  0  0
    7.3960  -13.7343   25.1213 C   0  0  0  0  0  0  0  0  0  0  0  0
    9.1550  -16.9710   22.1710 C   0  0  0  0  0  0  0  0  0  0  0  0
    9.1446  -18.2134   22.0967 O   0  0  0  0  0  0  0  0  0  0  0  0
   10.1746  -16.2331   21.5270 N   0  0  0  0  0  0  0  0  0  0  0  0
   11.5611  -16.5055   21.4945 C   0  0  1  0  0  0  0  0  0  0  0  0
   12.3590  -15.8115   20.3958 C   0  0  0  0  0  0  0  0  0  0  0  0
   12.1816  -16.3949   19.0394 C   0  0  0  0  0  0  0  0  0  0  0  0
   12.8640  -15.5401   18.0116 C   0  0  0  0  0  0  0  0  0  0  0  0
   13.0030  -15.9556   16.8498 O   0  0  0  0  0  0  0  0  0  0  0  0
   12.2725  -16.3212   22.7606 C   0  0  0  0  0  0  0  0  0  0  0  0
   12.7102  -15.1464   23.0133 O   0  0  0  0  0  0  0  0  0  0  0  0
   13.3215  -14.2959   18.4081 O   0  0  0  0  0  0  0  0  0  0  0  0
   10.6724  -15.2914   31.0248 O   0  0  0  0  0  0  0  0  0  0  0  0
   10.7718  -15.5590   29.6658 C   0  0  0  0  0  0  0  0  0  0  0  0
   10.5997  -16.8571   29.2260 C   0  0  0  0  0  0  0  0  0  0  0  0
   10.6868  -17.1820   27.8907 C   0  0  0  0  0  0  0  0  0  0  0  0
   10.9553  -16.1832   26.9453 C   0  0  0  0  0  0  0  0  0  0  0  0
   11.0696  -16.5360   25.5275 C   0  0  0  0  0  0  0  0  0  0  0  0
   12.4215  -17.0560   25.1753 C   0  0  2  0  0  0  0  0  0  0  0  0
   12.5221  -17.3029   23.7237 N   0  0  0  0  0  0  0  0  0  0  0  0
   12.6780  -18.3319   25.8474 C   0  0  0  0  0  0  0  0  0  0  0  0
   12.6222  -19.5149   25.1431 O   0  0  0  0  0  0  0  0  0  0  0  0
   11.1268  -14.8765   27.4048 C   0  0  0  0  0  0  0  0  0  0  0  0
   11.0349  -14.5771   28.7466 C   0  0  0  0  0  0  0  0  0  0  0  0
   12.9478  -18.3637   27.0666 O   0  0  0  0  0  0  0  0  0  0  0  0
  2  1  1  1
  3  2  1  0
  4  3  1  0
  4 12  1  0
  5  6  1  0
  5  4  2  0
  6  7  1  0
  7  8  2  0
  7 12  1  0
  8  9  1  0
  9 10  2  0
 11 10  1  0
 12 11  2  0
 13  2  1  0
 14 13  2  0
 15 13  1  0
 16 15  1  0
 16 17  1  6
 18 17  1  0
 19 23  1  0
 19 18  1  0
 20 19  2  0
 21 16  1  0
 21 31  1  0
 22 21  2  0
 24 25  1  0
 25 26  2  0
 26 27  1  0
 28 29  1  0
 28 27  2  0
 30 29  1  6
 30 31  1  0
 30 32  1  0
 32 36  2  0
 32 33  1  0
 34 28  1  0
 35 34  2  0
 35 25  1  0
M  END
$$$$
