WEY.pdb
     RDKit          3D

 36 38  0  0  1  0  0  0  0  0999 V2000
    7.1744  -17.4822   24.2242 N   0  0  0  0  0  0  0  0  0  0  0  0
    8.1454  -16.5758   23.6543 C   0  0  1  0  0  0  0  0  0  0  0  0
    8.5560  -15.5234   24.6645 C   0  0  0  0  0  0  0  0  0  0  0  0
    7.3708  -14.7575   25.1271 C   0  0  0  0  0  0  0  0  0  0  0  0
    6.2719  -15.1632   25.8512 C   0  0  0  0  0  0  0  0  0  0  0  0
    5.4486  -14.1285   26.0370 N   0  0  0  0  0  0  0  0  0  0  0  0
    5.9583  -13.0302   25.4586 C   0  0  0  0  0  0  0  0  0  0  0  0
    5.5140  -11.7250   25.3598 C   0  0  0  0  0  0  0  0  0  0  0  0
    6.2858  -10.8250   24.6871 C   0  0  0  0  0  0  0  0  0  0  0  0
    7.5003  -11.1962   24.1049 C   0  0  0  0  0  0  0  0  0  0  0  0
    7.9428  -12.4979   24.2038 C   0  0  0  0  0  0  0  0  0  0  0  0
    7.1671  -13.4102   24.8822 C   0  0  0  0  0  0  0  0  0  0  0  0
    9.3279  -17.4067   23.2243 C   0  0  0  0  0  0  0  0  0  0  0  0
    9.6746  -18.3715   23.9300 O   0  0  0  0  0  0  0  0  0  0  0  0
   10.0395  -17.1056   22.0403 N   0  0  0  0  0  0  0  0  0  0  0  0
   11.4385  -17.1049   21.8394 C   0  0  1  0  0  0  0  0  0  0  0  0
   11.9289  -16.5348   20.5128 C   0  0  0  0  0  0  0  0  0  0  0  0
   13.3864  -16.7012   20.2686 C   0  0  0  0  0  0  0  0  0  0  0  0
   13.7447  -16.2053   18.8980 C   0  0  0  0  0  0  0  0  0  0  0  0
   14.4694  -15.2056   18.7678 O   0  0  0  0  0  0  0  0  0  0  0  0
   12.2323  -16.5066   22.9142 C   0  0  0  0  0  0  0  0  0  0  0  0
   12.1889  -15.2334   23.0264 O   0  0  0  0  0  0  0  0  0  0  0  0
   13.2419  -16.8969   17.8100 O   0  0  0  0  0  0  0  0  0  0  0  0
   10.5494  -16.1095   31.1750 O   0  0  0  0  0  0  0  0  0  0  0  0
   10.8423  -16.1915   29.8201 C   0  0  0  0  0  0  0  0  0  0  0  0
   10.2247  -15.3155   28.9486 C   0  0  0  0  0  0  0  0  0  0  0  0
   10.4762  -15.3500   27.5952 C   0  0  0  0  0  0  0  0  0  0  0  0
   11.3770  -16.2893   27.0762 C   0  0  0  0  0  0  0  0  0  0  0  0
   11.6253  -16.3380   25.6327 C   0  0  0  0  0  0  0  0  0  0  0  0
   12.8938  -17.0442   25.2946 C   0  0  2  0  0  0  0  0  0  0  0  0
   13.0350  -17.1890   23.8327 N   0  0  0  0  0  0  0  0  0  0  0  0
   12.9038  -18.3939   25.8635 C   0  0  0  0  0  0  0  0  0  0  0  0
   13.7001  -18.6876   26.9488 O   0  0  0  0  0  0  0  0  0  0  0  0
   11.9931  -17.1677   27.9689 C   0  0  0  0  0  0  0  0  0  0  0  0
   11.7245  -17.1131   29.3192 C   0  0  0  0  0  0  0  0  0  0  0  0
   12.1929  -19.2952   25.3708 O   0  0  0  0  0  0  0  0  0  0  0  0
  2  1  1  1
  3  2  1  0
  4  3  1  0
  4 12  1  0
  5  6  1  0
  5  4  2  0
  6  7  1  0
  7  8  2  0
  7 12  1  0
  8  9  1  0
  9 10  2  0
 11 10  1  0
 12 11  2  0
 13  2  1  0
 14 13  2  0
 15 13  1  0
 16 15  1  0
 16 17  1  6
 18 17  1  0
 19 23  1  0
 19 18  1  0
 20 19  2  0
 21 16  1  0
 21 31  1  0
 22 21  2  0
 24 25  1  0
 25 26  2  0
 26 27  1  0
 28 29  1  0
 28 27  2  0
 30 29  1  6
 30 31  1  0
 30 32  1  0
 32 36  2  0
 32 33  1  0
 34 28  1  0
 35 34  2  0
 35 25  1  0
M  END
$$$$
