WEY.pdb
     RDKit          3D

 36 38  0  0  1  0  0  0  0  0999 V2000
    8.3230  -17.8587   21.0989 N   0  0  0  0  0  0  0  0  0  0  0  0
    9.4773  -16.9930   21.1859 C   0  0  1  0  0  0  0  0  0  0  0  0
    9.2237  -15.8546   22.1535 C   0  0  0  0  0  0  0  0  0  0  0  0
    8.0735  -15.0329   21.6984 C   0  0  0  0  0  0  0  0  0  0  0  0
    6.7833  -14.9606   22.1747 C   0  0  0  0  0  0  0  0  0  0  0  0
    6.0858  -14.0808   21.4520 N   0  0  0  0  0  0  0  0  0  0  0  0
    6.8670  -13.5529   20.4973 C   0  0  0  0  0  0  0  0  0  0  0  0
    6.6406  -12.6176   19.5051 C   0  0  0  0  0  0  0  0  0  0  0  0
    7.6704  -12.2892   18.6745 C   0  0  0  0  0  0  0  0  0  0  0  0
    8.9316  -12.8748   18.8088 C   0  0  0  0  0  0  0  0  0  0  0  0
    9.1568  -13.8074   19.7985 C   0  0  0  0  0  0  0  0  0  0  0  0
    8.1201  -14.1422   20.6397 C   0  0  0  0  0  0  0  0  0  0  0  0
   10.6361  -17.8442   21.6401 C   0  0  0  0  0  0  0  0  0  0  0  0
   10.4258  -18.7644   22.4513 O   0  0  0  0  0  0  0  0  0  0  0  0
   11.9451  -17.6114   21.1593 N   0  0  0  0  0  0  0  0  0  0  0  0
   13.1709  -17.8113   21.8340 C   0  0  1  0  0  0  0  0  0  0  0  0
   14.4313  -17.4092   21.0757 C   0  0  0  0  0  0  0  0  0  0  0  0
   14.5984  -18.0743   19.7561 C   0  0  0  0  0  0  0  0  0  0  0  0
   15.4264  -17.2183   18.8426 C   0  0  0  0  0  0  0  0  0  0  0  0
   14.9418  -16.7899   17.7827 O   0  0  0  0  0  0  0  0  0  0  0  0
   13.2506  -17.2474   23.1827 C   0  0  0  0  0  0  0  0  0  0  0  0
   13.6582  -16.0393   23.2821 O   0  0  0  0  0  0  0  0  0  0  0  0
   16.7252  -16.9346   19.2260 O   0  0  0  0  0  0  0  0  0  0  0  0
   10.4995  -14.0631   30.7455 O   0  0  0  0  0  0  0  0  0  0  0  0
   10.7045  -14.7634   29.5640 C   0  0  0  0  0  0  0  0  0  0  0  0
   11.0954  -14.0696   28.4352 C   0  0  0  0  0  0  0  0  0  0  0  0
   11.3135  -14.7107   27.2362 C   0  0  0  0  0  0  0  0  0  0  0  0
   11.1391  -16.0979   27.1444 C   0  0  0  0  0  0  0  0  0  0  0  0
   11.3502  -16.7739   25.8613 C   0  0  0  0  0  0  0  0  0  0  0  0
   12.7663  -17.1954   25.6637 C   0  0  2  0  0  0  0  0  0  0  0  0
   12.9250  -17.8984   24.3758 N   0  0  0  0  0  0  0  0  0  0  0  0
   13.1823  -18.1257   26.7157 C   0  0  0  0  0  0  0  0  0  0  0  0
   13.5131  -19.4268   26.4055 O   0  0  0  0  0  0  0  0  0  0  0  0
   10.7438  -16.7851   28.2931 C   0  0  0  0  0  0  0  0  0  0  0  0
   10.5318  -16.1205   29.4813 C   0  0  0  0  0  0  0  0  0  0  0  0
   13.2401  -17.7522   27.9064 O   0  0  0  0  0  0  0  0  0  0  0  0
  2  1  1  1
  3  2  1  0
  4  3  1  0
  4 12  1  0
  5  6  1  0
  5  4  2  0
  6  7  1  0
  7  8  2  0
  7 12  1  0
  8  9  1  0
  9 10  2  0
 11 10  1  0
 12 11  2  0
 13  2  1  0
 14 13  2  0
 15 13  1  0
 16 15  1  0
 16 17  1  6
 18 17  1  0
 19 23  1  0
 19 18  1  0
 20 19  2  0
 21 16  1  0
 21 31  1  0
 22 21  2  0
 24 25  1  0
 25 26  2  0
 26 27  1  0
 28 29  1  0
 28 27  2  0
 30 29  1  1
 30 31  1  0
 30 32  1  0
 32 36  2  0
 32 33  1  0
 34 28  1  0
 35 34  2  0
 35 25  1  0
M  END
$$$$
