PKA.pdb
     RDKit          3D

 22 22  0  0  1  0  0  0  0  0999 V2000
   23.2634  -11.6457  -15.1899 N   0  0  0  0  0  0  0  0  0  0  0  0
   23.9329  -12.9030  -15.5439 C   0  0  0  0  0  0  0  0  0  0  0  0
   24.0433  -12.7391  -17.0414 C   0  0  0  0  0  0  0  0  0  0  0  0
   24.5312  -11.2968  -17.1555 C   0  0  0  0  0  0  0  0  0  0  0  0
   24.0566  -10.6540  -15.8947 C   0  0  1  0  0  0  0  0  0  0  0  0
   23.1827   -9.5048  -16.1856 C   0  0  0  0  0  0  0  0  0  0  0  0
   23.5737   -8.4814  -16.8144 O   0  0  0  0  0  0  0  0  0  0  0  0
   21.8347   -9.5289  -15.7485 N   0  0  0  0  0  0  0  0  0  0  0  0
   20.9245   -8.4702  -16.1413 C   0  0  1  0  0  0  0  0  0  0  0  0
   19.5639   -9.1163  -16.2741 C   0  0  0  0  0  0  0  0  0  0  0  0
   18.4952   -8.1756  -16.7334 C   0  0  0  0  0  0  0  0  0  0  0  0
   17.1747   -8.9047  -16.8139 C   0  0  0  0  0  0  0  0  0  0  0  0
   16.0607   -8.0039  -17.2744 C   0  0  0  0  0  0  0  0  0  0  0  0
   14.8140   -8.7557  -17.4556 N   0  0  0  0  0  0  0  0  0  0  0  0
   20.9767   -7.4121  -15.1200 C   0  0  0  0  0  0  0  0  0  0  0  0
   20.7711   -7.6359  -13.8845 O   0  0  0  0  0  0  0  0  0  0  0  0
   22.7041   -4.2266  -14.6821 C   0  0  0  0  0  0  0  0  0  0  0  0
   21.4463   -5.0259  -14.4581 C   0  0  2  0  0  0  0  0  0  0  0  0
   21.2630   -6.0618  -15.4543 N   0  0  0  0  0  0  0  0  0  0  0  0
   20.2454   -4.1586  -14.3403 C   0  0  0  0  0  0  0  0  0  0  0  0
   19.3139   -4.1311  -15.1756 O   0  0  0  0  0  0  0  0  0  0  0  0
   20.1572   -3.3290  -13.2315 O   0  0  0  0  0  0  0  0  0  0  0  0
  1  5  1  0
  2  1  1  0
  2  3  1  0
  3  4  1  0
  4  5  1  0
  5  6  1  6
  6  7  2  0
  8  9  1  0
  8  6  1  0
  9 15  1  0
  9 10  1  1
 11 10  1  0
 11 12  1  0
 13 12  1  0
 14 13  1  0
 15 16  2  0
 18 17  1  6
 18 20  1  0
 19 15  1  0
 19 18  1  0
 20 21  2  0
 20 22  1  0
M  END
$$$$
