PKA.pdb
     RDKit          3D

 22 22  0  0  1  0  0  0  0  0999 V2000
   22.6668   -9.3205  -14.2647 N   0  0  0  0  0  0  0  0  0  0  0  0
   23.4456  -10.4805  -13.8151 C   0  0  0  0  0  0  0  0  0  0  0  0
   23.1589  -11.4507  -14.9367 C   0  0  0  0  0  0  0  0  0  0  0  0
   23.3370  -10.5600  -16.1640 C   0  0  0  0  0  0  0  0  0  0  0  0
   23.0740   -9.1828  -15.6520 C   0  0  1  0  0  0  0  0  0  0  0  0
   21.9636   -8.5512  -16.3849 C   0  0  0  0  0  0  0  0  0  0  0  0
   22.0168   -8.2762  -17.6166 O   0  0  0  0  0  0  0  0  0  0  0  0
   20.7690   -8.2292  -15.6935 N   0  0  0  0  0  0  0  0  0  0  0  0
   19.6764   -7.5816  -16.3937 C   0  0  1  0  0  0  0  0  0  0  0  0
   18.4611   -8.4529  -16.1695 C   0  0  0  0  0  0  0  0  0  0  0  0
   17.2227   -7.9375  -16.8319 C   0  0  0  0  0  0  0  0  0  0  0  0
   16.0713   -8.8769  -16.5611 C   0  0  0  0  0  0  0  0  0  0  0  0
   14.7933   -8.3997  -17.1964 C   0  0  0  0  0  0  0  0  0  0  0  0
   13.7005   -9.3505  -16.9636 N   0  0  0  0  0  0  0  0  0  0  0  0
   19.5291   -6.2176  -15.8614 C   0  0  0  0  0  0  0  0  0  0  0  0
   19.5156   -5.9618  -14.6151 O   0  0  0  0  0  0  0  0  0  0  0  0
   19.5026   -2.7078  -17.3057 C   0  0  0  0  0  0  0  0  0  0  0  0
   19.3050   -3.7327  -16.2187 C   0  0  2  0  0  0  0  0  0  0  0  0
   19.3919   -5.0910  -16.7152 N   0  0  0  0  0  0  0  0  0  0  0  0
   18.0496   -3.5058  -15.4567 C   0  0  0  0  0  0  0  0  0  0  0  0
   16.9838   -4.1305  -15.6564 O   0  0  0  0  0  0  0  0  0  0  0  0
   18.0667   -2.5385  -14.4619 O   0  0  0  0  0  0  0  0  0  0  0  0
  1  5  1  0
  2  1  1  0
  2  3  1  0
  3  4  1  0
  4  5  1  0
  5  6  1  6
  6  7  2  0
  8  9  1  0
  8  6  1  0
  9 15  1  0
  9 10  1  1
 11 10  1  0
 11 12  1  0
 13 12  1  0
 14 13  1  0
 15 16  2  0
 18 17  1  6
 18 20  1  0
 19 15  1  0
 19 18  1  0
 20 21  2  0
 20 22  1  0
M  END
$$$$
