PKA.pdb
     RDKit          3D

 22 22  0  0  1  0  0  0  0  0999 V2000
   31.0269  -14.8720  -18.8148 N   0  0  0  0  0  0  0  0  0  0  0  0
   31.7033  -16.1743  -18.7920 C   0  0  0  0  0  0  0  0  0  0  0  0
   32.7303  -15.9656  -19.8798 C   0  0  0  0  0  0  0  0  0  0  0  0
   33.2589  -14.5746  -19.5377 C   0  0  0  0  0  0  0  0  0  0  0  0
   32.1376  -13.9366  -18.7869 C   0  0  1  0  0  0  0  0  0  0  0  0
   31.6972  -12.6973  -19.4498 C   0  0  0  0  0  0  0  0  0  0  0  0
   32.4501  -11.6963  -19.6132 O   0  0  0  0  0  0  0  0  0  0  0  0
   30.3691  -12.6035  -19.9357 N   0  0  0  0  0  0  0  0  0  0  0  0
   29.9302  -11.4045  -20.6236 C   0  0  1  0  0  0  0  0  0  0  0  0
   28.8893  -11.8538  -21.6241 C   0  0  0  0  0  0  0  0  0  0  0  0
   28.3735  -10.7487  -22.4906 C   0  0  0  0  0  0  0  0  0  0  0  0
   27.3981  -11.3059  -23.5005 C   0  0  0  0  0  0  0  0  0  0  0  0
   26.8797  -10.2418  -24.4297 C   0  0  0  0  0  0  0  0  0  0  0  0
   25.7676  -10.7466  -25.2428 N   0  0  0  0  0  0  0  0  0  0  0  0
   29.4139  -10.4585  -19.6216 C   0  0  0  0  0  0  0  0  0  0  0  0
   28.5616  -10.7889  -18.7365 O   0  0  0  0  0  0  0  0  0  0  0  0
   30.2882   -7.0156  -18.3650 C   0  0  0  0  0  0  0  0  0  0  0  0
   29.3255   -8.1458  -18.6235 C   0  0  2  0  0  0  0  0  0  0  0  0
   29.8400   -9.1044  -19.5804 N   0  0  0  0  0  0  0  0  0  0  0  0
   27.9766   -7.6554  -19.0085 C   0  0  0  0  0  0  0  0  0  0  0  0
   27.4761   -7.7967  -20.1468 O   0  0  0  0  0  0  0  0  0  0  0  0
   27.2297   -6.9999  -18.0400 O   0  0  0  0  0  0  0  0  0  0  0  0
  1  5  1  0
  2  1  1  0
  2  3  1  0
  3  4  1  0
  4  5  1  0
  5  6  1  6
  6  7  2  0
  8  9  1  0
  8  6  1  0
  9 15  1  0
  9 10  1  6
 11 10  1  0
 11 12  1  0
 13 12  1  0
 14 13  1  0
 15 16  2  0
 18 17  1  6
 18 20  1  0
 19 15  1  0
 19 18  1  0
 20 21  2  0
 20 22  1  0
M  END
$$$$
