PKA.pdb
     RDKit          3D

 22 22  0  0  1  0  0  0  0  0999 V2000
   20.9124  -19.9430  -17.9273 N   0  0  0  0  0  0  0  0  0  0  0  0
   21.5448  -19.2534  -19.0581 C   0  0  0  0  0  0  0  0  0  0  0  0
   21.8136  -20.4242  -19.9737 C   0  0  0  0  0  0  0  0  0  0  0  0
   20.4903  -21.1820  -19.8970 C   0  0  0  0  0  0  0  0  0  0  0  0
   19.9177  -20.7764  -18.5795 C   0  0  1  0  0  0  0  0  0  0  0  0
   19.6846  -21.9509  -17.7221 C   0  0  0  0  0  0  0  0  0  0  0  0
   18.9080  -22.8951  -18.0401 O   0  0  0  0  0  0  0  0  0  0  0  0
   20.3547  -22.0460  -16.4768 N   0  0  0  0  0  0  0  0  0  0  0  0
   20.1736  -23.2181  -15.6420 C   0  0  1  0  0  0  0  0  0  0  0  0
   21.5475  -23.5787  -15.1236 C   0  0  0  0  0  0  0  0  0  0  0  0
   22.3733  -24.3538  -16.1010 C   0  0  0  0  0  0  0  0  0  0  0  0
   23.7375  -24.6263  -15.5125 C   0  0  0  0  0  0  0  0  0  0  0  0
   24.6685  -25.2537  -16.5145 C   0  0  0  0  0  0  0  0  0  0  0  0
   26.0525  -25.2445  -16.0277 N   0  0  0  0  0  0  0  0  0  0  0  0
   19.2120  -22.8853  -14.5789 C   0  0  0  0  0  0  0  0  0  0  0  0
   19.2420  -21.7840  -13.9425 O   0  0  0  0  0  0  0  0  0  0  0  0
   15.9723  -24.3506  -13.2766 C   0  0  0  0  0  0  0  0  0  0  0  0
   17.1795  -23.4517  -13.2004 C   0  0  2  0  0  0  0  0  0  0  0  0
   18.1804  -23.7824  -14.1943 N   0  0  0  0  0  0  0  0  0  0  0  0
   17.7581  -23.4060  -11.8324 C   0  0  0  0  0  0  0  0  0  0  0  0
   18.8120  -23.9907  -11.4954 O   0  0  0  0  0  0  0  0  0  0  0  0
   17.0822  -22.6664  -10.8724 O   0  0  0  0  0  0  0  0  0  0  0  0
  1  5  1  0
  2  1  1  0
  2  3  1  0
  3  4  1  0
  4  5  1  0
  5  6  1  1
  6  7  2  0
  8  9  1  0
  8  6  1  0
  9 15  1  0
  9 10  1  1
 11 10  1  0
 11 12  1  0
 13 12  1  0
 14 13  1  0
 15 16  2  0
 18 17  1  1
 18 20  1  0
 19 15  1  0
 19 18  1  0
 20 21  2  0
 20 22  1  0
M  END
$$$$
