PKA.pdb
     RDKit          3D

 22 22  0  0  1  0  0  0  0  0999 V2000
   25.4226  -20.9554  -11.5461 N   0  0  0  0  0  0  0  0  0  0  0  0
   26.6139  -20.9703  -10.6889 C   0  0  0  0  0  0  0  0  0  0  0  0
   27.7011  -20.8904  -11.7345 C   0  0  0  0  0  0  0  0  0  0  0  0
   27.1617  -19.7965  -12.6530 C   0  0  0  0  0  0  0  0  0  0  0  0
   25.6854  -19.8382  -12.4361 C   0  0  1  0  0  0  0  0  0  0  0  0
   24.9741  -20.0944  -13.6999 C   0  0  0  0  0  0  0  0  0  0  0  0
   24.9820  -19.2887  -14.6727 O   0  0  0  0  0  0  0  0  0  0  0  0
   24.2403  -21.2974  -13.8526 N   0  0  0  0  0  0  0  0  0  0  0  0
   23.5451  -21.5715  -15.0955 C   0  0  1  0  0  0  0  0  0  0  0  0
   24.1777  -22.8229  -15.6614 C   0  0  0  0  0  0  0  0  0  0  0  0
   25.1992  -22.5528  -16.7204 C   0  0  0  0  0  0  0  0  0  0  0  0
   25.8437  -23.8497  -17.1495 C   0  0  0  0  0  0  0  0  0  0  0  0
   27.3303  -23.8444  -16.9163 C   0  0  0  0  0  0  0  0  0  0  0  0
   27.9363  -25.1113  -17.3412 N   0  0  0  0  0  0  0  0  0  0  0  0
   22.1108  -21.7184  -14.8012 C   0  0  0  0  0  0  0  0  0  0  0  0
   21.6776  -22.3096  -13.7612 O   0  0  0  0  0  0  0  0  0  0  0  0
   19.5112  -20.2449  -14.0688 C   0  0  0  0  0  0  0  0  0  0  0  0
   19.7164  -21.1022  -15.2911 C   0  0  2  0  0  0  0  0  0  0  0  0
   21.1114  -21.2036  -15.6691 N   0  0  0  0  0  0  0  0  0  0  0  0
   18.8691  -20.6645  -16.4307 C   0  0  0  0  0  0  0  0  0  0  0  0
   18.1390  -21.4308  -17.0984 O   0  0  0  0  0  0  0  0  0  0  0  0
   18.8934  -19.3195  -16.7711 O   0  0  0  0  0  0  0  0  0  0  0  0
  1  5  1  0
  2  1  1  0
  2  3  1  0
  3  4  1  0
  4  5  1  0
  5  6  1  6
  6  7  2  0
  8  9  1  0
  8  6  1  0
  9 15  1  0
  9 10  1  1
 11 10  1  0
 11 12  1  0
 13 12  1  0
 14 13  1  0
 15 16  2  0
 18 17  1  1
 18 20  1  0
 19 15  1  0
 19 18  1  0
 20 21  2  0
 20 22  1  0
M  END
$$$$
