PKA.pdb
     RDKit          3D

 22 22  0  0  1  0  0  0  0  0999 V2000
   28.3044  -22.2411  -15.7553 N   0  0  0  0  0  0  0  0  0  0  0  0
   29.6055  -22.4305  -16.4076 C   0  0  0  0  0  0  0  0  0  0  0  0
   29.1724  -22.5358  -17.8508 C   0  0  0  0  0  0  0  0  0  0  0  0
   28.1761  -21.3835  -17.9555 C   0  0  0  0  0  0  0  0  0  0  0  0
   27.6981  -21.1909  -16.5546 C   0  0  1  0  0  0  0  0  0  0  0  0
   26.2364  -21.3499  -16.4699 C   0  0  0  0  0  0  0  0  0  0  0  0
   25.4283  -20.7063  -17.1968 O   0  0  0  0  0  0  0  0  0  0  0  0
   25.6900  -22.2645  -15.5352 N   0  0  0  0  0  0  0  0  0  0  0  0
   24.2674  -22.5466  -15.5412 C   0  0  1  0  0  0  0  0  0  0  0  0
   24.1359  -24.0380  -15.3291 C   0  0  0  0  0  0  0  0  0  0  0  0
   24.1485  -24.8282  -16.5993 C   0  0  0  0  0  0  0  0  0  0  0  0
   24.0894  -26.3038  -16.2821 C   0  0  0  0  0  0  0  0  0  0  0  0
   24.0513  -27.1470  -17.5279 C   0  0  0  0  0  0  0  0  0  0  0  0
   24.0096  -28.5759  -17.1977 N   0  0  0  0  0  0  0  0  0  0  0  0
   23.6316  -21.7434  -14.4847 C   0  0  0  0  0  0  0  0  0  0  0  0
   24.0136  -21.7740  -13.2715 O   0  0  0  0  0  0  0  0  0  0  0  0
   21.5930  -18.6874  -14.1620 C   0  0  0  0  0  0  0  0  0  0  0  0
   21.8727  -20.1037  -13.7295 C   0  0  2  0  0  0  0  0  0  0  0  0
   22.5411  -20.8754  -14.7576 N   0  0  0  0  0  0  0  0  0  0  0  0
   20.6509  -20.7898  -13.2350 C   0  0  0  0  0  0  0  0  0  0  0  0
   20.1490  -21.8036  -13.7702 O   0  0  0  0  0  0  0  0  0  0  0  0
   20.0317  -20.2683  -12.1080 O   0  0  0  0  0  0  0  0  0  0  0  0
  1  5  1  0
  2  1  1  0
  2  3  1  0
  3  4  1  0
  4  5  1  0
  5  6  1  6
  6  7  2  0
  8  9  1  0
  8  6  1  0
  9 15  1  0
  9 10  1  1
 11 10  1  0
 11 12  1  0
 13 12  1  0
 14 13  1  0
 15 16  2  0
 18 17  1  6
 18 20  1  0
 19 15  1  0
 19 18  1  0
 20 21  2  0
 20 22  1  0
M  END
$$$$
