PKA.pdb
     RDKit          3D

 22 22  0  0  1  0  0  0  0  0999 V2000
   24.1113  -11.9344  -15.6173 N   0  0  0  0  0  0  0  0  0  0  0  0
   24.5258  -13.3229  -15.8512 C   0  0  0  0  0  0  0  0  0  0  0  0
   24.2663  -13.4370  -17.3349 C   0  0  0  0  0  0  0  0  0  0  0  0
   24.8638  -12.1300  -17.8508 C   0  0  0  0  0  0  0  0  0  0  0  0
   24.8013  -11.2147  -16.6733 C   0  0  1  0  0  0  0  0  0  0  0  0
   24.0134  -10.0097  -16.9837 C   0  0  0  0  0  0  0  0  0  0  0  0
   24.3502   -9.1731  -17.8682 O   0  0  0  0  0  0  0  0  0  0  0  0
   22.8163   -9.7588  -16.2678 N   0  0  0  0  0  0  0  0  0  0  0  0
   22.0215   -8.5839  -16.5701 C   0  0  1  0  0  0  0  0  0  0  0  0
   20.5808   -9.0428  -16.5723 C   0  0  0  0  0  0  0  0  0  0  0  0
   19.6028   -7.9481  -16.8606 C   0  0  0  0  0  0  0  0  0  0  0  0
   18.2014   -8.5112  -16.8894 C   0  0  0  0  0  0  0  0  0  0  0  0
   17.1688   -7.4414  -17.1211 C   0  0  0  0  0  0  0  0  0  0  0  0
   15.8108   -7.9794  -16.9836 N   0  0  0  0  0  0  0  0  0  0  0  0
   22.3105   -7.5562  -15.5573 C   0  0  0  0  0  0  0  0  0  0  0  0
   22.3067   -7.7990  -14.3084 O   0  0  0  0  0  0  0  0  0  0  0  0
   23.4784   -3.9433  -15.5554 C   0  0  0  0  0  0  0  0  0  0  0  0
   22.8783   -5.1800  -14.9377 C   0  0  2  0  0  0  0  0  0  0  0  0
   22.6148   -6.2161  -15.9157 N   0  0  0  0  0  0  0  0  0  0  0  0
   21.6725   -4.8717  -14.1258 C   0  0  0  0  0  0  0  0  0  0  0  0
   20.4974   -4.9945  -14.5385 O   0  0  0  0  0  0  0  0  0  0  0  0
   21.8686   -4.4195  -12.8287 O   0  0  0  0  0  0  0  0  0  0  0  0
  1  5  1  0
  2  1  1  0
  2  3  1  0
  3  4  1  0
  4  5  1  0
  5  6  1  6
  6  7  2  0
  8  9  1  0
  8  6  1  0
  9 15  1  0
  9 10  1  1
 11 10  1  0
 11 12  1  0
 13 12  1  0
 14 13  1  0
 15 16  2  0
 18 17  1  6
 18 20  1  0
 19 15  1  0
 19 18  1  0
 20 21  2  0
 20 22  1  0
M  END
$$$$
