PKA.pdb
     RDKit          3D

 22 22  0  0  1  0  0  0  0  0999 V2000
   24.1720  -21.4584  -13.4310 N   0  0  0  0  0  0  0  0  0  0  0  0
   25.5307  -21.9330  -13.1427 C   0  0  0  0  0  0  0  0  0  0  0  0
   25.3186  -23.4264  -13.2216 C   0  0  0  0  0  0  0  0  0  0  0  0
   24.4808  -23.5492  -14.4922 C   0  0  0  0  0  0  0  0  0  0  0  0
   23.8143  -22.2192  -14.6153 C   0  0  1  0  0  0  0  0  0  0  0  0
   22.3487  -22.3636  -14.6300 C   0  0  0  0  0  0  0  0  0  0  0  0
   21.7283  -23.0224  -15.5113 O   0  0  0  0  0  0  0  0  0  0  0  0
   21.5792  -21.7419  -13.6151 N   0  0  0  0  0  0  0  0  0  0  0  0
   20.1475  -21.9644  -13.5498 C   0  0  1  0  0  0  0  0  0  0  0  0
   19.8207  -22.1581  -12.0862 C   0  0  0  0  0  0  0  0  0  0  0  0
   19.4437  -23.5628  -11.7362 C   0  0  0  0  0  0  0  0  0  0  0  0
   19.2443  -23.6802  -10.2435 C   0  0  0  0  0  0  0  0  0  0  0  0
   18.7876  -25.0568   -9.8425 C   0  0  0  0  0  0  0  0  0  0  0  0
   18.6057  -25.1507   -8.3897 N   0  0  0  0  0  0  0  0  0  0  0  0
   19.4708  -20.8068  -14.1559 C   0  0  0  0  0  0  0  0  0  0  0  0
   19.4882  -19.6469  -13.6333 O   0  0  0  0  0  0  0  0  0  0  0  0
   17.9220  -19.9378  -17.4728 C   0  0  0  0  0  0  0  0  0  0  0  0
   18.0522  -19.7968  -15.9780 C   0  0  2  0  0  0  0  0  0  0  0  0
   18.7494  -20.9144  -15.3745 N   0  0  0  0  0  0  0  0  0  0  0  0
   16.7417  -19.5486  -15.3227 C   0  0  0  0  0  0  0  0  0  0  0  0
   16.0476  -18.5235  -15.5059 O   0  0  0  0  0  0  0  0  0  0  0  0
   16.2629  -20.5188  -14.4538 O   0  0  0  0  0  0  0  0  0  0  0  0
  1  5  1  0
  2  1  1  0
  2  3  1  0
  3  4  1  0
  4  5  1  0
  5  6  1  1
  6  7  2  0
  8  9  1  0
  8  6  1  0
  9 15  1  0
  9 10  1  1
 11 10  1  0
 11 12  1  0
 13 12  1  0
 14 13  1  0
 15 16  2  0
 18 17  1  6
 18 20  1  0
 19 15  1  0
 19 18  1  0
 20 21  2  0
 20 22  1  0
M  END
$$$$
