PKA.pdb
     RDKit          3D

 22 22  0  0  1  0  0  0  0  0999 V2000
   26.5215  -19.0917  -14.5494 N   0  0  0  0  0  0  0  0  0  0  0  0
   27.7401  -18.8542  -13.7666 C   0  0  0  0  0  0  0  0  0  0  0  0
   28.0184  -20.2524  -13.2674 C   0  0  0  0  0  0  0  0  0  0  0  0
   27.8065  -21.0770  -14.5348 C   0  0  0  0  0  0  0  0  0  0  0  0
   26.8828  -20.2424  -15.3585 C   0  0  1  0  0  0  0  0  0  0  0  0
   25.6454  -20.9775  -15.6707 C   0  0  0  0  0  0  0  0  0  0  0  0
   25.6335  -22.0777  -16.2913 O   0  0  0  0  0  0  0  0  0  0  0  0
   24.3978  -20.4424  -15.2635 N   0  0  0  0  0  0  0  0  0  0  0  0
   23.1835  -21.2158  -15.4389 C   0  0  1  0  0  0  0  0  0  0  0  0
   22.4367  -21.1251  -14.1272 C   0  0  0  0  0  0  0  0  0  0  0  0
   21.1101  -21.8164  -14.1429 C   0  0  0  0  0  0  0  0  0  0  0  0
   20.4067  -21.5993  -12.8239 C   0  0  0  0  0  0  0  0  0  0  0  0
   19.0688  -22.2867  -12.7788 C   0  0  0  0  0  0  0  0  0  0  0  0
   18.3582  -21.9784  -11.5328 N   0  0  0  0  0  0  0  0  0  0  0  0
   22.4398  -20.6577  -16.5795 C   0  0  0  0  0  0  0  0  0  0  0  0
   22.2127  -19.4128  -16.7116 O   0  0  0  0  0  0  0  0  0  0  0  0
   21.6199  -21.6043  -20.0499 C   0  0  0  0  0  0  0  0  0  0  0  0
   21.2018  -20.9578  -18.7544 C   0  0  2  0  0  0  0  0  0  0  0  0
   21.9247  -21.4833  -17.6140 N   0  0  0  0  0  0  0  0  0  0  0  0
   19.7315  -21.0177  -18.5476 C   0  0  0  0  0  0  0  0  0  0  0  0
   19.1818  -21.5645  -17.5653 O   0  0  0  0  0  0  0  0  0  0  0  0
   18.9221  -20.4282  -19.5083 O   0  0  0  0  0  0  0  0  0  0  0  0
  1  5  1  0
  2  1  1  0
  2  3  1  0
  3  4  1  0
  4  5  1  0
  5  6  1  1
  6  7  2  0
  8  9  1  0
  8  6  1  0
  9 15  1  0
  9 10  1  1
 11 10  1  0
 11 12  1  0
 13 12  1  0
 14 13  1  0
 15 16  2  0
 18 17  1  6
 18 20  1  0
 19 15  1  0
 19 18  1  0
 20 21  2  0
 20 22  1  0
M  END
$$$$
