PKA.pdb
     RDKit          3D

 22 22  0  0  1  0  0  0  0  0999 V2000
   26.4157  -11.6686  -15.5490 N   0  0  0  0  0  0  0  0  0  0  0  0
   27.2586  -12.8414  -15.8105 C   0  0  0  0  0  0  0  0  0  0  0  0
   26.7400  -13.2505  -17.1689 C   0  0  0  0  0  0  0  0  0  0  0  0
   26.6727  -11.9052  -17.8880 C   0  0  0  0  0  0  0  0  0  0  0  0
   26.5329  -10.9116  -16.7829 C   0  0  1  0  0  0  0  0  0  0  0  0
   25.3025  -10.1176  -16.9406 C   0  0  0  0  0  0  0  0  0  0  0  0
   25.0701   -9.3974  -17.9520 O   0  0  0  0  0  0  0  0  0  0  0  0
   24.3191  -10.1501  -15.9205 N   0  0  0  0  0  0  0  0  0  0  0  0
   23.0765   -9.4206  -16.0857 C   0  0  1  0  0  0  0  0  0  0  0  0
   21.9823  -10.3421  -15.5958 C   0  0  0  0  0  0  0  0  0  0  0  0
   21.5034  -11.3090  -16.6320 C   0  0  0  0  0  0  0  0  0  0  0  0
   20.3992  -12.1653  -16.0583 C   0  0  0  0  0  0  0  0  0  0  0  0
   19.9321  -13.2110  -17.0344 C   0  0  0  0  0  0  0  0  0  0  0  0
   19.0366  -14.1759  -16.3867 N   0  0  0  0  0  0  0  0  0  0  0  0
   23.1724   -8.1643  -15.3255 C   0  0  0  0  0  0  0  0  0  0  0  0
   23.5061   -8.1250  -14.0984 O   0  0  0  0  0  0  0  0  0  0  0  0
   23.1027   -4.4675  -16.1568 C   0  0  0  0  0  0  0  0  0  0  0  0
   23.0659   -5.6483  -15.2211 C   0  0  2  0  0  0  0  0  0  0  0  0
   22.8957   -6.9052  -15.9214 N   0  0  0  0  0  0  0  0  0  0  0  0
   22.0559   -5.4783  -14.1445 C   0  0  0  0  0  0  0  0  0  0  0  0
   20.9583   -6.0786  -14.1097 O   0  0  0  0  0  0  0  0  0  0  0  0
   22.3546   -4.5968  -13.1154 O   0  0  0  0  0  0  0  0  0  0  0  0
  1  5  1  0
  2  1  1  0
  2  3  1  0
  3  4  1  0
  4  5  1  0
  5  6  1  6
  6  7  2  0
  8  9  1  0
  8  6  1  0
  9 15  1  0
  9 10  1  1
 11 10  1  0
 11 12  1  0
 13 12  1  0
 14 13  1  0
 15 16  2  0
 18 17  1  6
 18 20  1  0
 19 15  1  0
 19 18  1  0
 20 21  2  0
 20 22  1  0
M  END
$$$$
