PKA.pdb
     RDKit          3D

 22 22  0  0  1  0  0  0  0  0999 V2000
   17.4472  -10.7120  -16.1274 N   0  0  0  0  0  0  0  0  0  0  0  0
   16.8740  -12.0508  -16.3095 C   0  0  0  0  0  0  0  0  0  0  0  0
   18.1343  -12.8625  -16.4943 C   0  0  0  0  0  0  0  0  0  0  0  0
   19.0183  -12.3126  -15.3774 C   0  0  0  0  0  0  0  0  0  0  0  0
   18.4810  -10.9415  -15.1335 C   0  0  1  0  0  0  0  0  0  0  0  0
   19.5266   -9.9231  -15.3304 C   0  0  0  0  0  0  0  0  0  0  0  0
   20.5944   -9.8901  -14.6563 O   0  0  0  0  0  0  0  0  0  0  0  0
   19.3458   -8.9238  -16.3191 N   0  0  0  0  0  0  0  0  0  0  0  0
   20.3954   -7.9561  -16.5745 C   0  0  1  0  0  0  0  0  0  0  0  0
   20.3407   -7.6611  -18.0565 C   0  0  0  0  0  0  0  0  0  0  0  0
   21.3740   -6.6797  -18.5116 C   0  0  0  0  0  0  0  0  0  0  0  0
   21.2778   -6.4953  -20.0077 C   0  0  0  0  0  0  0  0  0  0  0  0
   22.3468   -5.5752  -20.5321 C   0  0  0  0  0  0  0  0  0  0  0  0
   22.1991   -5.3625  -21.9762 N   0  0  0  0  0  0  0  0  0  0  0  0
   20.1525   -6.7758  -15.7300 C   0  0  0  0  0  0  0  0  0  0  0  0
   18.9859   -6.3284  -15.4898 O   0  0  0  0  0  0  0  0  0  0  0  0
   22.1392   -4.6902  -13.3013 C   0  0  0  0  0  0  0  0  0  0  0  0
   21.0032   -4.9076  -14.2674 C   0  0  2  0  0  0  0  0  0  0  0  0
   21.2167   -6.0561  -15.1245 N   0  0  0  0  0  0  0  0  0  0  0  0
   20.6954   -3.6851  -15.0540 C   0  0  0  0  0  0  0  0  0  0  0  0
   21.0373   -3.5114  -16.2453 O   0  0  0  0  0  0  0  0  0  0  0  0
   19.9833   -2.6757  -14.4219 O   0  0  0  0  0  0  0  0  0  0  0  0
  1  5  1  0
  2  1  1  0
  2  3  1  0
  3  4  1  0
  4  5  1  0
  5  6  1  6
  6  7  2  0
  8  9  1  0
  8  6  1  0
  9 15  1  0
  9 10  1  6
 11 10  1  0
 11 12  1  0
 13 12  1  0
 14 13  1  0
 15 16  2  0
 18 17  1  6
 18 20  1  0
 19 15  1  0
 19 18  1  0
 20 21  2  0
 20 22  1  0
M  END
$$$$
