PKA.pdb
     RDKit          3D

 22 22  0  0  1  0  0  0  0  0999 V2000
   26.8225  -11.8479  -17.7179 N   0  0  0  0  0  0  0  0  0  0  0  0
   28.0558  -12.4076  -17.1524 C   0  0  0  0  0  0  0  0  0  0  0  0
   28.2477  -11.4951  -15.9641 C   0  0  0  0  0  0  0  0  0  0  0  0
   26.8347  -11.4427  -15.3879 C   0  0  0  0  0  0  0  0  0  0  0  0
   25.9569  -11.7482  -16.5559 C   0  0  1  0  0  0  0  0  0  0  0  0
   25.0035  -10.6524  -16.7995 C   0  0  0  0  0  0  0  0  0  0  0  0
   25.1591   -9.7910  -17.7102 O   0  0  0  0  0  0  0  0  0  0  0  0
   23.8491  -10.5419  -15.9846 N   0  0  0  0  0  0  0  0  0  0  0  0
   22.7992   -9.6048  -16.3354 C   0  0  1  0  0  0  0  0  0  0  0  0
   21.4941  -10.3283  -16.0910 C   0  0  0  0  0  0  0  0  0  0  0  0
   20.2858   -9.5279  -16.4617 C   0  0  0  0  0  0  0  0  0  0  0  0
   19.0372  -10.3300  -16.1801 C   0  0  0  0  0  0  0  0  0  0  0  0
   17.7869   -9.5630  -16.5161 C   0  0  0  0  0  0  0  0  0  0  0  0
   16.5901  -10.2753  -16.0550 N   0  0  0  0  0  0  0  0  0  0  0  0
   22.9646   -8.3953  -15.5137 C   0  0  0  0  0  0  0  0  0  0  0  0
   23.1075   -8.4347  -14.2500 O   0  0  0  0  0  0  0  0  0  0  0  0
   23.5071   -4.6975  -16.1604 C   0  0  0  0  0  0  0  0  0  0  0  0
   23.1714   -5.8920  -15.3051 C   0  0  2  0  0  0  0  0  0  0  0  0
   22.9751   -7.0960  -16.0869 N   0  0  0  0  0  0  0  0  0  0  0  0
   22.0201   -5.6291  -14.4032 C   0  0  0  0  0  0  0  0  0  0  0  0
   20.8560   -6.0381  -14.6125 O   0  0  0  0  0  0  0  0  0  0  0  0
   22.2573   -4.8821  -13.2581 O   0  0  0  0  0  0  0  0  0  0  0  0
  1  5  1  0
  2  1  1  0
  2  3  1  0
  3  4  1  0
  4  5  1  0
  5  6  1  6
  6  7  2  0
  8  9  1  0
  8  6  1  0
  9 15  1  0
  9 10  1  1
 11 10  1  0
 11 12  1  0
 13 12  1  0
 14 13  1  0
 15 16  2  0
 18 17  1  6
 18 20  1  0
 19 15  1  0
 19 18  1  0
 20 21  2  0
 20 22  1  0
M  END
$$$$
