PKA.pdb
     RDKit          3D

 22 22  0  0  1  0  0  0  0  0999 V2000
   26.8052  -19.3237  -15.3912 N   0  0  0  0  0  0  0  0  0  0  0  0
   28.1788  -18.8088  -15.3456 C   0  0  0  0  0  0  0  0  0  0  0  0
   28.6963  -19.5252  -14.1206 C   0  0  0  0  0  0  0  0  0  0  0  0
   28.1830  -20.9436  -14.3567 C   0  0  0  0  0  0  0  0  0  0  0  0
   26.9975  -20.7557  -15.2441 C   0  0  1  0  0  0  0  0  0  0  0  0
   25.7821  -21.3103  -14.6243 C   0  0  0  0  0  0  0  0  0  0  0  0
   25.6617  -22.5273  -14.3079 O   0  0  0  0  0  0  0  0  0  0  0  0
   24.6838  -20.4540  -14.3610 N   0  0  0  0  0  0  0  0  0  0  0  0
   23.4748  -20.9863  -13.7623 C   0  0  1  0  0  0  0  0  0  0  0  0
   23.3795  -20.3633  -12.3879 C   0  0  0  0  0  0  0  0  0  0  0  0
   22.8571  -21.2958  -11.3412 C   0  0  0  0  0  0  0  0  0  0  0  0
   22.7061  -20.5588  -10.0314 C   0  0  0  0  0  0  0  0  0  0  0  0
   22.1749  -21.4498   -8.9413 C   0  0  0  0  0  0  0  0  0  0  0  0
   22.0909  -20.7308   -7.6652 N   0  0  0  0  0  0  0  0  0  0  0  0
   22.3397  -20.6555  -14.6386 C   0  0  0  0  0  0  0  0  0  0  0  0
   22.1937  -19.5110  -15.1748 O   0  0  0  0  0  0  0  0  0  0  0  0
   19.7760  -22.4542  -16.6491 C   0  0  0  0  0  0  0  0  0  0  0  0
   20.1841  -21.2944  -15.7777 C   0  0  2  0  0  0  0  0  0  0  0  0
   21.3272  -21.6037  -14.9429 N   0  0  0  0  0  0  0  0  0  0  0  0
   19.0474  -20.7670  -14.9790 C   0  0  0  0  0  0  0  0  0  0  0  0
   18.8902  -20.9789  -13.7556 O   0  0  0  0  0  0  0  0  0  0  0  0
   18.1039  -19.9909  -15.6371 O   0  0  0  0  0  0  0  0  0  0  0  0
  1  5  1  0
  2  1  1  0
  2  3  1  0
  3  4  1  0
  4  5  1  0
  5  6  1  1
  6  7  2  0
  8  9  1  0
  8  6  1  0
  9 15  1  0
  9 10  1  1
 11 10  1  0
 11 12  1  0
 13 12  1  0
 14 13  1  0
 15 16  2  0
 18 17  1  1
 18 20  1  0
 19 15  1  0
 19 18  1  0
 20 21  2  0
 20 22  1  0
M  END
$$$$
