HDA.pdb
     RDKit          3D

 24 24  0  0  1  0  0  0  0  0999 V2000
    8.8773  -16.6645   20.2812 N   0  0  0  0  0  0  0  0  0  0  0  0
    9.1393  -15.6817   21.3230 C   0  0  1  0  0  0  0  0  0  0  0  0
    8.0072  -14.6666   21.3446 C   0  0  0  0  0  0  0  0  0  0  0  0
    8.0355  -13.8628   20.0916 C   0  0  0  0  0  0  0  0  0  0  0  0
    8.7941  -12.7548   19.8300 C   0  0  0  0  0  0  0  0  0  0  0  0
    8.4944  -12.3509   18.5769 N   0  0  0  0  0  0  0  0  0  0  0  0
    7.5727  -13.1747   18.0525 C   0  0  0  0  0  0  0  0  0  0  0  0
    7.3024  -14.0901   18.9848 N   0  0  0  0  0  0  0  0  0  0  0  0
    9.1892  -16.4311   22.6211 C   0  0  0  0  0  0  0  0  0  0  0  0
    8.2410  -17.1491   23.0264 O   0  0  0  0  0  0  0  0  0  0  0  0
   10.3426  -16.3645   23.4798 N   0  0  0  0  0  0  0  0  0  0  0  0
   10.3504  -16.9567   24.7816 C   0  0  1  0  0  0  0  0  0  0  0  0
   11.4854  -18.0008   24.7787 C   0  0  0  0  0  0  0  0  0  0  0  0
   11.5426  -18.7009   26.0828 C   0  0  0  0  0  0  0  0  0  0  0  0
   10.5221  -19.1063   26.6889 O   0  0  0  0  0  0  0  0  0  0  0  0
   10.6564  -15.9806   25.8564 C   0  0  0  0  0  0  0  0  0  0  0  0
   11.7564  -15.3478   25.8871 O   0  0  0  0  0  0  0  0  0  0  0  0
   12.7911  -18.9116   26.6491 O   0  0  0  0  0  0  0  0  0  0  0  0
    8.8961  -13.8039   28.2687 C   0  0  0  0  0  0  0  0  0  0  0  0
   10.0680  -14.7292   27.9606 C   0  0  2  0  0  0  0  0  0  0  0  0
    9.7566  -15.6713   26.9319 N   0  0  0  0  0  0  0  0  0  0  0  0
   10.5782  -15.2809   29.2075 C   0  0  0  0  0  0  0  0  0  0  0  0
   10.5019  -16.5494   29.3369 O   0  0  0  0  0  0  0  0  0  0  0  0
   11.1306  -14.6100   30.2618 O   0  0  0  0  0  0  0  0  0  0  0  0
  2  1  1  6
  2  9  1  0
  3  4  1  0
  3  2  1  0
  4  8  1  0
  5  6  1  0
  5  4  2  0
  6  7  1  0
  7  8  2  0
  9 11  1  0
  9 10  2  0
 11 12  1  0
 12 16  1  0
 13 14  1  0
 12 13  1  6
 14 15  2  0
 16 17  2  0
 16 21  1  0
 18 14  1  0
 20 19  1  1
 20 22  1  0
 21 20  1  0
 22 24  1  0
 23 22  2  0
M  END
$$$$
