HDA.pdb
     RDKit          3D

 24 24  0  0  1  0  0  0  0  0999 V2000
    7.8794  -17.3988   19.2429 N   0  0  0  0  0  0  0  0  0  0  0  0
    8.9055  -16.5548   19.8384 C   0  0  1  0  0  0  0  0  0  0  0  0
    8.2650  -15.2667   20.3315 C   0  0  0  0  0  0  0  0  0  0  0  0
    7.9974  -14.3691   19.1741 C   0  0  0  0  0  0  0  0  0  0  0  0
    8.2457  -14.6186   17.8522 C   0  0  0  0  0  0  0  0  0  0  0  0
    7.8519  -13.5292   17.1581 N   0  0  0  0  0  0  0  0  0  0  0  0
    7.3665  -12.6111   18.0093 C   0  0  0  0  0  0  0  0  0  0  0  0
    7.4609  -13.1351   19.2328 N   0  0  0  0  0  0  0  0  0  0  0  0
    9.4809  -17.3226   20.9911 C   0  0  0  0  0  0  0  0  0  0  0  0
    8.7845  -18.0692   21.7236 O   0  0  0  0  0  0  0  0  0  0  0  0
   10.8800  -17.2418   21.3202 N   0  0  0  0  0  0  0  0  0  0  0  0
   11.4345  -17.9404   22.4382 C   0  0  1  0  0  0  0  0  0  0  0  0
   12.9190  -18.1902   22.1034 C   0  0  0  0  0  0  0  0  0  0  0  0
   13.5611  -18.9841   23.1764 C   0  0  0  0  0  0  0  0  0  0  0  0
   14.6056  -18.6196   23.7676 O   0  0  0  0  0  0  0  0  0  0  0  0
   11.3961  -17.1454   23.6905 C   0  0  0  0  0  0  0  0  0  0  0  0
   12.0510  -16.0650   23.8131 O   0  0  0  0  0  0  0  0  0  0  0  0
   12.9683  -20.1858   23.5345 O   0  0  0  0  0  0  0  0  0  0  0  0
    9.2285  -16.0743   26.2477 C   0  0  0  0  0  0  0  0  0  0  0  0
   10.5892  -16.7294   26.0391 C   0  0  2  0  0  0  0  0  0  0  0  0
   10.6322  -17.5181   24.8479 N   0  0  0  0  0  0  0  0  0  0  0  0
   10.9885  -17.3973   27.2695 C   0  0  0  0  0  0  0  0  0  0  0  0
   11.1973  -18.6549   27.1875 O   0  0  0  0  0  0  0  0  0  0  0  0
   11.1688  -16.8464   28.5067 O   0  0  0  0  0  0  0  0  0  0  0  0
  2  1  1  1
  2  9  1  0
  3  4  1  0
  3  2  1  0
  4  8  1  0
  5  6  1  0
  5  4  2  0
  6  7  1  0
  7  8  2  0
  9 11  1  0
  9 10  2  0
 11 12  1  0
 12 16  1  0
 13 14  1  0
 12 13  1  6
 14 15  2  0
 16 17  2  0
 16 21  1  0
 18 14  1  0
 20 19  1  1
 20 22  1  0
 21 20  1  0
 22 24  1  0
 23 22  2  0
M  END
$$$$
