HDA.pdb
     RDKit          3D

 24 24  0  0  1  0  0  0  0  0999 V2000
    9.2527  -16.6798   20.1610 N   0  0  0  0  0  0  0  0  0  0  0  0
    9.2886  -15.6861   21.2246 C   0  0  1  0  0  0  0  0  0  0  0  0
    8.0002  -14.8788   21.1941 C   0  0  0  0  0  0  0  0  0  0  0  0
    7.9293  -14.1024   19.9256 C   0  0  0  0  0  0  0  0  0  0  0  0
    8.4935  -12.8843   19.6624 C   0  0  0  0  0  0  0  0  0  0  0  0
    8.1686  -12.5583   18.3929 N   0  0  0  0  0  0  0  0  0  0  0  0
    7.4196  -13.5373   17.8601 C   0  0  0  0  0  0  0  0  0  0  0  0
    7.2817  -14.4707   18.8036 N   0  0  0  0  0  0  0  0  0  0  0  0
    9.3982  -16.4399   22.5165 C   0  0  0  0  0  0  0  0  0  0  0  0
    8.5671  -17.3164   22.8627 O   0  0  0  0  0  0  0  0  0  0  0  0
   10.4769  -16.1935   23.4374 N   0  0  0  0  0  0  0  0  0  0  0  0
   10.5459  -16.8414   24.7106 C   0  0  1  0  0  0  0  0  0  0  0  0
   11.7555  -17.7960   24.6489 C   0  0  0  0  0  0  0  0  0  0  0  0
   11.8582  -18.5769   25.9034 C   0  0  0  0  0  0  0  0  0  0  0  0
   10.8639  -18.8828   26.6040 O   0  0  0  0  0  0  0  0  0  0  0  0
   10.7923  -15.8943   25.8259 C   0  0  0  0  0  0  0  0  0  0  0  0
   11.9215  -15.3379   25.9892 O   0  0  0  0  0  0  0  0  0  0  0  0
   13.1204  -18.9825   26.3108 O   0  0  0  0  0  0  0  0  0  0  0  0
    8.8773  -13.6426   28.0620 C   0  0  0  0  0  0  0  0  0  0  0  0
   10.0460  -14.5987   27.8518 C   0  0  2  0  0  0  0  0  0  0  0  0
    9.7987  -15.5306   26.7968 N   0  0  0  0  0  0  0  0  0  0  0  0
   10.4327  -15.1657   29.1357 C   0  0  0  0  0  0  0  0  0  0  0  0
   10.2618  -16.4243   29.2718 O   0  0  0  0  0  0  0  0  0  0  0  0
   10.9574  -14.5187   30.2187 O   0  0  0  0  0  0  0  0  0  0  0  0
  2  1  1  6
  2  9  1  0
  3  4  1  0
  3  2  1  0
  4  8  1  0
  5  6  1  0
  5  4  2  0
  6  7  1  0
  7  8  2  0
  9 11  1  0
  9 10  2  0
 11 12  1  0
 12 16  1  0
 13 14  1  0
 12 13  1  6
 14 15  2  0
 16 17  2  0
 16 21  1  0
 18 14  1  0
 20 19  1  1
 20 22  1  0
 21 20  1  0
 22 24  1  0
 23 22  2  0
M  END
$$$$
