HDA.pdb
     RDKit          3D

 24 24  0  0  1  0  0  0  0  0999 V2000
    7.4366  -17.1079   19.8076 N   0  0  0  0  0  0  0  0  0  0  0  0
    8.0706  -16.0233   20.5433 C   0  0  1  0  0  0  0  0  0  0  0  0
    7.3564  -14.7200   20.2208 C   0  0  0  0  0  0  0  0  0  0  0  0
    7.8332  -14.2027   18.9086 C   0  0  0  0  0  0  0  0  0  0  0  0
    8.7504  -14.7761   18.0711 C   0  0  0  0  0  0  0  0  0  0  0  0
    8.8804  -13.9618   17.0017 N   0  0  0  0  0  0  0  0  0  0  0  0
    8.0716  -12.9002   17.1501 C   0  0  0  0  0  0  0  0  0  0  0  0
    7.4402  -13.0595   18.3147 N   0  0  0  0  0  0  0  0  0  0  0  0
    7.9261  -16.3473   22.0005 C   0  0  0  0  0  0  0  0  0  0  0  0
    6.8102  -16.5412   22.5445 O   0  0  0  0  0  0  0  0  0  0  0  0
    9.0753  -16.4544   22.8608 N   0  0  0  0  0  0  0  0  0  0  0  0
    8.9471  -16.6641   24.2698 C   0  0  1  0  0  0  0  0  0  0  0  0
   10.2094  -17.4312   24.7129 C   0  0  0  0  0  0  0  0  0  0  0  0
   10.1775  -17.6723   26.1740 C   0  0  0  0  0  0  0  0  0  0  0  0
    9.1181  -17.8846   26.8110 O   0  0  0  0  0  0  0  0  0  0  0  0
    8.9126  -15.3961   25.0397 C   0  0  0  0  0  0  0  0  0  0  0  0
    9.9497  -14.6794   25.1881 O   0  0  0  0  0  0  0  0  0  0  0  0
   11.3842  -17.6600   26.8578 O   0  0  0  0  0  0  0  0  0  0  0  0
    6.3618  -13.1022   26.6626 C   0  0  0  0  0  0  0  0  0  0  0  0
    7.7429  -13.7328   26.5247 C   0  0  2  0  0  0  0  0  0  0  0  0
    7.7309  -14.8785   25.6702 N   0  0  0  0  0  0  0  0  0  0  0  0
    8.3127  -13.9232   27.8508 C   0  0  0  0  0  0  0  0  0  0  0  0
    8.4299  -12.8747   28.5710 O   0  0  0  0  0  0  0  0  0  0  0  0
    8.7401  -15.0870   28.4248 O   0  0  0  0  0  0  0  0  0  0  0  0
  2  1  1  6
  2  9  1  0
  3  4  1  0
  3  2  1  0
  4  8  1  0
  5  6  1  0
  5  4  2  0
  6  7  1  0
  7  8  2  0
  9 11  1  0
  9 10  2  0
 11 12  1  0
 12 16  1  0
 13 14  1  0
 12 13  1  1
 14 15  2  0
 16 17  2  0
 16 21  1  0
 18 14  1  0
 20 19  1  1
 20 22  1  0
 21 20  1  0
 22 24  1  0
 23 22  2  0
M  END
$$$$
