HDA.pdb
     RDKit          3D

 24 24  0  0  1  0  0  0  0  0999 V2000
    9.8585  -15.6013   20.6649 N   0  0  0  0  0  0  0  0  0  0  0  0
    8.4972  -15.5542   21.1792 C   0  0  1  0  0  0  0  0  0  0  0  0
    7.5270  -15.8431   20.0444 C   0  0  0  0  0  0  0  0  0  0  0  0
    7.5841  -14.7388   19.0474 C   0  0  0  0  0  0  0  0  0  0  0  0
    8.3936  -13.6363   19.0716 C   0  0  0  0  0  0  0  0  0  0  0  0
    8.1038  -12.9024   17.9758 N   0  0  0  0  0  0  0  0  0  0  0  0
    7.1388  -13.5161   17.2720 C   0  0  0  0  0  0  0  0  0  0  0  0
    6.8318  -14.6324   17.9353 N   0  0  0  0  0  0  0  0  0  0  0  0
    8.3961  -16.6177   22.2318 C   0  0  0  0  0  0  0  0  0  0  0  0
    8.2645  -17.8361   21.9542 O   0  0  0  0  0  0  0  0  0  0  0  0
    8.4459  -16.2910   23.6329 N   0  0  0  0  0  0  0  0  0  0  0  0
    9.6359  -16.4644   24.4071 C   0  0  1  0  0  0  0  0  0  0  0  0
   10.8185  -16.3082   23.4296 C   0  0  0  0  0  0  0  0  0  0  0  0
   11.6690  -17.5206   23.4545 C   0  0  0  0  0  0  0  0  0  0  0  0
   12.8970  -17.5021   23.1998 O   0  0  0  0  0  0  0  0  0  0  0  0
    9.7959  -15.4280   25.4568 C   0  0  0  0  0  0  0  0  0  0  0  0
   10.8586  -15.3364   26.1450 O   0  0  0  0  0  0  0  0  0  0  0  0
   11.0655  -18.7272   23.7764 O   0  0  0  0  0  0  0  0  0  0  0  0
    7.7690  -12.5329   26.9068 C   0  0  0  0  0  0  0  0  0  0  0  0
    8.9019  -13.5528   26.8795 C   0  0  2  0  0  0  0  0  0  0  0  0
    8.7871  -14.4585   25.7799 N   0  0  0  0  0  0  0  0  0  0  0  0
    9.0319  -14.1537   28.1992 C   0  0  0  0  0  0  0  0  0  0  0  0
    8.6333  -15.3622   28.3113 O   0  0  0  0  0  0  0  0  0  0  0  0
    9.5284  -13.5856   29.3382 O   0  0  0  0  0  0  0  0  0  0  0  0
  2  1  1  6
  2  9  1  0
  3  4  1  0
  3  2  1  0
  4  8  1  0
  5  6  1  0
  5  4  2  0
  6  7  1  0
  7  8  2  0
  9 11  1  0
  9 10  2  0
 11 12  1  0
 12 16  1  0
 13 14  1  0
 12 13  1  6
 14 15  2  0
 16 17  2  0
 16 21  1  0
 18 14  1  0
 20 19  1  1
 20 22  1  0
 21 20  1  0
 22 24  1  0
 23 22  2  0
M  END
$$$$
