HDA.pdb
     RDKit          3D

 24 24  0  0  1  0  0  0  0  0999 V2000
    9.9911  -16.4096   18.9552 N   0  0  0  0  0  0  0  0  0  0  0  0
   10.6177  -15.7191   20.0734 C   0  0  1  0  0  0  0  0  0  0  0  0
    9.5466  -14.9929   20.8722 C   0  0  0  0  0  0  0  0  0  0  0  0
    8.9015  -13.9600   20.0154 C   0  0  0  0  0  0  0  0  0  0  0  0
    9.5164  -12.9713   19.2974 C   0  0  0  0  0  0  0  0  0  0  0  0
    8.5472  -12.2659   18.6757 N   0  0  0  0  0  0  0  0  0  0  0  0
    7.3492  -12.7869   18.9861 C   0  0  0  0  0  0  0  0  0  0  0  0
    7.5793  -13.8172   19.8020 N   0  0  0  0  0  0  0  0  0  0  0  0
   11.2716  -16.7711   20.9190 C   0  0  0  0  0  0  0  0  0  0  0  0
   10.8009  -17.9294   21.0447 O   0  0  0  0  0  0  0  0  0  0  0  0
   12.4890  -16.5026   21.6388 N   0  0  0  0  0  0  0  0  0  0  0  0
   13.1017  -17.4843   22.4793 C   0  0  1  0  0  0  0  0  0  0  0  0
   14.6204  -17.3844   22.2306 C   0  0  0  0  0  0  0  0  0  0  0  0
   15.3372  -18.4239   23.0050 C   0  0  0  0  0  0  0  0  0  0  0  0
   14.8513  -19.5542   23.2492 O   0  0  0  0  0  0  0  0  0  0  0  0
   12.8768  -17.2270   23.9233 C   0  0  0  0  0  0  0  0  0  0  0  0
   13.5058  -16.3147   24.5424 O   0  0  0  0  0  0  0  0  0  0  0  0
   16.6055  -18.1193   23.4765 O   0  0  0  0  0  0  0  0  0  0  0  0
   10.3453  -17.4207   26.5025 C   0  0  0  0  0  0  0  0  0  0  0  0
   11.7876  -17.7481   26.1328 C   0  0  2  0  0  0  0  0  0  0  0  0
   11.9491  -17.9689   24.7300 N   0  0  0  0  0  0  0  0  0  0  0  0
   12.2760  -18.8010   27.0118 C   0  0  0  0  0  0  0  0  0  0  0  0
   12.2475  -18.5498   28.2639 O   0  0  0  0  0  0  0  0  0  0  0  0
   12.7633  -20.0293   26.6650 O   0  0  0  0  0  0  0  0  0  0  0  0
  2  1  1  6
  2  9  1  0
  3  4  1  0
  3  2  1  0
  4  8  1  0
  5  6  1  0
  5  4  2  0
  6  7  1  0
  7  8  2  0
  9 11  1  0
  9 10  2  0
 11 12  1  0
 12 16  1  0
 13 14  1  0
 12 13  1  1
 14 15  2  0
 16 17  2  0
 16 21  1  0
 18 14  1  0
 20 19  1  6
 20 22  1  0
 21 20  1  0
 22 24  1  0
 23 22  2  0
M  END
$$$$
