HDA.pdb
     RDKit          3D

 24 24  0  0  1  0  0  0  0  0999 V2000
    8.6662  -17.3191   19.2831 N   0  0  0  0  0  0  0  0  0  0  0  0
    9.6245  -16.4788   19.9869 C   0  0  1  0  0  0  0  0  0  0  0  0
    8.8725  -15.4019   20.7532 C   0  0  0  0  0  0  0  0  0  0  0  0
    8.2327  -14.4619   19.7920 C   0  0  0  0  0  0  0  0  0  0  0  0
    7.2955  -13.5031   20.0636 C   0  0  0  0  0  0  0  0  0  0  0  0
    6.9963  -12.8934   18.8965 N   0  0  0  0  0  0  0  0  0  0  0  0
    7.7195  -13.4447   17.9085 C   0  0  0  0  0  0  0  0  0  0  0  0
    8.4675  -14.3979   18.4673 N   0  0  0  0  0  0  0  0  0  0  0  0
   10.3649  -17.3713   20.9380 C   0  0  0  0  0  0  0  0  0  0  0  0
    9.9485  -18.5119   21.2610 O   0  0  0  0  0  0  0  0  0  0  0  0
   11.6078  -16.9599   21.5365 N   0  0  0  0  0  0  0  0  0  0  0  0
   12.3432  -17.8163   22.4147 C   0  0  1  0  0  0  0  0  0  0  0  0
   13.8078  -17.3357   22.3668 C   0  0  0  0  0  0  0  0  0  0  0  0
   14.4015  -17.6287   21.0418 C   0  0  0  0  0  0  0  0  0  0  0  0
   14.1873  -18.6936   20.4148 O   0  0  0  0  0  0  0  0  0  0  0  0
   11.8954  -17.7154   23.8257 C   0  0  0  0  0  0  0  0  0  0  0  0
   12.0699  -16.6575   24.5052 O   0  0  0  0  0  0  0  0  0  0  0  0
   15.2322  -16.6708   20.4795 O   0  0  0  0  0  0  0  0  0  0  0  0
    9.4546  -19.4036   26.0937 C   0  0  0  0  0  0  0  0  0  0  0  0
   10.7582  -18.6453   25.8707 C   0  0  2  0  0  0  0  0  0  0  0  0
   11.2395  -18.7800   24.5317 N   0  0  0  0  0  0  0  0  0  0  0  0
   11.6951  -18.9895   26.9305 C   0  0  0  0  0  0  0  0  0  0  0  0
   12.7664  -19.5826   26.5667 O   0  0  0  0  0  0  0  0  0  0  0  0
   11.5727  -18.7574   28.2714 O   0  0  0  0  0  0  0  0  0  0  0  0
  2  1  1  1
  2  9  1  0
  3  4  1  0
  3  2  1  0
  4  8  1  0
  5  6  1  0
  5  4  2  0
  6  7  1  0
  7  8  2  0
  9 11  1  0
  9 10  2  0
 11 12  1  0
 12 16  1  0
 13 14  1  0
 12 13  1  1
 14 15  2  0
 16 17  2  0
 16 21  1  0
 18 14  1  0
 20 19  1  6
 20 22  1  0
 21 20  1  0
 22 24  1  0
 23 22  2  0
M  END
$$$$
