HDA.pdb
     RDKit          3D

 24 24  0  0  1  0  0  0  0  0999 V2000
    8.3497  -17.0593   16.4993 N   0  0  0  0  0  0  0  0  0  0  0  0
    9.5294  -16.3629   16.9924 C   0  0  1  0  0  0  0  0  0  0  0  0
    9.1516  -14.9322   17.3431 C   0  0  0  0  0  0  0  0  0  0  0  0
    8.7383  -14.2097   16.1085 C   0  0  0  0  0  0  0  0  0  0  0  0
    7.7850  -13.2354   15.9937 C   0  0  0  0  0  0  0  0  0  0  0  0
    7.7402  -12.8700   14.6945 N   0  0  0  0  0  0  0  0  0  0  0  0
    8.6370  -13.5881   13.9993 C   0  0  0  0  0  0  0  0  0  0  0  0
    9.2373  -14.3995   14.8720 N   0  0  0  0  0  0  0  0  0  0  0  0
    9.9820  -17.0959   18.2201 C   0  0  0  0  0  0  0  0  0  0  0  0
    9.1877  -17.4645   19.1212 O   0  0  0  0  0  0  0  0  0  0  0  0
   11.3691  -17.4187   18.4301 N   0  0  0  0  0  0  0  0  0  0  0  0
   11.8142  -18.1146   19.5977 C   0  0  1  0  0  0  0  0  0  0  0  0
   13.1216  -18.8324   19.2053 C   0  0  0  0  0  0  0  0  0  0  0  0
   12.8379  -19.9341   18.2568 C   0  0  0  0  0  0  0  0  0  0  0  0
   13.4855  -20.1106   17.1972 O   0  0  0  0  0  0  0  0  0  0  0  0
   12.1362  -17.2031   20.7234 C   0  0  0  0  0  0  0  0  0  0  0  0
   12.9377  -16.2289   20.5824 O   0  0  0  0  0  0  0  0  0  0  0  0
   11.8041  -20.8048   18.5679 O   0  0  0  0  0  0  0  0  0  0  0  0
   10.7365  -16.4075   24.1468 C   0  0  0  0  0  0  0  0  0  0  0  0
   11.8372  -16.4030   23.0920 C   0  0  2  0  0  0  0  0  0  0  0  0
   11.5826  -17.3380   22.0414 N   0  0  0  0  0  0  0  0  0  0  0  0
   13.1294  -16.5123   23.7535 C   0  0  0  0  0  0  0  0  0  0  0  0
   13.7475  -17.6205   23.6061 O   0  0  0  0  0  0  0  0  0  0  0  0
   13.7675  -15.5751   24.5159 O   0  0  0  0  0  0  0  0  0  0  0  0
  2  1  1  1
  2  9  1  0
  3  4  1  0
  3  2  1  0
  4  8  1  0
  5  6  1  0
  5  4  2  0
  6  7  1  0
  7  8  2  0
  9 11  1  0
  9 10  2  0
 11 12  1  0
 12 16  1  0
 13 14  1  0
 12 13  1  6
 14 15  2  0
 16 17  2  0
 16 21  1  0
 18 14  1  0
 20 19  1  1
 20 22  1  0
 21 20  1  0
 22 24  1  0
 23 22  2  0
M  END
$$$$
