HDA.pdb
     RDKit          3D

 24 24  0  0  1  0  0  0  0  0999 V2000
    8.6120  -17.1001   19.1114 N   0  0  0  0  0  0  0  0  0  0  0  0
    9.4292  -16.2406   19.9559 C   0  0  1  0  0  0  0  0  0  0  0  0
    8.5319  -15.2277   20.6499 C   0  0  0  0  0  0  0  0  0  0  0  0
    8.0488  -14.2284   19.6574 C   0  0  0  0  0  0  0  0  0  0  0  0
    8.3163  -14.1904   18.3164 C   0  0  0  0  0  0  0  0  0  0  0  0
    7.6784  -13.1128   17.8111 N   0  0  0  0  0  0  0  0  0  0  0  0
    7.0231  -12.4806   18.7981 C   0  0  0  0  0  0  0  0  0  0  0  0
    7.2570  -13.1701   19.9162 N   0  0  0  0  0  0  0  0  0  0  0  0
   10.0879  -17.1298   20.9682 C   0  0  0  0  0  0  0  0  0  0  0  0
    9.4780  -18.0600   21.5525 O   0  0  0  0  0  0  0  0  0  0  0  0
   11.4719  -16.9596   21.3257 N   0  0  0  0  0  0  0  0  0  0  0  0
   12.0720  -17.6965   22.3946 C   0  0  1  0  0  0  0  0  0  0  0  0
   13.5970  -17.6092   22.1817 C   0  0  0  0  0  0  0  0  0  0  0  0
   13.9951  -18.3944   20.9905 C   0  0  0  0  0  0  0  0  0  0  0  0
   14.5166  -17.8794   19.9727 O   0  0  0  0  0  0  0  0  0  0  0  0
   11.7823  -17.1148   23.7285 C   0  0  0  0  0  0  0  0  0  0  0  0
   12.1653  -15.9460   24.0422 O   0  0  0  0  0  0  0  0  0  0  0  0
   13.7749  -19.7636   21.0155 O   0  0  0  0  0  0  0  0  0  0  0  0
    9.3706  -16.8555   26.2623 C   0  0  0  0  0  0  0  0  0  0  0  0
   10.8289  -17.2487   26.0551 C   0  0  2  0  0  0  0  0  0  0  0  0
   11.0594  -17.8056   24.7592 N   0  0  0  0  0  0  0  0  0  0  0  0
   11.2710  -18.0482   27.1886 C   0  0  0  0  0  0  0  0  0  0  0  0
   11.6035  -19.2549   26.9333 O   0  0  0  0  0  0  0  0  0  0  0  0
   11.3754  -17.6692   28.4971 O   0  0  0  0  0  0  0  0  0  0  0  0
  2  1  1  6
  2  9  1  0
  3  4  1  0
  3  2  1  0
  4  8  1  0
  5  6  1  0
  5  4  2  0
  6  7  1  0
  7  8  2  0
  9 11  1  0
  9 10  2  0
 11 12  1  0
 12 16  1  0
 13 14  1  0
 12 13  1  6
 14 15  2  0
 16 17  2  0
 16 21  1  0
 18 14  1  0
 20 19  1  1
 20 22  1  0
 21 20  1  0
 22 24  1  0
 23 22  2  0
M  END
$$$$
