HDA.pdb
     RDKit          3D

 24 24  0  0  1  0  0  0  0  0999 V2000
    8.0728  -17.3322   20.7626 N   0  0  0  0  0  0  0  0  0  0  0  0
    8.7715  -16.2410   21.4266 C   0  0  1  0  0  0  0  0  0  0  0  0
    7.8240  -15.0606   21.5733 C   0  0  0  0  0  0  0  0  0  0  0  0
    7.9100  -14.1998   20.3613 C   0  0  0  0  0  0  0  0  0  0  0  0
    8.7473  -14.3514   19.2902 C   0  0  0  0  0  0  0  0  0  0  0  0
    8.4847  -13.3435   18.4308 N   0  0  0  0  0  0  0  0  0  0  0  0
    7.5096  -12.5708   18.9361 C   0  0  0  0  0  0  0  0  0  0  0  0
    7.1691  -13.1033   20.1112 N   0  0  0  0  0  0  0  0  0  0  0  0
    9.1809  -16.7486   22.7772 C   0  0  0  0  0  0  0  0  0  0  0  0
    8.3647  -17.2551   23.5872 O   0  0  0  0  0  0  0  0  0  0  0  0
   10.5492  -16.6802   23.2191 N   0  0  0  0  0  0  0  0  0  0  0  0
   10.9361  -17.0644   24.5413 C   0  0  1  0  0  0  0  0  0  0  0  0
   12.3957  -17.5526   24.4439 C   0  0  0  0  0  0  0  0  0  0  0  0
   12.4523  -18.8721   23.7733 C   0  0  0  0  0  0  0  0  0  0  0  0
   13.2541  -19.1361   22.8457 O   0  0  0  0  0  0  0  0  0  0  0  0
   10.9166  -15.9311   25.4989 C   0  0  0  0  0  0  0  0  0  0  0  0
   11.8446  -15.0654   25.5243 O   0  0  0  0  0  0  0  0  0  0  0  0
   11.5708  -19.8534   24.2020 O   0  0  0  0  0  0  0  0  0  0  0  0
    8.5973  -13.9174   27.5334 C   0  0  0  0  0  0  0  0  0  0  0  0
    9.9151  -14.6782   27.4398 C   0  0  2  0  0  0  0  0  0  0  0  0
    9.8707  -15.7171   26.4593 N   0  0  0  0  0  0  0  0  0  0  0  0
   10.3325  -15.0718   28.7779 C   0  0  0  0  0  0  0  0  0  0  0  0
   10.4749  -14.1270   29.6258 O   0  0  0  0  0  0  0  0  0  0  0  0
   10.5925  -16.3297   29.2434 O   0  0  0  0  0  0  0  0  0  0  0  0
  2  1  1  1
  2  9  1  0
  3  4  1  0
  3  2  1  0
  4  8  1  0
  5  6  1  0
  5  4  2  0
  6  7  1  0
  7  8  2  0
  9 11  1  0
  9 10  2  0
 11 12  1  0
 12 16  1  0
 13 14  1  0
 12 13  1  6
 14 15  2  0
 16 17  2  0
 16 21  1  0
 18 14  1  0
 20 19  1  1
 20 22  1  0
 21 20  1  0
 22 24  1  0
 23 22  2  0
M  END
$$$$
