HDA.pdb
     RDKit          3D

 24 24  0  0  1  0  0  0  0  0999 V2000
    7.8729  -17.0399   19.7552 N   0  0  0  0  0  0  0  0  0  0  0  0
    8.9960  -16.3589   20.3834 C   0  0  1  0  0  0  0  0  0  0  0  0
    8.4942  -15.0924   21.0593 C   0  0  0  0  0  0  0  0  0  0  0  0
    8.1374  -14.0836   20.0239 C   0  0  0  0  0  0  0  0  0  0  0  0
    8.2036  -14.2260   18.6650 C   0  0  0  0  0  0  0  0  0  0  0  0
    7.7910  -13.0616   18.1197 N   0  0  0  0  0  0  0  0  0  0  0  0
    7.4706  -12.2007   19.0991 C   0  0  0  0  0  0  0  0  0  0  0  0
    7.6861  -12.8354   20.2528 N   0  0  0  0  0  0  0  0  0  0  0  0
    9.5583  -17.3036   21.4035 C   0  0  0  0  0  0  0  0  0  0  0  0
    8.8422  -18.1104   22.0478 O   0  0  0  0  0  0  0  0  0  0  0  0
   10.9668  -17.3339   21.6993 N   0  0  0  0  0  0  0  0  0  0  0  0
   11.5023  -18.1544   22.7412 C   0  0  1  0  0  0  0  0  0  0  0  0
   12.9939  -18.3622   22.4093 C   0  0  0  0  0  0  0  0  0  0  0  0
   13.1383  -19.1995   21.1960 C   0  0  0  0  0  0  0  0  0  0  0  0
   12.4657  -20.2391   20.9962 O   0  0  0  0  0  0  0  0  0  0  0  0
   11.4367  -17.5072   24.0748 C   0  0  0  0  0  0  0  0  0  0  0  0
   12.2109  -16.5517   24.3895 O   0  0  0  0  0  0  0  0  0  0  0  0
   14.0655  -18.8031   20.2436 O   0  0  0  0  0  0  0  0  0  0  0  0
    9.1183  -16.9653   26.8946 C   0  0  0  0  0  0  0  0  0  0  0  0
   10.5206  -17.3198   26.4126 C   0  0  2  0  0  0  0  0  0  0  0  0
   10.5130  -17.8942   25.1039 N   0  0  0  0  0  0  0  0  0  0  0  0
   11.1997  -18.0845   27.4487 C   0  0  0  0  0  0  0  0  0  0  0  0
   11.5237  -19.2825   27.1458 O   0  0  0  0  0  0  0  0  0  0  0  0
   11.5356  -17.6810   28.7101 O   0  0  0  0  0  0  0  0  0  0  0  0
  2  1  1  1
  2  9  1  0
  3  4  1  0
  3  2  1  0
  4  8  1  0
  5  6  1  0
  5  4  2  0
  6  7  1  0
  7  8  2  0
  9 11  1  0
  9 10  2  0
 11 12  1  0
 12 16  1  0
 13 14  1  0
 12 13  1  6
 14 15  2  0
 16 17  2  0
 16 21  1  0
 18 14  1  0
 20 19  1  1
 20 22  1  0
 21 20  1  0
 22 24  1  0
 23 22  2  0
M  END
$$$$
