HDA.pdb
     RDKit          3D

 24 24  0  0  1  0  0  0  0  0999 V2000
   10.0680  -15.3752   21.0103 N   0  0  0  0  0  0  0  0  0  0  0  0
    8.9490  -14.7580   21.7079 C   0  0  1  0  0  0  0  0  0  0  0  0
    7.6718  -15.0143   20.9231 C   0  0  0  0  0  0  0  0  0  0  0  0
    7.7233  -14.2728   19.6329 C   0  0  0  0  0  0  0  0  0  0  0  0
    8.7776  -13.5690   19.1186 C   0  0  0  0  0  0  0  0  0  0  0  0
    8.3783  -13.0578   17.9343 N   0  0  0  0  0  0  0  0  0  0  0  0
    7.1079  -13.4231   17.6978 C   0  0  0  0  0  0  0  0  0  0  0  0
    6.7216  -14.1621   18.7395 N   0  0  0  0  0  0  0  0  0  0  0  0
    8.8686  -15.4091   23.0566 C   0  0  0  0  0  0  0  0  0  0  0  0
    7.9676  -15.1361   23.8887 O   0  0  0  0  0  0  0  0  0  0  0  0
    9.8335  -16.3939   23.4708 N   0  0  0  0  0  0  0  0  0  0  0  0
    9.7902  -16.9949   24.7679 C   0  0  1  0  0  0  0  0  0  0  0  0
   10.6405  -18.2787   24.6820 C   0  0  0  0  0  0  0  0  0  0  0  0
   10.5797  -19.0216   25.9620 C   0  0  0  0  0  0  0  0  0  0  0  0
   10.6528  -18.4636   27.0829 O   0  0  0  0  0  0  0  0  0  0  0  0
   10.3941  -16.1395   25.8192 C   0  0  0  0  0  0  0  0  0  0  0  0
   11.6268  -15.8369   25.8041 O   0  0  0  0  0  0  0  0  0  0  0  0
   10.4350  -20.3998   25.9033 O   0  0  0  0  0  0  0  0  0  0  0  0
    9.5547  -13.4501   28.1150 C   0  0  0  0  0  0  0  0  0  0  0  0
   10.2585  -14.7913   27.9414 C   0  0  2  0  0  0  0  0  0  0  0  0
    9.6553  -15.5901   26.9212 N   0  0  0  0  0  0  0  0  0  0  0  0
   10.4122  -15.4194   29.2458 C   0  0  0  0  0  0  0  0  0  0  0  0
    9.8537  -16.5588   29.3934 O   0  0  0  0  0  0  0  0  0  0  0  0
   11.0811  -14.9418   30.3372 O   0  0  0  0  0  0  0  0  0  0  0  0
  2  1  1  6
  2  9  1  0
  3  4  1  0
  3  2  1  0
  4  8  1  0
  5  6  1  0
  5  4  2  0
  6  7  1  0
  7  8  2  0
  9 11  1  0
  9 10  2  0
 11 12  1  0
 12 16  1  0
 13 14  1  0
 12 13  1  6
 14 15  2  0
 16 17  2  0
 16 21  1  0
 18 14  1  0
 20 19  1  1
 20 22  1  0
 21 20  1  0
 22 24  1  0
 23 22  2  0
M  END
$$$$
