FYF.pdb
     RDKit          3D

 35 37  0  0  1  0  0  0  0  0999 V2000
    6.0866  -16.5566   20.4905 N   0  0  0  0  0  0  0  0  0  0  0  0
    7.1632  -17.2302   21.1489 C   0  0  1  0  0  0  0  0  0  0  0  0
    8.4885  -16.5533   20.8126 C   0  0  0  0  0  0  0  0  0  0  0  0
    8.2025  -15.1536   20.3884 C   0  0  0  0  0  0  0  0  0  0  0  0
    8.3354  -14.7264   19.0923 C   0  0  0  0  0  0  0  0  0  0  0  0
    8.0602  -13.4231   18.7446 C   0  0  0  0  0  0  0  0  0  0  0  0
    7.6418  -12.5081   19.6940 C   0  0  0  0  0  0  0  0  0  0  0  0
    7.5020  -12.9157   20.9994 C   0  0  0  0  0  0  0  0  0  0  0  0
    7.7791  -14.2207   21.3393 C   0  0  0  0  0  0  0  0  0  0  0  0
    6.9918  -17.2255   22.6378 C   0  0  0  0  0  0  0  0  0  0  0  0
    6.1220  -16.5091   23.1936 O   0  0  0  0  0  0  0  0  0  0  0  0
    4.0403  -22.7520   22.6138 O   0  0  0  0  0  0  0  0  0  0  0  0
    4.9410  -21.9556   23.3065 C   0  0  0  0  0  0  0  0  0  0  0  0
    4.5918  -21.3401   24.4924 C   0  0  0  0  0  0  0  0  0  0  0  0
    5.5373  -20.5523   25.1434 C   0  0  0  0  0  0  0  0  0  0  0  0
    6.7992  -20.3974   24.6015 C   0  0  0  0  0  0  0  0  0  0  0  0
    7.7668  -19.5598   25.3172 C   0  0  0  0  0  0  0  0  0  0  0  0
    7.6710  -18.0846   24.9039 C   0  0  2  0  0  0  0  0  0  0  0  0
    7.8278  -18.0491   23.4650 N   0  0  0  0  0  0  0  0  0  0  0  0
    8.8122  -17.3782   25.5794 C   0  0  0  0  0  0  0  0  0  0  0  0
    9.9490  -17.2769   25.0539 O   0  0  0  0  0  0  0  0  0  0  0  0
    7.1546  -21.0080   23.4195 C   0  0  0  0  0  0  0  0  0  0  0  0
    6.2010  -21.7935   22.7772 C   0  0  0  0  0  0  0  0  0  0  0  0
    8.6367  -16.7906   26.8607 N   0  0  0  0  0  0  0  0  0  0  0  0
    9.6587  -15.9746   27.5079 C   0  0  1  0  0  0  0  0  0  0  0  0
    9.0669  -14.9318   28.3856 C   0  0  0  0  0  0  0  0  0  0  0  0
    8.0421  -14.1606   27.6819 C   0  0  0  0  0  0  0  0  0  0  0  0
    6.7211  -14.4909   27.7975 C   0  0  0  0  0  0  0  0  0  0  0  0
    5.7609  -13.7407   27.1270 C   0  0  0  0  0  0  0  0  0  0  0  0
    6.1437  -12.6735   26.3530 C   0  0  0  0  0  0  0  0  0  0  0  0
    7.4609  -12.3359   26.2312 C   0  0  0  0  0  0  0  0  0  0  0  0
    8.4063  -13.0925   26.9052 C   0  0  0  0  0  0  0  0  0  0  0  0
   10.5188  -16.8738   28.2893 C   0  0  0  0  0  0  0  0  0  0  0  0
   10.3023  -18.0899   28.5178 O   0  0  0  0  0  0  0  0  0  0  0  0
   11.6934  -16.3710   28.8460 O   0  0  0  0  0  0  0  0  0  0  0  0
  2  1  1  6
  2  3  1  0
  3  4  1  0
  4  9  1  0
  5  4  2  0
  5  6  1  0
  6  7  2  0
  7  8  1  0
  9  8  2  0
 10 11  2  0
 10  2  1  0
 12 13  1  0
 13 14  2  0
 14 15  1  0
 16 15  2  0
 16 17  1  0
 18 17  1  1
 18 19  1  0
 19 10  1  0
 20 18  1  0
 21 20  2  0
 22 16  1  0
 23 13  1  0
 23 22  2  0
 24 20  1  0
 25 24  1  0
 25 26  1  1
 26 27  1  0
 27 32  1  0
 28 27  2  0
 28 29  1  0
 29 30  2  0
 30 31  1  0
 32 31  2  0
 33 35  1  0
 33 25  1  0
 34 33  2  0
M  END
$$$$
