FYF.pdb
     RDKit          3D

 35 37  0  0  1  0  0  0  0  0999 V2000
    6.8010  -19.1916   20.6011 N   0  0  0  0  0  0  0  0  0  0  0  0
    6.8606  -18.3464   21.7538 C   0  0  1  0  0  0  0  0  0  0  0  0
    6.5078  -19.1429   23.0063 C   0  0  0  0  0  0  0  0  0  0  0  0
    6.3755  -18.1889   24.1435 C   0  0  0  0  0  0  0  0  0  0  0  0
    6.0821  -16.8607   23.9708 C   0  0  0  0  0  0  0  0  0  0  0  0
    5.9691  -16.0143   25.0508 C   0  0  0  0  0  0  0  0  0  0  0  0
    6.1487  -16.4811   26.3405 C   0  0  0  0  0  0  0  0  0  0  0  0
    6.4435  -17.8094   26.5359 C   0  0  0  0  0  0  0  0  0  0  0  0
    6.5548  -18.6495   25.4509 C   0  0  0  0  0  0  0  0  0  0  0  0
    8.2249  -17.7537   21.9362 C   0  0  0  0  0  0  0  0  0  0  0  0
    9.2585  -18.4669   21.8960 O   0  0  0  0  0  0  0  0  0  0  0  0
    7.2828  -13.5293   16.6887 O   0  0  0  0  0  0  0  0  0  0  0  0
    7.8301  -13.7285   17.9481 C   0  0  0  0  0  0  0  0  0  0  0  0
    8.6665  -14.7963   18.2076 C   0  0  0  0  0  0  0  0  0  0  0  0
    9.1861  -14.9455   19.4906 C   0  0  0  0  0  0  0  0  0  0  0  0
    8.8625  -14.0339   20.4777 C   0  0  0  0  0  0  0  0  0  0  0  0
    9.4299  -14.2256   21.8161 C   0  0  0  0  0  0  0  0  0  0  0  0
    9.6770  -15.7073   22.1322 C   0  0  2  0  0  0  0  0  0  0  0  0
    8.3770  -16.3440   22.1628 N   0  0  0  0  0  0  0  0  0  0  0  0
   10.3213  -15.7515   23.4888 C   0  0  0  0  0  0  0  0  0  0  0  0
   11.5457  -15.5288   23.6619 O   0  0  0  0  0  0  0  0  0  0  0  0
    8.0292  -12.9668   20.2265 C   0  0  0  0  0  0  0  0  0  0  0  0
    7.5155  -12.8276   18.9398 C   0  0  0  0  0  0  0  0  0  0  0  0
    9.5489  -16.0529   24.6422 N   0  0  0  0  0  0  0  0  0  0  0  0
   10.0981  -16.0344   25.9941 C   0  0  1  0  0  0  0  0  0  0  0  0
    9.0368  -15.9022   27.0256 C   0  0  0  0  0  0  0  0  0  0  0  0
    8.2764  -14.6644   26.8535 C   0  0  0  0  0  0  0  0  0  0  0  0
    8.8914  -13.4490   26.9649 C   0  0  0  0  0  0  0  0  0  0  0  0
    8.1531  -12.2834   26.7901 C   0  0  0  0  0  0  0  0  0  0  0  0
    6.8118  -12.3585   26.5072 C   0  0  0  0  0  0  0  0  0  0  0  0
    6.1886  -13.5680   26.3943 C   0  0  0  0  0  0  0  0  0  0  0  0
    6.9371  -14.7208   26.5709 C   0  0  0  0  0  0  0  0  0  0  0  0
   10.8481  -17.2829   26.1880 C   0  0  0  0  0  0  0  0  0  0  0  0
   10.9706  -18.2094   25.3487 O   0  0  0  0  0  0  0  0  0  0  0  0
   11.4989  -17.4990   27.4014 O   0  0  0  0  0  0  0  0  0  0  0  0
  2  1  1  6
  2  3  1  0
  3  4  1  0
  4  9  1  0
  5  4  2  0
  5  6  1  0
  6  7  2  0
  7  8  1  0
  9  8  2  0
 10 11  2  0
 10  2  1  0
 12 13  1  0
 13 14  2  0
 14 15  1  0
 16 15  2  0
 16 17  1  0
 18 17  1  1
 18 19  1  0
 19 10  1  0
 20 18  1  0
 21 20  2  0
 22 16  1  0
 23 13  1  0
 23 22  2  0
 24 20  1  0
 25 24  1  0
 25 26  1  1
 26 27  1  0
 27 32  1  0
 28 27  2  0
 28 29  1  0
 29 30  2  0
 30 31  1  0
 32 31  2  0
 33 35  1  0
 33 25  1  0
 34 33  2  0
M  END
$$$$
