FYF.pdb
     RDKit          3D

 35 37  0  0  1  0  0  0  0  0999 V2000
    6.5266  -17.8462   21.1681 N   0  0  0  0  0  0  0  0  0  0  0  0
    7.4289  -16.8135   21.5752 C   0  0  1  0  0  0  0  0  0  0  0  0
    6.6486  -15.6193   22.1163 C   0  0  0  0  0  0  0  0  0  0  0  0
    7.1420  -14.3911   21.4316 C   0  0  0  0  0  0  0  0  0  0  0  0
    7.8274  -13.3991   22.0844 C   0  0  0  0  0  0  0  0  0  0  0  0
    8.2652  -12.2804   21.4118 C   0  0  0  0  0  0  0  0  0  0  0  0
    8.0255  -12.1265   20.0582 C   0  0  0  0  0  0  0  0  0  0  0  0
    7.3400  -13.1093   19.3846 C   0  0  0  0  0  0  0  0  0  0  0  0
    6.9054  -14.2251   20.0640 C   0  0  0  0  0  0  0  0  0  0  0  0
    8.3701  -17.2883   22.6404 C   0  0  0  0  0  0  0  0  0  0  0  0
    8.0404  -18.1917   23.4491 O   0  0  0  0  0  0  0  0  0  0  0  0
   12.4066  -20.3707   18.4922 O   0  0  0  0  0  0  0  0  0  0  0  0
   12.3086  -19.5373   19.5973 C   0  0  0  0  0  0  0  0  0  0  0  0
   12.1648  -18.1710   19.4566 C   0  0  0  0  0  0  0  0  0  0  0  0
   12.0715  -17.3846   20.6017 C   0  0  0  0  0  0  0  0  0  0  0  0
   12.1233  -17.9735   21.8509 C   0  0  0  0  0  0  0  0  0  0  0  0
   12.0217  -17.1112   23.0324 C   0  0  0  0  0  0  0  0  0  0  0  0
   10.6478  -17.2176   23.7089 C   0  0  2  0  0  0  0  0  0  0  0  0
    9.6803  -16.7127   22.7574 N   0  0  0  0  0  0  0  0  0  0  0  0
   10.7034  -16.3384   24.9261 C   0  0  0  0  0  0  0  0  0  0  0  0
   11.4791  -15.3538   25.0125 O   0  0  0  0  0  0  0  0  0  0  0  0
   12.2665  -19.3351   21.9990 C   0  0  0  0  0  0  0  0  0  0  0  0
   12.3588  -20.1117   20.8470 C   0  0  0  0  0  0  0  0  0  0  0  0
    9.8621  -16.5993   26.0404 N   0  0  0  0  0  0  0  0  0  0  0  0
   10.0450  -15.9632   27.3409 C   0  0  1  0  0  0  0  0  0  0  0  0
    8.7516  -15.5619   27.9526 C   0  0  0  0  0  0  0  0  0  0  0  0
    8.0792  -14.5367   27.1546 C   0  0  0  0  0  0  0  0  0  0  0  0
    7.0474  -14.8687   26.3222 C   0  0  0  0  0  0  0  0  0  0  0  0
    6.4154  -13.8786   25.5775 C   0  0  0  0  0  0  0  0  0  0  0  0
    6.8302  -12.5741   25.6814 C   0  0  0  0  0  0  0  0  0  0  0  0
    7.8602  -12.2327   26.5099 C   0  0  0  0  0  0  0  0  0  0  0  0
    8.4803  -13.2299   27.2458 C   0  0  0  0  0  0  0  0  0  0  0  0
   10.7479  -16.9175   28.2094 C   0  0  0  0  0  0  0  0  0  0  0  0
   11.1754  -16.6863   29.3677 O   0  0  0  0  0  0  0  0  0  0  0  0
   10.9823  -18.2098   27.7432 O   0  0  0  0  0  0  0  0  0  0  0  0
  2  1  1  1
  2  3  1  0
  3  4  1  0
  4  9  1  0
  5  4  2  0
  5  6  1  0
  6  7  2  0
  7  8  1  0
  9  8  2  0
 10 11  2  0
 10  2  1  0
 12 13  1  0
 13 14  2  0
 14 15  1  0
 16 15  2  0
 16 17  1  0
 18 17  1  6
 18 19  1  0
 19 10  1  0
 20 18  1  0
 21 20  2  0
 22 16  1  0
 23 13  1  0
 23 22  2  0
 24 20  1  0
 25 24  1  0
 25 26  1  1
 26 27  1  0
 27 32  1  0
 28 27  2  0
 28 29  1  0
 29 30  2  0
 30 31  1  0
 32 31  2  0
 33 35  1  0
 33 25  1  0
 34 33  2  0
M  END
$$$$
