FYF.pdb
     RDKit          3D

 35 37  0  0  1  0  0  0  0  0999 V2000
    7.3196  -19.6518   26.6300 N   0  0  0  0  0  0  0  0  0  0  0  0
    6.6438  -18.5175   26.0793 C   0  0  1  0  0  0  0  0  0  0  0  0
    6.7910  -17.3174   27.0097 C   0  0  0  0  0  0  0  0  0  0  0  0
    8.2136  -17.2380   27.4465 C   0  0  0  0  0  0  0  0  0  0  0  0
    9.0610  -18.3157   27.4228 C   0  0  0  0  0  0  0  0  0  0  0  0
   10.3689  -18.1972   27.8359 C   0  0  0  0  0  0  0  0  0  0  0  0
   10.8643  -16.9868   28.2866 C   0  0  0  0  0  0  0  0  0  0  0  0
   10.0314  -15.8937   28.3185 C   0  0  0  0  0  0  0  0  0  0  0  0
    8.7248  -16.0201   27.9038 C   0  0  0  0  0  0  0  0  0  0  0  0
    7.1906  -18.1460   24.7343 C   0  0  0  0  0  0  0  0  0  0  0  0
    8.0959  -18.8235   24.1866 O   0  0  0  0  0  0  0  0  0  0  0  0
    8.5125  -12.9836   17.6897 O   0  0  0  0  0  0  0  0  0  0  0  0
    8.0167  -13.5291   18.8653 C   0  0  0  0  0  0  0  0  0  0  0  0
    8.0329  -12.8192   20.0498 C   0  0  0  0  0  0  0  0  0  0  0  0
    7.5217  -13.4179   21.1980 C   0  0  0  0  0  0  0  0  0  0  0  0
    7.0102  -14.7005   21.1397 C   0  0  0  0  0  0  0  0  0  0  0  0
    6.4811  -15.2963   22.3706 C   0  0  0  0  0  0  0  0  0  0  0  0
    7.2983  -16.5156   22.8199 C   0  0  2  0  0  0  0  0  0  0  0  0
    6.6838  -16.9961   24.0397 N   0  0  0  0  0  0  0  0  0  0  0  0
    8.6912  -16.0197   23.0872 C   0  0  0  0  0  0  0  0  0  0  0  0
    9.5202  -15.8079   22.1672 O   0  0  0  0  0  0  0  0  0  0  0  0
    6.9907  -15.4144   19.9623 C   0  0  0  0  0  0  0  0  0  0  0  0
    7.5045  -14.8057   18.8203 C   0  0  0  0  0  0  0  0  0  0  0  0
    9.1224  -15.7697   24.4174 N   0  0  0  0  0  0  0  0  0  0  0  0
   10.3432  -15.0351   24.7326 C   0  0  1  0  0  0  0  0  0  0  0  0
   10.0561  -13.7182   25.3582 C   0  0  0  0  0  0  0  0  0  0  0  0
    9.0166  -13.8288   26.3816 C   0  0  0  0  0  0  0  0  0  0  0  0
    9.3414  -13.8029   27.7088 C   0  0  0  0  0  0  0  0  0  0  0  0
    8.3381  -13.9014   28.6669 C   0  0  0  0  0  0  0  0  0  0  0  0
    7.0278  -14.0244   28.2759 C   0  0  0  0  0  0  0  0  0  0  0  0
    6.6936  -14.0515   26.9525 C   0  0  0  0  0  0  0  0  0  0  0  0
    7.7040  -13.9522   26.0092 C   0  0  0  0  0  0  0  0  0  0  0  0
   11.1442  -15.8690   25.6393 C   0  0  0  0  0  0  0  0  0  0  0  0
   10.7792  -16.9499   26.1651 O   0  0  0  0  0  0  0  0  0  0  0  0
   12.4338  -15.4591   25.9724 O   0  0  0  0  0  0  0  0  0  0  0  0
  2  1  1  1
  2  3  1  0
  3  4  1  0
  4  9  1  0
  5  4  2  0
  5  6  1  0
  6  7  2  0
  7  8  1  0
  9  8  2  0
 10 11  2  0
 10  2  1  0
 12 13  1  0
 13 14  2  0
 14 15  1  0
 16 15  2  0
 16 17  1  0
 18 17  1  1
 18 19  1  0
 19 10  1  0
 20 18  1  0
 21 20  2  0
 22 16  1  0
 23 13  1  0
 23 22  2  0
 24 20  1  0
 25 24  1  0
 25 26  1  1
 26 27  1  0
 27 32  1  0
 28 27  2  0
 28 29  1  0
 29 30  2  0
 30 31  1  0
 32 31  2  0
 33 35  1  0
 33 25  1  0
 34 33  2  0
M  END
$$$$
