FYF.pdb
     RDKit          3D

 35 37  0  0  1  0  0  0  0  0999 V2000
    6.6701  -18.1067   21.3855 N   0  0  0  0  0  0  0  0  0  0  0  0
    7.4004  -16.9256   21.7291 C   0  0  1  0  0  0  0  0  0  0  0  0
    6.4683  -15.9004   22.3676 C   0  0  0  0  0  0  0  0  0  0  0  0
    6.9436  -14.5394   21.9899 C   0  0  0  0  0  0  0  0  0  0  0  0
    7.4163  -13.6351   22.9058 C   0  0  0  0  0  0  0  0  0  0  0  0
    7.8456  -12.3875   22.5124 C   0  0  0  0  0  0  0  0  0  0  0  0
    7.8119  -12.0120   21.1815 C   0  0  0  0  0  0  0  0  0  0  0  0
    7.3416  -12.9036   20.2469 C   0  0  0  0  0  0  0  0  0  0  0  0
    6.9140  -14.1493   20.6480 C   0  0  0  0  0  0  0  0  0  0  0  0
    8.5115  -17.2212   22.6904 C   0  0  0  0  0  0  0  0  0  0  0  0
    8.3445  -17.9974   23.6642 O   0  0  0  0  0  0  0  0  0  0  0  0
   16.7003  -17.4624   25.8606 O   0  0  0  0  0  0  0  0  0  0  0  0
   15.5660  -17.1998   25.1059 C   0  0  0  0  0  0  0  0  0  0  0  0
   14.7450  -18.2186   24.6641 C   0  0  0  0  0  0  0  0  0  0  0  0
   13.6202  -17.8950   23.9101 C   0  0  0  0  0  0  0  0  0  0  0  0
   13.3418  -16.5736   23.6162 C   0  0  0  0  0  0  0  0  0  0  0  0
   12.1479  -16.2736   22.8197 C   0  0  0  0  0  0  0  0  0  0  0  0
   10.8666  -16.8069   23.4756 C   0  0  2  0  0  0  0  0  0  0  0  0
    9.8014  -16.6158   22.5138 N   0  0  0  0  0  0  0  0  0  0  0  0
   10.6334  -15.9668   24.6993 C   0  0  0  0  0  0  0  0  0  0  0  0
   10.8343  -14.7266   24.7148 O   0  0  0  0  0  0  0  0  0  0  0  0
   14.1557  -15.5524   24.0533 C   0  0  0  0  0  0  0  0  0  0  0  0
   15.2778  -15.8878   24.8065 C   0  0  0  0  0  0  0  0  0  0  0  0
   10.1683  -16.5622   25.9022 N   0  0  0  0  0  0  0  0  0  0  0  0
   10.2449  -15.8983   27.1994 C   0  0  1  0  0  0  0  0  0  0  0  0
    8.9114  -15.4467   27.6746 C   0  0  0  0  0  0  0  0  0  0  0  0
    8.3908  -14.3578   26.8480 C   0  0  0  0  0  0  0  0  0  0  0  0
    7.3926  -14.5872   25.9432 C   0  0  0  0  0  0  0  0  0  0  0  0
    6.9055  -13.5374   25.1719 C   0  0  0  0  0  0  0  0  0  0  0  0
    7.4288  -12.2771   25.3224 C   0  0  0  0  0  0  0  0  0  0  0  0
    8.4263  -12.0382   26.2234 C   0  0  0  0  0  0  0  0  0  0  0  0
    8.9015  -13.0939   26.9850 C   0  0  0  0  0  0  0  0  0  0  0  0
   10.8335  -16.8487   28.1530 C   0  0  0  0  0  0  0  0  0  0  0  0
   11.5178  -16.5530   29.1640 O   0  0  0  0  0  0  0  0  0  0  0  0
   10.6381  -18.2142   27.9541 O   0  0  0  0  0  0  0  0  0  0  0  0
  2  1  1  1
  2  3  1  0
  3  4  1  0
  4  9  1  0
  5  4  2  0
  5  6  1  0
  6  7  2  0
  7  8  1  0
  9  8  2  0
 10 11  2  0
 10  2  1  0
 12 13  1  0
 13 14  2  0
 14 15  1  0
 16 15  2  0
 16 17  1  0
 18 17  1  6
 18 19  1  0
 19 10  1  0
 20 18  1  0
 21 20  2  0
 22 16  1  0
 23 13  1  0
 23 22  2  0
 24 20  1  0
 25 24  1  0
 25 26  1  1
 26 27  1  0
 27 32  1  0
 28 27  2  0
 28 29  1  0
 29 30  2  0
 30 31  1  0
 32 31  2  0
 33 35  1  0
 33 25  1  0
 34 33  2  0
M  END
$$$$
