FYF.pdb
     RDKit          3D

 35 37  0  0  1  0  0  0  0  0999 V2000
    5.8424  -19.4429   20.4337 N   0  0  0  0  0  0  0  0  0  0  0  0
    5.8098  -18.1217   20.9813 C   0  0  1  0  0  0  0  0  0  0  0  0
    4.9781  -18.1050   22.2602 C   0  0  0  0  0  0  0  0  0  0  0  0
    3.5849  -18.5065   21.9153 C   0  0  0  0  0  0  0  0  0  0  0  0
    2.7702  -19.1879   22.7824 C   0  0  0  0  0  0  0  0  0  0  0  0
    1.4887  -19.5391   22.4220 C   0  0  0  0  0  0  0  0  0  0  0  0
    0.9877  -19.2138   21.1742 C   0  0  0  0  0  0  0  0  0  0  0  0
    1.7880  -18.5308   20.2897 C   0  0  0  0  0  0  0  0  0  0  0  0
    3.0683  -18.1830   20.6575 C   0  0  0  0  0  0  0  0  0  0  0  0
    7.1854  -17.6211   21.3026 C   0  0  0  0  0  0  0  0  0  0  0  0
    8.1754  -18.3946   21.3196 O   0  0  0  0  0  0  0  0  0  0  0  0
    8.6306  -13.3458   16.0863 O   0  0  0  0  0  0  0  0  0  0  0  0
    8.6289  -13.5424   17.4598 C   0  0  0  0  0  0  0  0  0  0  0  0
    7.8328  -12.7820   18.2936 C   0  0  0  0  0  0  0  0  0  0  0  0
    7.8728  -13.0241   19.6641 C   0  0  0  0  0  0  0  0  0  0  0  0
    8.6990  -14.0108   20.1679 C   0  0  0  0  0  0  0  0  0  0  0  0
    8.7128  -14.2352   21.6169 C   0  0  0  0  0  0  0  0  0  0  0  0
    8.7049  -15.7290   21.9703 C   0  0  2  0  0  0  0  0  0  0  0  0
    7.3990  -16.2328   21.6001 N   0  0  0  0  0  0  0  0  0  0  0  0
    8.9052  -15.8159   23.4569 C   0  0  0  0  0  0  0  0  0  0  0  0
    9.9576  -15.4236   24.0201 O   0  0  0  0  0  0  0  0  0  0  0  0
    9.4955  -14.7729   19.3428 C   0  0  0  0  0  0  0  0  0  0  0  0
    9.4474  -14.5221   17.9740 C   0  0  0  0  0  0  0  0  0  0  0  0
    7.8884  -16.3558   24.2890 N   0  0  0  0  0  0  0  0  0  0  0  0
    8.0219  -16.4660   25.7379 C   0  0  1  0  0  0  0  0  0  0  0  0
    6.7799  -16.0598   26.4452 C   0  0  0  0  0  0  0  0  0  0  0  0
    6.7220  -14.6100   26.6320 C   0  0  0  0  0  0  0  0  0  0  0  0
    7.8685  -13.8818   26.7834 C   0  0  0  0  0  0  0  0  0  0  0  0
    7.7933  -12.5033   26.9520 C   0  0  0  0  0  0  0  0  0  0  0  0
    6.5697  -11.8810   26.9659 C   0  0  0  0  0  0  0  0  0  0  0  0
    5.4189  -12.6001   26.8157 C   0  0  0  0  0  0  0  0  0  0  0  0
    5.5094  -13.9727   26.6485 C   0  0  0  0  0  0  0  0  0  0  0  0
    8.3556  -17.8625   26.0502 C   0  0  0  0  0  0  0  0  0  0  0  0
    8.4204  -18.8088   25.2266 O   0  0  0  0  0  0  0  0  0  0  0  0
    8.6329  -18.2122   27.3705 O   0  0  0  0  0  0  0  0  0  0  0  0
  2  1  1  1
  2  3  1  0
  3  4  1  0
  4  9  1  0
  5  4  2  0
  5  6  1  0
  6  7  2  0
  7  8  1  0
  9  8  2  0
 10 11  2  0
 10  2  1  0
 12 13  1  0
 13 14  2  0
 14 15  1  0
 16 15  2  0
 16 17  1  0
 18 17  1  1
 18 19  1  0
 19 10  1  0
 20 18  1  0
 21 20  2  0
 22 16  1  0
 23 13  1  0
 23 22  2  0
 24 20  1  0
 25 24  1  0
 25 26  1  1
 26 27  1  0
 27 32  1  0
 28 27  2  0
 28 29  1  0
 29 30  2  0
 30 31  1  0
 32 31  2  0
 33 35  1  0
 33 25  1  0
 34 33  2  0
M  END
$$$$
