FYF.pdb
     RDKit          3D

 35 37  0  0  1  0  0  0  0  0999 V2000
    6.5918  -18.7396   21.7137 N   0  0  0  0  0  0  0  0  0  0  0  0
    6.8999  -17.3745   22.0102 C   0  0  1  0  0  0  0  0  0  0  0  0
    6.0782  -16.8995   23.2047 C   0  0  0  0  0  0  0  0  0  0  0  0
    6.2645  -15.4274   23.3428 C   0  0  0  0  0  0  0  0  0  0  0  0
    6.4111  -14.8060   24.5562 C   0  0  0  0  0  0  0  0  0  0  0  0
    6.5809  -13.4422   24.6374 C   0  0  0  0  0  0  0  0  0  0  0  0
    6.6082  -12.6609   23.4961 C   0  0  0  0  0  0  0  0  0  0  0  0
    6.4630  -13.2639   22.2694 C   0  0  0  0  0  0  0  0  0  0  0  0
    6.2937  -14.6282   22.1964 C   0  0  0  0  0  0  0  0  0  0  0  0
    8.3526  -17.1911   22.3297 C   0  0  0  0  0  0  0  0  0  0  0  0
    8.9535  -17.9695   23.1118 O   0  0  0  0  0  0  0  0  0  0  0  0
   16.3763  -14.6769   19.9615 O   0  0  0  0  0  0  0  0  0  0  0  0
   15.0309  -14.6984   20.3000 C   0  0  0  0  0  0  0  0  0  0  0  0
   14.5082  -15.6912   21.1052 C   0  0  0  0  0  0  0  0  0  0  0  0
   13.1504  -15.6615   21.4115 C   0  0  0  0  0  0  0  0  0  0  0  0
   12.3511  -14.6508   20.9120 C   0  0  0  0  0  0  0  0  0  0  0  0
   10.9260  -14.6545   21.2573 C   0  0  0  0  0  0  0  0  0  0  0  0
   10.5101  -15.9430   21.9807 C   0  0  2  0  0  0  0  0  0  0  0  0
    9.0921  -16.1103   21.7410 N   0  0  0  0  0  0  0  0  0  0  0  0
   10.7781  -15.7164   23.4417 C   0  0  0  0  0  0  0  0  0  0  0  0
   10.7618  -14.5725   23.9613 O   0  0  0  0  0  0  0  0  0  0  0  0
   12.8651  -13.6576   20.1086 C   0  0  0  0  0  0  0  0  0  0  0  0
   14.2242  -13.6973   19.8088 C   0  0  0  0  0  0  0  0  0  0  0  0
   11.0641  -16.8125   24.2987 N   0  0  0  0  0  0  0  0  0  0  0  0
   11.2614  -16.6668   25.7372 C   0  0  1  0  0  0  0  0  0  0  0  0
   10.0013  -16.8737   26.4970 C   0  0  0  0  0  0  0  0  0  0  0  0
    9.2905  -15.6122   26.7054 C   0  0  0  0  0  0  0  0  0  0  0  0
    8.1417  -15.3392   26.0173 C   0  0  0  0  0  0  0  0  0  0  0  0
    7.4758  -14.1377   26.2350 C   0  0  0  0  0  0  0  0  0  0  0  0
    7.9748  -13.2324   27.1384 C   0  0  0  0  0  0  0  0  0  0  0  0
    9.1219  -13.4961   27.8303 C   0  0  0  0  0  0  0  0  0  0  0  0
    9.7743  -14.6974   27.6030 C   0  0  0  0  0  0  0  0  0  0  0  0
   12.2751  -17.6472   26.1499 C   0  0  0  0  0  0  0  0  0  0  0  0
   12.7188  -17.8057   27.3144 O   0  0  0  0  0  0  0  0  0  0  0  0
   12.8207  -18.4996   25.1917 O   0  0  0  0  0  0  0  0  0  0  0  0
  2  1  1  1
  2  3  1  0
  3  4  1  0
  4  9  1  0
  5  4  2  0
  5  6  1  0
  6  7  2  0
  7  8  1  0
  9  8  2  0
 10 11  2  0
 10  2  1  0
 12 13  1  0
 13 14  2  0
 14 15  1  0
 16 15  2  0
 16 17  1  0
 18 17  1  6
 18 19  1  0
 19 10  1  0
 20 18  1  0
 21 20  2  0
 22 16  1  0
 23 13  1  0
 23 22  2  0
 24 20  1  0
 25 24  1  0
 25 26  1  1
 26 27  1  0
 27 32  1  0
 28 27  2  0
 28 29  1  0
 29 30  2  0
 30 31  1  0
 32 31  2  0
 33 35  1  0
 33 25  1  0
 34 33  2  0
M  END
$$$$
