FYF.pdb
     RDKit          3D

 35 37  0  0  1  0  0  0  0  0999 V2000
    6.3397  -21.2220   24.0168 N   0  0  0  0  0  0  0  0  0  0  0  0
    6.7649  -20.1028   24.7998 C   0  0  1  0  0  0  0  0  0  0  0  0
    7.5993  -20.5793   25.9849 C   0  0  0  0  0  0  0  0  0  0  0  0
    7.7308  -19.4487   26.9469 C   0  0  0  0  0  0  0  0  0  0  0  0
    6.6635  -18.9233   27.6287 C   0  0  0  0  0  0  0  0  0  0  0  0
    6.8308  -17.8779   28.5088 C   0  0  0  0  0  0  0  0  0  0  0  0
    8.0811  -17.3286   28.7294 C   0  0  0  0  0  0  0  0  0  0  0  0
    9.1645  -17.8405   28.0560 C   0  0  0  0  0  0  0  0  0  0  0  0
    8.9893  -18.8860   27.1776 C   0  0  0  0  0  0  0  0  0  0  0  0
    7.5880  -19.1438   23.9942 C   0  0  0  0  0  0  0  0  0  0  0  0
    8.6600  -19.5025   23.4458 O   0  0  0  0  0  0  0  0  0  0  0  0
    8.8187  -12.2002   18.7496 O   0  0  0  0  0  0  0  0  0  0  0  0
    8.3060  -13.0606   19.7099 C   0  0  0  0  0  0  0  0  0  0  0  0
    7.0274  -12.9024   20.2074 C   0  0  0  0  0  0  0  0  0  0  0  0
    6.5665  -13.7964   21.1700 C   0  0  0  0  0  0  0  0  0  0  0  0
    7.3842  -14.8195   21.6112 C   0  0  0  0  0  0  0  0  0  0  0  0
    6.8622  -15.7402   22.6259 C   0  0  0  0  0  0  0  0  0  0  0  0
    7.8493  -16.8730   22.9407 C   0  0  2  0  0  0  0  0  0  0  0  0
    7.1614  -17.7823   23.8330 N   0  0  0  0  0  0  0  0  0  0  0  0
    9.0214  -16.2364   23.6323 C   0  0  0  0  0  0  0  0  0  0  0  0
    9.9957  -15.7536   23.0027 O   0  0  0  0  0  0  0  0  0  0  0  0
    8.6601  -14.9835   21.1198 C   0  0  0  0  0  0  0  0  0  0  0  0
    9.1105  -14.0836   20.1575 C   0  0  0  0  0  0  0  0  0  0  0  0
    9.0646  -16.1592   25.0500 N   0  0  0  0  0  0  0  0  0  0  0  0
   10.0458  -15.3567   25.7731 C   0  0  1  0  0  0  0  0  0  0  0  0
    9.4657  -14.7271   26.9875 C   0  0  0  0  0  0  0  0  0  0  0  0
    8.3030  -13.9028   26.6578 C   0  0  0  0  0  0  0  0  0  0  0  0
    7.0363  -14.3705   26.8684 C   0  0  0  0  0  0  0  0  0  0  0  0
    5.9437  -13.5688   26.5559 C   0  0  0  0  0  0  0  0  0  0  0  0
    6.1419  -12.3131   26.0377 C   0  0  0  0  0  0  0  0  0  0  0  0
    7.4035  -11.8372   25.8235 C   0  0  0  0  0  0  0  0  0  0  0  0
    8.4824  -12.6472   26.1398 C   0  0  0  0  0  0  0  0  0  0  0  0
   11.1625  -16.2394   26.1376 C   0  0  0  0  0  0  0  0  0  0  0  0
   12.2199  -15.8915   26.7196 O   0  0  0  0  0  0  0  0  0  0  0  0
   11.0812  -17.5956   25.8271 O   0  0  0  0  0  0  0  0  0  0  0  0
  2  1  1  6
  2  3  1  0
  3  4  1  0
  4  9  1  0
  5  4  2  0
  5  6  1  0
  6  7  2  0
  7  8  1  0
  9  8  2  0
 10 11  2  0
 10  2  1  0
 12 13  1  0
 13 14  2  0
 14 15  1  0
 16 15  2  0
 16 17  1  0
 18 17  1  1
 18 19  1  0
 19 10  1  0
 20 18  1  0
 21 20  2  0
 22 16  1  0
 23 13  1  0
 23 22  2  0
 24 20  1  0
 25 24  1  0
 25 26  1  1
 26 27  1  0
 27 32  1  0
 28 27  2  0
 28 29  1  0
 29 30  2  0
 30 31  1  0
 32 31  2  0
 33 35  1  0
 33 25  1  0
 34 33  2  0
M  END
$$$$
