VYW.pdb
     RDKit          3D

 34 36  0  0  1  0  0  0  0  0999 V2000
    6.5662  -21.7420   25.7674 C   0  0  0  0  0  0  0  0  0  0  0  0
    7.3878  -20.6902   25.0138 C   0  0  2  0  0  0  0  0  0  0  0  0
    7.6945  -19.5152   25.8657 C   0  0  0  0  0  0  0  0  0  0  0  0
    6.7456  -20.4251   23.7113 C   0  0  2  0  0  0  0  0  0  0  0  0
    6.4382  -21.6477   22.9938 N   0  0  0  0  0  0  0  0  0  0  0  0
    7.4099  -19.4381   22.8382 C   0  0  0  0  0  0  0  0  0  0  0  0
    8.3593  -19.6955   22.0741 O   0  0  0  0  0  0  0  0  0  0  0  0
    8.3818  -11.4820   18.8551 O   0  0  0  0  0  0  0  0  0  0  0  0
    7.9520  -12.5787   19.5937 C   0  0  0  0  0  0  0  0  0  0  0  0
    7.8228  -12.4755   20.9744 C   0  0  0  0  0  0  0  0  0  0  0  0
    7.3981  -13.5457   21.7400 C   0  0  0  0  0  0  0  0  0  0  0  0
    7.0811  -14.7697   21.1746 C   0  0  0  0  0  0  0  0  0  0  0  0
    6.6273  -15.9198   21.9861 C   0  0  0  0  0  0  0  0  0  0  0  0
    7.6463  -17.0002   22.1767 C   0  0  2  0  0  0  0  0  0  0  0  0
    6.9377  -18.0961   22.8671 N   0  0  0  0  0  0  0  0  0  0  0  0
    8.7453  -16.4898   23.0377 C   0  0  0  0  0  0  0  0  0  0  0  0
    9.6433  -15.8056   22.4711 O   0  0  0  0  0  0  0  0  0  0  0  0
    7.2141  -14.8598   19.7946 C   0  0  0  0  0  0  0  0  0  0  0  0
    7.6364  -13.7958   19.0324 C   0  0  0  0  0  0  0  0  0  0  0  0
    8.8071  -16.7454   24.4265 N   0  0  0  0  0  0  0  0  0  0  0  0
    9.9374  -16.2237   25.1908 C   0  0  1  0  0  0  0  0  0  0  0  0
    9.4754  -15.5183   26.4137 C   0  0  0  0  0  0  0  0  0  0  0  0
    8.1568  -14.8838   26.2391 C   0  0  0  0  0  0  0  0  0  0  0  0
    6.9207  -15.5356   26.0917 C   0  0  0  0  0  0  0  0  0  0  0  0
    5.9563  -14.6215   25.9048 N   0  0  0  0  0  0  0  0  0  0  0  0
    6.4833  -13.3949   25.9208 C   0  0  0  0  0  0  0  0  0  0  0  0
    5.8851  -12.1575   25.7898 C   0  0  0  0  0  0  0  0  0  0  0  0
    6.6479  -10.9996   25.8652 C   0  0  0  0  0  0  0  0  0  0  0  0
    8.0062  -11.1441   26.0734 C   0  0  0  0  0  0  0  0  0  0  0  0
    8.5926  -12.3859   26.2016 C   0  0  0  0  0  0  0  0  0  0  0  0
    7.8479  -13.5455   26.1278 C   0  0  0  0  0  0  0  0  0  0  0  0
   10.9350  -17.2544   25.4811 C   0  0  0  0  0  0  0  0  0  0  0  0
   10.6671  -18.5749   25.1931 O   0  0  0  0  0  0  0  0  0  0  0  0
   12.0321  -16.9604   25.9877 O   0  0  0  0  0  0  0  0  0  0  0  0
  2  1  1  1
  2  3  1  0
  2  4  1  0
  4  5  1  6
  6 15  1  0
  6  4  1  0
  7  6  2  0
  8  9  1  0
  9 19  2  0
 10  9  1  0
 10 11  2  0
 11 12  1  0
 12 18  2  0
 12 13  1  0
 14 13  1  1
 14 16  1  0
 14 15  1  0
 16 20  1  0
 17 16  2  0
 19 18  1  0
 20 21  1  0
 21 32  1  0
 21 22  1  1
 23 22  1  0
 23 24  2  0
 25 24  1  0
 26 31  2  0
 26 25  1  0
 27 26  1  0
 28 29  1  0
 28 27  2  0
 29 30  2  0
 30 31  1  0
 31 23  1  0
 32 33  1  0
 34 32  2  0
M  END
$$$$
