VYW.pdb
     RDKit          3D

 34 36  0  0  1  0  0  0  0  0999 V2000
   10.5354  -19.8096   22.3155 C   0  0  0  0  0  0  0  0  0  0  0  0
    9.0918  -19.7829   21.8012 C   0  0  2  0  0  0  0  0  0  0  0  0
    8.5855  -21.1458   21.5067 C   0  0  0  0  0  0  0  0  0  0  0  0
    8.9873  -18.7808   20.7222 C   0  0  2  0  0  0  0  0  0  0  0  0
    9.5857  -19.2447   19.4849 N   0  0  0  0  0  0  0  0  0  0  0  0
    9.4220  -17.4098   21.0524 C   0  0  0  0  0  0  0  0  0  0  0  0
   10.5164  -16.9157   20.7213 O   0  0  0  0  0  0  0  0  0  0  0  0
    7.4922  -13.0443   16.4483 O   0  0  0  0  0  0  0  0  0  0  0  0
    7.5617  -13.3798   17.7958 C   0  0  0  0  0  0  0  0  0  0  0  0
    8.3332  -12.6121   18.6612 C   0  0  0  0  0  0  0  0  0  0  0  0
    8.4249  -12.9167   20.0069 C   0  0  0  0  0  0  0  0  0  0  0  0
    7.7569  -13.9968   20.5598 C   0  0  0  0  0  0  0  0  0  0  0  0
    7.8505  -14.3304   21.9975 C   0  0  0  0  0  0  0  0  0  0  0  0
    8.9474  -15.2848   22.3548 C   0  0  2  0  0  0  0  0  0  0  0  0
    8.5331  -16.5897   21.8022 N   0  0  0  0  0  0  0  0  0  0  0  0
    9.0544  -15.3756   23.8346 C   0  0  0  0  0  0  0  0  0  0  0  0
    8.2550  -14.6673   24.5091 O   0  0  0  0  0  0  0  0  0  0  0  0
    6.9896  -14.7556   19.6848 C   0  0  0  0  0  0  0  0  0  0  0  0
    6.8977  -14.4532   18.3463 C   0  0  0  0  0  0  0  0  0  0  0  0
    9.9981  -16.2058   24.4813 N   0  0  0  0  0  0  0  0  0  0  0  0
   10.0875  -16.1709   25.9389 C   0  0  1  0  0  0  0  0  0  0  0  0
    8.7887  -16.5323   26.5627 C   0  0  0  0  0  0  0  0  0  0  0  0
    7.7361  -15.5345   26.3009 C   0  0  0  0  0  0  0  0  0  0  0  0
    6.4923  -15.7626   25.6883 C   0  0  0  0  0  0  0  0  0  0  0  0
    5.8309  -14.6001   25.5802 N   0  0  0  0  0  0  0  0  0  0  0  0
    6.5670  -13.6092   26.0890 C   0  0  0  0  0  0  0  0  0  0  0  0
    6.2969  -12.2611   26.2136 C   0  0  0  0  0  0  0  0  0  0  0  0
    7.2221  -11.4138   26.8091 C   0  0  0  0  0  0  0  0  0  0  0  0
    8.4011  -11.9749   27.2611 C   0  0  0  0  0  0  0  0  0  0  0  0
    8.6601  -13.3233   27.1300 C   0  0  0  0  0  0  0  0  0  0  0  0
    7.7510  -14.1775   26.5394 C   0  0  0  0  0  0  0  0  0  0  0  0
   11.1975  -16.9781   26.4471 C   0  0  0  0  0  0  0  0  0  0  0  0
   11.9862  -17.6946   25.5737 O   0  0  0  0  0  0  0  0  0  0  0  0
   11.4470  -17.0313   27.6643 O   0  0  0  0  0  0  0  0  0  0  0  0
  2  1  1  6
  2  3  1  0
  2  4  1  0
  4  5  1  6
  6 15  1  0
  6  4  1  0
  7  6  2  0
  8  9  1  0
  9 19  2  0
 10  9  1  0
 10 11  2  0
 11 12  1  0
 12 18  2  0
 12 13  1  0
 14 13  1  1
 14 16  1  0
 14 15  1  0
 16 20  1  0
 17 16  2  0
 19 18  1  0
 20 21  1  0
 21 32  1  0
 21 22  1  1
 23 22  1  0
 23 24  2  0
 25 24  1  0
 26 31  2  0
 26 25  1  0
 27 26  1  0
 28 29  1  0
 28 27  2  0
 29 30  2  0
 30 31  1  0
 31 23  1  0
 32 33  1  0
 34 32  2  0
M  END
$$$$
