VYW.pdb
     RDKit          3D

 34 36  0  0  1  0  0  0  0  0999 V2000
    6.2164  -20.9347   21.5137 C   0  0  0  0  0  0  0  0  0  0  0  0
    7.3495  -19.9915   21.9331 C   0  0  2  0  0  0  0  0  0  0  0  0
    7.1384  -19.4474   23.2968 C   0  0  0  0  0  0  0  0  0  0  0  0
    7.5846  -19.0159   20.8505 C   0  0  2  0  0  0  0  0  0  0  0  0
    7.6725  -19.6522   19.5499 N   0  0  0  0  0  0  0  0  0  0  0  0
    8.6852  -18.0548   21.0576 C   0  0  0  0  0  0  0  0  0  0  0  0
    9.8576  -18.2287   20.6746 O   0  0  0  0  0  0  0  0  0  0  0  0
    7.8146  -13.4282   16.1549 O   0  0  0  0  0  0  0  0  0  0  0  0
    8.0173  -13.6721   17.5086 C   0  0  0  0  0  0  0  0  0  0  0  0
    9.0528  -14.5070   17.9138 C   0  0  0  0  0  0  0  0  0  0  0  0
    9.2832  -14.7715   19.2513 C   0  0  0  0  0  0  0  0  0  0  0  0
    8.4987  -14.2217   20.2517 C   0  0  0  0  0  0  0  0  0  0  0  0
    8.7375  -14.5002   21.6844 C   0  0  0  0  0  0  0  0  0  0  0  0
    9.4170  -15.8034   21.9702 C   0  0  2  0  0  0  0  0  0  0  0  0
    8.3931  -16.8425   21.7432 N   0  0  0  0  0  0  0  0  0  0  0  0
    9.8520  -15.8271   23.3914 C   0  0  0  0  0  0  0  0  0  0  0  0
   10.7340  -14.9895   23.7323 O   0  0  0  0  0  0  0  0  0  0  0  0
    7.4678  -13.3894   19.8338 C   0  0  0  0  0  0  0  0  0  0  0  0
    7.2380  -13.1257   18.5037 C   0  0  0  0  0  0  0  0  0  0  0  0
    9.3214  -16.7347   24.3362 N   0  0  0  0  0  0  0  0  0  0  0  0
    9.8845  -16.7608   25.6838 C   0  0  1  0  0  0  0  0  0  0  0  0
    9.7126  -15.4495   26.3602 C   0  0  0  0  0  0  0  0  0  0  0  0
    8.2992  -15.0456   26.4647 C   0  0  0  0  0  0  0  0  0  0  0  0
    7.1729  -15.8459   26.2090 C   0  0  0  0  0  0  0  0  0  0  0  0
    6.0614  -15.1100   26.3624 N   0  0  0  0  0  0  0  0  0  0  0  0
    6.3865  -13.8620   26.7078 C   0  0  0  0  0  0  0  0  0  0  0  0
    5.5895  -12.7698   26.9872 C   0  0  0  0  0  0  0  0  0  0  0  0
    6.1636  -11.5597   27.3541 C   0  0  0  0  0  0  0  0  0  0  0  0
    7.5424  -11.5042   27.4242 C   0  0  0  0  0  0  0  0  0  0  0  0
    8.3283  -12.6019   27.1416 C   0  0  0  0  0  0  0  0  0  0  0  0
    7.7723  -13.8107   26.7746 C   0  0  0  0  0  0  0  0  0  0  0  0
    9.3680  -17.8746   26.4804 C   0  0  0  0  0  0  0  0  0  0  0  0
    9.8991  -18.1383   27.7241 O   0  0  0  0  0  0  0  0  0  0  0  0
    8.4492  -18.5962   26.0539 O   0  0  0  0  0  0  0  0  0  0  0  0
  2  1  1  6
  2  3  1  0
  2  4  1  0
  4  5  1  6
  6 15  1  0
  6  4  1  0
  7  6  2  0
  8  9  1  0
  9 19  2  0
 10  9  1  0
 10 11  2  0
 11 12  1  0
 12 18  2  0
 12 13  1  0
 14 13  1  1
 14 16  1  0
 14 15  1  0
 16 20  1  0
 17 16  2  0
 19 18  1  0
 20 21  1  0
 21 32  1  0
 21 22  1  1
 23 22  1  0
 23 24  2  0
 25 24  1  0
 26 31  2  0
 26 25  1  0
 27 26  1  0
 28 29  1  0
 28 27  2  0
 29 30  2  0
 30 31  1  0
 31 23  1  0
 32 33  1  0
 34 32  2  0
M  END
$$$$
