VYW.pdb
     RDKit          3D

 34 36  0  0  1  0  0  0  0  0999 V2000
    7.7564  -12.7187   18.5713 C   0  0  0  0  0  0  0  0  0  0  0  0
    7.6220  -13.9085   19.5282 C   0  0  2  0  0  0  0  0  0  0  0  0
    6.2846  -13.9534   20.1685 C   0  0  0  0  0  0  0  0  0  0  0  0
    8.7955  -13.9370   20.4233 C   0  0  2  0  0  0  0  0  0  0  0  0
   10.0432  -13.8142   19.6938 N   0  0  0  0  0  0  0  0  0  0  0  0
    8.8489  -15.0380   21.4045 C   0  0  0  0  0  0  0  0  0  0  0  0
    7.8831  -15.4203   22.0920 O   0  0  0  0  0  0  0  0  0  0  0  0
   12.4322  -22.6507   24.4512 O   0  0  0  0  0  0  0  0  0  0  0  0
   12.1861  -21.4186   23.8560 C   0  0  0  0  0  0  0  0  0  0  0  0
   12.9466  -20.3117   24.2166 C   0  0  0  0  0  0  0  0  0  0  0  0
   12.7292  -19.0714   23.6451 C   0  0  0  0  0  0  0  0  0  0  0  0
   11.7479  -18.8682   22.6891 C   0  0  0  0  0  0  0  0  0  0  0  0
   11.5080  -17.5449   22.0737 C   0  0  0  0  0  0  0  0  0  0  0  0
   10.2206  -16.8892   22.4668 C   0  0  2  0  0  0  0  0  0  0  0  0
   10.0882  -15.7141   21.5828 N   0  0  0  0  0  0  0  0  0  0  0  0
   10.3095  -16.4464   23.8831 C   0  0  0  0  0  0  0  0  0  0  0  0
   10.9565  -15.3855   24.1097 O   0  0  0  0  0  0  0  0  0  0  0  0
   10.9953  -19.9818   22.3375 C   0  0  0  0  0  0  0  0  0  0  0  0
   11.2109  -21.2157   22.9054 C   0  0  0  0  0  0  0  0  0  0  0  0
    9.7094  -17.1614   24.9445 N   0  0  0  0  0  0  0  0  0  0  0  0
    9.8408  -16.6471   26.3054 C   0  0  1  0  0  0  0  0  0  0  0  0
    8.5192  -16.5764   26.9799 C   0  0  0  0  0  0  0  0  0  0  0  0
    7.5797  -15.6713   26.2942 C   0  0  0  0  0  0  0  0  0  0  0  0
    6.5930  -16.0306   25.3605 C   0  0  0  0  0  0  0  0  0  0  0  0
    5.9741  -14.9241   24.9209 N   0  0  0  0  0  0  0  0  0  0  0  0
    6.4948  -13.8464   25.5124 C   0  0  0  0  0  0  0  0  0  0  0  0
    6.1714  -12.5097   25.3912 C   0  0  0  0  0  0  0  0  0  0  0  0
    6.8479  -11.5551   26.1392 C   0  0  0  0  0  0  0  0  0  0  0  0
    7.8393  -11.9999   26.9928 C   0  0  0  0  0  0  0  0  0  0  0  0
    8.1541  -13.3380   27.1045 C   0  0  0  0  0  0  0  0  0  0  0  0
    7.4916  -14.2982   26.3669 C   0  0  0  0  0  0  0  0  0  0  0  0
   10.8303  -17.3901   27.0871 C   0  0  0  0  0  0  0  0  0  0  0  0
   11.1777  -16.9594   28.3489 O   0  0  0  0  0  0  0  0  0  0  0  0
   11.3700  -18.4137   26.6316 O   0  0  0  0  0  0  0  0  0  0  0  0
  2  1  1  1
  2  3  1  0
  2  4  1  0
  4  5  1  6
  6 15  1  0
  6  4  1  0
  7  6  2  0
  8  9  1  0
  9 19  2  0
 10  9  1  0
 10 11  2  0
 11 12  1  0
 12 18  2  0
 12 13  1  0
 14 13  1  6
 14 16  1  0
 14 15  1  0
 16 20  1  0
 17 16  2  0
 19 18  1  0
 20 21  1  0
 21 32  1  0
 21 22  1  1
 23 22  1  0
 23 24  2  0
 25 24  1  0
 26 31  2  0
 26 25  1  0
 27 26  1  0
 28 29  1  0
 28 27  2  0
 29 30  2  0
 30 31  1  0
 31 23  1  0
 32 33  1  0
 34 32  2  0
M  END
$$$$
