VYW.pdb
     RDKit          3D

 34 36  0  0  1  0  0  0  0  0999 V2000
    4.3104  -17.5300   20.1619 C   0  0  0  0  0  0  0  0  0  0  0  0
    5.6560  -17.5518   20.8956 C   0  0  2  0  0  0  0  0  0  0  0  0
    5.6844  -16.5904   22.0250 C   0  0  0  0  0  0  0  0  0  0  0  0
    6.7436  -17.4522   19.9024 C   0  0  2  0  0  0  0  0  0  0  0  0
    6.5983  -18.4214   18.8329 N   0  0  0  0  0  0  0  0  0  0  0  0
    8.1205  -17.4349   20.4331 C   0  0  0  0  0  0  0  0  0  0  0  0
    8.7829  -18.4515   20.7146 O   0  0  0  0  0  0  0  0  0  0  0  0
   16.3964  -14.6085   21.0809 O   0  0  0  0  0  0  0  0  0  0  0  0
   15.0102  -14.6617   20.9887 C   0  0  0  0  0  0  0  0  0  0  0  0
   14.4111  -15.0953   19.8111 C   0  0  0  0  0  0  0  0  0  0  0  0
   13.0357  -15.1608   19.6846 C   0  0  0  0  0  0  0  0  0  0  0  0
   12.1877  -14.7998   20.7185 C   0  0  0  0  0  0  0  0  0  0  0  0
   10.7157  -14.8656   20.5912 C   0  0  0  0  0  0  0  0  0  0  0  0
   10.0759  -16.0441   21.2572 C   0  0  2  0  0  0  0  0  0  0  0  0
    8.7404  -16.1710   20.6407 N   0  0  0  0  0  0  0  0  0  0  0  0
    9.9353  -15.7679   22.7110 C   0  0  0  0  0  0  0  0  0  0  0  0
    9.3795  -14.6805   23.0341 O   0  0  0  0  0  0  0  0  0  0  0  0
   12.7986  -14.3686   21.8894 C   0  0  0  0  0  0  0  0  0  0  0  0
   14.1665  -14.3032   22.0162 C   0  0  0  0  0  0  0  0  0  0  0  0
   10.3948  -16.6617   23.7048 N   0  0  0  0  0  0  0  0  0  0  0  0
   10.5994  -16.1633   25.0627 C   0  0  1  0  0  0  0  0  0  0  0  0
    9.5403  -16.6587   25.9789 C   0  0  0  0  0  0  0  0  0  0  0  0
    8.2698  -15.9277   25.8258 C   0  0  0  0  0  0  0  0  0  0  0  0
    7.0606  -16.4359   25.3218 C   0  0  0  0  0  0  0  0  0  0  0  0
    6.1458  -15.4547   25.2897 N   0  0  0  0  0  0  0  0  0  0  0  0
    6.6803  -14.3197   25.7463 C   0  0  0  0  0  0  0  0  0  0  0  0
    6.1237  -13.0674   25.9144 C   0  0  0  0  0  0  0  0  0  0  0  0
    6.8819  -12.0288   26.4386 C   0  0  0  0  0  0  0  0  0  0  0  0
    8.1929  -12.3048   26.7766 C   0  0  0  0  0  0  0  0  0  0  0  0
    8.7383  -13.5597   26.6030 C   0  0  0  0  0  0  0  0  0  0  0  0
    7.9977  -14.6015   26.0822 C   0  0  0  0  0  0  0  0  0  0  0  0
   11.9471  -16.4431   25.5601 C   0  0  0  0  0  0  0  0  0  0  0  0
   12.3426  -15.9626   26.7893 O   0  0  0  0  0  0  0  0  0  0  0  0
   12.7519  -17.1131   24.8893 O   0  0  0  0  0  0  0  0  0  0  0  0
  2  1  1  6
  2  3  1  0
  2  4  1  0
  4  5  1  6
  6 15  1  0
  6  4  1  0
  7  6  2  0
  8  9  1  0
  9 19  2  0
 10  9  1  0
 10 11  2  0
 11 12  1  0
 12 18  2  0
 12 13  1  0
 14 13  1  6
 14 16  1  0
 14 15  1  0
 16 20  1  0
 17 16  2  0
 19 18  1  0
 20 21  1  0
 21 32  1  0
 21 22  1  1
 23 22  1  0
 23 24  2  0
 25 24  1  0
 26 31  2  0
 26 25  1  0
 27 26  1  0
 28 29  1  0
 28 27  2  0
 29 30  2  0
 30 31  1  0
 31 23  1  0
 32 33  1  0
 34 32  2  0
M  END
$$$$
