VYW.pdb
     RDKit          3D

 34 36  0  0  1  0  0  0  0  0999 V2000
    7.7249  -12.9655   20.4706 C   0  0  0  0  0  0  0  0  0  0  0  0
    8.6110  -13.7150   19.4693 C   0  0  2  0  0  0  0  0  0  0  0  0
    8.9124  -12.8902   18.2738 C   0  0  0  0  0  0  0  0  0  0  0  0
    8.0376  -15.0546   19.2329 C   0  0  2  0  0  0  0  0  0  0  0  0
    6.9036  -15.0127   18.3293 N   0  0  0  0  0  0  0  0  0  0  0  0
    7.7454  -15.8665   20.4300 C   0  0  0  0  0  0  0  0  0  0  0  0
    6.6748  -15.8297   21.0656 O   0  0  0  0  0  0  0  0  0  0  0  0
    9.0854  -22.6825   26.0685 O   0  0  0  0  0  0  0  0  0  0  0  0
    9.0563  -21.7740   25.0164 C   0  0  0  0  0  0  0  0  0  0  0  0
   10.2268  -21.1364   24.6201 C   0  0  0  0  0  0  0  0  0  0  0  0
   10.2345  -20.2276   23.5781 C   0  0  0  0  0  0  0  0  0  0  0  0
    9.0830  -19.9064   22.8787 C   0  0  0  0  0  0  0  0  0  0  0  0
    9.0821  -18.9346   21.7639 C   0  0  0  0  0  0  0  0  0  0  0  0
    8.5793  -17.5690   22.1162 C   0  0  2  0  0  0  0  0  0  0  0  0
    8.7538  -16.7555   20.8966 N   0  0  0  0  0  0  0  0  0  0  0  0
    9.4084  -17.0111   23.2166 C   0  0  0  0  0  0  0  0  0  0  0  0
   10.6103  -16.7356   22.9422 O   0  0  0  0  0  0  0  0  0  0  0  0
    7.9205  -20.5501   23.2842 C   0  0  0  0  0  0  0  0  0  0  0  0
    7.9120  -21.4543   24.3205 C   0  0  0  0  0  0  0  0  0  0  0  0
    8.9011  -16.7915   24.5174 N   0  0  0  0  0  0  0  0  0  0  0  0
    9.8156  -16.3468   25.5662 C   0  0  1  0  0  0  0  0  0  0  0  0
    9.6338  -14.9013   25.8560 C   0  0  0  0  0  0  0  0  0  0  0  0
    8.2164  -14.4977   25.8637 C   0  0  0  0  0  0  0  0  0  0  0  0
    7.1044  -15.3208   25.6180 C   0  0  0  0  0  0  0  0  0  0  0  0
    5.9859  -14.5810   25.6630 N   0  0  0  0  0  0  0  0  0  0  0  0
    6.2927  -13.3086   25.9266 C   0  0  0  0  0  0  0  0  0  0  0  0
    5.4820  -12.2023   26.0845 C   0  0  0  0  0  0  0  0  0  0  0  0
    6.0366  -10.9649   26.3840 C   0  0  0  0  0  0  0  0  0  0  0  0
    7.4105  -10.8972   26.5135 C   0  0  0  0  0  0  0  0  0  0  0  0
    8.2103  -12.0093   26.3524 C   0  0  0  0  0  0  0  0  0  0  0  0
    7.6739  -13.2454   26.0535 C   0  0  0  0  0  0  0  0  0  0  0  0
    9.7265  -17.1755   26.7692 C   0  0  0  0  0  0  0  0  0  0  0  0
    8.7391  -18.1301   26.8782 O   0  0  0  0  0  0  0  0  0  0  0  0
   10.5325  -17.0348   27.7059 O   0  0  0  0  0  0  0  0  0  0  0  0
  2  1  1  1
  2  3  1  0
  2  4  1  0
  4  5  1  1
  6 15  1  0
  6  4  1  0
  7  6  2  0
  8  9  1  0
  9 19  2  0
 10  9  1  0
 10 11  2  0
 11 12  1  0
 12 18  2  0
 12 13  1  0
 14 13  1  6
 14 16  1  0
 14 15  1  0
 16 20  1  0
 17 16  2  0
 19 18  1  0
 20 21  1  0
 21 32  1  0
 21 22  1  1
 23 22  1  0
 23 24  2  0
 25 24  1  0
 26 31  2  0
 26 25  1  0
 27 26  1  0
 28 29  1  0
 28 27  2  0
 29 30  2  0
 30 31  1  0
 31 23  1  0
 32 33  1  0
 34 32  2  0
M  END
$$$$
