VYW.pdb
     RDKit          3D

 34 36  0  0  1  0  0  0  0  0999 V2000
    7.7891  -12.4245   18.7465 C   0  0  0  0  0  0  0  0  0  0  0  0
    7.9131  -13.5343   19.7965 C   0  0  2  0  0  0  0  0  0  0  0  0
    8.5016  -13.0330   21.0625 C   0  0  0  0  0  0  0  0  0  0  0  0
    8.5569  -14.7091   19.1764 C   0  0  2  0  0  0  0  0  0  0  0  0
    7.9411  -15.0672   17.9128 N   0  0  0  0  0  0  0  0  0  0  0  0
    8.7439  -15.8904   20.0408 C   0  0  0  0  0  0  0  0  0  0  0  0
    7.8941  -16.7855   20.2089 O   0  0  0  0  0  0  0  0  0  0  0  0
   10.3932  -21.1866   16.6398 O   0  0  0  0  0  0  0  0  0  0  0  0
   10.6354  -20.3950   17.7568 C   0  0  0  0  0  0  0  0  0  0  0  0
   11.1243  -19.1031   17.5967 C   0  0  0  0  0  0  0  0  0  0  0  0
   11.3764  -18.2885   18.6852 C   0  0  0  0  0  0  0  0  0  0  0  0
   11.1565  -18.7145   19.9846 C   0  0  0  0  0  0  0  0  0  0  0  0
   11.4246  -17.8502   21.1543 C   0  0  0  0  0  0  0  0  0  0  0  0
   10.2309  -17.1206   21.6878 C   0  0  2  0  0  0  0  0  0  0  0  0
    9.9794  -16.0216   20.7345 N   0  0  0  0  0  0  0  0  0  0  0  0
   10.5569  -16.5616   23.0261 C   0  0  0  0  0  0  0  0  0  0  0  0
   11.4029  -15.6243   23.0624 O   0  0  0  0  0  0  0  0  0  0  0  0
   10.6679  -20.0068   20.1310 C   0  0  0  0  0  0  0  0  0  0  0  0
   10.4168  -20.8177   19.0490 C   0  0  0  0  0  0  0  0  0  0  0  0
    9.9642  -17.0395   24.2170 N   0  0  0  0  0  0  0  0  0  0  0  0
   10.2945  -16.3868   25.4814 C   0  0  1  0  0  0  0  0  0  0  0  0
    9.9835  -14.9351   25.4305 C   0  0  0  0  0  0  0  0  0  0  0  0
    8.5455  -14.6566   25.5932 C   0  0  0  0  0  0  0  0  0  0  0  0
    7.4842  -15.5526   25.3801 C   0  0  0  0  0  0  0  0  0  0  0  0
    6.3196  -14.9169   25.5806 N   0  0  0  0  0  0  0  0  0  0  0  0
    6.5478  -13.6452   25.9169 C   0  0  0  0  0  0  0  0  0  0  0  0
    5.6702  -12.6270   26.2319 C   0  0  0  0  0  0  0  0  0  0  0  0
    6.1505  -11.3712   26.5795 C   0  0  0  0  0  0  0  0  0  0  0  0
    7.5208  -11.1951   26.5944 C   0  0  0  0  0  0  0  0  0  0  0  0
    8.3877  -12.2197   26.2767 C   0  0  0  0  0  0  0  0  0  0  0  0
    7.9254  -13.4726   25.9282 C   0  0  0  0  0  0  0  0  0  0  0  0
    9.6765  -17.0528   26.6287 C   0  0  0  0  0  0  0  0  0  0  0  0
   10.0395  -16.6993   27.9099 O   0  0  0  0  0  0  0  0  0  0  0  0
    8.8205  -17.9410   26.4699 O   0  0  0  0  0  0  0  0  0  0  0  0
  2  1  1  6
  2  3  1  0
  2  4  1  0
  4  5  1  6
  6 15  1  0
  6  4  1  0
  7  6  2  0
  8  9  1  0
  9 19  2  0
 10  9  1  0
 10 11  2  0
 11 12  1  0
 12 18  2  0
 12 13  1  0
 14 13  1  6
 14 16  1  0
 14 15  1  0
 16 20  1  0
 17 16  2  0
 19 18  1  0
 20 21  1  0
 21 32  1  0
 21 22  1  6
 23 22  1  0
 23 24  2  0
 25 24  1  0
 26 31  2  0
 26 25  1  0
 27 26  1  0
 28 29  1  0
 28 27  2  0
 29 30  2  0
 30 31  1  0
 31 23  1  0
 32 33  1  0
 34 32  2  0
M  END
$$$$
