VYW.pdb
     RDKit          3D

 34 36  0  0  1  0  0  0  0  0999 V2000
    7.2982  -12.8783   19.3378 C   0  0  0  0  0  0  0  0  0  0  0  0
    7.7218  -13.8062   20.4820 C   0  0  2  0  0  0  0  0  0  0  0  0
    8.5435  -13.0963   21.4927 C   0  0  0  0  0  0  0  0  0  0  0  0
    8.2850  -15.0447   19.9095 C   0  0  2  0  0  0  0  0  0  0  0  0
    7.4379  -15.6027   18.8724 N   0  0  0  0  0  0  0  0  0  0  0  0
    8.7150  -16.0786   20.8708 C   0  0  0  0  0  0  0  0  0  0  0  0
    7.9778  -16.9757   21.3215 O   0  0  0  0  0  0  0  0  0  0  0  0
   11.8307  -21.3257   17.5623 O   0  0  0  0  0  0  0  0  0  0  0  0
   11.8523  -20.4008   18.6001 C   0  0  0  0  0  0  0  0  0  0  0  0
   12.0200  -19.0493   18.3191 C   0  0  0  0  0  0  0  0  0  0  0  0
   12.0463  -18.1022   19.3262 C   0  0  0  0  0  0  0  0  0  0  0  0
   11.9080  -18.4485   20.6601 C   0  0  0  0  0  0  0  0  0  0  0  0
   11.9362  -17.4422   21.7436 C   0  0  0  0  0  0  0  0  0  0  0  0
   10.5931  -17.0475   22.2746 C   0  0  2  0  0  0  0  0  0  0  0  0
   10.0653  -16.0537   21.3188 N   0  0  0  0  0  0  0  0  0  0  0  0
   10.7607  -16.4204   23.6119 C   0  0  0  0  0  0  0  0  0  0  0  0
   11.4765  -15.3812   23.6692 O   0  0  0  0  0  0  0  0  0  0  0  0
   11.7411  -19.8016   20.9275 C   0  0  0  0  0  0  0  0  0  0  0  0
   11.7147  -20.7442   19.9264 C   0  0  0  0  0  0  0  0  0  0  0  0
   10.1600  -16.9431   24.7798 N   0  0  0  0  0  0  0  0  0  0  0  0
   10.4546  -16.3166   26.0662 C   0  0  1  0  0  0  0  0  0  0  0  0
   10.0967  -14.8750   26.0528 C   0  0  0  0  0  0  0  0  0  0  0  0
    8.6407  -14.6511   26.0957 C   0  0  0  0  0  0  0  0  0  0  0  0
    7.6357  -15.5766   25.7673 C   0  0  0  0  0  0  0  0  0  0  0  0
    6.4355  -14.9875   25.8811 N   0  0  0  0  0  0  0  0  0  0  0  0
    6.5866  -13.7189   26.2689 C   0  0  0  0  0  0  0  0  0  0  0  0
    5.6480  -12.7411   26.5319 C   0  0  0  0  0  0  0  0  0  0  0  0
    6.0496  -11.4802   26.9526 C   0  0  0  0  0  0  0  0  0  0  0  0
    7.4061  -11.2574   27.0923 C   0  0  0  0  0  0  0  0  0  0  0  0
    8.3345  -12.2419   26.8256 C   0  0  0  0  0  0  0  0  0  0  0  0
    7.9507  -13.4993   26.4055 C   0  0  0  0  0  0  0  0  0  0  0  0
    9.8458  -17.0352   27.1865 C   0  0  0  0  0  0  0  0  0  0  0  0
   10.1244  -16.6573   28.4818 O   0  0  0  0  0  0  0  0  0  0  0  0
    9.0734  -17.9903   26.9919 O   0  0  0  0  0  0  0  0  0  0  0  0
  2  1  1  6
  2  3  1  0
  2  4  1  0
  4  5  1  6
  6 15  1  0
  6  4  1  0
  7  6  2  0
  8  9  1  0
  9 19  2  0
 10  9  1  0
 10 11  2  0
 11 12  1  0
 12 18  2  0
 12 13  1  0
 14 13  1  6
 14 16  1  0
 14 15  1  0
 16 20  1  0
 17 16  2  0
 19 18  1  0
 20 21  1  0
 21 32  1  0
 21 22  1  6
 23 22  1  0
 23 24  2  0
 25 24  1  0
 26 31  2  0
 26 25  1  0
 27 26  1  0
 28 29  1  0
 28 27  2  0
 29 30  2  0
 30 31  1  0
 31 23  1  0
 32 33  1  0
 34 32  2  0
M  END
$$$$
