VYW.pdb
     RDKit          3D

 34 36  0  0  1  0  0  0  0  0999 V2000
    9.0748  -20.4583   23.0157 C   0  0  0  0  0  0  0  0  0  0  0  0
    7.8506  -19.8743   22.3018 C   0  0  2  0  0  0  0  0  0  0  0  0
    6.8501  -20.9203   21.9771 C   0  0  0  0  0  0  0  0  0  0  0  0
    8.3089  -19.0166   21.1913 C   0  0  2  0  0  0  0  0  0  0  0  0
    8.8495  -19.7901   20.0896 N   0  0  0  0  0  0  0  0  0  0  0  0
    9.1961  -17.8931   21.5497 C   0  0  0  0  0  0  0  0  0  0  0  0
   10.4268  -17.8750   21.3590 O   0  0  0  0  0  0  0  0  0  0  0  0
    7.4987  -13.6547   16.6392 O   0  0  0  0  0  0  0  0  0  0  0  0
    7.7409  -13.8076   17.9997 C   0  0  0  0  0  0  0  0  0  0  0  0
    8.5102  -14.8748   18.4501 C   0  0  0  0  0  0  0  0  0  0  0  0
    8.7710  -15.0573   19.7957 C   0  0  0  0  0  0  0  0  0  0  0  0
    8.2819  -14.1915   20.7598 C   0  0  0  0  0  0  0  0  0  0  0  0
    8.5550  -14.3800   22.2010 C   0  0  0  0  0  0  0  0  0  0  0  0
    9.4095  -15.5639   22.5328 C   0  0  2  0  0  0  0  0  0  0  0  0
    8.6105  -16.7472   22.1570 N   0  0  0  0  0  0  0  0  0  0  0  0
    9.6765  -15.5803   23.9950 C   0  0  0  0  0  0  0  0  0  0  0  0
   10.2111  -14.5481   24.4891 O   0  0  0  0  0  0  0  0  0  0  0  0
    7.5151  -13.1295   20.2970 C   0  0  0  0  0  0  0  0  0  0  0  0
    7.2553  -12.9471   18.9589 C   0  0  0  0  0  0  0  0  0  0  0  0
    9.3587  -16.6865   24.8157 N   0  0  0  0  0  0  0  0  0  0  0  0
    9.7592  -16.6616   26.2203 C   0  0  1  0  0  0  0  0  0  0  0  0
    8.5787  -16.5156   27.1100 C   0  0  0  0  0  0  0  0  0  0  0  0
    7.5836  -15.5656   26.5816 C   0  0  0  0  0  0  0  0  0  0  0  0
    6.4539  -15.8736   25.8048 C   0  0  0  0  0  0  0  0  0  0  0  0
    5.8206  -14.7381   25.4727 N   0  0  0  0  0  0  0  0  0  0  0  0
    6.4672  -13.6896   25.9875 C   0  0  0  0  0  0  0  0  0  0  0  0
    6.1831  -12.3399   25.9274 C   0  0  0  0  0  0  0  0  0  0  0  0
    7.0022  -11.4226   26.5724 C   0  0  0  0  0  0  0  0  0  0  0  0
    8.0922  -11.9170   27.2627 C   0  0  0  0  0  0  0  0  0  0  0  0
    8.3665  -13.2677   27.3147 C   0  0  0  0  0  0  0  0  0  0  0  0
    7.5625  -14.1912   26.6779 C   0  0  0  0  0  0  0  0  0  0  0  0
   10.5943  -17.8083   26.5803 C   0  0  0  0  0  0  0  0  0  0  0  0
   10.8201  -18.8124   25.6643 O   0  0  0  0  0  0  0  0  0  0  0  0
   11.1106  -17.8966   27.7083 O   0  0  0  0  0  0  0  0  0  0  0  0
  2  1  1  6
  2  3  1  0
  2  4  1  0
  4  5  1  6
  6 15  1  0
  6  4  1  0
  7  6  2  0
  8  9  1  0
  9 19  2  0
 10  9  1  0
 10 11  2  0
 11 12  1  0
 12 18  2  0
 12 13  1  0
 14 13  1  1
 14 16  1  0
 14 15  1  0
 16 20  1  0
 17 16  2  0
 19 18  1  0
 20 21  1  0
 21 32  1  0
 21 22  1  1
 23 22  1  0
 23 24  2  0
 25 24  1  0
 26 31  2  0
 26 25  1  0
 27 26  1  0
 28 29  1  0
 28 27  2  0
 29 30  2  0
 30 31  1  0
 31 23  1  0
 32 33  1  0
 34 32  2  0
M  END
$$$$
