YRY.pdb
     RDKit          3D

 36 37  0  0  1  0  0  0  0  0999 V2000
   18.8548  -13.8466   17.4487 O   0  0  0  0  0  0  0  0  0  0  0  0
   17.5213  -13.8308   17.9041 C   0  0  0  0  0  0  0  0  0  0  0  0
   16.5606  -13.1079   17.2239 C   0  0  0  0  0  0  0  0  0  0  0  0
   15.2655  -13.1122   17.6935 C   0  0  0  0  0  0  0  0  0  0  0  0
   14.8893  -13.8141   18.8229 C   0  0  0  0  0  0  0  0  0  0  0  0
   13.4665  -13.8001   19.3139 C   0  0  0  0  0  0  0  0  0  0  0  0
   12.8461  -15.0735   18.8199 C   0  0  2  0  0  0  0  0  0  0  0  0
   12.2576  -14.8538   17.5145 N   0  0  0  0  0  0  0  0  0  0  0  0
   11.8078  -15.6190   19.7288 C   0  0  0  0  0  0  0  0  0  0  0  0
   10.6151  -15.2093   19.7258 O   0  0  0  0  0  0  0  0  0  0  0  0
   15.8720  -14.5236   19.4765 C   0  0  0  0  0  0  0  0  0  0  0  0
   17.1718  -14.5296   19.0195 C   0  0  0  0  0  0  0  0  0  0  0  0
   13.0801  -20.4609   18.8591 N   0  0  0  0  0  0  0  0  0  0  0  0
   11.9234  -20.9444   18.1602 C   0  0  0  0  0  0  0  0  0  0  0  0
   11.9874  -21.3191   16.9308 N   0  0  0  0  0  0  0  0  0  0  0  0
   10.6599  -21.0250   18.8088 N   0  0  0  0  0  0  0  0  0  0  0  0
   10.4727  -20.5819   20.1549 C   0  0  0  0  0  0  0  0  0  0  0  0
   10.4801  -19.0639   20.2978 C   0  0  0  0  0  0  0  0  0  0  0  0
   11.2580  -18.6354   21.4942 C   0  0  0  0  0  0  0  0  0  0  0  0
   11.2820  -17.1399   21.6704 C   0  0  2  0  0  0  0  0  0  0  0  0
   12.1607  -16.6319   20.6305 N   0  0  0  0  0  0  0  0  0  0  0  0
   11.6252  -16.6585   22.9990 C   0  0  0  0  0  0  0  0  0  0  0  0
   12.8228  -16.5814   23.3775 O   0  0  0  0  0  0  0  0  0  0  0  0
   11.1240  -21.7157   16.5012 O   0  0  0  0  0  0  0  0  0  0  0  0
   10.8923  -14.5248   31.5800 C   0  0  0  0  0  0  0  0  0  0  0  0
   10.6484  -14.6897   30.2275 C   0  0  0  0  0  0  0  0  0  0  0  0
   10.2062  -15.9234   29.7748 C   0  0  0  0  0  0  0  0  0  0  0  0
    9.9618  -16.0964   28.4364 C   0  0  0  0  0  0  0  0  0  0  0  0
   10.1371  -15.0914   27.5148 C   0  0  0  0  0  0  0  0  0  0  0  0
    9.8841  -15.2457   26.0652 C   0  0  1  0  0  0  0  0  0  0  0  0
   10.9983  -15.9451   25.3592 N   0  0  0  0  0  0  0  0  0  0  0  0
   10.6534  -16.2412   23.9676 C   0  0  0  0  0  0  0  0  0  0  0  0
   11.5295  -17.1270   26.0371 O   0  0  0  0  0  0  0  0  0  0  0  0
   10.9677  -18.4039   25.8485 C   0  0  0  0  0  0  0  0  0  0  0  0
   10.5806  -13.8593   27.9795 C   0  0  0  0  0  0  0  0  0  0  0  0
   10.8305  -13.6677   29.3160 O   0  0  0  0  0  0  0  0  0  0  0  0
  2 12  2  0
  2  1  1  0
  3  2  1  0
  4  5  1  0
  4  3  2  0
  5 11  2  0
  6  5  1  0
  7  6  1  0
  7  8  1  6
  9  7  1  0
  9 10  2  0
 11 12  1  0
 14 13  1  0
 15 14  2  0
 16 14  1  0
 17 16  1  0
 18 17  1  0
 18 19  1  0
 20 19  1  1
 20 21  1  0
 21  9  1  0
 22 20  1  0
 23 22  2  0
 24 25  1  0
 25 26  2  0
 25 35  1  0
 26 27  1  0
 27 28  2  0
 28 29  1  0
 30 29  1  6
 30 31  1  0
 31 22  1  0
 32 33  1  0
 32 30  1  0
 34 28  1  0
 35 34  2  0
 36 32  2  0
M  END
$$$$
