YRY.pdb
     RDKit          3D

 36 37  0  0  1  0  0  0  0  0999 V2000
    5.0975  -10.2363   28.3484 O   0  0  0  0  0  0  0  0  0  0  0  0
    5.8364  -11.2238   27.6665 C   0  0  0  0  0  0  0  0  0  0  0  0
    6.2970  -10.9898   26.3854 C   0  0  0  0  0  0  0  0  0  0  0  0
    7.0168  -11.9745   25.7449 C   0  0  0  0  0  0  0  0  0  0  0  0
    7.2964  -13.1916   26.3368 C   0  0  0  0  0  0  0  0  0  0  0  0
    8.0845  -14.2499   25.6127 C   0  0  0  0  0  0  0  0  0  0  0  0
    7.1038  -14.9649   24.7308 C   0  0  2  0  0  0  0  0  0  0  0  0
    6.3009  -15.8690   25.5286 N   0  0  0  0  0  0  0  0  0  0  0  0
    7.7429  -15.7319   23.6331 C   0  0  0  0  0  0  0  0  0  0  0  0
    7.6419  -16.9845   23.5275 O   0  0  0  0  0  0  0  0  0  0  0  0
    6.8220  -13.3913   27.6140 C   0  0  0  0  0  0  0  0  0  0  0  0
    6.1008  -12.4165   28.2682 C   0  0  0  0  0  0  0  0  0  0  0  0
    9.8951  -15.1446   15.8152 N   0  0  0  0  0  0  0  0  0  0  0  0
    8.6436  -14.4998   16.0946 C   0  0  0  0  0  0  0  0  0  0  0  0
    8.1986  -13.5448   15.3557 N   0  0  0  0  0  0  0  0  0  0  0  0
    7.8495  -14.8984   17.2055 N   0  0  0  0  0  0  0  0  0  0  0  0
    8.3622  -15.7492   18.2334 C   0  0  0  0  0  0  0  0  0  0  0  0
    9.4487  -15.0909   19.0765 C   0  0  0  0  0  0  0  0  0  0  0  0
    8.9110  -14.6225   20.3848 C   0  0  0  0  0  0  0  0  0  0  0  0
    9.0432  -15.6543   21.4738 C   0  0  2  0  0  0  0  0  0  0  0  0
    8.4910  -15.0415   22.6702 N   0  0  0  0  0  0  0  0  0  0  0  0
   10.3737  -16.2067   21.6724 C   0  0  0  0  0  0  0  0  0  0  0  0
   10.7191  -17.2901   21.1336 O   0  0  0  0  0  0  0  0  0  0  0  0
    7.2880  -13.1123   15.6221 O   0  0  0  0  0  0  0  0  0  0  0  0
   11.3677  -16.0199   30.2598 C   0  0  0  0  0  0  0  0  0  0  0  0
   11.1212  -15.9530   28.8994 C   0  0  0  0  0  0  0  0  0  0  0  0
   11.3373  -14.7524   28.2404 C   0  0  0  0  0  0  0  0  0  0  0  0
   11.0959  -14.6763   26.8925 C   0  0  0  0  0  0  0  0  0  0  0  0
   10.6451  -15.7479   26.1585 C   0  0  0  0  0  0  0  0  0  0  0  0
   10.3739  -15.6986   24.7048 C   0  0  2  0  0  0  0  0  0  0  0  0
   11.5998  -15.9279   23.8840 N   0  0  0  0  0  0  0  0  0  0  0  0
   11.3808  -15.5805   22.4789 C   0  0  0  0  0  0  0  0  0  0  0  0
   12.2064  -17.2521   24.0148 O   0  0  0  0  0  0  0  0  0  0  0  0
   12.6003  -18.0005   22.8895 C   0  0  0  0  0  0  0  0  0  0  0  0
   10.4320  -16.9461   26.8291 C   0  0  0  0  0  0  0  0  0  0  0  0
   10.6682  -17.0408   28.1783 O   0  0  0  0  0  0  0  0  0  0  0  0
  2 12  2  0
  2  1  1  0
  3  2  1  0
  4  5  1  0
  4  3  2  0
  5 11  2  0
  6  5  1  0
  7  6  1  0
  7  8  1  1
  9  7  1  0
  9 10  2  0
 11 12  1  0
 14 13  1  0
 15 14  2  0
 16 14  1  0
 17 16  1  0
 18 17  1  0
 18 19  1  0
 20 19  1  6
 20 21  1  0
 21  9  1  0
 22 20  1  0
 23 22  2  0
 24 25  1  0
 25 26  2  0
 25 35  1  0
 26 27  1  0
 27 28  2  0
 28 29  1  0
 30 29  1  1
 30 31  1  0
 31 22  1  0
 32 33  1  0
 32 30  1  0
 34 28  1  0
 35 34  2  0
 36 32  2  0
M  END
$$$$
