YRY.pdb
     RDKit          3D

 36 37  0  0  1  0  0  0  0  0999 V2000
    6.2075  -11.3311   17.2693 O   0  0  0  0  0  0  0  0  0  0  0  0
    6.6312  -12.3337   18.1644 C   0  0  0  0  0  0  0  0  0  0  0  0
    7.8724  -12.2530   18.7653 C   0  0  0  0  0  0  0  0  0  0  0  0
    8.2582  -13.2484   19.6361 C   0  0  0  0  0  0  0  0  0  0  0  0
    7.4484  -14.3284   19.9323 C   0  0  0  0  0  0  0  0  0  0  0  0
    7.8962  -15.4022   20.8872 C   0  0  0  0  0  0  0  0  0  0  0  0
    8.4508  -16.5066   20.0367 C   0  0  2  0  0  0  0  0  0  0  0  0
    7.3631  -17.2519   19.4366 N   0  0  0  0  0  0  0  0  0  0  0  0
    9.3238  -17.4474   20.7814 C   0  0  0  0  0  0  0  0  0  0  0  0
    8.8681  -18.3933   21.4799 O   0  0  0  0  0  0  0  0  0  0  0  0
    6.2181  -14.3773   19.3157 C   0  0  0  0  0  0  0  0  0  0  0  0
    5.8175  -13.3896   18.4426 C   0  0  0  0  0  0  0  0  0  0  0  0
   16.3383  -19.2936   18.3470 N   0  0  0  0  0  0  0  0  0  0  0  0
   16.5445  -20.2797   19.3694 C   0  0  0  0  0  0  0  0  0  0  0  0
   17.3231  -21.2875   19.1855 N   0  0  0  0  0  0  0  0  0  0  0  0
   15.8895  -20.1738   20.6277 N   0  0  0  0  0  0  0  0  0  0  0  0
   14.4658  -20.1008   20.7340 C   0  0  0  0  0  0  0  0  0  0  0  0
   13.9792  -18.8772   21.5024 C   0  0  0  0  0  0  0  0  0  0  0  0
   12.9050  -18.1612   20.7585 C   0  0  0  0  0  0  0  0  0  0  0  0
   11.6600  -17.9586   21.5814 C   0  0  2  0  0  0  0  0  0  0  0  0
   10.7136  -17.2835   20.7095 N   0  0  0  0  0  0  0  0  0  0  0  0
   11.8412  -17.2905   22.8603 C   0  0  0  0  0  0  0  0  0  0  0  0
   12.7292  -16.4133   23.0199 O   0  0  0  0  0  0  0  0  0  0  0  0
   17.4189  -21.9726   19.9658 O   0  0  0  0  0  0  0  0  0  0  0  0
   10.7715  -14.5329   31.2096 C   0  0  0  0  0  0  0  0  0  0  0  0
   10.5771  -15.0445   29.9382 C   0  0  0  0  0  0  0  0  0  0  0  0
   10.7016  -16.4116   29.7429 C   0  0  0  0  0  0  0  0  0  0  0  0
   10.5109  -16.9279   28.4867 C   0  0  0  0  0  0  0  0  0  0  0  0
   10.1986  -16.1428   27.4021 C   0  0  0  0  0  0  0  0  0  0  0  0
    9.9881  -16.6677   26.0349 C   0  0  1  0  0  0  0  0  0  0  0  0
   11.2704  -16.9140   25.3108 N   0  0  0  0  0  0  0  0  0  0  0  0
   11.0442  -17.5668   24.0201 C   0  0  0  0  0  0  0  0  0  0  0  0
   12.3053  -17.6039   26.0800 O   0  0  0  0  0  0  0  0  0  0  0  0
   12.2736  -18.9968   26.2812 C   0  0  0  0  0  0  0  0  0  0  0  0
   10.0765  -14.7742   27.6093 C   0  0  0  0  0  0  0  0  0  0  0  0
   10.2640  -14.2396   28.8601 O   0  0  0  0  0  0  0  0  0  0  0  0
  2 12  2  0
  2  1  1  0
  3  2  1  0
  4  5  1  0
  4  3  2  0
  5 11  2  0
  6  5  1  0
  7  6  1  0
  7  8  1  1
  9  7  1  0
  9 10  2  0
 11 12  1  0
 14 13  1  0
 15 14  2  0
 16 14  1  0
 17 16  1  0
 18 17  1  0
 18 19  1  0
 20 19  1  6
 20 21  1  0
 21  9  1  0
 22 20  1  0
 23 22  2  0
 24 25  1  0
 25 26  2  0
 25 35  1  0
 26 27  1  0
 27 28  2  0
 28 29  1  0
 30 29  1  6
 30 31  1  0
 31 22  1  0
 32 33  1  0
 32 30  1  0
 34 28  1  0
 35 34  2  0
 36 32  2  0
M  END
$$$$
