YRY.pdb
     RDKit          3D

 36 37  0  0  1  0  0  0  0  0999 V2000
    7.6058  -13.3972   13.9762 O   0  0  0  0  0  0  0  0  0  0  0  0
    7.4979  -13.7113   15.3457 C   0  0  0  0  0  0  0  0  0  0  0  0
    7.3107  -15.0192   15.7486 C   0  0  0  0  0  0  0  0  0  0  0  0
    7.2092  -15.2949   17.0946 C   0  0  0  0  0  0  0  0  0  0  0  0
    7.2876  -14.3096   18.0605 C   0  0  0  0  0  0  0  0  0  0  0  0
    7.1724  -14.6396   19.5245 C   0  0  0  0  0  0  0  0  0  0  0  0
    8.5779  -14.7991   20.0242 C   0  0  2  0  0  0  0  0  0  0  0  0
    9.3893  -15.4287   19.0024 N   0  0  0  0  0  0  0  0  0  0  0  0
    8.6767  -15.5942   21.2731 C   0  0  0  0  0  0  0  0  0  0  0  0
    7.9657  -15.3611   22.2882 O   0  0  0  0  0  0  0  0  0  0  0  0
    7.4744  -13.0171   17.6239 C   0  0  0  0  0  0  0  0  0  0  0  0
    7.5780  -12.7251   16.2813 C   0  0  0  0  0  0  0  0  0  0  0  0
   12.1337  -21.8303   25.1593 N   0  0  0  0  0  0  0  0  0  0  0  0
   13.0705  -21.5759   24.1020 C   0  0  0  0  0  0  0  0  0  0  0  0
   14.3392  -21.6901   24.2848 N   0  0  0  0  0  0  0  0  0  0  0  0
   12.6234  -21.1863   22.8091 N   0  0  0  0  0  0  0  0  0  0  0  0
   11.2342  -21.0567   22.4981 C   0  0  0  0  0  0  0  0  0  0  0  0
   10.6064  -19.7839   23.0555 C   0  0  0  0  0  0  0  0  0  0  0  0
   10.4648  -18.7417   22.0002 C   0  0  0  0  0  0  0  0  0  0  0  0
    9.7996  -17.4876   22.5033 C   0  0  2  0  0  0  0  0  0  0  0  0
    9.5965  -16.6496   21.3336 N   0  0  0  0  0  0  0  0  0  0  0  0
   10.4736  -16.8001   23.5931 C   0  0  0  0  0  0  0  0  0  0  0  0
   11.4948  -16.0939   23.3887 O   0  0  0  0  0  0  0  0  0  0  0  0
   14.9630  -21.5068   23.4697 O   0  0  0  0  0  0  0  0  0  0  0  0
    5.5271  -11.0185   27.4809 C   0  0  0  0  0  0  0  0  0  0  0  0
    6.1912  -12.0481   26.8367 C   0  0  0  0  0  0  0  0  0  0  0  0
    7.2390  -11.7358   25.9840 C   0  0  0  0  0  0  0  0  0  0  0  0
    7.9030  -12.7490   25.3412 C   0  0  0  0  0  0  0  0  0  0  0  0
    7.5729  -14.0735   25.5062 C   0  0  0  0  0  0  0  0  0  0  0  0
    8.2676  -15.1894   24.8271 C   0  0  1  0  0  0  0  0  0  0  0  0
    9.3897  -15.7464   25.6394 N   0  0  0  0  0  0  0  0  0  0  0  0
   10.0436  -16.8660   24.9597 C   0  0  0  0  0  0  0  0  0  0  0  0
    9.0574  -16.0864   27.0224 O   0  0  0  0  0  0  0  0  0  0  0  0
    9.5812  -15.3615   28.1095 C   0  0  0  0  0  0  0  0  0  0  0  0
    6.5213  -14.3749   26.3629 C   0  0  0  0  0  0  0  0  0  0  0  0
    5.8450  -13.3735   27.0150 O   0  0  0  0  0  0  0  0  0  0  0  0
  2 12  2  0
  2  1  1  0
  3  2  1  0
  4  5  1  0
  4  3  2  0
  5 11  2  0
  6  5  1  0
  7  6  1  0
  7  8  1  6
  9  7  1  0
  9 10  2  0
 11 12  1  0
 14 13  1  0
 15 14  2  0
 16 14  1  0
 17 16  1  0
 18 17  1  0
 18 19  1  0
 20 19  1  6
 20 21  1  0
 21  9  1  0
 22 20  1  0
 23 22  2  0
 24 25  1  0
 25 26  2  0
 25 35  1  0
 26 27  1  0
 27 28  2  0
 28 29  1  0
 30 29  1  6
 30 31  1  0
 31 22  1  0
 32 33  1  0
 32 30  1  0
 34 28  1  0
 35 34  2  0
 36 32  2  0
M  END
$$$$
