YRY.pdb
     RDKit          3D

 36 37  0  0  1  0  0  0  0  0999 V2000
    4.3721  -10.3132   27.4444 O   0  0  0  0  0  0  0  0  0  0  0  0
    5.2053  -11.3324   26.9416 C   0  0  0  0  0  0  0  0  0  0  0  0
    5.8107  -11.1931   25.7078 C   0  0  0  0  0  0  0  0  0  0  0  0
    6.6201  -12.2066   25.2434 C   0  0  0  0  0  0  0  0  0  0  0  0
    6.8502  -13.3614   25.9669 C   0  0  0  0  0  0  0  0  0  0  0  0
    7.7388  -14.4532   25.4343 C   0  0  0  0  0  0  0  0  0  0  0  0
    6.8585  -15.3286   24.5920 C   0  0  2  0  0  0  0  0  0  0  0  0
    6.1656  -16.2794   25.4373 N   0  0  0  0  0  0  0  0  0  0  0  0
    7.5938  -16.0703   23.5379 C   0  0  0  0  0  0  0  0  0  0  0  0
    8.2759  -17.1030   23.7802 O   0  0  0  0  0  0  0  0  0  0  0  0
    6.2310  -13.4673   27.1923 C   0  0  0  0  0  0  0  0  0  0  0  0
    5.4188  -12.4625   27.6709 C   0  0  0  0  0  0  0  0  0  0  0  0
    7.6466  -16.1406   16.7873 N   0  0  0  0  0  0  0  0  0  0  0  0
    8.1662  -15.0073   16.0762 C   0  0  0  0  0  0  0  0  0  0  0  0
    8.5129  -15.0896   14.8397 N   0  0  0  0  0  0  0  0  0  0  0  0
    8.3160  -13.7479   16.7203 N   0  0  0  0  0  0  0  0  0  0  0  0
    7.9580  -13.5534   18.0905 C   0  0  0  0  0  0  0  0  0  0  0  0
    8.6905  -14.4897   19.0451 C   0  0  0  0  0  0  0  0  0  0  0  0
    8.3042  -14.2319   20.4609 C   0  0  0  0  0  0  0  0  0  0  0  0
    8.6971  -15.3528   21.3869 C   0  0  2  0  0  0  0  0  0  0  0  0
    7.5317  -15.6093   22.2162 N   0  0  0  0  0  0  0  0  0  0  0  0
    9.9156  -15.1501   22.1544 C   0  0  0  0  0  0  0  0  0  0  0  0
   10.2911  -13.9978   22.4929 O   0  0  0  0  0  0  0  0  0  0  0  0
    8.9113  -14.2362   14.3920 O   0  0  0  0  0  0  0  0  0  0  0  0
   12.0823  -15.8377   30.2565 C   0  0  0  0  0  0  0  0  0  0  0  0
   11.6139  -15.9122   28.9561 C   0  0  0  0  0  0  0  0  0  0  0  0
   11.2991  -17.1561   28.4305 C   0  0  0  0  0  0  0  0  0  0  0  0
   10.8343  -17.2400   27.1430 C   0  0  0  0  0  0  0  0  0  0  0  0
   10.6648  -16.1352   26.3425 C   0  0  0  0  0  0  0  0  0  0  0  0
   10.1673  -16.1915   24.9503 C   0  0  2  0  0  0  0  0  0  0  0  0
   11.2686  -16.3367   23.9526 N   0  0  0  0  0  0  0  0  0  0  0  0
   10.7723  -16.2184   22.5804 C   0  0  0  0  0  0  0  0  0  0  0  0
   12.1101  -17.5221   24.1119 O   0  0  0  0  0  0  0  0  0  0  0  0
   11.6205  -18.8173   23.8586 C   0  0  0  0  0  0  0  0  0  0  0  0
   10.9834  -14.8938   26.8794 C   0  0  0  0  0  0  0  0  0  0  0  0
   11.4501  -14.7905   28.1666 O   0  0  0  0  0  0  0  0  0  0  0  0
  2 12  2  0
  2  1  1  0
  3  2  1  0
  4  5  1  0
  4  3  2  0
  5 11  2  0
  6  5  1  0
  7  6  1  0
  7  8  1  1
  9  7  1  0
  9 10  2  0
 11 12  1  0
 14 13  1  0
 15 14  2  0
 16 14  1  0
 17 16  1  0
 18 17  1  0
 18 19  1  0
 20 19  1  1
 20 21  1  0
 21  9  1  0
 22 20  1  0
 23 22  2  0
 24 25  1  0
 25 26  2  0
 25 35  1  0
 26 27  1  0
 27 28  2  0
 28 29  1  0
 30 29  1  1
 30 31  1  0
 31 22  1  0
 32 33  1  0
 32 30  1  0
 34 28  1  0
 35 34  2  0
 36 32  2  0
M  END
$$$$
