YRY.pdb
     RDKit          3D

 36 37  0  0  1  0  0  0  0  0999 V2000
    7.7258  -11.9239   17.4565 O   0  0  0  0  0  0  0  0  0  0  0  0
    7.7549  -12.8085   18.5532 C   0  0  0  0  0  0  0  0  0  0  0  0
    7.0181  -13.9766   18.5267 C   0  0  0  0  0  0  0  0  0  0  0  0
    7.0673  -14.8214   19.6139 C   0  0  0  0  0  0  0  0  0  0  0  0
    7.8278  -14.5438   20.7339 C   0  0  0  0  0  0  0  0  0  0  0  0
    7.8619  -15.4848   21.9081 C   0  0  0  0  0  0  0  0  0  0  0  0
    9.1406  -16.2589   21.7806 C   0  0  2  0  0  0  0  0  0  0  0  0
    9.0696  -17.1291   20.6245 N   0  0  0  0  0  0  0  0  0  0  0  0
    9.4614  -17.0757   22.9771 C   0  0  0  0  0  0  0  0  0  0  0  0
    9.2820  -18.3232   23.0196 O   0  0  0  0  0  0  0  0  0  0  0  0
    8.5495  -13.3711   20.7268 C   0  0  0  0  0  0  0  0  0  0  0  0
    8.5111  -12.5159   19.6472 C   0  0  0  0  0  0  0  0  0  0  0  0
   13.8706  -16.8060   20.9906 N   0  0  0  0  0  0  0  0  0  0  0  0
   14.8829  -16.5032   21.9621 C   0  0  0  0  0  0  0  0  0  0  0  0
   15.7397  -15.5624   21.7707 N   0  0  0  0  0  0  0  0  0  0  0  0
   14.9723  -17.2390   23.1762 N   0  0  0  0  0  0  0  0  0  0  0  0
   13.8708  -17.9963   23.6828 C   0  0  0  0  0  0  0  0  0  0  0  0
   12.7472  -17.1296   24.2402 C   0  0  0  0  0  0  0  0  0  0  0  0
   11.6504  -17.9626   24.8088 C   0  0  0  0  0  0  0  0  0  0  0  0
   10.4798  -17.1424   25.2831 C   0  0  2  0  0  0  0  0  0  0  0  0
    9.9860  -16.4403   24.1105 N   0  0  0  0  0  0  0  0  0  0  0  0
   10.7315  -16.2648   26.4151 C   0  0  0  0  0  0  0  0  0  0  0  0
   11.8527  -15.7189   26.5827 O   0  0  0  0  0  0  0  0  0  0  0  0
   16.4470  -15.3939   22.5181 O   0  0  0  0  0  0  0  0  0  0  0  0
    6.6252  -12.8346   23.6088 C   0  0  0  0  0  0  0  0  0  0  0  0
    7.2013  -13.1215   24.8343 C   0  0  0  0  0  0  0  0  0  0  0  0
    6.4008  -13.1129   25.9663 C   0  0  0  0  0  0  0  0  0  0  0  0
    6.9625  -13.3959   27.1850 C   0  0  0  0  0  0  0  0  0  0  0  0
    8.2969  -13.6907   27.3357 C   0  0  0  0  0  0  0  0  0  0  0  0
    8.9338  -13.9987   28.6352 C   0  0  2  0  0  0  0  0  0  0  0  0
   10.0069  -15.0302   28.5183 N   0  0  0  0  0  0  0  0  0  0  0  0
    9.7488  -15.9541   27.4124 C   0  0  0  0  0  0  0  0  0  0  0  0
   10.3229  -15.7523   29.7501 O   0  0  0  0  0  0  0  0  0  0  0  0
   10.2989  -17.1585   29.8109 C   0  0  0  0  0  0  0  0  0  0  0  0
    9.0898  -13.6964   26.1946 C   0  0  0  0  0  0  0  0  0  0  0  0
    8.5447  -13.4154   24.9662 O   0  0  0  0  0  0  0  0  0  0  0  0
  2 12  2  0
  2  1  1  0
  3  2  1  0
  4  5  1  0
  4  3  2  0
  5 11  2  0
  6  5  1  0
  7  6  1  0
  7  8  1  6
  9  7  1  0
  9 10  2  0
 11 12  1  0
 14 13  1  0
 15 14  2  0
 16 14  1  0
 17 16  1  0
 18 17  1  0
 18 19  1  0
 20 19  1  6
 20 21  1  0
 21  9  1  0
 22 20  1  0
 23 22  2  0
 24 25  1  0
 25 26  2  0
 25 35  1  0
 26 27  1  0
 27 28  2  0
 28 29  1  0
 30 29  1  6
 30 31  1  0
 31 22  1  0
 32 33  1  0
 32 30  1  0
 34 28  1  0
 35 34  2  0
 36 32  2  0
M  END
$$$$
