YRY.pdb
     RDKit          3D

 36 37  0  0  1  0  0  0  0  0999 V2000
    7.5747  -12.1701   16.8709 O   0  0  0  0  0  0  0  0  0  0  0  0
    7.8189  -12.8881   18.0587 C   0  0  0  0  0  0  0  0  0  0  0  0
    6.7830  -13.5245   18.7143 C   0  0  0  0  0  0  0  0  0  0  0  0
    7.0532  -14.2189   19.8731 C   0  0  0  0  0  0  0  0  0  0  0  0
    8.3253  -14.3032   20.4067 C   0  0  0  0  0  0  0  0  0  0  0  0
    8.5914  -15.0683   21.6752 C   0  0  0  0  0  0  0  0  0  0  0  0
    9.1539  -16.3922   21.2493 C   0  0  2  0  0  0  0  0  0  0  0  0
    8.2707  -17.0069   20.2793 N   0  0  0  0  0  0  0  0  0  0  0  0
    9.3636  -17.3371   22.3740 C   0  0  0  0  0  0  0  0  0  0  0  0
    8.6967  -18.3993   22.5059 O   0  0  0  0  0  0  0  0  0  0  0  0
    9.3340  -13.6570   19.7277 C   0  0  0  0  0  0  0  0  0  0  0  0
    9.0801  -12.9586   18.5674 C   0  0  0  0  0  0  0  0  0  0  0  0
   12.9908  -22.4118   27.0936 N   0  0  0  0  0  0  0  0  0  0  0  0
   11.9198  -23.1099   26.4410 C   0  0  0  0  0  0  0  0  0  0  0  0
   11.4329  -24.1987   26.9241 N   0  0  0  0  0  0  0  0  0  0  0  0
   11.3587  -22.6173   25.2302 N   0  0  0  0  0  0  0  0  0  0  0  0
   11.8788  -21.4589   24.5736 C   0  0  0  0  0  0  0  0  0  0  0  0
   11.3202  -20.1510   25.1230 C   0  0  0  0  0  0  0  0  0  0  0  0
   10.9371  -19.2205   24.0242 C   0  0  0  0  0  0  0  0  0  0  0  0
   10.5854  -17.8430   24.5212 C   0  0  2  0  0  0  0  0  0  0  0  0
   10.3420  -17.0427   23.3330 N   0  0  0  0  0  0  0  0  0  0  0  0
   11.5336  -17.2341   25.4403 C   0  0  0  0  0  0  0  0  0  0  0  0
   12.3845  -17.9269   26.0562 O   0  0  0  0  0  0  0  0  0  0  0  0
   10.6586  -24.6570   26.3972 O   0  0  0  0  0  0  0  0  0  0  0  0
    5.1819  -11.6518   27.2890 C   0  0  0  0  0  0  0  0  0  0  0  0
    6.2426  -12.3821   26.7814 C   0  0  0  0  0  0  0  0  0  0  0  0
    6.0170  -13.6852   26.3650 C   0  0  0  0  0  0  0  0  0  0  0  0
    7.0617  -14.4166   25.8607 C   0  0  0  0  0  0  0  0  0  0  0  0
    8.3351  -13.9105   25.7484 C   0  0  0  0  0  0  0  0  0  0  0  0
    9.4833  -14.6730   25.2107 C   0  0  2  0  0  0  0  0  0  0  0  0
   10.4428  -15.0926   26.2749 N   0  0  0  0  0  0  0  0  0  0  0  0
   11.5793  -15.8276   25.7171 C   0  0  0  0  0  0  0  0  0  0  0  0
    9.8540  -15.8061   27.4076 O   0  0  0  0  0  0  0  0  0  0  0  0
    9.8877  -15.2797   28.7127 C   0  0  0  0  0  0  0  0  0  0  0  0
    8.5498  -12.6036   26.1688 C   0  0  0  0  0  0  0  0  0  0  0  0
    7.5158  -11.8563   26.6763 O   0  0  0  0  0  0  0  0  0  0  0  0
  2 12  2  0
  2  1  1  0
  3  2  1  0
  4  5  1  0
  4  3  2  0
  5 11  2  0
  6  5  1  0
  7  6  1  0
  7  8  1  6
  9  7  1  0
  9 10  2  0
 11 12  1  0
 14 13  1  0
 15 14  2  0
 16 14  1  0
 17 16  1  0
 18 17  1  0
 18 19  1  0
 20 19  1  6
 20 21  1  0
 21  9  1  0
 22 20  1  0
 23 22  2  0
 24 25  1  0
 25 26  2  0
 25 35  1  0
 26 27  1  0
 27 28  2  0
 28 29  1  0
 30 29  1  6
 30 31  1  0
 31 22  1  0
 32 33  1  0
 32 30  1  0
 34 28  1  0
 35 34  2  0
 36 32  2  0
M  END
$$$$
