YRY.pdb
     RDKit          3D

 36 37  0  0  1  0  0  0  0  0999 V2000
    6.9296  -11.7681   17.1800 O   0  0  0  0  0  0  0  0  0  0  0  0
    7.1986  -12.6530   18.2433 C   0  0  0  0  0  0  0  0  0  0  0  0
    8.2022  -12.3699   19.1493 C   0  0  0  0  0  0  0  0  0  0  0  0
    8.4411  -13.2542   20.1783 C   0  0  0  0  0  0  0  0  0  0  0  0
    7.7129  -14.4177   20.3393 C   0  0  0  0  0  0  0  0  0  0  0  0
    7.9966  -15.3664   21.4728 C   0  0  0  0  0  0  0  0  0  0  0  0
    9.1737  -16.1890   21.0388 C   0  0  2  0  0  0  0  0  0  0  0  0
    8.8203  -16.9642   19.8671 N   0  0  0  0  0  0  0  0  0  0  0  0
    9.6744  -17.1089   22.0899 C   0  0  0  0  0  0  0  0  0  0  0  0
    9.5113  -18.3583   22.0371 O   0  0  0  0  0  0  0  0  0  0  0  0
    6.7205  -14.6687   19.4184 C   0  0  0  0  0  0  0  0  0  0  0  0
    6.4690  -13.7942   18.3838 C   0  0  0  0  0  0  0  0  0  0  0  0
   16.1298  -21.0681   25.1713 N   0  0  0  0  0  0  0  0  0  0  0  0
   15.0342  -21.9059   24.7737 C   0  0  0  0  0  0  0  0  0  0  0  0
   15.1474  -23.1870   24.7308 N   0  0  0  0  0  0  0  0  0  0  0  0
   13.7792  -21.3427   24.4113 N   0  0  0  0  0  0  0  0  0  0  0  0
   13.6771  -20.0480   23.8141 C   0  0  0  0  0  0  0  0  0  0  0  0
   12.7017  -19.1248   24.5359 C   0  0  0  0  0  0  0  0  0  0  0  0
   11.9062  -18.3147   23.5711 C   0  0  0  0  0  0  0  0  0  0  0  0
   10.9479  -17.3723   24.2505 C   0  0  2  0  0  0  0  0  0  0  0  0
   10.3580  -16.5733   23.1897 N   0  0  0  0  0  0  0  0  0  0  0  0
   11.4977  -16.5734   25.3341 C   0  0  0  0  0  0  0  0  0  0  0  0
   12.6889  -16.7172   25.7133 O   0  0  0  0  0  0  0  0  0  0  0  0
   14.2979  -23.7389   24.4839 O   0  0  0  0  0  0  0  0  0  0  0  0
    6.0416  -11.3360   25.4094 C   0  0  0  0  0  0  0  0  0  0  0  0
    6.6805  -12.4770   25.8632 C   0  0  0  0  0  0  0  0  0  0  0  0
    7.6900  -12.3468   26.8046 C   0  0  0  0  0  0  0  0  0  0  0  0
    8.3289  -13.4715   27.2603 C   0  0  0  0  0  0  0  0  0  0  0  0
    8.0097  -14.7347   26.8211 C   0  0  0  0  0  0  0  0  0  0  0  0
    8.6798  -15.9672   27.2911 C   0  0  2  0  0  0  0  0  0  0  0  0
   10.1638  -15.8210   27.3656 N   0  0  0  0  0  0  0  0  0  0  0  0
   10.7489  -15.5786   26.0457 C   0  0  0  0  0  0  0  0  0  0  0  0
   10.8675  -16.8927   28.0691 O   0  0  0  0  0  0  0  0  0  0  0  0
   11.7373  -17.7727   27.3977 C   0  0  0  0  0  0  0  0  0  0  0  0
    6.9965  -14.8534   25.8777 C   0  0  0  0  0  0  0  0  0  0  0  0
    6.3459  -13.7384   25.4100 O   0  0  0  0  0  0  0  0  0  0  0  0
  2 12  2  0
  2  1  1  0
  3  2  1  0
  4  5  1  0
  4  3  2  0
  5 11  2  0
  6  5  1  0
  7  6  1  0
  7  8  1  6
  9  7  1  0
  9 10  2  0
 11 12  1  0
 14 13  1  0
 15 14  2  0
 16 14  1  0
 17 16  1  0
 18 17  1  0
 18 19  1  0
 20 19  1  6
 20 21  1  0
 21  9  1  0
 22 20  1  0
 23 22  2  0
 24 25  1  0
 25 26  2  0
 25 35  1  0
 26 27  1  0
 27 28  2  0
 28 29  1  0
 30 29  1  1
 30 31  1  0
 31 22  1  0
 32 33  1  0
 32 30  1  0
 34 28  1  0
 35 34  2  0
 36 32  2  0
M  END
$$$$
