YRY.pdb
     RDKit          3D

 36 37  0  0  1  0  0  0  0  0999 V2000
    4.6884  -11.2300   28.7096 O   0  0  0  0  0  0  0  0  0  0  0  0
    5.5057  -12.1671   28.0465 C   0  0  0  0  0  0  0  0  0  0  0  0
    6.2728  -13.0590   28.7704 C   0  0  0  0  0  0  0  0  0  0  0  0
    7.0615  -13.9635   28.0937 C   0  0  0  0  0  0  0  0  0  0  0  0
    7.1149  -14.0126   26.7136 C   0  0  0  0  0  0  0  0  0  0  0  0
    7.9866  -15.0111   26.0004 C   0  0  0  0  0  0  0  0  0  0  0  0
    7.0508  -15.9870   25.3504 C   0  0  2  0  0  0  0  0  0  0  0  0
    6.7479  -17.0606   26.2748 N   0  0  0  0  0  0  0  0  0  0  0  0
    7.5818  -16.5710   24.0939 C   0  0  0  0  0  0  0  0  0  0  0  0
    8.1019  -17.7186   24.0415 O   0  0  0  0  0  0  0  0  0  0  0  0
    6.3378  -13.1093   26.0235 C   0  0  0  0  0  0  0  0  0  0  0  0
    5.5436  -12.1986   26.6856 C   0  0  0  0  0  0  0  0  0  0  0  0
   10.1946  -13.5559   15.4938 N   0  0  0  0  0  0  0  0  0  0  0  0
    9.3037  -13.5069   16.6181 C   0  0  0  0  0  0  0  0  0  0  0  0
    9.1600  -12.4360   17.3170 N   0  0  0  0  0  0  0  0  0  0  0  0
    8.5459  -14.6489   16.9988 N   0  0  0  0  0  0  0  0  0  0  0  0
    7.7863  -14.6817   18.2093 C   0  0  0  0  0  0  0  0  0  0  0  0
    8.5502  -15.2790   19.3859 C   0  0  0  0  0  0  0  0  0  0  0  0
    7.7322  -15.2570   20.6312 C   0  0  0  0  0  0  0  0  0  0  0  0
    8.3673  -16.0243   21.7608 C   0  0  2  0  0  0  0  0  0  0  0  0
    7.5049  -15.8212   22.9126 N   0  0  0  0  0  0  0  0  0  0  0  0
    9.7651  -15.7261   22.0293 C   0  0  0  0  0  0  0  0  0  0  0  0
   10.2417  -14.5809   21.8179 O   0  0  0  0  0  0  0  0  0  0  0  0
    8.5217  -12.4787   18.1404 O   0  0  0  0  0  0  0  0  0  0  0  0
    9.8050  -16.1771   29.2039 C   0  0  0  0  0  0  0  0  0  0  0  0
   10.2867  -15.9007   27.9360 C   0  0  0  0  0  0  0  0  0  0  0  0
   11.2363  -16.7468   27.3838 C   0  0  0  0  0  0  0  0  0  0  0  0
   11.7195  -16.4812   26.1282 C   0  0  0  0  0  0  0  0  0  0  0  0
   11.3002  -15.4030   25.3852 C   0  0  0  0  0  0  0  0  0  0  0  0
   11.8021  -15.0877   24.0296 C   0  0  1  0  0  0  0  0  0  0  0  0
   11.9599  -16.3043   23.1786 N   0  0  0  0  0  0  0  0  0  0  0  0
   10.6968  -16.6867   22.5449 C   0  0  0  0  0  0  0  0  0  0  0  0
   12.5950  -17.4497   23.8293 O   0  0  0  0  0  0  0  0  0  0  0  0
   13.8789  -17.3593   24.3995 C   0  0  0  0  0  0  0  0  0  0  0  0
   10.3484  -14.5617   25.9484 C   0  0  0  0  0  0  0  0  0  0  0  0
    9.8533  -14.8120   27.2044 O   0  0  0  0  0  0  0  0  0  0  0  0
  2 12  2  0
  2  1  1  0
  3  2  1  0
  4  5  1  0
  4  3  2  0
  5 11  2  0
  6  5  1  0
  7  6  1  0
  7  8  1  1
  9  7  1  0
  9 10  2  0
 11 12  1  0
 14 13  1  0
 15 14  2  0
 16 14  1  0
 17 16  1  0
 18 17  1  0
 18 19  1  0
 20 19  1  6
 20 21  1  0
 21  9  1  0
 22 20  1  0
 23 22  2  0
 24 25  1  0
 25 26  2  0
 25 35  1  0
 26 27  1  0
 27 28  2  0
 28 29  1  0
 30 29  1  6
 30 31  1  0
 31 22  1  0
 32 33  1  0
 32 30  1  0
 34 28  1  0
 35 34  2  0
 36 32  2  0
M  END
$$$$
