YRY.pdb
     RDKit          3D

 36 37  0  0  1  0  0  0  0  0999 V2000
    7.0839  -11.8833   17.1287 O   0  0  0  0  0  0  0  0  0  0  0  0
    7.2494  -12.5851   18.3395 C   0  0  0  0  0  0  0  0  0  0  0  0
    6.2080  -12.6726   19.2428 C   0  0  0  0  0  0  0  0  0  0  0  0
    6.4002  -13.3659   20.4177 C   0  0  0  0  0  0  0  0  0  0  0  0
    7.5992  -13.9789   20.7284 C   0  0  0  0  0  0  0  0  0  0  0  0
    7.7814  -14.7292   22.0204 C   0  0  0  0  0  0  0  0  0  0  0  0
    8.0775  -16.1488   21.6360 C   0  0  2  0  0  0  0  0  0  0  0  0
    6.8992  -16.7485   21.0436 N   0  0  0  0  0  0  0  0  0  0  0  0
    8.5242  -16.9905   22.7734 C   0  0  0  0  0  0  0  0  0  0  0  0
    7.7288  -17.6890   23.4587 O   0  0  0  0  0  0  0  0  0  0  0  0
    8.6158  -13.8717   19.8058 C   0  0  0  0  0  0  0  0  0  0  0  0
    8.4393  -13.1821   18.6261 C   0  0  0  0  0  0  0  0  0  0  0  0
   16.3293  -19.3580   25.2041 N   0  0  0  0  0  0  0  0  0  0  0  0
   15.6019  -20.5487   25.5408 C   0  0  0  0  0  0  0  0  0  0  0  0
   16.0915  -21.4346   26.3354 N   0  0  0  0  0  0  0  0  0  0  0  0
   14.3074  -20.7896   25.0026 N   0  0  0  0  0  0  0  0  0  0  0  0
   13.6745  -19.8643   24.1156 C   0  0  0  0  0  0  0  0  0  0  0  0
   12.3846  -19.2757   24.6763 C   0  0  0  0  0  0  0  0  0  0  0  0
   11.7195  -18.3838   23.6852 C   0  0  0  0  0  0  0  0  0  0  0  0
   10.4423  -17.7802   24.2074 C   0  0  2  0  0  0  0  0  0  0  0  0
    9.8855  -17.0147   23.1048 N   0  0  0  0  0  0  0  0  0  0  0  0
   10.5539  -17.0159   25.4395 C   0  0  0  0  0  0  0  0  0  0  0  0
   11.1464  -15.9062   25.4693 O   0  0  0  0  0  0  0  0  0  0  0  0
   15.5121  -22.2785   26.5336 O   0  0  0  0  0  0  0  0  0  0  0  0
    7.2304  -11.6208   25.6010 C   0  0  0  0  0  0  0  0  0  0  0  0
    7.6526  -12.7341   26.3070 C   0  0  0  0  0  0  0  0  0  0  0  0
    8.8751  -12.6864   26.9595 C   0  0  0  0  0  0  0  0  0  0  0  0
    9.3019  -13.7844   27.6616 C   0  0  0  0  0  0  0  0  0  0  0  0
    8.5644  -14.9415   27.7482 C   0  0  0  0  0  0  0  0  0  0  0  0
    8.9965  -16.1432   28.4955 C   0  0  2  0  0  0  0  0  0  0  0  0
   10.2532  -16.7371   27.9503 N   0  0  0  0  0  0  0  0  0  0  0  0
   10.0123  -17.4499   26.6945 C   0  0  0  0  0  0  0  0  0  0  0  0
   11.0199  -17.5574   28.8873 O   0  0  0  0  0  0  0  0  0  0  0  0
   11.4484  -18.8565   28.5550 C   0  0  0  0  0  0  0  0  0  0  0  0
    7.3410  -14.9783   27.0905 C   0  0  0  0  0  0  0  0  0  0  0  0
    6.8976  -13.8885   26.3827 O   0  0  0  0  0  0  0  0  0  0  0  0
  2 12  2  0
  2  1  1  0
  3  2  1  0
  4  5  1  0
  4  3  2  0
  5 11  2  0
  6  5  1  0
  7  6  1  0
  7  8  1  1
  9  7  1  0
  9 10  2  0
 11 12  1  0
 14 13  1  0
 15 14  2  0
 16 14  1  0
 17 16  1  0
 18 17  1  0
 18 19  1  0
 20 19  1  6
 20 21  1  0
 21  9  1  0
 22 20  1  0
 23 22  2  0
 24 25  1  0
 25 26  2  0
 25 35  1  0
 26 27  1  0
 27 28  2  0
 28 29  1  0
 30 29  1  6
 30 31  1  0
 31 22  1  0
 32 33  1  0
 32 30  1  0
 34 28  1  0
 35 34  2  0
 36 32  2  0
M  END
$$$$
