YRY.pdb
     RDKit          3D

 36 37  0  0  1  0  0  0  0  0999 V2000
    6.2344  -11.3994   17.7898 O   0  0  0  0  0  0  0  0  0  0  0  0
    6.6957  -12.3507   18.7216 C   0  0  0  0  0  0  0  0  0  0  0  0
    5.9027  -13.4267   19.0704 C   0  0  0  0  0  0  0  0  0  0  0  0
    6.3815  -14.3400   19.9839 C   0  0  0  0  0  0  0  0  0  0  0  0
    7.6288  -14.2206   20.5668 C   0  0  0  0  0  0  0  0  0  0  0  0
    8.1261  -15.2334   21.5630 C   0  0  0  0  0  0  0  0  0  0  0  0
    8.8375  -16.2848   20.7636 C   0  0  2  0  0  0  0  0  0  0  0  0
    7.9096  -16.9048   19.8397 N   0  0  0  0  0  0  0  0  0  0  0  0
    9.4632  -17.3412   21.5967 C   0  0  0  0  0  0  0  0  0  0  0  0
    9.0126  -18.5174   21.6586 O   0  0  0  0  0  0  0  0  0  0  0  0
    8.3926  -13.1362   20.1966 C   0  0  0  0  0  0  0  0  0  0  0  0
    7.9282  -12.2141   19.2843 C   0  0  0  0  0  0  0  0  0  0  0  0
   14.9526  -20.1671   18.9252 N   0  0  0  0  0  0  0  0  0  0  0  0
   15.2751  -21.1621   19.9082 C   0  0  0  0  0  0  0  0  0  0  0  0
   16.4020  -21.7832   19.8928 N   0  0  0  0  0  0  0  0  0  0  0  0
   14.3525  -21.4960   20.9382 N   0  0  0  0  0  0  0  0  0  0  0  0
   13.0158  -20.9897   20.9475 C   0  0  0  0  0  0  0  0  0  0  0  0
   12.7261  -20.0704   22.1289 C   0  0  0  0  0  0  0  0  0  0  0  0
   11.8271  -18.9490   21.7361 C   0  0  0  0  0  0  0  0  0  0  0  0
   11.5299  -18.0116   22.8768 C   0  0  2  0  0  0  0  0  0  0  0  0
   10.6028  -17.0252   22.3485 N   0  0  0  0  0  0  0  0  0  0  0  0
   12.6840  -17.4210   23.5356 C   0  0  0  0  0  0  0  0  0  0  0  0
   13.8034  -17.9958   23.5335 O   0  0  0  0  0  0  0  0  0  0  0  0
   16.5848  -22.4710   20.6550 O   0  0  0  0  0  0  0  0  0  0  0  0
   10.4286  -15.2087   31.6540 C   0  0  0  0  0  0  0  0  0  0  0  0
   10.5889  -15.3401   30.2854 C   0  0  0  0  0  0  0  0  0  0  0  0
   10.6178  -16.6128   29.7360 C   0  0  0  0  0  0  0  0  0  0  0  0
   10.7762  -16.7530   28.3810 C   0  0  0  0  0  0  0  0  0  0  0  0
   10.9087  -15.6775   27.5349 C   0  0  0  0  0  0  0  0  0  0  0  0
   11.0823  -15.7945   26.0702 C   0  0  2  0  0  0  0  0  0  0  0  0
   12.4979  -16.0644   25.6797 N   0  0  0  0  0  0  0  0  0  0  0  0
   12.6468  -16.1650   24.2268 C   0  0  0  0  0  0  0  0  0  0  0  0
   13.1336  -17.1936   26.3576 O   0  0  0  0  0  0  0  0  0  0  0  0
   12.7663  -18.5244   26.0826 C   0  0  0  0  0  0  0  0  0  0  0  0
   10.8783  -14.4068   28.0961 C   0  0  0  0  0  0  0  0  0  0  0  0
   10.7206  -14.2472   29.4507 O   0  0  0  0  0  0  0  0  0  0  0  0
  2 12  2  0
  2  1  1  0
  3  2  1  0
  4  5  1  0
  4  3  2  0
  5 11  2  0
  6  5  1  0
  7  6  1  0
  7  8  1  6
  9  7  1  0
  9 10  2  0
 11 12  1  0
 14 13  1  0
 15 14  2  0
 16 14  1  0
 17 16  1  0
 18 17  1  0
 18 19  1  0
 20 19  1  6
 20 21  1  0
 21  9  1  0
 22 20  1  0
 23 22  2  0
 24 25  1  0
 25 26  2  0
 25 35  1  0
 26 27  1  0
 27 28  2  0
 28 29  1  0
 30 29  1  6
 30 31  1  0
 31 22  1  0
 32 33  1  0
 32 30  1  0
 34 28  1  0
 35 34  2  0
 36 32  2  0
M  END
$$$$
