YRY.pdb
     RDKit          3D

 36 37  0  0  1  0  0  0  0  0999 V2000
   10.5159  -24.4806   19.4487 O   0  0  0  0  0  0  0  0  0  0  0  0
   10.6308  -23.2778   20.1739 C   0  0  0  0  0  0  0  0  0  0  0  0
    9.6490  -22.3106   20.0803 C   0  0  0  0  0  0  0  0  0  0  0  0
    9.7894  -21.1453   20.8016 C   0  0  0  0  0  0  0  0  0  0  0  0
   10.8786  -20.9059   21.6178 C   0  0  0  0  0  0  0  0  0  0  0  0
   11.0065  -19.6227   22.3940 C   0  0  0  0  0  0  0  0  0  0  0  0
   11.2309  -18.5441   21.3757 C   0  0  2  0  0  0  0  0  0  0  0  0
   12.4794  -18.7830   20.6808 N   0  0  0  0  0  0  0  0  0  0  0  0
   11.2574  -17.1781   21.9545 C   0  0  0  0  0  0  0  0  0  0  0  0
   12.3078  -16.6516   22.4124 O   0  0  0  0  0  0  0  0  0  0  0  0
   11.8383  -21.8910   21.6875 C   0  0  0  0  0  0  0  0  0  0  0  0
   11.7125  -23.0620   20.9725 C   0  0  0  0  0  0  0  0  0  0  0  0
    7.6147  -14.3221   15.5614 N   0  0  0  0  0  0  0  0  0  0  0  0
    7.6032  -13.8149   16.9041 C   0  0  0  0  0  0  0  0  0  0  0  0
    6.9621  -12.7429   17.2133 N   0  0  0  0  0  0  0  0  0  0  0  0
    8.3055  -14.4859   17.9434 N   0  0  0  0  0  0  0  0  0  0  0  0
    8.3182  -13.9941   19.2856 C   0  0  0  0  0  0  0  0  0  0  0  0
    9.1320  -14.8617   20.2392 C   0  0  0  0  0  0  0  0  0  0  0  0
    9.1160  -14.3093   21.6229 C   0  0  0  0  0  0  0  0  0  0  0  0
    9.9556  -15.1116   22.5819 C   0  0  2  0  0  0  0  0  0  0  0  0
   10.0690  -16.4369   21.9970 N   0  0  0  0  0  0  0  0  0  0  0  0
    9.5049  -15.1298   23.9645 C   0  0  0  0  0  0  0  0  0  0  0  0
    8.8145  -14.1913   24.4397 O   0  0  0  0  0  0  0  0  0  0  0  0
    7.0594  -12.3863   18.1883 O   0  0  0  0  0  0  0  0  0  0  0  0
    6.8589  -10.3360   27.1084 C   0  0  0  0  0  0  0  0  0  0  0  0
    7.1133  -11.6862   26.9404 C   0  0  0  0  0  0  0  0  0  0  0  0
    8.3846  -12.1652   27.2175 C   0  0  0  0  0  0  0  0  0  0  0  0
    8.6463  -13.5015   27.0541 C   0  0  0  0  0  0  0  0  0  0  0  0
    7.6949  -14.3960   26.6238 C   0  0  0  0  0  0  0  0  0  0  0  0
    7.9449  -15.8421   26.4360 C   0  0  2  0  0  0  0  0  0  0  0  0
    9.3964  -16.1594   26.2884 N   0  0  0  0  0  0  0  0  0  0  0  0
    9.8010  -16.1917   24.8818 C   0  0  0  0  0  0  0  0  0  0  0  0
    9.8558  -17.3515   27.0000 O   0  0  0  0  0  0  0  0  0  0  0  0
    9.6432  -17.5169   28.3817 C   0  0  0  0  0  0  0  0  0  0  0  0
    6.4244  -13.9050   26.3491 C   0  0  0  0  0  0  0  0  0  0  0  0
    6.1443  -12.5701   26.5068 O   0  0  0  0  0  0  0  0  0  0  0  0
  2 12  2  0
  2  1  1  0
  3  2  1  0
  4  5  1  0
  4  3  2  0
  5 11  2  0
  6  5  1  0
  7  6  1  0
  7  8  1  1
  9  7  1  0
  9 10  2  0
 11 12  1  0
 14 13  1  0
 15 14  2  0
 16 14  1  0
 17 16  1  0
 18 17  1  0
 18 19  1  0
 20 19  1  6
 20 21  1  0
 21  9  1  0
 22 20  1  0
 23 22  2  0
 24 25  1  0
 25 26  2  0
 25 35  1  0
 26 27  1  0
 27 28  2  0
 28 29  1  0
 30 29  1  1
 30 31  1  0
 31 22  1  0
 32 33  1  0
 32 30  1  0
 34 28  1  0
 35 34  2  0
 36 32  2  0
M  END
$$$$
