YRY.pdb
     RDKit          3D

 36 37  0  0  1  0  0  0  0  0999 V2000
    7.1846  -11.9332   16.8090 O   0  0  0  0  0  0  0  0  0  0  0  0
    7.3494  -12.6502   18.0110 C   0  0  0  0  0  0  0  0  0  0  0  0
    6.3081  -13.3979   18.5254 C   0  0  0  0  0  0  0  0  0  0  0  0
    6.4998  -14.0881   19.7022 C   0  0  0  0  0  0  0  0  0  0  0  0
    7.6981  -14.0609   20.3901 C   0  0  0  0  0  0  0  0  0  0  0  0
    7.8792  -14.8243   21.6746 C   0  0  0  0  0  0  0  0  0  0  0  0
    8.6380  -16.0670   21.3135 C   0  0  2  0  0  0  0  0  0  0  0  0
    7.8571  -16.8626   20.3883 N   0  0  0  0  0  0  0  0  0  0  0  0
    8.9952  -16.9053   22.4846 C   0  0  0  0  0  0  0  0  0  0  0  0
    8.6421  -18.1111   22.5934 O   0  0  0  0  0  0  0  0  0  0  0  0
    8.7146  -13.3056   19.8493 C   0  0  0  0  0  0  0  0  0  0  0  0
    8.5387  -12.6097   18.6732 C   0  0  0  0  0  0  0  0  0  0  0  0
   15.1067  -15.4235   23.1772 N   0  0  0  0  0  0  0  0  0  0  0  0
   14.9166  -15.4874   21.7559 C   0  0  0  0  0  0  0  0  0  0  0  0
   15.2275  -14.5011   20.9901 N   0  0  0  0  0  0  0  0  0  0  0  0
   14.3743  -16.6515   21.1441 N   0  0  0  0  0  0  0  0  0  0  0  0
   13.4998  -17.5365   21.8478 C   0  0  0  0  0  0  0  0  0  0  0  0
   12.5142  -16.8137   22.7593 C   0  0  0  0  0  0  0  0  0  0  0  0
   11.6296  -17.7764   23.4739 C   0  0  0  0  0  0  0  0  0  0  0  0
   10.6417  -17.0965   24.3849 C   0  0  2  0  0  0  0  0  0  0  0  0
    9.7564  -16.3396   23.5161 N   0  0  0  0  0  0  0  0  0  0  0  0
   11.2088  -16.3008   25.4620 C   0  0  0  0  0  0  0  0  0  0  0  0
   11.5241  -15.0951   25.2882 O   0  0  0  0  0  0  0  0  0  0  0  0
   15.0535  -14.6100   19.9678 O   0  0  0  0  0  0  0  0  0  0  0  0
    6.6030  -11.8034   26.0936 C   0  0  0  0  0  0  0  0  0  0  0  0
    7.2358  -12.9678   26.4933 C   0  0  0  0  0  0  0  0  0  0  0  0
    8.3839  -12.8723   27.2647 C   0  0  0  0  0  0  0  0  0  0  0  0
    9.0179  -14.0204   27.6656 C   0  0  0  0  0  0  0  0  0  0  0  0
    8.5612  -15.2740   27.3336 C   0  0  0  0  0  0  0  0  0  0  0  0
    9.2219  -16.5312   27.7484 C   0  0  2  0  0  0  0  0  0  0  0  0
   10.6919  -16.3670   27.9522 N   0  0  0  0  0  0  0  0  0  0  0  0
   11.4514  -16.8086   26.7811 C   0  0  0  0  0  0  0  0  0  0  0  0
   11.2260  -16.9509   29.1819 O   0  0  0  0  0  0  0  0  0  0  0  0
   11.3880  -16.1885   30.3542 C   0  0  0  0  0  0  0  0  0  0  0  0
    7.4099  -15.3580   26.5602 C   0  0  0  0  0  0  0  0  0  0  0  0
    6.7619  -14.2191   26.1497 O   0  0  0  0  0  0  0  0  0  0  0  0
  2 12  2  0
  2  1  1  0
  3  2  1  0
  4  5  1  0
  4  3  2  0
  5 11  2  0
  6  5  1  0
  7  6  1  0
  7  8  1  6
  9  7  1  0
  9 10  2  0
 11 12  1  0
 14 13  1  0
 15 14  2  0
 16 14  1  0
 17 16  1  0
 18 17  1  0
 18 19  1  0
 20 19  1  6
 20 21  1  0
 21  9  1  0
 22 20  1  0
 23 22  2  0
 24 25  1  0
 25 26  2  0
 25 35  1  0
 26 27  1  0
 27 28  2  0
 28 29  1  0
 30 29  1  6
 30 31  1  0
 31 22  1  0
 32 33  1  0
 32 30  1  0
 34 28  1  0
 35 34  2  0
 36 32  2  0
M  END
$$$$
