YRY.pdb
     RDKit          3D

 36 37  0  0  1  0  0  0  0  0999 V2000
    5.9249  -11.7437   17.6732 O   0  0  0  0  0  0  0  0  0  0  0  0
    6.6160  -12.5727   18.5793 C   0  0  0  0  0  0  0  0  0  0  0  0
    5.9217  -13.3124   19.5168 C   0  0  0  0  0  0  0  0  0  0  0  0
    6.6253  -14.1138   20.3889 C   0  0  0  0  0  0  0  0  0  0  0  0
    8.0040  -14.2063   20.3617 C   0  0  0  0  0  0  0  0  0  0  0  0
    8.7470  -15.0897   21.3276 C   0  0  0  0  0  0  0  0  0  0  0  0
    8.9924  -16.3801   20.6029 C   0  0  2  0  0  0  0  0  0  0  0  0
    7.7338  -17.0644   20.3876 N   0  0  0  0  0  0  0  0  0  0  0  0
    9.9196  -17.2936   21.3155 C   0  0  0  0  0  0  0  0  0  0  0  0
    9.5463  -18.0479   22.2546 O   0  0  0  0  0  0  0  0  0  0  0  0
    8.6642  -13.4556   19.4148 C   0  0  0  0  0  0  0  0  0  0  0  0
    7.9749  -12.6493   18.5354 C   0  0  0  0  0  0  0  0  0  0  0  0
   17.8294  -18.6063   18.2128 N   0  0  0  0  0  0  0  0  0  0  0  0
   17.7791  -19.1758   19.5294 C   0  0  0  0  0  0  0  0  0  0  0  0
   18.8098  -19.7327   20.0618 N   0  0  0  0  0  0  0  0  0  0  0  0
   16.5794  -19.1431   20.2930 N   0  0  0  0  0  0  0  0  0  0  0  0
   16.0718  -17.9283   20.8498 C   0  0  0  0  0  0  0  0  0  0  0  0
   14.8174  -18.1280   21.6932 C   0  0  0  0  0  0  0  0  0  0  0  0
   13.5901  -17.7486   20.9383 C   0  0  0  0  0  0  0  0  0  0  0  0
   12.3442  -17.8058   21.7825 C   0  0  2  0  0  0  0  0  0  0  0  0
   11.2674  -17.3241   20.9337 N   0  0  0  0  0  0  0  0  0  0  0  0
   12.4111  -17.1273   23.0670 C   0  0  0  0  0  0  0  0  0  0  0  0
   12.5502  -15.8788   23.1407 O   0  0  0  0  0  0  0  0  0  0  0  0
   18.6957  -20.1548   21.0084 O   0  0  0  0  0  0  0  0  0  0  0  0
    9.3415  -13.7948   30.3313 C   0  0  0  0  0  0  0  0  0  0  0  0
    9.6815  -14.4179   29.1429 C   0  0  0  0  0  0  0  0  0  0  0  0
    9.4955  -15.7873   29.0306 C   0  0  0  0  0  0  0  0  0  0  0  0
    9.8295  -16.4136   27.8571 C   0  0  0  0  0  0  0  0  0  0  0  0
   10.3454  -15.7376   26.7767 C   0  0  0  0  0  0  0  0  0  0  0  0
   10.7170  -16.3831   25.4983 C   0  0  1  0  0  0  0  0  0  0  0  0
   12.0168  -17.1131   25.5803 N   0  0  0  0  0  0  0  0  0  0  0  0
   12.3266  -17.8051   24.3280 C   0  0  0  0  0  0  0  0  0  0  0  0
   12.1669  -18.0042   26.7300 O   0  0  0  0  0  0  0  0  0  0  0  0
   12.8330  -17.5963   27.9011 C   0  0  0  0  0  0  0  0  0  0  0  0
   10.5276  -14.3657   26.9004 C   0  0  0  0  0  0  0  0  0  0  0  0
   10.1989  -13.7217   28.0678 O   0  0  0  0  0  0  0  0  0  0  0  0
  2 12  2  0
  2  1  1  0
  3  2  1  0
  4  5  1  0
  4  3  2  0
  5 11  2  0
  6  5  1  0
  7  6  1  0
  7  8  1  1
  9  7  1  0
  9 10  2  0
 11 12  1  0
 14 13  1  0
 15 14  2  0
 16 14  1  0
 17 16  1  0
 18 17  1  0
 18 19  1  0
 20 19  1  6
 20 21  1  0
 21  9  1  0
 22 20  1  0
 23 22  2  0
 24 25  1  0
 25 26  2  0
 25 35  1  0
 26 27  1  0
 27 28  2  0
 28 29  1  0
 30 29  1  6
 30 31  1  0
 31 22  1  0
 32 33  1  0
 32 30  1  0
 34 28  1  0
 35 34  2  0
 36 32  2  0
M  END
$$$$
