WTI.pdb
     RDKit          3D

 30 31  0  0  1  0  0  0  0  0999 V2000
   24.8466  -20.8463  -15.2207 N   0  0  0  0  0  0  0  0  0  0  0  0
   25.5500  -21.4717  -14.1346 C   0  0  1  0  0  0  0  0  0  0  0  0
   26.8864  -22.0397  -14.5522 C   0  0  0  0  0  0  0  0  0  0  0  0
   26.8430  -23.0026  -15.6403 C   0  0  0  0  0  0  0  0  0  0  0  0
   27.5313  -22.9350  -16.8228 C   0  0  0  0  0  0  0  0  0  0  0  0
   27.2160  -23.9911  -17.5748 N   0  0  0  0  0  0  0  0  0  0  0  0
   26.3371  -24.7606  -16.9260 C   0  0  0  0  0  0  0  0  0  0  0  0
   25.7225  -25.9609  -17.2961 C   0  0  0  0  0  0  0  0  0  0  0  0
   24.8489  -26.5467  -16.4106 C   0  0  0  0  0  0  0  0  0  0  0  0
   24.5790  -25.9787  -15.1929 C   0  0  0  0  0  0  0  0  0  0  0  0
   25.2039  -24.7911  -14.8585 C   0  0  0  0  0  0  0  0  0  0  0  0
   26.0964  -24.1515  -15.7130 C   0  0  0  0  0  0  0  0  0  0  0  0
   25.6955  -20.6003  -12.9633 C   0  0  0  0  0  0  0  0  0  0  0  0
   25.6826  -19.3389  -13.1521 O   0  0  0  0  0  0  0  0  0  0  0  0
   23.6399  -19.3748  -11.8161 C   0  0  0  0  0  0  0  0  0  0  0  0
   24.0591  -19.8347  -10.4326 C   0  0  1  0  0  0  0  0  0  0  0  0
   23.3499  -21.0008  -10.1545 O   0  0  0  0  0  0  0  0  0  0  0  0
   25.5424  -20.1854  -10.4737 C   0  0  2  0  0  0  0  0  0  0  0  0
   25.8480  -21.0133  -11.6173 N   0  0  0  0  0  0  0  0  0  0  0  0
   25.9901  -20.7789   -9.2011 C   0  0  0  0  0  0  0  0  0  0  0  0
   25.9303  -22.0557   -9.1069 O   0  0  0  0  0  0  0  0  0  0  0  0
   28.6769  -18.0976   -4.8526 C   0  0  0  0  0  0  0  0  0  0  0  0
   27.5963  -18.8527   -5.5422 C   0  0  0  0  0  0  0  0  0  0  0  0
   28.0246  -20.1062   -6.2272 C   0  0  2  0  0  0  0  0  0  0  0  0
   29.1625  -19.9281   -7.1751 C   0  0  0  0  0  0  0  0  0  0  0  0
   26.8439  -20.8102   -6.8329 C   0  0  2  0  0  0  0  0  0  0  0  0
   26.4796  -20.1132   -8.0705 N   0  0  0  0  0  0  0  0  0  0  0  0
   25.7277  -21.0190   -5.9140 C   0  0  0  0  0  0  0  0  0  0  0  0
   25.7797  -21.7932   -4.7677 O   0  0  0  0  0  0  0  0  0  0  0  0
   24.6134  -20.4700   -6.1444 O   0  0  0  0  0  0  0  0  0  0  0  0
  2  1  1  6
  2 13  1  0
  3  2  1  0
  3  4  1  0
  4  5  2  0
  4 12  1  0
  5  6  1  0
  6  7  1  0
  7  8  2  0
  9  8  1  0
 10  9  2  0
 11 12  2  0
 11 10  1  0
 12  7  1  0
 13 14  2  0
 16 15  1  6
 16 18  1  0
 17 16  1  0
 19 13  1  0
 18 19  1  6
 20 18  1  0
 20 21  2  0
 22 23  1  0
 23 24  1  0
 24 25  1  6
 24 26  1  0
 26 28  1  0
 26 27  1  6
 27 20  1  0
 28 30  2  0
 28 29  1  0
M  END
$$$$
