WTI.pdb
     RDKit          3D

 30 31  0  0  1  0  0  0  0  0999 V2000
   24.5298  -20.8466  -14.8445 N   0  0  0  0  0  0  0  0  0  0  0  0
   24.2821  -21.0044  -13.4376 C   0  0  1  0  0  0  0  0  0  0  0  0
   23.1375  -21.9467  -13.1465 C   0  0  0  0  0  0  0  0  0  0  0  0
   21.8336  -21.3200  -13.0046 C   0  0  0  0  0  0  0  0  0  0  0  0
   20.8297  -21.2961  -13.9363 C   0  0  0  0  0  0  0  0  0  0  0  0
   19.7950  -20.6092  -13.4487 N   0  0  0  0  0  0  0  0  0  0  0  0
   20.0815  -20.1752  -12.2178 C   0  0  0  0  0  0  0  0  0  0  0  0
   19.3240  -19.4270  -11.3111 C   0  0  0  0  0  0  0  0  0  0  0  0
   19.8793  -19.1252  -10.0900 C   0  0  0  0  0  0  0  0  0  0  0  0
   21.1422  -19.5413   -9.7578 C   0  0  0  0  0  0  0  0  0  0  0  0
   21.8642  -20.2794  -10.6780 C   0  0  0  0  0  0  0  0  0  0  0  0
   21.3557  -20.6148  -11.9289 C   0  0  0  0  0  0  0  0  0  0  0  0
   25.4791  -21.3865  -12.6802 C   0  0  0  0  0  0  0  0  0  0  0  0
   26.4487  -21.9122  -13.3208 O   0  0  0  0  0  0  0  0  0  0  0  0
   27.9446  -20.5830  -12.8235 C   0  0  0  0  0  0  0  0  0  0  0  0
   27.9324  -20.2648  -11.3403 C   0  0  1  0  0  0  0  0  0  0  0  0
   27.4132  -18.9799  -11.1998 O   0  0  0  0  0  0  0  0  0  0  0  0
   26.9794  -21.2347  -10.6505 C   0  0  2  0  0  0  0  0  0  0  0  0
   25.6830  -21.2293  -11.2876 N   0  0  0  0  0  0  0  0  0  0  0  0
   26.9062  -20.9772   -9.2011 C   0  0  0  0  0  0  0  0  0  0  0  0
   25.7483  -20.7126   -8.7195 O   0  0  0  0  0  0  0  0  0  0  0  0
   30.0277  -21.0575   -3.8086 C   0  0  0  0  0  0  0  0  0  0  0  0
   28.8421  -20.7553   -4.6551 C   0  0  0  0  0  0  0  0  0  0  0  0
   29.0153  -21.0032   -6.1154 C   0  0  2  0  0  0  0  0  0  0  0  0
   30.2772  -20.4485   -6.6855 C   0  0  0  0  0  0  0  0  0  0  0  0
   27.7842  -20.5943   -6.8729 C   0  0  2  0  0  0  0  0  0  0  0  0
   27.9564  -20.9878   -8.2749 N   0  0  0  0  0  0  0  0  0  0  0  0
   27.3960  -19.1983   -6.6874 C   0  0  0  0  0  0  0  0  0  0  0  0
   27.5392  -18.2032   -7.6389 O   0  0  0  0  0  0  0  0  0  0  0  0
   26.8869  -18.8282   -5.5919 O   0  0  0  0  0  0  0  0  0  0  0  0
  2  1  1  6
  2 13  1  0
  3  2  1  0
  3  4  1  0
  4  5  2  0
  4 12  1  0
  5  6  1  0
  6  7  1  0
  7  8  2  0
  9  8  1  0
 10  9  2  0
 11 12  2  0
 11 10  1  0
 12  7  1  0
 13 14  2  0
 16 15  1  6
 16 18  1  0
 17 16  1  0
 19 13  1  0
 18 19  1  6
 20 18  1  0
 20 21  2  0
 22 23  1  0
 23 24  1  0
 24 25  1  6
 24 26  1  0
 26 28  1  0
 26 27  1  6
 27 20  1  0
 28 30  2  0
 28 29  1  0
M  END
$$$$
