WTI.pdb
     RDKit          3D

 30 31  0  0  1  0  0  0  0  0999 V2000
   28.7212  -21.1295  -11.1518 N   0  0  0  0  0  0  0  0  0  0  0  0
   27.3862  -21.1990  -10.6240 C   0  0  1  0  0  0  0  0  0  0  0  0
   27.2155  -20.3965   -9.3552 C   0  0  0  0  0  0  0  0  0  0  0  0
   28.2591  -20.5742   -8.3590 C   0  0  0  0  0  0  0  0  0  0  0  0
   29.3976  -21.3247   -8.4893 C   0  0  0  0  0  0  0  0  0  0  0  0
   30.0989  -21.2582   -7.3561 N   0  0  0  0  0  0  0  0  0  0  0  0
   29.4593  -20.4838   -6.4747 C   0  0  0  0  0  0  0  0  0  0  0  0
   29.7950  -20.1127   -5.1688 C   0  0  0  0  0  0  0  0  0  0  0  0
   28.9370  -19.2839   -4.4852 C   0  0  0  0  0  0  0  0  0  0  0  0
   27.7791  -18.8261   -5.0579 C   0  0  0  0  0  0  0  0  0  0  0  0
   27.4773  -19.2126   -6.3511 C   0  0  0  0  0  0  0  0  0  0  0  0
   28.3059  -20.0495   -7.0920 C   0  0  0  0  0  0  0  0  0  0  0  0
   26.3572  -20.8456  -11.6083 C   0  0  0  0  0  0  0  0  0  0  0  0
   26.5475  -19.8077  -12.3248 O   0  0  0  0  0  0  0  0  0  0  0  0
   25.5614  -22.4898  -14.5351 C   0  0  0  0  0  0  0  0  0  0  0  0
   24.1669  -22.3078  -13.9665 C   0  0  1  0  0  0  0  0  0  0  0  0
   23.8234  -23.4988  -13.3309 O   0  0  0  0  0  0  0  0  0  0  0  0
   24.2203  -21.2098  -12.9099 C   0  0  2  0  0  0  0  0  0  0  0  0
   25.1524  -21.5463  -11.8589 N   0  0  0  0  0  0  0  0  0  0  0  0
   22.8752  -20.8877  -12.4008 C   0  0  0  0  0  0  0  0  0  0  0  0
   22.8038  -20.4375  -11.2029 O   0  0  0  0  0  0  0  0  0  0  0  0
   19.7494  -16.4781  -12.8144 C   0  0  0  0  0  0  0  0  0  0  0  0
   19.6282  -17.9269  -12.4986 C   0  0  0  0  0  0  0  0  0  0  0  0
   20.7591  -18.7821  -12.9608 C   0  0  2  0  0  0  0  0  0  0  0  0
   21.2126  -18.4981  -14.3532 C   0  0  0  0  0  0  0  0  0  0  0  0
   20.4638  -20.2335  -12.7104 C   0  0  2  0  0  0  0  0  0  0  0  0
   21.6524  -21.0125  -13.0718 N   0  0  0  0  0  0  0  0  0  0  0  0
   19.2266  -20.7131  -13.3214 C   0  0  0  0  0  0  0  0  0  0  0  0
   17.9775  -20.6606  -12.7271 O   0  0  0  0  0  0  0  0  0  0  0  0
   19.2529  -21.2204  -14.4782 O   0  0  0  0  0  0  0  0  0  0  0  0
  2  1  1  6
  2 13  1  0
  3  2  1  0
  3  4  1  0
  4  5  2  0
  4 12  1  0
  5  6  1  0
  6  7  1  0
  7  8  2  0
  9  8  1  0
 10  9  2  0
 11 12  2  0
 11 10  1  0
 12  7  1  0
 13 14  2  0
 16 15  1  1
 16 18  1  0
 17 16  1  0
 19 13  1  0
 18 19  1  1
 20 18  1  0
 20 21  2  0
 22 23  1  0
 23 24  1  0
 24 25  1  6
 24 26  1  0
 26 28  1  0
 26 27  1  6
 27 20  1  0
 28 30  2  0
 28 29  1  0
M  END
$$$$
