WTI.pdb
     RDKit          3D

 30 31  0  0  1  0  0  0  0  0999 V2000
   24.7607  -20.9745  -14.6257 N   0  0  0  0  0  0  0  0  0  0  0  0
   24.4390  -21.0998  -13.2305 C   0  0  1  0  0  0  0  0  0  0  0  0
   23.1441  -21.8411  -12.9923 C   0  0  0  0  0  0  0  0  0  0  0  0
   21.9328  -21.0879  -13.2726 C   0  0  0  0  0  0  0  0  0  0  0  0
   21.2953  -20.9803  -14.4803 C   0  0  0  0  0  0  0  0  0  0  0  0
   20.2303  -20.1881  -14.3451 N   0  0  0  0  0  0  0  0  0  0  0  0
   20.1403  -19.7652  -13.0807 C   0  0  0  0  0  0  0  0  0  0  0  0
   19.2051  -18.9327  -12.4578 C   0  0  0  0  0  0  0  0  0  0  0  0
   19.3582  -18.6677  -11.1174 C   0  0  0  0  0  0  0  0  0  0  0  0
   20.3967  -19.1999  -10.3987 C   0  0  0  0  0  0  0  0  0  0  0  0
   21.3039  -20.0192  -11.0457 C   0  0  0  0  0  0  0  0  0  0  0  0
   21.2013  -20.3227  -12.3996 C   0  0  0  0  0  0  0  0  0  0  0  0
   25.5276  -21.6812  -12.4372 C   0  0  0  0  0  0  0  0  0  0  0  0
   26.3703  -22.4281  -13.0364 O   0  0  0  0  0  0  0  0  0  0  0  0
   27.9358  -20.7498  -12.6446 C   0  0  0  0  0  0  0  0  0  0  0  0
   27.9508  -20.4249  -11.1629 C   0  0  1  0  0  0  0  0  0  0  0  0
   27.3788  -19.1637  -11.0128 O   0  0  0  0  0  0  0  0  0  0  0  0
   27.0619  -21.4328  -10.4427 C   0  0  2  0  0  0  0  0  0  0  0  0
   25.7534  -21.4980  -11.0512 N   0  0  0  0  0  0  0  0  0  0  0  0
   27.0072  -21.1634   -8.9947 C   0  0  0  0  0  0  0  0  0  0  0  0
   25.8578  -20.8813   -8.5030 O   0  0  0  0  0  0  0  0  0  0  0  0
   30.2141  -21.2325   -3.6490 C   0  0  0  0  0  0  0  0  0  0  0  0
   29.0106  -20.9425   -4.4743 C   0  0  0  0  0  0  0  0  0  0  0  0
   29.1619  -21.1842   -5.9381 C   0  0  2  0  0  0  0  0  0  0  0  0
   30.3997  -20.5997   -6.5307 C   0  0  0  0  0  0  0  0  0  0  0  0
   27.9077  -20.8026   -6.6715 C   0  0  2  0  0  0  0  0  0  0  0  0
   28.0671  -21.1792   -8.0796 N   0  0  0  0  0  0  0  0  0  0  0  0
   27.4847  -19.4194   -6.4670 C   0  0  0  0  0  0  0  0  0  0  0  0
   26.7755  -18.9619   -5.3699 O   0  0  0  0  0  0  0  0  0  0  0  0
   27.7668  -18.5421   -7.3314 O   0  0  0  0  0  0  0  0  0  0  0  0
  2  1  1  6
  2 13  1  0
  3  2  1  0
  3  4  1  0
  4  5  2  0
  4 12  1  0
  5  6  1  0
  6  7  1  0
  7  8  2  0
  9  8  1  0
 10  9  2  0
 11 12  2  0
 11 10  1  0
 12  7  1  0
 13 14  2  0
 16 15  1  6
 16 18  1  0
 17 16  1  0
 19 13  1  0
 18 19  1  6
 20 18  1  0
 20 21  2  0
 22 23  1  0
 23 24  1  0
 24 25  1  6
 24 26  1  0
 26 28  1  0
 26 27  1  6
 27 20  1  0
 28 30  2  0
 28 29  1  0
M  END
$$$$
