WTI.pdb
     RDKit          3D

 30 31  0  0  1  0  0  0  0  0999 V2000
   23.1523  -19.5465  -14.7210 N   0  0  0  0  0  0  0  0  0  0  0  0
   24.2935  -19.2576  -13.8965 C   0  0  1  0  0  0  0  0  0  0  0  0
   24.6199  -17.7832  -13.8441 C   0  0  0  0  0  0  0  0  0  0  0  0
   25.3779  -17.2712  -14.9739 C   0  0  0  0  0  0  0  0  0  0  0  0
   24.9471  -16.3661  -15.9076 C   0  0  0  0  0  0  0  0  0  0  0  0
   25.9180  -16.1597  -16.7991 N   0  0  0  0  0  0  0  0  0  0  0  0
   26.9840  -16.9018  -16.4850 C   0  0  0  0  0  0  0  0  0  0  0  0
   28.2310  -17.0225  -17.1062 C   0  0  0  0  0  0  0  0  0  0  0  0
   29.1577  -17.8722  -16.5495 C   0  0  0  0  0  0  0  0  0  0  0  0
   28.8785  -18.5882  -15.4148 C   0  0  0  0  0  0  0  0  0  0  0  0
   27.6353  -18.4454  -14.8259 C   0  0  0  0  0  0  0  0  0  0  0  0
   26.6573  -17.6019  -15.3433 C   0  0  0  0  0  0  0  0  0  0  0  0
   24.1852  -19.8172  -12.5446 C   0  0  0  0  0  0  0  0  0  0  0  0
   23.2053  -20.5952  -12.2969 O   0  0  0  0  0  0  0  0  0  0  0  0
   24.6929  -22.2853  -12.0388 C   0  0  0  0  0  0  0  0  0  0  0  0
   25.7279  -21.8992  -10.9991 C   0  0  1  0  0  0  0  0  0  0  0  0
   26.9420  -21.7462  -11.6646 O   0  0  0  0  0  0  0  0  0  0  0  0
   25.3383  -20.5456  -10.4154 C   0  0  2  0  0  0  0  0  0  0  0  0
   25.0693  -19.5874  -11.4624 N   0  0  0  0  0  0  0  0  0  0  0  0
   26.3417  -20.0687   -9.4468 C   0  0  0  0  0  0  0  0  0  0  0  0
   27.2141  -19.2366   -9.8817 O   0  0  0  0  0  0  0  0  0  0  0  0
   27.9150  -19.4100   -3.5011 C   0  0  0  0  0  0  0  0  0  0  0  0
   28.1312  -19.2607   -4.9656 C   0  0  0  0  0  0  0  0  0  0  0  0
   27.0998  -19.8961   -5.8354 C   0  0  2  0  0  0  0  0  0  0  0  0
   26.5695  -21.1886   -5.3128 C   0  0  0  0  0  0  0  0  0  0  0  0
   27.5797  -19.9753   -7.2566 C   0  0  2  0  0  0  0  0  0  0  0  0
   26.4599  -20.4149   -8.0950 N   0  0  0  0  0  0  0  0  0  0  0  0
   28.8036  -20.7517   -7.4391 C   0  0  0  0  0  0  0  0  0  0  0  0
   30.0780  -20.3043   -7.1360 O   0  0  0  0  0  0  0  0  0  0  0  0
   28.7400  -21.9242   -7.9054 O   0  0  0  0  0  0  0  0  0  0  0  0
  2  1  1  1
  2 13  1  0
  3  2  1  0
  3  4  1  0
  4  5  2  0
  4 12  1  0
  5  6  1  0
  6  7  1  0
  7  8  2  0
  9  8  1  0
 10  9  2  0
 11 12  2  0
 11 10  1  0
 12  7  1  0
 13 14  2  0
 16 15  1  6
 16 18  1  0
 17 16  1  0
 19 13  1  0
 18 19  1  6
 20 18  1  0
 20 21  2  0
 22 23  1  0
 23 24  1  0
 24 25  1  1
 24 26  1  0
 26 28  1  0
 26 27  1  6
 27 20  1  0
 28 30  2  0
 28 29  1  0
M  END
$$$$
