WTI.pdb
     RDKit          3D

 30 31  0  0  1  0  0  0  0  0999 V2000
   28.2975  -20.3834  -11.7256 N   0  0  0  0  0  0  0  0  0  0  0  0
   27.1033  -21.0809  -11.3344 C   0  0  1  0  0  0  0  0  0  0  0  0
   26.6544  -20.7336   -9.9341 C   0  0  0  0  0  0  0  0  0  0  0  0
   27.7201  -20.5729   -8.9586 C   0  0  0  0  0  0  0  0  0  0  0  0
   27.7126  -19.7488   -7.8644 C   0  0  0  0  0  0  0  0  0  0  0  0
   28.8765  -19.8620   -7.2220 N   0  0  0  0  0  0  0  0  0  0  0  0
   29.6591  -20.7390   -7.8577 C   0  0  0  0  0  0  0  0  0  0  0  0
   30.9511  -21.1901   -7.5697 C   0  0  0  0  0  0  0  0  0  0  0  0
   31.5200  -22.1187   -8.4090 C   0  0  0  0  0  0  0  0  0  0  0  0
   30.8484  -22.5979   -9.5034 C   0  0  0  0  0  0  0  0  0  0  0  0
   29.5722  -22.1304   -9.7593 C   0  0  0  0  0  0  0  0  0  0  0  0
   28.9451  -21.1910   -8.9467 C   0  0  0  0  0  0  0  0  0  0  0  0
   26.0022  -20.9215  -12.2908 C   0  0  0  0  0  0  0  0  0  0  0  0
   25.9259  -19.8240  -12.9362 O   0  0  0  0  0  0  0  0  0  0  0  0
   25.2510  -23.0974  -15.1628 C   0  0  0  0  0  0  0  0  0  0  0  0
   23.8935  -22.9008  -14.5149 C   0  0  1  0  0  0  0  0  0  0  0  0
   23.6462  -24.0243  -13.7296 O   0  0  0  0  0  0  0  0  0  0  0  0
   23.9747  -21.6904  -13.5912 C   0  0  2  0  0  0  0  0  0  0  0  0
   24.9957  -21.8729  -12.5858 N   0  0  0  0  0  0  0  0  0  0  0  0
   22.6574  -21.3631  -13.0168 C   0  0  0  0  0  0  0  0  0  0  0  0
   22.4372  -21.7556  -11.8168 O   0  0  0  0  0  0  0  0  0  0  0  0
   18.6357  -17.7147  -14.9122 C   0  0  0  0  0  0  0  0  0  0  0  0
   19.6732  -18.7406  -14.6208 C   0  0  0  0  0  0  0  0  0  0  0  0
   19.9051  -19.0275  -13.1759 C   0  0  2  0  0  0  0  0  0  0  0  0
   20.8093  -18.0554  -12.4957 C   0  0  0  0  0  0  0  0  0  0  0  0
   20.3072  -20.4611  -12.9772 C   0  0  2  0  0  0  0  0  0  0  0  0
   21.6059  -20.6674  -13.6262 N   0  0  0  0  0  0  0  0  0  0  0  0
   19.2868  -21.4339  -13.3597 C   0  0  0  0  0  0  0  0  0  0  0  0
   19.4132  -22.3514  -14.3884 O   0  0  0  0  0  0  0  0  0  0  0  0
   18.1919  -21.4759  -12.7306 O   0  0  0  0  0  0  0  0  0  0  0  0
  2  1  1  6
  2 13  1  0
  3  2  1  0
  3  4  1  0
  4  5  2  0
  4 12  1  0
  5  6  1  0
  6  7  1  0
  7  8  2  0
  9  8  1  0
 10  9  2  0
 11 12  2  0
 11 10  1  0
 12  7  1  0
 13 14  2  0
 16 15  1  1
 16 18  1  0
 17 16  1  0
 19 13  1  0
 18 19  1  1
 20 18  1  0
 20 21  2  0
 22 23  1  0
 23 24  1  0
 24 25  1  6
 24 26  1  0
 26 28  1  0
 26 27  1  6
 27 20  1  0
 28 30  2  0
 28 29  1  0
M  END
$$$$
