WTI.pdb
     RDKit          3D

 30 31  0  0  1  0  0  0  0  0999 V2000
   25.7560  -20.7973  -14.8083 N   0  0  0  0  0  0  0  0  0  0  0  0
   26.8241  -20.6436  -13.8591 C   0  0  1  0  0  0  0  0  0  0  0  0
   27.9956  -19.8688  -14.4160 C   0  0  0  0  0  0  0  0  0  0  0  0
   28.6737  -20.4871  -15.5435 C   0  0  0  0  0  0  0  0  0  0  0  0
   28.5834  -20.1150  -16.8588 C   0  0  0  0  0  0  0  0  0  0  0  0
   29.3340  -20.9333  -17.5986 N   0  0  0  0  0  0  0  0  0  0  0  0
   29.9221  -21.8399  -16.8126 C   0  0  0  0  0  0  0  0  0  0  0  0
   30.7938  -22.8897  -17.1188 C   0  0  0  0  0  0  0  0  0  0  0  0
   31.2573  -23.6742  -16.0892 C   0  0  0  0  0  0  0  0  0  0  0  0
   30.8821  -23.4435  -14.7914 C   0  0  0  0  0  0  0  0  0  0  0  0
   30.0184  -22.3971  -14.5235 C   0  0  0  0  0  0  0  0  0  0  0  0
   29.5161  -21.5700  -15.5233 C   0  0  0  0  0  0  0  0  0  0  0  0
   26.3826  -20.0759  -12.5803 C   0  0  0  0  0  0  0  0  0  0  0  0
   25.5495  -19.1105  -12.6113 O   0  0  0  0  0  0  0  0  0  0  0  0
   24.0629  -19.7159  -11.3145 C   0  0  0  0  0  0  0  0  0  0  0  0
   24.6636  -20.3494  -10.0739 C   0  0  1  0  0  0  0  0  0  0  0  0
   24.4993  -21.7273  -10.1953 O   0  0  0  0  0  0  0  0  0  0  0  0
   26.1593  -20.0538  -10.0618 C   0  0  2  0  0  0  0  0  0  0  0  0
   26.7845  -20.4924  -11.2879 N   0  0  0  0  0  0  0  0  0  0  0  0
   26.8070  -20.6070   -8.8590 C   0  0  0  0  0  0  0  0  0  0  0  0
   27.2682  -21.7995   -8.9484 O   0  0  0  0  0  0  0  0  0  0  0  0
   28.7873  -18.3843   -3.9781 C   0  0  0  0  0  0  0  0  0  0  0  0
   28.3373  -18.6224   -5.3761 C   0  0  0  0  0  0  0  0  0  0  0  0
   28.7280  -19.9370   -5.9618 C   0  0  2  0  0  0  0  0  0  0  0  0
   29.8211  -19.8562   -6.9736 C   0  0  0  0  0  0  0  0  0  0  0  0
   27.5174  -20.6838   -6.4449 C   0  0  2  0  0  0  0  0  0  0  0  0
   26.9842  -19.9835   -7.6177 N   0  0  0  0  0  0  0  0  0  0  0  0
   26.5237  -20.9585   -5.4100 C   0  0  0  0  0  0  0  0  0  0  0  0
   26.7567  -21.7014   -4.2655 O   0  0  0  0  0  0  0  0  0  0  0  0
   25.3513  -20.5027   -5.5282 O   0  0  0  0  0  0  0  0  0  0  0  0
  2  1  1  6
  2 13  1  0
  3  2  1  0
  3  4  1  0
  4  5  2  0
  4 12  1  0
  5  6  1  0
  6  7  1  0
  7  8  2  0
  9  8  1  0
 10  9  2  0
 11 12  2  0
 11 10  1  0
 12  7  1  0
 13 14  2  0
 16 15  1  6
 16 18  1  0
 17 16  1  0
 19 13  1  0
 18 19  1  6
 20 18  1  0
 20 21  2  0
 22 23  1  0
 23 24  1  0
 24 25  1  6
 24 26  1  0
 26 28  1  0
 26 27  1  6
 27 20  1  0
 28 30  2  0
 28 29  1  0
M  END
$$$$
