WTI.pdb
     RDKit          3D

 30 31  0  0  1  0  0  0  0  0999 V2000
   27.8151  -22.5096  -10.4204 N   0  0  0  0  0  0  0  0  0  0  0  0
   26.9437  -21.3906  -10.1881 C   0  0  1  0  0  0  0  0  0  0  0  0
   27.6622  -20.2026   -9.5919 C   0  0  0  0  0  0  0  0  0  0  0  0
   28.4809  -20.4892   -8.4254 C   0  0  0  0  0  0  0  0  0  0  0  0
   29.6148  -21.2569   -8.3882 C   0  0  0  0  0  0  0  0  0  0  0  0
   30.0730  -21.3022   -7.1359 N   0  0  0  0  0  0  0  0  0  0  0  0
   29.2760  -20.5855   -6.3379 C   0  0  0  0  0  0  0  0  0  0  0  0
   29.3442  -20.3316   -4.9644 C   0  0  0  0  0  0  0  0  0  0  0  0
   28.3739  -19.5387   -4.3986 C   0  0  0  0  0  0  0  0  0  0  0  0
   27.3604  -19.0046   -5.1507 C   0  0  0  0  0  0  0  0  0  0  0  0
   27.3226  -19.2758   -6.5064 C   0  0  0  0  0  0  0  0  0  0  0  0
   28.2756  -20.0713   -7.1347 C   0  0  0  0  0  0  0  0  0  0  0  0
   26.1805  -20.9967  -11.3776 C   0  0  0  0  0  0  0  0  0  0  0  0
   26.8124  -20.8727  -12.4787 O   0  0  0  0  0  0  0  0  0  0  0  0
   25.6841  -21.9529  -13.8078 C   0  0  0  0  0  0  0  0  0  0  0  0
   24.2068  -21.6548  -13.6343 C   0  0  1  0  0  0  0  0  0  0  0  0
   23.6279  -22.7756  -13.0435 O   0  0  0  0  0  0  0  0  0  0  0  0
   24.0648  -20.4865  -12.6649 C   0  0  2  0  0  0  0  0  0  0  0  0
   24.7898  -20.7372  -11.4409 N   0  0  0  0  0  0  0  0  0  0  0  0
   22.6490  -20.1493  -12.4330 C   0  0  0  0  0  0  0  0  0  0  0  0
   22.2008  -20.3246  -11.2451 O   0  0  0  0  0  0  0  0  0  0  0  0
   21.2441  -16.6482  -15.5983 C   0  0  0  0  0  0  0  0  0  0  0  0
   20.9808  -17.0617  -14.1935 C   0  0  0  0  0  0  0  0  0  0  0  0
   19.9709  -18.1453  -14.0212 C   0  0  2  0  0  0  0  0  0  0  0  0
   18.5746  -17.6566  -13.8301 C   0  0  0  0  0  0  0  0  0  0  0  0
   20.4141  -19.1215  -12.9690 C   0  0  2  0  0  0  0  0  0  0  0  0
   21.7232  -19.6542  -13.3597 N   0  0  0  0  0  0  0  0  0  0  0  0
   19.4260  -20.1460  -12.6401 C   0  0  0  0  0  0  0  0  0  0  0  0
   19.4935  -21.4691  -13.0410 O   0  0  0  0  0  0  0  0  0  0  0  0
   18.4190  -19.8452  -11.9388 O   0  0  0  0  0  0  0  0  0  0  0  0
  2  1  1  6
  2 13  1  0
  3  2  1  0
  3  4  1  0
  4  5  2  0
  4 12  1  0
  5  6  1  0
  6  7  1  0
  7  8  2  0
  9  8  1  0
 10  9  2  0
 11 12  2  0
 11 10  1  0
 12  7  1  0
 13 14  2  0
 16 15  1  1
 16 18  1  0
 17 16  1  0
 19 13  1  0
 18 19  1  1
 20 18  1  0
 20 21  2  0
 22 23  1  0
 23 24  1  0
 24 25  1  1
 24 26  1  0
 26 28  1  0
 26 27  1  6
 27 20  1  0
 28 30  2  0
 28 29  1  0
M  END
$$$$
