WTI.pdb
     RDKit          3D

 30 31  0  0  1  0  0  0  0  0999 V2000
   28.4269  -21.7835  -10.5444 N   0  0  0  0  0  0  0  0  0  0  0  0
   27.1833  -21.2166  -10.0997 C   0  0  1  0  0  0  0  0  0  0  0  0
   27.3718  -20.1219   -9.0754 C   0  0  0  0  0  0  0  0  0  0  0  0
   28.2703  -20.4414   -7.9783 C   0  0  0  0  0  0  0  0  0  0  0  0
   29.3441  -21.2911   -8.0189 C   0  0  0  0  0  0  0  0  0  0  0  0
   29.9099  -21.3409   -6.8116 N   0  0  0  0  0  0  0  0  0  0  0  0
   29.2432  -20.5476   -5.9679 C   0  0  0  0  0  0  0  0  0  0  0  0
   29.4545  -20.2671   -4.6143 C   0  0  0  0  0  0  0  0  0  0  0  0
   28.6000  -19.3902   -3.9887 C   0  0  0  0  0  0  0  0  0  0  0  0
   27.5637  -18.7995   -4.6635 C   0  0  0  0  0  0  0  0  0  0  0  0
   27.3830  -19.0992   -6.0015 C   0  0  0  0  0  0  0  0  0  0  0  0
   28.2144  -19.9788   -6.6877 C   0  0  0  0  0  0  0  0  0  0  0  0
   26.3304  -20.7593  -11.2024 C   0  0  0  0  0  0  0  0  0  0  0  0
   26.8996  -20.2825  -12.2395 O   0  0  0  0  0  0  0  0  0  0  0  0
   26.0276  -21.3681  -13.7590 C   0  0  0  0  0  0  0  0  0  0  0  0
   24.5249  -21.4550  -13.5695 C   0  0  1  0  0  0  0  0  0  0  0  0
   24.2347  -22.7598  -13.1779 O   0  0  0  0  0  0  0  0  0  0  0  0
   24.1316  -20.5234  -12.4284 C   0  0  2  0  0  0  0  0  0  0  0  0
   24.9154  -20.7930  -11.2453 N   0  0  0  0  0  0  0  0  0  0  0  0
   22.6802  -20.5657  -12.1756 C   0  0  0  0  0  0  0  0  0  0  0  0
   22.2974  -21.1599  -11.1066 O   0  0  0  0  0  0  0  0  0  0  0  0
   17.7531  -17.0331  -12.9116 C   0  0  0  0  0  0  0  0  0  0  0  0
   18.3312  -18.3759  -12.6351 C   0  0  0  0  0  0  0  0  0  0  0  0
   19.7959  -18.5082  -12.8824 C   0  0  2  0  0  0  0  0  0  0  0  0
   20.2259  -18.0959  -14.2499 C   0  0  0  0  0  0  0  0  0  0  0  0
   20.2796  -19.8745  -12.4880 C   0  0  2  0  0  0  0  0  0  0  0  0
   21.6567  -20.0296  -12.9670 N   0  0  0  0  0  0  0  0  0  0  0  0
   19.3871  -20.9658  -12.8711 C   0  0  0  0  0  0  0  0  0  0  0  0
   19.6699  -21.9193  -13.8338 O   0  0  0  0  0  0  0  0  0  0  0  0
   18.2633  -21.0858  -12.3063 O   0  0  0  0  0  0  0  0  0  0  0  0
  2  1  1  6
  2 13  1  0
  3  2  1  0
  3  4  1  0
  4  5  2  0
  4 12  1  0
  5  6  1  0
  6  7  1  0
  7  8  2  0
  9  8  1  0
 10  9  2  0
 11 12  2  0
 11 10  1  0
 12  7  1  0
 13 14  2  0
 16 15  1  1
 16 18  1  0
 17 16  1  0
 19 13  1  0
 18 19  1  1
 20 18  1  0
 20 21  2  0
 22 23  1  0
 23 24  1  0
 24 25  1  6
 24 26  1  0
 26 28  1  0
 26 27  1  6
 27 20  1  0
 28 30  2  0
 28 29  1  0
M  END
$$$$
