WTI.pdb
     RDKit          3D

 30 31  0  0  1  0  0  0  0  0999 V2000
   26.2383  -22.5134  -13.6567 N   0  0  0  0  0  0  0  0  0  0  0  0
   25.1252  -21.6715  -13.3134 C   0  0  1  0  0  0  0  0  0  0  0  0
   25.5484  -20.2821  -12.8968 C   0  0  0  0  0  0  0  0  0  0  0  0
   26.3702  -20.2124  -11.6998 C   0  0  0  0  0  0  0  0  0  0  0  0
   27.7192  -19.9804  -11.6439 C   0  0  0  0  0  0  0  0  0  0  0  0
   28.1170  -20.0105  -10.3707 N   0  0  0  0  0  0  0  0  0  0  0  0
   27.0704  -20.2557   -9.5768 C   0  0  0  0  0  0  0  0  0  0  0  0
   26.9839  -20.3746   -8.1861 C   0  0  0  0  0  0  0  0  0  0  0  0
   25.7530  -20.6275   -7.6283 C   0  0  0  0  0  0  0  0  0  0  0  0
   24.6315  -20.7616   -8.4046 C   0  0  0  0  0  0  0  0  0  0  0  0
   24.7524  -20.6384   -9.7768 C   0  0  0  0  0  0  0  0  0  0  0  0
   25.9709  -20.3836  -10.3983 C   0  0  0  0  0  0  0  0  0  0  0  0
   24.1006  -21.6134  -14.3618 C   0  0  0  0  0  0  0  0  0  0  0  0
   24.4854  -21.4253  -15.5633 O   0  0  0  0  0  0  0  0  0  0  0  0
   22.6698  -23.8559  -16.1164 C   0  0  0  0  0  0  0  0  0  0  0  0
   21.3903  -23.1555  -15.6995 C   0  0  1  0  0  0  0  0  0  0  0  0
   20.8920  -23.8353  -14.5906 O   0  0  0  0  0  0  0  0  0  0  0  0
   21.7412  -21.7375  -15.2628 C   0  0  2  0  0  0  0  0  0  0  0  0
   22.7022  -21.7499  -14.1843 N   0  0  0  0  0  0  0  0  0  0  0  0
   20.5317  -20.9585  -14.9429 C   0  0  0  0  0  0  0  0  0  0  0  0
   20.3825  -20.5992  -13.7217 O   0  0  0  0  0  0  0  0  0  0  0  0
   16.5798  -16.9580  -15.9904 C   0  0  0  0  0  0  0  0  0  0  0  0
   16.4500  -18.4373  -16.0826 C   0  0  0  0  0  0  0  0  0  0  0  0
   17.6796  -19.1648  -16.5101 C   0  0  2  0  0  0  0  0  0  0  0  0
   17.5071  -19.9882  -17.7419 C   0  0  0  0  0  0  0  0  0  0  0  0
   18.2740  -19.9249  -15.3588 C   0  0  2  0  0  0  0  0  0  0  0  0
   19.5150  -20.5567  -15.8181 N   0  0  0  0  0  0  0  0  0  0  0  0
   17.3478  -20.8394  -14.6955 C   0  0  0  0  0  0  0  0  0  0  0  0
   16.5667  -20.5181  -13.5989 O   0  0  0  0  0  0  0  0  0  0  0  0
   17.2186  -22.0215  -15.1224 O   0  0  0  0  0  0  0  0  0  0  0  0
  2  1  1  6
  2 13  1  0
  3  2  1  0
  3  4  1  0
  4  5  2  0
  4 12  1  0
  5  6  1  0
  6  7  1  0
  7  8  2  0
  9  8  1  0
 10  9  2  0
 11 12  2  0
 11 10  1  0
 12  7  1  0
 13 14  2  0
 16 15  1  1
 16 18  1  0
 17 16  1  0
 19 13  1  0
 18 19  1  1
 20 18  1  0
 20 21  2  0
 22 23  1  0
 23 24  1  0
 24 25  1  6
 24 26  1  0
 26 28  1  0
 26 27  1  6
 27 20  1  0
 28 30  2  0
 28 29  1  0
M  END
$$$$
