WTI.pdb
     RDKit          3D

 30 31  0  0  1  0  0  0  0  0999 V2000
   24.6324  -21.1069  -11.4310 N   0  0  0  0  0  0  0  0  0  0  0  0
   24.3369  -21.0598  -10.0252 C   0  0  1  0  0  0  0  0  0  0  0  0
   25.0840  -19.9607   -9.3063 C   0  0  0  0  0  0  0  0  0  0  0  0
   26.4892  -20.2274   -9.0468 C   0  0  0  0  0  0  0  0  0  0  0  0
   27.3669  -20.8767   -9.8744 C   0  0  0  0  0  0  0  0  0  0  0  0
   28.5601  -20.9452   -9.2813 N   0  0  0  0  0  0  0  0  0  0  0  0
   28.5018  -20.3592   -8.0817 C   0  0  0  0  0  0  0  0  0  0  0  0
   29.4838  -20.1772   -7.1028 C   0  0  0  0  0  0  0  0  0  0  0  0
   29.1376  -19.5201   -5.9458 C   0  0  0  0  0  0  0  0  0  0  0  0
   27.8658  -19.0506   -5.7448 C   0  0  0  0  0  0  0  0  0  0  0  0
   26.9188  -19.2478   -6.7333 C   0  0  0  0  0  0  0  0  0  0  0  0
   27.2097  -19.9057   -7.9242 C   0  0  0  0  0  0  0  0  0  0  0  0
   22.8996  -20.9879   -9.7397 C   0  0  0  0  0  0  0  0  0  0  0  0
   22.2403  -20.0144  -10.2344 O   0  0  0  0  0  0  0  0  0  0  0  0
   20.7225  -20.8792  -11.1427 C   0  0  0  0  0  0  0  0  0  0  0  0
   20.1064  -21.9896  -10.3128 C   0  0  1  0  0  0  0  0  0  0  0  0
   20.4925  -23.1970  -10.8902 O   0  0  0  0  0  0  0  0  0  0  0  0
   20.7030  -21.9270   -8.9111 C   0  0  2  0  0  0  0  0  0  0  0  0
   22.1464  -21.9012   -8.9625 N   0  0  0  0  0  0  0  0  0  0  0  0
   20.1798  -23.0069   -8.0553 C   0  0  0  0  0  0  0  0  0  0  0  0
   21.0438  -23.7757   -7.5029 O   0  0  0  0  0  0  0  0  0  0  0  0
   15.6843  -22.6474   -5.0291 C   0  0  0  0  0  0  0  0  0  0  0  0
   17.0206  -23.0173   -5.5687 C   0  0  0  0  0  0  0  0  0  0  0  0
   17.0463  -24.2167   -6.4545 C   0  0  2  0  0  0  0  0  0  0  0  0
   16.4071  -25.4282   -5.8640 C   0  0  0  0  0  0  0  0  0  0  0  0
   18.4341  -24.4634   -6.9738 C   0  0  2  0  0  0  0  0  0  0  0  0
   18.8410  -23.2991   -7.7668 N   0  0  0  0  0  0  0  0  0  0  0  0
   18.6049  -25.7423   -7.6589 C   0  0  0  0  0  0  0  0  0  0  0  0
   18.7130  -25.8980   -9.0301 O   0  0  0  0  0  0  0  0  0  0  0  0
   18.6640  -26.8112   -6.9880 O   0  0  0  0  0  0  0  0  0  0  0  0
  2  1  1  6
  2 13  1  0
  3  2  1  0
  3  4  1  0
  4  5  2  0
  4 12  1  0
  5  6  1  0
  6  7  1  0
  7  8  2  0
  9  8  1  0
 10  9  2  0
 11 12  2  0
 11 10  1  0
 12  7  1  0
 13 14  2  0
 16 15  1  6
 16 18  1  0
 17 16  1  0
 19 13  1  0
 18 19  1  6
 20 18  1  0
 20 21  2  0
 22 23  1  0
 23 24  1  0
 24 25  1  1
 24 26  1  0
 26 28  1  0
 26 27  1  6
 27 20  1  0
 28 30  2  0
 28 29  1  0
M  END
$$$$
