SHD.pdb
     RDKit          3D

 25 25  0  0  1  0  0  0  0  0999 V2000
   11.0774  -19.8178   18.8592 O   0  0  0  0  0  0  0  0  0  0  0  0
   10.0011  -19.1068   18.3610 C   0  0  0  0  0  0  0  0  0  0  0  0
   10.1776  -17.6213   18.6120 C   0  0  2  0  0  0  0  0  0  0  0  0
   11.3633  -17.1853   17.9537 N   0  0  0  0  0  0  0  0  0  0  0  0
   10.2176  -17.4074   20.0968 C   0  0  0  0  0  0  0  0  0  0  0  0
   11.3226  -17.1210   20.6047 O   0  0  0  0  0  0  0  0  0  0  0  0
    9.0704  -17.5206   20.8964 N   0  0  0  0  0  0  0  0  0  0  0  0
    8.9347  -17.3468   22.3108 C   0  0  1  0  0  0  0  0  0  0  0  0
    7.5257  -17.0136   22.7531 C   0  0  0  0  0  0  0  0  0  0  0  0
    6.5748  -18.0620   22.3070 C   0  0  0  0  0  0  0  0  0  0  0  0
    6.8345  -19.1765   21.4996 C   0  0  0  0  0  0  0  0  0  0  0  0
    5.6898  -19.8615   21.2865 N   0  0  0  0  0  0  0  0  0  0  0  0
    4.7237  -19.2068   21.9373 C   0  0  0  0  0  0  0  0  0  0  0  0
    5.2489  -18.1409   22.5415 N   0  0  0  0  0  0  0  0  0  0  0  0
    9.5881  -18.4060   23.0736 C   0  0  0  0  0  0  0  0  0  0  0  0
    9.6984  -19.5719   22.5592 O   0  0  0  0  0  0  0  0  0  0  0  0
   10.1097  -18.1876   24.3750 N   0  0  0  0  0  0  0  0  0  0  0  0
   10.7458  -19.1606   25.2117 C   0  0  1  0  0  0  0  0  0  0  0  0
   12.1750  -18.8756   25.4876 C   0  0  0  0  0  0  0  0  0  0  0  0
   12.8015  -19.9545   26.2587 C   0  0  0  0  0  0  0  0  0  0  0  0
   12.8291  -19.9866   27.5312 O   0  0  0  0  0  0  0  0  0  0  0  0
    9.9548  -19.5179   26.4237 C   0  0  0  0  0  0  0  0  0  0  0  0
    9.0401  -18.7577   26.8445 O   0  0  0  0  0  0  0  0  0  0  0  0
   13.3993  -21.0018   25.5434 O   0  0  0  0  0  0  0  0  0  0  0  0
   10.1775  -20.6652   27.1316 O   0  0  0  0  0  0  0  0  0  0  0  0
  1  2  1  0
  3  2  1  0
  3  4  1  6
  5  6  2  0
  5  3  1  0
  7  5  1  0
  8  9  1  6
  8  7  1  0
  9 10  1  0
 10 14  1  0
 11 10  2  0
 11 12  1  0
 12 13  1  0
 14 13  2  0
 15  8  1  0
 16 15  2  0
 17 15  1  0
 18 17  1  0
 18 19  1  1
 19 20  1  0
 20 24  1  0
 21 20  2  0
 22 25  1  0
 22 18  1  0
 23 22  2  0
M  END
$$$$
