SHD.pdb
     RDKit          3D

 25 25  0  0  1  0  0  0  0  0999 V2000
    7.3787  -18.6783   26.0711 O   0  0  0  0  0  0  0  0  0  0  0  0
    7.0031  -19.7464   25.2773 C   0  0  0  0  0  0  0  0  0  0  0  0
    6.0962  -19.2853   24.1523 C   0  0  2  0  0  0  0  0  0  0  0  0
    5.4556  -20.4252   23.5868 N   0  0  0  0  0  0  0  0  0  0  0  0
    6.9370  -18.5330   23.1628 C   0  0  0  0  0  0  0  0  0  0  0  0
    7.8135  -19.1777   22.5486 O   0  0  0  0  0  0  0  0  0  0  0  0
    6.7592  -17.1617   22.9253 N   0  0  0  0  0  0  0  0  0  0  0  0
    7.5130  -16.2865   22.0798 C   0  0  1  0  0  0  0  0  0  0  0  0
    6.7237  -15.0994   21.5704 C   0  0  0  0  0  0  0  0  0  0  0  0
    7.4909  -14.3664   20.5327 C   0  0  0  0  0  0  0  0  0  0  0  0
    8.7873  -14.6273   20.0717 C   0  0  0  0  0  0  0  0  0  0  0  0
    9.1399  -13.7004   19.1544 N   0  0  0  0  0  0  0  0  0  0  0  0
    8.1013  -12.8689   19.0298 C   0  0  0  0  0  0  0  0  0  0  0  0
    7.1250  -13.2642   19.8468 N   0  0  0  0  0  0  0  0  0  0  0  0
    8.8266  -15.9657   22.6295 C   0  0  0  0  0  0  0  0  0  0  0  0
    8.9247  -15.6202   23.8571 O   0  0  0  0  0  0  0  0  0  0  0  0
   10.0080  -16.0241   21.8458 N   0  0  0  0  0  0  0  0  0  0  0  0
   11.3131  -16.4013   22.2995 C   0  0  1  0  0  0  0  0  0  0  0  0
   11.3229  -17.5945   23.1805 C   0  0  0  0  0  0  0  0  0  0  0  0
   12.6742  -17.8979   23.6633 C   0  0  0  0  0  0  0  0  0  0  0  0
   13.4573  -17.0253   24.1597 O   0  0  0  0  0  0  0  0  0  0  0  0
   12.3363  -16.4404   21.2161 C   0  0  0  0  0  0  0  0  0  0  0  0
   12.3893  -17.4122   20.4134 O   0  0  0  0  0  0  0  0  0  0  0  0
   13.1158  -19.2251   23.5671 O   0  0  0  0  0  0  0  0  0  0  0  0
   13.2559  -15.4450   21.0410 O   0  0  0  0  0  0  0  0  0  0  0  0
  1  2  1  0
  3  2  1  0
  3  4  1  6
  5  6  2  0
  5  3  1  0
  7  5  1  0
  8  9  1  1
  8  7  1  0
  9 10  1  0
 10 14  1  0
 11 10  2  0
 11 12  1  0
 12 13  1  0
 14 13  2  0
 15  8  1  0
 16 15  2  0
 17 15  1  0
 18 17  1  0
 18 19  1  6
 19 20  1  0
 20 24  1  0
 21 20  2  0
 22 25  1  0
 22 18  1  0
 23 22  2  0
M  END
$$$$
