SHD.pdb
     RDKit          3D

 25 25  0  0  1  0  0  0  0  0999 V2000
   10.6413  -19.5949   19.4166 O   0  0  0  0  0  0  0  0  0  0  0  0
   11.3071  -19.0508   18.3337 C   0  0  0  0  0  0  0  0  0  0  0  0
   10.8079  -17.6473   18.0475 C   0  0  2  0  0  0  0  0  0  0  0  0
   11.5125  -17.1337   16.9209 N   0  0  0  0  0  0  0  0  0  0  0  0
   11.0060  -16.8268   19.2882 C   0  0  0  0  0  0  0  0  0  0  0  0
   12.1389  -16.3339   19.4742 O   0  0  0  0  0  0  0  0  0  0  0  0
    9.9719  -16.6124   20.2118 N   0  0  0  0  0  0  0  0  0  0  0  0
   10.0060  -15.9095   21.4584 C   0  0  1  0  0  0  0  0  0  0  0  0
    8.6783  -15.2973   21.8512 C   0  0  0  0  0  0  0  0  0  0  0  0
    8.1784  -14.3991   20.7807 C   0  0  0  0  0  0  0  0  0  0  0  0
    7.0443  -14.5630   19.9755 C   0  0  0  0  0  0  0  0  0  0  0  0
    6.9640  -13.5466   19.0893 N   0  0  0  0  0  0  0  0  0  0  0  0
    8.0149  -12.7537   19.3180 C   0  0  0  0  0  0  0  0  0  0  0  0
    8.7338  -13.2595   20.3201 N   0  0  0  0  0  0  0  0  0  0  0  0
   10.6744  -16.6656   22.5131 C   0  0  0  0  0  0  0  0  0  0  0  0
   10.3070  -17.8674   22.7517 O   0  0  0  0  0  0  0  0  0  0  0  0
   11.7253  -16.1118   23.2892 N   0  0  0  0  0  0  0  0  0  0  0  0
   12.4516  -16.7711   24.3328 C   0  0  1  0  0  0  0  0  0  0  0  0
   13.7556  -16.1398   24.6506 C   0  0  0  0  0  0  0  0  0  0  0  0
   14.6466  -16.1255   23.4857 C   0  0  0  0  0  0  0  0  0  0  0  0
   15.5771  -15.2722   23.3209 O   0  0  0  0  0  0  0  0  0  0  0  0
   11.6241  -17.0873   25.5318 C   0  0  0  0  0  0  0  0  0  0  0  0
   12.0999  -17.7645   26.4839 O   0  0  0  0  0  0  0  0  0  0  0  0
   14.4524  -17.1106   22.5071 O   0  0  0  0  0  0  0  0  0  0  0  0
   10.3289  -16.6704   25.6583 O   0  0  0  0  0  0  0  0  0  0  0  0
  1  2  1  0
  3  2  1  0
  3  4  1  6
  5  6  2  0
  5  3  1  0
  7  5  1  0
  8  9  1  1
  8  7  1  0
  9 10  1  0
 10 14  1  0
 11 10  2  0
 11 12  1  0
 12 13  1  0
 14 13  2  0
 15  8  1  0
 16 15  2  0
 17 15  1  0
 18 17  1  0
 18 19  1  1
 19 20  1  0
 20 24  1  0
 21 20  2  0
 22 25  1  0
 22 18  1  0
 23 22  2  0
M  END
$$$$
