SHD.pdb
     RDKit          3D

 25 25  0  0  1  0  0  0  0  0999 V2000
   12.5438  -18.0470   16.2432 O   0  0  0  0  0  0  0  0  0  0  0  0
   11.3114  -18.0645   15.6163 C   0  0  0  0  0  0  0  0  0  0  0  0
   10.8246  -16.6525   15.3517 C   0  0  2  0  0  0  0  0  0  0  0  0
   11.2436  -16.2627   14.0471 N   0  0  0  0  0  0  0  0  0  0  0  0
   11.3712  -15.7673   16.4331 C   0  0  0  0  0  0  0  0  0  0  0  0
   12.3888  -15.0945   16.1630 O   0  0  0  0  0  0  0  0  0  0  0  0
   10.7761  -15.6869   17.7011 N   0  0  0  0  0  0  0  0  0  0  0  0
   11.2107  -14.9653   18.8585 C   0  0  1  0  0  0  0  0  0  0  0  0
   10.1135  -14.7177   19.8718 C   0  0  0  0  0  0  0  0  0  0  0  0
    8.9447  -14.0664   19.2298 C   0  0  0  0  0  0  0  0  0  0  0  0
    8.7099  -12.6975   19.0496 C   0  0  0  0  0  0  0  0  0  0  0  0
    7.5067  -12.5149   18.4632 N   0  0  0  0  0  0  0  0  0  0  0  0
    6.9841  -13.7299   18.2724 C   0  0  0  0  0  0  0  0  0  0  0  0
    7.8366  -14.6483   18.7269 N   0  0  0  0  0  0  0  0  0  0  0  0
   12.4572  -15.4858   19.4115 C   0  0  0  0  0  0  0  0  0  0  0  0
   12.6255  -16.7510   19.4954 O   0  0  0  0  0  0  0  0  0  0  0  0
   13.4975  -14.6328   19.8627 N   0  0  0  0  0  0  0  0  0  0  0  0
   14.7707  -15.0407   20.3763 C   0  0  1  0  0  0  0  0  0  0  0  0
   15.8398  -14.0258   20.2116 C   0  0  0  0  0  0  0  0  0  0  0  0
   17.1480  -14.5489   20.6190 C   0  0  0  0  0  0  0  0  0  0  0  0
   17.5284  -15.7439   20.3991 O   0  0  0  0  0  0  0  0  0  0  0  0
   14.7041  -15.6336   21.7424 C   0  0  0  0  0  0  0  0  0  0  0  0
   13.7549  -15.3496   22.5234 O   0  0  0  0  0  0  0  0  0  0  0  0
   18.0180  -13.6751   21.2865 O   0  0  0  0  0  0  0  0  0  0  0  0
   15.6525  -16.4975   22.2128 O   0  0  0  0  0  0  0  0  0  0  0  0
  1  2  1  0
  3  2  1  0
  3  4  1  6
  5  6  2  0
  5  3  1  0
  7  5  1  0
  8  9  1  1
  8  7  1  0
  9 10  1  0
 10 14  1  0
 11 10  2  0
 11 12  1  0
 12 13  1  0
 14 13  2  0
 15  8  1  0
 16 15  2  0
 17 15  1  0
 18 17  1  0
 18 19  1  1
 19 20  1  0
 20 24  1  0
 21 20  2  0
 22 25  1  0
 22 18  1  0
 23 22  2  0
M  END
$$$$
