SHD.pdb
     RDKit          3D

 25 25  0  0  1  0  0  0  0  0999 V2000
   11.2274  -19.6389   18.7897 O   0  0  0  0  0  0  0  0  0  0  0  0
   12.0539  -19.0919   17.8255 C   0  0  0  0  0  0  0  0  0  0  0  0
   11.6528  -17.6602   17.5252 C   0  0  2  0  0  0  0  0  0  0  0  0
   12.5381  -17.1357   16.5400 N   0  0  0  0  0  0  0  0  0  0  0  0
   11.6878  -16.8928   18.8144 C   0  0  0  0  0  0  0  0  0  0  0  0
   12.7948  -16.4499   19.1876 O   0  0  0  0  0  0  0  0  0  0  0  0
   10.5337  -16.6729   19.5813 N   0  0  0  0  0  0  0  0  0  0  0  0
   10.3929  -15.9684   20.8195 C   0  0  1  0  0  0  0  0  0  0  0  0
    8.9840  -15.4861   21.0914 C   0  0  0  0  0  0  0  0  0  0  0  0
    8.5895  -14.4423   20.1130 C   0  0  0  0  0  0  0  0  0  0  0  0
    9.3720  -13.8616   19.1072 C   0  0  0  0  0  0  0  0  0  0  0  0
    8.6555  -12.9159   18.4612 N   0  0  0  0  0  0  0  0  0  0  0  0
    7.4489  -12.8898   19.0348 C   0  0  0  0  0  0  0  0  0  0  0  0
    7.4108  -13.7943   20.0132 N   0  0  0  0  0  0  0  0  0  0  0  0
   11.0374  -16.6554   21.9346 C   0  0  0  0  0  0  0  0  0  0  0  0
   10.7392  -17.8758   22.1752 O   0  0  0  0  0  0  0  0  0  0  0  0
   11.9901  -16.0140   22.7677 N   0  0  0  0  0  0  0  0  0  0  0  0
   12.6643  -16.5915   23.8916 C   0  0  1  0  0  0  0  0  0  0  0  0
   13.9745  -15.9658   24.1947 C   0  0  0  0  0  0  0  0  0  0  0  0
   14.9391  -16.1810   23.1110 C   0  0  0  0  0  0  0  0  0  0  0  0
   14.8664  -17.1470   22.2848 O   0  0  0  0  0  0  0  0  0  0  0  0
   11.7906  -16.7750   25.0854 C   0  0  0  0  0  0  0  0  0  0  0  0
   12.2269  -17.3450   26.1229 O   0  0  0  0  0  0  0  0  0  0  0  0
   15.9942  -15.2657   22.9890 O   0  0  0  0  0  0  0  0  0  0  0  0
   10.4936  -16.3460   25.1165 O   0  0  0  0  0  0  0  0  0  0  0  0
  1  2  1  0
  3  2  1  0
  3  4  1  6
  5  6  2  0
  5  3  1  0
  7  5  1  0
  8  9  1  1
  8  7  1  0
  9 10  1  0
 10 14  1  0
 11 10  2  0
 11 12  1  0
 12 13  1  0
 14 13  2  0
 15  8  1  0
 16 15  2  0
 17 15  1  0
 18 17  1  0
 18 19  1  1
 19 20  1  0
 20 24  1  0
 21 20  2  0
 22 25  1  0
 22 18  1  0
 23 22  2  0
M  END
$$$$
