SHD.pdb
     RDKit          3D

 25 25  0  0  1  0  0  0  0  0999 V2000
   11.6942  -19.2242   17.8076 O   0  0  0  0  0  0  0  0  0  0  0  0
   10.4254  -18.8633   17.3932 C   0  0  0  0  0  0  0  0  0  0  0  0
   10.3997  -17.4143   16.9451 C   0  0  2  0  0  0  0  0  0  0  0  0
   11.1419  -17.2982   15.7346 N   0  0  0  0  0  0  0  0  0  0  0  0
   10.9586  -16.5785   18.0592 C   0  0  0  0  0  0  0  0  0  0  0  0
   12.1109  -16.1197   17.9086 O   0  0  0  0  0  0  0  0  0  0  0  0
   10.2301  -16.3137   19.2286 N   0  0  0  0  0  0  0  0  0  0  0  0
   10.5840  -15.4925   20.3465 C   0  0  1  0  0  0  0  0  0  0  0  0
    9.3935  -14.9068   21.0755 C   0  0  0  0  0  0  0  0  0  0  0  0
    8.5266  -14.1490   20.1391 C   0  0  0  0  0  0  0  0  0  0  0  0
    8.7169  -12.8534   19.6427 C   0  0  0  0  0  0  0  0  0  0  0  0
    7.6761  -12.5107   18.8526 N   0  0  0  0  0  0  0  0  0  0  0  0
    6.8422  -13.5548   18.8417 C   0  0  0  0  0  0  0  0  0  0  0  0
    7.3468  -14.5248   19.6041 N   0  0  0  0  0  0  0  0  0  0  0  0
   11.5907  -16.1112   21.2034 C   0  0  0  0  0  0  0  0  0  0  0  0
   11.5060  -17.3595   21.4690 O   0  0  0  0  0  0  0  0  0  0  0  0
   12.6686  -15.3726   21.7566 N   0  0  0  0  0  0  0  0  0  0  0  0
   13.7291  -15.8917   22.5673 C   0  0  1  0  0  0  0  0  0  0  0  0
   14.9339  -15.0275   22.6085 C   0  0  0  0  0  0  0  0  0  0  0  0
   16.0662  -15.7100   23.2436 C   0  0  0  0  0  0  0  0  0  0  0  0
   17.1741  -15.1406   23.5070 O   0  0  0  0  0  0  0  0  0  0  0  0
   13.2811  -16.3699   23.9063 C   0  0  0  0  0  0  0  0  0  0  0  0
   12.3908  -15.7484   24.5487 O   0  0  0  0  0  0  0  0  0  0  0  0
   15.9070  -17.0634   23.5736 O   0  0  0  0  0  0  0  0  0  0  0  0
   13.8044  -17.4846   24.4985 O   0  0  0  0  0  0  0  0  0  0  0  0
  1  2  1  0
  3  2  1  0
  3  4  1  6
  5  6  2  0
  5  3  1  0
  7  5  1  0
  8  9  1  1
  8  7  1  0
  9 10  1  0
 10 14  1  0
 11 10  2  0
 11 12  1  0
 12 13  1  0
 14 13  2  0
 15  8  1  0
 16 15  2  0
 17 15  1  0
 18 17  1  0
 18 19  1  1
 19 20  1  0
 20 24  1  0
 21 20  2  0
 22 25  1  0
 22 18  1  0
 23 22  2  0
M  END
$$$$
