SHD.pdb
     RDKit          3D

 25 25  0  0  1  0  0  0  0  0999 V2000
   12.8085  -17.8768   18.7560 O   0  0  0  0  0  0  0  0  0  0  0  0
   11.9893  -17.6220   17.6716 C   0  0  0  0  0  0  0  0  0  0  0  0
   12.0146  -16.1477   17.3154 C   0  0  2  0  0  0  0  0  0  0  0  0
   13.2026  -15.8774   16.5770 N   0  0  0  0  0  0  0  0  0  0  0  0
   11.9257  -15.3645   18.5923 C   0  0  0  0  0  0  0  0  0  0  0  0
   12.8892  -14.6218   18.8771 O   0  0  0  0  0  0  0  0  0  0  0  0
   10.8133  -15.4514   19.4429 N   0  0  0  0  0  0  0  0  0  0  0  0
   10.4714  -14.6357   20.5686 C   0  0  1  0  0  0  0  0  0  0  0  0
    9.0150  -14.2241   20.6050 C   0  0  0  0  0  0  0  0  0  0  0  0
    8.5475  -13.8316   19.2522 C   0  0  0  0  0  0  0  0  0  0  0  0
    8.5778  -12.5616   18.6628 C   0  0  0  0  0  0  0  0  0  0  0  0
    8.0140  -12.6149   17.4363 N   0  0  0  0  0  0  0  0  0  0  0  0
    7.6330  -13.8811   17.2435 C   0  0  0  0  0  0  0  0  0  0  0  0
    7.9494  -14.6011   18.3198 N   0  0  0  0  0  0  0  0  0  0  0  0
   10.9972  -15.1609   21.8250 C   0  0  0  0  0  0  0  0  0  0  0  0
   10.7164  -14.5630   22.9203 O   0  0  0  0  0  0  0  0  0  0  0  0
   11.8144  -16.3197   21.8759 N   0  0  0  0  0  0  0  0  0  0  0  0
   12.4228  -16.8818   23.0444 C   0  0  1  0  0  0  0  0  0  0  0  0
   12.3759  -18.3635   23.0941 C   0  0  0  0  0  0  0  0  0  0  0  0
   11.0089  -18.8664   22.9232 C   0  0  0  0  0  0  0  0  0  0  0  0
    9.9884  -18.3309   23.4645 O   0  0  0  0  0  0  0  0  0  0  0  0
   13.7623  -16.3077   23.3580 C   0  0  0  0  0  0  0  0  0  0  0  0
   14.3877  -16.6587   24.3959 O   0  0  0  0  0  0  0  0  0  0  0  0
   10.8294  -19.9996   22.1172 O   0  0  0  0  0  0  0  0  0  0  0  0
   14.3702  -15.3853   22.5539 O   0  0  0  0  0  0  0  0  0  0  0  0
  1  2  1  0
  3  2  1  0
  3  4  1  1
  5  6  2  0
  5  3  1  0
  7  5  1  0
  8  9  1  1
  8  7  1  0
  9 10  1  0
 10 14  1  0
 11 10  2  0
 11 12  1  0
 12 13  1  0
 14 13  2  0
 15  8  1  0
 16 15  2  0
 17 15  1  0
 18 17  1  0
 18 19  1  6
 19 20  1  0
 20 24  1  0
 21 20  2  0
 22 25  1  0
 22 18  1  0
 23 22  2  0
M  END
$$$$
