SHD.pdb
     RDKit          3D

 25 25  0  0  1  0  0  0  0  0999 V2000
    8.3743  -19.0008   19.6170 O   0  0  0  0  0  0  0  0  0  0  0  0
    7.8499  -18.0229   18.7918 C   0  0  0  0  0  0  0  0  0  0  0  0
    8.7619  -16.8116   18.7496 C   0  0  2  0  0  0  0  0  0  0  0  0
    9.9558  -17.1636   18.0567 N   0  0  0  0  0  0  0  0  0  0  0  0
    9.0106  -16.3737   20.1633 C   0  0  0  0  0  0  0  0  0  0  0  0
   10.1215  -16.6527   20.6624 O   0  0  0  0  0  0  0  0  0  0  0  0
    8.0458  -15.6787   20.9079 N   0  0  0  0  0  0  0  0  0  0  0  0
    8.1178  -15.1988   22.2547 C   0  0  1  0  0  0  0  0  0  0  0  0
    6.8939  -14.4233   22.6932 C   0  0  0  0  0  0  0  0  0  0  0  0
    7.0871  -13.8657   24.0550 C   0  0  0  0  0  0  0  0  0  0  0  0
    8.1997  -14.0028   24.8944 C   0  0  0  0  0  0  0  0  0  0  0  0
    7.9618  -13.3830   26.0710 N   0  0  0  0  0  0  0  0  0  0  0  0
    6.7334  -12.8634   25.9900 C   0  0  0  0  0  0  0  0  0  0  0  0
    6.2160  -13.1499   24.7953 N   0  0  0  0  0  0  0  0  0  0  0  0
    8.5713  -16.2207   23.1931 C   0  0  0  0  0  0  0  0  0  0  0  0
    7.9742  -17.3514   23.2251 O   0  0  0  0  0  0  0  0  0  0  0  0
    9.6593  -16.0040   24.0779 N   0  0  0  0  0  0  0  0  0  0  0  0
   10.1886  -16.9417   25.0223 C   0  0  1  0  0  0  0  0  0  0  0  0
   11.6707  -16.9826   25.0644 C   0  0  0  0  0  0  0  0  0  0  0  0
   12.2395  -17.2994   23.7502 C   0  0  0  0  0  0  0  0  0  0  0  0
   11.9578  -18.3551   23.0966 O   0  0  0  0  0  0  0  0  0  0  0  0
    9.5467  -16.8666   26.3657 C   0  0  0  0  0  0  0  0  0  0  0  0
    9.7851  -17.7399   27.2444 O   0  0  0  0  0  0  0  0  0  0  0  0
   13.1416  -16.3813   23.1942 O   0  0  0  0  0  0  0  0  0  0  0  0
    8.6796  -15.8676   26.7082 O   0  0  0  0  0  0  0  0  0  0  0  0
  1  2  1  0
  3  2  1  0
  3  4  1  1
  5  6  2  0
  5  3  1  0
  7  5  1  0
  8  9  1  1
  8  7  1  0
  9 10  1  0
 10 14  1  0
 11 10  2  0
 11 12  1  0
 12 13  1  0
 14 13  2  0
 15  8  1  0
 16 15  2  0
 17 15  1  0
 18 17  1  0
 18 19  1  1
 19 20  1  0
 20 24  1  0
 21 20  2  0
 22 25  1  0
 22 18  1  0
 23 22  2  0
M  END
$$$$
