SHD.pdb
     RDKit          3D

 25 25  0  0  1  0  0  0  0  0999 V2000
    9.7186  -19.8930   18.5454 O   0  0  0  0  0  0  0  0  0  0  0  0
   10.0915  -19.3322   17.3377 C   0  0  0  0  0  0  0  0  0  0  0  0
    9.5400  -17.9252   17.2070 C   0  0  2  0  0  0  0  0  0  0  0  0
    9.9793  -17.3766   15.9678 N   0  0  0  0  0  0  0  0  0  0  0  0
   10.0050  -17.1367   18.3962 C   0  0  0  0  0  0  0  0  0  0  0  0
   11.1559  -16.6527   18.3482 O   0  0  0  0  0  0  0  0  0  0  0  0
    9.1931  -16.9416   19.5236 N   0  0  0  0  0  0  0  0  0  0  0  0
    9.4640  -16.1918   20.7126 C   0  0  1  0  0  0  0  0  0  0  0  0
    8.3647  -15.2203   21.0861 C   0  0  0  0  0  0  0  0  0  0  0  0
    8.1219  -14.2553   19.9850 C   0  0  0  0  0  0  0  0  0  0  0  0
    8.7562  -13.0277   19.7570 C   0  0  0  0  0  0  0  0  0  0  0  0
    8.2146  -12.4292   18.6739 N   0  0  0  0  0  0  0  0  0  0  0  0
    7.2608  -13.2475   18.2196 C   0  0  0  0  0  0  0  0  0  0  0  0
    7.2067  -14.3290   18.9969 N   0  0  0  0  0  0  0  0  0  0  0  0
    9.9490  -17.0272   21.8070 C   0  0  0  0  0  0  0  0  0  0  0  0
    9.2259  -17.9968   22.2231 O   0  0  0  0  0  0  0  0  0  0  0  0
   11.2033  -16.8014   22.4307 N   0  0  0  0  0  0  0  0  0  0  0  0
   11.7902  -17.5893   23.4728 C   0  0  1  0  0  0  0  0  0  0  0  0
   13.2419  -17.8367   23.2960 C   0  0  0  0  0  0  0  0  0  0  0  0
   13.9878  -16.5836   23.1390 C   0  0  0  0  0  0  0  0  0  0  0  0
   14.3468  -15.8504   24.1160 O   0  0  0  0  0  0  0  0  0  0  0  0
   11.4148  -17.1437   24.8450 C   0  0  0  0  0  0  0  0  0  0  0  0
   10.7901  -16.0624   25.0239 O   0  0  0  0  0  0  0  0  0  0  0  0
   14.3173  -16.1824   21.8366 O   0  0  0  0  0  0  0  0  0  0  0  0
   11.7251  -17.8687   25.9609 O   0  0  0  0  0  0  0  0  0  0  0  0
  1  2  1  0
  3  2  1  0
  3  4  1  6
  5  6  2  0
  5  3  1  0
  7  5  1  0
  8  9  1  1
  8  7  1  0
  9 10  1  0
 10 14  1  0
 11 10  2  0
 11 12  1  0
 12 13  1  0
 14 13  2  0
 15  8  1  0
 16 15  2  0
 17 15  1  0
 18 17  1  0
 18 19  1  1
 19 20  1  0
 20 24  1  0
 21 20  2  0
 22 25  1  0
 22 18  1  0
 23 22  2  0
M  END
$$$$
