SHD.pdb
     RDKit          3D

 25 25  0  0  1  0  0  0  0  0999 V2000
    8.7401  -24.7593   16.7272 O   0  0  0  0  0  0  0  0  0  0  0  0
    7.8735  -23.6839   16.7945 C   0  0  0  0  0  0  0  0  0  0  0  0
    7.9279  -22.8708   15.5152 C   0  0  2  0  0  0  0  0  0  0  0  0
    7.6685  -23.7361   14.4136 N   0  0  0  0  0  0  0  0  0  0  0  0
    9.2765  -22.2165   15.4431 C   0  0  0  0  0  0  0  0  0  0  0  0
   10.1034  -22.6954   14.6383 O   0  0  0  0  0  0  0  0  0  0  0  0
    9.6112  -21.1114   16.2402 N   0  0  0  0  0  0  0  0  0  0  0  0
   10.7999  -20.3139   16.2249 C   0  0  1  0  0  0  0  0  0  0  0  0
   10.5611  -18.8686   15.8433 C   0  0  0  0  0  0  0  0  0  0  0  0
   10.1244  -18.7655   14.4286 C   0  0  0  0  0  0  0  0  0  0  0  0
   10.8758  -18.3542   13.3206 C   0  0  0  0  0  0  0  0  0  0  0  0
   10.0974  -18.3553   12.2165 N   0  0  0  0  0  0  0  0  0  0  0  0
    8.8826  -18.7553   12.6034 C   0  0  0  0  0  0  0  0  0  0  0  0
    8.8995  -18.9980   13.9140 N   0  0  0  0  0  0  0  0  0  0  0  0
   11.6260  -20.5117   17.4120 C   0  0  0  0  0  0  0  0  0  0  0  0
   11.1425  -20.2390   18.5644 O   0  0  0  0  0  0  0  0  0  0  0  0
   12.9562  -20.9995   17.3337 N   0  0  0  0  0  0  0  0  0  0  0  0
   13.8497  -21.2162   18.4318 C   0  0  1  0  0  0  0  0  0  0  0  0
   14.7284  -22.4000   18.2687 C   0  0  0  0  0  0  0  0  0  0  0  0
   15.4269  -22.7296   19.5155 C   0  0  0  0  0  0  0  0  0  0  0  0
   16.4675  -23.4615   19.5676 O   0  0  0  0  0  0  0  0  0  0  0  0
   14.5670  -19.9861   18.8728 C   0  0  0  0  0  0  0  0  0  0  0  0
   15.3923  -20.0273   19.8261 O   0  0  0  0  0  0  0  0  0  0  0  0
   14.9104  -22.2038   20.7082 O   0  0  0  0  0  0  0  0  0  0  0  0
   14.3692  -18.7709   18.2803 O   0  0  0  0  0  0  0  0  0  0  0  0
  1  2  1  0
  3  2  1  0
  3  4  1  6
  5  6  2  0
  5  3  1  0
  7  5  1  0
  8  9  1  1
  8  7  1  0
  9 10  1  0
 10 14  1  0
 11 10  2  0
 11 12  1  0
 12 13  1  0
 14 13  2  0
 15  8  1  0
 16 15  2  0
 17 15  1  0
 18 17  1  0
 18 19  1  6
 19 20  1  0
 20 24  1  0
 21 20  2  0
 22 25  1  0
 22 18  1  0
 23 22  2  0
M  END
$$$$
