SHD.pdb
     RDKit          3D

 25 25  0  0  1  0  0  0  0  0999 V2000
    7.5143  -18.3047   18.1540 O   0  0  0  0  0  0  0  0  0  0  0  0
    8.4193  -18.1480   19.1875 C   0  0  0  0  0  0  0  0  0  0  0  0
    9.0998  -16.7949   19.1036 C   0  0  2  0  0  0  0  0  0  0  0  0
   10.3376  -16.9490   18.4154 N   0  0  0  0  0  0  0  0  0  0  0  0
    9.2659  -16.2761   20.5019 C   0  0  0  0  0  0  0  0  0  0  0  0
   10.3417  -16.5314   21.0837 O   0  0  0  0  0  0  0  0  0  0  0  0
    8.2638  -15.5333   21.1442 N   0  0  0  0  0  0  0  0  0  0  0  0
    8.1944  -15.0993   22.5065 C   0  0  1  0  0  0  0  0  0  0  0  0
    7.0346  -14.1697   22.7934 C   0  0  0  0  0  0  0  0  0  0  0  0
    7.0212  -13.7746   24.2239 C   0  0  0  0  0  0  0  0  0  0  0  0
    7.8647  -14.2178   25.2501 C   0  0  0  0  0  0  0  0  0  0  0  0
    7.4946  -13.6529   26.4201 N   0  0  0  0  0  0  0  0  0  0  0  0
    6.4448  -12.8704   26.1536 C   0  0  0  0  0  0  0  0  0  0  0  0
    6.1651  -12.9431   24.8523 N   0  0  0  0  0  0  0  0  0  0  0  0
    8.3573  -16.1961   23.4559 C   0  0  0  0  0  0  0  0  0  0  0  0
    7.7037  -17.2812   23.2779 O   0  0  0  0  0  0  0  0  0  0  0  0
    9.2211  -16.1019   24.5776 N   0  0  0  0  0  0  0  0  0  0  0  0
    9.8026  -17.1943   25.2986 C   0  0  1  0  0  0  0  0  0  0  0  0
   10.6084  -18.1112   24.4560 C   0  0  0  0  0  0  0  0  0  0  0  0
   11.1542  -19.2246   25.2392 C   0  0  0  0  0  0  0  0  0  0  0  0
   10.4371  -20.0179   25.9303 O   0  0  0  0  0  0  0  0  0  0  0  0
   10.4763  -16.7863   26.5643 C   0  0  0  0  0  0  0  0  0  0  0  0
   10.3269  -17.4595   27.6208 O   0  0  0  0  0  0  0  0  0  0  0  0
   12.5431  -19.4151   25.2175 O   0  0  0  0  0  0  0  0  0  0  0  0
   11.2738  -15.6798   26.6456 O   0  0  0  0  0  0  0  0  0  0  0  0
  1  2  1  0
  3  2  1  0
  3  4  1  1
  5  6  2  0
  5  3  1  0
  7  5  1  0
  8  9  1  6
  8  7  1  0
  9 10  1  0
 10 14  1  0
 11 10  2  0
 11 12  1  0
 12 13  1  0
 14 13  2  0
 15  8  1  0
 16 15  2  0
 17 15  1  0
 18 17  1  0
 18 19  1  6
 19 20  1  0
 20 24  1  0
 21 20  2  0
 22 25  1  0
 22 18  1  0
 23 22  2  0
M  END
$$$$
