MGE.pdb
     RDKit          3D

 22 21  0  0  1  0  0  0  0  0999 V2000
   19.1726  -16.2648  -12.1789 C   0  0  0  0  0  0  0  0  0  0  0  0
   20.2802  -17.3218  -13.0806 S   0  0  0  0  0  0  0  0  0  0  0  0
   20.5143  -16.9446  -14.7922 C   0  0  0  0  0  0  0  0  0  0  0  0
   21.0638  -15.6417  -15.1925 C   0  0  0  0  0  0  0  0  0  0  0  0
   21.1140  -15.3977  -16.6531 C   0  0  2  0  0  0  0  0  0  0  0  0
   22.1822  -16.2194  -17.2152 N   0  0  0  0  0  0  0  0  0  0  0  0
   21.4507  -13.9447  -16.9382 C   0  0  0  0  0  0  0  0  0  0  0  0
   22.5933  -13.6910  -17.3263 O   0  0  0  0  0  0  0  0  0  0  0  0
   20.4892  -12.9140  -16.7648 N   0  0  0  0  0  0  0  0  0  0  0  0
   20.7263  -11.5506  -17.2257 C   0  0  0  0  0  0  0  0  0  0  0  0
   21.0773  -10.6692  -16.0702 C   0  0  0  0  0  0  0  0  0  0  0  0
   21.1778  -11.1637  -14.9191 O   0  0  0  0  0  0  0  0  0  0  0  0
   21.3057   -9.2806  -16.2077 N   0  0  0  0  0  0  0  0  0  0  0  0
   21.6083   -8.4946  -15.0308 C   0  0  1  0  0  0  0  0  0  0  0  0
   22.1581   -7.1487  -15.3515 C   0  0  0  0  0  0  0  0  0  0  0  0
   22.3474   -6.2184  -14.2075 C   0  0  0  0  0  0  0  0  0  0  0  0
   22.7814   -4.8700  -14.6325 C   0  0  0  0  0  0  0  0  0  0  0  0
   23.1428   -4.7124  -15.8267 O   0  0  0  0  0  0  0  0  0  0  0  0
   20.4067   -8.4920  -14.1642 C   0  0  0  0  0  0  0  0  0  0  0  0
   19.1233   -8.5606  -14.6929 O   0  0  0  0  0  0  0  0  0  0  0  0
   22.8169   -3.7613  -13.8002 O   0  0  0  0  0  0  0  0  0  0  0  0
   20.4850   -8.4278  -12.8944 O   0  0  0  0  0  0  0  0  0  0  0  0
  2  3  1  0
  2  1  1  0
  3  4  1  0
  4  5  1  0
  5  7  1  0
  5  6  1  6
  7  8  2  0
  9  7  1  0
  9 10  1  0
 10 11  1  0
 11 12  2  0
 11 13  1  0
 13 14  1  0
 14 19  1  0
 14 15  1  6
 15 16  1  0
 17 16  1  0
 18 17  2  0
 19 20  1  0
 21 17  1  0
 22 19  2  0
M  END
$$$$
