MGE.pdb
     RDKit          3D

 22 21  0  0  1  0  0  0  0  0999 V2000
   27.4815  -19.0711   -3.6590 C   0  0  0  0  0  0  0  0  0  0  0  0
   28.8821  -18.9938   -4.7496 S   0  0  0  0  0  0  0  0  0  0  0  0
   29.3208  -20.4921   -5.5797 C   0  0  0  0  0  0  0  0  0  0  0  0
   28.5928  -20.9077   -6.7868 C   0  0  0  0  0  0  0  0  0  0  0  0
   27.7665  -19.8544   -7.4218 C   0  0  2  0  0  0  0  0  0  0  0  0
   26.5546  -19.6850   -6.6250 N   0  0  0  0  0  0  0  0  0  0  0  0
   27.3456  -20.2782   -8.8178 C   0  0  0  0  0  0  0  0  0  0  0  0
   28.2100  -20.7664   -9.5491 O   0  0  0  0  0  0  0  0  0  0  0  0
   26.0082  -20.1192   -9.2683 N   0  0  0  0  0  0  0  0  0  0  0  0
   25.6058  -20.4568  -10.6291 C   0  0  0  0  0  0  0  0  0  0  0  0
   24.1180  -20.5773  -10.7121 C   0  0  0  0  0  0  0  0  0  0  0  0
   23.4471  -20.7324   -9.6607 O   0  0  0  0  0  0  0  0  0  0  0  0
   23.4124  -20.5256  -11.9365 N   0  0  0  0  0  0  0  0  0  0  0  0
   21.9815  -20.3099  -11.9185 C   0  0  1  0  0  0  0  0  0  0  0  0
   21.5178  -19.3724  -12.9781 C   0  0  0  0  0  0  0  0  0  0  0  0
   21.5568  -19.8776  -14.3757 C   0  0  0  0  0  0  0  0  0  0  0  0
   21.6972  -18.7937  -15.3720 C   0  0  0  0  0  0  0  0  0  0  0  0
   20.6787  -18.4553  -16.0275 O   0  0  0  0  0  0  0  0  0  0  0  0
   21.3215  -21.6362  -11.9206 C   0  0  0  0  0  0  0  0  0  0  0  0
   20.0217  -21.8073  -11.4592 O   0  0  0  0  0  0  0  0  0  0  0  0
   22.8811  -18.1209  -15.6341 O   0  0  0  0  0  0  0  0  0  0  0  0
   21.9065  -22.6856  -12.3441 O   0  0  0  0  0  0  0  0  0  0  0  0
  2  3  1  0
  2  1  1  0
  3  4  1  0
  4  5  1  0
  5  7  1  0
  5  6  1  1
  7  8  2  0
  9  7  1  0
  9 10  1  0
 10 11  1  0
 11 12  2  0
 11 13  1  0
 13 14  1  0
 14 19  1  0
 14 15  1  6
 15 16  1  0
 17 16  1  0
 18 17  2  0
 19 20  1  0
 21 17  1  0
 22 19  2  0
M  END
$$$$
