MGE.pdb
     RDKit          3D

 22 21  0  0  1  0  0  0  0  0999 V2000
   25.2377  -21.6340   -8.1598 C   0  0  0  0  0  0  0  0  0  0  0  0
   25.0573  -20.2578   -9.2691 S   0  0  0  0  0  0  0  0  0  0  0  0
   26.3337  -20.0412  -10.4736 C   0  0  0  0  0  0  0  0  0  0  0  0
   26.9577  -21.2115  -11.1065 C   0  0  0  0  0  0  0  0  0  0  0  0
   26.9173  -21.2269  -12.5876 C   0  0  2  0  0  0  0  0  0  0  0  0
   26.6423  -19.8692  -13.0492 N   0  0  0  0  0  0  0  0  0  0  0  0
   25.7912  -22.1188  -13.0795 C   0  0  0  0  0  0  0  0  0  0  0  0
   25.7309  -23.2629  -12.6236 O   0  0  0  0  0  0  0  0  0  0  0  0
   24.8419  -21.6569  -14.0295 N   0  0  0  0  0  0  0  0  0  0  0  0
   23.4581  -22.1182  -14.0262 C   0  0  0  0  0  0  0  0  0  0  0  0
   22.5250  -20.9501  -14.0400 C   0  0  0  0  0  0  0  0  0  0  0  0
   22.9632  -19.8013  -13.7799 O   0  0  0  0  0  0  0  0  0  0  0  0
   21.1478  -21.0734  -14.3356 N   0  0  0  0  0  0  0  0  0  0  0  0
   20.3899  -19.8889  -14.6775 C   0  0  1  0  0  0  0  0  0  0  0  0
   20.9023  -19.1969  -15.8921 C   0  0  0  0  0  0  0  0  0  0  0  0
   20.8980  -19.9811  -17.1550 C   0  0  0  0  0  0  0  0  0  0  0  0
   21.4016  -19.2075  -18.3105 C   0  0  0  0  0  0  0  0  0  0  0  0
   21.6830  -17.9945  -18.1345 O   0  0  0  0  0  0  0  0  0  0  0  0
   18.9574  -20.2633  -14.7252 C   0  0  0  0  0  0  0  0  0  0  0  0
   17.9511  -19.3049  -14.7466 O   0  0  0  0  0  0  0  0  0  0  0  0
   21.5863  -19.7307  -19.5814 O   0  0  0  0  0  0  0  0  0  0  0  0
   18.5729  -21.4775  -14.7498 O   0  0  0  0  0  0  0  0  0  0  0  0
  2  3  1  0
  2  1  1  0
  3  4  1  0
  4  5  1  0
  5  7  1  0
  5  6  1  1
  7  8  2  0
  9  7  1  0
  9 10  1  0
 10 11  1  0
 11 12  2  0
 11 13  1  0
 13 14  1  0
 14 19  1  0
 14 15  1  6
 15 16  1  0
 17 16  1  0
 18 17  2  0
 19 20  1  0
 21 17  1  0
 22 19  2  0
M  END
$$$$
