MGE.pdb
     RDKit          3D

 22 21  0  0  1  0  0  0  0  0999 V2000
   30.0651  -19.9380   -5.4225 C   0  0  0  0  0  0  0  0  0  0  0  0
   28.3909  -20.2506   -4.9161 S   0  0  0  0  0  0  0  0  0  0  0  0
   27.1213  -19.4351   -5.8380 C   0  0  0  0  0  0  0  0  0  0  0  0
   26.4405  -20.1355   -6.9360 C   0  0  0  0  0  0  0  0  0  0  0  0
   27.1318  -20.0827   -8.2455 C   0  0  2  0  0  0  0  0  0  0  0  0
   26.9912  -18.7311   -8.7799 N   0  0  0  0  0  0  0  0  0  0  0  0
   26.4804  -21.0383   -9.2295 C   0  0  0  0  0  0  0  0  0  0  0  0
   27.0612  -22.1014   -9.4596 O   0  0  0  0  0  0  0  0  0  0  0  0
   25.2494  -20.7229   -9.8636 N   0  0  0  0  0  0  0  0  0  0  0  0
   25.1952  -20.0017  -11.1303 C   0  0  0  0  0  0  0  0  0  0  0  0
   23.7787  -19.8748  -11.5913 C   0  0  0  0  0  0  0  0  0  0  0  0
   23.1817  -18.7755  -11.4703 O   0  0  0  0  0  0  0  0  0  0  0  0
   23.0613  -20.9487  -12.1670 N   0  0  0  0  0  0  0  0  0  0  0  0
   21.7704  -20.6935  -12.7693 C   0  0  1  0  0  0  0  0  0  0  0  0
   21.4901  -21.5649  -13.9436 C   0  0  0  0  0  0  0  0  0  0  0  0
   20.1479  -21.4274  -14.5676 C   0  0  0  0  0  0  0  0  0  0  0  0
   20.1912  -21.5165  -16.0432 C   0  0  0  0  0  0  0  0  0  0  0  0
   19.1383  -21.2655  -16.6835 O   0  0  0  0  0  0  0  0  0  0  0  0
   20.7505  -20.7390  -11.6958 C   0  0  0  0  0  0  0  0  0  0  0  0
   19.5736  -20.0039  -11.7733 O   0  0  0  0  0  0  0  0  0  0  0  0
   21.3193  -21.8591  -16.7733 O   0  0  0  0  0  0  0  0  0  0  0  0
   20.8963  -21.4514  -10.6499 O   0  0  0  0  0  0  0  0  0  0  0  0
  2  3  1  0
  2  1  1  0
  3  4  1  0
  4  5  1  0
  5  7  1  0
  5  6  1  6
  7  8  2  0
  9  7  1  0
  9 10  1  0
 10 11  1  0
 11 12  2  0
 11 13  1  0
 13 14  1  0
 14 19  1  0
 14 15  1  6
 15 16  1  0
 17 16  1  0
 18 17  2  0
 19 20  1  0
 21 17  1  0
 22 19  2  0
M  END
$$$$
