MGE.pdb
     RDKit          3D

 22 21  0  0  1  0  0  0  0  0999 V2000
   27.6107  -15.2903  -15.0680 C   0  0  0  0  0  0  0  0  0  0  0  0
   26.2407  -16.4133  -14.9307 S   0  0  0  0  0  0  0  0  0  0  0  0
   24.9029  -16.1696  -16.0610 C   0  0  0  0  0  0  0  0  0  0  0  0
   24.7784  -14.9028  -16.7954 C   0  0  0  0  0  0  0  0  0  0  0  0
   23.4296  -14.2898  -16.7760 C   0  0  2  0  0  0  0  0  0  0  0  0
   22.4895  -15.2403  -17.3634 N   0  0  0  0  0  0  0  0  0  0  0  0
   23.4052  -13.0314  -17.6254 C   0  0  0  0  0  0  0  0  0  0  0  0
   24.0204  -13.0541  -18.6938 O   0  0  0  0  0  0  0  0  0  0  0  0
   22.7023  -11.8700  -17.2084 N   0  0  0  0  0  0  0  0  0  0  0  0
   22.7147  -10.6375  -17.9884 C   0  0  0  0  0  0  0  0  0  0  0  0
   21.8046   -9.6260  -17.3690 C   0  0  0  0  0  0  0  0  0  0  0  0
   21.0943   -9.9493  -16.3839 O   0  0  0  0  0  0  0  0  0  0  0  0
   21.6988   -8.2983  -17.8439 N   0  0  0  0  0  0  0  0  0  0  0  0
   21.0256   -7.3087  -17.0303 C   0  0  1  0  0  0  0  0  0  0  0  0
   21.7183   -7.0431  -15.7395 C   0  0  0  0  0  0  0  0  0  0  0  0
   21.1048   -6.0178  -14.8549 C   0  0  0  0  0  0  0  0  0  0  0  0
   21.8542   -5.8277  -13.5942 C   0  0  0  0  0  0  0  0  0  0  0  0
   21.6321   -6.6241  -12.6466 O   0  0  0  0  0  0  0  0  0  0  0  0
   20.7868   -6.1135  -17.8725 C   0  0  0  0  0  0  0  0  0  0  0  0
   19.9895   -5.0608  -17.4392 O   0  0  0  0  0  0  0  0  0  0  0  0
   22.7903   -4.8263  -13.3842 O   0  0  0  0  0  0  0  0  0  0  0  0
   21.2974   -5.9867  -19.0325 O   0  0  0  0  0  0  0  0  0  0  0  0
  2  3  1  0
  2  1  1  0
  3  4  1  0
  4  5  1  0
  5  7  1  0
  5  6  1  6
  7  8  2  0
  9  7  1  0
  9 10  1  0
 10 11  1  0
 11 12  2  0
 11 13  1  0
 13 14  1  0
 14 19  1  0
 14 15  1  1
 15 16  1  0
 17 16  1  0
 18 17  2  0
 19 20  1  0
 21 17  1  0
 22 19  2  0
M  END
$$$$
