MGE.pdb
     RDKit          3D

 22 21  0  0  1  0  0  0  0  0999 V2000
   21.7978  -17.5793  -15.1265 C   0  0  0  0  0  0  0  0  0  0  0  0
   22.5319  -16.1137  -15.8121 S   0  0  0  0  0  0  0  0  0  0  0  0
   23.1047  -14.9028  -14.6578 C   0  0  0  0  0  0  0  0  0  0  0  0
   23.6057  -13.6064  -15.1354 C   0  0  0  0  0  0  0  0  0  0  0  0
   24.5993  -13.6769  -16.2323 C   0  0  2  0  0  0  0  0  0  0  0  0
   25.8582  -14.1639  -15.6752 N   0  0  0  0  0  0  0  0  0  0  0  0
   24.8534  -12.2955  -16.8090 C   0  0  0  0  0  0  0  0  0  0  0  0
   25.7077  -11.5973  -16.2583 O   0  0  0  0  0  0  0  0  0  0  0  0
   24.1360  -11.8214  -17.9393 N   0  0  0  0  0  0  0  0  0  0  0  0
   24.3643  -10.4936  -18.4982 C   0  0  0  0  0  0  0  0  0  0  0  0
   23.3802   -9.5200  -17.9334 C   0  0  0  0  0  0  0  0  0  0  0  0
   22.4957   -9.9219  -17.1362 O   0  0  0  0  0  0  0  0  0  0  0  0
   23.3928   -8.1435  -18.2567 N   0  0  0  0  0  0  0  0  0  0  0  0
   22.5179   -7.2415  -17.5390 C   0  0  1  0  0  0  0  0  0  0  0  0
   22.6631   -7.3382  -16.0604 C   0  0  0  0  0  0  0  0  0  0  0  0
   21.7942   -6.4469  -15.2477 C   0  0  0  0  0  0  0  0  0  0  0  0
   21.9371   -6.6789  -13.7941 C   0  0  0  0  0  0  0  0  0  0  0  0
   22.0338   -5.6768  -13.0405 O   0  0  0  0  0  0  0  0  0  0  0  0
   22.7046   -5.8834  -18.1008 C   0  0  0  0  0  0  0  0  0  0  0  0
   21.7826   -4.8672  -17.8799 O   0  0  0  0  0  0  0  0  0  0  0  0
   21.9716   -7.9323  -13.2018 O   0  0  0  0  0  0  0  0  0  0  0  0
   23.7154   -5.5756  -18.8123 O   0  0  0  0  0  0  0  0  0  0  0  0
  2  3  1  0
  2  1  1  0
  3  4  1  0
  4  5  1  0
  5  7  1  0
  5  6  1  1
  7  8  2  0
  9  7  1  0
  9 10  1  0
 10 11  1  0
 11 12  2  0
 11 13  1  0
 13 14  1  0
 14 19  1  0
 14 15  1  1
 15 16  1  0
 17 16  1  0
 18 17  2  0
 19 20  1  0
 21 17  1  0
 22 19  2  0
M  END
$$$$
