MGE.pdb
     RDKit          3D

 22 21  0  0  1  0  0  0  0  0999 V2000
   28.2842  -12.4365  -15.7948 C   0  0  0  0  0  0  0  0  0  0  0  0
   27.5108  -13.7789  -14.9248 S   0  0  0  0  0  0  0  0  0  0  0  0
   25.9500  -14.3290  -15.5475 C   0  0  0  0  0  0  0  0  0  0  0  0
   25.0038  -13.3639  -16.1248 C   0  0  0  0  0  0  0  0  0  0  0  0
   24.2537  -12.5474  -15.1419 C   0  0  2  0  0  0  0  0  0  0  0  0
   23.3423  -13.4298  -14.4186 N   0  0  0  0  0  0  0  0  0  0  0  0
   23.4153  -11.4989  -15.8513 C   0  0  0  0  0  0  0  0  0  0  0  0
   24.0116  -10.5718  -16.4038 O   0  0  0  0  0  0  0  0  0  0  0  0
   21.9976  -11.5788  -15.8789 N   0  0  0  0  0  0  0  0  0  0  0  0
   21.1767  -10.5387  -16.4886 C   0  0  0  0  0  0  0  0  0  0  0  0
   21.2877   -9.2694  -15.7065 C   0  0  0  0  0  0  0  0  0  0  0  0
   21.3812   -9.3169  -14.4541 O   0  0  0  0  0  0  0  0  0  0  0  0
   21.2924   -7.9928  -16.3147 N   0  0  0  0  0  0  0  0  0  0  0  0
   21.4672   -6.8175  -15.4887 C   0  0  1  0  0  0  0  0  0  0  0  0
   22.1593   -5.7041  -16.1943 C   0  0  0  0  0  0  0  0  0  0  0  0
   22.2816   -4.4216  -15.4526 C   0  0  0  0  0  0  0  0  0  0  0  0
   22.8493   -3.3345  -16.2792 C   0  0  0  0  0  0  0  0  0  0  0  0
   23.9457   -3.5417  -16.8594 O   0  0  0  0  0  0  0  0  0  0  0  0
   20.1497   -6.4699  -14.9073 C   0  0  0  0  0  0  0  0  0  0  0  0
   18.9600   -6.7689  -15.5606 O   0  0  0  0  0  0  0  0  0  0  0  0
   22.2523   -2.0960  -16.4599 O   0  0  0  0  0  0  0  0  0  0  0  0
   20.0370   -5.8819  -13.7829 O   0  0  0  0  0  0  0  0  0  0  0  0
  2  3  1  0
  2  1  1  0
  3  4  1  0
  4  5  1  0
  5  7  1  0
  5  6  1  6
  7  8  2  0
  9  7  1  0
  9 10  1  0
 10 11  1  0
 11 12  2  0
 11 13  1  0
 13 14  1  0
 14 19  1  0
 14 15  1  6
 15 16  1  0
 17 16  1  0
 18 17  2  0
 19 20  1  0
 21 17  1  0
 22 19  2  0
M  END
$$$$
