MGE.pdb
     RDKit          3D

 22 21  0  0  1  0  0  0  0  0999 V2000
   27.7094  -16.3084  -15.8635 C   0  0  0  0  0  0  0  0  0  0  0  0
   26.5419  -14.9759  -15.7282 S   0  0  0  0  0  0  0  0  0  0  0  0
   25.0292  -15.1566  -16.6259 C   0  0  0  0  0  0  0  0  0  0  0  0
   23.9973  -14.1129  -16.5514 C   0  0  0  0  0  0  0  0  0  0  0  0
   24.2196  -13.0756  -15.5169 C   0  0  2  0  0  0  0  0  0  0  0  0
   23.7619  -13.6057  -14.2356 N   0  0  0  0  0  0  0  0  0  0  0  0
   23.3990  -11.8352  -15.8229 C   0  0  0  0  0  0  0  0  0  0  0  0
   23.6776  -11.2068  -16.8466 O   0  0  0  0  0  0  0  0  0  0  0  0
   22.3501  -11.4109  -14.9646 N   0  0  0  0  0  0  0  0  0  0  0  0
   21.5737  -10.2051  -15.2309 C   0  0  0  0  0  0  0  0  0  0  0  0
   22.1534   -9.0439  -14.4887 C   0  0  0  0  0  0  0  0  0  0  0  0
   23.3452   -9.0917  -14.0926 O   0  0  0  0  0  0  0  0  0  0  0  0
   21.4157   -7.8719  -14.2031 N   0  0  0  0  0  0  0  0  0  0  0  0
   22.0767   -6.5864  -14.2739 C   0  0  1  0  0  0  0  0  0  0  0  0
   22.7321   -6.3371  -15.5873 C   0  0  0  0  0  0  0  0  0  0  0  0
   23.4473   -5.0426  -15.7379 C   0  0  0  0  0  0  0  0  0  0  0  0
   23.7462   -4.7149  -17.1487 C   0  0  0  0  0  0  0  0  0  0  0  0
   23.4536   -5.5636  -18.0294 O   0  0  0  0  0  0  0  0  0  0  0  0
   21.1052   -5.5513  -13.8503 C   0  0  0  0  0  0  0  0  0  0  0  0
   21.4952   -4.4407  -13.1115 O   0  0  0  0  0  0  0  0  0  0  0  0
   24.3296   -3.5293  -17.5695 O   0  0  0  0  0  0  0  0  0  0  0  0
   19.8667   -5.6229  -14.1397 O   0  0  0  0  0  0  0  0  0  0  0  0
  2  3  1  0
  2  1  1  0
  3  4  1  0
  4  5  1  0
  5  7  1  0
  5  6  1  1
  7  8  2  0
  9  7  1  0
  9 10  1  0
 10 11  1  0
 11 12  2  0
 11 13  1  0
 13 14  1  0
 14 19  1  0
 14 15  1  6
 15 16  1  0
 17 16  1  0
 18 17  2  0
 19 20  1  0
 21 17  1  0
 22 19  2  0
M  END
$$$$
