MGE.pdb
     RDKit          3D

 22 21  0  0  1  0  0  0  0  0999 V2000
   28.3959  -18.8715   -5.3956 C   0  0  0  0  0  0  0  0  0  0  0  0
   27.8035  -19.0064   -7.0653 S   0  0  0  0  0  0  0  0  0  0  0  0
   26.4750  -20.1398   -7.3431 C   0  0  0  0  0  0  0  0  0  0  0  0
   25.8333  -20.2158   -8.6630 C   0  0  0  0  0  0  0  0  0  0  0  0
   26.4781  -21.1367   -9.6282 C   0  0  2  0  0  0  0  0  0  0  0  0
   27.8045  -20.6122   -9.9409 N   0  0  0  0  0  0  0  0  0  0  0  0
   25.6860  -21.1902  -10.9226 C   0  0  0  0  0  0  0  0  0  0  0  0
   24.5521  -21.6727  -10.8763 O   0  0  0  0  0  0  0  0  0  0  0  0
   26.2272  -20.7047  -12.1425 N   0  0  0  0  0  0  0  0  0  0  0  0
   25.5471  -20.8937  -13.4190 C   0  0  0  0  0  0  0  0  0  0  0  0
   24.1859  -20.2770  -13.3744 C   0  0  0  0  0  0  0  0  0  0  0  0
   23.7086  -19.9028  -12.2736 O   0  0  0  0  0  0  0  0  0  0  0  0
   23.3916  -20.0898  -14.5292 N   0  0  0  0  0  0  0  0  0  0  0  0
   22.1281  -19.3939  -14.4121 C   0  0  1  0  0  0  0  0  0  0  0  0
   21.7898  -18.5886  -15.6178 C   0  0  0  0  0  0  0  0  0  0  0  0
   20.4881  -17.8709  -15.5936 C   0  0  0  0  0  0  0  0  0  0  0  0
   20.1769  -17.2071  -16.8780 C   0  0  0  0  0  0  0  0  0  0  0  0
   19.6445  -17.8942  -17.7868 O   0  0  0  0  0  0  0  0  0  0  0  0
   21.1005  -20.3816  -14.0080 C   0  0  0  0  0  0  0  0  0  0  0  0
   20.0499  -20.0406  -13.1645 O   0  0  0  0  0  0  0  0  0  0  0  0
   20.4328  -15.8717  -17.1504 O   0  0  0  0  0  0  0  0  0  0  0  0
   21.1241  -21.5899  -14.4104 O   0  0  0  0  0  0  0  0  0  0  0  0
  2  3  1  0
  2  1  1  0
  3  4  1  0
  4  5  1  0
  5  7  1  0
  5  6  1  6
  7  8  2  0
  9  7  1  0
  9 10  1  0
 10 11  1  0
 11 12  2  0
 11 13  1  0
 13 14  1  0
 14 19  1  0
 14 15  1  6
 15 16  1  0
 17 16  1  0
 18 17  2  0
 19 20  1  0
 21 17  1  0
 22 19  2  0
M  END
$$$$
