MGE.pdb
     RDKit          3D

 22 21  0  0  1  0  0  0  0  0999 V2000
   29.3241  -18.6842   -5.4762 C   0  0  0  0  0  0  0  0  0  0  0  0
   27.5596  -18.8932   -5.4743 S   0  0  0  0  0  0  0  0  0  0  0  0
   26.9355  -20.3482   -6.2618 C   0  0  0  0  0  0  0  0  0  0  0  0
   27.1004  -20.5321   -7.7105 C   0  0  0  0  0  0  0  0  0  0  0  0
   25.9352  -20.1359   -8.5356 C   0  0  2  0  0  0  0  0  0  0  0  0
   24.8946  -21.1465   -8.3681 N   0  0  0  0  0  0  0  0  0  0  0  0
   26.3123  -20.1009  -10.0060 C   0  0  0  0  0  0  0  0  0  0  0  0
   26.6602  -19.0164  -10.4786 O   0  0  0  0  0  0  0  0  0  0  0  0
   26.2665  -21.2705  -10.8103 N   0  0  0  0  0  0  0  0  0  0  0  0
   26.5340  -21.2336  -12.2437 C   0  0  0  0  0  0  0  0  0  0  0  0
   25.3596  -21.7645  -13.0014 C   0  0  0  0  0  0  0  0  0  0  0  0
   24.7579  -22.7846  -12.5807 O   0  0  0  0  0  0  0  0  0  0  0  0
   24.8817  -21.1672  -14.1906 N   0  0  0  0  0  0  0  0  0  0  0  0
   23.4560  -21.1229  -14.4352 C   0  0  1  0  0  0  0  0  0  0  0  0
   22.6755  -20.6443  -13.2612 C   0  0  0  0  0  0  0  0  0  0  0  0
   21.2083  -20.5007  -13.4526 C   0  0  0  0  0  0  0  0  0  0  0  0
   20.4279  -21.0404  -12.3181 C   0  0  0  0  0  0  0  0  0  0  0  0
   20.1771  -20.2739  -11.3531 O   0  0  0  0  0  0  0  0  0  0  0  0
   23.2328  -20.3656  -15.6888 C   0  0  0  0  0  0  0  0  0  0  0  0
   22.1336  -20.6079  -16.5040 O   0  0  0  0  0  0  0  0  0  0  0  0
   19.9508  -22.3404  -12.2450 O   0  0  0  0  0  0  0  0  0  0  0  0
   24.0318  -19.4557  -16.0843 O   0  0  0  0  0  0  0  0  0  0  0  0
  2  3  1  0
  2  1  1  0
  3  4  1  0
  4  5  1  0
  5  7  1  0
  5  6  1  6
  7  8  2  0
  9  7  1  0
  9 10  1  0
 10 11  1  0
 11 12  2  0
 11 13  1  0
 13 14  1  0
 14 19  1  0
 14 15  1  1
 15 16  1  0
 17 16  1  0
 18 17  2  0
 19 20  1  0
 21 17  1  0
 22 19  2  0
M  END
$$$$
