MGE.pdb
     RDKit          3D

 22 21  0  0  1  0  0  0  0  0999 V2000
   19.5808  -19.2502  -14.1662 C   0  0  0  0  0  0  0  0  0  0  0  0
   19.9370  -17.7904  -15.1144 S   0  0  0  0  0  0  0  0  0  0  0  0
   18.8562  -16.4111  -14.8773 C   0  0  0  0  0  0  0  0  0  0  0  0
   19.1007  -15.1503  -15.5917 C   0  0  0  0  0  0  0  0  0  0  0  0
   18.1134  -14.0757  -15.3353 C   0  0  2  0  0  0  0  0  0  0  0  0
   16.8129  -14.5271  -15.8224 N   0  0  0  0  0  0  0  0  0  0  0  0
   18.4834  -12.8193  -16.1035 C   0  0  0  0  0  0  0  0  0  0  0  0
   17.9192  -12.6253  -17.1826 O   0  0  0  0  0  0  0  0  0  0  0  0
   19.4431  -11.9004  -15.6021 N   0  0  0  0  0  0  0  0  0  0  0  0
   19.8394  -10.7122  -16.3495 C   0  0  0  0  0  0  0  0  0  0  0  0
   19.4952   -9.4788  -15.5779 C   0  0  0  0  0  0  0  0  0  0  0  0
   18.7726   -9.5678  -14.5534 O   0  0  0  0  0  0  0  0  0  0  0  0
   19.9487   -8.1918  -15.9486 N   0  0  0  0  0  0  0  0  0  0  0  0
   19.6570   -7.0652  -15.0883 C   0  0  1  0  0  0  0  0  0  0  0  0
   20.8795   -6.4131  -14.5435 C   0  0  0  0  0  0  0  0  0  0  0  0
   20.6662   -5.2949  -13.5875 C   0  0  0  0  0  0  0  0  0  0  0  0
   21.9268   -4.6269  -13.1979 C   0  0  0  0  0  0  0  0  0  0  0  0
   22.7510   -5.2748  -12.5031 O   0  0  0  0  0  0  0  0  0  0  0  0
   18.7356   -6.1627  -15.8172 C   0  0  0  0  0  0  0  0  0  0  0  0
   18.6198   -6.1982  -17.2017 O   0  0  0  0  0  0  0  0  0  0  0  0
   22.2647   -3.3284  -13.5484 O   0  0  0  0  0  0  0  0  0  0  0  0
   18.0031   -5.3106  -15.2171 O   0  0  0  0  0  0  0  0  0  0  0  0
  2  3  1  0
  2  1  1  0
  3  4  1  0
  4  5  1  0
  5  7  1  0
  5  6  1  6
  7  8  2  0
  9  7  1  0
  9 10  1  0
 10 11  1  0
 11 12  2  0
 11 13  1  0
 13 14  1  0
 14 19  1  0
 14 15  1  6
 15 16  1  0
 17 16  1  0
 18 17  2  0
 19 20  1  0
 21 17  1  0
 22 19  2  0
M  END
$$$$
