MGE.pdb
     RDKit          3D

 22 21  0  0  1  0  0  0  0  0999 V2000
   28.7700  -20.9638   -4.3605 C   0  0  0  0  0  0  0  0  0  0  0  0
   28.7744  -19.3709   -5.1476 S   0  0  0  0  0  0  0  0  0  0  0  0
   27.7946  -19.2098   -6.6107 C   0  0  0  0  0  0  0  0  0  0  0  0
   27.5045  -20.3890   -7.4385 C   0  0  0  0  0  0  0  0  0  0  0  0
   26.7819  -20.1130   -8.7022 C   0  0  2  0  0  0  0  0  0  0  0  0
   25.4736  -19.5581   -8.3663 N   0  0  0  0  0  0  0  0  0  0  0  0
   26.5528  -21.3995   -9.4756 C   0  0  0  0  0  0  0  0  0  0  0  0
   25.5006  -22.0082   -9.2686 O   0  0  0  0  0  0  0  0  0  0  0  0
   27.5120  -21.8872  -10.4024 N   0  0  0  0  0  0  0  0  0  0  0  0
   27.9040  -21.1244  -11.5823 C   0  0  0  0  0  0  0  0  0  0  0  0
   26.8795  -21.2789  -12.6601 C   0  0  0  0  0  0  0  0  0  0  0  0
   27.1892  -21.0303  -13.8525 O   0  0  0  0  0  0  0  0  0  0  0  0
   25.5538  -21.6980  -12.4025 N   0  0  0  0  0  0  0  0  0  0  0  0
   24.5940  -21.7107  -13.4855 C   0  0  1  0  0  0  0  0  0  0  0  0
   23.2190  -22.0734  -13.0444 C   0  0  0  0  0  0  0  0  0  0  0  0
   22.3421  -20.9527  -12.6142 C   0  0  0  0  0  0  0  0  0  0  0  0
   20.9755  -21.3973  -12.2649 C   0  0  0  0  0  0  0  0  0  0  0  0
   20.6490  -21.4118  -11.0504 O   0  0  0  0  0  0  0  0  0  0  0  0
   24.7029  -20.4204  -14.2052 C   0  0  0  0  0  0  0  0  0  0  0  0
   24.5219  -20.3322  -15.5803 O   0  0  0  0  0  0  0  0  0  0  0  0
   20.0241  -21.8011  -13.1894 O   0  0  0  0  0  0  0  0  0  0  0  0
   24.9661  -19.3280  -13.6052 O   0  0  0  0  0  0  0  0  0  0  0  0
  2  3  1  0
  2  1  1  0
  3  4  1  0
  4  5  1  0
  5  7  1  0
  5  6  1  1
  7  8  2  0
  9  7  1  0
  9 10  1  0
 10 11  1  0
 11 12  2  0
 11 13  1  0
 13 14  1  0
 14 19  1  0
 14 15  1  1
 15 16  1  0
 17 16  1  0
 18 17  2  0
 19 20  1  0
 21 17  1  0
 22 19  2  0
M  END
$$$$
