GHY.pdb
     RDKit          3D

 27 28  0  0  1  0  0  0  0  0999 V2000
   17.1622  -11.6014  -15.4891 N   0  0  0  0  0  0  0  0  0  0  0  0
   18.3834  -11.9166  -16.1602 C   0  0  0  0  0  0  0  0  0  0  0  0
   19.1865  -10.7169  -16.5046 C   0  0  0  0  0  0  0  0  0  0  0  0
   20.4595  -10.7755  -16.5913 O   0  0  0  0  0  0  0  0  0  0  0  0
   18.5299   -9.5042  -16.7368 N   0  0  0  0  0  0  0  0  0  0  0  0
   19.2661   -8.2742  -17.2131 C   0  0  1  0  0  0  0  0  0  0  0  0
   18.2617   -7.4646  -17.9638 C   0  0  0  0  0  0  0  0  0  0  0  0
   18.1359   -7.6351  -19.4014 C   0  0  0  0  0  0  0  0  0  0  0  0
   18.9825   -8.4650  -20.1395 C   0  0  0  0  0  0  0  0  0  0  0  0
   18.6178   -8.4116  -21.4217 N   0  0  0  0  0  0  0  0  0  0  0  0
   17.5589   -7.5712  -21.5386 C   0  0  0  0  0  0  0  0  0  0  0  0
   17.3058   -7.1311  -20.3074 N   0  0  0  0  0  0  0  0  0  0  0  0
   19.7625   -7.6375  -15.9719 C   0  0  0  0  0  0  0  0  0  0  0  0
   18.9436   -7.4563  -15.0015 O   0  0  0  0  0  0  0  0  0  0  0  0
   26.0694   -9.4723  -17.6670 O   0  0  0  0  0  0  0  0  0  0  0  0
   25.1829   -8.9947  -16.7294 C   0  0  0  0  0  0  0  0  0  0  0  0
   24.2798   -9.8653  -16.1815 C   0  0  0  0  0  0  0  0  0  0  0  0
   23.3671   -9.4333  -15.2341 C   0  0  0  0  0  0  0  0  0  0  0  0
   23.3954   -8.1065  -14.8614 C   0  0  0  0  0  0  0  0  0  0  0  0
   22.4250   -7.6296  -13.8677 C   0  0  0  0  0  0  0  0  0  0  0  0
   21.5181   -6.6077  -14.5063 C   0  0  2  0  0  0  0  0  0  0  0  0
   21.0726   -7.2170  -15.7664 N   0  0  0  0  0  0  0  0  0  0  0  0
   22.1892   -5.3404  -14.8354 C   0  0  0  0  0  0  0  0  0  0  0  0
   22.3622   -5.0001  -16.0283 O   0  0  0  0  0  0  0  0  0  0  0  0
   24.3051   -7.2440  -15.4179 C   0  0  0  0  0  0  0  0  0  0  0  0
   25.2219   -7.6741  -16.3683 C   0  0  0  0  0  0  0  0  0  0  0  0
   22.6459   -4.4895  -13.8434 O   0  0  0  0  0  0  0  0  0  0  0  0
  1  2  1  0
  2  3  1  0
  3  5  1  0
  4  3  2  0
  5  6  1  0
  6 13  1  0
  6  7  1  1
  7  8  1  0
  8 12  1  0
  9  8  2  0
  9 10  1  0
 10 11  1  0
 12 11  2  0
 13 14  2  0
 15 16  1  0
 16 17  2  0
 17 18  1  0
 19 18  2  0
 19 20  1  0
 21 20  1  6
 22 21  1  0
 22 13  1  0
 23 21  1  0
 24 23  2  0
 25 19  1  0
 26 16  1  0
 26 25  2  0
 27 23  1  0
M  END
$$$$
