GHY.pdb
     RDKit          3D

 27 28  0  0  1  0  0  0  0  0999 V2000
   23.8020  -22.4421  -17.1998 N   0  0  0  0  0  0  0  0  0  0  0  0
   23.3948  -23.7853  -17.4665 C   0  0  0  0  0  0  0  0  0  0  0  0
   22.0955  -24.1362  -16.8409 C   0  0  0  0  0  0  0  0  0  0  0  0
   21.2418  -23.2353  -16.5388 O   0  0  0  0  0  0  0  0  0  0  0  0
   21.8083  -25.4799  -16.5806 N   0  0  0  0  0  0  0  0  0  0  0  0
   20.4828  -25.9175  -16.0032 C   0  0  1  0  0  0  0  0  0  0  0  0
   19.7968  -26.6767  -17.0898 C   0  0  0  0  0  0  0  0  0  0  0  0
   18.9547  -25.9661  -18.0371 C   0  0  0  0  0  0  0  0  0  0  0  0
   18.3984  -24.7151  -17.7613 C   0  0  0  0  0  0  0  0  0  0  0  0
   17.6818  -24.3266  -18.8174 N   0  0  0  0  0  0  0  0  0  0  0  0
   17.7560  -25.2884  -19.7716 C   0  0  0  0  0  0  0  0  0  0  0  0
   18.5261  -26.2480  -19.2621 N   0  0  0  0  0  0  0  0  0  0  0  0
   20.8461  -26.7322  -14.8214 C   0  0  0  0  0  0  0  0  0  0  0  0
   21.6617  -27.7104  -14.9736 O   0  0  0  0  0  0  0  0  0  0  0  0
   15.9738  -24.1742  -10.0429 O   0  0  0  0  0  0  0  0  0  0  0  0
   17.2105  -24.7086  -10.3224 C   0  0  0  0  0  0  0  0  0  0  0  0
   17.9503  -24.1508  -11.3300 C   0  0  0  0  0  0  0  0  0  0  0  0
   19.2008  -24.6524  -11.6496 C   0  0  0  0  0  0  0  0  0  0  0  0
   19.6754  -25.7252  -10.9257 C   0  0  0  0  0  0  0  0  0  0  0  0
   20.9941  -26.2776  -11.2612 C   0  0  0  0  0  0  0  0  0  0  0  0
   20.8451  -27.2838  -12.3747 C   0  0  2  0  0  0  0  0  0  0  0  0
   20.3700  -26.5148  -13.5324 N   0  0  0  0  0  0  0  0  0  0  0  0
   19.8526  -28.3341  -12.0979 C   0  0  0  0  0  0  0  0  0  0  0  0
   18.7260  -28.3084  -12.6445 O   0  0  0  0  0  0  0  0  0  0  0  0
   18.9245  -26.2754   -9.9185 C   0  0  0  0  0  0  0  0  0  0  0  0
   17.6700  -25.7746   -9.5955 C   0  0  0  0  0  0  0  0  0  0  0  0
   20.1317  -29.3773  -11.2316 O   0  0  0  0  0  0  0  0  0  0  0  0
  1  2  1  0
  2  3  1  0
  3  5  1  0
  4  3  2  0
  5  6  1  0
  6 13  1  0
  6  7  1  6
  7  8  1  0
  8 12  1  0
  9  8  2  0
  9 10  1  0
 10 11  1  0
 12 11  2  0
 13 14  2  0
 15 16  1  0
 16 17  2  0
 17 18  1  0
 19 18  2  0
 19 20  1  0
 21 20  1  1
 22 21  1  0
 22 13  1  0
 23 21  1  0
 24 23  2  0
 25 19  1  0
 26 16  1  0
 26 25  2  0
 27 23  1  0
M  END
$$$$
