GHY.pdb
     RDKit          3D

 27 28  0  0  1  0  0  0  0  0999 V2000
   21.7266  -12.7761  -18.7127 N   0  0  0  0  0  0  0  0  0  0  0  0
   22.6057  -11.6687  -18.5073 C   0  0  0  0  0  0  0  0  0  0  0  0
   21.9014  -10.3626  -18.4758 C   0  0  0  0  0  0  0  0  0  0  0  0
   22.0917   -9.4862  -19.3854 O   0  0  0  0  0  0  0  0  0  0  0  0
   21.0150  -10.0945  -17.4279 N   0  0  0  0  0  0  0  0  0  0  0  0
   20.2655   -8.7867  -17.3288 C   0  0  1  0  0  0  0  0  0  0  0  0
   18.8190   -9.1378  -17.4383 C   0  0  0  0  0  0  0  0  0  0  0  0
   17.8143   -8.1251  -17.1619 C   0  0  0  0  0  0  0  0  0  0  0  0
   17.7722   -6.9013  -17.8332 C   0  0  0  0  0  0  0  0  0  0  0  0
   16.7446   -6.1930  -17.3616 N   0  0  0  0  0  0  0  0  0  0  0  0
   16.1175   -6.9208  -16.4033 C   0  0  0  0  0  0  0  0  0  0  0  0
   16.7905   -8.0669  -16.3179 N   0  0  0  0  0  0  0  0  0  0  0  0
   20.6639   -8.2318  -16.0151 C   0  0  0  0  0  0  0  0  0  0  0  0
   20.7881   -9.0313  -15.0198 O   0  0  0  0  0  0  0  0  0  0  0  0
   26.2307   -4.8889  -18.0087 O   0  0  0  0  0  0  0  0  0  0  0  0
   25.3594   -5.4191  -17.0852 C   0  0  0  0  0  0  0  0  0  0  0  0
   24.8929   -4.6076  -16.0865 C   0  0  0  0  0  0  0  0  0  0  0  0
   24.0142   -5.0938  -15.1331 C   0  0  0  0  0  0  0  0  0  0  0  0
   23.6257   -6.4135  -15.2201 C   0  0  0  0  0  0  0  0  0  0  0  0
   22.7049   -6.9483  -14.2087 C   0  0  0  0  0  0  0  0  0  0  0  0
   21.3241   -6.3900  -14.4459 C   0  0  2  0  0  0  0  0  0  0  0  0
   20.9257   -6.8878  -15.7691 N   0  0  0  0  0  0  0  0  0  0  0  0
   21.2765   -4.9201  -14.4883 C   0  0  0  0  0  0  0  0  0  0  0  0
   21.5580   -4.2422  -13.4734 O   0  0  0  0  0  0  0  0  0  0  0  0
   24.1003   -7.2166  -16.2255 C   0  0  0  0  0  0  0  0  0  0  0  0
   24.9815   -6.7319  -17.1833 C   0  0  0  0  0  0  0  0  0  0  0  0
   20.9228   -4.2448  -15.6440 O   0  0  0  0  0  0  0  0  0  0  0  0
  1  2  1  0
  2  3  1  0
  3  5  1  0
  4  3  2  0
  5  6  1  0
  6 13  1  0
  6  7  1  1
  7  8  1  0
  8 12  1  0
  9  8  2  0
  9 10  1  0
 10 11  1  0
 12 11  2  0
 13 14  2  0
 15 16  1  0
 16 17  2  0
 17 18  1  0
 19 18  2  0
 19 20  1  0
 21 20  1  6
 22 21  1  0
 22 13  1  0
 23 21  1  0
 24 23  2  0
 25 19  1  0
 26 16  1  0
 26 25  2  0
 27 23  1  0
M  END
$$$$
