GHY.pdb
     RDKit          3D

 27 28  0  0  1  0  0  0  0  0999 V2000
   23.0213  -12.7584  -18.9396 N   0  0  0  0  0  0  0  0  0  0  0  0
   23.3092  -12.0422  -17.7373 C   0  0  0  0  0  0  0  0  0  0  0  0
   22.1675  -11.2241  -17.2578 C   0  0  0  0  0  0  0  0  0  0  0  0
   20.9752  -11.6822  -17.2672 O   0  0  0  0  0  0  0  0  0  0  0  0
   22.4100   -9.9291  -16.7888 N   0  0  0  0  0  0  0  0  0  0  0  0
   21.3083   -9.0629  -16.2253 C   0  0  1  0  0  0  0  0  0  0  0  0
   20.8383   -9.7557  -14.9896 C   0  0  0  0  0  0  0  0  0  0  0  0
   19.5956  -10.5082  -15.0203 C   0  0  0  0  0  0  0  0  0  0  0  0
   18.8471  -10.6812  -16.1866 C   0  0  0  0  0  0  0  0  0  0  0  0
   17.7694  -11.4117  -15.8954 N   0  0  0  0  0  0  0  0  0  0  0  0
   17.7955  -11.7187  -14.5739 C   0  0  0  0  0  0  0  0  0  0  0  0
   18.9035  -11.1585  -14.0919 N   0  0  0  0  0  0  0  0  0  0  0  0
   21.9553   -7.7529  -15.9849 C   0  0  0  0  0  0  0  0  0  0  0  0
   23.0457   -7.7179  -15.3105 O   0  0  0  0  0  0  0  0  0  0  0  0
   23.7788    0.7519  -16.3521 O   0  0  0  0  0  0  0  0  0  0  0  0
   23.3510   -0.5285  -16.6176 C   0  0  0  0  0  0  0  0  0  0  0  0
   22.0302   -0.8296  -16.4216 C   0  0  0  0  0  0  0  0  0  0  0  0
   21.5507   -2.1037  -16.6745 C   0  0  0  0  0  0  0  0  0  0  0  0
   22.4397   -3.0549  -17.1274 C   0  0  0  0  0  0  0  0  0  0  0  0
   21.9497   -4.4147  -17.3873 C   0  0  0  0  0  0  0  0  0  0  0  0
   22.1333   -5.2565  -16.1495 C   0  0  2  0  0  0  0  0  0  0  0  0
   21.4702   -6.5332  -16.4459 N   0  0  0  0  0  0  0  0  0  0  0  0
   21.4997   -4.6922  -14.9475 C   0  0  0  0  0  0  0  0  0  0  0  0
   20.2683   -4.8173  -14.7559 O   0  0  0  0  0  0  0  0  0  0  0  0
   23.7608   -2.7409  -17.3197 C   0  0  0  0  0  0  0  0  0  0  0  0
   24.2449   -1.4639  -17.0670 C   0  0  0  0  0  0  0  0  0  0  0  0
   22.2401   -4.0111  -13.9964 O   0  0  0  0  0  0  0  0  0  0  0  0
  1  2  1  0
  2  3  1  0
  3  5  1  0
  4  3  2  0
  5  6  1  0
  6 13  1  0
  6  7  1  1
  7  8  1  0
  8 12  1  0
  9  8  2  0
  9 10  1  0
 10 11  1  0
 12 11  2  0
 13 14  2  0
 15 16  1  0
 16 17  2  0
 17 18  1  0
 19 18  2  0
 19 20  1  0
 21 20  1  6
 22 21  1  0
 22 13  1  0
 23 21  1  0
 24 23  2  0
 25 19  1  0
 26 16  1  0
 26 25  2  0
 27 23  1  0
M  END
$$$$
