GHY.pdb
     RDKit          3D

 27 28  0  0  1  0  0  0  0  0999 V2000
   23.3208  -14.1006  -21.1165 N   0  0  0  0  0  0  0  0  0  0  0  0
   23.3829  -12.7326  -20.7094 C   0  0  0  0  0  0  0  0  0  0  0  0
   23.2929  -12.5569  -19.2384 C   0  0  0  0  0  0  0  0  0  0  0  0
   22.4988  -13.2679  -18.5345 O   0  0  0  0  0  0  0  0  0  0  0  0
   24.0954  -11.5932  -18.6195 N   0  0  0  0  0  0  0  0  0  0  0  0
   23.9175  -11.2166  -17.1675 C   0  0  1  0  0  0  0  0  0  0  0  0
   25.2765  -11.3017  -16.5561 C   0  0  0  0  0  0  0  0  0  0  0  0
   25.8421  -12.6043  -16.2487 C   0  0  0  0  0  0  0  0  0  0  0  0
   25.1511  -13.7978  -16.4686 C   0  0  0  0  0  0  0  0  0  0  0  0
   25.9276  -14.8144  -16.0901 N   0  0  0  0  0  0  0  0  0  0  0  0
   27.1033  -14.3167  -15.6305 C   0  0  0  0  0  0  0  0  0  0  0  0
   27.0074  -12.9932  -15.7440 N   0  0  0  0  0  0  0  0  0  0  0  0
   23.3479   -9.8505  -17.2077 C   0  0  0  0  0  0  0  0  0  0  0  0
   23.6939   -9.0657  -18.1615 O   0  0  0  0  0  0  0  0  0  0  0  0
   18.0430   -3.3109  -17.9843 O   0  0  0  0  0  0  0  0  0  0  0  0
   18.7085   -4.5077  -17.8507 C   0  0  0  0  0  0  0  0  0  0  0  0
   20.0033   -4.5872  -18.2876 C   0  0  0  0  0  0  0  0  0  0  0  0
   20.7158   -5.7692  -18.1752 C   0  0  0  0  0  0  0  0  0  0  0  0
   20.0845   -6.8579  -17.6128 C   0  0  0  0  0  0  0  0  0  0  0  0
   20.8219   -8.1228  -17.4989 C   0  0  0  0  0  0  0  0  0  0  0  0
   21.8543   -8.0019  -16.4061 C   0  0  2  0  0  0  0  0  0  0  0  0
   22.4451   -9.3408  -16.2800 N   0  0  0  0  0  0  0  0  0  0  0  0
   21.2933   -7.6357  -15.0962 C   0  0  0  0  0  0  0  0  0  0  0  0
   20.9483   -8.5201  -14.2791 O   0  0  0  0  0  0  0  0  0  0  0  0
   18.7867   -6.7656  -17.1789 C   0  0  0  0  0  0  0  0  0  0  0  0
   18.0694   -5.5815  -17.2901 C   0  0  0  0  0  0  0  0  0  0  0  0
   21.1318   -6.3110  -14.7277 O   0  0  0  0  0  0  0  0  0  0  0  0
  1  2  1  0
  2  3  1  0
  3  5  1  0
  4  3  2  0
  5  6  1  0
  6 13  1  0
  6  7  1  1
  7  8  1  0
  8 12  1  0
  9  8  2  0
  9 10  1  0
 10 11  1  0
 12 11  2  0
 13 14  2  0
 15 16  1  0
 16 17  2  0
 17 18  1  0
 19 18  2  0
 19 20  1  0
 21 20  1  6
 22 21  1  0
 22 13  1  0
 23 21  1  0
 24 23  2  0
 25 19  1  0
 26 16  1  0
 26 25  2  0
 27 23  1  0
M  END
$$$$
