GHY.pdb
     RDKit          3D

 27 28  0  0  1  0  0  0  0  0999 V2000
   28.6409  -27.7108  -16.4469 N   0  0  0  0  0  0  0  0  0  0  0  0
   27.8744  -26.9118  -17.3499 C   0  0  0  0  0  0  0  0  0  0  0  0
   27.7632  -25.4942  -16.9244 C   0  0  0  0  0  0  0  0  0  0  0  0
   28.1565  -25.1174  -15.7689 O   0  0  0  0  0  0  0  0  0  0  0  0
   27.2168  -24.5604  -17.8104 N   0  0  0  0  0  0  0  0  0  0  0  0
   27.0823  -23.0995  -17.4505 C   0  0  1  0  0  0  0  0  0  0  0  0
   27.2611  -22.3481  -18.7277 C   0  0  0  0  0  0  0  0  0  0  0  0
   28.3780  -21.4291  -18.8665 C   0  0  0  0  0  0  0  0  0  0  0  0
   29.3670  -21.2909  -17.8902 C   0  0  0  0  0  0  0  0  0  0  0  0
   30.2483  -20.3790  -18.3042 N   0  0  0  0  0  0  0  0  0  0  0  0
   29.8612  -19.9204  -19.5212 C   0  0  0  0  0  0  0  0  0  0  0  0
   28.7399  -20.5752  -19.8171 N   0  0  0  0  0  0  0  0  0  0  0  0
   25.7298  -22.9884  -16.8582 C   0  0  0  0  0  0  0  0  0  0  0  0
   24.7617  -23.6262  -17.4071 O   0  0  0  0  0  0  0  0  0  0  0  0
   19.1045  -19.9629  -12.0517 O   0  0  0  0  0  0  0  0  0  0  0  0
   20.3558  -20.2860  -12.5238 C   0  0  0  0  0  0  0  0  0  0  0  0
   20.8234  -21.5559  -12.3183 C   0  0  0  0  0  0  0  0  0  0  0  0
   22.0762  -21.9301  -12.7742 C   0  0  0  0  0  0  0  0  0  0  0  0
   22.8343  -20.9894  -13.4378 C   0  0  0  0  0  0  0  0  0  0  0  0
   24.1708  -21.3664  -13.9157 C   0  0  0  0  0  0  0  0  0  0  0  0
   24.0441  -22.0907  -15.2325 C   0  0  2  0  0  0  0  0  0  0  0  0
   25.4187  -22.2386  -15.7284 N   0  0  0  0  0  0  0  0  0  0  0  0
   23.2799  -21.3490  -16.2477 C   0  0  0  0  0  0  0  0  0  0  0  0
   22.1011  -21.6716  -16.5220 O   0  0  0  0  0  0  0  0  0  0  0  0
   22.3547  -19.7201  -13.6373 C   0  0  0  0  0  0  0  0  0  0  0  0
   21.0985  -19.3417  -13.1814 C   0  0  0  0  0  0  0  0  0  0  0  0
   23.8357  -20.2777  -16.9260 O   0  0  0  0  0  0  0  0  0  0  0  0
  1  2  1  0
  2  3  1  0
  3  5  1  0
  4  3  2  0
  5  6  1  0
  6 13  1  0
  6  7  1  6
  7  8  1  0
  8 12  1  0
  9  8  2  0
  9 10  1  0
 10 11  1  0
 12 11  2  0
 13 14  2  0
 15 16  1  0
 16 17  2  0
 17 18  1  0
 19 18  2  0
 19 20  1  0
 21 20  1  1
 22 21  1  0
 22 13  1  0
 23 21  1  0
 24 23  2  0
 25 19  1  0
 26 16  1  0
 26 25  2  0
 27 23  1  0
M  END
$$$$
