GHY.pdb
     RDKit          3D

 27 28  0  0  1  0  0  0  0  0999 V2000
   34.2555   -7.9267  -17.9485 N   0  0  0  0  0  0  0  0  0  0  0  0
   33.1542   -8.6526  -17.3996 C   0  0  0  0  0  0  0  0  0  0  0  0
   32.0954   -8.9487  -18.3967 C   0  0  0  0  0  0  0  0  0  0  0  0
   32.3872   -9.2268  -19.6088 O   0  0  0  0  0  0  0  0  0  0  0  0
   30.7566   -8.9206  -17.9938 N   0  0  0  0  0  0  0  0  0  0  0  0
   29.6275   -9.2351  -18.9468 C   0  0  1  0  0  0  0  0  0  0  0  0
   29.9028  -10.6077  -19.4642 C   0  0  0  0  0  0  0  0  0  0  0  0
   28.9487  -11.2391  -20.3601 C   0  0  0  0  0  0  0  0  0  0  0  0
   28.2097  -12.3682  -20.0009 C   0  0  0  0  0  0  0  0  0  0  0  0
   27.4275  -12.7081  -21.0268 N   0  0  0  0  0  0  0  0  0  0  0  0
   27.6365  -11.8329  -22.0424 C   0  0  0  0  0  0  0  0  0  0  0  0
   28.5525  -10.9736  -21.5996 N   0  0  0  0  0  0  0  0  0  0  0  0
   28.4047   -9.1260  -18.1190 C   0  0  0  0  0  0  0  0  0  0  0  0
   28.5102   -9.2356  -16.8454 O   0  0  0  0  0  0  0  0  0  0  0  0
   21.6959   -6.1492  -14.0005 O   0  0  0  0  0  0  0  0  0  0  0  0
   22.8243   -6.5189  -14.6954 C   0  0  0  0  0  0  0  0  0  0  0  0
   23.3936   -5.6109  -15.5470 C   0  0  0  0  0  0  0  0  0  0  0  0
   24.5300   -5.9349  -16.2688 C   0  0  0  0  0  0  0  0  0  0  0  0
   25.0677   -7.1935  -16.1046 C   0  0  0  0  0  0  0  0  0  0  0  0
   26.2649   -7.5575  -16.8732 C   0  0  0  0  0  0  0  0  0  0  0  0
   25.9534   -8.7447  -17.7497 C   0  0  2  0  0  0  0  0  0  0  0  0
   27.1260   -8.9034  -18.6199 N   0  0  0  0  0  0  0  0  0  0  0  0
   24.7781   -8.5535  -18.6139 C   0  0  0  0  0  0  0  0  0  0  0  0
   23.6362   -8.8878  -18.2224 O   0  0  0  0  0  0  0  0  0  0  0  0
   24.4879   -8.0945  -15.2484 C   0  0  0  0  0  0  0  0  0  0  0  0
   23.3481   -7.7726  -14.5229 C   0  0  0  0  0  0  0  0  0  0  0  0
   24.8965   -8.0006  -19.8775 O   0  0  0  0  0  0  0  0  0  0  0  0
  1  2  1  0
  2  3  1  0
  3  5  1  0
  4  3  2  0
  5  6  1  0
  6 13  1  0
  6  7  1  1
  7  8  1  0
  8 12  1  0
  9  8  2  0
  9 10  1  0
 10 11  1  0
 12 11  2  0
 13 14  2  0
 15 16  1  0
 16 17  2  0
 17 18  1  0
 19 18  2  0
 19 20  1  0
 21 20  1  1
 22 21  1  0
 22 13  1  0
 23 21  1  0
 24 23  2  0
 25 19  1  0
 26 16  1  0
 26 25  2  0
 27 23  1  0
M  END
$$$$
