GHY.pdb
     RDKit          3D

 27 28  0  0  1  0  0  0  0  0999 V2000
   23.1999  -17.5469  -17.0744 N   0  0  0  0  0  0  0  0  0  0  0  0
   24.4240  -17.4005  -16.3522 C   0  0  0  0  0  0  0  0  0  0  0  0
   25.0456  -18.6981  -15.9882 C   0  0  0  0  0  0  0  0  0  0  0  0
   24.4204  -19.8000  -16.1511 O   0  0  0  0  0  0  0  0  0  0  0  0
   26.3395  -18.7059  -15.4579 N   0  0  0  0  0  0  0  0  0  0  0  0
   26.9785  -19.9669  -14.9257 C   0  0  1  0  0  0  0  0  0  0  0  0
   28.3436  -20.0160  -15.5273 C   0  0  0  0  0  0  0  0  0  0  0  0
   28.5044  -20.4643  -16.9001 C   0  0  0  0  0  0  0  0  0  0  0  0
   27.4344  -20.9128  -17.6775 C   0  0  0  0  0  0  0  0  0  0  0  0
   27.8970  -21.2518  -18.8820 N   0  0  0  0  0  0  0  0  0  0  0  0
   29.2365  -21.0368  -18.9104 C   0  0  0  0  0  0  0  0  0  0  0  0
   29.5552  -20.5666  -17.7058 N   0  0  0  0  0  0  0  0  0  0  0  0
   26.9627  -19.7963  -13.4550 C   0  0  0  0  0  0  0  0  0  0  0  0
   27.2994  -18.6610  -12.9620 O   0  0  0  0  0  0  0  0  0  0  0  0
   20.4497  -21.2326  -11.8722 O   0  0  0  0  0  0  0  0  0  0  0  0
   21.7234  -20.7899  -11.5986 C   0  0  0  0  0  0  0  0  0  0  0  0
   22.4796  -20.2994  -12.6288 C   0  0  0  0  0  0  0  0  0  0  0  0
   23.7671  -19.8418  -12.4048 C   0  0  0  0  0  0  0  0  0  0  0  0
   24.2616  -19.8950  -11.1192 C   0  0  0  0  0  0  0  0  0  0  0  0
   25.6303  -19.4261  -10.8674 C   0  0  0  0  0  0  0  0  0  0  0  0
   26.5966  -20.5616  -11.0947 C   0  0  2  0  0  0  0  0  0  0  0  0
   26.5990  -20.7851  -12.5464 N   0  0  0  0  0  0  0  0  0  0  0  0
   26.1958  -21.8215  -10.4491 C   0  0  0  0  0  0  0  0  0  0  0  0
   25.8822  -22.8202  -11.1369 O   0  0  0  0  0  0  0  0  0  0  0  0
   23.4941  -20.3889  -10.0955 C   0  0  0  0  0  0  0  0  0  0  0  0
   22.2023  -20.8486  -10.3168 C   0  0  0  0  0  0  0  0  0  0  0  0
   26.1544  -21.9421   -9.0706 O   0  0  0  0  0  0  0  0  0  0  0  0
  1  2  1  0
  2  3  1  0
  3  5  1  0
  4  3  2  0
  5  6  1  0
  6 13  1  0
  6  7  1  6
  7  8  1  0
  8 12  1  0
  9  8  2  0
  9 10  1  0
 10 11  1  0
 12 11  2  0
 13 14  2  0
 15 16  1  0
 16 17  2  0
 17 18  1  0
 19 18  2  0
 19 20  1  0
 21 20  1  6
 22 21  1  0
 22 13  1  0
 23 21  1  0
 24 23  2  0
 25 19  1  0
 26 16  1  0
 26 25  2  0
 27 23  1  0
M  END
$$$$
