GHY.pdb
     RDKit          3D

 27 28  0  0  1  0  0  0  0  0999 V2000
   36.4005  -10.8655  -17.8327 N   0  0  0  0  0  0  0  0  0  0  0  0
   35.3766  -11.7662  -17.4065 C   0  0  0  0  0  0  0  0  0  0  0  0
   34.2095  -11.7987  -18.3228 C   0  0  0  0  0  0  0  0  0  0  0  0
   34.1469  -11.0312  -19.3419 O   0  0  0  0  0  0  0  0  0  0  0  0
   33.1637  -12.6887  -18.0586 N   0  0  0  0  0  0  0  0  0  0  0  0
   31.8984  -12.7038  -18.8836 C   0  0  1  0  0  0  0  0  0  0  0  0
   31.6442  -14.1375  -19.2116 C   0  0  0  0  0  0  0  0  0  0  0  0
   32.3825  -14.7653  -20.2943 C   0  0  0  0  0  0  0  0  0  0  0  0
   33.2897  -14.0662  -21.0934 C   0  0  0  0  0  0  0  0  0  0  0  0
   33.8022  -14.9091  -21.9916 N   0  0  0  0  0  0  0  0  0  0  0  0
   33.2546  -16.1357  -21.7997 C   0  0  0  0  0  0  0  0  0  0  0  0
   32.4130  -16.0025  -20.7762 N   0  0  0  0  0  0  0  0  0  0  0  0
   30.8783  -12.0856  -18.0062 C   0  0  0  0  0  0  0  0  0  0  0  0
   30.9982  -12.2137  -16.7356 O   0  0  0  0  0  0  0  0  0  0  0  0
   31.4867   -5.7061  -20.3156 O   0  0  0  0  0  0  0  0  0  0  0  0
   31.0356   -6.6716  -19.4453 C   0  0  0  0  0  0  0  0  0  0  0  0
   31.9205   -7.6186  -19.0050 C   0  0  0  0  0  0  0  0  0  0  0  0
   31.5155   -8.6111  -18.1285 C   0  0  0  0  0  0  0  0  0  0  0  0
   30.2005   -8.6163  -17.7150 C   0  0  0  0  0  0  0  0  0  0  0  0
   29.7517   -9.6703  -16.7962 C   0  0  0  0  0  0  0  0  0  0  0  0
   28.8775  -10.6455  -17.5442 C   0  0  2  0  0  0  0  0  0  0  0  0
   29.7820  -11.3572  -18.4567 N   0  0  0  0  0  0  0  0  0  0  0  0
   27.8339  -10.0043  -18.3592 C   0  0  0  0  0  0  0  0  0  0  0  0
   27.9018  -10.0175  -19.6098 O   0  0  0  0  0  0  0  0  0  0  0  0
   29.3234   -7.6620  -18.1635 C   0  0  0  0  0  0  0  0  0  0  0  0
   29.7266   -6.6652  -19.0426 C   0  0  0  0  0  0  0  0  0  0  0  0
   26.7507   -9.3718  -17.7732 O   0  0  0  0  0  0  0  0  0  0  0  0
  1  2  1  0
  2  3  1  0
  3  5  1  0
  4  3  2  0
  5  6  1  0
  6 13  1  0
  6  7  1  1
  7  8  1  0
  8 12  1  0
  9  8  2  0
  9 10  1  0
 10 11  1  0
 12 11  2  0
 13 14  2  0
 15 16  1  0
 16 17  2  0
 17 18  1  0
 19 18  2  0
 19 20  1  0
 21 20  1  6
 22 21  1  0
 22 13  1  0
 23 21  1  0
 24 23  2  0
 25 19  1  0
 26 16  1  0
 26 25  2  0
 27 23  1  0
M  END
$$$$
