GHY.pdb
     RDKit          3D

 27 28  0  0  1  0  0  0  0  0999 V2000
   22.9670  -34.4888  -16.1798 N   0  0  0  0  0  0  0  0  0  0  0  0
   23.9030  -33.7800  -15.3656 C   0  0  0  0  0  0  0  0  0  0  0  0
   23.7725  -34.0916  -13.9204 C   0  0  0  0  0  0  0  0  0  0  0  0
   22.8178  -34.8193  -13.4840 O   0  0  0  0  0  0  0  0  0  0  0  0
   24.7161  -33.5751  -13.0268 N   0  0  0  0  0  0  0  0  0  0  0  0
   24.7200  -33.9485  -11.5631 C   0  0  1  0  0  0  0  0  0  0  0  0
   26.0652  -33.5580  -11.0476 C   0  0  0  0  0  0  0  0  0  0  0  0
   26.3641  -33.7190   -9.6347 C   0  0  0  0  0  0  0  0  0  0  0  0
   25.4358  -34.2202   -8.7196 C   0  0  0  0  0  0  0  0  0  0  0  0
   26.0021  -34.2482   -7.5120 N   0  0  0  0  0  0  0  0  0  0  0  0
   27.2714  -33.7799   -7.6154 C   0  0  0  0  0  0  0  0  0  0  0  0
   27.4438  -33.4761   -8.9005 N   0  0  0  0  0  0  0  0  0  0  0  0
   23.5948  -33.1802  -10.9833 C   0  0  0  0  0  0  0  0  0  0  0  0
   23.4752  -31.9392  -11.2844 O   0  0  0  0  0  0  0  0  0  0  0  0
   15.5302  -31.0395   -9.0546 O   0  0  0  0  0  0  0  0  0  0  0  0
   16.7046  -31.6761   -9.3843 C   0  0  0  0  0  0  0  0  0  0  0  0
   17.4243  -31.2078  -10.4503 C   0  0  0  0  0  0  0  0  0  0  0  0
   18.6125  -31.8140  -10.8219 C   0  0  0  0  0  0  0  0  0  0  0  0
   19.0462  -32.8980  -10.0892 C   0  0  0  0  0  0  0  0  0  0  0  0
   20.2975  -33.5607  -10.4787 C   0  0  0  0  0  0  0  0  0  0  0  0
   21.4446  -32.9510   -9.7125 C   0  0  2  0  0  0  0  0  0  0  0  0
   22.6338  -33.7073  -10.1264 N   0  0  0  0  0  0  0  0  0  0  0  0
   21.3191  -33.0793   -8.2522 C   0  0  0  0  0  0  0  0  0  0  0  0
   21.8444  -34.0426   -7.6481 O   0  0  0  0  0  0  0  0  0  0  0  0
   18.3160  -33.3579   -9.0232 C   0  0  0  0  0  0  0  0  0  0  0  0
   17.1239  -32.7520   -8.6479 C   0  0  0  0  0  0  0  0  0  0  0  0
   20.6223  -32.1449   -7.5052 O   0  0  0  0  0  0  0  0  0  0  0  0
  1  2  1  0
  2  3  1  0
  3  5  1  0
  4  3  2  0
  5  6  1  0
  6 13  1  0
  6  7  1  1
  7  8  1  0
  8 12  1  0
  9  8  2  0
  9 10  1  0
 10 11  1  0
 12 11  2  0
 13 14  2  0
 15 16  1  0
 16 17  2  0
 17 18  1  0
 19 18  2  0
 19 20  1  0
 21 20  1  6
 22 21  1  0
 22 13  1  0
 23 21  1  0
 24 23  2  0
 25 19  1  0
 26 16  1  0
 26 25  2  0
 27 23  1  0
M  END
$$$$
