GHY.pdb
     RDKit          3D

 27 28  0  0  1  0  0  0  0  0999 V2000
   25.8137  -26.8835  -16.9263 N   0  0  0  0  0  0  0  0  0  0  0  0
   25.2713  -25.5856  -17.1764 C   0  0  0  0  0  0  0  0  0  0  0  0
   26.0610  -24.4935  -16.5546 C   0  0  0  0  0  0  0  0  0  0  0  0
   26.9641  -24.7418  -15.6861 O   0  0  0  0  0  0  0  0  0  0  0  0
   25.8055  -23.1714  -16.9321 N   0  0  0  0  0  0  0  0  0  0  0  0
   26.5642  -22.0086  -16.3369 C   0  0  1  0  0  0  0  0  0  0  0  0
   26.3719  -20.8707  -17.2834 C   0  0  0  0  0  0  0  0  0  0  0  0
   26.8915  -19.5582  -16.9388 C   0  0  0  0  0  0  0  0  0  0  0  0
   27.7777  -19.3520  -15.8793 C   0  0  0  0  0  0  0  0  0  0  0  0
   28.0698  -18.0518  -15.8165 N   0  0  0  0  0  0  0  0  0  0  0  0
   27.3994  -17.4067  -16.8043 C   0  0  0  0  0  0  0  0  0  0  0  0
   26.7090  -18.3456  -17.4489 N   0  0  0  0  0  0  0  0  0  0  0  0
   25.9482  -21.8090  -15.0053 C   0  0  0  0  0  0  0  0  0  0  0  0
   24.6731  -21.8954  -14.8963 O   0  0  0  0  0  0  0  0  0  0  0  0
   24.9770  -19.6858   -6.5983 O   0  0  0  0  0  0  0  0  0  0  0  0
   25.5085  -20.0188   -7.8229 C   0  0  0  0  0  0  0  0  0  0  0  0
   25.2774  -21.2748   -8.3154 C   0  0  0  0  0  0  0  0  0  0  0  0
   25.7905  -21.6581   -9.5430 C   0  0  0  0  0  0  0  0  0  0  0  0
   26.5375  -20.7407  -10.2505 C   0  0  0  0  0  0  0  0  0  0  0  0
   27.1003  -21.1361  -11.5480 C   0  0  0  0  0  0  0  0  0  0  0  0
   25.9891  -21.2441  -12.5620 C   0  0  2  0  0  0  0  0  0  0  0  0
   26.6547  -21.5361  -13.8383 N   0  0  0  0  0  0  0  0  0  0  0  0
   25.2183  -20.0027  -12.7336 C   0  0  0  0  0  0  0  0  0  0  0  0
   25.6869  -19.0455  -13.3916 O   0  0  0  0  0  0  0  0  0  0  0  0
   26.7622  -19.4852   -9.7462 C   0  0  0  0  0  0  0  0  0  0  0  0
   26.2488  -19.0977   -8.5153 C   0  0  0  0  0  0  0  0  0  0  0  0
   23.9588  -19.8553  -12.1781 O   0  0  0  0  0  0  0  0  0  0  0  0
  1  2  1  0
  2  3  1  0
  3  5  1  0
  4  3  2  0
  5  6  1  0
  6 13  1  0
  6  7  1  6
  7  8  1  0
  8 12  1  0
  9  8  2  0
  9 10  1  0
 10 11  1  0
 12 11  2  0
 13 14  2  0
 15 16  1  0
 16 17  2  0
 17 18  1  0
 19 18  2  0
 19 20  1  0
 21 20  1  1
 22 21  1  0
 22 13  1  0
 23 21  1  0
 24 23  2  0
 25 19  1  0
 26 16  1  0
 26 25  2  0
 27 23  1  0
M  END
$$$$
