GHY.pdb
     RDKit          3D

 27 28  0  0  1  0  0  0  0  0999 V2000
   15.2275  -18.8916    2.1510 N   0  0  0  0  0  0  0  0  0  0  0  0
   16.4708  -18.9030    2.8547 C   0  0  0  0  0  0  0  0  0  0  0  0
   16.3243  -18.6133    4.3029 C   0  0  0  0  0  0  0  0  0  0  0  0
   15.2013  -18.7531    4.8953 O   0  0  0  0  0  0  0  0  0  0  0  0
   17.4409  -18.1800    5.0248 N   0  0  0  0  0  0  0  0  0  0  0  0
   17.3979  -17.9807    6.5216 C   0  0  1  0  0  0  0  0  0  0  0  0
   17.0261  -19.3065    7.0976 C   0  0  0  0  0  0  0  0  0  0  0  0
   16.7017  -19.4068    8.5105 C   0  0  0  0  0  0  0  0  0  0  0  0
   16.8245  -18.3298    9.3910 C   0  0  0  0  0  0  0  0  0  0  0  0
   16.4548  -18.7318   10.6082 N   0  0  0  0  0  0  0  0  0  0  0  0
   16.0952  -20.0387   10.5446 C   0  0  0  0  0  0  0  0  0  0  0  0
   16.2586  -20.3997    9.2731 N   0  0  0  0  0  0  0  0  0  0  0  0
   18.7610  -17.5207    6.8719 C   0  0  0  0  0  0  0  0  0  0  0  0
   19.7465  -17.9017    6.1448 O   0  0  0  0  0  0  0  0  0  0  0  0
   20.1114  -10.8223    5.2406 O   0  0  0  0  0  0  0  0  0  0  0  0
   20.1323  -11.8449    6.1609 C   0  0  0  0  0  0  0  0  0  0  0  0
   21.2997  -12.0982    6.8291 C   0  0  0  0  0  0  0  0  0  0  0  0
   21.3718  -13.1163    7.7649 C   0  0  0  0  0  0  0  0  0  0  0  0
   20.2377  -13.8632    8.0017 C   0  0  0  0  0  0  0  0  0  0  0  0
   20.3013  -14.9555    8.9813 C   0  0  0  0  0  0  0  0  0  0  0  0
   20.4385  -16.2700    8.2548 C   0  0  2  0  0  0  0  0  0  0  0  0
   19.0650  -16.6871    7.9434 N   0  0  0  0  0  0  0  0  0  0  0  0
   21.0565  -17.3336    9.0619 C   0  0  0  0  0  0  0  0  0  0  0  0
   20.3607  -18.2587    9.5401 O   0  0  0  0  0  0  0  0  0  0  0  0
   19.0739  -13.5996    7.3255 C   0  0  0  0  0  0  0  0  0  0  0  0
   18.9983  -12.5791    6.3864 C   0  0  0  0  0  0  0  0  0  0  0  0
   22.4175  -17.3457    9.3151 O   0  0  0  0  0  0  0  0  0  0  0  0
  1  2  1  0
  2  3  1  0
  3  5  1  0
  4  3  2  0
  5  6  1  0
  6 13  1  0
  6  7  1  1
  7  8  1  0
  8 12  1  0
  9  8  2  0
  9 10  1  0
 10 11  1  0
 12 11  2  0
 13 14  2  0
 15 16  1  0
 16 17  2  0
 17 18  1  0
 19 18  2  0
 19 20  1  0
 21 20  1  1
 22 21  1  0
 22 13  1  0
 23 21  1  0
 24 23  2  0
 25 19  1  0
 26 16  1  0
 26 25  2  0
 27 23  1  0
M  END
$$$$
