HDF.pdb
     RDKit          3D

 30 31  0  0  1  0  0  0  0  0999 V2000
   22.2282  -14.3065  -20.5807 N   0  0  0  0  0  0  0  0  0  0  0  0
   22.4960  -13.8221  -19.2277 C   0  0  1  0  0  0  0  0  0  0  0  0
   23.9656  -13.9486  -19.0052 C   0  0  0  0  0  0  0  0  0  0  0  0
   24.4202  -15.3511  -18.9358 C   0  0  0  0  0  0  0  0  0  0  0  0
   23.6499  -16.4914  -18.9683 C   0  0  0  0  0  0  0  0  0  0  0  0
   24.4357  -17.5794  -18.8804 N   0  0  0  0  0  0  0  0  0  0  0  0
   25.6946  -17.1303  -18.7932 C   0  0  0  0  0  0  0  0  0  0  0  0
   25.6896  -15.7760  -18.8265 N   0  0  0  0  0  0  0  0  0  0  0  0
   21.9635  -12.4492  -19.1022 C   0  0  0  0  0  0  0  0  0  0  0  0
   21.9655  -11.7134  -20.1292 O   0  0  0  0  0  0  0  0  0  0  0  0
   21.4476  -11.9118  -17.8987 N   0  0  0  0  0  0  0  0  0  0  0  0
   20.9325  -10.5284  -17.9118 C   0  0  1  0  0  0  0  0  0  0  0  0
   19.4264  -10.6205  -18.1273 C   0  0  0  0  0  0  0  0  0  0  0  0
   18.8082   -9.3086  -18.1195 C   0  0  0  0  0  0  0  0  0  0  0  0
   19.3751   -8.2810  -18.5290 O   0  0  0  0  0  0  0  0  0  0  0  0
   21.2954   -9.8521  -16.6655 C   0  0  0  0  0  0  0  0  0  0  0  0
   21.0391  -10.3582  -15.5571 O   0  0  0  0  0  0  0  0  0  0  0  0
   17.5033   -9.1554  -17.6316 O   0  0  0  0  0  0  0  0  0  0  0  0
   21.9641   -8.5769  -16.5919 N   0  0  0  0  0  0  0  0  0  0  0  0
   22.3355   -7.9660  -15.3599 C   0  0  1  0  0  0  0  0  0  0  0  0
   23.7913   -7.7059  -15.2007 C   0  0  0  0  0  0  0  0  0  0  0  0
   24.6521   -8.8381  -15.5473 C   0  0  0  0  0  0  0  0  0  0  0  0
   24.7110   -9.9619  -14.7576 C   0  0  0  0  0  0  0  0  0  0  0  0
   25.5256  -11.0399  -15.0765 C   0  0  0  0  0  0  0  0  0  0  0  0
   26.3052  -11.0115  -16.2055 C   0  0  0  0  0  0  0  0  0  0  0  0
   26.2626   -9.9064  -17.0041 C   0  0  0  0  0  0  0  0  0  0  0  0
   25.4399   -8.8244  -16.6769 C   0  0  0  0  0  0  0  0  0  0  0  0
   21.5648   -6.7307  -15.0304 C   0  0  0  0  0  0  0  0  0  0  0  0
   20.8394   -6.1700  -15.8852 O   0  0  0  0  0  0  0  0  0  0  0  0
   21.6194   -6.1538  -13.7680 O   0  0  0  0  0  0  0  0  0  0  0  0
  2  1  1  6
  2  9  1  0
  2  3  1  0
  3  4  1  0
  4  5  2  0
  4  8  1  0
  5  6  1  0
  6  7  1  0
  8  7  2  0
  9 10  2  0
 11 12  1  0
 11  9  1  0
 12 13  1  1
 13 14  1  0
 14 18  1  0
 14 15  2  0
 16 17  2  0
 16 12  1  0
 19 16  1  0
 20 21  1  6
 20 19  1  0
 22 27  1  0
 22 21  1  0
 23 22  2  0
 24 25  2  0
 24 23  1  0
 25 26  1  0
 26 27  2  0
 28 20  1  0
 28 30  1  0
 29 28  2  0
M  END
$$$$
