HDF.pdb
     RDKit          3D

 30 31  0  0  1  0  0  0  0  0999 V2000
   25.6542  -32.0987   -8.0255 N   0  0  0  0  0  0  0  0  0  0  0  0
   26.3957  -33.3571   -7.9663 C   0  0  1  0  0  0  0  0  0  0  0  0
   27.3826  -33.3315   -9.0846 C   0  0  0  0  0  0  0  0  0  0  0  0
   26.7696  -33.5934  -10.4014 C   0  0  0  0  0  0  0  0  0  0  0  0
   26.4588  -32.6818  -11.3849 C   0  0  0  0  0  0  0  0  0  0  0  0
   25.9117  -33.3124  -12.4395 N   0  0  0  0  0  0  0  0  0  0  0  0
   25.8768  -34.6139  -12.1253 C   0  0  0  0  0  0  0  0  0  0  0  0
   26.3975  -34.7891  -10.8869 N   0  0  0  0  0  0  0  0  0  0  0  0
   26.9860  -33.4958   -6.6185 C   0  0  0  0  0  0  0  0  0  0  0  0
   27.2179  -32.4438   -5.9586 O   0  0  0  0  0  0  0  0  0  0  0  0
   27.3034  -34.7397   -6.0221 N   0  0  0  0  0  0  0  0  0  0  0  0
   27.8453  -34.7417   -4.6490 C   0  0  1  0  0  0  0  0  0  0  0  0
   27.0702  -35.7983   -3.8705 C   0  0  0  0  0  0  0  0  0  0  0  0
   27.2343  -35.6295   -2.4394 C   0  0  0  0  0  0  0  0  0  0  0  0
   27.7881  -34.6431   -1.9243 O   0  0  0  0  0  0  0  0  0  0  0  0
   29.2864  -34.9950   -4.6848 C   0  0  0  0  0  0  0  0  0  0  0  0
   29.7754  -35.8386   -5.4590 O   0  0  0  0  0  0  0  0  0  0  0  0
   26.7543  -36.6112   -1.5618 O   0  0  0  0  0  0  0  0  0  0  0  0
   30.2562  -34.3189   -3.8593 N   0  0  0  0  0  0  0  0  0  0  0  0
   31.6488  -34.6156   -3.8979 C   0  0  1  0  0  0  0  0  0  0  0  0
   32.5363  -33.4415   -4.1128 C   0  0  0  0  0  0  0  0  0  0  0  0
   32.6897  -33.0442   -5.5133 C   0  0  0  0  0  0  0  0  0  0  0  0
   33.6175  -33.6444   -6.3312 C   0  0  0  0  0  0  0  0  0  0  0  0
   33.7721  -33.2734   -7.6601 C   0  0  0  0  0  0  0  0  0  0  0  0
   32.9909  -32.2829   -8.2002 C   0  0  0  0  0  0  0  0  0  0  0  0
   32.0633  -31.6735   -7.4070 C   0  0  0  0  0  0  0  0  0  0  0  0
   31.9131  -32.0521   -6.0696 C   0  0  0  0  0  0  0  0  0  0  0  0
   32.1395  -35.4108   -2.7336 C   0  0  0  0  0  0  0  0  0  0  0  0
   31.3810  -35.7004   -1.7786 O   0  0  0  0  0  0  0  0  0  0  0  0
   33.4516  -35.8607   -2.6606 O   0  0  0  0  0  0  0  0  0  0  0  0
  2  1  1  1
  2  9  1  0
  2  3  1  0
  3  4  1  0
  4  5  2  0
  4  8  1  0
  5  6  1  0
  6  7  1  0
  8  7  2  0
  9 10  2  0
 11 12  1  0
 11  9  1  0
 12 13  1  1
 13 14  1  0
 14 18  1  0
 14 15  2  0
 16 17  2  0
 16 12  1  0
 19 16  1  0
 20 21  1  1
 20 19  1  0
 22 27  1  0
 22 21  1  0
 23 22  2  0
 24 25  2  0
 24 23  1  0
 25 26  1  0
 26 27  2  0
 28 20  1  0
 28 30  1  0
 29 28  2  0
M  END
$$$$
