HDF.pdb
     RDKit          3D

 30 31  0  0  1  0  0  0  0  0999 V2000
   24.4557  -25.2258  -16.1687 N   0  0  0  0  0  0  0  0  0  0  0  0
   23.9924  -24.7333  -14.8726 C   0  0  1  0  0  0  0  0  0  0  0  0
   23.7750  -25.9288  -14.0073 C   0  0  0  0  0  0  0  0  0  0  0  0
   22.4578  -26.5608  -14.2165 C   0  0  0  0  0  0  0  0  0  0  0  0
   21.2194  -26.0651  -13.8761 C   0  0  0  0  0  0  0  0  0  0  0  0
   20.2611  -26.9391  -14.2322 N   0  0  0  0  0  0  0  0  0  0  0  0
   20.8888  -27.9802  -14.7942 C   0  0  0  0  0  0  0  0  0  0  0  0
   22.2246  -27.7542  -14.7866 N   0  0  0  0  0  0  0  0  0  0  0  0
   24.9787  -23.7617  -14.3552 C   0  0  0  0  0  0  0  0  0  0  0  0
   26.2034  -23.9838  -14.5714 O   0  0  0  0  0  0  0  0  0  0  0  0
   24.6305  -22.5944  -13.6345 N   0  0  0  0  0  0  0  0  0  0  0  0
   25.7066  -21.6599  -13.2498 C   0  0  1  0  0  0  0  0  0  0  0  0
   25.3889  -20.3245  -13.9123 C   0  0  0  0  0  0  0  0  0  0  0  0
   26.4307  -19.3470  -13.6622 C   0  0  0  0  0  0  0  0  0  0  0  0
   27.6179  -19.5105  -13.9922 O   0  0  0  0  0  0  0  0  0  0  0  0
   25.7905  -21.5733  -11.7911 C   0  0  0  0  0  0  0  0  0  0  0  0
   24.9045  -22.0581  -11.0628 O   0  0  0  0  0  0  0  0  0  0  0  0
   26.1171  -18.1432  -13.0166 O   0  0  0  0  0  0  0  0  0  0  0  0
   26.8679  -20.9423  -11.0700 N   0  0  0  0  0  0  0  0  0  0  0  0
   26.8436  -20.7398   -9.6603 C   0  0  1  0  0  0  0  0  0  0  0  0
   27.9828  -19.9520   -9.1184 C   0  0  0  0  0  0  0  0  0  0  0  0
   28.1325  -20.0221   -7.6639 C   0  0  0  0  0  0  0  0  0  0  0  0
   27.5408  -19.0969   -6.8370 C   0  0  0  0  0  0  0  0  0  0  0  0
   27.6784  -19.1535   -5.4566 C   0  0  0  0  0  0  0  0  0  0  0  0
   28.4199  -20.1496   -4.8727 C   0  0  0  0  0  0  0  0  0  0  0  0
   29.0161  -21.0788   -5.6739 C   0  0  0  0  0  0  0  0  0  0  0  0
   28.8733  -21.0158   -7.0633 C   0  0  0  0  0  0  0  0  0  0  0  0
   25.5576  -20.1868   -9.1417 C   0  0  0  0  0  0  0  0  0  0  0  0
   24.4687  -20.7729   -9.3465 O   0  0  0  0  0  0  0  0  0  0  0  0
   25.5146  -19.0044   -8.4140 O   0  0  0  0  0  0  0  0  0  0  0  0
  2  1  1  6
  2  9  1  0
  2  3  1  0
  3  4  1  0
  4  5  2  0
  4  8  1  0
  5  6  1  0
  6  7  1  0
  8  7  2  0
  9 10  2  0
 11 12  1  0
 11  9  1  0
 12 13  1  6
 13 14  1  0
 14 18  1  0
 14 15  2  0
 16 17  2  0
 16 12  1  0
 19 16  1  0
 20 21  1  6
 20 19  1  0
 22 27  1  0
 22 21  1  0
 23 22  2  0
 24 25  2  0
 24 23  1  0
 25 26  1  0
 26 27  2  0
 28 20  1  0
 28 30  1  0
 29 28  2  0
M  END
$$$$
