HDF.pdb
     RDKit          3D

 30 31  0  0  1  0  0  0  0  0999 V2000
   25.9673  -17.8908  -17.4534 N   0  0  0  0  0  0  0  0  0  0  0  0
   26.8358  -18.6922  -16.5929 C   0  0  1  0  0  0  0  0  0  0  0  0
   27.8088  -17.7526  -15.9638 C   0  0  0  0  0  0  0  0  0  0  0  0
   28.7939  -17.2148  -16.9221 C   0  0  0  0  0  0  0  0  0  0  0  0
   29.0366  -15.8961  -17.2335 C   0  0  0  0  0  0  0  0  0  0  0  0
   30.0129  -15.8138  -18.1549 N   0  0  0  0  0  0  0  0  0  0  0  0
   30.3853  -17.0718  -18.4245 C   0  0  0  0  0  0  0  0  0  0  0  0
   29.6466  -17.9267  -17.6770 N   0  0  0  0  0  0  0  0  0  0  0  0
   25.9936  -19.4459  -15.6405 C   0  0  0  0  0  0  0  0  0  0  0  0
   24.9748  -18.8717  -15.1627 O   0  0  0  0  0  0  0  0  0  0  0  0
   26.2602  -20.7756  -15.2352 N   0  0  0  0  0  0  0  0  0  0  0  0
   25.3374  -21.4157  -14.2771 C   0  0  1  0  0  0  0  0  0  0  0  0
   25.1177  -22.8436  -14.7630 C   0  0  0  0  0  0  0  0  0  0  0  0
   24.2706  -23.5894  -13.8522 C   0  0  0  0  0  0  0  0  0  0  0  0
   23.3211  -23.0839  -13.2295 O   0  0  0  0  0  0  0  0  0  0  0  0
   25.8982  -21.3470  -12.9268 C   0  0  0  0  0  0  0  0  0  0  0  0
   27.1283  -21.3705  -12.7358 O   0  0  0  0  0  0  0  0  0  0  0  0
   24.5068  -24.9545  -13.6399 O   0  0  0  0  0  0  0  0  0  0  0  0
   25.1150  -21.2472  -11.7203 N   0  0  0  0  0  0  0  0  0  0  0  0
   25.6951  -21.2142  -10.4198 C   0  0  1  0  0  0  0  0  0  0  0  0
   26.7865  -20.2193  -10.2431 C   0  0  0  0  0  0  0  0  0  0  0  0
   27.3138  -20.1317   -8.8803 C   0  0  0  0  0  0  0  0  0  0  0  0
   26.7482  -19.2979   -7.9450 C   0  0  0  0  0  0  0  0  0  0  0  0
   27.2422  -19.2062   -6.6507 C   0  0  0  0  0  0  0  0  0  0  0  0
   28.3243  -19.9569   -6.2653 C   0  0  0  0  0  0  0  0  0  0  0  0
   28.9015  -20.7915   -7.1769 C   0  0  0  0  0  0  0  0  0  0  0  0
   28.3989  -20.8789   -8.4786 C   0  0  0  0  0  0  0  0  0  0  0  0
   24.7061  -21.0786   -9.3098 C   0  0  0  0  0  0  0  0  0  0  0  0
   25.0161  -21.3518   -8.1264 O   0  0  0  0  0  0  0  0  0  0  0  0
   23.4067  -20.6461   -9.5416 O   0  0  0  0  0  0  0  0  0  0  0  0
  2  1  1  6
  2  9  1  0
  2  3  1  0
  3  4  1  0
  4  5  2  0
  4  8  1  0
  5  6  1  0
  6  7  1  0
  8  7  2  0
  9 10  2  0
 11 12  1  0
 11  9  1  0
 12 13  1  6
 13 14  1  0
 14 18  1  0
 14 15  2  0
 16 17  2  0
 16 12  1  0
 19 16  1  0
 20 21  1  6
 20 19  1  0
 22 27  1  0
 22 21  1  0
 23 22  2  0
 24 25  2  0
 24 23  1  0
 25 26  1  0
 26 27  2  0
 28 20  1  0
 28 30  1  0
 29 28  2  0
M  END
$$$$
