HDF.pdb
     RDKit          3D

 30 31  0  0  1  0  0  0  0  0999 V2000
   28.9430  -22.1769  -17.9604 N   0  0  0  0  0  0  0  0  0  0  0  0
   28.9554  -22.4808  -16.5306 C   0  0  1  0  0  0  0  0  0  0  0  0
   30.3863  -22.5878  -16.1228 C   0  0  0  0  0  0  0  0  0  0  0  0
   31.0657  -23.7621  -16.7039 C   0  0  0  0  0  0  0  0  0  0  0  0
   31.9641  -23.7881  -17.7466 C   0  0  0  0  0  0  0  0  0  0  0  0
   32.3596  -25.0521  -17.9808 N   0  0  0  0  0  0  0  0  0  0  0  0
   31.7160  -25.8204  -17.0922 C   0  0  0  0  0  0  0  0  0  0  0  0
   30.9284  -25.0400  -16.3139 N   0  0  0  0  0  0  0  0  0  0  0  0
   28.1816  -21.4420  -15.8190 C   0  0  0  0  0  0  0  0  0  0  0  0
   28.3149  -20.2416  -16.1893 O   0  0  0  0  0  0  0  0  0  0  0  0
   27.2963  -21.7145  -14.7487 N   0  0  0  0  0  0  0  0  0  0  0  0
   26.2366  -20.7321  -14.4469 C   0  0  1  0  0  0  0  0  0  0  0  0
   25.3844  -20.6023  -15.7040 C   0  0  0  0  0  0  0  0  0  0  0  0
   24.2232  -19.7646  -15.4735 C   0  0  0  0  0  0  0  0  0  0  0  0
   23.0646  -20.1011  -15.7727 O   0  0  0  0  0  0  0  0  0  0  0  0
   25.4736  -21.1692  -13.2768 C   0  0  0  0  0  0  0  0  0  0  0  0
   24.8665  -22.2563  -13.2702 O   0  0  0  0  0  0  0  0  0  0  0  0
   24.3795  -18.5029  -14.8836 O   0  0  0  0  0  0  0  0  0  0  0  0
   25.3498  -20.4162  -12.0534 N   0  0  0  0  0  0  0  0  0  0  0  0
   24.5252  -20.8301  -10.9682 C   0  0  1  0  0  0  0  0  0  0  0  0
   25.0260  -20.4545   -9.6190 C   0  0  0  0  0  0  0  0  0  0  0  0
   26.4611  -20.6665   -9.4230 C   0  0  0  0  0  0  0  0  0  0  0  0
   27.1981  -19.8577   -8.5908 C   0  0  0  0  0  0  0  0  0  0  0  0
   28.5599  -20.0493   -8.3998 C   0  0  0  0  0  0  0  0  0  0  0  0
   29.2158  -21.0664   -9.0466 C   0  0  0  0  0  0  0  0  0  0  0  0
   28.5043  -21.8816   -9.8772 C   0  0  0  0  0  0  0  0  0  0  0  0
   27.1332  -21.6830  -10.0649 C   0  0  0  0  0  0  0  0  0  0  0  0
   23.0918  -20.4346  -11.1009 C   0  0  0  0  0  0  0  0  0  0  0  0
   22.7169  -19.6411  -11.9959 O   0  0  0  0  0  0  0  0  0  0  0  0
   22.1183  -20.9274  -10.2414 O   0  0  0  0  0  0  0  0  0  0  0  0
  2  1  1  6
  2  9  1  0
  2  3  1  0
  3  4  1  0
  4  5  2  0
  4  8  1  0
  5  6  1  0
  6  7  1  0
  8  7  2  0
  9 10  2  0
 11 12  1  0
 11  9  1  0
 12 13  1  6
 13 14  1  0
 14 18  1  0
 14 15  2  0
 16 17  2  0
 16 12  1  0
 19 16  1  0
 20 21  1  1
 20 19  1  0
 22 27  1  0
 22 21  1  0
 23 22  2  0
 24 25  2  0
 24 23  1  0
 25 26  1  0
 26 27  2  0
 28 20  1  0
 28 30  1  0
 29 28  2  0
M  END
$$$$
