HDF.pdb
     RDKit          3D

 30 31  0  0  1  0  0  0  0  0999 V2000
   26.4877  -20.5125  -16.0082 N   0  0  0  0  0  0  0  0  0  0  0  0
   27.0414  -21.1913  -14.8379 C   0  0  1  0  0  0  0  0  0  0  0  0
   28.5197  -20.9963  -14.8831 C   0  0  0  0  0  0  0  0  0  0  0  0
   29.1616  -21.7082  -16.0053 C   0  0  0  0  0  0  0  0  0  0  0  0
   29.3521  -23.0642  -16.1472 C   0  0  0  0  0  0  0  0  0  0  0  0
   29.9762  -23.3211  -17.3106 N   0  0  0  0  0  0  0  0  0  0  0  0
   30.1790  -22.1359  -17.9006 C   0  0  0  0  0  0  0  0  0  0  0  0
   29.6851  -21.1526  -17.1103 N   0  0  0  0  0  0  0  0  0  0  0  0
   26.3807  -20.6616  -13.6267 C   0  0  0  0  0  0  0  0  0  0  0  0
   26.4754  -19.4244  -13.3891 O   0  0  0  0  0  0  0  0  0  0  0  0
   25.6442  -21.4596  -12.7187 N   0  0  0  0  0  0  0  0  0  0  0  0
   24.9897  -20.7973  -11.5733 C   0  0  1  0  0  0  0  0  0  0  0  0
   23.5800  -21.3693  -11.4795 C   0  0  0  0  0  0  0  0  0  0  0  0
   22.7061  -20.7937  -12.4838 C   0  0  0  0  0  0  0  0  0  0  0  0
   22.2758  -21.4274  -13.4627 O   0  0  0  0  0  0  0  0  0  0  0  0
   25.7793  -21.0106  -10.3595 C   0  0  0  0  0  0  0  0  0  0  0  0
   26.4959  -22.0198  -10.2236 O   0  0  0  0  0  0  0  0  0  0  0  0
   22.3057  -19.4550  -12.3752 O   0  0  0  0  0  0  0  0  0  0  0  0
   25.8109  -20.1082   -9.2354 N   0  0  0  0  0  0  0  0  0  0  0  0
   26.4685  -20.4180   -8.0105 C   0  0  1  0  0  0  0  0  0  0  0  0
   27.6689  -19.5912   -7.7145 C   0  0  0  0  0  0  0  0  0  0  0  0
   28.2011  -19.7557   -6.3607 C   0  0  0  0  0  0  0  0  0  0  0  0
   29.1272  -20.7286   -6.0678 C   0  0  0  0  0  0  0  0  0  0  0  0
   29.6364  -20.8940   -4.7868 C   0  0  0  0  0  0  0  0  0  0  0  0
   29.2222  -20.0783   -3.7639 C   0  0  0  0  0  0  0  0  0  0  0  0
   28.3038  -19.1058   -4.0316 C   0  0  0  0  0  0  0  0  0  0  0  0
   27.7953  -18.9449   -5.3240 C   0  0  0  0  0  0  0  0  0  0  0  0
   25.5685  -20.4426   -6.8197 C   0  0  0  0  0  0  0  0  0  0  0  0
   24.5624  -19.6981   -6.7502 O   0  0  0  0  0  0  0  0  0  0  0  0
   25.8076  -21.2880   -5.7439 O   0  0  0  0  0  0  0  0  0  0  0  0
  2  1  1  6
  2  9  1  0
  2  3  1  0
  3  4  1  0
  4  5  2  0
  4  8  1  0
  5  6  1  0
  6  7  1  0
  8  7  2  0
  9 10  2  0
 11 12  1  0
 11  9  1  0
 12 13  1  1
 13 14  1  0
 14 18  1  0
 14 15  2  0
 16 17  2  0
 16 12  1  0
 19 16  1  0
 20 21  1  1
 20 19  1  0
 22 27  1  0
 22 21  1  0
 23 22  2  0
 24 25  2  0
 24 23  1  0
 25 26  1  0
 26 27  2  0
 28 20  1  0
 28 30  1  0
 29 28  2  0
M  END
$$$$
