HDF.pdb
     RDKit          3D

 30 31  0  0  1  0  0  0  0  0999 V2000
   21.6366  -10.3628  -21.8135 N   0  0  0  0  0  0  0  0  0  0  0  0
   21.2034  -10.0878  -20.4447 C   0  0  1  0  0  0  0  0  0  0  0  0
   21.8188  -11.1336  -19.5770 C   0  0  0  0  0  0  0  0  0  0  0  0
   21.2373  -12.4737  -19.7876 C   0  0  0  0  0  0  0  0  0  0  0  0
   20.5975  -13.2712  -18.8659 C   0  0  0  0  0  0  0  0  0  0  0  0
   20.2100  -14.4219  -19.4446 N   0  0  0  0  0  0  0  0  0  0  0  0
   20.6019  -14.3527  -20.7234 C   0  0  0  0  0  0  0  0  0  0  0  0
   21.2269  -13.1697  -20.9362 N   0  0  0  0  0  0  0  0  0  0  0  0
   21.5722   -8.6984  -20.1015 C   0  0  0  0  0  0  0  0  0  0  0  0
   22.0492   -7.9661  -21.0137 O   0  0  0  0  0  0  0  0  0  0  0  0
   21.4184   -8.1390  -18.8104 N   0  0  0  0  0  0  0  0  0  0  0  0
   21.4998   -6.6720  -18.6669 C   0  0  1  0  0  0  0  0  0  0  0  0
   20.4146   -6.0806  -19.5590 C   0  0  0  0  0  0  0  0  0  0  0  0
   20.3861   -4.6332  -19.4712 C   0  0  0  0  0  0  0  0  0  0  0  0
   19.3671   -3.9839  -19.1796 O   0  0  0  0  0  0  0  0  0  0  0  0
   21.3518   -6.3024  -17.2584 C   0  0  0  0  0  0  0  0  0  0  0  0
   20.6255   -6.9604  -16.4903 O   0  0  0  0  0  0  0  0  0  0  0  0
   21.5516   -3.8963  -19.7217 O   0  0  0  0  0  0  0  0  0  0  0  0
   22.0076   -5.1803  -16.6342 N   0  0  0  0  0  0  0  0  0  0  0  0
   21.9312   -4.9167  -15.2365 C   0  0  1  0  0  0  0  0  0  0  0  0
   23.0355   -5.4962  -14.4260 C   0  0  0  0  0  0  0  0  0  0  0  0
   22.9355   -6.9402  -14.2074 C   0  0  0  0  0  0  0  0  0  0  0  0
   23.7851   -7.8206  -14.8343 C   0  0  0  0  0  0  0  0  0  0  0  0
   23.6971   -9.1917  -14.6352 C   0  0  0  0  0  0  0  0  0  0  0  0
   22.7453   -9.7121  -13.7947 C   0  0  0  0  0  0  0  0  0  0  0  0
   21.8915   -8.8569  -13.1617 C   0  0  0  0  0  0  0  0  0  0  0  0
   21.9858   -7.4772  -13.3668 C   0  0  0  0  0  0  0  0  0  0  0  0
   21.7578   -3.4744  -14.8924 C   0  0  0  0  0  0  0  0  0  0  0  0
   21.7874   -2.5872  -15.7774 O   0  0  0  0  0  0  0  0  0  0  0  0
   21.5574   -3.0576  -13.5827 O   0  0  0  0  0  0  0  0  0  0  0  0
  2  1  1  6
  2  9  1  0
  2  3  1  0
  3  4  1  0
  4  5  2  0
  4  8  1  0
  5  6  1  0
  6  7  1  0
  8  7  2  0
  9 10  2  0
 11 12  1  0
 11  9  1  0
 12 13  1  6
 13 14  1  0
 14 18  1  0
 14 15  2  0
 16 17  2  0
 16 12  1  0
 19 16  1  0
 20 21  1  1
 20 19  1  0
 22 27  1  0
 22 21  1  0
 23 22  2  0
 24 25  2  0
 24 23  1  0
 25 26  1  0
 26 27  2  0
 28 20  1  0
 28 30  1  0
 29 28  2  0
M  END
$$$$
