HDF.pdb
     RDKit          3D

 30 31  0  0  1  0  0  0  0  0999 V2000
   27.7696  -19.7978  -15.2861 N   0  0  0  0  0  0  0  0  0  0  0  0
   27.9531  -18.7118  -14.3248 C   0  0  1  0  0  0  0  0  0  0  0  0
   27.6954  -17.4376  -15.0563 C   0  0  0  0  0  0  0  0  0  0  0  0
   28.5643  -17.2637  -16.2365 C   0  0  0  0  0  0  0  0  0  0  0  0
   28.2385  -17.4524  -17.5606 C   0  0  0  0  0  0  0  0  0  0  0  0
   29.3050  -17.1923  -18.3377 N   0  0  0  0  0  0  0  0  0  0  0  0
   30.2985  -16.8413  -17.5110 C   0  0  0  0  0  0  0  0  0  0  0  0
   29.8524  -16.8834  -16.2325 N   0  0  0  0  0  0  0  0  0  0  0  0
   27.0703  -18.9527  -13.1642 C   0  0  0  0  0  0  0  0  0  0  0  0
   27.0065  -18.0629  -12.2696 O   0  0  0  0  0  0  0  0  0  0  0  0
   26.2889  -20.1211  -12.9984 N   0  0  0  0  0  0  0  0  0  0  0  0
   25.3468  -20.1803  -11.8634 C   0  0  1  0  0  0  0  0  0  0  0  0
   24.2412  -21.1524  -12.2581 C   0  0  0  0  0  0  0  0  0  0  0  0
   23.1150  -21.0729  -11.3477 C   0  0  0  0  0  0  0  0  0  0  0  0
   23.0711  -20.2973  -10.3774 O   0  0  0  0  0  0  0  0  0  0  0  0
   26.0583  -20.5801  -10.6485 C   0  0  0  0  0  0  0  0  0  0  0  0
   26.8957  -21.5015  -10.6635 O   0  0  0  0  0  0  0  0  0  0  0  0
   22.0004  -21.8998  -11.5433 O   0  0  0  0  0  0  0  0  0  0  0  0
   25.8730  -19.9716   -9.3546 N   0  0  0  0  0  0  0  0  0  0  0  0
   26.5692  -20.4014   -8.1886 C   0  0  1  0  0  0  0  0  0  0  0  0
   27.5267  -19.4113   -7.6272 C   0  0  0  0  0  0  0  0  0  0  0  0
   28.0604  -19.7619   -6.3099 C   0  0  0  0  0  0  0  0  0  0  0  0
   29.0513  -20.7038   -6.1655 C   0  0  0  0  0  0  0  0  0  0  0  0
   29.5627  -21.0448   -4.9205 C   0  0  0  0  0  0  0  0  0  0  0  0
   29.0851  -20.4414   -3.7844 C   0  0  0  0  0  0  0  0  0  0  0  0
   28.1018  -19.5035   -3.9039 C   0  0  0  0  0  0  0  0  0  0  0  0
   27.5915  -19.1650   -5.1607 C   0  0  0  0  0  0  0  0  0  0  0  0
   25.6860  -20.9191   -7.1022 C   0  0  0  0  0  0  0  0  0  0  0  0
   24.5327  -20.4599   -6.9281 O   0  0  0  0  0  0  0  0  0  0  0  0
   26.1039  -21.9269   -6.2425 O   0  0  0  0  0  0  0  0  0  0  0  0
  2  1  1  6
  2  9  1  0
  2  3  1  0
  3  4  1  0
  4  5  2  0
  4  8  1  0
  5  6  1  0
  6  7  1  0
  8  7  2  0
  9 10  2  0
 11 12  1  0
 11  9  1  0
 12 13  1  6
 13 14  1  0
 14 18  1  0
 14 15  2  0
 16 17  2  0
 16 12  1  0
 19 16  1  0
 20 21  1  1
 20 19  1  0
 22 27  1  0
 22 21  1  0
 23 22  2  0
 24 25  2  0
 24 23  1  0
 25 26  1  0
 26 27  2  0
 28 20  1  0
 28 30  1  0
 29 28  2  0
M  END
$$$$
