HDF.pdb
     RDKit          3D

 30 31  0  0  1  0  0  0  0  0999 V2000
   23.1031  -36.7924  -10.1844 N   0  0  0  0  0  0  0  0  0  0  0  0
   24.3654  -36.7538   -9.4481 C   0  0  1  0  0  0  0  0  0  0  0  0
   25.2734  -35.8339  -10.1928 C   0  0  0  0  0  0  0  0  0  0  0  0
   25.7524  -36.4029  -11.4676 C   0  0  0  0  0  0  0  0  0  0  0  0
   26.8604  -37.1926  -11.6768 C   0  0  0  0  0  0  0  0  0  0  0  0
   26.9590  -37.5095  -12.9802 N   0  0  0  0  0  0  0  0  0  0  0  0
   25.9205  -36.9246  -13.5912 C   0  0  0  0  0  0  0  0  0  0  0  0
   25.1844  -36.2508  -12.6750 N   0  0  0  0  0  0  0  0  0  0  0  0
   24.0871  -36.3578   -8.0517 C   0  0  0  0  0  0  0  0  0  0  0  0
   23.4627  -35.2778   -7.8520 O   0  0  0  0  0  0  0  0  0  0  0  0
   24.4763  -37.1203   -6.9245 N   0  0  0  0  0  0  0  0  0  0  0  0
   24.1581  -36.5990   -5.5806 C   0  0  1  0  0  0  0  0  0  0  0  0
   23.8700  -37.8063   -4.6959 C   0  0  0  0  0  0  0  0  0  0  0  0
   22.5191  -38.2965   -4.8908 C   0  0  0  0  0  0  0  0  0  0  0  0
   21.6754  -37.7189   -5.5977 O   0  0  0  0  0  0  0  0  0  0  0  0
   25.2671  -35.7785   -5.0915 C   0  0  0  0  0  0  0  0  0  0  0  0
   26.4488  -36.1533   -5.2079 O   0  0  0  0  0  0  0  0  0  0  0  0
   22.1099  -39.4814   -4.2641 O   0  0  0  0  0  0  0  0  0  0  0  0
   25.1147  -34.4970   -4.4485 N   0  0  0  0  0  0  0  0  0  0  0  0
   26.2206  -33.6865   -4.0628 C   0  0  1  0  0  0  0  0  0  0  0  0
   26.2990  -32.3653   -4.7414 C   0  0  0  0  0  0  0  0  0  0  0  0
   26.3163  -32.4335   -6.2036 C   0  0  0  0  0  0  0  0  0  0  0  0
   27.4140  -32.9013   -6.8865 C   0  0  0  0  0  0  0  0  0  0  0  0
   27.4409  -32.9680   -8.2729 C   0  0  0  0  0  0  0  0  0  0  0  0
   26.3562  -32.5627   -9.0092 C   0  0  0  0  0  0  0  0  0  0  0  0
   25.2557  -32.0951   -8.3526 C   0  0  0  0  0  0  0  0  0  0  0  0
   25.2354  -32.0307   -6.9561 C   0  0  0  0  0  0  0  0  0  0  0  0
   26.3629  -33.5037   -2.5880 C   0  0  0  0  0  0  0  0  0  0  0  0
   25.5147  -33.9689   -1.7908 O   0  0  0  0  0  0  0  0  0  0  0  0
   27.4366  -32.8134   -2.0404 O   0  0  0  0  0  0  0  0  0  0  0  0
  2  1  1  6
  2  9  1  0
  2  3  1  0
  3  4  1  0
  4  5  2  0
  4  8  1  0
  5  6  1  0
  6  7  1  0
  8  7  2  0
  9 10  2  0
 11 12  1  0
 11  9  1  0
 12 13  1  1
 13 14  1  0
 14 18  1  0
 14 15  2  0
 16 17  2  0
 16 12  1  0
 19 16  1  0
 20 21  1  6
 20 19  1  0
 22 27  1  0
 22 21  1  0
 23 22  2  0
 24 25  2  0
 24 23  1  0
 25 26  1  0
 26 27  2  0
 28 20  1  0
 28 30  1  0
 29 28  2  0
M  END
$$$$
