HDF.pdb
     RDKit          3D

 30 31  0  0  1  0  0  0  0  0999 V2000
   18.5769  -12.1075  -18.7676 N   0  0  0  0  0  0  0  0  0  0  0  0
   19.4168  -11.5161  -17.7275 C   0  0  1  0  0  0  0  0  0  0  0  0
   20.7861  -12.0814  -17.9027 C   0  0  0  0  0  0  0  0  0  0  0  0
   20.8602  -13.5217  -17.5894 C   0  0  0  0  0  0  0  0  0  0  0  0
   20.9876  -14.5723  -18.4698 C   0  0  0  0  0  0  0  0  0  0  0  0
   21.0194  -15.7355  -17.7953 N   0  0  0  0  0  0  0  0  0  0  0  0
   20.9132  -15.4229  -16.4973 C   0  0  0  0  0  0  0  0  0  0  0  0
   20.8162  -14.0779  -16.3677 N   0  0  0  0  0  0  0  0  0  0  0  0
   19.3332  -10.0442  -17.8315 C   0  0  0  0  0  0  0  0  0  0  0  0
   19.0537   -9.5415  -18.9564 O   0  0  0  0  0  0  0  0  0  0  0  0
   19.5444   -9.1647  -16.7428 N   0  0  0  0  0  0  0  0  0  0  0  0
   19.3387   -7.7188  -16.9585 C   0  0  1  0  0  0  0  0  0  0  0  0
   17.8612   -7.5267  -17.2803 C   0  0  0  0  0  0  0  0  0  0  0  0
   17.5442   -6.1290  -17.5023 C   0  0  0  0  0  0  0  0  0  0  0  0
   16.8622   -5.4476  -16.7177 O   0  0  0  0  0  0  0  0  0  0  0  0
   19.7716   -6.9743  -15.7750 C   0  0  0  0  0  0  0  0  0  0  0  0
   19.2636   -7.1841  -14.6577 O   0  0  0  0  0  0  0  0  0  0  0  0
   18.0160   -5.4809  -18.6519 O   0  0  0  0  0  0  0  0  0  0  0  0
   20.7946   -5.9582  -15.7772 N   0  0  0  0  0  0  0  0  0  0  0  0
   21.2067   -5.2701  -14.6001 C   0  0  1  0  0  0  0  0  0  0  0  0
   22.5710   -5.6125  -14.1166 C   0  0  0  0  0  0  0  0  0  0  0  0
   22.8907   -7.0403  -14.1610 C   0  0  0  0  0  0  0  0  0  0  0  0
   23.7244   -7.5587  -15.1234 C   0  0  0  0  0  0  0  0  0  0  0  0
   24.0321   -8.9115  -15.1752 C   0  0  0  0  0  0  0  0  0  0  0  0
   23.5041   -9.7799  -14.2531 C   0  0  0  0  0  0  0  0  0  0  0  0
   22.6743   -9.2875  -13.2888 C   0  0  0  0  0  0  0  0  0  0  0  0
   22.3687   -7.9240  -13.2426 C   0  0  0  0  0  0  0  0  0  0  0  0
   21.0557   -3.7867  -14.6716 C   0  0  0  0  0  0  0  0  0  0  0  0
   20.7762   -3.2133  -15.7506 O   0  0  0  0  0  0  0  0  0  0  0  0
   21.2184   -2.9836  -13.5500 O   0  0  0  0  0  0  0  0  0  0  0  0
  2  1  1  6
  2  9  1  0
  2  3  1  0
  3  4  1  0
  4  5  2  0
  4  8  1  0
  5  6  1  0
  6  7  1  0
  8  7  2  0
  9 10  2  0
 11 12  1  0
 11  9  1  0
 12 13  1  1
 13 14  1  0
 14 18  1  0
 14 15  2  0
 16 17  2  0
 16 12  1  0
 19 16  1  0
 20 21  1  6
 20 19  1  0
 22 27  1  0
 22 21  1  0
 23 22  2  0
 24 25  2  0
 24 23  1  0
 25 26  1  0
 26 27  2  0
 28 20  1  0
 28 30  1  0
 29 28  2  0
M  END
$$$$
