HDF.pdb
     RDKit          3D

 30 31  0  0  1  0  0  0  0  0999 V2000
   25.4816  -15.9529  -18.2989 N   0  0  0  0  0  0  0  0  0  0  0  0
   25.5024  -17.3135  -17.7648 C   0  0  1  0  0  0  0  0  0  0  0  0
   26.7199  -17.4249  -16.9101 C   0  0  0  0  0  0  0  0  0  0  0  0
   27.9753  -17.3735  -17.6844 C   0  0  0  0  0  0  0  0  0  0  0  0
   28.1225  -17.3055  -19.0514 C   0  0  0  0  0  0  0  0  0  0  0  0
   29.4284  -17.2758  -19.3719 N   0  0  0  0  0  0  0  0  0  0  0  0
   30.1026  -17.3244  -18.2156 C   0  0  0  0  0  0  0  0  0  0  0  0
   29.2229  -17.3838  -17.1871 N   0  0  0  0  0  0  0  0  0  0  0  0
   24.2255  -17.5669  -17.0651 C   0  0  0  0  0  0  0  0  0  0  0  0
   23.7731  -16.6644  -16.3056 O   0  0  0  0  0  0  0  0  0  0  0  0
   23.4777  -18.7612  -17.1993 N   0  0  0  0  0  0  0  0  0  0  0  0
   22.2514  -18.9159  -16.3921 C   0  0  1  0  0  0  0  0  0  0  0  0
   21.2286  -19.6219  -17.2746 C   0  0  0  0  0  0  0  0  0  0  0  0
   19.9547  -19.7686  -16.5970 C   0  0  0  0  0  0  0  0  0  0  0  0
   19.5003  -18.9283  -15.8018 O   0  0  0  0  0  0  0  0  0  0  0  0
   22.5559  -19.6504  -15.1633 C   0  0  0  0  0  0  0  0  0  0  0  0
   23.4590  -20.5069  -15.1290 O   0  0  0  0  0  0  0  0  0  0  0  0
   19.1687  -20.9057  -16.8282 O   0  0  0  0  0  0  0  0  0  0  0  0
   21.8691  -19.4660  -13.9090 N   0  0  0  0  0  0  0  0  0  0  0  0
   22.2134  -20.1780  -12.7243 C   0  0  1  0  0  0  0  0  0  0  0  0
   22.8977  -19.3687  -11.6807 C   0  0  0  0  0  0  0  0  0  0  0  0
   23.2603  -20.1146  -10.4744 C   0  0  0  0  0  0  0  0  0  0  0  0
   22.3373  -20.3784   -9.4903 C   0  0  0  0  0  0  0  0  0  0  0  0
   22.6717  -21.0831   -8.3417 C   0  0  0  0  0  0  0  0  0  0  0  0
   23.9516  -21.5416   -8.1559 C   0  0  0  0  0  0  0  0  0  0  0  0
   24.8841  -21.2914   -9.1196 C   0  0  0  0  0  0  0  0  0  0  0  0
   24.5405  -20.5812  -10.2738 C   0  0  0  0  0  0  0  0  0  0  0  0
   21.0816  -20.9349  -12.1123 C   0  0  0  0  0  0  0  0  0  0  0  0
   19.9307  -20.4427  -12.0470 O   0  0  0  0  0  0  0  0  0  0  0  0
   21.2564  -22.2108  -11.5917 O   0  0  0  0  0  0  0  0  0  0  0  0
  2  1  1  1
  2  9  1  0
  2  3  1  0
  3  4  1  0
  4  5  2  0
  4  8  1  0
  5  6  1  0
  6  7  1  0
  8  7  2  0
  9 10  2  0
 11 12  1  0
 11  9  1  0
 12 13  1  6
 13 14  1  0
 14 18  1  0
 14 15  2  0
 16 17  2  0
 16 12  1  0
 19 16  1  0
 20 21  1  1
 20 19  1  0
 22 27  1  0
 22 21  1  0
 23 22  2  0
 24 25  2  0
 24 23  1  0
 25 26  1  0
 26 27  2  0
 28 20  1  0
 28 30  1  0
 29 28  2  0
M  END
$$$$
