CYC.pdb
     RDKit          3D

 25 25  0  0  1  0  0  0  0  0999 V2000
   25.5280  -20.5402  -15.3628 N   0  0  0  0  0  0  0  0  0  0  0  0
   26.5055  -20.8245  -14.3294 C   0  0  1  0  0  0  0  0  0  0  0  0
   27.8249  -20.2115  -14.6951 C   0  0  0  0  0  0  0  0  0  0  0  0
   28.9186  -21.4171  -15.4379 S   0  0  0  0  0  0  0  0  0  0  0  0
   26.0756  -20.3029  -13.0242 C   0  0  0  0  0  0  0  0  0  0  0  0
   25.6513  -19.0971  -13.0072 O   0  0  0  0  0  0  0  0  0  0  0  0
   19.3903  -19.5215  -12.0912 O   0  0  0  0  0  0  0  0  0  0  0  0
   20.6227  -19.9854  -11.6241 C   0  0  0  0  0  0  0  0  0  0  0  0
   21.0717  -19.5557  -10.4075 C   0  0  0  0  0  0  0  0  0  0  0  0
   22.2933  -20.0100   -9.9348 C   0  0  0  0  0  0  0  0  0  0  0  0
   23.0451  -20.8848  -10.6848 C   0  0  0  0  0  0  0  0  0  0  0  0
   24.3382  -21.3845  -10.2273 C   0  0  0  0  0  0  0  0  0  0  0  0
   25.5180  -20.5733  -10.6511 C   0  0  2  0  0  0  0  0  0  0  0  0
   26.1234  -21.0740  -11.8504 N   0  0  0  0  0  0  0  0  0  0  0  0
   26.5651  -20.6979   -9.5681 C   0  0  0  0  0  0  0  0  0  0  0  0
   27.1015  -21.7983   -9.2985 O   0  0  0  0  0  0  0  0  0  0  0  0
   22.5588  -21.2955  -11.9069 C   0  0  0  0  0  0  0  0  0  0  0  0
   21.3491  -20.8537  -12.3888 C   0  0  0  0  0  0  0  0  0  0  0  0
   26.9798  -19.5709   -8.8153 N   0  0  0  0  0  0  0  0  0  0  0  0
   27.7509  -19.6460   -7.6140 C   0  0  1  0  0  0  0  0  0  0  0  0
   28.0047  -18.3128   -6.9661 C   0  0  0  0  0  0  0  0  0  0  0  0
   29.0138  -18.5964   -5.4816 S   0  0  0  0  0  0  0  0  0  0  0  0
   27.1257  -20.5460   -6.6127 C   0  0  0  0  0  0  0  0  0  0  0  0
   27.9366  -21.1801   -5.6647 O   0  0  0  0  0  0  0  0  0  0  0  0
   25.9044  -20.7536   -6.5906 O   0  0  0  0  0  0  0  0  0  0  0  0
  2  1  1  6
  2  3  1  0
  3  4  1  0
  5  6  2  0
  5  2  1  0
  7  8  1  0
  8 18  2  0
  8  9  1  0
  9 10  2  0
 10 11  1  0
 11 12  1  0
 13 12  1  1
 13 15  1  0
 13 14  1  0
 14  5  1  0
 15 19  1  0
 16 15  2  0
 17 11  2  0
 18 17  1  0
 19 20  1  0
 20 23  1  0
 21 22  1  0
 20 21  1  1
 23 25  2  0
 23 24  1  0
M  END
$$$$
