CYC.pdb
     RDKit          3D

 25 25  0  0  1  0  0  0  0  0999 V2000
   26.4248  -25.7147  -17.0661 N   0  0  0  0  0  0  0  0  0  0  0  0
   27.6257  -26.4345  -17.4456 C   0  0  1  0  0  0  0  0  0  0  0  0
   28.5866  -26.4630  -16.2940 C   0  0  0  0  0  0  0  0  0  0  0  0
   29.5685  -24.9687  -16.2290 S   0  0  0  0  0  0  0  0  0  0  0  0
   27.3200  -27.8130  -17.8541 C   0  0  0  0  0  0  0  0  0  0  0  0
   26.2104  -28.2943  -17.4401 O   0  0  0  0  0  0  0  0  0  0  0  0
   26.6083  -35.1961  -22.3998 O   0  0  0  0  0  0  0  0  0  0  0  0
   27.0142  -33.9477  -21.9210 C   0  0  0  0  0  0  0  0  0  0  0  0
   28.3244  -33.7660  -21.5794 C   0  0  0  0  0  0  0  0  0  0  0  0
   28.7376  -32.5313  -21.1032 C   0  0  0  0  0  0  0  0  0  0  0  0
   27.8357  -31.4999  -20.9763 C   0  0  0  0  0  0  0  0  0  0  0  0
   28.2269  -30.1857  -20.4754 C   0  0  0  0  0  0  0  0  0  0  0  0
   27.7945  -29.8846  -19.0783 C   0  0  2  0  0  0  0  0  0  0  0  0
   28.1897  -28.5734  -18.6541 N   0  0  0  0  0  0  0  0  0  0  0  0
   28.5082  -30.8548  -18.1650 C   0  0  0  0  0  0  0  0  0  0  0  0
   29.7510  -30.8129  -18.0070 O   0  0  0  0  0  0  0  0  0  0  0  0
   26.5228  -31.7217  -21.3311 C   0  0  0  0  0  0  0  0  0  0  0  0
   26.0984  -32.9408  -21.8049 C   0  0  0  0  0  0  0  0  0  0  0  0
   27.7955  -31.8508  -17.4515 N   0  0  0  0  0  0  0  0  0  0  0  0
   28.3967  -32.7692  -16.5359 C   0  0  1  0  0  0  0  0  0  0  0  0
   27.5969  -32.9949  -15.2826 C   0  0  0  0  0  0  0  0  0  0  0  0
   27.8637  -31.5706  -14.1859 S   0  0  0  0  0  0  0  0  0  0  0  0
   28.6626  -34.0852  -17.1695 C   0  0  0  0  0  0  0  0  0  0  0  0
   28.1581  -34.3406  -18.4495 O   0  0  0  0  0  0  0  0  0  0  0  0
   29.3194  -34.9667  -16.5980 O   0  0  0  0  0  0  0  0  0  0  0  0
  2  1  1  1
  2  3  1  0
  3  4  1  0
  5  6  2  0
  5  2  1  0
  7  8  1  0
  8 18  2  0
  8  9  1  0
  9 10  2  0
 10 11  1  0
 11 12  1  0
 13 12  1  6
 13 15  1  0
 13 14  1  0
 14  5  1  0
 15 19  1  0
 16 15  2  0
 17 11  2  0
 18 17  1  0
 19 20  1  0
 20 23  1  0
 21 22  1  0
 20 21  1  1
 23 25  2  0
 23 24  1  0
M  END
$$$$
