CYC.pdb
     RDKit          3D

 25 25  0  0  1  0  0  0  0  0999 V2000
   28.7299  -23.7063  -17.4833 N   0  0  0  0  0  0  0  0  0  0  0  0
   27.9687  -22.4761  -17.3761 C   0  0  1  0  0  0  0  0  0  0  0  0
   27.1706  -22.2614  -18.6280 C   0  0  0  0  0  0  0  0  0  0  0  0
   28.2358  -21.9976  -20.0412 S   0  0  0  0  0  0  0  0  0  0  0  0
   27.0588  -22.5054  -16.2221 C   0  0  0  0  0  0  0  0  0  0  0  0
   26.4305  -23.6008  -16.0231 O   0  0  0  0  0  0  0  0  0  0  0  0
   23.2633  -20.8061   -8.5129 O   0  0  0  0  0  0  0  0  0  0  0  0
   24.0090  -20.7084   -9.6905 C   0  0  0  0  0  0  0  0  0  0  0  0
   23.4265  -20.1580  -10.7969 C   0  0  0  0  0  0  0  0  0  0  0  0
   24.1575  -20.0563  -11.9704 C   0  0  0  0  0  0  0  0  0  0  0  0
   25.4570  -20.5059  -12.0190 C   0  0  0  0  0  0  0  0  0  0  0  0
   26.2611  -20.4221  -13.2344 C   0  0  0  0  0  0  0  0  0  0  0  0
   26.0410  -21.5238  -14.2181 C   0  0  2  0  0  0  0  0  0  0  0  0
   26.8777  -21.3985  -15.3756 N   0  0  0  0  0  0  0  0  0  0  0  0
   24.6177  -21.4097  -14.7140 C   0  0  0  0  0  0  0  0  0  0  0  0
   24.2957  -20.5800  -15.5966 O   0  0  0  0  0  0  0  0  0  0  0  0
   26.0100  -21.0550  -10.8825 C   0  0  0  0  0  0  0  0  0  0  0  0
   25.2973  -21.1624   -9.7115 C   0  0  0  0  0  0  0  0  0  0  0  0
   23.5918  -22.2398  -14.1969 N   0  0  0  0  0  0  0  0  0  0  0  0
   22.2306  -22.2011  -14.6318 C   0  0  1  0  0  0  0  0  0  0  0  0
   21.7401  -23.4949  -15.2208 C   0  0  0  0  0  0  0  0  0  0  0  0
   19.9293  -23.4020  -15.3426 S   0  0  0  0  0  0  0  0  0  0  0  0
   21.3124  -21.8036  -13.5352 C   0  0  0  0  0  0  0  0  0  0  0  0
   21.8073  -21.7146  -12.2293 O   0  0  0  0  0  0  0  0  0  0  0  0
   20.1178  -21.5475  -13.7415 O   0  0  0  0  0  0  0  0  0  0  0  0
  2  1  1  6
  2  3  1  0
  3  4  1  0
  5  6  2  0
  5  2  1  0
  7  8  1  0
  8 18  2  0
  8  9  1  0
  9 10  2  0
 10 11  1  0
 11 12  1  0
 13 12  1  1
 13 15  1  0
 13 14  1  0
 14  5  1  0
 15 19  1  0
 16 15  2  0
 17 11  2  0
 18 17  1  0
 19 20  1  0
 20 23  1  0
 21 22  1  0
 20 21  1  1
 23 25  2  0
 23 24  1  0
M  END
$$$$
