CYC.pdb
     RDKit          3D

 25 25  0  0  1  0  0  0  0  0999 V2000
   34.8974  -36.1672   -5.7732 N   0  0  0  0  0  0  0  0  0  0  0  0
   33.7409  -36.0488   -6.6410 C   0  0  1  0  0  0  0  0  0  0  0  0
   33.4705  -37.3640   -7.3098 C   0  0  0  0  0  0  0  0  0  0  0  0
   34.5154  -37.5912   -8.7444 S   0  0  0  0  0  0  0  0  0  0  0  0
   32.5467  -35.6331   -5.8918 C   0  0  0  0  0  0  0  0  0  0  0  0
   32.4671  -36.0374   -4.6816 O   0  0  0  0  0  0  0  0  0  0  0  0
   25.0526  -31.8300   -3.4432 O   0  0  0  0  0  0  0  0  0  0  0  0
   26.1941  -32.2022   -4.1579 C   0  0  0  0  0  0  0  0  0  0  0  0
   26.1242  -32.2789   -5.5201 C   0  0  0  0  0  0  0  0  0  0  0  0
   27.2511  -32.6472   -6.2387 C   0  0  0  0  0  0  0  0  0  0  0  0
   28.4276  -32.9326   -5.5851 C   0  0  0  0  0  0  0  0  0  0  0  0
   29.6362  -33.3283   -6.3020 C   0  0  0  0  0  0  0  0  0  0  0  0
   30.4349  -34.4091   -5.6511 C   0  0  2  0  0  0  0  0  0  0  0  0
   31.5384  -34.8364   -6.4605 N   0  0  0  0  0  0  0  0  0  0  0  0
   29.5318  -35.6120   -5.5028 C   0  0  0  0  0  0  0  0  0  0  0  0
   29.2382  -36.3360   -6.4830 O   0  0  0  0  0  0  0  0  0  0  0  0
   28.4591  -32.8442   -4.2103 C   0  0  0  0  0  0  0  0  0  0  0  0
   27.3495  -32.4801   -3.4841 C   0  0  0  0  0  0  0  0  0  0  0  0
   28.9821  -35.9663   -4.2453 N   0  0  0  0  0  0  0  0  0  0  0  0
   28.1349  -37.0969   -4.0280 C   0  0  1  0  0  0  0  0  0  0  0  0
   28.6996  -38.1089   -3.0696 C   0  0  0  0  0  0  0  0  0  0  0  0
   27.5101  -39.4763   -2.9363 S   0  0  0  0  0  0  0  0  0  0  0  0
   26.7888  -36.6935   -3.5494 C   0  0  0  0  0  0  0  0  0  0  0  0
   26.5983  -35.3953   -3.0629 O   0  0  0  0  0  0  0  0  0  0  0  0
   25.8261  -37.4733   -3.5677 O   0  0  0  0  0  0  0  0  0  0  0  0
  2  1  1  1
  2  3  1  0
  3  4  1  0
  5  6  2  0
  5  2  1  0
  7  8  1  0
  8 18  2  0
  8  9  1  0
  9 10  2  0
 10 11  1  0
 11 12  1  0
 13 12  1  6
 13 15  1  0
 13 14  1  0
 14  5  1  0
 15 19  1  0
 16 15  2  0
 17 11  2  0
 18 17  1  0
 19 20  1  0
 20 23  1  0
 21 22  1  0
 20 21  1  1
 23 25  2  0
 23 24  1  0
M  END
$$$$
