CYC.pdb
     RDKit          3D

 25 25  0  0  1  0  0  0  0  0999 V2000
   27.3192  -23.0182  -17.0345 N   0  0  0  0  0  0  0  0  0  0  0  0
   26.5352  -24.2323  -17.1589 C   0  0  1  0  0  0  0  0  0  0  0  0
   25.5154  -24.0696  -18.2470 C   0  0  0  0  0  0  0  0  0  0  0  0
   24.1033  -23.1286  -17.6798 S   0  0  0  0  0  0  0  0  0  0  0  0
   27.3849  -25.3925  -17.4626 C   0  0  0  0  0  0  0  0  0  0  0  0
   28.2882  -25.2171  -18.3499 O   0  0  0  0  0  0  0  0  0  0  0  0
   31.7401  -32.9801  -16.7015 O   0  0  0  0  0  0  0  0  0  0  0  0
   30.9234  -31.8644  -16.5001 C   0  0  0  0  0  0  0  0  0  0  0  0
   31.3536  -30.6438  -16.9377 C   0  0  0  0  0  0  0  0  0  0  0  0
   30.5509  -29.5304  -16.7428 C   0  0  0  0  0  0  0  0  0  0  0  0
   29.3332  -29.6549  -16.1146 C   0  0  0  0  0  0  0  0  0  0  0  0
   28.4588  -28.5086  -15.8853 C   0  0  0  0  0  0  0  0  0  0  0  0
   28.1485  -27.6946  -17.0980 C   0  0  2  0  0  0  0  0  0  0  0  0
   27.2249  -26.6332  -16.8225 N   0  0  0  0  0  0  0  0  0  0  0  0
   27.4596  -28.6044  -18.0893 C   0  0  0  0  0  0  0  0  0  0  0  0
   26.2513  -28.9136  -17.9652 O   0  0  0  0  0  0  0  0  0  0  0  0
   28.9336  -30.9025  -15.6873 C   0  0  0  0  0  0  0  0  0  0  0  0
   29.7189  -32.0159  -15.8736 C   0  0  0  0  0  0  0  0  0  0  0  0
   28.1577  -29.1429  -19.1991 N   0  0  0  0  0  0  0  0  0  0  0  0
   27.5820  -30.0374  -20.1539 C   0  0  1  0  0  0  0  0  0  0  0  0
   27.2936  -29.4052  -21.4876 C   0  0  0  0  0  0  0  0  0  0  0  0
   28.7182  -28.3692  -21.9343 S   0  0  0  0  0  0  0  0  0  0  0  0
   28.4339  -31.2333  -20.3728 C   0  0  0  0  0  0  0  0  0  0  0  0
   29.7649  -31.2112  -19.9413 O   0  0  0  0  0  0  0  0  0  0  0  0
   28.0012  -32.2532  -20.9275 O   0  0  0  0  0  0  0  0  0  0  0  0
  2  1  1  6
  2  3  1  0
  3  4  1  0
  5  6  2  0
  5  2  1  0
  7  8  1  0
  8 18  2  0
  8  9  1  0
  9 10  2  0
 10 11  1  0
 11 12  1  0
 13 12  1  1
 13 15  1  0
 13 14  1  0
 14  5  1  0
 15 19  1  0
 16 15  2  0
 17 11  2  0
 18 17  1  0
 19 20  1  0
 20 23  1  0
 21 22  1  0
 20 21  1  6
 23 25  2  0
 23 24  1  0
M  END
$$$$
