CYC.pdb
     RDKit          3D

 25 25  0  0  1  0  0  0  0  0999 V2000
   33.2934  -26.2682  -17.6155 N   0  0  0  0  0  0  0  0  0  0  0  0
   32.3358  -26.5336  -16.5586 C   0  0  1  0  0  0  0  0  0  0  0  0
   32.4072  -25.4497  -15.5240 C   0  0  0  0  0  0  0  0  0  0  0  0
   33.8627  -25.6244  -14.4982 S   0  0  0  0  0  0  0  0  0  0  0  0
   30.9647  -26.6121  -17.0824 C   0  0  0  0  0  0  0  0  0  0  0  0
   30.7292  -25.9579  -18.1551 O   0  0  0  0  0  0  0  0  0  0  0  0
   29.4304  -32.9258  -20.1688 O   0  0  0  0  0  0  0  0  0  0  0  0
   29.0627  -31.8781  -19.3206 C   0  0  0  0  0  0  0  0  0  0  0  0
   27.9243  -31.1747  -19.5956 C   0  0  0  0  0  0  0  0  0  0  0  0
   27.5505  -30.1332  -18.7604 C   0  0  0  0  0  0  0  0  0  0  0  0
   28.3195  -29.8121  -17.6656 C   0  0  0  0  0  0  0  0  0  0  0  0
   27.9652  -28.7210  -16.7629 C   0  0  0  0  0  0  0  0  0  0  0  0
   28.6504  -27.4229  -17.0369 C   0  0  2  0  0  0  0  0  0  0  0  0
   29.9569  -27.3597  -16.4499 N   0  0  0  0  0  0  0  0  0  0  0  0
   27.8384  -26.3341  -16.3735 C   0  0  0  0  0  0  0  0  0  0  0  0
   28.2520  -25.7388  -15.3509 O   0  0  0  0  0  0  0  0  0  0  0  0
   29.4608  -30.5447  -17.4210 C   0  0  0  0  0  0  0  0  0  0  0  0
   29.8441  -31.5803  -18.2404 C   0  0  0  0  0  0  0  0  0  0  0  0
   26.5753  -25.9454  -16.8857 N   0  0  0  0  0  0  0  0  0  0  0  0
   25.9277  -24.7094  -16.5754 C   0  0  1  0  0  0  0  0  0  0  0  0
   26.7192  -23.4906  -16.9621 C   0  0  0  0  0  0  0  0  0  0  0  0
   25.8216  -22.0285  -16.3627 S   0  0  0  0  0  0  0  0  0  0  0  0
   24.5846  -24.6182  -17.2011 C   0  0  0  0  0  0  0  0  0  0  0  0
   23.6368  -23.7436  -16.6581 O   0  0  0  0  0  0  0  0  0  0  0  0
   24.2764  -25.2947  -18.1923 O   0  0  0  0  0  0  0  0  0  0  0  0
  2  1  1  6
  2  3  1  0
  3  4  1  0
  5  6  2  0
  5  2  1  0
  7  8  1  0
  8 18  2  0
  8  9  1  0
  9 10  2  0
 10 11  1  0
 11 12  1  0
 13 12  1  1
 13 15  1  0
 13 14  1  0
 14  5  1  0
 15 19  1  0
 16 15  2  0
 17 11  2  0
 18 17  1  0
 19 20  1  0
 20 23  1  0
 21 22  1  0
 20 21  1  6
 23 25  2  0
 23 24  1  0
M  END
$$$$
