CYC.pdb
     RDKit          3D

 25 25  0  0  1  0  0  0  0  0999 V2000
   21.2600   -9.2515  -17.0924 N   0  0  0  0  0  0  0  0  0  0  0  0
   21.6781   -7.9055  -17.4358 C   0  0  1  0  0  0  0  0  0  0  0  0
   21.3577   -7.6250  -18.8741 C   0  0  0  0  0  0  0  0  0  0  0  0
   22.3173   -8.6650  -19.9691 S   0  0  0  0  0  0  0  0  0  0  0  0
   21.0149   -6.9038  -16.5888 C   0  0  0  0  0  0  0  0  0  0  0  0
   19.7501   -7.0264  -16.4500 O   0  0  0  0  0  0  0  0  0  0  0  0
   18.6138   -7.5959   -9.8609 O   0  0  0  0  0  0  0  0  0  0  0  0
   19.3498   -6.9127  -10.8325 C   0  0  0  0  0  0  0  0  0  0  0  0
   20.4894   -7.4860  -11.3216 C   0  0  0  0  0  0  0  0  0  0  0  0
   21.2270   -6.8165  -12.2859 C   0  0  0  0  0  0  0  0  0  0  0  0
   20.8142   -5.5869  -12.7448 C   0  0  0  0  0  0  0  0  0  0  0  0
   21.5626   -4.8459  -13.7557 C   0  0  0  0  0  0  0  0  0  0  0  0
   21.0085   -4.9248  -15.1401 C   0  0  2  0  0  0  0  0  0  0  0  0
   21.7183   -5.8621  -15.9604 N   0  0  0  0  0  0  0  0  0  0  0  0
   21.2040   -3.5709  -15.7832 C   0  0  0  0  0  0  0  0  0  0  0  0
   22.3472   -3.1282  -16.0441 O   0  0  0  0  0  0  0  0  0  0  0  0
   19.6595   -5.0411  -12.2275 C   0  0  0  0  0  0  0  0  0  0  0  0
   18.9176   -5.6932  -11.2708 C   0  0  0  0  0  0  0  0  0  0  0  0
   20.0975   -2.7500  -16.1159 N   0  0  0  0  0  0  0  0  0  0  0  0
   20.2069   -1.4603  -16.7226 C   0  0  1  0  0  0  0  0  0  0  0  0
   19.9095   -1.4509  -18.1967 C   0  0  0  0  0  0  0  0  0  0  0  0
   20.1962    0.2343  -18.8135 S   0  0  0  0  0  0  0  0  0  0  0  0
   19.3317   -0.4622  -16.0581 C   0  0  0  0  0  0  0  0  0  0  0  0
   19.7929    0.8490  -15.8957 O   0  0  0  0  0  0  0  0  0  0  0  0
   18.2022   -0.7555  -15.6417 O   0  0  0  0  0  0  0  0  0  0  0  0
  2  1  1  1
  2  3  1  0
  3  4  1  0
  5  6  2  0
  5  2  1  0
  7  8  1  0
  8 18  2  0
  8  9  1  0
  9 10  2  0
 10 11  1  0
 11 12  1  0
 13 12  1  1
 13 15  1  0
 13 14  1  0
 14  5  1  0
 15 19  1  0
 16 15  2  0
 17 11  2  0
 18 17  1  0
 19 20  1  0
 20 23  1  0
 21 22  1  0
 20 21  1  6
 23 25  2  0
 23 24  1  0
M  END
$$$$
