CYC.pdb
     RDKit          3D

 25 25  0  0  1  0  0  0  0  0999 V2000
   26.7143  -19.8932  -16.2091 N   0  0  0  0  0  0  0  0  0  0  0  0
   27.0961  -20.7989  -15.1423 C   0  0  1  0  0  0  0  0  0  0  0  0
   28.5870  -20.7888  -14.9760 C   0  0  0  0  0  0  0  0  0  0  0  0
   29.3733  -21.9496  -16.0876 S   0  0  0  0  0  0  0  0  0  0  0  0
   26.4654  -20.4256  -13.8682 C   0  0  0  0  0  0  0  0  0  0  0  0
   26.3238  -19.1739  -13.6508 O   0  0  0  0  0  0  0  0  0  0  0  0
   19.7175  -19.7790  -14.5161 O   0  0  0  0  0  0  0  0  0  0  0  0
   20.8006  -20.2521  -13.7709 C   0  0  0  0  0  0  0  0  0  0  0  0
   21.1146  -19.6309  -12.5953 C   0  0  0  0  0  0  0  0  0  0  0  0
   22.1874  -20.0925  -11.8482 C   0  0  0  0  0  0  0  0  0  0  0  0
   22.9277  -21.1657  -12.2876 C   0  0  0  0  0  0  0  0  0  0  0  0
   24.0672  -21.6813  -11.5348 C   0  0  0  0  0  0  0  0  0  0  0  0
   25.3514  -20.9495  -11.7469 C   0  0  2  0  0  0  0  0  0  0  0  0
   26.0372  -21.3801  -12.9299 N   0  0  0  0  0  0  0  0  0  0  0  0
   26.2608  -21.2866  -10.5875 C   0  0  0  0  0  0  0  0  0  0  0  0
   27.0546  -22.2554  -10.6375 O   0  0  0  0  0  0  0  0  0  0  0  0
   22.5802  -21.7662  -13.4783 C   0  0  0  0  0  0  0  0  0  0  0  0
   21.5189  -21.3196  -14.2300 C   0  0  0  0  0  0  0  0  0  0  0  0
   26.2489  -20.5168   -9.3976 N   0  0  0  0  0  0  0  0  0  0  0  0
   27.1553  -20.7058   -8.3086 C   0  0  1  0  0  0  0  0  0  0  0  0
   28.6024  -20.5370   -8.6813 C   0  0  0  0  0  0  0  0  0  0  0  0
   29.5927  -20.7084   -7.1672 S   0  0  0  0  0  0  0  0  0  0  0  0
   26.8512  -19.7982   -7.1739 C   0  0  0  0  0  0  0  0  0  0  0  0
   27.3068  -20.1306   -5.8932 O   0  0  0  0  0  0  0  0  0  0  0  0
   26.2044  -18.7525   -7.3266 O   0  0  0  0  0  0  0  0  0  0  0  0
  2  1  1  6
  2  3  1  0
  3  4  1  0
  5  6  2  0
  5  2  1  0
  7  8  1  0
  8 18  2  0
  8  9  1  0
  9 10  2  0
 10 11  1  0
 11 12  1  0
 13 12  1  1
 13 15  1  0
 13 14  1  0
 14  5  1  0
 15 19  1  0
 16 15  2  0
 17 11  2  0
 18 17  1  0
 19 20  1  0
 20 23  1  0
 21 22  1  0
 20 21  1  6
 23 25  2  0
 23 24  1  0
M  END
$$$$
