CYC.pdb
     RDKit          3D

 25 25  0  0  1  0  0  0  0  0999 V2000
   23.4944  -12.0930  -17.5142 N   0  0  0  0  0  0  0  0  0  0  0  0
   23.6093  -11.2201  -16.3612 C   0  0  1  0  0  0  0  0  0  0  0  0
   24.9426  -10.5329  -16.3747 C   0  0  0  0  0  0  0  0  0  0  0  0
   26.2704  -11.6826  -16.0330 S   0  0  0  0  0  0  0  0  0  0  0  0
   22.5440  -10.2075  -16.3450 C   0  0  0  0  0  0  0  0  0  0  0  0
   22.1212   -9.8109  -17.4843 O   0  0  0  0  0  0  0  0  0  0  0  0
   16.6034  -13.1920  -16.9447 O   0  0  0  0  0  0  0  0  0  0  0  0
   17.3842  -12.2215  -16.3114 C   0  0  0  0  0  0  0  0  0  0  0  0
   18.1933  -12.5974  -15.2768 C   0  0  0  0  0  0  0  0  0  0  0  0
   18.9721  -11.6424  -14.6416 C   0  0  0  0  0  0  0  0  0  0  0  0
   18.9294  -10.3293  -15.0501 C   0  0  0  0  0  0  0  0  0  0  0  0
   19.7292   -9.2912  -14.4069 C   0  0  0  0  0  0  0  0  0  0  0  0
   20.8908   -8.7988  -15.2058 C   0  0  2  0  0  0  0  0  0  0  0  0
   22.0101   -9.6929  -15.1513 N   0  0  0  0  0  0  0  0  0  0  0  0
   21.3554   -7.5047  -14.5778 C   0  0  0  0  0  0  0  0  0  0  0  0
   22.2777   -7.4821  -13.7294 O   0  0  0  0  0  0  0  0  0  0  0  0
   18.1010   -9.9888  -16.0974 C   0  0  0  0  0  0  0  0  0  0  0  0
   17.3230  -10.9249  -16.7370 C   0  0  0  0  0  0  0  0  0  0  0  0
   20.7629   -6.2654  -14.9270 N   0  0  0  0  0  0  0  0  0  0  0  0
   21.2253   -4.9945  -14.4642 C   0  0  1  0  0  0  0  0  0  0  0  0
   22.6694   -4.7175  -14.7793 C   0  0  0  0  0  0  0  0  0  0  0  0
   23.0986   -3.1048  -14.0599 S   0  0  0  0  0  0  0  0  0  0  0  0
   20.4032   -3.8802  -14.9993 C   0  0  0  0  0  0  0  0  0  0  0  0
   20.0286   -2.8372  -14.1449 O   0  0  0  0  0  0  0  0  0  0  0  0
   20.0377   -3.8454  -16.1827 O   0  0  0  0  0  0  0  0  0  0  0  0
  2  1  1  6
  2  3  1  0
  3  4  1  0
  5  6  2  0
  5  2  1  0
  7  8  1  0
  8 18  2  0
  8  9  1  0
  9 10  2  0
 10 11  1  0
 11 12  1  0
 13 12  1  1
 13 15  1  0
 13 14  1  0
 14  5  1  0
 15 19  1  0
 16 15  2  0
 17 11  2  0
 18 17  1  0
 19 20  1  0
 20 23  1  0
 21 22  1  0
 20 21  1  6
 23 25  2  0
 23 24  1  0
M  END
$$$$
