CYC.pdb
     RDKit          3D

 25 25  0  0  1  0  0  0  0  0999 V2000
   23.7380  -12.7326  -19.0945 N   0  0  0  0  0  0  0  0  0  0  0  0
   23.3730  -11.3381  -19.2572 C   0  0  1  0  0  0  0  0  0  0  0  0
   21.9162  -11.2304  -19.5980 C   0  0  0  0  0  0  0  0  0  0  0  0
   21.6239  -11.5909  -21.3260 S   0  0  0  0  0  0  0  0  0  0  0  0
   23.6420  -10.5658  -18.0359 C   0  0  0  0  0  0  0  0  0  0  0  0
   23.5425  -11.2000  -16.9305 O   0  0  0  0  0  0  0  0  0  0  0  0
   29.3784  -12.4190  -16.7482 O   0  0  0  0  0  0  0  0  0  0  0  0
   28.4746  -11.3534  -16.7498 C   0  0  0  0  0  0  0  0  0  0  0  0
   27.8148  -11.0458  -15.5937 C   0  0  0  0  0  0  0  0  0  0  0  0
   26.9160   -9.9903  -15.5845 C   0  0  0  0  0  0  0  0  0  0  0  0
   26.6916   -9.2607  -16.7292 C   0  0  0  0  0  0  0  0  0  0  0  0
   25.7511   -8.1447  -16.7649 C   0  0  0  0  0  0  0  0  0  0  0  0
   24.3107   -8.5310  -16.8410 C   0  0  2  0  0  0  0  0  0  0  0  0
   23.9891   -9.2044  -18.0651 N   0  0  0  0  0  0  0  0  0  0  0  0
   23.4997   -7.2554  -16.8373 C   0  0  0  0  0  0  0  0  0  0  0  0
   23.3308   -6.5831  -17.8816 O   0  0  0  0  0  0  0  0  0  0  0  0
   27.3761   -9.6011  -17.8756 C   0  0  0  0  0  0  0  0  0  0  0  0
   28.2706  -10.6452  -17.9000 C   0  0  0  0  0  0  0  0  0  0  0  0
   22.8985   -6.7716  -15.6485 N   0  0  0  0  0  0  0  0  0  0  0  0
   22.0618   -5.6144  -15.5841 C   0  0  1  0  0  0  0  0  0  0  0  0
   20.7632   -5.7566  -16.3292 C   0  0  0  0  0  0  0  0  0  0  0  0
   19.8867   -7.1980  -15.6535 S   0  0  0  0  0  0  0  0  0  0  0  0
   21.7618   -5.2279  -14.1825 C   0  0  0  0  0  0  0  0  0  0  0  0
   21.0967   -4.0220  -13.9346 O   0  0  0  0  0  0  0  0  0  0  0  0
   22.0834   -5.9426  -13.2228 O   0  0  0  0  0  0  0  0  0  0  0  0
  2  1  1  1
  2  3  1  0
  3  4  1  0
  5  6  2  0
  5  2  1  0
  7  8  1  0
  8 18  2  0
  8  9  1  0
  9 10  2  0
 10 11  1  0
 11 12  1  0
 13 12  1  6
 13 15  1  0
 13 14  1  0
 14  5  1  0
 15 19  1  0
 16 15  2  0
 17 11  2  0
 18 17  1  0
 19 20  1  0
 20 23  1  0
 21 22  1  0
 20 21  1  6
 23 25  2  0
 23 24  1  0
M  END
$$$$
