CYC.pdb
     RDKit          3D

 25 25  0  0  1  0  0  0  0  0999 V2000
   29.7109  -24.0396  -17.7145 N   0  0  0  0  0  0  0  0  0  0  0  0
   28.3896  -24.2202  -17.1436 C   0  0  1  0  0  0  0  0  0  0  0  0
   28.3287  -25.5249  -16.4057 C   0  0  0  0  0  0  0  0  0  0  0  0
   28.4212  -26.9132  -17.5306 S   0  0  0  0  0  0  0  0  0  0  0  0
   28.0480  -23.1274  -16.2218 C   0  0  0  0  0  0  0  0  0  0  0  0
   29.0225  -22.5921  -15.5910 O   0  0  0  0  0  0  0  0  0  0  0  0
   29.4652  -17.2588  -18.9347 O   0  0  0  0  0  0  0  0  0  0  0  0
   28.5665  -18.0426  -18.2066 C   0  0  0  0  0  0  0  0  0  0  0  0
   28.3167  -17.7213  -16.9024 C   0  0  0  0  0  0  0  0  0  0  0  0
   27.4266  -18.4926  -16.1710 C   0  0  0  0  0  0  0  0  0  0  0  0
   26.8018  -19.5708  -16.7541 C   0  0  0  0  0  0  0  0  0  0  0  0
   25.8613  -20.4118  -16.0197 C   0  0  0  0  0  0  0  0  0  0  0  0
   26.4809  -21.5200  -15.2339 C   0  0  2  0  0  0  0  0  0  0  0  0
   26.7278  -22.6849  -16.0324 N   0  0  0  0  0  0  0  0  0  0  0  0
   25.4836  -21.9381  -14.1777 C   0  0  0  0  0  0  0  0  0  0  0  0
   24.6025  -22.7981  -14.4122 O   0  0  0  0  0  0  0  0  0  0  0  0
   27.0793  -19.8634  -18.0717 C   0  0  0  0  0  0  0  0  0  0  0  0
   27.9597  -19.1076  -18.8097 C   0  0  0  0  0  0  0  0  0  0  0  0
   25.5088  -21.3706  -12.8792 N   0  0  0  0  0  0  0  0  0  0  0  0
   24.6270  -21.7485  -11.8195 C   0  0  1  0  0  0  0  0  0  0  0  0
   25.1889  -21.5155  -10.4441 C   0  0  0  0  0  0  0  0  0  0  0  0
   25.4215  -19.7257  -10.2318 S   0  0  0  0  0  0  0  0  0  0  0  0
   23.3177  -21.0558  -11.9180 C   0  0  0  0  0  0  0  0  0  0  0  0
   22.2170  -21.5756  -11.2278 O   0  0  0  0  0  0  0  0  0  0  0  0
   23.1694  -20.0285  -12.5947 O   0  0  0  0  0  0  0  0  0  0  0  0
  2  1  1  1
  2  3  1  0
  3  4  1  0
  5  6  2  0
  5  2  1  0
  7  8  1  0
  8 18  2  0
  8  9  1  0
  9 10  2  0
 10 11  1  0
 11 12  1  0
 13 12  1  6
 13 15  1  0
 13 14  1  0
 14  5  1  0
 15 19  1  0
 16 15  2  0
 17 11  2  0
 18 17  1  0
 19 20  1  0
 20 23  1  0
 21 22  1  0
 20 21  1  1
 23 25  2  0
 23 24  1  0
M  END
$$$$
