CYC.pdb
     RDKit          3D

 25 25  0  0  1  0  0  0  0  0999 V2000
   19.0982  -15.8810  -15.6394 N   0  0  0  0  0  0  0  0  0  0  0  0
   18.2418  -15.1525  -16.5560 C   0  0  1  0  0  0  0  0  0  0  0  0
   16.8701  -15.0102  -15.9658 C   0  0  0  0  0  0  0  0  0  0  0  0
   15.9945  -16.5706  -15.9711 S   0  0  0  0  0  0  0  0  0  0  0  0
   18.7818  -13.8177  -16.8509 C   0  0  0  0  0  0  0  0  0  0  0  0
   19.6724  -13.3760  -16.0472 O   0  0  0  0  0  0  0  0  0  0  0  0
   21.3649   -6.4565  -20.7459 O   0  0  0  0  0  0  0  0  0  0  0  0
   20.7976   -7.7031  -20.4691 C   0  0  0  0  0  0  0  0  0  0  0  0
   19.4402   -7.8407  -20.5388 C   0  0  0  0  0  0  0  0  0  0  0  0
   18.8672   -9.0733  -20.2660 C   0  0  0  0  0  0  0  0  0  0  0  0
   19.6590  -10.1465  -19.9283 C   0  0  0  0  0  0  0  0  0  0  0  0
   19.0973  -11.4603  -19.6293 C   0  0  0  0  0  0  0  0  0  0  0  0
   18.9200  -11.7590  -18.1770 C   0  0  2  0  0  0  0  0  0  0  0  0
   18.3522  -13.0559  -17.9509 N   0  0  0  0  0  0  0  0  0  0  0  0
   17.9242  -10.7628  -17.6287 C   0  0  0  0  0  0  0  0  0  0  0  0
   16.6953  -10.8758  -17.8484 O   0  0  0  0  0  0  0  0  0  0  0  0
   21.0242   -9.9686  -19.8684 C   0  0  0  0  0  0  0  0  0  0  0  0
   21.6068   -8.7522  -20.1363 C   0  0  0  0  0  0  0  0  0  0  0  0
   18.3454   -9.6606  -16.8434 N   0  0  0  0  0  0  0  0  0  0  0  0
   17.4656   -8.6617  -16.3225 C   0  0  1  0  0  0  0  0  0  0  0  0
   17.1502   -8.8264  -14.8614 C   0  0  0  0  0  0  0  0  0  0  0  0
   16.1300   -7.4131  -14.3474 S   0  0  0  0  0  0  0  0  0  0  0  0
   17.9961   -7.2922  -16.5393 C   0  0  0  0  0  0  0  0  0  0  0  0
   17.1025   -6.2178  -16.6114 O   0  0  0  0  0  0  0  0  0  0  0  0
   19.2093   -7.0710  -16.6588 O   0  0  0  0  0  0  0  0  0  0  0  0
  2  1  1  1
  2  3  1  0
  3  4  1  0
  5  6  2  0
  5  2  1  0
  7  8  1  0
  8 18  2  0
  8  9  1  0
  9 10  2  0
 10 11  1  0
 11 12  1  0
 13 12  1  6
 13 15  1  0
 13 14  1  0
 14  5  1  0
 15 19  1  0
 16 15  2  0
 17 11  2  0
 18 17  1  0
 19 20  1  0
 20 23  1  0
 21 22  1  0
 20 21  1  1
 23 25  2  0
 23 24  1  0
M  END
$$$$
