CYC.pdb
     RDKit          3D

 25 25  0  0  1  0  0  0  0  0999 V2000
   20.5663  -11.3044  -17.4416 N   0  0  0  0  0  0  0  0  0  0  0  0
   20.2418   -9.8906  -17.4552 C   0  0  1  0  0  0  0  0  0  0  0  0
   19.0509   -9.6508  -18.3352 C   0  0  0  0  0  0  0  0  0  0  0  0
   19.4814   -9.7948  -20.0659 S   0  0  0  0  0  0  0  0  0  0  0  0
   19.9516   -9.3924  -16.1032 C   0  0  0  0  0  0  0  0  0  0  0  0
   19.3011  -10.1810  -15.3356 O   0  0  0  0  0  0  0  0  0  0  0  0
   19.7471   -4.7005   -8.7003 O   0  0  0  0  0  0  0  0  0  0  0  0
   20.0783   -5.2594   -9.9373 C   0  0  0  0  0  0  0  0  0  0  0  0
   20.3347   -6.5994  -10.0088 C   0  0  0  0  0  0  0  0  0  0  0  0
   20.6642   -7.1640  -11.2314 C   0  0  0  0  0  0  0  0  0  0  0  0
   20.7322   -6.3812  -12.3608 C   0  0  0  0  0  0  0  0  0  0  0  0
   21.0794   -6.9335  -13.6667 C   0  0  0  0  0  0  0  0  0  0  0  0
   19.9792   -7.6703  -14.3569 C   0  0  2  0  0  0  0  0  0  0  0  0
   20.3589   -8.1212  -15.6638 N   0  0  0  0  0  0  0  0  0  0  0  0
   18.8418   -6.6961  -14.5624 C   0  0  0  0  0  0  0  0  0  0  0  0
   18.8947   -5.8026  -15.4399 O   0  0  0  0  0  0  0  0  0  0  0  0
   20.4668   -5.0336  -12.2488 C   0  0  0  0  0  0  0  0  0  0  0  0
   20.1386   -4.4596  -11.0432 C   0  0  0  0  0  0  0  0  0  0  0  0
   17.6701   -6.7578  -13.7673 N   0  0  0  0  0  0  0  0  0  0  0  0
   16.5348   -5.9068  -13.9413 C   0  0  1  0  0  0  0  0  0  0  0  0
   15.2238   -6.5589  -13.5983 C   0  0  0  0  0  0  0  0  0  0  0  0
   15.0305   -8.0186  -14.6634 S   0  0  0  0  0  0  0  0  0  0  0  0
   16.6589   -4.6540  -13.1546 C   0  0  0  0  0  0  0  0  0  0  0  0
   15.6923   -3.6538  -13.3073 O   0  0  0  0  0  0  0  0  0  0  0  0
   17.5950   -4.4664  -12.3648 O   0  0  0  0  0  0  0  0  0  0  0  0
  2  1  1  1
  2  3  1  0
  3  4  1  0
  5  6  2  0
  5  2  1  0
  7  8  1  0
  8 18  2  0
  8  9  1  0
  9 10  2  0
 10 11  1  0
 11 12  1  0
 13 12  1  6
 13 15  1  0
 13 14  1  0
 14  5  1  0
 15 19  1  0
 16 15  2  0
 17 11  2  0
 18 17  1  0
 19 20  1  0
 20 23  1  0
 21 22  1  0
 20 21  1  1
 23 25  2  0
 23 24  1  0
M  END
$$$$
