CYC.pdb
     RDKit          3D

 25 25  0  0  1  0  0  0  0  0999 V2000
   25.9175  -31.0277  -17.2733 N   0  0  0  0  0  0  0  0  0  0  0  0
   27.2530  -30.9430  -16.7131 C   0  0  1  0  0  0  0  0  0  0  0  0
   27.9496  -32.2636  -16.8579 C   0  0  0  0  0  0  0  0  0  0  0  0
   28.2888  -32.6353  -18.5750 S   0  0  0  0  0  0  0  0  0  0  0  0
   28.0494  -29.9012  -17.3769 C   0  0  0  0  0  0  0  0  0  0  0  0
   27.5115  -29.3345  -18.3887 O   0  0  0  0  0  0  0  0  0  0  0  0
   25.1463  -24.0795  -17.3529 O   0  0  0  0  0  0  0  0  0  0  0  0
   26.2865  -24.8555  -17.1296 C   0  0  0  0  0  0  0  0  0  0  0  0
   26.1930  -25.9461  -16.3120 C   0  0  0  0  0  0  0  0  0  0  0  0
   27.3184  -26.7228  -16.0839 C   0  0  0  0  0  0  0  0  0  0  0  0
   28.5172  -26.3974  -16.6755 C   0  0  0  0  0  0  0  0  0  0  0  0
   29.7272  -27.1849  -16.4593 C   0  0  0  0  0  0  0  0  0  0  0  0
   29.9239  -28.3198  -17.4095 C   0  0  2  0  0  0  0  0  0  0  0  0
   29.3334  -29.5376  -16.9365 N   0  0  0  0  0  0  0  0  0  0  0  0
   31.4100  -28.5809  -17.5007 C   0  0  0  0  0  0  0  0  0  0  0  0
   32.0212  -29.2087  -16.6044 O   0  0  0  0  0  0  0  0  0  0  0  0
   28.5720  -25.2900  -17.4938 C   0  0  0  0  0  0  0  0  0  0  0  0
   27.4642  -24.5102  -17.7296 C   0  0  0  0  0  0  0  0  0  0  0  0
   32.1688  -28.1235  -18.6069 N   0  0  0  0  0  0  0  0  0  0  0  0
   33.5632  -28.3819  -18.7873 C   0  0  1  0  0  0  0  0  0  0  0  0
   33.8866  -29.8236  -19.0672 C   0  0  0  0  0  0  0  0  0  0  0  0
   33.9489  -30.7009  -17.4769 S   0  0  0  0  0  0  0  0  0  0  0  0
   34.1427  -27.5491  -19.8710 C   0  0  0  0  0  0  0  0  0  0  0  0
   35.5336  -27.4772  -20.0066 O   0  0  0  0  0  0  0  0  0  0  0  0
   33.4304  -26.9140  -20.6612 O   0  0  0  0  0  0  0  0  0  0  0  0
  2  1  1  6
  2  3  1  0
  3  4  1  0
  5  6  2  0
  5  2  1  0
  7  8  1  0
  8 18  2  0
  8  9  1  0
  9 10  2  0
 10 11  1  0
 11 12  1  0
 13 12  1  1
 13 15  1  0
 13 14  1  0
 14  5  1  0
 15 19  1  0
 16 15  2  0
 17 11  2  0
 18 17  1  0
 19 20  1  0
 20 23  1  0
 21 22  1  0
 20 21  1  6
 23 25  2  0
 23 24  1  0
M  END
$$$$
