QRS.pdb
     RDKit          3D

 27 26  0  0  1  0  0  0  0  0999 V2000
    9.0731  -16.9587   29.6565 N   0  0  0  0  0  0  0  0  0  0  0  0
    9.6550  -18.2031   29.2116 C   0  0  0  0  0  0  0  0  0  0  0  0
   10.7530  -18.5274   29.6993 O   0  0  0  0  0  0  0  0  0  0  0  0
    8.9367  -19.0009   28.2375 C   0  0  0  0  0  0  0  0  0  0  0  0
    7.7032  -18.4062   27.6808 C   0  0  0  0  0  0  0  0  0  0  0  0
    7.0617  -19.1971   26.5916 C   0  0  2  0  0  0  0  0  0  0  0  0
    7.0690  -20.5928   26.8687 N   0  0  0  0  0  0  0  0  0  0  0  0
    7.6704  -18.9390   25.2665 C   0  0  0  0  0  0  0  0  0  0  0  0
    8.4589  -19.8093   24.8291 O   0  0  0  0  0  0  0  0  0  0  0  0
    7.6587  -12.3694   21.1671 N   0  0  0  0  0  0  0  0  0  0  0  0
    8.0011  -12.8724   19.8704 C   0  0  0  0  0  0  0  0  0  0  0  0
    8.3635  -12.0525   18.9494 N   0  0  0  0  0  0  0  0  0  0  0  0
    7.9314  -14.2765   19.6239 N   0  0  0  0  0  0  0  0  0  0  0  0
    7.0159  -15.1406   20.3444 C   0  0  0  0  0  0  0  0  0  0  0  0
    7.7904  -16.2402   21.0374 C   0  0  0  0  0  0  0  0  0  0  0  0
    7.2825  -16.4373   22.4454 C   0  0  0  0  0  0  0  0  0  0  0  0
    7.9154  -17.5551   23.1785 C   0  0  2  0  0  0  0  0  0  0  0  0
    7.4104  -17.8061   24.5145 N   0  0  0  0  0  0  0  0  0  0  0  0
    9.3849  -17.2659   23.3766 C   0  0  0  0  0  0  0  0  0  0  0  0
    9.8064  -16.3938   24.1787 O   0  0  0  0  0  0  0  0  0  0  0  0
    8.5805  -12.4023   17.9937 O   0  0  0  0  0  0  0  0  0  0  0  0
   12.2398  -19.0062   20.9331 C   0  0  0  0  0  0  0  0  0  0  0  0
   12.6269  -18.8050   22.2390 C   0  0  1  0  0  0  0  0  0  0  0  0
   11.8102  -17.6749   22.8399 N   0  0  0  0  0  0  0  0  0  0  0  0
   10.3919  -17.9714   22.6591 C   0  0  0  0  0  0  0  0  0  0  0  0
   12.1676  -16.3532   22.3059 O   0  0  0  0  0  0  0  0  0  0  0  0
   11.4225  -15.6998   21.5312 O   0  0  0  0  0  0  0  0  0  0  0  0
  1  2  1  0
  2  3  2  0
  4  5  1  0
  4  2  1  0
  5  6  1  0
  6  8  1  0
  6  7  1  1
  8  9  2  0
 11 10  1  0
 11 12  2  0
 13 14  1  0
 13 11  1  0
 14 15  1  0
 15 16  1  0
 17 16  1  1
 17 19  1  0
 18 17  1  0
 18  8  1  0
 19 20  2  0
 21 22  1  0
 23 22  1  1
 23 25  1  0
 24 19  1  0
 24 23  1  0
 25 26  2  0
 25 27  1  0
M  END
$$$$
