QRS.pdb
     RDKit          3D

 27 26  0  0  1  0  0  0  0  0999 V2000
   15.4397  -19.2640   15.2332 N   0  0  0  0  0  0  0  0  0  0  0  0
   14.2163  -19.4488   14.4887 C   0  0  0  0  0  0  0  0  0  0  0  0
   14.2107  -20.3274   13.6074 O   0  0  0  0  0  0  0  0  0  0  0  0
   13.0731  -18.6161   14.8063 C   0  0  0  0  0  0  0  0  0  0  0  0
   13.2503  -17.6483   15.9096 C   0  0  0  0  0  0  0  0  0  0  0  0
   13.4059  -18.2591   17.2609 C   0  0  2  0  0  0  0  0  0  0  0  0
   12.5190  -19.3543   17.4581 N   0  0  0  0  0  0  0  0  0  0  0  0
   13.2454  -17.2723   18.3534 C   0  0  0  0  0  0  0  0  0  0  0  0
   13.6563  -16.1101   18.1282 O   0  0  0  0  0  0  0  0  0  0  0  0
    7.4720  -13.6904   19.0354 N   0  0  0  0  0  0  0  0  0  0  0  0
    7.5914  -13.0606   20.3164 C   0  0  0  0  0  0  0  0  0  0  0  0
    6.7752  -12.1213   20.6379 N   0  0  0  0  0  0  0  0  0  0  0  0
    8.6172  -13.4868   21.2126 N   0  0  0  0  0  0  0  0  0  0  0  0
    9.0450  -14.8705   21.2917 C   0  0  0  0  0  0  0  0  0  0  0  0
   10.5172  -14.9696   20.9568 C   0  0  0  0  0  0  0  0  0  0  0  0
   10.9609  -16.4125   20.9484 C   0  0  0  0  0  0  0  0  0  0  0  0
   12.3903  -16.6164   20.6279 C   0  0  2  0  0  0  0  0  0  0  0  0
   12.6763  -17.5754   19.5785 N   0  0  0  0  0  0  0  0  0  0  0  0
   13.1116  -17.1554   21.8410 C   0  0  0  0  0  0  0  0  0  0  0  0
   13.0633  -18.3650   22.1817 O   0  0  0  0  0  0  0  0  0  0  0  0
    6.8528  -11.6557   21.5652 O   0  0  0  0  0  0  0  0  0  0  0  0
   16.6310  -15.8788   23.1430 C   0  0  0  0  0  0  0  0  0  0  0  0
   15.7446  -15.9159   24.1960 C   0  0  2  0  0  0  0  0  0  0  0  0
   14.5913  -16.8422   23.8534 N   0  0  0  0  0  0  0  0  0  0  0  0
   13.8981  -16.3168   22.6806 C   0  0  0  0  0  0  0  0  0  0  0  0
   13.6737  -17.0670   24.9792 O   0  0  0  0  0  0  0  0  0  0  0  0
   12.4637  -16.7236   24.9595 O   0  0  0  0  0  0  0  0  0  0  0  0
  1  2  1  0
  2  3  2  0
  4  5  1  0
  4  2  1  0
  5  6  1  0
  6  8  1  0
  6  7  1  1
  8  9  2  0
 11 10  1  0
 11 12  2  0
 13 14  1  0
 13 11  1  0
 14 15  1  0
 15 16  1  0
 17 16  1  1
 17 19  1  0
 18 17  1  0
 18  8  1  0
 19 20  2  0
 21 22  1  0
 23 22  1  6
 23 25  1  0
 24 19  1  0
 24 23  1  0
 25 26  2  0
 25 27  1  0
M  END
$$$$
