QRS.pdb
     RDKit          3D

 27 26  0  0  1  0  0  0  0  0999 V2000
    6.8258  -12.5314   20.0580 N   0  0  0  0  0  0  0  0  0  0  0  0
    7.1999  -13.9207   20.1802 C   0  0  0  0  0  0  0  0  0  0  0  0
    6.6520  -14.5832   21.0800 O   0  0  0  0  0  0  0  0  0  0  0  0
    8.1765  -14.4646   19.2574 C   0  0  0  0  0  0  0  0  0  0  0  0
    8.7348  -13.5258   18.2613 C   0  0  0  0  0  0  0  0  0  0  0  0
    9.7031  -14.1312   17.3025 C   0  0  2  0  0  0  0  0  0  0  0  0
    9.0762  -15.0563   16.4217 N   0  0  0  0  0  0  0  0  0  0  0  0
   10.8504  -14.7748   17.9827 C   0  0  0  0  0  0  0  0  0  0  0  0
   10.7755  -16.0122   18.1658 O   0  0  0  0  0  0  0  0  0  0  0  0
   17.6929  -14.5979   15.5735 N   0  0  0  0  0  0  0  0  0  0  0  0
   17.7649  -15.1969   16.8726 C   0  0  0  0  0  0  0  0  0  0  0  0
   17.7095  -16.4762   16.9832 N   0  0  0  0  0  0  0  0  0  0  0  0
   17.8950  -14.3610   18.0221 N   0  0  0  0  0  0  0  0  0  0  0  0
   16.7584  -13.6796   18.6118 C   0  0  0  0  0  0  0  0  0  0  0  0
   15.5384  -14.5722   18.5472 C   0  0  0  0  0  0  0  0  0  0  0  0
   14.3377  -13.8685   19.1321 C   0  0  0  0  0  0  0  0  0  0  0  0
   13.0913  -14.6647   19.1234 C   0  0  2  0  0  0  0  0  0  0  0  0
   11.9697  -14.0825   18.4122 N   0  0  0  0  0  0  0  0  0  0  0  0
   12.5921  -14.8432   20.5380 C   0  0  0  0  0  0  0  0  0  0  0  0
   12.2062  -13.8822   21.2515 O   0  0  0  0  0  0  0  0  0  0  0  0
   17.7039  -16.9199   17.9243 O   0  0  0  0  0  0  0  0  0  0  0  0
   10.4252  -17.3052   23.8674 C   0  0  0  0  0  0  0  0  0  0  0  0
   10.8132  -17.0967   22.5629 C   0  0  1  0  0  0  0  0  0  0  0  0
   12.0966  -16.2857   22.5408 N   0  0  0  0  0  0  0  0  0  0  0  0
   12.5277  -16.1246   21.1550 C   0  0  0  0  0  0  0  0  0  0  0  0
   13.1573  -16.8553   23.3835 O   0  0  0  0  0  0  0  0  0  0  0  0
   14.2569  -17.2601   22.9256 O   0  0  0  0  0  0  0  0  0  0  0  0
  1  2  1  0
  2  3  2  0
  4  5  1  0
  4  2  1  0
  5  6  1  0
  6  8  1  0
  6  7  1  1
  8  9  2  0
 11 10  1  0
 11 12  2  0
 13 14  1  0
 13 11  1  0
 14 15  1  0
 15 16  1  0
 17 16  1  1
 17 19  1  0
 18 17  1  0
 18  8  1  0
 19 20  2  0
 21 22  1  0
 23 22  1  6
 23 25  1  0
 24 19  1  0
 24 23  1  0
 25 26  2  0
 25 27  1  0
M  END
$$$$
