QRS.pdb
     RDKit          3D

 27 26  0  0  1  0  0  0  0  0999 V2000
   11.2446  -18.9421   16.8326 N   0  0  0  0  0  0  0  0  0  0  0  0
   10.6177  -17.8278   17.5036 C   0  0  0  0  0  0  0  0  0  0  0  0
   11.3136  -16.8155   17.7028 O   0  0  0  0  0  0  0  0  0  0  0  0
    9.2281  -17.9432   17.8996 C   0  0  0  0  0  0  0  0  0  0  0  0
    8.8756  -19.1144   18.7299 C   0  0  0  0  0  0  0  0  0  0  0  0
    7.4240  -19.2467   19.0438 C   0  0  2  0  0  0  0  0  0  0  0  0
    6.6122  -18.4981   18.1464 N   0  0  0  0  0  0  0  0  0  0  0  0
    7.1084  -18.8775   20.4429 C   0  0  0  0  0  0  0  0  0  0  0  0
    6.6708  -17.7191   20.6352 O   0  0  0  0  0  0  0  0  0  0  0  0
    4.8738  -23.8895   21.4380 N   0  0  0  0  0  0  0  0  0  0  0  0
    3.6502  -23.7668   22.1726 C   0  0  0  0  0  0  0  0  0  0  0  0
    2.5596  -24.2190   21.6648 N   0  0  0  0  0  0  0  0  0  0  0  0
    3.6643  -23.1418   23.4556 N   0  0  0  0  0  0  0  0  0  0  0  0
    4.8511  -22.4984   23.9861 C   0  0  0  0  0  0  0  0  0  0  0  0
    5.2131  -21.3068   23.1269 C   0  0  0  0  0  0  0  0  0  0  0  0
    6.4269  -20.6031   23.6842 C   0  0  0  0  0  0  0  0  0  0  0  0
    6.8924  -19.4494   22.8844 C   0  0  2  0  0  0  0  0  0  0  0  0
    7.2739  -19.7372   21.5153 N   0  0  0  0  0  0  0  0  0  0  0  0
    8.1374  -18.8660   23.5104 C   0  0  0  0  0  0  0  0  0  0  0  0
    9.2958  -19.2601   23.2199 O   0  0  0  0  0  0  0  0  0  0  0  0
    1.6560  -24.0856   22.1633 O   0  0  0  0  0  0  0  0  0  0  0  0
    8.6164  -15.1812   24.1214 C   0  0  0  0  0  0  0  0  0  0  0  0
    9.0534  -15.7629   25.2904 C   0  0  2  0  0  0  0  0  0  0  0  0
    9.2806  -17.2467   25.0624 N   0  0  0  0  0  0  0  0  0  0  0  0
    8.0732  -17.8232   24.4774 C   0  0  0  0  0  0  0  0  0  0  0  0
    9.6991  -17.9627   26.2756 O   0  0  0  0  0  0  0  0  0  0  0  0
    9.0316  -18.8982   26.7872 O   0  0  0  0  0  0  0  0  0  0  0  0
  1  2  1  0
  2  3  2  0
  4  5  1  0
  4  2  1  0
  5  6  1  0
  6  8  1  0
  6  7  1  6
  8  9  2  0
 11 10  1  0
 11 12  2  0
 13 14  1  0
 13 11  1  0
 14 15  1  0
 15 16  1  0
 17 16  1  1
 17 19  1  0
 18 17  1  0
 18  8  1  0
 19 20  2  0
 21 22  1  0
 23 22  1  6
 23 25  1  0
 24 19  1  0
 24 23  1  0
 25 26  2  0
 25 27  1  0
M  END
$$$$
