QRS.pdb
     RDKit          3D

 27 26  0  0  1  0  0  0  0  0999 V2000
    8.8245  -13.8811   16.3917 N   0  0  0  0  0  0  0  0  0  0  0  0
    9.0880  -13.4870   17.7557 C   0  0  0  0  0  0  0  0  0  0  0  0
   10.2297  -13.7011   18.2021 O   0  0  0  0  0  0  0  0  0  0  0  0
    8.0249  -12.8662   18.5209 C   0  0  0  0  0  0  0  0  0  0  0  0
    7.8227  -13.3708   19.8956 C   0  0  0  0  0  0  0  0  0  0  0  0
    7.7004  -14.8526   20.0082 C   0  0  2  0  0  0  0  0  0  0  0  0
    6.7120  -15.3761   19.1286 N   0  0  0  0  0  0  0  0  0  0  0  0
    7.4333  -15.2979   21.3951 C   0  0  0  0  0  0  0  0  0  0  0  0
    6.2380  -15.2845   21.7712 O   0  0  0  0  0  0  0  0  0  0  0  0
    8.2614  -18.8460   28.7056 N   0  0  0  0  0  0  0  0  0  0  0  0
    9.1885  -19.7413   28.0805 C   0  0  0  0  0  0  0  0  0  0  0  0
    9.9084  -20.5169   28.8099 N   0  0  0  0  0  0  0  0  0  0  0  0
    9.2973  -19.7543   26.6575 N   0  0  0  0  0  0  0  0  0  0  0  0
    9.9548  -18.6886   25.9254 C   0  0  0  0  0  0  0  0  0  0  0  0
    8.9412  -17.6337   25.5393 C   0  0  0  0  0  0  0  0  0  0  0  0
    9.0586  -17.3008   24.0715 C   0  0  0  0  0  0  0  0  0  0  0  0
    8.2036  -16.1804   23.6228 C   0  0  2  0  0  0  0  0  0  0  0  0
    8.4242  -15.7154   22.2671 N   0  0  0  0  0  0  0  0  0  0  0  0
    8.4601  -14.9676   24.4863 C   0  0  0  0  0  0  0  0  0  0  0  0
    9.5711  -14.3794   24.5234 O   0  0  0  0  0  0  0  0  0  0  0  0
   10.5991  -21.1577   28.3681 O   0  0  0  0  0  0  0  0  0  0  0  0
    5.4020  -13.3024   26.7108 C   0  0  0  0  0  0  0  0  0  0  0  0
    6.3954  -12.4526   26.2786 C   0  0  1  0  0  0  0  0  0  0  0  0
    7.6944  -13.2255   26.1343 N   0  0  0  0  0  0  0  0  0  0  0  0
    7.4481  -14.4116   25.3189 C   0  0  0  0  0  0  0  0  0  0  0  0
    8.3144  -13.5638   27.4231 O   0  0  0  0  0  0  0  0  0  0  0  0
    8.4501  -14.7456   27.8320 O   0  0  0  0  0  0  0  0  0  0  0  0
  1  2  1  0
  2  3  2  0
  4  5  1  0
  4  2  1  0
  5  6  1  0
  6  8  1  0
  6  7  1  6
  8  9  2  0
 11 10  1  0
 11 12  2  0
 13 14  1  0
 13 11  1  0
 14 15  1  0
 15 16  1  0
 17 16  1  1
 17 19  1  0
 18 17  1  0
 18  8  1  0
 19 20  2  0
 21 22  1  0
 23 22  1  6
 23 25  1  0
 24 19  1  0
 24 23  1  0
 25 26  2  0
 25 27  1  0
M  END
$$$$
