QRS.pdb
     RDKit          3D

 27 26  0  0  1  0  0  0  0  0999 V2000
   10.7863  -16.5656   15.5078 N   0  0  0  0  0  0  0  0  0  0  0  0
   10.4883  -15.5595   14.5157 C   0  0  0  0  0  0  0  0  0  0  0  0
   10.7533  -15.8297   13.3302 O   0  0  0  0  0  0  0  0  0  0  0  0
    9.8990  -14.3072   14.9463 C   0  0  0  0  0  0  0  0  0  0  0  0
    9.4935  -14.2244   16.3655 C   0  0  0  0  0  0  0  0  0  0  0  0
    8.0485  -14.4888   16.6215 C   0  0  2  0  0  0  0  0  0  0  0  0
    7.2200  -13.4310   16.1529 N   0  0  0  0  0  0  0  0  0  0  0  0
    7.7642  -14.7627   18.0488 C   0  0  0  0  0  0  0  0  0  0  0  0
    7.3358  -13.8037   18.7325 O   0  0  0  0  0  0  0  0  0  0  0  0
    7.5396  -22.7024   18.9655 N   0  0  0  0  0  0  0  0  0  0  0  0
    7.7522  -21.2885   18.8796 C   0  0  0  0  0  0  0  0  0  0  0  0
    8.4609  -20.8127   17.9187 N   0  0  0  0  0  0  0  0  0  0  0  0
    7.1741  -20.4330   19.8650 N   0  0  0  0  0  0  0  0  0  0  0  0
    5.8836  -19.7992   19.6734 C   0  0  0  0  0  0  0  0  0  0  0  0
    6.0747  -18.3221   19.4069 C   0  0  0  0  0  0  0  0  0  0  0  0
    7.2330  -17.7856   20.2129 C   0  0  0  0  0  0  0  0  0  0  0  0
    7.5342  -16.3559   19.9836 C   0  0  2  0  0  0  0  0  0  0  0  0
    7.9485  -16.0008   18.6401 N   0  0  0  0  0  0  0  0  0  0  0  0
    8.6889  -15.9325   20.8610 C   0  0  0  0  0  0  0  0  0  0  0  0
    9.8911  -16.0552   20.5125 O   0  0  0  0  0  0  0  0  0  0  0  0
    8.7903  -19.8262   17.9508 O   0  0  0  0  0  0  0  0  0  0  0  0
    7.9288  -14.3724   24.5597 C   0  0  0  0  0  0  0  0  0  0  0  0
    9.1116  -13.9381   24.0045 C   0  0  1  0  0  0  0  0  0  0  0  0
    9.6027  -14.9619   22.9964 N   0  0  0  0  0  0  0  0  0  0  0  0
    8.4830  -15.3628   22.1493 C   0  0  0  0  0  0  0  0  0  0  0  0
   10.2626  -16.1183   23.6185 O   0  0  0  0  0  0  0  0  0  0  0  0
   11.3542  -16.0361   24.2382 O   0  0  0  0  0  0  0  0  0  0  0  0
  1  2  1  0
  2  3  2  0
  4  5  1  0
  4  2  1  0
  5  6  1  0
  6  8  1  0
  6  7  1  1
  8  9  2  0
 11 10  1  0
 11 12  2  0
 13 14  1  0
 13 11  1  0
 14 15  1  0
 15 16  1  0
 17 16  1  6
 17 19  1  0
 18 17  1  0
 18  8  1  0
 19 20  2  0
 21 22  1  0
 23 22  1  6
 23 25  1  0
 24 19  1  0
 24 23  1  0
 25 26  2  0
 25 27  1  0
M  END
$$$$
