QRS.pdb
     RDKit          3D

 27 26  0  0  1  0  0  0  0  0999 V2000
   14.7866  -17.1155   14.5865 N   0  0  0  0  0  0  0  0  0  0  0  0
   13.3493  -17.2193   14.4937 C   0  0  0  0  0  0  0  0  0  0  0  0
   12.8072  -16.7545   13.4744 O   0  0  0  0  0  0  0  0  0  0  0  0
   12.6239  -17.8556   15.5754 C   0  0  0  0  0  0  0  0  0  0  0  0
   13.4005  -18.7685   16.4408 C   0  0  0  0  0  0  0  0  0  0  0  0
   12.6425  -19.3377   17.5919 C   0  0  2  0  0  0  0  0  0  0  0  0
   11.4503  -19.9934   17.1755 N   0  0  0  0  0  0  0  0  0  0  0  0
   12.3302  -18.3235   18.6250 C   0  0  0  0  0  0  0  0  0  0  0  0
   13.2952  -17.6651   19.0785 O   0  0  0  0  0  0  0  0  0  0  0  0
    8.5250  -12.2295   21.2039 N   0  0  0  0  0  0  0  0  0  0  0  0
    8.0966  -12.6536   19.9046 C   0  0  0  0  0  0  0  0  0  0  0  0
    8.1798  -11.8390   18.9140 N   0  0  0  0  0  0  0  0  0  0  0  0
    7.5825  -13.9741   19.7340 N   0  0  0  0  0  0  0  0  0  0  0  0
    7.5978  -14.9512   20.8059 C   0  0  0  0  0  0  0  0  0  0  0  0
    9.0065  -15.4651   21.0081 C   0  0  0  0  0  0  0  0  0  0  0  0
    9.3672  -16.4561   19.9279 C   0  0  0  0  0  0  0  0  0  0  0  0
   10.6985  -17.0812   20.0841 C   0  0  2  0  0  0  0  0  0  0  0  0
   11.0510  -18.0822   19.0958 N   0  0  0  0  0  0  0  0  0  0  0  0
   10.7654  -17.8120   21.4046 C   0  0  0  0  0  0  0  0  0  0  0  0
   10.1946  -18.9148   21.6036 O   0  0  0  0  0  0  0  0  0  0  0  0
    7.8187  -12.1153   17.9780 O   0  0  0  0  0  0  0  0  0  0  0  0
   13.5713  -16.8632   24.3312 C   0  0  0  0  0  0  0  0  0  0  0  0
   13.0488  -18.1264   24.1668 C   0  0  1  0  0  0  0  0  0  0  0  0
   11.5855  -18.0213   23.7755 N   0  0  0  0  0  0  0  0  0  0  0  0
   11.4868  -17.2900   22.5154 C   0  0  0  0  0  0  0  0  0  0  0  0
   10.7460  -17.4250   24.8240 O   0  0  0  0  0  0  0  0  0  0  0  0
   10.0840  -16.3684   24.6573 O   0  0  0  0  0  0  0  0  0  0  0  0
  1  2  1  0
  2  3  2  0
  4  5  1  0
  4  2  1  0
  5  6  1  0
  6  8  1  0
  6  7  1  6
  8  9  2  0
 11 10  1  0
 11 12  2  0
 13 14  1  0
 13 11  1  0
 14 15  1  0
 15 16  1  0
 17 16  1  6
 17 19  1  0
 18 17  1  0
 18  8  1  0
 19 20  2  0
 21 22  1  0
 23 22  1  6
 23 25  1  0
 24 19  1  0
 24 23  1  0
 25 26  2  0
 25 27  1  0
M  END
$$$$
