SEI.pdb
     RDKit          3D

 24 23  0  0  1  0  0  0  0  0999 V2000
   14.6279  -14.2694  -17.0504 O   0  0  0  0  0  0  0  0  0  0  0  0
   15.5946  -13.2942  -17.2182 C   0  0  0  0  0  0  0  0  0  0  0  0
   16.9456  -13.9642  -17.0279 C   0  0  2  0  0  0  0  0  0  0  0  0
   17.0563  -14.3780  -15.6562 N   0  0  0  0  0  0  0  0  0  0  0  0
   18.0226  -12.9976  -17.3204 C   0  0  0  0  0  0  0  0  0  0  0  0
   19.2354  -13.3951  -17.2288 O   0  0  0  0  0  0  0  0  0  0  0  0
   17.7356  -11.6673  -17.6923 N   0  0  0  0  0  0  0  0  0  0  0  0
   18.8109  -10.7772  -18.0285 C   0  0  1  0  0  0  0  0  0  0  0  0
   18.3963   -9.7712  -19.0850 C   0  0  0  0  0  0  0  0  0  0  0  0
   19.5367   -8.8228  -19.3723 C   0  0  0  0  0  0  0  0  0  0  0  0
   19.8501   -8.7235  -20.8009 C   0  0  0  0  0  0  0  0  0  0  0  0
   19.6194   -7.6714  -21.4232 O   0  0  0  0  0  0  0  0  0  0  0  0
   19.2807  -10.0895  -16.7897 C   0  0  0  0  0  0  0  0  0  0  0  0
   18.4540   -9.6906  -15.9304 O   0  0  0  0  0  0  0  0  0  0  0  0
   20.4026   -9.7853  -21.4799 O   0  0  0  0  0  0  0  0  0  0  0  0
   23.9839  -11.6753  -14.3854 C   0  0  0  0  0  0  0  0  0  0  0  0
   22.6497  -11.1823  -14.8085 C   0  0  0  0  0  0  0  0  0  0  0  0
   22.4377   -9.7142  -14.7960 C   0  0  2  0  0  0  0  0  0  0  0  0
   22.6992   -9.1123  -13.4107 C   0  0  0  0  0  0  0  0  0  0  0  0
   21.1403   -9.2051  -15.3102 C   0  0  2  0  0  0  0  0  0  0  0  0
   20.6533   -9.8474  -16.5081 N   0  0  0  0  0  0  0  0  0  0  0  0
   21.0579   -7.7325  -15.3739 C   0  0  0  0  0  0  0  0  0  0  0  0
   21.0603   -7.0841  -16.6027 O   0  0  0  0  0  0  0  0  0  0  0  0
   20.9824   -6.9844  -14.3620 O   0  0  0  0  0  0  0  0  0  0  0  0
  2  3  1  0
  2  1  1  0
  3  4  1  1
  5  6  2  0
  5  3  1  0
  7  5  1  0
  8 13  1  0
  8  7  1  0
  8  9  1  6
 10 11  1  0
 10  9  1  0
 11 12  2  0
 13 21  1  0
 14 13  2  0
 15 11  1  0
 17 16  1  0
 18 17  1  0
 18 20  1  0
 18 19  1  1
 20 22  1  0
 20 21  1  6
 22 24  2  0
 22 23  1  0
M  END
$$$$
