SEI.pdb
     RDKit          3D

 24 23  0  0  1  0  0  0  0  0999 V2000
   30.0016  -23.6481  -16.4383 O   0  0  0  0  0  0  0  0  0  0  0  0
   29.4937  -22.6529  -15.6227 C   0  0  0  0  0  0  0  0  0  0  0  0
   28.5452  -21.8196  -16.4692 C   0  0  2  0  0  0  0  0  0  0  0  0
   29.3287  -20.9614  -17.3146 N   0  0  0  0  0  0  0  0  0  0  0  0
   27.7048  -20.9817  -15.5909 C   0  0  0  0  0  0  0  0  0  0  0  0
   28.2222  -19.9279  -15.0820 O   0  0  0  0  0  0  0  0  0  0  0  0
   26.3647  -21.3229  -15.3118 N   0  0  0  0  0  0  0  0  0  0  0  0
   25.5679  -20.4548  -14.4913 C   0  0  1  0  0  0  0  0  0  0  0  0
   24.2450  -20.1176  -15.1517 C   0  0  0  0  0  0  0  0  0  0  0  0
   23.4318  -19.2172  -14.2512 C   0  0  0  0  0  0  0  0  0  0  0  0
   22.1247  -18.8731  -14.8187 C   0  0  0  0  0  0  0  0  0  0  0  0
   21.4699  -17.9215  -14.3567 O   0  0  0  0  0  0  0  0  0  0  0  0
   25.3537  -21.1002  -13.1625 C   0  0  0  0  0  0  0  0  0  0  0  0
   24.9964  -22.3035  -13.0892 O   0  0  0  0  0  0  0  0  0  0  0  0
   21.5972  -19.5906  -15.8677 O   0  0  0  0  0  0  0  0  0  0  0  0
   28.2192  -20.0364   -8.5090 C   0  0  0  0  0  0  0  0  0  0  0  0
   27.3605  -20.8033   -9.4454 C   0  0  0  0  0  0  0  0  0  0  0  0
   25.9201  -20.4510   -9.4823 C   0  0  2  0  0  0  0  0  0  0  0  0
   25.2032  -20.8458   -8.1863 C   0  0  0  0  0  0  0  0  0  0  0  0
   25.1269  -20.9323  -10.6426 C   0  0  2  0  0  0  0  0  0  0  0  0
   25.5343  -20.4172  -11.9284 N   0  0  0  0  0  0  0  0  0  0  0  0
   23.6664  -20.8714  -10.4359 C   0  0  0  0  0  0  0  0  0  0  0  0
   23.0081  -21.9072   -9.7847 O   0  0  0  0  0  0  0  0  0  0  0  0
   22.9377  -19.9163  -10.8180 O   0  0  0  0  0  0  0  0  0  0  0  0
  2  3  1  0
  2  1  1  0
  3  4  1  6
  5  6  2  0
  5  3  1  0
  7  5  1  0
  8 13  1  0
  8  7  1  0
  8  9  1  6
 10 11  1  0
 10  9  1  0
 11 12  2  0
 13 21  1  0
 14 13  2  0
 15 11  1  0
 17 16  1  0
 18 17  1  0
 18 20  1  0
 18 19  1  1
 20 22  1  0
 20 21  1  6
 22 24  2  0
 22 23  1  0
M  END
$$$$
