SEI.pdb
     RDKit          3D

 24 23  0  0  1  0  0  0  0  0999 V2000
   13.4358   -9.8340  -14.0674 O   0  0  0  0  0  0  0  0  0  0  0  0
   14.4689   -8.9177  -14.1492 C   0  0  0  0  0  0  0  0  0  0  0  0
   15.1446   -9.1224  -15.4954 C   0  0  2  0  0  0  0  0  0  0  0  0
   15.6134  -10.4791  -15.5647 N   0  0  0  0  0  0  0  0  0  0  0  0
   16.3025   -8.2137  -15.6108 C   0  0  0  0  0  0  0  0  0  0  0  0
   17.3533   -8.6427  -16.2017 O   0  0  0  0  0  0  0  0  0  0  0  0
   16.2645   -6.9041  -15.0875 N   0  0  0  0  0  0  0  0  0  0  0  0
   17.3327   -5.9912  -15.3826 C   0  0  1  0  0  0  0  0  0  0  0  0
   16.8571   -4.5511  -15.3768 C   0  0  0  0  0  0  0  0  0  0  0  0
   18.0242   -3.6198  -15.6071 C   0  0  0  0  0  0  0  0  0  0  0  0
   17.6320   -2.2073  -15.6254 C   0  0  0  0  0  0  0  0  0  0  0  0
   17.4580   -1.6174  -16.7067 O   0  0  0  0  0  0  0  0  0  0  0  0
   18.4349   -6.1948  -14.3969 C   0  0  0  0  0  0  0  0  0  0  0  0
   18.1742   -6.4275  -13.1890 O   0  0  0  0  0  0  0  0  0  0  0  0
   17.4491   -1.5083  -14.4543 O   0  0  0  0  0  0  0  0  0  0  0  0
   23.2789   -9.4556  -13.3166 C   0  0  0  0  0  0  0  0  0  0  0  0
   22.6312   -8.1375  -13.1045 C   0  0  0  0  0  0  0  0  0  0  0  0
   21.5690   -7.7455  -14.0629 C   0  0  2  0  0  0  0  0  0  0  0  0
   22.0543   -7.8237  -15.5148 C   0  0  0  0  0  0  0  0  0  0  0  0
   20.8976   -6.4385  -13.8444 C   0  0  2  0  0  0  0  0  0  0  0  0
   19.8118   -6.1407  -14.7482 N   0  0  0  0  0  0  0  0  0  0  0  0
   21.8308   -5.3071  -13.6750 C   0  0  0  0  0  0  0  0  0  0  0  0
   22.5449   -5.1602  -12.4924 O   0  0  0  0  0  0  0  0  0  0  0  0
   22.0411   -4.4269  -14.5527 O   0  0  0  0  0  0  0  0  0  0  0  0
  2  3  1  0
  2  1  1  0
  3  4  1  1
  5  6  2  0
  5  3  1  0
  7  5  1  0
  8 13  1  0
  8  7  1  0
  8  9  1  1
 10 11  1  0
 10  9  1  0
 11 12  2  0
 13 21  1  0
 14 13  2  0
 15 11  1  0
 17 16  1  0
 18 17  1  0
 18 20  1  0
 18 19  1  6
 20 22  1  0
 20 21  1  6
 22 24  2  0
 22 23  1  0
M  END
$$$$
