SEI.pdb
     RDKit          3D

 24 23  0  0  1  0  0  0  0  0999 V2000
   14.5167   -8.9589   -7.8701 O   0  0  0  0  0  0  0  0  0  0  0  0
   14.9988   -8.6298   -9.1242 C   0  0  0  0  0  0  0  0  0  0  0  0
   15.5940   -7.2347   -9.0242 C   0  0  2  0  0  0  0  0  0  0  0  0
   14.5180   -6.2932   -8.8791 N   0  0  0  0  0  0  0  0  0  0  0  0
   16.3337   -6.9227  -10.2632 C   0  0  0  0  0  0  0  0  0  0  0  0
   15.6711   -6.5120  -11.2779 O   0  0  0  0  0  0  0  0  0  0  0  0
   17.7348   -7.0691  -10.3397 N   0  0  0  0  0  0  0  0  0  0  0  0
   18.4080   -6.8120  -11.5816 C   0  0  1  0  0  0  0  0  0  0  0  0
   19.7786   -6.2015  -11.3604 C   0  0  0  0  0  0  0  0  0  0  0  0
   20.4258   -5.8878  -12.6890 C   0  0  0  0  0  0  0  0  0  0  0  0
   21.7661   -5.3107  -12.5486 C   0  0  0  0  0  0  0  0  0  0  0  0
   21.9058   -4.1021  -12.2888 O   0  0  0  0  0  0  0  0  0  0  0  0
   18.5075   -8.0847  -12.3553 C   0  0  0  0  0  0  0  0  0  0  0  0
   18.9263   -9.1342  -11.8038 O   0  0  0  0  0  0  0  0  0  0  0  0
   22.8911   -6.0884  -12.7000 O   0  0  0  0  0  0  0  0  0  0  0  0
   16.3195  -12.4796  -15.3196 C   0  0  0  0  0  0  0  0  0  0  0  0
   17.1568  -11.3158  -15.7021 C   0  0  0  0  0  0  0  0  0  0  0  0
   17.0478  -10.1000  -14.8593 C   0  0  2  0  0  0  0  0  0  0  0  0
   16.0388   -9.0981  -15.4317 C   0  0  0  0  0  0  0  0  0  0  0  0
   18.3057   -9.3847  -14.5229 C   0  0  2  0  0  0  0  0  0  0  0  0
   18.1460   -8.1911  -13.7264 N   0  0  0  0  0  0  0  0  0  0  0  0
   19.2101   -9.1909  -15.6735 C   0  0  0  0  0  0  0  0  0  0  0  0
   19.2510   -7.9688  -16.3332 O   0  0  0  0  0  0  0  0  0  0  0  0
   19.9803  -10.0810  -16.1249 O   0  0  0  0  0  0  0  0  0  0  0  0
  2  3  1  0
  2  1  1  0
  3  4  1  6
  5  6  2  0
  5  3  1  0
  7  5  1  0
  8 13  1  0
  8  7  1  0
  8  9  1  1
 10 11  1  0
 10  9  1  0
 11 12  2  0
 13 21  1  0
 14 13  2  0
 15 11  1  0
 17 16  1  0
 18 17  1  0
 18 20  1  0
 18 19  1  6
 20 22  1  0
 20 21  1  6
 22 24  2  0
 22 23  1  0
M  END
$$$$
