SEI.pdb
     RDKit          3D

 24 23  0  0  1  0  0  0  0  0999 V2000
   34.6525  -35.7587   -7.1392 O   0  0  0  0  0  0  0  0  0  0  0  0
   33.2711  -35.7912   -7.2041 C   0  0  0  0  0  0  0  0  0  0  0  0
   32.8403  -37.2134   -6.8842 C   0  0  2  0  0  0  0  0  0  0  0  0
   33.2553  -38.0657   -7.9643 N   0  0  0  0  0  0  0  0  0  0  0  0
   31.3692  -37.2713   -6.7724 C   0  0  0  0  0  0  0  0  0  0  0  0
   30.6957  -37.6134   -7.8052 O   0  0  0  0  0  0  0  0  0  0  0  0
   30.7108  -36.9599   -5.5642 N   0  0  0  0  0  0  0  0  0  0  0  0
   29.2863  -37.1141   -5.4726 C   0  0  1  0  0  0  0  0  0  0  0  0
   28.9035  -38.2366   -4.5275 C   0  0  0  0  0  0  0  0  0  0  0  0
   27.3993  -38.3446   -4.4345 C   0  0  0  0  0  0  0  0  0  0  0  0
   26.9258  -38.5490   -3.0623 C   0  0  0  0  0  0  0  0  0  0  0  0
   26.9252  -37.6061   -2.2507 O   0  0  0  0  0  0  0  0  0  0  0  0
   28.6822  -35.8198   -5.0388 C   0  0  0  0  0  0  0  0  0  0  0  0
   29.1417  -35.2046   -4.0431 O   0  0  0  0  0  0  0  0  0  0  0  0
   26.4747  -39.7802   -2.6451 O   0  0  0  0  0  0  0  0  0  0  0  0
   26.0334  -32.3419   -8.6643 C   0  0  0  0  0  0  0  0  0  0  0  0
   26.8312  -33.0213   -7.6136 C   0  0  0  0  0  0  0  0  0  0  0  0
   26.1570  -33.2837   -6.3185 C   0  0  2  0  0  0  0  0  0  0  0  0
   25.5618  -32.0059   -5.7165 C   0  0  0  0  0  0  0  0  0  0  0  0
   26.9356  -33.9967   -5.2733 C   0  0  2  0  0  0  0  0  0  0  0  0
   27.5800  -35.2150   -5.7033 N   0  0  0  0  0  0  0  0  0  0  0  0
   26.2188  -34.1475   -3.9915 C   0  0  0  0  0  0  0  0  0  0  0  0
   26.3894  -33.2104   -2.9800 O   0  0  0  0  0  0  0  0  0  0  0  0
   25.4319  -35.0968   -3.7292 O   0  0  0  0  0  0  0  0  0  0  0  0
  2  3  1  0
  2  1  1  0
  3  4  1  6
  5  6  2  0
  5  3  1  0
  7  5  1  0
  8 13  1  0
  8  7  1  0
  8  9  1  1
 10 11  1  0
 10  9  1  0
 11 12  2  0
 13 21  1  0
 14 13  2  0
 15 11  1  0
 17 16  1  0
 18 17  1  0
 18 20  1  0
 18 19  1  1
 20 22  1  0
 20 21  1  6
 22 24  2  0
 22 23  1  0
M  END
$$$$
