SEI.pdb
     RDKit          3D

 24 23  0  0  1  0  0  0  0  0999 V2000
   23.9990  -10.3459  -19.5137 O   0  0  0  0  0  0  0  0  0  0  0  0
   23.2300  -10.6444  -20.6243 C   0  0  0  0  0  0  0  0  0  0  0  0
   22.0484  -11.4706  -20.1429 C   0  0  2  0  0  0  0  0  0  0  0  0
   21.2980  -11.8987  -21.2912 N   0  0  0  0  0  0  0  0  0  0  0  0
   21.1772  -10.6377  -19.2903 C   0  0  0  0  0  0  0  0  0  0  0  0
   20.5071   -9.6981  -19.8429 O   0  0  0  0  0  0  0  0  0  0  0  0
   21.0770  -10.8614  -17.9009 N   0  0  0  0  0  0  0  0  0  0  0  0
   20.2952   -9.9681  -17.0933 C   0  0  1  0  0  0  0  0  0  0  0  0
   19.3585  -10.7222  -16.1692 C   0  0  0  0  0  0  0  0  0  0  0  0
   18.5800   -9.7491  -15.3149 C   0  0  0  0  0  0  0  0  0  0  0  0
   17.5976  -10.4089  -14.4497 C   0  0  0  0  0  0  0  0  0  0  0  0
   17.2714  -11.5913  -14.6571 O   0  0  0  0  0  0  0  0  0  0  0  0
   21.2126   -9.0815  -16.3183 C   0  0  0  0  0  0  0  0  0  0  0  0
   22.2883   -9.5327  -15.8489 O   0  0  0  0  0  0  0  0  0  0  0  0
   17.0189   -9.7387  -13.3964 O   0  0  0  0  0  0  0  0  0  0  0  0
   24.1836   -4.0007  -16.9493 C   0  0  0  0  0  0  0  0  0  0  0  0
   23.5442   -4.9086  -15.9650 C   0  0  0  0  0  0  0  0  0  0  0  0
   22.5024   -5.8324  -16.4766 C   0  0  2  0  0  0  0  0  0  0  0  0
   21.3912   -5.0828  -17.2201 C   0  0  0  0  0  0  0  0  0  0  0  0
   21.8879   -6.7759  -15.5074 C   0  0  2  0  0  0  0  0  0  0  0  0
   20.9389   -7.7089  -16.0673 N   0  0  0  0  0  0  0  0  0  0  0  0
   21.3997   -6.1317  -14.2721 C   0  0  0  0  0  0  0  0  0  0  0  0
   20.0539   -6.1972  -13.9336 O   0  0  0  0  0  0  0  0  0  0  0  0
   22.1354   -5.5008  -13.4658 O   0  0  0  0  0  0  0  0  0  0  0  0
  2  3  1  0
  2  1  1  0
  3  4  1  6
  5  6  2  0
  5  3  1  0
  7  5  1  0
  8 13  1  0
  8  7  1  0
  8  9  1  1
 10 11  1  0
 10  9  1  0
 11 12  2  0
 13 21  1  0
 14 13  2  0
 15 11  1  0
 17 16  1  0
 18 17  1  0
 18 20  1  0
 18 19  1  1
 20 22  1  0
 20 21  1  6
 22 24  2  0
 22 23  1  0
M  END
$$$$
