SEI.pdb
     RDKit          3D

 24 23  0  0  1  0  0  0  0  0999 V2000
   24.1190  -19.7818   -9.7237 O   0  0  0  0  0  0  0  0  0  0  0  0
   25.3674  -20.3661   -9.8416 C   0  0  0  0  0  0  0  0  0  0  0  0
   25.1710  -21.7099  -10.5243 C   0  0  2  0  0  0  0  0  0  0  0  0
   26.4458  -22.3688  -10.6013 N   0  0  0  0  0  0  0  0  0  0  0  0
   24.6623  -21.4991  -11.8942 C   0  0  0  0  0  0  0  0  0  0  0  0
   25.5083  -21.4363  -12.8521 O   0  0  0  0  0  0  0  0  0  0  0  0
   23.2818  -21.3686  -12.1539 N   0  0  0  0  0  0  0  0  0  0  0  0
   22.8208  -21.2782  -13.5107 C   0  0  1  0  0  0  0  0  0  0  0  0
   21.3566  -21.6545  -13.6316 C   0  0  0  0  0  0  0  0  0  0  0  0
   20.9195  -21.5754  -15.0756 C   0  0  0  0  0  0  0  0  0  0  0  0
   19.5464  -22.0452  -15.2826 C   0  0  0  0  0  0  0  0  0  0  0  0
   18.8512  -22.4008  -14.3142 O   0  0  0  0  0  0  0  0  0  0  0  0
   23.0613  -19.8945  -14.0166 C   0  0  0  0  0  0  0  0  0  0  0  0
   22.7880  -18.8980  -13.3001 O   0  0  0  0  0  0  0  0  0  0  0  0
   19.0004  -22.1025  -16.5444 O   0  0  0  0  0  0  0  0  0  0  0  0
   27.2956  -16.3978  -16.3164 C   0  0  0  0  0  0  0  0  0  0  0  0
   25.8386  -16.6785  -16.2932 C   0  0  0  0  0  0  0  0  0  0  0  0
   25.4178  -18.0226  -15.8277 C   0  0  2  0  0  0  0  0  0  0  0  0
   26.1163  -19.1411  -16.6092 C   0  0  0  0  0  0  0  0  0  0  0  0
   23.9600  -18.3038  -15.7748 C   0  0  2  0  0  0  0  0  0  0  0  0
   23.5993  -19.6202  -15.3040 N   0  0  0  0  0  0  0  0  0  0  0  0
   23.2298  -17.9105  -16.9962 C   0  0  0  0  0  0  0  0  0  0  0  0
   22.5083  -18.8555  -17.7149 O   0  0  0  0  0  0  0  0  0  0  0  0
   23.2068  -16.7382  -17.4591 O   0  0  0  0  0  0  0  0  0  0  0  0
  2  3  1  0
  2  1  1  0
  3  4  1  6
  5  6  2  0
  5  3  1  0
  7  5  1  0
  8 13  1  0
  8  7  1  0
  8  9  1  1
 10 11  1  0
 10  9  1  0
 11 12  2  0
 13 21  1  0
 14 13  2  0
 15 11  1  0
 17 16  1  0
 18 17  1  0
 18 20  1  0
 18 19  1  6
 20 22  1  0
 20 21  1  6
 22 24  2  0
 22 23  1  0
M  END
$$$$
