SEI.pdb
     RDKit          3D

 24 23  0  0  1  0  0  0  0  0999 V2000
   16.2534  -11.8568  -12.8316 O   0  0  0  0  0  0  0  0  0  0  0  0
   16.4259  -11.7301  -11.4650 C   0  0  0  0  0  0  0  0  0  0  0  0
   15.4163  -10.7031  -10.9787 C   0  0  2  0  0  0  0  0  0  0  0  0
   14.1259  -11.0522  -11.5060 N   0  0  0  0  0  0  0  0  0  0  0  0
   15.7890   -9.3662  -11.4824 C   0  0  0  0  0  0  0  0  0  0  0  0
   15.3426   -9.0029  -12.6252 O   0  0  0  0  0  0  0  0  0  0  0  0
   16.6151   -8.5022  -10.7333 N   0  0  0  0  0  0  0  0  0  0  0  0
   16.9148   -7.1922  -11.2391 C   0  0  1  0  0  0  0  0  0  0  0  0
   16.2739   -6.1060  -10.3969 C   0  0  0  0  0  0  0  0  0  0  0  0
   16.4076   -6.4420   -8.9299 C   0  0  0  0  0  0  0  0  0  0  0  0
   15.8664   -5.3984   -8.0540 C   0  0  0  0  0  0  0  0  0  0  0  0
   15.4420   -5.6869   -6.9208 O   0  0  0  0  0  0  0  0  0  0  0  0
   18.3963   -7.0193  -11.2986 C   0  0  0  0  0  0  0  0  0  0  0  0
   19.1188   -7.3797  -10.3347 O   0  0  0  0  0  0  0  0  0  0  0  0
   15.8167   -4.0857   -8.4639 O   0  0  0  0  0  0  0  0  0  0  0  0
   22.9454   -8.7268  -14.6167 C   0  0  0  0  0  0  0  0  0  0  0  0
   22.4559   -7.6151  -13.7643 C   0  0  0  0  0  0  0  0  0  0  0  0
   20.9900   -7.5168  -13.5597 C   0  0  2  0  0  0  0  0  0  0  0  0
   20.2372   -7.3772  -14.8876 C   0  0  0  0  0  0  0  0  0  0  0  0
   20.4986   -6.4842  -12.6114 C   0  0  2  0  0  0  0  0  0  0  0  0
   19.0684   -6.4524  -12.4162 N   0  0  0  0  0  0  0  0  0  0  0  0
   21.0782   -5.1444  -12.8321 C   0  0  0  0  0  0  0  0  0  0  0  0
   20.2590   -4.0750  -13.1720 O   0  0  0  0  0  0  0  0  0  0  0  0
   22.3070   -4.8809  -12.7329 O   0  0  0  0  0  0  0  0  0  0  0  0
  2  3  1  0
  2  1  1  0
  3  4  1  6
  5  6  2  0
  5  3  1  0
  7  5  1  0
  8 13  1  0
  8  7  1  0
  8  9  1  1
 10 11  1  0
 10  9  1  0
 11 12  2  0
 13 21  1  0
 14 13  2  0
 15 11  1  0
 17 16  1  0
 18 17  1  0
 18 20  1  0
 18 19  1  6
 20 22  1  0
 20 21  1  6
 22 24  2  0
 22 23  1  0
M  END
$$$$
