SEI.pdb
     RDKit          3D

 24 23  0  0  1  0  0  0  0  0999 V2000
   12.9694  -12.0328  -12.2058 O   0  0  0  0  0  0  0  0  0  0  0  0
   13.5174  -11.8893  -13.4679 C   0  0  0  0  0  0  0  0  0  0  0  0
   14.9635  -12.3500  -13.3841 C   0  0  2  0  0  0  0  0  0  0  0  0
   14.9878  -13.6587  -12.7909 N   0  0  0  0  0  0  0  0  0  0  0  0
   15.7283  -11.4250  -12.5243 C   0  0  0  0  0  0  0  0  0  0  0  0
   16.0366  -11.8098  -11.3435 O   0  0  0  0  0  0  0  0  0  0  0  0
   16.1152  -10.1473  -12.9804 N   0  0  0  0  0  0  0  0  0  0  0  0
   16.9475   -9.3207  -12.1525 C   0  0  1  0  0  0  0  0  0  0  0  0
   18.1115   -8.7389  -12.9314 C   0  0  0  0  0  0  0  0  0  0  0  0
   18.9657   -7.8844  -12.0242 C   0  0  0  0  0  0  0  0  0  0  0  0
   20.0199   -7.1644  -12.7448 C   0  0  0  0  0  0  0  0  0  0  0  0
   19.8549   -5.9774  -13.0784 O   0  0  0  0  0  0  0  0  0  0  0  0
   16.1143   -8.2397  -11.5479 C   0  0  0  0  0  0  0  0  0  0  0  0
   15.3602   -7.5382  -12.2691 O   0  0  0  0  0  0  0  0  0  0  0  0
   21.2069   -7.7821  -13.0656 O   0  0  0  0  0  0  0  0  0  0  0  0
   12.4995   -8.4578   -7.6498 C   0  0  0  0  0  0  0  0  0  0  0  0
   13.3796   -8.0594   -8.7762 C   0  0  0  0  0  0  0  0  0  0  0  0
   14.4995   -7.1380   -8.4641 C   0  0  2  0  0  0  0  0  0  0  0  0
   14.0050   -5.8362   -7.8237 C   0  0  0  0  0  0  0  0  0  0  0  0
   15.4439   -6.8110   -9.5633 C   0  0  2  0  0  0  0  0  0  0  0  0
   16.1183   -7.9408  -10.1577 N   0  0  0  0  0  0  0  0  0  0  0  0
   16.3580   -5.6936   -9.2545 C   0  0  0  0  0  0  0  0  0  0  0  0
   17.6724   -5.9472   -8.8826 O   0  0  0  0  0  0  0  0  0  0  0  0
   16.0293   -4.4776   -9.3029 O   0  0  0  0  0  0  0  0  0  0  0  0
  2  3  1  0
  2  1  1  0
  3  4  1  1
  5  6  2  0
  5  3  1  0
  7  5  1  0
  8 13  1  0
  8  7  1  0
  8  9  1  6
 10 11  1  0
 10  9  1  0
 11 12  2  0
 13 21  1  0
 14 13  2  0
 15 11  1  0
 17 16  1  0
 18 17  1  0
 18 20  1  0
 18 19  1  6
 20 22  1  0
 20 21  1  1
 22 24  2  0
 22 23  1  0
M  END
$$$$
