SEI.pdb
     RDKit          3D

 24 23  0  0  1  0  0  0  0  0999 V2000
   26.7344  -27.0423  -16.4164 O   0  0  0  0  0  0  0  0  0  0  0  0
   25.8511  -25.9801  -16.3444 C   0  0  0  0  0  0  0  0  0  0  0  0
   26.4904  -24.8142  -17.0810 C   0  0  2  0  0  0  0  0  0  0  0  0
   27.8913  -25.0926  -17.2394 N   0  0  0  0  0  0  0  0  0  0  0  0
   26.3388  -23.5817  -16.2824 C   0  0  0  0  0  0  0  0  0  0  0  0
   27.3952  -23.0166  -15.8333 O   0  0  0  0  0  0  0  0  0  0  0  0
   25.0679  -23.0310  -16.0143 N   0  0  0  0  0  0  0  0  0  0  0  0
   24.9709  -21.7299  -15.4150 C   0  0  1  0  0  0  0  0  0  0  0  0
   24.0529  -20.8162  -16.2040 C   0  0  0  0  0  0  0  0  0  0  0  0
   23.9638  -19.4662  -15.5317 C   0  0  0  0  0  0  0  0  0  0  0  0
   23.0158  -18.5624  -16.1901 C   0  0  0  0  0  0  0  0  0  0  0  0
   22.2374  -17.8667  -15.5135 O   0  0  0  0  0  0  0  0  0  0  0  0
   24.4994  -21.8755  -14.0062 C   0  0  0  0  0  0  0  0  0  0  0  0
   23.5989  -22.7045  -13.7184 O   0  0  0  0  0  0  0  0  0  0  0  0
   22.9668  -18.4648  -17.5618 O   0  0  0  0  0  0  0  0  0  0  0  0
   26.0732  -20.4657   -8.0766 C   0  0  0  0  0  0  0  0  0  0  0  0
   25.1403  -20.9781   -9.1106 C   0  0  0  0  0  0  0  0  0  0  0  0
   25.5084  -20.7419  -10.5280 C   0  0  2  0  0  0  0  0  0  0  0  0
   25.8913  -19.2795  -10.7814 C   0  0  0  0  0  0  0  0  0  0  0  0
   24.5422  -21.1787  -11.5685 C   0  0  2  0  0  0  0  0  0  0  0  0
   25.0221  -21.1090  -12.9284 N   0  0  0  0  0  0  0  0  0  0  0  0
   23.1899  -20.6091  -11.4066 C   0  0  0  0  0  0  0  0  0  0  0  0
   22.2795  -21.2028  -10.5411 O   0  0  0  0  0  0  0  0  0  0  0  0
   22.7768  -19.5851  -12.0150 O   0  0  0  0  0  0  0  0  0  0  0  0
  2  3  1  0
  2  1  1  0
  3  4  1  1
  5  6  2  0
  5  3  1  0
  7  5  1  0
  8 13  1  0
  8  7  1  0
  8  9  1  6
 10 11  1  0
 10  9  1  0
 11 12  2  0
 13 21  1  0
 14 13  2  0
 15 11  1  0
 17 16  1  0
 18 17  1  0
 18 20  1  0
 18 19  1  1
 20 22  1  0
 20 21  1  6
 22 24  2  0
 22 23  1  0
M  END
$$$$
