SEI.pdb
     RDKit          3D

 24 23  0  0  1  0  0  0  0  0999 V2000
   31.9574  -13.9897  -17.3793 O   0  0  0  0  0  0  0  0  0  0  0  0
   32.2146  -14.3423  -18.6920 C   0  0  0  0  0  0  0  0  0  0  0  0
   31.0703  -13.8020  -19.5342 C   0  0  2  0  0  0  0  0  0  0  0  0
   31.2619  -14.2371  -20.8903 N   0  0  0  0  0  0  0  0  0  0  0  0
   31.0871  -12.3260  -19.5025 C   0  0  0  0  0  0  0  0  0  0  0  0
   31.9243  -11.7130  -20.2512 O   0  0  0  0  0  0  0  0  0  0  0  0
   30.2081  -11.5984  -18.6730 N   0  0  0  0  0  0  0  0  0  0  0  0
   30.2583  -10.1634  -18.6723 C   0  0  1  0  0  0  0  0  0  0  0  0
   28.8724   -9.5540  -18.5848 C   0  0  0  0  0  0  0  0  0  0  0  0
   28.9614   -8.0492  -18.6862 C   0  0  0  0  0  0  0  0  0  0  0  0
   27.6513   -7.3946  -18.6225 C   0  0  0  0  0  0  0  0  0  0  0  0
   27.5712   -6.1619  -18.4756 O   0  0  0  0  0  0  0  0  0  0  0  0
   31.1167   -9.7058  -17.5401 C   0  0  0  0  0  0  0  0  0  0  0  0
   30.9486  -10.1720  -16.3845 O   0  0  0  0  0  0  0  0  0  0  0  0
   26.4894   -8.1249  -18.7231 O   0  0  0  0  0  0  0  0  0  0  0  0
   36.1340  -10.4270  -16.9976 C   0  0  0  0  0  0  0  0  0  0  0  0
   34.7013  -10.0580  -16.8827 C   0  0  0  0  0  0  0  0  0  0  0  0
   34.3904   -8.6283  -16.6383 C   0  0  2  0  0  0  0  0  0  0  0  0
   35.0851   -8.1013  -15.3777 C   0  0  0  0  0  0  0  0  0  0  0  0
   32.9582   -8.2350  -16.6045 C   0  0  2  0  0  0  0  0  0  0  0  0
   32.1507   -8.7410  -17.6892 N   0  0  0  0  0  0  0  0  0  0  0  0
   32.7379   -6.7983  -16.3460 C   0  0  0  0  0  0  0  0  0  0  0  0
   32.9344   -6.2782  -15.0728 O   0  0  0  0  0  0  0  0  0  0  0  0
   32.3707   -5.9705  -17.2231 O   0  0  0  0  0  0  0  0  0  0  0  0
  2  3  1  0
  2  1  1  0
  3  4  1  6
  5  6  2  0
  5  3  1  0
  7  5  1  0
  8 13  1  0
  8  7  1  0
  8  9  1  1
 10 11  1  0
 10  9  1  0
 11 12  2  0
 13 21  1  0
 14 13  2  0
 15 11  1  0
 17 16  1  0
 18 17  1  0
 18 20  1  0
 18 19  1  1
 20 22  1  0
 20 21  1  6
 22 24  2  0
 22 23  1  0
M  END
$$$$
