SEI.pdb
     RDKit          3D

 24 23  0  0  1  0  0  0  0  0999 V2000
   14.3801  -12.6833  -14.4677 O   0  0  0  0  0  0  0  0  0  0  0  0
   15.6888  -12.3471  -14.7642 C   0  0  0  0  0  0  0  0  0  0  0  0
   15.7752  -12.1664  -16.2710 C   0  0  2  0  0  0  0  0  0  0  0  0
   16.2342  -13.3995  -16.8490 N   0  0  0  0  0  0  0  0  0  0  0  0
   16.7494  -11.1028  -16.5866 C   0  0  0  0  0  0  0  0  0  0  0  0
   17.9611  -11.4406  -16.8208 O   0  0  0  0  0  0  0  0  0  0  0  0
   16.3672   -9.7456  -16.6319 N   0  0  0  0  0  0  0  0  0  0  0  0
   17.3333   -8.7486  -16.9983 C   0  0  1  0  0  0  0  0  0  0  0  0
   16.6752   -7.4186  -17.3115 C   0  0  0  0  0  0  0  0  0  0  0  0
   17.7203   -6.4084  -17.7235 C   0  0  0  0  0  0  0  0  0  0  0  0
   17.1475   -5.1047  -18.0720 C   0  0  0  0  0  0  0  0  0  0  0  0
   16.0512   -5.0359  -18.6560 O   0  0  0  0  0  0  0  0  0  0  0  0
   18.3297   -8.6062  -15.8959 C   0  0  0  0  0  0  0  0  0  0  0  0
   17.9559   -8.6085  -14.6954 O   0  0  0  0  0  0  0  0  0  0  0  0
   17.8059   -3.9367  -17.7627 O   0  0  0  0  0  0  0  0  0  0  0  0
   23.4987  -10.6904  -13.7129 C   0  0  0  0  0  0  0  0  0  0  0  0
   22.6657   -9.4758  -13.8940 C   0  0  0  0  0  0  0  0  0  0  0  0
   21.6755   -9.4952  -14.9984 C   0  0  2  0  0  0  0  0  0  0  0  0
   22.3474   -9.6829  -16.3632 C   0  0  0  0  0  0  0  0  0  0  0  0
   20.7179   -8.3623  -15.0797 C   0  0  2  0  0  0  0  0  0  0  0  0
   19.7260   -8.4629  -16.1240 N   0  0  0  0  0  0  0  0  0  0  0  0
   21.3571   -7.0328  -15.0207 C   0  0  0  0  0  0  0  0  0  0  0  0
   21.2416   -6.1529  -16.0896 O   0  0  0  0  0  0  0  0  0  0  0  0
   22.0270   -6.6137  -14.0384 O   0  0  0  0  0  0  0  0  0  0  0  0
  2  3  1  0
  2  1  1  0
  3  4  1  6
  5  6  2  0
  5  3  1  0
  7  5  1  0
  8 13  1  0
  8  7  1  0
  8  9  1  1
 10 11  1  0
 10  9  1  0
 11 12  2  0
 13 21  1  0
 14 13  2  0
 15 11  1  0
 17 16  1  0
 18 17  1  0
 18 20  1  0
 18 19  1  6
 20 22  1  0
 20 21  1  6
 22 24  2  0
 22 23  1  0
M  END
$$$$
