NVL.pdb
     RDKit          3D

 24 23  0  0  1  0  0  0  0  0999 V2000
   29.0258  -18.7723  -18.0180 N   0  0  0  0  0  0  0  0  0  0  0  0
   28.7303  -17.4789  -17.5438 C   0  0  0  0  0  0  0  0  0  0  0  0
   29.3368  -16.4955  -18.0268 O   0  0  0  0  0  0  0  0  0  0  0  0
   27.7093  -17.3096  -16.4847 C   0  0  0  0  0  0  0  0  0  0  0  0
   26.4388  -18.0618  -16.8338 C   0  0  2  0  0  0  0  0  0  0  0  0
   25.7129  -17.4147  -17.9052 N   0  0  0  0  0  0  0  0  0  0  0  0
   25.5803  -18.0197  -15.6057 C   0  0  0  0  0  0  0  0  0  0  0  0
   25.1867  -16.9538  -15.0861 O   0  0  0  0  0  0  0  0  0  0  0  0
   22.3052  -19.4244  -15.2024 C   0  0  0  0  0  0  0  0  0  0  0  0
   23.1589  -20.1810  -14.2217 C   0  0  2  0  0  0  0  0  0  0  0  0
   22.3688  -20.5058  -12.9961 C   0  0  0  0  0  0  0  0  0  0  0  0
   24.3949  -19.3659  -13.8614 C   0  0  2  0  0  0  0  0  0  0  0  0
   25.2212  -19.2762  -15.0389 N   0  0  0  0  0  0  0  0  0  0  0  0
   25.1609  -20.0430  -12.7910 C   0  0  0  0  0  0  0  0  0  0  0  0
   25.6379  -21.2050  -12.9697 O   0  0  0  0  0  0  0  0  0  0  0  0
   26.3068  -21.0510   -7.6051 C   0  0  0  0  0  0  0  0  0  0  0  0
   27.3330  -20.1437   -8.3041 C   0  0  2  0  0  0  0  0  0  0  0  0
   27.9476  -19.2560   -7.2411 C   0  0  0  0  0  0  0  0  0  0  0  0
   26.6470  -19.3553   -9.3775 C   0  0  0  0  0  0  0  0  0  0  0  0
   26.1095  -20.1467  -10.5089 C   0  0  2  0  0  0  0  0  0  0  0  0
   25.3983  -19.4306  -11.5211 N   0  0  0  0  0  0  0  0  0  0  0  0
   25.1585  -21.1495   -9.9275 C   0  0  0  0  0  0  0  0  0  0  0  0
   25.5242  -22.4856   -9.8011 O   0  0  0  0  0  0  0  0  0  0  0  0
   24.0246  -20.7932   -9.5496 O   0  0  0  0  0  0  0  0  0  0  0  0
  2  1  1  0
  2  3  2  0
  4  2  1  0
  5  4  1  0
  5  6  1  6
  7  8  2  0
  7  5  1  0
 10  9  1  6
 10 12  1  0
 11 10  1  0
 12 13  1  6
 13  7  1  0
 14 21  1  0
 14 12  1  0
 15 14  2  0
 17 16  1  1
 18 17  1  0
 20 19  1  1
 19 17  1  0
 20 22  1  0
 20 21  1  0
 22 23  1  0
 24 22  2  0
M  END
$$$$
