NVL.pdb
     RDKit          3D

 24 23  0  0  1  0  0  0  0  0999 V2000
   17.5781  -33.9086   -6.9359 N   0  0  0  0  0  0  0  0  0  0  0  0
   16.9747  -32.6695   -6.6430 C   0  0  0  0  0  0  0  0  0  0  0  0
   15.7271  -32.5699   -6.6856 O   0  0  0  0  0  0  0  0  0  0  0  0
   17.8280  -31.5116   -6.2911 C   0  0  0  0  0  0  0  0  0  0  0  0
   17.5162  -30.3211   -7.1784 C   0  0  2  0  0  0  0  0  0  0  0  0
   18.1694  -30.4290   -8.4651 N   0  0  0  0  0  0  0  0  0  0  0  0
   18.0778  -29.1215   -6.4767 C   0  0  0  0  0  0  0  0  0  0  0  0
   19.2836  -28.7998   -6.5368 O   0  0  0  0  0  0  0  0  0  0  0  0
   16.4113  -25.8239   -6.9528 C   0  0  0  0  0  0  0  0  0  0  0  0
   16.4553  -26.0650   -5.4685 C   0  0  2  0  0  0  0  0  0  0  0  0
   16.6980  -24.7799   -4.7462 C   0  0  0  0  0  0  0  0  0  0  0  0
   17.5397  -27.0813   -5.1321 C   0  0  2  0  0  0  0  0  0  0  0  0
   17.1583  -28.3416   -5.7183 N   0  0  0  0  0  0  0  0  0  0  0  0
   17.6467  -27.2497   -3.6654 C   0  0  0  0  0  0  0  0  0  0  0  0
   16.8332  -27.9927   -3.0363 O   0  0  0  0  0  0  0  0  0  0  0  0
   20.9437  -25.4322    1.3011 C   0  0  0  0  0  0  0  0  0  0  0  0
   19.8687  -26.3646    0.7181 C   0  0  2  0  0  0  0  0  0  0  0  0
   20.1452  -27.7573    1.2469 C   0  0  0  0  0  0  0  0  0  0  0  0
   19.9182  -26.3031   -0.7778 C   0  0  0  0  0  0  0  0  0  0  0  0
   18.7014  -26.7760   -1.4787 C   0  0  2  0  0  0  0  0  0  0  0  0
   18.6570  -26.5933   -2.8957 N   0  0  0  0  0  0  0  0  0  0  0  0
   17.5428  -26.0203   -0.9002 C   0  0  0  0  0  0  0  0  0  0  0  0
   16.8375  -26.5245    0.1875 O   0  0  0  0  0  0  0  0  0  0  0  0
   17.1988  -24.9268   -1.3915 O   0  0  0  0  0  0  0  0  0  0  0  0
  2  1  1  0
  2  3  2  0
  4  2  1  0
  5  4  1  0
  5  6  1  6
  7  8  2  0
  7  5  1  0
 10  9  1  6
 10 12  1  0
 11 10  1  0
 12 13  1  6
 13  7  1  0
 14 21  1  0
 14 12  1  0
 15 14  2  0
 17 16  1  1
 18 17  1  0
 20 19  1  1
 19 17  1  0
 20 22  1  0
 20 21  1  0
 22 23  1  0
 24 22  2  0
M  END
$$$$
