NVL.pdb
     RDKit          3D

 24 23  0  0  1  0  0  0  0  0999 V2000
   23.3646  -15.9345  -20.3298 N   0  0  0  0  0  0  0  0  0  0  0  0
   22.6434  -14.7356  -20.4962 C   0  0  0  0  0  0  0  0  0  0  0  0
   22.0725  -14.5102  -21.5877 O   0  0  0  0  0  0  0  0  0  0  0  0
   22.5757  -13.7678  -19.3774 C   0  0  0  0  0  0  0  0  0  0  0  0
   23.3920  -14.2522  -18.1938 C   0  0  2  0  0  0  0  0  0  0  0  0
   22.7747  -15.3919  -17.5505 N   0  0  0  0  0  0  0  0  0  0  0  0
   23.4081  -13.1216  -17.2097 C   0  0  0  0  0  0  0  0  0  0  0  0
   22.4925  -12.9256  -16.3826 O   0  0  0  0  0  0  0  0  0  0  0  0
   26.8878  -11.9808  -15.5953 C   0  0  0  0  0  0  0  0  0  0  0  0
   26.1604  -10.8249  -16.2259 C   0  0  2  0  0  0  0  0  0  0  0  0
   26.3657   -9.5856  -15.4171 C   0  0  0  0  0  0  0  0  0  0  0  0
   24.6753  -11.1425  -16.3511 C   0  0  2  0  0  0  0  0  0  0  0  0
   24.5386  -12.2562  -17.2558 N   0  0  0  0  0  0  0  0  0  0  0  0
   23.9483   -9.9808  -16.9104 C   0  0  0  0  0  0  0  0  0  0  0  0
   24.2224   -9.5395  -18.0679 O   0  0  0  0  0  0  0  0  0  0  0  0
   18.5097   -7.1481  -16.8366 C   0  0  0  0  0  0  0  0  0  0  0  0
   19.9758   -7.1367  -17.3006 C   0  0  2  0  0  0  0  0  0  0  0  0
   19.9712   -7.2507  -18.8115 C   0  0  0  0  0  0  0  0  0  0  0  0
   20.7112   -8.2660  -16.6466 C   0  0  0  0  0  0  0  0  0  0  0  0
   22.1839   -8.2502  -16.8084 C   0  0  2  0  0  0  0  0  0  0  0  0
   22.9162   -9.3079  -16.1852 N   0  0  0  0  0  0  0  0  0  0  0  0
   22.6747   -6.9642  -16.2139 C   0  0  0  0  0  0  0  0  0  0  0  0
   22.8477   -5.8349  -17.0073 O   0  0  0  0  0  0  0  0  0  0  0  0
   22.9339   -6.8947  -14.9959 O   0  0  0  0  0  0  0  0  0  0  0  0
  2  1  1  0
  2  3  2  0
  4  2  1  0
  5  4  1  0
  5  6  1  1
  7  8  2  0
  7  5  1  0
 10  9  1  1
 10 12  1  0
 11 10  1  0
 12 13  1  6
 13  7  1  0
 14 21  1  0
 14 12  1  0
 15 14  2  0
 17 16  1  1
 18 17  1  0
 20 19  1  1
 19 17  1  0
 20 22  1  0
 20 21  1  0
 22 23  1  0
 24 22  2  0
M  END
$$$$
