NVL.pdb
     RDKit          3D

 24 23  0  0  1  0  0  0  0  0999 V2000
   14.5391  -12.1364  -14.4409 N   0  0  0  0  0  0  0  0  0  0  0  0
   14.9748  -11.1966  -15.3961 C   0  0  0  0  0  0  0  0  0  0  0  0
   14.1355  -10.6589  -16.1541 O   0  0  0  0  0  0  0  0  0  0  0  0
   16.4153  -10.8647  -15.4834 C   0  0  0  0  0  0  0  0  0  0  0  0
   16.9185  -11.0125  -16.9070 C   0  0  2  0  0  0  0  0  0  0  0  0
   17.0504  -12.4032  -17.2847 N   0  0  0  0  0  0  0  0  0  0  0  0
   18.2855  -10.3980  -16.9304 C   0  0  0  0  0  0  0  0  0  0  0  0
   19.3315  -11.0565  -16.7477 O   0  0  0  0  0  0  0  0  0  0  0  0
   19.4857   -8.3544  -19.8071 C   0  0  0  0  0  0  0  0  0  0  0  0
   19.5259   -7.4666  -18.5933 C   0  0  2  0  0  0  0  0  0  0  0  0
   20.6902   -6.5341  -18.6771 C   0  0  0  0  0  0  0  0  0  0  0  0
   19.6055   -8.3098  -17.3266 C   0  0  2  0  0  0  0  0  0  0  0  0
   18.3472   -8.9962  -17.1755 N   0  0  0  0  0  0  0  0  0  0  0  0
   19.8211   -7.4426  -16.1466 C   0  0  0  0  0  0  0  0  0  0  0  0
   18.9116   -6.6540  -15.7457 O   0  0  0  0  0  0  0  0  0  0  0  0
   20.2780   -8.4034  -11.8147 C   0  0  0  0  0  0  0  0  0  0  0  0
   21.5790   -8.5453  -12.6221 C   0  0  2  0  0  0  0  0  0  0  0  0
   22.6151   -9.1597  -11.7030 C   0  0  0  0  0  0  0  0  0  0  0  0
   21.9956   -7.1993  -13.1308 C   0  0  0  0  0  0  0  0  0  0  0  0
   21.1732   -6.6488  -14.2334 C   0  0  2  0  0  0  0  0  0  0  0  0
   21.0466   -7.4501  -15.4104 N   0  0  0  0  0  0  0  0  0  0  0  0
   21.8075   -5.3548  -14.6472 C   0  0  0  0  0  0  0  0  0  0  0  0
   21.7465   -4.2374  -13.8210 O   0  0  0  0  0  0  0  0  0  0  0  0
   22.3989   -5.2677  -15.7418 O   0  0  0  0  0  0  0  0  0  0  0  0
  2  1  1  0
  2  3  2  0
  4  2  1  0
  5  4  1  0
  5  6  1  1
  7  8  2  0
  7  5  1  0
 10  9  1  6
 10 12  1  0
 11 10  1  0
 12 13  1  1
 13  7  1  0
 14 21  1  0
 14 12  1  0
 15 14  2  0
 17 16  1  1
 18 17  1  0
 20 19  1  1
 19 17  1  0
 20 22  1  0
 20 21  1  0
 22 23  1  0
 24 22  2  0
M  END
$$$$
