NVL.pdb
     RDKit          3D

 24 23  0  0  1  0  0  0  0  0999 V2000
   30.2505  -19.9391  -18.6257 N   0  0  0  0  0  0  0  0  0  0  0  0
   28.8558  -20.1023  -18.5098 C   0  0  0  0  0  0  0  0  0  0  0  0
   28.2623  -20.8786  -19.2929 O   0  0  0  0  0  0  0  0  0  0  0  0
   28.1215  -19.3529  -17.4648 C   0  0  0  0  0  0  0  0  0  0  0  0
   26.6303  -19.3562  -17.7446 C   0  0  2  0  0  0  0  0  0  0  0  0
   26.2890  -18.4620  -18.8297 N   0  0  0  0  0  0  0  0  0  0  0  0
   25.9730  -18.8409  -16.4999 C   0  0  0  0  0  0  0  0  0  0  0  0
   26.0949  -17.6624  -16.1032 O   0  0  0  0  0  0  0  0  0  0  0  0
   22.4356  -20.3672  -15.5994 C   0  0  0  0  0  0  0  0  0  0  0  0
   23.0195  -19.1401  -14.9542 C   0  0  2  0  0  0  0  0  0  0  0  0
   22.9109  -17.9720  -15.8793 C   0  0  0  0  0  0  0  0  0  0  0  0
   24.4739  -19.3874  -14.5727 C   0  0  2  0  0  0  0  0  0  0  0  0
   25.1826  -19.7723  -15.7673 N   0  0  0  0  0  0  0  0  0  0  0  0
   24.5650  -20.4885  -13.5877 C   0  0  0  0  0  0  0  0  0  0  0  0
   24.6198  -21.6975  -13.9687 O   0  0  0  0  0  0  0  0  0  0  0  0
   25.6400  -18.8444  -10.0656 C   0  0  0  0  0  0  0  0  0  0  0  0
   25.5967  -20.1584   -9.2679 C   0  0  2  0  0  0  0  0  0  0  0  0
   26.7559  -20.1320   -8.2926 C   0  0  0  0  0  0  0  0  0  0  0  0
   25.6760  -21.3159  -10.2156 C   0  0  0  0  0  0  0  0  0  0  0  0
   24.6366  -21.3520  -11.2708 C   0  0  2  0  0  0  0  0  0  0  0  0
   24.5956  -20.2485  -12.1787 N   0  0  0  0  0  0  0  0  0  0  0  0
   23.3094  -21.3999  -10.5749 C   0  0  0  0  0  0  0  0  0  0  0  0
   22.8687  -22.5698   -9.9650 O   0  0  0  0  0  0  0  0  0  0  0  0
   22.5842  -20.3859  -10.5362 O   0  0  0  0  0  0  0  0  0  0  0  0
  2  1  1  0
  2  3  2  0
  4  2  1  0
  5  4  1  0
  5  6  1  6
  7  8  2  0
  7  5  1  0
 10  9  1  6
 10 12  1  0
 11 10  1  0
 12 13  1  6
 13  7  1  0
 14 21  1  0
 14 12  1  0
 15 14  2  0
 17 16  1  6
 18 17  1  0
 20 19  1  1
 19 17  1  0
 20 22  1  0
 20 21  1  0
 22 23  1  0
 24 22  2  0
M  END
$$$$
