NVL.pdb
     RDKit          3D

 24 23  0  0  1  0  0  0  0  0999 V2000
   20.8916  -18.9467  -13.0186 N   0  0  0  0  0  0  0  0  0  0  0  0
   20.8082  -18.7534  -11.6255 C   0  0  0  0  0  0  0  0  0  0  0  0
   19.9720  -17.9410  -11.1683 O   0  0  0  0  0  0  0  0  0  0  0  0
   21.7106  -19.5146  -10.7316 C   0  0  0  0  0  0  0  0  0  0  0  0
   22.6445  -20.4010  -11.5341 C   0  0  2  0  0  0  0  0  0  0  0  0
   21.9472  -21.5343  -12.1025 N   0  0  0  0  0  0  0  0  0  0  0  0
   23.6577  -20.9250  -10.5616 C   0  0  0  0  0  0  0  0  0  0  0  0
   23.4054  -21.8274   -9.7351 O   0  0  0  0  0  0  0  0  0  0  0  0
   26.8900  -21.6925  -12.2052 C   0  0  0  0  0  0  0  0  0  0  0  0
   27.2509  -20.9281  -10.9608 C   0  0  2  0  0  0  0  0  0  0  0  0
   28.4788  -21.5090  -10.3389 C   0  0  0  0  0  0  0  0  0  0  0  0
   26.0897  -20.9498   -9.9743 C   0  0  2  0  0  0  0  0  0  0  0  0
   24.9544  -20.3381  -10.6180 N   0  0  0  0  0  0  0  0  0  0  0  0
   26.4308  -20.1685   -8.7643 C   0  0  0  0  0  0  0  0  0  0  0  0
   26.3633  -18.9016   -8.7691 O   0  0  0  0  0  0  0  0  0  0  0  0
   28.7545  -20.7656   -2.9964 C   0  0  0  0  0  0  0  0  0  0  0  0
   28.2407  -19.8496   -4.1197 C   0  0  2  0  0  0  0  0  0  0  0  0
   27.2724  -18.8673   -3.4928 C   0  0  0  0  0  0  0  0  0  0  0  0
   27.5962  -20.6842   -5.1837 C   0  0  0  0  0  0  0  0  0  0  0  0
   27.3264  -19.9913   -6.4653 C   0  0  2  0  0  0  0  0  0  0  0  0
   26.8474  -20.7930   -7.5476 N   0  0  0  0  0  0  0  0  0  0  0  0
   28.6198  -19.3772   -6.9104 C   0  0  0  0  0  0  0  0  0  0  0  0
   28.8925  -18.0362   -6.6613 O   0  0  0  0  0  0  0  0  0  0  0  0
   29.4678  -20.0668   -7.5113 O   0  0  0  0  0  0  0  0  0  0  0  0
  2  1  1  0
  2  3  2  0
  4  2  1  0
  5  4  1  0
  5  6  1  1
  7  8  2  0
  7  5  1  0
 10  9  1  6
 10 12  1  0
 11 10  1  0
 12 13  1  6
 13  7  1  0
 14 21  1  0
 14 12  1  0
 15 14  2  0
 17 16  1  1
 18 17  1  0
 20 19  1  1
 19 17  1  0
 20 22  1  0
 20 21  1  0
 22 23  1  0
 24 22  2  0
M  END
$$$$
