NVL.pdb
     RDKit          3D

 24 23  0  0  1  0  0  0  0  0999 V2000
   29.1086  -21.6666  -15.8915 N   0  0  0  0  0  0  0  0  0  0  0  0
   28.3195  -20.5011  -15.9562 C   0  0  0  0  0  0  0  0  0  0  0  0
   28.0577  -19.9993  -17.0732 O   0  0  0  0  0  0  0  0  0  0  0  0
   27.8165  -19.8943  -14.7025 C   0  0  0  0  0  0  0  0  0  0  0  0
   26.8104  -20.8066  -14.0263 C   0  0  2  0  0  0  0  0  0  0  0  0
   25.6339  -21.0036  -14.8454 N   0  0  0  0  0  0  0  0  0  0  0  0
   26.3858  -20.1010  -12.7739 C   0  0  0  0  0  0  0  0  0  0  0  0
   26.4289  -18.8592  -12.6438 O   0  0  0  0  0  0  0  0  0  0  0  0
   23.0750  -20.5304  -11.4143 C   0  0  0  0  0  0  0  0  0  0  0  0
   23.9868  -20.9467  -10.2925 C   0  0  2  0  0  0  0  0  0  0  0  0
   23.4209  -20.5087   -8.9810 C   0  0  0  0  0  0  0  0  0  0  0  0
   25.3774  -20.3588  -10.4986 C   0  0  2  0  0  0  0  0  0  0  0  0
   25.9187  -20.9238  -11.7090 N   0  0  0  0  0  0  0  0  0  0  0  0
   26.2596  -20.7208   -9.3665 C   0  0  0  0  0  0  0  0  0  0  0  0
   26.7864  -21.8729   -9.2967 O   0  0  0  0  0  0  0  0  0  0  0  0
   28.3125  -20.1387   -4.3874 C   0  0  0  0  0  0  0  0  0  0  0  0
   29.1489  -19.5150   -5.5171 C   0  0  2  0  0  0  0  0  0  0  0  0
   29.9118  -18.3490   -4.9221 C   0  0  0  0  0  0  0  0  0  0  0  0
   28.2403  -19.0923   -6.6306 C   0  0  0  0  0  0  0  0  0  0  0  0
   27.4736  -20.1812   -7.2800 C   0  0  2  0  0  0  0  0  0  0  0  0
   26.5578  -19.8041   -8.3107 N   0  0  0  0  0  0  0  0  0  0  0  0
   26.6743  -20.8539   -6.2045 C   0  0  0  0  0  0  0  0  0  0  0  0
   27.1981  -21.9322   -5.4990 O   0  0  0  0  0  0  0  0  0  0  0  0
   25.5262  -20.4507   -5.9308 O   0  0  0  0  0  0  0  0  0  0  0  0
  2  1  1  0
  2  3  2  0
  4  2  1  0
  5  4  1  0
  5  6  1  6
  7  8  2  0
  7  5  1  0
 10  9  1  6
 10 12  1  0
 11 10  1  0
 12 13  1  6
 13  7  1  0
 14 21  1  0
 14 12  1  0
 15 14  2  0
 17 16  1  1
 18 17  1  0
 20 19  1  1
 19 17  1  0
 20 22  1  0
 20 21  1  0
 22 23  1  0
 24 22  2  0
M  END
$$$$
