NVL.pdb
     RDKit          3D

 24 23  0  0  1  0  0  0  0  0999 V2000
   26.1697  -22.2067  -10.1321 N   0  0  0  0  0  0  0  0  0  0  0  0
   25.8801  -20.8280  -10.1119 C   0  0  0  0  0  0  0  0  0  0  0  0
   26.4184  -20.1012   -9.2458 O   0  0  0  0  0  0  0  0  0  0  0  0
   24.9457  -20.2676  -11.1148 C   0  0  0  0  0  0  0  0  0  0  0  0
   24.4383  -21.3525  -12.0461 C   0  0  2  0  0  0  0  0  0  0  0  0
   25.2835  -22.5264  -12.0083 N   0  0  0  0  0  0  0  0  0  0  0  0
   24.5090  -20.7792  -13.4292 C   0  0  0  0  0  0  0  0  0  0  0  0
   25.4125  -21.0702  -14.2417 O   0  0  0  0  0  0  0  0  0  0  0  0
   21.6577  -21.2119  -15.5809 C   0  0  0  0  0  0  0  0  0  0  0  0
   21.8830  -19.7246  -15.5728 C   0  0  2  0  0  0  0  0  0  0  0  0
   21.5993  -19.1544  -16.9242 C   0  0  0  0  0  0  0  0  0  0  0  0
   23.3126  -19.4110  -15.1488 C   0  0  2  0  0  0  0  0  0  0  0  0
   23.4783  -19.8650  -13.7909 N   0  0  0  0  0  0  0  0  0  0  0  0
   23.5528  -17.9512  -15.1969 C   0  0  0  0  0  0  0  0  0  0  0  0
   22.9336  -17.1654  -14.4166 O   0  0  0  0  0  0  0  0  0  0  0  0
   27.3846  -13.7480  -17.5043 C   0  0  0  0  0  0  0  0  0  0  0  0
   26.2189  -13.9936  -16.5318 C   0  0  2  0  0  0  0  0  0  0  0  0
   26.5284  -13.2360  -15.2567 C   0  0  0  0  0  0  0  0  0  0  0  0
   26.0709  -15.4658  -16.2979 C   0  0  0  0  0  0  0  0  0  0  0  0
   24.6829  -15.9472  -16.1055 C   0  0  2  0  0  0  0  0  0  0  0  0
   24.4807  -17.3623  -16.1113 N   0  0  0  0  0  0  0  0  0  0  0  0
   23.8647  -15.3803  -17.2268 C   0  0  0  0  0  0  0  0  0  0  0  0
   23.1747  -14.1831  -17.0683 O   0  0  0  0  0  0  0  0  0  0  0  0
   23.7949  -15.9802  -18.3181 O   0  0  0  0  0  0  0  0  0  0  0  0
  2  1  1  0
  2  3  2  0
  4  2  1  0
  5  4  1  0
  5  6  1  6
  7  8  2  0
  7  5  1  0
 10  9  1  6
 10 12  1  0
 11 10  1  0
 12 13  1  1
 13  7  1  0
 14 21  1  0
 14 12  1  0
 15 14  2  0
 17 16  1  6
 18 17  1  0
 20 19  1  6
 19 17  1  0
 20 22  1  0
 20 21  1  0
 22 23  1  0
 24 22  2  0
M  END
$$$$
