NVL.pdb
     RDKit          3D

 24 23  0  0  1  0  0  0  0  0999 V2000
   19.7976  -17.2225  -17.4808 N   0  0  0  0  0  0  0  0  0  0  0  0
   19.0197  -16.6119  -18.4845 C   0  0  0  0  0  0  0  0  0  0  0  0
   18.6362  -17.2935  -19.4625 O   0  0  0  0  0  0  0  0  0  0  0  0
   18.6721  -15.1777  -18.3618 C   0  0  0  0  0  0  0  0  0  0  0  0
   19.2566  -14.5867  -17.0925 C   0  0  2  0  0  0  0  0  0  0  0  0
   18.2527  -14.4399  -16.0608 N   0  0  0  0  0  0  0  0  0  0  0  0
   19.7441  -13.2172  -17.4580 C   0  0  0  0  0  0  0  0  0  0  0  0
   20.6217  -13.0153  -18.3241 O   0  0  0  0  0  0  0  0  0  0  0  0
   18.7284   -8.4209  -16.8444 C   0  0  0  0  0  0  0  0  0  0  0  0
   18.3536   -9.8682  -16.6778 C   0  0  2  0  0  0  0  0  0  0  0  0
   17.8937  -10.1223  -15.2792 C   0  0  0  0  0  0  0  0  0  0  0  0
   19.5386  -10.7620  -17.0224 C   0  0  2  0  0  0  0  0  0  0  0  0
   19.1518  -12.1255  -16.7606 N   0  0  0  0  0  0  0  0  0  0  0  0
   20.7006  -10.4233  -16.1704 C   0  0  0  0  0  0  0  0  0  0  0  0
   20.8286  -10.9317  -15.0150 O   0  0  0  0  0  0  0  0  0  0  0  0
   26.6513   -9.6394  -16.4986 C   0  0  0  0  0  0  0  0  0  0  0  0
   25.4084   -9.5650  -15.5962 C   0  0  2  0  0  0  0  0  0  0  0  0
   25.5785  -10.6055  -14.5081 C   0  0  0  0  0  0  0  0  0  0  0  0
   24.1814   -9.8007  -16.4227 C   0  0  0  0  0  0  0  0  0  0  0  0
   22.9048   -9.3587  -15.8142 C   0  0  2  0  0  0  0  0  0  0  0  0
   21.7218   -9.5197  -16.6002 N   0  0  0  0  0  0  0  0  0  0  0  0
   23.0442   -7.8948  -15.5219 C   0  0  0  0  0  0  0  0  0  0  0  0
   22.5034   -6.9440  -16.3811 O   0  0  0  0  0  0  0  0  0  0  0  0
   23.6495   -7.5138  -14.5001 O   0  0  0  0  0  0  0  0  0  0  0  0
  2  1  1  0
  2  3  2  0
  4  2  1  0
  5  4  1  0
  5  6  1  1
  7  8  2  0
  7  5  1  0
 10  9  1  1
 10 12  1  0
 11 10  1  0
 12 13  1  1
 13  7  1  0
 14 21  1  0
 14 12  1  0
 15 14  2  0
 17 16  1  6
 18 17  1  0
 20 19  1  6
 19 17  1  0
 20 22  1  0
 20 21  1  0
 22 23  1  0
 24 22  2  0
M  END
$$$$
