NVL.pdb
     RDKit          3D

 24 23  0  0  1  0  0  0  0  0999 V2000
   28.2839  -18.1526  -17.4857 N   0  0  0  0  0  0  0  0  0  0  0  0
   28.7000  -17.5635  -16.2754 C   0  0  0  0  0  0  0  0  0  0  0  0
   29.8119  -16.9897  -16.2233 O   0  0  0  0  0  0  0  0  0  0  0  0
   27.8143  -17.6351  -15.0908 C   0  0  0  0  0  0  0  0  0  0  0  0
   26.5441  -18.4004  -15.4114 C   0  0  2  0  0  0  0  0  0  0  0  0
   25.6896  -17.6613  -16.3155 N   0  0  0  0  0  0  0  0  0  0  0  0
   25.8135  -18.5558  -14.1118 C   0  0  0  0  0  0  0  0  0  0  0  0
   25.1355  -17.6407  -13.5980 O   0  0  0  0  0  0  0  0  0  0  0  0
   25.3304  -22.5552  -12.9738 C   0  0  0  0  0  0  0  0  0  0  0  0
   24.3583  -21.4482  -12.6693 C   0  0  2  0  0  0  0  0  0  0  0  0
   23.4462  -21.2309  -13.8324 C   0  0  0  0  0  0  0  0  0  0  0  0
   25.1094  -20.1662  -12.3311 C   0  0  2  0  0  0  0  0  0  0  0  0
   25.9253  -19.8216  -13.4682 N   0  0  0  0  0  0  0  0  0  0  0  0
   25.9887  -20.3814  -11.1601 C   0  0  0  0  0  0  0  0  0  0  0  0
   27.1737  -20.8100  -11.3081 O   0  0  0  0  0  0  0  0  0  0  0  0
   27.9329  -18.7507   -5.7431 C   0  0  0  0  0  0  0  0  0  0  0  0
   27.7324  -19.9439   -6.6923 C   0  0  2  0  0  0  0  0  0  0  0  0
   29.1033  -20.5123   -6.9976 C   0  0  0  0  0  0  0  0  0  0  0  0
   27.0202  -19.4810   -7.9262 C   0  0  0  0  0  0  0  0  0  0  0  0
   26.3576  -20.5426   -8.7194 C   0  0  2  0  0  0  0  0  0  0  0  0
   25.5534  -20.1208   -9.8234 N   0  0  0  0  0  0  0  0  0  0  0  0
   25.4601  -21.2927   -7.7814 C   0  0  0  0  0  0  0  0  0  0  0  0
   25.9926  -22.0808   -6.7664 O   0  0  0  0  0  0  0  0  0  0  0  0
   24.2212  -21.2167   -7.9031 O   0  0  0  0  0  0  0  0  0  0  0  0
  2  1  1  0
  2  3  2  0
  4  2  1  0
  5  4  1  0
  5  6  1  6
  7  8  2  0
  7  5  1  0
 10  9  1  6
 10 12  1  0
 11 10  1  0
 12 13  1  6
 13  7  1  0
 14 21  1  0
 14 12  1  0
 15 14  2  0
 17 16  1  1
 18 17  1  0
 20 19  1  1
 19 17  1  0
 20 22  1  0
 20 21  1  0
 22 23  1  0
 24 22  2  0
M  END
$$$$
