NVL.pdb
     RDKit          3D

 24 23  0  0  1  0  0  0  0  0999 V2000
   14.6358  -13.6941  -13.9064 N   0  0  0  0  0  0  0  0  0  0  0  0
   14.8495  -12.9860  -12.7071 C   0  0  0  0  0  0  0  0  0  0  0  0
   14.7795  -13.5947  -11.6150 O   0  0  0  0  0  0  0  0  0  0  0  0
   15.1523  -11.5375  -12.7633 C   0  0  0  0  0  0  0  0  0  0  0  0
   14.3934  -10.7848  -11.6866 C   0  0  2  0  0  0  0  0  0  0  0  0
   12.9754  -10.7335  -11.9700 N   0  0  0  0  0  0  0  0  0  0  0  0
   14.9186   -9.3811  -11.7125 C   0  0  0  0  0  0  0  0  0  0  0  0
   14.6192   -8.5582  -12.6038 O   0  0  0  0  0  0  0  0  0  0  0  0
   14.8730   -6.9540   -8.8025 C   0  0  0  0  0  0  0  0  0  0  0  0
   16.3110   -7.2059   -9.1653 C   0  0  2  0  0  0  0  0  0  0  0  0
   17.1116   -5.9567   -8.9905 C   0  0  0  0  0  0  0  0  0  0  0  0
   16.4116   -7.7098  -10.5999 C   0  0  2  0  0  0  0  0  0  0  0  0
   15.7959   -9.0119  -10.6528 N   0  0  0  0  0  0  0  0  0  0  0  0
   17.8309   -7.8361  -11.0002 C   0  0  0  0  0  0  0  0  0  0  0  0
   18.6234   -8.5870  -10.3539 O   0  0  0  0  0  0  0  0  0  0  0  0
   21.3694   -9.8757  -14.9313 C   0  0  0  0  0  0  0  0  0  0  0  0
   21.3506   -8.8033  -13.8293 C   0  0  2  0  0  0  0  0  0  0  0  0
   22.2513   -9.2893  -12.7120 C   0  0  0  0  0  0  0  0  0  0  0  0
   19.9406   -8.5883  -13.3713 C   0  0  0  0  0  0  0  0  0  0  0  0
   19.7143   -7.3838  -12.5387 C   0  0  2  0  0  0  0  0  0  0  0  0
   18.3720   -7.1287  -12.1186 N   0  0  0  0  0  0  0  0  0  0  0  0
   20.1542   -6.2027  -13.3509 C   0  0  0  0  0  0  0  0  0  0  0  0
   19.2327   -5.4597  -14.0813 O   0  0  0  0  0  0  0  0  0  0  0  0
   21.3569   -5.8737  -13.3793 O   0  0  0  0  0  0  0  0  0  0  0  0
  2  1  1  0
  2  3  2  0
  4  2  1  0
  5  4  1  0
  5  6  1  6
  7  8  2  0
  7  5  1  0
 10  9  1  6
 10 12  1  0
 11 10  1  0
 12 13  1  1
 13  7  1  0
 14 21  1  0
 14 12  1  0
 15 14  2  0
 17 16  1  6
 18 17  1  0
 20 19  1  6
 19 17  1  0
 20 22  1  0
 20 21  1  0
 22 23  1  0
 24 22  2  0
M  END
$$$$
