ALQ.pdb
     RDKit          3D

 23 22  0  0  1  0  0  0  0  0999 V2000
   27.6294  -19.2548  -17.2919 C   0  0  0  0  0  0  0  0  0  0  0  0
   28.1041  -20.4465  -16.5237 C   0  0  2  0  0  0  0  0  0  0  0  0
   28.3944  -21.5909  -17.3426 N   0  0  0  0  0  0  0  0  0  0  0  0
   27.0636  -20.8241  -15.5046 C   0  0  0  0  0  0  0  0  0  0  0  0
   26.1601  -21.6396  -15.8084 O   0  0  0  0  0  0  0  0  0  0  0  0
   25.4890  -22.2704  -10.7659 C   0  0  0  0  0  0  0  0  0  0  0  0
   25.3176  -20.7492  -10.8693 C   0  0  1  0  0  0  0  0  0  0  0  0
   25.6288  -20.2038   -9.4919 C   0  0  0  0  0  0  0  0  0  0  0  0
   26.3715  -20.2824  -11.8460 C   0  0  0  0  0  0  0  0  0  0  0  0
   26.0503  -20.6705  -13.2731 C   0  0  2  0  0  0  0  0  0  0  0  0
   27.0687  -20.2839  -14.1971 N   0  0  0  0  0  0  0  0  0  0  0  0
   24.7812  -19.9652  -13.6190 C   0  0  0  0  0  0  0  0  0  0  0  0
   24.8772  -18.8986  -14.2855 O   0  0  0  0  0  0  0  0  0  0  0  0
   21.9353  -22.2805  -17.0981 N   0  0  0  0  0  0  0  0  0  0  0  0
   21.1518  -21.1032  -17.1952 C   0  0  0  0  0  0  0  0  0  0  0  0
   20.2325  -21.0266  -18.0365 O   0  0  0  0  0  0  0  0  0  0  0  0
   21.4293  -19.9505  -16.2856 C   0  0  0  0  0  0  0  0  0  0  0  0
   22.6181  -20.2956  -15.4497 C   0  0  0  0  0  0  0  0  0  0  0  0
   22.3523  -19.9965  -14.0091 C   0  0  2  0  0  0  0  0  0  0  0  0
   23.5178  -20.4448  -13.2328 N   0  0  0  0  0  0  0  0  0  0  0  0
   21.1760  -20.6360  -13.4245 C   0  0  0  0  0  0  0  0  0  0  0  0
   21.3207  -21.8758  -12.7708 O   0  0  0  0  0  0  0  0  0  0  0  0
   20.0354  -20.0974  -13.4956 O   0  0  0  0  0  0  0  0  0  0  0  0
  2  1  1  6
  2  3  1  0
  4  2  1  0
  4  5  2  0
  7  6  1  1
  7  9  1  0
  8  7  1  0
 10  9  1  1
 10 12  1  0
 10 11  1  0
 11  4  1  0
 12 13  2  0
 15 14  1  0
 16 15  2  0
 17 15  1  0
 18 17  1  0
 19 18  1  6
 20 19  1  0
 20 12  1  0
 21 19  1  0
 22 21  1  0
 23 21  2  0
M  END
$$$$
