ALQ.pdb
     RDKit          3D

 23 22  0  0  1  0  0  0  0  0999 V2000
   16.4309  -11.3422  -17.3122 C   0  0  0  0  0  0  0  0  0  0  0  0
   17.2350  -10.1425  -17.6993 C   0  0  2  0  0  0  0  0  0  0  0  0
   17.9320  -10.2852  -18.9476 N   0  0  0  0  0  0  0  0  0  0  0  0
   18.2317   -9.8440  -16.6126 C   0  0  0  0  0  0  0  0  0  0  0  0
   17.8307   -9.5803  -15.4536 O   0  0  0  0  0  0  0  0  0  0  0  0
   22.1087  -10.2281  -13.3934 C   0  0  0  0  0  0  0  0  0  0  0  0
   22.7583   -9.8268  -14.7241 C   0  0  1  0  0  0  0  0  0  0  0  0
   24.0362  -10.6327  -14.8196 C   0  0  0  0  0  0  0  0  0  0  0  0
   21.7985  -10.2747  -15.8016 C   0  0  0  0  0  0  0  0  0  0  0  0
   20.5221   -9.4617  -15.8139 C   0  0  2  0  0  0  0  0  0  0  0  0
   19.6254   -9.8502  -16.8557 N   0  0  0  0  0  0  0  0  0  0  0  0
   20.9358   -8.0436  -16.0268 C   0  0  0  0  0  0  0  0  0  0  0  0
   21.4915   -7.7633  -17.1239 O   0  0  0  0  0  0  0  0  0  0  0  0
   17.7471   -3.2903  -15.7845 N   0  0  0  0  0  0  0  0  0  0  0  0
   18.9938   -2.6178  -15.8373 C   0  0  0  0  0  0  0  0  0  0  0  0
   19.0347   -1.3780  -15.9790 O   0  0  0  0  0  0  0  0  0  0  0  0
   20.2630   -3.3984  -15.7228 C   0  0  0  0  0  0  0  0  0  0  0  0
   19.9068   -4.8336  -15.5124 C   0  0  0  0  0  0  0  0  0  0  0  0
   21.1406   -5.6715  -15.4071 C   0  0  2  0  0  0  0  0  0  0  0  0
   20.7284   -7.0406  -15.0643 N   0  0  0  0  0  0  0  0  0  0  0  0
   22.1190   -5.2547  -14.4054 C   0  0  0  0  0  0  0  0  0  0  0  0
   23.1485   -4.3674  -14.7770 O   0  0  0  0  0  0  0  0  0  0  0  0
   22.0571   -5.6756  -13.2157 O   0  0  0  0  0  0  0  0  0  0  0  0
  2  1  1  1
  2  3  1  0
  4  2  1  0
  4  5  2  0
  7  6  1  1
  7  9  1  0
  8  7  1  0
 10  9  1  6
 10 12  1  0
 10 11  1  0
 11  4  1  0
 12 13  2  0
 15 14  1  0
 16 15  2  0
 17 15  1  0
 18 17  1  0
 19 18  1  1
 20 19  1  0
 20 12  1  0
 21 19  1  0
 22 21  1  0
 23 21  2  0
M  END
$$$$
