ALQ.pdb
     RDKit          3D

 23 22  0  0  1  0  0  0  0  0999 V2000
   26.7368  -19.3101  -13.3583 C   0  0  0  0  0  0  0  0  0  0  0  0
   27.7340  -20.0489  -12.5245 C   0  0  2  0  0  0  0  0  0  0  0  0
   28.3582  -21.1518  -13.2017 N   0  0  0  0  0  0  0  0  0  0  0  0
   27.0580  -20.5569  -11.2801 C   0  0  0  0  0  0  0  0  0  0  0  0
   26.5104  -21.6856  -11.2841 O   0  0  0  0  0  0  0  0  0  0  0  0
   28.3635  -18.8352   -6.0488 C   0  0  0  0  0  0  0  0  0  0  0  0
   28.1651  -19.7273   -7.2812 C   0  0  1  0  0  0  0  0  0  0  0  0
   28.4228  -21.1433   -6.8120 C   0  0  0  0  0  0  0  0  0  0  0  0
   26.7112  -19.5804   -7.6649 C   0  0  0  0  0  0  0  0  0  0  0  0
   26.3690  -20.3307   -8.9340 C   0  0  2  0  0  0  0  0  0  0  0  0
   27.0178  -19.7953  -10.0885 N   0  0  0  0  0  0  0  0  0  0  0  0
   24.8910  -20.2093   -9.1018 C   0  0  0  0  0  0  0  0  0  0  0  0
   24.4419  -19.0880   -9.4653 O   0  0  0  0  0  0  0  0  0  0  0  0
   21.9905  -22.3997  -13.0739 N   0  0  0  0  0  0  0  0  0  0  0  0
   21.6099  -21.0614  -12.8031 C   0  0  0  0  0  0  0  0  0  0  0  0
   21.1353  -20.3463  -13.7098 O   0  0  0  0  0  0  0  0  0  0  0  0
   21.7783  -20.5067  -11.4257 C   0  0  0  0  0  0  0  0  0  0  0  0
   22.3326  -21.5870  -10.5557 C   0  0  0  0  0  0  0  0  0  0  0  0
   22.5879  -21.0714   -9.1758 C   0  0  2  0  0  0  0  0  0  0  0  0
   24.0113  -21.2810   -8.8720 N   0  0  0  0  0  0  0  0  0  0  0  0
   21.8231  -21.6998   -8.1013 C   0  0  0  0  0  0  0  0  0  0  0  0
   22.4435  -22.6742   -7.2944 O   0  0  0  0  0  0  0  0  0  0  0  0
   20.6189  -21.3849   -7.8848 O   0  0  0  0  0  0  0  0  0  0  0  0
  2  1  1  6
  2  3  1  0
  4  2  1  0
  4  5  2  0
  7  6  1  1
  7  9  1  0
  8  7  1  0
 10  9  1  1
 10 12  1  0
 10 11  1  0
 11  4  1  0
 12 13  2  0
 15 14  1  0
 16 15  2  0
 17 15  1  0
 18 17  1  0
 19 18  1  6
 20 19  1  0
 20 12  1  0
 21 19  1  0
 22 21  1  0
 23 21  2  0
M  END
$$$$
