ALQ.pdb
     RDKit          3D

 23 22  0  0  1  0  0  0  0  0999 V2000
   21.2179  -21.0079   -8.3141 C   0  0  0  0  0  0  0  0  0  0  0  0
   22.4966  -21.7245   -8.0197 C   0  0  2  0  0  0  0  0  0  0  0  0
   22.7082  -21.9911   -6.6237 N   0  0  0  0  0  0  0  0  0  0  0  0
   23.6499  -20.9131   -8.5441 C   0  0  0  0  0  0  0  0  0  0  0  0
   23.4304  -19.9116   -9.2670 O   0  0  0  0  0  0  0  0  0  0  0  0
   28.4652  -20.2042   -5.8460 C   0  0  0  0  0  0  0  0  0  0  0  0
   27.1612  -19.9007   -6.5953 C   0  0  1  0  0  0  0  0  0  0  0  0
   27.1027  -18.3940   -6.7293 C   0  0  0  0  0  0  0  0  0  0  0  0
   27.3191  -20.5225   -7.9632 C   0  0  0  0  0  0  0  0  0  0  0  0
   26.0491  -20.4472   -8.7830 C   0  0  2  0  0  0  0  0  0  0  0  0
   24.9926  -21.2447   -8.2461 N   0  0  0  0  0  0  0  0  0  0  0  0
   26.4025  -20.9524  -10.1422 C   0  0  0  0  0  0  0  0  0  0  0  0
   26.7430  -22.1632  -10.2371 O   0  0  0  0  0  0  0  0  0  0  0  0
   22.6885  -19.1985  -14.2905 N   0  0  0  0  0  0  0  0  0  0  0  0
   23.4050  -20.1327  -15.0800 C   0  0  0  0  0  0  0  0  0  0  0  0
   23.0005  -20.4324  -16.2225 O   0  0  0  0  0  0  0  0  0  0  0  0
   24.6492  -20.7601  -14.5401 C   0  0  0  0  0  0  0  0  0  0  0  0
   24.8817  -20.2207  -13.1668 C   0  0  0  0  0  0  0  0  0  0  0  0
   26.1335  -20.7925  -12.5825 C   0  0  2  0  0  0  0  0  0  0  0  0
   26.3668  -20.1376  -11.2868 N   0  0  0  0  0  0  0  0  0  0  0  0
   27.3499  -20.6232  -13.3737 C   0  0  0  0  0  0  0  0  0  0  0  0
   27.7196  -21.6275  -14.2902 O   0  0  0  0  0  0  0  0  0  0  0  0
   28.0730  -19.5946  -13.2499 O   0  0  0  0  0  0  0  0  0  0  0  0
  2  1  1  1
  2  3  1  0
  4  2  1  0
  4  5  2  0
  7  6  1  1
  7  9  1  0
  8  7  1  0
 10  9  1  1
 10 12  1  0
 10 11  1  0
 11  4  1  0
 12 13  2  0
 15 14  1  0
 16 15  2  0
 17 15  1  0
 18 17  1  0
 19 18  1  6
 20 19  1  0
 20 12  1  0
 21 19  1  0
 22 21  1  0
 23 21  2  0
M  END
$$$$
