ALQ.pdb
     RDKit          3D

 23 22  0  0  1  0  0  0  0  0999 V2000
   18.7620  -12.9851  -18.7534 C   0  0  0  0  0  0  0  0  0  0  0  0
   20.0613  -13.5776  -18.3102 C   0  0  2  0  0  0  0  0  0  0  0  0
   19.9410  -14.8955  -17.7507 N   0  0  0  0  0  0  0  0  0  0  0  0
   20.6972  -12.6694  -17.2932 C   0  0  0  0  0  0  0  0  0  0  0  0
   20.0827  -12.3897  -16.2359 O   0  0  0  0  0  0  0  0  0  0  0  0
   24.2689  -10.8856  -14.0338 C   0  0  0  0  0  0  0  0  0  0  0  0
   24.6014  -10.3194  -15.4205 C   0  0  1  0  0  0  0  0  0  0  0  0
   26.1122  -10.3205  -15.5158 C   0  0  0  0  0  0  0  0  0  0  0  0
   24.0331  -11.3056  -16.4140 C   0  0  0  0  0  0  0  0  0  0  0  0
   22.5244  -11.2300  -16.5060 C   0  0  2  0  0  0  0  0  0  0  0  0
   21.9824  -12.1118  -17.4904 N   0  0  0  0  0  0  0  0  0  0  0  0
   22.2017   -9.8213  -16.8790 C   0  0  0  0  0  0  0  0  0  0  0  0
   22.4574   -9.4647  -18.0616 O   0  0  0  0  0  0  0  0  0  0  0  0
   17.6416   -7.4496  -17.8322 N   0  0  0  0  0  0  0  0  0  0  0  0
   18.1663   -6.1637  -17.5483 C   0  0  0  0  0  0  0  0  0  0  0  0
   17.6321   -5.1448  -18.0335 O   0  0  0  0  0  0  0  0  0  0  0  0
   19.3637   -6.0299  -16.6644 C   0  0  0  0  0  0  0  0  0  0  0  0
   19.7936   -7.4008  -16.2560 C   0  0  0  0  0  0  0  0  0  0  0  0
   21.2595   -7.5827  -16.4873 C   0  0  2  0  0  0  0  0  0  0  0  0
   21.6365   -8.9076  -15.9730 N   0  0  0  0  0  0  0  0  0  0  0  0
   22.1389   -6.6078  -15.8465 C   0  0  0  0  0  0  0  0  0  0  0  0
   22.5462   -5.4691  -16.5696 O   0  0  0  0  0  0  0  0  0  0  0  0
   22.5386   -6.7687  -14.6588 O   0  0  0  0  0  0  0  0  0  0  0  0
  2  1  1  1
  2  3  1  0
  4  2  1  0
  4  5  2  0
  7  6  1  1
  7  9  1  0
  8  7  1  0
 10  9  1  6
 10 12  1  0
 10 11  1  0
 11  4  1  0
 12 13  2  0
 15 14  1  0
 16 15  2  0
 17 15  1  0
 18 17  1  0
 19 18  1  1
 20 19  1  0
 20 12  1  0
 21 19  1  0
 22 21  1  0
 23 21  2  0
M  END
$$$$
