ALQ.pdb
     RDKit          3D

 23 22  0  0  1  0  0  0  0  0999 V2000
   20.8423  -12.8043  -18.2518 C   0  0  0  0  0  0  0  0  0  0  0  0
   20.9755  -11.3432  -18.5402 C   0  0  2  0  0  0  0  0  0  0  0  0
   21.8860  -11.0401  -19.6095 N   0  0  0  0  0  0  0  0  0  0  0  0
   21.4291  -10.6329  -17.2939 C   0  0  0  0  0  0  0  0  0  0  0  0
   20.7549  -10.7295  -16.2404 O   0  0  0  0  0  0  0  0  0  0  0  0
   26.5316  -10.5220  -15.5336 C   0  0  0  0  0  0  0  0  0  0  0  0
   25.0068  -10.6505  -15.6450 C   0  0  1  0  0  0  0  0  0  0  0  0
   24.5404  -11.2027  -14.3149 C   0  0  0  0  0  0  0  0  0  0  0  0
   24.4871   -9.2422  -15.8160 C   0  0  0  0  0  0  0  0  0  0  0  0
   22.9932   -9.2017  -16.0548 C   0  0  2  0  0  0  0  0  0  0  0  0
   22.6063   -9.8486  -17.2681 N   0  0  0  0  0  0  0  0  0  0  0  0
   22.6244   -7.7574  -16.1302 C   0  0  0  0  0  0  0  0  0  0  0  0
   22.9837   -7.1233  -17.1596 O   0  0  0  0  0  0  0  0  0  0  0  0
   17.4698   -5.3059  -15.8226 N   0  0  0  0  0  0  0  0  0  0  0  0
   18.2114   -4.0982  -15.7952 C   0  0  0  0  0  0  0  0  0  0  0  0
   17.6295   -2.9995  -15.9105 O   0  0  0  0  0  0  0  0  0  0  0  0
   19.6957   -4.1430  -15.6277 C   0  0  0  0  0  0  0  0  0  0  0  0
   20.1070   -5.5750  -15.5220 C   0  0  0  0  0  0  0  0  0  0  0  0
   21.5834   -5.6836  -15.3125 C   0  0  2  0  0  0  0  0  0  0  0  0
   21.9075   -7.1040  -15.1131 N   0  0  0  0  0  0  0  0  0  0  0  0
   22.1274   -4.9551  -14.1690 C   0  0  0  0  0  0  0  0  0  0  0  0
   22.3085   -3.5610  -14.2646 O   0  0  0  0  0  0  0  0  0  0  0  0
   22.4370   -5.5527  -13.0997 O   0  0  0  0  0  0  0  0  0  0  0  0
  2  1  1  1
  2  3  1  0
  4  2  1  0
  4  5  2  0
  7  6  1  1
  7  9  1  0
  8  7  1  0
 10  9  1  6
 10 12  1  0
 10 11  1  0
 11  4  1  0
 12 13  2  0
 15 14  1  0
 16 15  2  0
 17 15  1  0
 18 17  1  0
 19 18  1  1
 20 19  1  0
 20 12  1  0
 21 19  1  0
 22 21  1  0
 23 21  2  0
M  END
$$$$
