ALQ.pdb
     RDKit          3D

 23 22  0  0  1  0  0  0  0  0999 V2000
   19.8712  -12.6880  -18.2344 C   0  0  0  0  0  0  0  0  0  0  0  0
   20.2626  -11.3058  -18.6491 C   0  0  2  0  0  0  0  0  0  0  0  0
   21.2291  -11.2670  -19.7116 N   0  0  0  0  0  0  0  0  0  0  0  0
   20.8136  -10.5699  -17.4581 C   0  0  0  0  0  0  0  0  0  0  0  0
   20.1236  -10.4651  -16.4156 O   0  0  0  0  0  0  0  0  0  0  0  0
   25.8547  -10.9841  -15.3668 C   0  0  0  0  0  0  0  0  0  0  0  0
   24.3292  -10.8966  -15.5052 C   0  0  1  0  0  0  0  0  0  0  0  0
   23.7799  -11.0053  -14.0987 C   0  0  0  0  0  0  0  0  0  0  0  0
   24.0447   -9.5173  -16.0521 C   0  0  0  0  0  0  0  0  0  0  0  0
   22.5714   -9.2918  -16.3151 C   0  0  2  0  0  0  0  0  0  0  0  0
   22.1010   -9.9836  -17.4729 N   0  0  0  0  0  0  0  0  0  0  0  0
   22.4072   -7.8228  -16.5214 C   0  0  0  0  0  0  0  0  0  0  0  0
   22.8194   -7.3439  -17.6131 O   0  0  0  0  0  0  0  0  0  0  0  0
   17.5891   -4.9697  -16.7783 N   0  0  0  0  0  0  0  0  0  0  0  0
   18.4110   -3.8148  -16.7843 C   0  0  0  0  0  0  0  0  0  0  0  0
   17.9178   -2.6925  -17.0209 O   0  0  0  0  0  0  0  0  0  0  0  0
   19.8735   -3.9440  -16.5059 C   0  0  0  0  0  0  0  0  0  0  0  0
   20.1651   -5.3800  -16.2165 C   0  0  0  0  0  0  0  0  0  0  0  0
   21.6176   -5.5719  -15.9190 C   0  0  2  0  0  0  0  0  0  0  0  0
   21.8219   -6.9827  -15.5586 N   0  0  0  0  0  0  0  0  0  0  0  0
   22.1638   -4.7674  -14.8287 C   0  0  0  0  0  0  0  0  0  0  0  0
   22.6022   -3.4550  -15.0950 O   0  0  0  0  0  0  0  0  0  0  0  0
   22.2492   -5.2277  -13.6552 O   0  0  0  0  0  0  0  0  0  0  0  0
  2  1  1  1
  2  3  1  0
  4  2  1  0
  4  5  2  0
  7  6  1  1
  7  9  1  0
  8  7  1  0
 10  9  1  6
 10 12  1  0
 10 11  1  0
 11  4  1  0
 12 13  2  0
 15 14  1  0
 16 15  2  0
 17 15  1  0
 18 17  1  0
 19 18  1  1
 20 19  1  0
 20 12  1  0
 21 19  1  0
 22 21  1  0
 23 21  2  0
M  END
$$$$
