ALQ.pdb
     RDKit          3D

 23 22  0  0  1  0  0  0  0  0999 V2000
   20.4428  -14.8732  -17.9321 C   0  0  0  0  0  0  0  0  0  0  0  0
   20.6147  -13.4780  -18.4413 C   0  0  2  0  0  0  0  0  0  0  0  0
   21.3507  -13.3926  -19.6724 N   0  0  0  0  0  0  0  0  0  0  0  0
   21.3126  -12.6525  -17.3947 C   0  0  0  0  0  0  0  0  0  0  0  0
   20.7914  -12.5105  -16.2625 O   0  0  0  0  0  0  0  0  0  0  0  0
   25.2570  -10.8973  -14.4966 C   0  0  0  0  0  0  0  0  0  0  0  0
   25.2190  -10.0711  -15.7888 C   0  0  1  0  0  0  0  0  0  0  0  0
   26.6636   -9.7811  -16.1364 C   0  0  0  0  0  0  0  0  0  0  0  0
   24.6204  -10.9777  -16.8388 C   0  0  0  0  0  0  0  0  0  0  0  0
   23.1345  -11.1878  -16.6428 C   0  0  2  0  0  0  0  0  0  0  0  0
   22.5537  -12.0218  -17.6465 N   0  0  0  0  0  0  0  0  0  0  0  0
   22.5117   -9.8331  -16.7105 C   0  0  0  0  0  0  0  0  0  0  0  0
   22.6306   -9.1970  -17.7932 O   0  0  0  0  0  0  0  0  0  0  0  0
   16.7146   -5.8592  -15.8654 N   0  0  0  0  0  0  0  0  0  0  0  0
   17.5911   -6.9725  -15.9036 C   0  0  0  0  0  0  0  0  0  0  0  0
   17.1329   -8.1335  -15.9352 O   0  0  0  0  0  0  0  0  0  0  0  0
   19.0693   -6.7530  -15.9060 C   0  0  0  0  0  0  0  0  0  0  0  0
   19.7359   -8.0866  -15.8152 C   0  0  0  0  0  0  0  0  0  0  0  0
   21.2230   -7.9327  -15.8271 C   0  0  2  0  0  0  0  0  0  0  0  0
   21.8159   -9.2638  -15.6302 N   0  0  0  0  0  0  0  0  0  0  0  0
   21.7883   -7.0559  -14.8044 C   0  0  0  0  0  0  0  0  0  0  0  0
   22.6132   -7.6081  -13.8044 O   0  0  0  0  0  0  0  0  0  0  0  0
   21.5504   -5.8150  -14.8022 O   0  0  0  0  0  0  0  0  0  0  0  0
  2  1  1  1
  2  3  1  0
  4  2  1  0
  4  5  2  0
  7  6  1  1
  7  9  1  0
  8  7  1  0
 10  9  1  6
 10 12  1  0
 10 11  1  0
 11  4  1  0
 12 13  2  0
 15 14  1  0
 16 15  2  0
 17 15  1  0
 18 17  1  0
 19 18  1  1
 20 19  1  0
 20 12  1  0
 21 19  1  0
 22 21  1  0
 23 21  2  0
M  END
$$$$
