ALQ.pdb
     RDKit          3D

 23 22  0  0  1  0  0  0  0  0999 V2000
   26.7289  -11.8531  -15.2661 C   0  0  0  0  0  0  0  0  0  0  0  0
   25.7258  -12.5240  -16.1488 C   0  0  2  0  0  0  0  0  0  0  0  0
   26.2446  -12.9135  -17.4308 N   0  0  0  0  0  0  0  0  0  0  0  0
   24.5535  -11.6034  -16.3534 C   0  0  0  0  0  0  0  0  0  0  0  0
   24.5771  -10.7604  -17.2822 O   0  0  0  0  0  0  0  0  0  0  0  0
   19.3229  -13.3128  -15.9858 C   0  0  0  0  0  0  0  0  0  0  0  0
   20.6139  -12.6701  -16.5094 C   0  0  1  0  0  0  0  0  0  0  0  0
   20.2557  -12.0516  -17.8439 C   0  0  0  0  0  0  0  0  0  0  0  0
   20.9581  -11.5778  -15.5240 C   0  0  0  0  0  0  0  0  0  0  0  0
   22.2582  -10.8813  -15.8632 C   0  0  2  0  0  0  0  0  0  0  0  0
   23.4092  -11.6559  -15.5231 N   0  0  0  0  0  0  0  0  0  0  0  0
   22.2687   -9.6150  -15.0731 C   0  0  0  0  0  0  0  0  0  0  0  0
   22.6510   -9.6869  -13.8733 O   0  0  0  0  0  0  0  0  0  0  0  0
   23.2943   -3.6989  -14.9238 N   0  0  0  0  0  0  0  0  0  0  0  0
   22.8124   -4.1264  -16.1864 C   0  0  0  0  0  0  0  0  0  0  0  0
   22.5183   -3.2888  -17.0644 O   0  0  0  0  0  0  0  0  0  0  0  0
   22.6567   -5.5863  -16.4653 C   0  0  0  0  0  0  0  0  0  0  0  0
   23.0756   -6.3384  -15.2447 C   0  0  0  0  0  0  0  0  0  0  0  0
   21.9573   -7.1966  -14.7464 C   0  0  2  0  0  0  0  0  0  0  0  0
   21.8748   -8.3797  -15.6155 N   0  0  0  0  0  0  0  0  0  0  0  0
   20.6317   -6.5827  -14.7308 C   0  0  0  0  0  0  0  0  0  0  0  0
   20.3675   -5.5394  -13.8213 O   0  0  0  0  0  0  0  0  0  0  0  0
   19.7217   -6.9709  -15.5166 O   0  0  0  0  0  0  0  0  0  0  0  0
  2  1  1  1
  2  3  1  0
  4  2  1  0
  4  5  2  0
  7  6  1  1
  7  9  1  0
  8  7  1  0
 10  9  1  1
 10 12  1  0
 10 11  1  0
 11  4  1  0
 12 13  2  0
 15 14  1  0
 16 15  2  0
 17 15  1  0
 18 17  1  0
 19 18  1  6
 20 19  1  0
 20 12  1  0
 21 19  1  0
 22 21  1  0
 23 21  2  0
M  END
$$$$
