ALQ.pdb
     RDKit          3D

 23 22  0  0  1  0  0  0  0  0999 V2000
   27.2837  -19.7014  -17.1147 C   0  0  0  0  0  0  0  0  0  0  0  0
   27.8455  -20.7519  -16.2111 C   0  0  2  0  0  0  0  0  0  0  0  0
   28.2070  -21.9685  -16.8846 N   0  0  0  0  0  0  0  0  0  0  0  0
   26.8419  -21.0666  -15.1353 C   0  0  0  0  0  0  0  0  0  0  0  0
   25.9537  -21.9277  -15.3435 O   0  0  0  0  0  0  0  0  0  0  0  0
   25.2999  -22.0302  -10.1984 C   0  0  0  0  0  0  0  0  0  0  0  0
   25.1813  -20.5282  -10.4878 C   0  0  1  0  0  0  0  0  0  0  0  0
   25.5168  -19.8292   -9.1876 C   0  0  0  0  0  0  0  0  0  0  0  0
   26.2469  -20.2220  -11.5140 C   0  0  0  0  0  0  0  0  0  0  0  0
   25.9149  -20.7856  -12.8788 C   0  0  2  0  0  0  0  0  0  0  0  0
   26.8652  -20.4161  -13.8792 N   0  0  0  0  0  0  0  0  0  0  0  0
   24.5785  -20.2298  -13.2431 C   0  0  0  0  0  0  0  0  0  0  0  0
   24.5225  -19.0023  -13.5280 O   0  0  0  0  0  0  0  0  0  0  0  0
   21.8524  -19.5145  -17.3268 N   0  0  0  0  0  0  0  0  0  0  0  0
   20.5929  -19.5272  -16.6765 C   0  0  0  0  0  0  0  0  0  0  0  0
   19.6208  -18.9229  -17.1754 O   0  0  0  0  0  0  0  0  0  0  0  0
   20.4305  -20.2676  -15.3887 C   0  0  0  0  0  0  0  0  0  0  0  0
   21.7621  -20.8233  -15.0027 C   0  0  0  0  0  0  0  0  0  0  0  0
   22.1534  -20.3514  -13.6391 C   0  0  2  0  0  0  0  0  0  0  0  0
   23.4139  -21.0158  -13.2761 N   0  0  0  0  0  0  0  0  0  0  0  0
   21.2008  -20.6229  -12.5652 C   0  0  0  0  0  0  0  0  0  0  0  0
   20.3042  -19.6108  -12.1690 O   0  0  0  0  0  0  0  0  0  0  0  0
   21.1682  -21.7464  -11.9882 O   0  0  0  0  0  0  0  0  0  0  0  0
  2  1  1  6
  2  3  1  0
  4  2  1  0
  4  5  2  0
  7  6  1  1
  7  9  1  0
  8  7  1  0
 10  9  1  1
 10 12  1  0
 10 11  1  0
 11  4  1  0
 12 13  2  0
 15 14  1  0
 16 15  2  0
 17 15  1  0
 18 17  1  0
 19 18  1  6
 20 19  1  0
 20 12  1  0
 21 19  1  0
 22 21  1  0
 23 21  2  0
M  END
$$$$
