ALQ.pdb
     RDKit          3D

 23 22  0  0  1  0  0  0  0  0999 V2000
   31.2868  -22.8536   -9.7107 C   0  0  0  0  0  0  0  0  0  0  0  0
   30.3864  -21.7062  -10.0398 C   0  0  2  0  0  0  0  0  0  0  0  0
   31.0384  -20.4262  -10.0120 N   0  0  0  0  0  0  0  0  0  0  0  0
   29.2332  -21.6901   -9.0736 C   0  0  0  0  0  0  0  0  0  0  0  0
   28.5152  -22.7103   -8.9422 O   0  0  0  0  0  0  0  0  0  0  0  0
   28.7939  -18.7215   -4.3462 C   0  0  0  0  0  0  0  0  0  0  0  0
   28.8169  -19.8683   -5.3651 C   0  0  1  0  0  0  0  0  0  0  0  0
   28.3923  -21.1059   -4.6037 C   0  0  0  0  0  0  0  0  0  0  0  0
   27.7656  -19.5246   -6.3943 C   0  0  0  0  0  0  0  0  0  0  0  0
   27.7206  -20.5228   -7.5310 C   0  0  2  0  0  0  0  0  0  0  0  0
   28.9261  -20.5482   -8.2969 N   0  0  0  0  0  0  0  0  0  0  0  0
   26.5905  -20.1002   -8.4095 C   0  0  0  0  0  0  0  0  0  0  0  0
   26.4512  -18.8636   -8.6154 O   0  0  0  0  0  0  0  0  0  0  0  0
   25.1140  -20.7813  -15.0479 N   0  0  0  0  0  0  0  0  0  0  0  0
   25.2817  -21.3897  -13.7786 C   0  0  0  0  0  0  0  0  0  0  0  0
   25.9501  -22.4383  -13.6667 O   0  0  0  0  0  0  0  0  0  0  0  0
   24.6550  -20.7714  -12.5711 C   0  0  0  0  0  0  0  0  0  0  0  0
   25.4524  -21.1782  -11.3755 C   0  0  0  0  0  0  0  0  0  0  0  0
   24.8973  -20.5532  -10.1359 C   0  0  2  0  0  0  0  0  0  0  0  0
   25.7025  -21.0178   -8.9968 N   0  0  0  0  0  0  0  0  0  0  0  0
   23.5024  -20.8602   -9.8286 C   0  0  0  0  0  0  0  0  0  0  0  0
   22.4885  -20.3803  -10.6813 O   0  0  0  0  0  0  0  0  0  0  0  0
   23.1917  -21.5464   -8.8142 O   0  0  0  0  0  0  0  0  0  0  0  0
  2  1  1  1
  2  3  1  0
  4  2  1  0
  4  5  2  0
  7  6  1  1
  7  9  1  0
  8  7  1  0
 10  9  1  1
 10 12  1  0
 10 11  1  0
 11  4  1  0
 12 13  2  0
 15 14  1  0
 16 15  2  0
 17 15  1  0
 18 17  1  0
 19 18  1  6
 20 19  1  0
 20 12  1  0
 21 19  1  0
 22 21  1  0
 23 21  2  0
M  END
$$$$
