ALQ.pdb
     RDKit          3D

 23 22  0  0  1  0  0  0  0  0999 V2000
   16.1666  -12.0964  -14.1475 C   0  0  0  0  0  0  0  0  0  0  0  0
   16.6651  -12.4369  -15.5154 C   0  0  2  0  0  0  0  0  0  0  0  0
   17.4414  -13.6447  -15.5697 N   0  0  0  0  0  0  0  0  0  0  0  0
   17.4961  -11.2961  -16.0367 C   0  0  0  0  0  0  0  0  0  0  0  0
   18.7371  -11.2935  -15.8531 O   0  0  0  0  0  0  0  0  0  0  0  0
   19.2575   -8.2781  -19.8973 C   0  0  0  0  0  0  0  0  0  0  0  0
   18.1529   -7.5423  -19.1277 C   0  0  1  0  0  0  0  0  0  0  0  0
   17.3976   -6.7339  -20.1610 C   0  0  0  0  0  0  0  0  0  0  0  0
   17.2507   -8.6199  -18.5732 C   0  0  0  0  0  0  0  0  0  0  0  0
   17.7628   -9.1878  -17.2672 C   0  0  2  0  0  0  0  0  0  0  0  0
   16.9186  -10.2107  -16.7367 N   0  0  0  0  0  0  0  0  0  0  0  0
   17.8102   -8.0451  -16.3083 C   0  0  0  0  0  0  0  0  0  0  0  0
   16.8922   -7.9773  -15.4459 O   0  0  0  0  0  0  0  0  0  0  0  0
   21.7544   -5.9258  -12.4128 N   0  0  0  0  0  0  0  0  0  0  0  0
   22.1734   -5.6085  -13.7293 C   0  0  0  0  0  0  0  0  0  0  0  0
   23.2950   -5.0966  -13.9266 O   0  0  0  0  0  0  0  0  0  0  0  0
   21.2671   -5.8889  -14.8839 C   0  0  0  0  0  0  0  0  0  0  0  0
   19.9799   -6.4205  -14.3441 C   0  0  0  0  0  0  0  0  0  0  0  0
   18.8458   -6.0772  -15.2559 C   0  0  2  0  0  0  0  0  0  0  0  0
   18.8221   -7.0703  -16.3401 N   0  0  0  0  0  0  0  0  0  0  0  0
   18.8996   -4.7589  -15.8831 C   0  0  0  0  0  0  0  0  0  0  0  0
   19.1603   -4.6645  -17.2646 O   0  0  0  0  0  0  0  0  0  0  0  0
   18.7169   -3.7059  -15.2092 O   0  0  0  0  0  0  0  0  0  0  0  0
  2  1  1  1
  2  3  1  0
  4  2  1  0
  4  5  2  0
  7  6  1  6
  7  9  1  0
  8  7  1  0
 10  9  1  6
 10 12  1  0
 10 11  1  0
 11  4  1  0
 12 13  2  0
 15 14  1  0
 16 15  2  0
 17 15  1  0
 18 17  1  0
 19 18  1  1
 20 19  1  0
 20 12  1  0
 21 19  1  0
 22 21  1  0
 23 21  2  0
M  END
$$$$
