DPL.pdb
     RDKit          3D

 24 24  0  0  1  0  0  0  0  0999 V2000
   14.9851  -18.8964    5.5265 N   0  0  0  0  0  0  0  0  0  0  0  0
   16.0987  -19.8619    5.3932 C   0  0  1  0  0  0  0  0  0  0  0  0
   17.0088  -19.4489    4.2860 C   0  0  0  0  0  0  0  0  0  0  0  0
   16.4170  -19.5430    2.9482 C   0  0  0  0  0  0  0  0  0  0  0  0
   17.0677  -19.2145    1.9358 O   0  0  0  0  0  0  0  0  0  0  0  0
   16.7458  -19.8415    6.7307 C   0  0  0  0  0  0  0  0  0  0  0  0
   16.5902  -18.7829    7.4226 O   0  0  0  0  0  0  0  0  0  0  0  0
   15.1137  -19.9971    2.7292 O   0  0  0  0  0  0  0  0  0  0  0  0
   17.5156  -20.8870    7.3032 N   0  0  0  0  0  0  0  0  0  0  0  0
   17.7294  -22.1352    6.6392 C   0  0  0  0  0  0  0  0  0  0  0  0
   18.2523  -23.0867    7.6432 C   0  0  0  0  0  0  0  0  0  0  0  0
   18.2192  -22.3565    8.9296 C   0  0  0  0  0  0  0  0  0  0  0  0
   18.1861  -20.8612    8.5491 C   0  0  1  0  0  0  0  0  0  0  0  0
   19.5925  -20.3447    8.4824 C   0  0  0  0  0  0  0  0  0  0  0  0
   20.1903  -20.3678    7.3805 O   0  0  0  0  0  0  0  0  0  0  0  0
   22.3656  -15.5078   10.1181 C   0  0  0  0  0  0  0  0  0  0  0  0
   22.6089  -16.9291    9.6592 C   0  0  2  0  0  0  0  0  0  0  0  0
   23.2273  -16.9371    8.2793 C   0  0  0  0  0  0  0  0  0  0  0  0
   21.3011  -17.6892    9.5812 C   0  0  0  0  0  0  0  0  0  0  0  0
   21.5448  -19.1934    9.5800 C   0  0  2  0  0  0  0  0  0  0  0  0
   20.2511  -19.8404    9.6104 N   0  0  0  0  0  0  0  0  0  0  0  0
   22.2550  -19.5219   10.8405 C   0  0  0  0  0  0  0  0  0  0  0  0
   21.6540  -19.5568   11.9212 O   0  0  0  0  0  0  0  0  0  0  0  0
   23.6221  -19.7963   10.8075 O   0  0  0  0  0  0  0  0  0  0  0  0
  2  1  1  1
  2  3  1  0
  2  6  1  0
  3  4  1  0
  4  5  2  0
  4  8  1  0
  6  7  2  0
  9 13  1  0
  9  6  1  0
 10  9  1  0
 11 10  1  0
 11 12  1  0
 12 13  1  0
 13 14  1  6
 14 21  1  0
 14 15  2  0
 17 16  1  6
 17 18  1  0
 19 17  1  0
 20 19  1  1
 20 22  1  0
 21 20  1  0
 22 23  2  0
 22 24  1  0
M  END
$$$$
