DPL.pdb
     RDKit          3D

 24 24  0  0  1  0  0  0  0  0999 V2000
   29.1566  -22.4171  -17.7604 N   0  0  0  0  0  0  0  0  0  0  0  0
   27.7910  -21.9116  -17.4959 C   0  0  1  0  0  0  0  0  0  0  0  0
   26.8015  -23.0230  -17.5985 C   0  0  0  0  0  0  0  0  0  0  0  0
   25.4856  -22.6181  -18.1018 C   0  0  0  0  0  0  0  0  0  0  0  0
   24.5338  -22.4218  -17.3196 O   0  0  0  0  0  0  0  0  0  0  0  0
   27.8881  -21.3289  -16.1324 C   0  0  0  0  0  0  0  0  0  0  0  0
   28.6337  -21.9438  -15.3021 O   0  0  0  0  0  0  0  0  0  0  0  0
   25.2218  -22.4310  -19.4613 O   0  0  0  0  0  0  0  0  0  0  0  0
   27.2304  -20.1579  -15.6748 N   0  0  0  0  0  0  0  0  0  0  0  0
   26.3150  -19.4227  -16.4910 C   0  0  0  0  0  0  0  0  0  0  0  0
   26.1053  -18.1081  -15.8470 C   0  0  0  0  0  0  0  0  0  0  0  0
   27.0281  -18.0866  -14.6908 C   0  0  0  0  0  0  0  0  0  0  0  0
   27.3445  -19.5676  -14.3938 C   0  0  1  0  0  0  0  0  0  0  0  0
   26.3599  -20.0833  -13.3868 C   0  0  0  0  0  0  0  0  0  0  0  0
   25.3327  -20.6733  -13.7974 O   0  0  0  0  0  0  0  0  0  0  0  0
   24.1783  -20.5356   -8.5587 C   0  0  0  0  0  0  0  0  0  0  0  0
   25.6464  -20.8991   -8.5092 C   0  0  2  0  0  0  0  0  0  0  0  0
   26.2601  -20.4310   -7.2089 C   0  0  0  0  0  0  0  0  0  0  0  0
   26.3950  -20.2244   -9.6400 C   0  0  0  0  0  0  0  0  0  0  0  0
   25.8892  -20.7089  -10.9933 C   0  0  2  0  0  0  0  0  0  0  0  0
   26.5564  -19.9245  -12.0095 N   0  0  0  0  0  0  0  0  0  0  0  0
   24.4387  -20.4032  -11.0526 C   0  0  0  0  0  0  0  0  0  0  0  0
   24.0361  -19.2771  -11.3687 O   0  0  0  0  0  0  0  0  0  0  0  0
   23.5132  -21.4012  -10.7474 O   0  0  0  0  0  0  0  0  0  0  0  0
  2  1  1  1
  2  3  1  0
  2  6  1  0
  3  4  1  0
  4  5  2  0
  4  8  1  0
  6  7  2  0
  9 13  1  0
  9  6  1  0
 10  9  1  0
 11 10  1  0
 11 12  1  0
 12 13  1  0
 13 14  1  1
 14 21  1  0
 14 15  2  0
 17 16  1  1
 17 18  1  0
 19 17  1  0
 20 19  1  1
 20 22  1  0
 21 20  1  0
 22 23  2  0
 22 24  1  0
M  END
$$$$
