DPL.pdb
     RDKit          3D

 24 24  0  0  1  0  0  0  0  0999 V2000
   32.9744  -29.4315    8.6926 N   0  0  0  0  0  0  0  0  0  0  0  0
   33.9465  -28.5565    9.3852 C   0  0  1  0  0  0  0  0  0  0  0  0
   35.1988  -28.4415    8.5831 C   0  0  0  0  0  0  0  0  0  0  0  0
   36.0271  -29.6508    8.5764 C   0  0  0  0  0  0  0  0  0  0  0  0
   36.2269  -30.2840    7.5203 O   0  0  0  0  0  0  0  0  0  0  0  0
   33.2188  -27.2696    9.5351 C   0  0  0  0  0  0  0  0  0  0  0  0
   32.4657  -26.9250    8.5668 O   0  0  0  0  0  0  0  0  0  0  0  0
   36.6316  -30.1585    9.7295 O   0  0  0  0  0  0  0  0  0  0  0  0
   33.2860  -26.3961   10.6513 N   0  0  0  0  0  0  0  0  0  0  0  0
   34.0938  -26.6757   11.7976 C   0  0  0  0  0  0  0  0  0  0  0  0
   33.6575  -25.7663   12.8790 C   0  0  0  0  0  0  0  0  0  0  0  0
   32.4923  -25.0372   12.3315 C   0  0  0  0  0  0  0  0  0  0  0  0
   32.6205  -25.1559   10.7981 C   0  0  1  0  0  0  0  0  0  0  0  0
   33.3908  -23.9773   10.2814 C   0  0  0  0  0  0  0  0  0  0  0  0
   34.6431  -24.0363   10.2677 O   0  0  0  0  0  0  0  0  0  0  0  0
   32.7712  -22.1144    6.2058 C   0  0  0  0  0  0  0  0  0  0  0  0
   31.7551  -21.8183    7.2873 C   0  0  2  0  0  0  0  0  0  0  0  0
   30.5790  -21.0630    6.7107 C   0  0  0  0  0  0  0  0  0  0  0  0
   32.3716  -20.9539    8.3676 C   0  0  0  0  0  0  0  0  0  0  0  0
   33.4260  -21.7283    9.1490 C   0  0  2  0  0  0  0  0  0  0  0  0
   32.7526  -22.8209    9.8167 N   0  0  0  0  0  0  0  0  0  0  0  0
   33.9610  -20.8127   10.1866 C   0  0  0  0  0  0  0  0  0  0  0  0
   33.5581  -20.8670   11.3549 O   0  0  0  0  0  0  0  0  0  0  0  0
   34.9342  -19.8755    9.8402 O   0  0  0  0  0  0  0  0  0  0  0  0
  2  1  1  6
  2  3  1  0
  2  6  1  0
  3  4  1  0
  4  5  2  0
  4  8  1  0
  6  7  2  0
  9 13  1  0
  9  6  1  0
 10  9  1  0
 11 10  1  0
 11 12  1  0
 12 13  1  0
 13 14  1  1
 14 21  1  0
 14 15  2  0
 17 16  1  6
 17 18  1  0
 19 17  1  0
 20 19  1  6
 20 22  1  0
 21 20  1  0
 22 23  2  0
 22 24  1  0
M  END
$$$$
