DPL.pdb
     RDKit          3D

 24 24  0  0  1  0  0  0  0  0999 V2000
   24.3367  -22.2217  -12.2233 N   0  0  0  0  0  0  0  0  0  0  0  0
   25.2559  -21.0711  -12.0766 C   0  0  1  0  0  0  0  0  0  0  0  0
   24.4818  -19.8239  -11.8118 C   0  0  0  0  0  0  0  0  0  0  0  0
   23.4703  -19.5119  -12.8257 C   0  0  0  0  0  0  0  0  0  0  0  0
   23.7765  -19.4335  -14.0325 O   0  0  0  0  0  0  0  0  0  0  0  0
   26.1421  -21.4684  -10.9519 C   0  0  0  0  0  0  0  0  0  0  0  0
   25.5823  -22.0397   -9.9601 O   0  0  0  0  0  0  0  0  0  0  0  0
   22.1277  -19.2876  -12.5091 O   0  0  0  0  0  0  0  0  0  0  0  0
   27.5455  -21.2707  -10.8832 N   0  0  0  0  0  0  0  0  0  0  0  0
   28.3065  -20.7777  -11.9889 C   0  0  0  0  0  0  0  0  0  0  0  0
   29.7330  -21.0313  -11.6925 C   0  0  0  0  0  0  0  0  0  0  0  0
   29.7403  -21.7907  -10.4228 C   0  0  0  0  0  0  0  0  0  0  0  0
   28.3785  -21.4919   -9.7609 C   0  0  1  0  0  0  0  0  0  0  0  0
   28.5264  -20.3034   -8.8582 C   0  0  0  0  0  0  0  0  0  0  0  0
   27.9444  -19.2369   -9.1677 O   0  0  0  0  0  0  0  0  0  0  0  0
   27.8711  -18.3415   -4.4483 C   0  0  0  0  0  0  0  0  0  0  0  0
   27.2345  -19.7032   -4.6220 C   0  0  2  0  0  0  0  0  0  0  0  0
   27.6828  -20.6373   -3.5206 C   0  0  0  0  0  0  0  0  0  0  0  0
   27.6522  -20.3160   -5.9428 C   0  0  0  0  0  0  0  0  0  0  0  0
   28.9413  -19.6837   -6.4529 C   0  0  2  0  0  0  0  0  0  0  0  0
   29.2917  -20.3531   -7.6867 N   0  0  0  0  0  0  0  0  0  0  0  0
   29.9972  -19.9768   -5.4528 C   0  0  0  0  0  0  0  0  0  0  0  0
   30.4768  -19.0793   -4.7493 O   0  0  0  0  0  0  0  0  0  0  0  0
   30.4570  -21.2850   -5.3023 O   0  0  0  0  0  0  0  0  0  0  0  0
  2  1  1  1
  2  3  1  0
  2  6  1  0
  3  4  1  0
  4  5  2  0
  4  8  1  0
  6  7  2  0
  9 13  1  0
  9  6  1  0
 10  9  1  0
 11 10  1  0
 11 12  1  0
 12 13  1  0
 13 14  1  1
 14 21  1  0
 14 15  2  0
 17 16  1  1
 17 18  1  0
 19 17  1  0
 20 19  1  1
 20 22  1  0
 21 20  1  0
 22 23  2  0
 22 24  1  0
M  END
$$$$
