DPL.pdb
     RDKit          3D

 24 24  0  0  1  0  0  0  0  0999 V2000
   27.5044  -18.7306  -13.9898 N   0  0  0  0  0  0  0  0  0  0  0  0
   27.0404  -20.0200  -13.4309 C   0  0  1  0  0  0  0  0  0  0  0  0
   28.0440  -21.0898  -13.7016 C   0  0  0  0  0  0  0  0  0  0  0  0
   28.0674  -21.5614  -15.0893 C   0  0  0  0  0  0  0  0  0  0  0  0
   27.0467  -22.0465  -15.6178 O   0  0  0  0  0  0  0  0  0  0  0  0
   26.8568  -19.7323  -11.9846 C   0  0  0  0  0  0  0  0  0  0  0  0
   27.6797  -18.9148  -11.4576 O   0  0  0  0  0  0  0  0  0  0  0  0
   29.2114  -21.4980  -15.8893 O   0  0  0  0  0  0  0  0  0  0  0  0
   25.8547  -20.2816  -11.1435 N   0  0  0  0  0  0  0  0  0  0  0  0
   24.9331  -21.2769  -11.5961 C   0  0  0  0  0  0  0  0  0  0  0  0
   23.8401  -21.3522  -10.6029 C   0  0  0  0  0  0  0  0  0  0  0  0
   24.1236  -20.2779   -9.6260 C   0  0  0  0  0  0  0  0  0  0  0  0
   25.6283  -19.9718   -9.7814 C   0  0  1  0  0  0  0  0  0  0  0  0
   26.4002  -20.8236   -8.8182 C   0  0  0  0  0  0  0  0  0  0  0  0
   26.5376  -22.0440   -9.0708 O   0  0  0  0  0  0  0  0  0  0  0  0
   27.5100  -18.2981   -5.6171 C   0  0  0  0  0  0  0  0  0  0  0  0
   28.5833  -19.2675   -5.1720 C   0  0  2  0  0  0  0  0  0  0  0  0
   29.8384  -18.5195   -4.7827 C   0  0  0  0  0  0  0  0  0  0  0  0
   28.9422  -20.2115   -6.3009 C   0  0  0  0  0  0  0  0  0  0  0  0
   27.7431  -21.0623   -6.7013 C   0  0  2  0  0  0  0  0  0  0  0  0
   26.9681  -20.2955   -7.6524 N   0  0  0  0  0  0  0  0  0  0  0  0
   26.9184  -21.2558   -5.4832 C   0  0  0  0  0  0  0  0  0  0  0  0
   25.8438  -20.6603   -5.3388 O   0  0  0  0  0  0  0  0  0  0  0  0
   27.3610  -22.1231   -4.4845 O   0  0  0  0  0  0  0  0  0  0  0  0
  2  1  1  6
  2  3  1  0
  2  6  1  0
  3  4  1  0
  4  5  2  0
  4  8  1  0
  6  7  2  0
  9 13  1  0
  9  6  1  0
 10  9  1  0
 11 10  1  0
 11 12  1  0
 12 13  1  0
 13 14  1  1
 14 21  1  0
 14 15  2  0
 17 16  1  6
 17 18  1  0
 19 17  1  0
 20 19  1  1
 20 22  1  0
 21 20  1  0
 22 23  2  0
 22 24  1  0
M  END
$$$$
