DPL.pdb
     RDKit          3D

 24 24  0  0  1  0  0  0  0  0999 V2000
   15.5000  -11.8780  -14.4346 N   0  0  0  0  0  0  0  0  0  0  0  0
   15.7182  -10.4225  -14.5899 C   0  0  1  0  0  0  0  0  0  0  0  0
   14.4453   -9.7495  -14.9793 C   0  0  0  0  0  0  0  0  0  0  0  0
   13.9981  -10.0424  -16.3442 C   0  0  0  0  0  0  0  0  0  0  0  0
   14.8178  -10.3395  -17.2365 O   0  0  0  0  0  0  0  0  0  0  0  0
   16.2299   -9.9984  -13.2608 C   0  0  0  0  0  0  0  0  0  0  0  0
   15.7999  -10.6465  -12.2517 O   0  0  0  0  0  0  0  0  0  0  0  0
   12.6532  -10.0075  -16.7222 O   0  0  0  0  0  0  0  0  0  0  0  0
   17.1479   -8.9445  -13.0156 N   0  0  0  0  0  0  0  0  0  0  0  0
   17.8072   -8.2396  -14.0707 C   0  0  0  0  0  0  0  0  0  0  0  0
   18.9237   -7.4815  -13.4662 C   0  0  0  0  0  0  0  0  0  0  0  0
   18.9384   -7.8759  -12.0403 C   0  0  0  0  0  0  0  0  0  0  0  0
   17.5249   -8.4254  -11.7544 C   0  0  1  0  0  0  0  0  0  0  0  0
   16.6571   -7.3048  -11.2639 C   0  0  0  0  0  0  0  0  0  0  0  0
   16.3035   -6.4178  -12.0765 O   0  0  0  0  0  0  0  0  0  0  0  0
   12.6176   -7.4627   -9.5764 C   0  0  0  0  0  0  0  0  0  0  0  0
   13.6817   -7.9751   -8.6304 C   0  0  2  0  0  0  0  0  0  0  0  0
   13.0463   -8.5312   -7.3761 C   0  0  0  0  0  0  0  0  0  0  0  0
   14.6062   -6.8487   -8.2168 C   0  0  0  0  0  0  0  0  0  0  0  0
   15.2993   -6.2400   -9.4297 C   0  0  2  0  0  0  0  0  0  0  0  0
   16.2339   -7.2237   -9.9316 N   0  0  0  0  0  0  0  0  0  0  0  0
   16.0746   -5.0702   -8.9485 C   0  0  0  0  0  0  0  0  0  0  0  0
   17.2800   -5.1666   -8.6882 O   0  0  0  0  0  0  0  0  0  0  0  0
   15.4348   -3.8413   -8.7870 O   0  0  0  0  0  0  0  0  0  0  0  0
  2  1  1  1
  2  3  1  0
  2  6  1  0
  3  4  1  0
  4  5  2  0
  4  8  1  0
  6  7  2  0
  9 13  1  0
  9  6  1  0
 10  9  1  0
 11 10  1  0
 11 12  1  0
 12 13  1  0
 13 14  1  6
 14 21  1  0
 14 15  2  0
 17 16  1  6
 17 18  1  0
 19 17  1  0
 20 19  1  1
 20 22  1  0
 21 20  1  0
 22 23  2  0
 22 24  1  0
M  END
$$$$
