DPL.pdb
     RDKit          3D

 24 24  0  0  1  0  0  0  0  0999 V2000
   19.3617  -10.7415  -14.8845 N   0  0  0  0  0  0  0  0  0  0  0  0
   19.3023   -9.2647  -14.9603 C   0  0  1  0  0  0  0  0  0  0  0  0
   18.1302   -8.8377  -15.7781 C   0  0  0  0  0  0  0  0  0  0  0  0
   18.2287   -9.1763  -17.2009 C   0  0  0  0  0  0  0  0  0  0  0  0
   19.3139   -9.0790  -17.8085 O   0  0  0  0  0  0  0  0  0  0  0  0
   19.2183   -8.8412  -13.5384 C   0  0  0  0  0  0  0  0  0  0  0  0
   18.6471   -9.6496  -12.7362 O   0  0  0  0  0  0  0  0  0  0  0  0
   17.1349   -9.6200  -17.9491 O   0  0  0  0  0  0  0  0  0  0  0  0
   19.7134   -7.6266  -12.9971 N   0  0  0  0  0  0  0  0  0  0  0  0
   20.3716   -6.6412  -13.7974 C   0  0  0  0  0  0  0  0  0  0  0  0
   21.0518   -5.7053  -12.8764 C   0  0  0  0  0  0  0  0  0  0  0  0
   20.8447   -6.2671  -11.5235 C   0  0  0  0  0  0  0  0  0  0  0  0
   19.6208   -7.1986  -11.6515 C   0  0  1  0  0  0  0  0  0  0  0  0
   18.3797   -6.4177  -11.3363 C   0  0  0  0  0  0  0  0  0  0  0  0
   17.8811   -5.6940  -12.2305 O   0  0  0  0  0  0  0  0  0  0  0  0
   14.3344   -6.7413   -6.6542 C   0  0  0  0  0  0  0  0  0  0  0  0
   14.5631   -6.5303   -8.1350 C   0  0  2  0  0  0  0  0  0  0  0  0
   13.6975   -7.4733   -8.9400 C   0  0  0  0  0  0  0  0  0  0  0  0
   16.0075   -6.8149   -8.4914 C   0  0  0  0  0  0  0  0  0  0  0  0
   16.3676   -6.1992   -9.8380 C   0  0  2  0  0  0  0  0  0  0  0  0
   17.7672   -6.4755  -10.0785 N   0  0  0  0  0  0  0  0  0  0  0  0
   16.2033   -4.7308   -9.7048 C   0  0  0  0  0  0  0  0  0  0  0  0
   17.1204   -4.0225   -9.2718 O   0  0  0  0  0  0  0  0  0  0  0  0
   14.9957   -4.1382  -10.0738 O   0  0  0  0  0  0  0  0  0  0  0  0
  2  1  1  1
  2  3  1  0
  2  6  1  0
  3  4  1  0
  4  5  2  0
  4  8  1  0
  6  7  2  0
  9 13  1  0
  9  6  1  0
 10  9  1  0
 11 10  1  0
 11 12  1  0
 12 13  1  0
 13 14  1  6
 14 21  1  0
 14 15  2  0
 17 16  1  1
 17 18  1  0
 19 17  1  0
 20 19  1  1
 20 22  1  0
 21 20  1  0
 22 23  2  0
 22 24  1  0
M  END
$$$$
