DPL.pdb
     RDKit          3D

 24 24  0  0  1  0  0  0  0  0999 V2000
   21.3271  -13.1210  -18.2685 N   0  0  0  0  0  0  0  0  0  0  0  0
   22.2373  -11.9559  -18.2022 C   0  0  1  0  0  0  0  0  0  0  0  0
   22.4994  -11.4283  -19.5725 C   0  0  0  0  0  0  0  0  0  0  0  0
   23.2769  -12.3279  -20.4296 C   0  0  0  0  0  0  0  0  0  0  0  0
   24.3659  -12.7981  -20.0430 O   0  0  0  0  0  0  0  0  0  0  0  0
   21.5184  -10.9957  -17.3251 C   0  0  0  0  0  0  0  0  0  0  0  0
   20.2743  -10.8392  -17.5512 O   0  0  0  0  0  0  0  0  0  0  0  0
   22.8547  -12.7065  -21.7069 O   0  0  0  0  0  0  0  0  0  0  0  0
   22.0880  -10.2428  -16.2658 N   0  0  0  0  0  0  0  0  0  0  0  0
   23.4785  -10.3081  -15.9386 C   0  0  0  0  0  0  0  0  0  0  0  0
   23.6481   -9.6959  -14.6032 C   0  0  0  0  0  0  0  0  0  0  0  0
   22.2787   -9.3829  -14.1389 C   0  0  0  0  0  0  0  0  0  0  0  0
   21.4163   -9.3307  -15.4178 C   0  0  1  0  0  0  0  0  0  0  0  0
   21.3870   -7.9206  -15.9279 C   0  0  0  0  0  0  0  0  0  0  0  0
   22.3548   -7.5073  -16.6095 O   0  0  0  0  0  0  0  0  0  0  0  0
   18.1761   -5.5217  -19.3817 C   0  0  0  0  0  0  0  0  0  0  0  0
   18.0403   -5.1222  -17.9285 C   0  0  2  0  0  0  0  0  0  0  0  0
   18.8822   -3.9000  -17.6386 C   0  0  0  0  0  0  0  0  0  0  0  0
   18.5252   -6.2388  -17.0271 C   0  0  0  0  0  0  0  0  0  0  0  0
   19.9303   -5.9513  -16.5120 C   0  0  2  0  0  0  0  0  0  0  0  0
   20.3146   -7.0596  -15.6651 N   0  0  0  0  0  0  0  0  0  0  0  0
   19.8458   -4.7336  -15.6688 C   0  0  0  0  0  0  0  0  0  0  0  0
   19.2190   -4.7380  -14.6023 O   0  0  0  0  0  0  0  0  0  0  0  0
   20.4834   -3.5647  -16.0841 O   0  0  0  0  0  0  0  0  0  0  0  0
  2  1  1  6
  2  3  1  0
  2  6  1  0
  3  4  1  0
  4  5  2  0
  4  8  1  0
  6  7  2  0
  9 13  1  0
  9  6  1  0
 10  9  1  0
 11 10  1  0
 11 12  1  0
 12 13  1  0
 13 14  1  6
 14 21  1  0
 14 15  2  0
 17 16  1  6
 17 18  1  0
 19 17  1  0
 20 19  1  1
 20 22  1  0
 21 20  1  0
 22 23  2  0
 22 24  1  0
M  END
$$$$
