DPL.pdb
     RDKit          3D

 24 24  0  0  1  0  0  0  0  0999 V2000
   18.3993  -13.5326  -18.2187 N   0  0  0  0  0  0  0  0  0  0  0  0
   17.8478  -12.1735  -18.4162 C   0  0  1  0  0  0  0  0  0  0  0  0
   16.6488  -11.9736  -17.5518 C   0  0  0  0  0  0  0  0  0  0  0  0
   15.5217  -12.8568  -17.8655 C   0  0  0  0  0  0  0  0  0  0  0  0
   15.1345  -13.0073  -19.0419 O   0  0  0  0  0  0  0  0  0  0  0  0
   18.9827  -11.2784  -18.0712 C   0  0  0  0  0  0  0  0  0  0  0  0
   19.8442  -11.7401  -17.2538 O   0  0  0  0  0  0  0  0  0  0  0  0
   14.8257  -13.5700  -16.8859 O   0  0  0  0  0  0  0  0  0  0  0  0
   19.1924   -9.9653  -18.5663 N   0  0  0  0  0  0  0  0  0  0  0  0
   18.3222   -9.3581  -19.5249 C   0  0  0  0  0  0  0  0  0  0  0  0
   19.0195   -8.1719  -20.0666 C   0  0  0  0  0  0  0  0  0  0  0  0
   20.3673   -8.1972  -19.4568 C   0  0  0  0  0  0  0  0  0  0  0  0
   20.2277   -9.0749  -18.1951 C   0  0  1  0  0  0  0  0  0  0  0  0
   19.8964   -8.1967  -17.0253 C   0  0  0  0  0  0  0  0  0  0  0  0
   18.6907   -7.9895  -16.7511 O   0  0  0  0  0  0  0  0  0  0  0  0
   20.3556   -8.3159  -12.0731 C   0  0  0  0  0  0  0  0  0  0  0  0
   21.7529   -8.2781  -12.6527 C   0  0  2  0  0  0  0  0  0  0  0  0
   22.4006   -6.9401  -12.3761 C   0  0  0  0  0  0  0  0  0  0  0  0
   21.7057   -8.4641  -14.1553 C   0  0  0  0  0  0  0  0  0  0  0  0
   20.7984   -7.4258  -14.8041 C   0  0  2  0  0  0  0  0  0  0  0  0
   20.8914   -7.6063  -16.2366 N   0  0  0  0  0  0  0  0  0  0  0  0
   21.3533   -6.0911  -14.4701 C   0  0  0  0  0  0  0  0  0  0  0  0
   22.3469   -5.6475  -15.0585 O   0  0  0  0  0  0  0  0  0  0  0  0
   20.7452   -5.3231  -13.4772 O   0  0  0  0  0  0  0  0  0  0  0  0
  2  1  1  1
  2  3  1  0
  2  6  1  0
  3  4  1  0
  4  5  2  0
  4  8  1  0
  6  7  2  0
  9 13  1  0
  9  6  1  0
 10  9  1  0
 11 10  1  0
 11 12  1  0
 12 13  1  0
 13 14  1  1
 14 21  1  0
 14 15  2  0
 17 16  1  6
 17 18  1  0
 19 17  1  0
 20 19  1  1
 20 22  1  0
 21 20  1  0
 22 23  2  0
 22 24  1  0
M  END
$$$$
