DPL.pdb
     RDKit          3D

 24 24  0  0  1  0  0  0  0  0999 V2000
   15.3216  -12.2606  -14.2258 N   0  0  0  0  0  0  0  0  0  0  0  0
   15.7691  -10.8584  -14.3806 C   0  0  1  0  0  0  0  0  0  0  0  0
   14.6702  -10.0270  -14.9516 C   0  0  0  0  0  0  0  0  0  0  0  0
   14.3819  -10.2914  -16.3643 C   0  0  0  0  0  0  0  0  0  0  0  0
   15.0774  -11.0926  -17.0205 O   0  0  0  0  0  0  0  0  0  0  0  0
   16.1604  -10.4586  -13.0040 C   0  0  0  0  0  0  0  0  0  0  0  0
   15.5602  -11.0484  -12.0473 O   0  0  0  0  0  0  0  0  0  0  0  0
   13.3314   -9.6745  -17.0490 O   0  0  0  0  0  0  0  0  0  0  0  0
   17.1352   -9.4863  -12.6608 N   0  0  0  0  0  0  0  0  0  0  0  0
   17.9309   -8.8171  -13.6426 C   0  0  0  0  0  0  0  0  0  0  0  0
   19.0509   -8.1622  -12.9329 C   0  0  0  0  0  0  0  0  0  0  0  0
   18.9192   -8.5826  -11.5206 C   0  0  0  0  0  0  0  0  0  0  0  0
   17.4484   -9.0223  -11.3612 C   0  0  1  0  0  0  0  0  0  0  0  0
   16.6343   -7.8450  -10.9134 C   0  0  0  0  0  0  0  0  0  0  0  0
   16.4461   -6.9026  -11.7186 O   0  0  0  0  0  0  0  0  0  0  0  0
   12.4830   -7.5637   -9.8889 C   0  0  0  0  0  0  0  0  0  0  0  0
   13.2723   -8.2825   -8.8165 C   0  0  2  0  0  0  0  0  0  0  0  0
   12.3444   -8.8084   -7.7446 C   0  0  0  0  0  0  0  0  0  0  0  0
   14.2484   -7.3324   -8.1539 C   0  0  0  0  0  0  0  0  0  0  0  0
   15.1945   -6.7208   -9.1800 C   0  0  2  0  0  0  0  0  0  0  0  0
   16.0822   -7.7714   -9.6288 N   0  0  0  0  0  0  0  0  0  0  0  0
   16.0069   -5.7011   -8.4720 C   0  0  0  0  0  0  0  0  0  0  0  0
   17.1260   -5.9763   -8.0224 O   0  0  0  0  0  0  0  0  0  0  0  0
   15.5017   -4.4111   -8.3104 O   0  0  0  0  0  0  0  0  0  0  0  0
  2  1  1  1
  2  3  1  0
  2  6  1  0
  3  4  1  0
  4  5  2  0
  4  8  1  0
  6  7  2  0
  9 13  1  0
  9  6  1  0
 10  9  1  0
 11 10  1  0
 11 12  1  0
 12 13  1  0
 13 14  1  6
 14 21  1  0
 14 15  2  0
 17 16  1  6
 17 18  1  0
 19 17  1  0
 20 19  1  1
 20 22  1  0
 21 20  1  0
 22 23  2  0
 22 24  1  0
M  END
$$$$
