DPL.pdb
     RDKit          3D

 24 24  0  0  1  0  0  0  0  0999 V2000
   24.0031  -22.5960  -13.8346 N   0  0  0  0  0  0  0  0  0  0  0  0
   24.2353  -21.3492  -13.0719 C   0  0  1  0  0  0  0  0  0  0  0  0
   22.9968  -20.9548  -12.3401 C   0  0  0  0  0  0  0  0  0  0  0  0
   21.9030  -20.4983  -13.2025 C   0  0  0  0  0  0  0  0  0  0  0  0
   22.0569  -19.5291  -13.9728 O   0  0  0  0  0  0  0  0  0  0  0  0
   25.3701  -21.6899  -12.1751 C   0  0  0  0  0  0  0  0  0  0  0  0
   25.3255  -22.8301  -11.6081 O   0  0  0  0  0  0  0  0  0  0  0  0
   20.6458  -21.1084  -13.2145 O   0  0  0  0  0  0  0  0  0  0  0  0
   26.4912  -20.8663  -11.8952 N   0  0  0  0  0  0  0  0  0  0  0  0
   26.7082  -19.6154  -12.5531 C   0  0  0  0  0  0  0  0  0  0  0  0
   28.1072  -19.2143  -12.2908 C   0  0  0  0  0  0  0  0  0  0  0  0
   28.7070  -20.3461  -11.5505 C   0  0  0  0  0  0  0  0  0  0  0  0
   27.5137  -21.1193  -10.9504 C   0  0  1  0  0  0  0  0  0  0  0  0
   27.2303  -20.5875   -9.5770 C   0  0  0  0  0  0  0  0  0  0  0  0
   26.3007  -19.7586   -9.4329 O   0  0  0  0  0  0  0  0  0  0  0  0
   30.1184  -20.2748   -4.1472 C   0  0  0  0  0  0  0  0  0  0  0  0
   28.8092  -20.1862   -4.9009 C   0  0  2  0  0  0  0  0  0  0  0  0
   27.7359  -20.9741   -4.1842 C   0  0  0  0  0  0  0  0  0  0  0  0
   28.9596  -20.7721   -6.2896 C   0  0  0  0  0  0  0  0  0  0  0  0
   27.6821  -20.5876   -7.0996 C   0  0  2  0  0  0  0  0  0  0  0  0
   27.9711  -20.9898   -8.4590 N   0  0  0  0  0  0  0  0  0  0  0  0
   27.3730  -19.1366   -7.1034 C   0  0  0  0  0  0  0  0  0  0  0  0
   27.9639  -18.3601   -7.8638 O   0  0  0  0  0  0  0  0  0  0  0  0
   26.4003  -18.6390   -6.2363 O   0  0  0  0  0  0  0  0  0  0  0  0
  2  1  1  1
  2  3  1  0
  2  6  1  0
  3  4  1  0
  4  5  2  0
  4  8  1  0
  6  7  2  0
  9 13  1  0
  9  6  1  0
 10  9  1  0
 11 10  1  0
 11 12  1  0
 12 13  1  0
 13 14  1  1
 14 21  1  0
 14 15  2  0
 17 16  1  1
 17 18  1  0
 19 17  1  0
 20 19  1  1
 20 22  1  0
 21 20  1  0
 22 23  2  0
 22 24  1  0
M  END
$$$$
