IQH.pdb
     RDKit          3D

 28 28  0  0  1  0  0  0  0  0999 V2000
    7.6968  -11.9584   18.9194 C   0  0  0  0  0  0  0  0  0  0  0  0
    8.3282  -13.1903   18.3621 C   0  0  0  0  0  0  0  0  0  0  0  0
    8.4513  -14.2644   19.4298 C   0  0  2  0  0  0  0  0  0  0  0  0
    9.3259  -13.7527   20.5517 C   0  0  0  0  0  0  0  0  0  0  0  0
    9.0514  -15.5195   18.8571 C   0  0  2  0  0  0  0  0  0  0  0  0
    8.2105  -16.0379   17.7820 N   0  0  0  0  0  0  0  0  0  0  0  0
    9.0111  -16.5806   19.9257 C   0  0  0  0  0  0  0  0  0  0  0  0
    7.8720  -17.0701   20.2327 O   0  0  0  0  0  0  0  0  0  0  0  0
    8.5087  -22.1078   21.6143 N   0  0  0  0  0  0  0  0  0  0  0  0
    7.9288  -21.1125   20.7781 C   0  0  0  0  0  0  0  0  0  0  0  0
    7.1083  -21.4714   19.9100 O   0  0  0  0  0  0  0  0  0  0  0  0
    8.3395  -19.7129   20.9996 C   0  0  0  0  0  0  0  0  0  0  0  0
    9.7525  -19.4452   20.5377 C   0  0  0  0  0  0  0  0  0  0  0  0
   10.3157  -18.2768   21.2302 C   0  0  2  0  0  0  0  0  0  0  0  0
   10.1809  -17.0198   20.5557 N   0  0  0  0  0  0  0  0  0  0  0  0
   11.6256  -18.4859   21.9144 C   0  0  0  0  0  0  0  0  0  0  0  0
   11.6995  -19.3062   22.8429 O   0  0  0  0  0  0  0  0  0  0  0  0
   12.8136  -17.8011   21.5714 N   0  0  0  0  0  0  0  0  0  0  0  0
   13.2628  -16.6418   22.3620 C   0  0  1  0  0  0  0  0  0  0  0  0
   12.3952  -15.4380   22.0363 C   0  0  0  0  0  0  0  0  0  0  0  0
   12.7975  -14.9347   20.6997 C   0  0  0  0  0  0  0  0  0  0  0  0
   13.8316  -15.4499   19.9023 C   0  0  0  0  0  0  0  0  0  0  0  0
   13.9007  -14.7427   18.7677 N   0  0  0  0  0  0  0  0  0  0  0  0
   12.9536  -13.7979   18.8084 C   0  0  0  0  0  0  0  0  0  0  0  0
   12.2932  -13.9181   19.9726 N   0  0  0  0  0  0  0  0  0  0  0  0
   13.2613  -16.9774   23.8060 C   0  0  0  0  0  0  0  0  0  0  0  0
   14.2912  -17.0634   24.5126 O   0  0  0  0  0  0  0  0  0  0  0  0
   12.0380  -17.2131   24.4199 O   0  0  0  0  0  0  0  0  0  0  0  0
  1  2  1  0
  3  2  1  0
  3  4  1  1
  5  3  1  0
  5  6  1  6
  7  8  2  0
  7  5  1  0
  9 10  1  0
 10 12  1  0
 11 10  2  0
 12 13  1  0
 14 13  1  6
 14 15  1  0
 15  7  1  0
 16 14  1  0
 16 17  2  0
 18 16  1  0
 19 18  1  0
 19 20  1  1
 20 21  1  0
 21 22  2  0
 21 25  1  0
 22 23  1  0
 23 24  1  0
 25 24  2  0
 26 19  1  0
 27 26  2  0
 28 26  1  0
M  END
$$$$
