IQH.pdb
     RDKit          3D

 28 28  0  0  1  0  0  0  0  0999 V2000
    6.6792  -12.6549   25.9508 C   0  0  0  0  0  0  0  0  0  0  0  0
    6.8515  -13.7062   24.9060 C   0  0  0  0  0  0  0  0  0  0  0  0
    8.0147  -13.3699   23.9880 C   0  0  2  0  0  0  0  0  0  0  0  0
    7.7057  -12.0924   23.2411 C   0  0  0  0  0  0  0  0  0  0  0  0
    8.2564  -14.4817   23.0038 C   0  0  2  0  0  0  0  0  0  0  0  0
    7.0154  -14.8291   22.3175 N   0  0  0  0  0  0  0  0  0  0  0  0
    8.6263  -15.7168   23.7831 C   0  0  0  0  0  0  0  0  0  0  0  0
    7.9817  -15.9535   24.8601 O   0  0  0  0  0  0  0  0  0  0  0  0
   11.4220  -20.4456   21.2716 N   0  0  0  0  0  0  0  0  0  0  0  0
   10.1737  -19.8186   20.9987 C   0  0  0  0  0  0  0  0  0  0  0  0
    9.6594  -19.9851   19.8747 O   0  0  0  0  0  0  0  0  0  0  0  0
    9.5675  -19.0107   22.0741 C   0  0  0  0  0  0  0  0  0  0  0  0
   10.4616  -18.8982   23.2863 C   0  0  0  0  0  0  0  0  0  0  0  0
   10.1207  -17.7068   24.0778 C   0  0  2  0  0  0  0  0  0  0  0  0
    9.6359  -16.5784   23.3399 N   0  0  0  0  0  0  0  0  0  0  0  0
   11.0488  -17.3738   25.1982 C   0  0  0  0  0  0  0  0  0  0  0  0
   12.0755  -16.7184   24.9595 O   0  0  0  0  0  0  0  0  0  0  0  0
   10.8358  -17.7601   26.5412 N   0  0  0  0  0  0  0  0  0  0  0  0
   11.9351  -17.6973   27.5202 C   0  0  1  0  0  0  0  0  0  0  0  0
   11.3844  -17.2925   28.8769 C   0  0  0  0  0  0  0  0  0  0  0  0
   10.8598  -15.9094   28.7616 C   0  0  0  0  0  0  0  0  0  0  0  0
   10.8455  -15.1283   27.5952 C   0  0  0  0  0  0  0  0  0  0  0  0
   10.2978  -13.9388   27.8739 N   0  0  0  0  0  0  0  0  0  0  0  0
    9.9623  -13.9290   29.1696 C   0  0  0  0  0  0  0  0  0  0  0  0
   10.3026  -15.1166   29.6983 N   0  0  0  0  0  0  0  0  0  0  0  0
   12.6604  -18.9897   27.5567 C   0  0  0  0  0  0  0  0  0  0  0  0
   13.6916  -19.2025   28.2340 O   0  0  0  0  0  0  0  0  0  0  0  0
   12.1665  -20.0370   26.7899 O   0  0  0  0  0  0  0  0  0  0  0  0
  1  2  1  0
  3  2  1  0
  3  4  1  6
  5  3  1  0
  5  6  1  1
  7  8  2  0
  7  5  1  0
  9 10  1  0
 10 12  1  0
 11 10  2  0
 12 13  1  0
 14 13  1  6
 14 15  1  0
 15  7  1  0
 16 14  1  0
 16 17  2  0
 18 16  1  0
 19 18  1  0
 19 20  1  1
 20 21  1  0
 21 22  2  0
 21 25  1  0
 22 23  1  0
 23 24  1  0
 25 24  2  0
 26 19  1  0
 27 26  2  0
 28 26  1  0
M  END
$$$$
