IQH.pdb
     RDKit          3D

 28 28  0  0  1  0  0  0  0  0999 V2000
    7.3334  -11.7261   19.9236 C   0  0  0  0  0  0  0  0  0  0  0  0
    7.5211  -13.0999   19.3722 C   0  0  0  0  0  0  0  0  0  0  0  0
    8.1041  -14.0290   20.4237 C   0  0  2  0  0  0  0  0  0  0  0  0
    9.4721  -13.5278   20.8269 C   0  0  0  0  0  0  0  0  0  0  0  0
    8.2192  -15.4315   19.8916 C   0  0  2  0  0  0  0  0  0  0  0  0
    6.8977  -15.9590   19.5644 N   0  0  0  0  0  0  0  0  0  0  0  0
    8.7210  -16.3098   21.0079 C   0  0  0  0  0  0  0  0  0  0  0  0
    7.9017  -16.6088   21.9411 O   0  0  0  0  0  0  0  0  0  0  0  0
   13.4517  -20.4828   21.1050 N   0  0  0  0  0  0  0  0  0  0  0  0
   13.1115  -20.3676   22.4824 C   0  0  0  0  0  0  0  0  0  0  0  0
   13.6717  -21.1277   23.2973 O   0  0  0  0  0  0  0  0  0  0  0  0
   12.1137  -19.3466   22.8546 C   0  0  0  0  0  0  0  0  0  0  0  0
   11.6263  -18.5541   21.6647 C   0  0  0  0  0  0  0  0  0  0  0  0
   10.6019  -17.5803   22.0702 C   0  0  2  0  0  0  0  0  0  0  0  0
   10.0364  -16.7872   21.0194 N   0  0  0  0  0  0  0  0  0  0  0  0
   10.8603  -16.8453   23.3432 C   0  0  0  0  0  0  0  0  0  0  0  0
   11.0095  -15.6135   23.3116 O   0  0  0  0  0  0  0  0  0  0  0  0
   10.9484  -17.4668   24.6097 N   0  0  0  0  0  0  0  0  0  0  0  0
   10.8849  -16.6627   25.8428 C   0  0  1  0  0  0  0  0  0  0  0  0
    9.5963  -15.8584   25.8589 C   0  0  0  0  0  0  0  0  0  0  0  0
    9.5645  -15.0738   27.1178 C   0  0  0  0  0  0  0  0  0  0  0  0
   10.5940  -15.0011   28.0695 C   0  0  0  0  0  0  0  0  0  0  0  0
   10.2072  -14.1995   29.0696 N   0  0  0  0  0  0  0  0  0  0  0  0
    8.9738  -13.7580   28.7952 C   0  0  0  0  0  0  0  0  0  0  0  0
    8.5924  -14.2871   27.6203 N   0  0  0  0  0  0  0  0  0  0  0  0
   11.0312  -17.5376   27.0306 C   0  0  0  0  0  0  0  0  0  0  0  0
   10.7181  -18.7494   27.0585 O   0  0  0  0  0  0  0  0  0  0  0  0
   11.5498  -16.9800   28.1920 O   0  0  0  0  0  0  0  0  0  0  0  0
  1  2  1  0
  3  2  1  0
  3  4  1  6
  5  3  1  0
  5  6  1  1
  7  8  2  0
  7  5  1  0
  9 10  1  0
 10 12  1  0
 11 10  2  0
 12 13  1  0
 14 13  1  6
 14 15  1  0
 15  7  1  0
 16 14  1  0
 16 17  2  0
 18 16  1  0
 19 18  1  0
 19 20  1  1
 20 21  1  0
 21 22  2  0
 21 25  1  0
 22 23  1  0
 23 24  1  0
 25 24  2  0
 26 19  1  0
 27 26  2  0
 28 26  1  0
M  END
$$$$
