IQH.pdb
     RDKit          3D

 28 28  0  0  1  0  0  0  0  0999 V2000
    6.9304  -12.5390   20.1138 C   0  0  0  0  0  0  0  0  0  0  0  0
    7.4297  -13.2281   18.8881 C   0  0  0  0  0  0  0  0  0  0  0  0
    8.8439  -13.7432   19.0962 C   0  0  2  0  0  0  0  0  0  0  0  0
    9.7566  -12.5790   19.4076 C   0  0  0  0  0  0  0  0  0  0  0  0
    9.3388  -14.4550   17.8666 C   0  0  2  0  0  0  0  0  0  0  0  0
    8.4844  -15.6002   17.5662 N   0  0  0  0  0  0  0  0  0  0  0  0
   10.6851  -15.0501   18.1872 C   0  0  0  0  0  0  0  0  0  0  0  0
   10.7076  -16.1576   18.8231 O   0  0  0  0  0  0  0  0  0  0  0  0
   16.4078  -12.8012   16.8789 N   0  0  0  0  0  0  0  0  0  0  0  0
   16.7111  -14.0232   17.5429 C   0  0  0  0  0  0  0  0  0  0  0  0
   17.8888  -14.2286   17.8986 O   0  0  0  0  0  0  0  0  0  0  0  0
   15.6017  -14.9691   17.7691 C   0  0  0  0  0  0  0  0  0  0  0  0
   14.2773  -14.4348   17.2774 C   0  0  0  0  0  0  0  0  0  0  0  0
   13.1833  -14.8523   18.1667 C   0  0  2  0  0  0  0  0  0  0  0  0
   11.8697  -14.4157   17.7966 N   0  0  0  0  0  0  0  0  0  0  0  0
   13.4717  -14.8070   19.6304 C   0  0  0  0  0  0  0  0  0  0  0  0
   13.2310  -13.7666   20.2631 O   0  0  0  0  0  0  0  0  0  0  0  0
   14.0109  -15.8893   20.3627 N   0  0  0  0  0  0  0  0  0  0  0  0
   13.6528  -16.0859   21.7783 C   0  0  1  0  0  0  0  0  0  0  0  0
   12.2768  -16.7229   21.8704 C   0  0  0  0  0  0  0  0  0  0  0  0
   11.9542  -16.9051   23.3071 C   0  0  0  0  0  0  0  0  0  0  0  0
   12.7422  -16.4808   24.3887 C   0  0  0  0  0  0  0  0  0  0  0  0
   12.1320  -16.8185   25.5315 N   0  0  0  0  0  0  0  0  0  0  0  0
   10.9876  -17.4405   25.2237 C   0  0  0  0  0  0  0  0  0  0  0  0
   10.8859  -17.4897   23.8846 N   0  0  0  0  0  0  0  0  0  0  0  0
   14.7005  -16.8794   22.4642 C   0  0  0  0  0  0  0  0  0  0  0  0
   15.5220  -17.6209   21.8788 O   0  0  0  0  0  0  0  0  0  0  0  0
   14.7796  -16.7978   23.8483 O   0  0  0  0  0  0  0  0  0  0  0  0
  1  2  1  0
  3  2  1  0
  3  4  1  6
  5  3  1  0
  5  6  1  1
  7  8  2  0
  7  5  1  0
  9 10  1  0
 10 12  1  0
 11 10  2  0
 12 13  1  0
 14 13  1  6
 14 15  1  0
 15  7  1  0
 16 14  1  0
 16 17  2  0
 18 16  1  0
 19 18  1  0
 19 20  1  6
 20 21  1  0
 21 22  2  0
 21 25  1  0
 22 23  1  0
 23 24  1  0
 25 24  2  0
 26 19  1  0
 27 26  2  0
 28 26  1  0
M  END
$$$$
