IQH.pdb
     RDKit          3D

 28 28  0  0  1  0  0  0  0  0999 V2000
    7.5986  -11.8397   18.6761 C   0  0  0  0  0  0  0  0  0  0  0  0
    8.1871  -13.1512   18.2758 C   0  0  0  0  0  0  0  0  0  0  0  0
    8.2825  -14.0871   19.4690 C   0  0  2  0  0  0  0  0  0  0  0  0
    9.1721  -13.4637   20.5203 C   0  0  0  0  0  0  0  0  0  0  0  0
    8.8476  -15.4195   19.0581 C   0  0  2  0  0  0  0  0  0  0  0  0
    7.8989  -16.1309   18.2063 N   0  0  0  0  0  0  0  0  0  0  0  0
    8.9711  -16.2707   20.2949 C   0  0  0  0  0  0  0  0  0  0  0  0
    7.9055  -16.8006   20.7588 O   0  0  0  0  0  0  0  0  0  0  0  0
   13.4625  -19.9302   22.6068 N   0  0  0  0  0  0  0  0  0  0  0  0
   12.7535  -19.5854   23.7919 C   0  0  0  0  0  0  0  0  0  0  0  0
   13.0879  -20.1303   24.8629 O   0  0  0  0  0  0  0  0  0  0  0  0
   11.6651  -18.5968   23.6714 C   0  0  0  0  0  0  0  0  0  0  0  0
   11.5150  -18.0713   22.2633 C   0  0  0  0  0  0  0  0  0  0  0  0
   10.3883  -17.1307   22.1743 C   0  0  2  0  0  0  0  0  0  0  0  0
   10.2103  -16.4793   20.9106 N   0  0  0  0  0  0  0  0  0  0  0  0
   10.1605  -16.2625   23.3668 C   0  0  0  0  0  0  0  0  0  0  0  0
   10.9247  -15.3069   23.5748 O   0  0  0  0  0  0  0  0  0  0  0  0
    9.1127  -16.4560   24.2957 N   0  0  0  0  0  0  0  0  0  0  0  0
    8.8308  -15.4415   25.3263 C   0  0  1  0  0  0  0  0  0  0  0  0
    7.3555  -15.0808   25.2939 C   0  0  0  0  0  0  0  0  0  0  0  0
    7.1465  -13.9336   26.2113 C   0  0  0  0  0  0  0  0  0  0  0  0
    8.1476  -13.2586   26.9276 C   0  0  0  0  0  0  0  0  0  0  0  0
    7.5839  -12.2815   27.6488 N   0  0  0  0  0  0  0  0  0  0  0  0
    6.2650  -12.3054   27.4221 C   0  0  0  0  0  0  0  0  0  0  0  0
    6.0077  -13.3009   26.5569 N   0  0  0  0  0  0  0  0  0  0  0  0
    9.2747  -15.9269   26.6549 C   0  0  0  0  0  0  0  0  0  0  0  0
    9.3508  -17.1342   26.9769 O   0  0  0  0  0  0  0  0  0  0  0  0
    9.6308  -14.9826   27.6091 O   0  0  0  0  0  0  0  0  0  0  0  0
  1  2  1  0
  3  2  1  0
  3  4  1  1
  5  3  1  0
  5  6  1  6
  7  8  2  0
  7  5  1  0
  9 10  1  0
 10 12  1  0
 11 10  2  0
 12 13  1  0
 14 13  1  6
 14 15  1  0
 15  7  1  0
 16 14  1  0
 16 17  2  0
 18 16  1  0
 19 18  1  0
 19 20  1  1
 20 21  1  0
 21 22  2  0
 21 25  1  0
 22 23  1  0
 23 24  1  0
 25 24  2  0
 26 19  1  0
 27 26  2  0
 28 26  1  0
M  END
$$$$
