IQH.pdb
     RDKit          3D

 28 28  0  0  1  0  0  0  0  0999 V2000
    7.7425  -11.5737   19.8659 C   0  0  0  0  0  0  0  0  0  0  0  0
    7.9193  -12.9386   19.2892 C   0  0  0  0  0  0  0  0  0  0  0  0
    8.2477  -13.9465   20.3778 C   0  0  2  0  0  0  0  0  0  0  0  0
    9.5280  -13.5341   21.0678 C   0  0  0  0  0  0  0  0  0  0  0  0
    8.4110  -15.3247   19.7971 C   0  0  2  0  0  0  0  0  0  0  0  0
    7.1470  -15.7897   19.2333 N   0  0  0  0  0  0  0  0  0  0  0  0
    8.7010  -16.2730   20.9312 C   0  0  0  0  0  0  0  0  0  0  0  0
    7.7084  -16.7182   21.6004 O   0  0  0  0  0  0  0  0  0  0  0  0
   12.7952  -21.0572   21.4606 N   0  0  0  0  0  0  0  0  0  0  0  0
   12.7479  -20.4780   22.7600 C   0  0  0  0  0  0  0  0  0  0  0  0
   13.6292  -20.7956   23.5835 O   0  0  0  0  0  0  0  0  0  0  0  0
   11.6524  -19.5317   23.0446 C   0  0  0  0  0  0  0  0  0  0  0  0
   11.4726  -18.5090   21.9476 C   0  0  0  0  0  0  0  0  0  0  0  0
   10.3620  -17.5976   22.2605 C   0  0  2  0  0  0  0  0  0  0  0  0
   10.0111  -16.6582   21.2371 N   0  0  0  0  0  0  0  0  0  0  0  0
   10.3280  -17.0549   23.6505 C   0  0  0  0  0  0  0  0  0  0  0  0
   11.1459  -16.1812   23.9795 O   0  0  0  0  0  0  0  0  0  0  0  0
    9.4097  -17.4748   24.6397 N   0  0  0  0  0  0  0  0  0  0  0  0
    9.3758  -16.8145   25.9564 C   0  0  1  0  0  0  0  0  0  0  0  0
    7.9359  -16.6859   26.4232 C   0  0  0  0  0  0  0  0  0  0  0  0
    7.3346  -15.5200   25.7301 C   0  0  0  0  0  0  0  0  0  0  0  0
    8.0016  -14.6470   24.8563 C   0  0  0  0  0  0  0  0  0  0  0  0
    7.1391  -13.7178   24.4259 N   0  0  0  0  0  0  0  0  0  0  0  0
    5.9497  -13.9621   24.9890 C   0  0  0  0  0  0  0  0  0  0  0  0
    6.0732  -15.0471   25.7723 N   0  0  0  0  0  0  0  0  0  0  0  0
   10.2285  -17.5519   26.9192 C   0  0  0  0  0  0  0  0  0  0  0  0
   10.4097  -17.2090   28.1095 O   0  0  0  0  0  0  0  0  0  0  0  0
   10.8709  -18.7004   26.4754 O   0  0  0  0  0  0  0  0  0  0  0  0
  1  2  1  0
  3  2  1  0
  3  4  1  6
  5  3  1  0
  5  6  1  1
  7  8  2  0
  7  5  1  0
  9 10  1  0
 10 12  1  0
 11 10  2  0
 12 13  1  0
 14 13  1  6
 14 15  1  0
 15  7  1  0
 16 14  1  0
 16 17  2  0
 18 16  1  0
 19 18  1  0
 19 20  1  1
 20 21  1  0
 21 22  2  0
 21 25  1  0
 22 23  1  0
 23 24  1  0
 25 24  2  0
 26 19  1  0
 27 26  2  0
 28 26  1  0
M  END
$$$$
