IQH.pdb
     RDKit          3D

 28 28  0  0  1  0  0  0  0  0999 V2000
    7.6897  -11.7467   18.4836 C   0  0  0  0  0  0  0  0  0  0  0  0
    8.1849  -13.1080   18.1256 C   0  0  0  0  0  0  0  0  0  0  0  0
    8.3091  -13.9804   19.3634 C   0  0  2  0  0  0  0  0  0  0  0  0
    9.3295  -13.3737   20.2993 C   0  0  0  0  0  0  0  0  0  0  0  0
    8.7339  -15.3752   18.9925 C   0  0  2  0  0  0  0  0  0  0  0  0
    7.6813  -16.0388   18.2287 N   0  0  0  0  0  0  0  0  0  0  0  0
    8.8531  -16.1755   20.2632 C   0  0  0  0  0  0  0  0  0  0  0  0
    7.7727  -16.5647   20.8225 O   0  0  0  0  0  0  0  0  0  0  0  0
   13.5587  -19.8059   22.3561 N   0  0  0  0  0  0  0  0  0  0  0  0
   12.6928  -19.7376   23.4837 C   0  0  0  0  0  0  0  0  0  0  0  0
   12.9647  -20.4323   24.4833 O   0  0  0  0  0  0  0  0  0  0  0  0
   11.5253  -18.8402   23.3929 C   0  0  0  0  0  0  0  0  0  0  0  0
   11.4562  -18.1140   22.0703 C   0  0  0  0  0  0  0  0  0  0  0  0
   10.2973  -17.2099   22.0310 C   0  0  2  0  0  0  0  0  0  0  0  0
   10.1034  -16.4877   20.8087 N   0  0  0  0  0  0  0  0  0  0  0  0
   10.0319  -16.4263   23.2732 C   0  0  0  0  0  0  0  0  0  0  0  0
   10.7479  -15.4471   23.5359 O   0  0  0  0  0  0  0  0  0  0  0  0
    8.9998  -16.7270   24.1910 N   0  0  0  0  0  0  0  0  0  0  0  0
    8.7433  -15.8446   25.3428 C   0  0  1  0  0  0  0  0  0  0  0  0
    7.2496  -15.6003   25.4727 C   0  0  0  0  0  0  0  0  0  0  0  0
    7.0586  -14.3210   26.1996 C   0  0  0  0  0  0  0  0  0  0  0  0
    8.0746  -13.4302   26.5804 C   0  0  0  0  0  0  0  0  0  0  0  0
    7.5248  -12.3879   27.2159 N   0  0  0  0  0  0  0  0  0  0  0  0
    6.2004  -12.5770   27.2560 C   0  0  0  0  0  0  0  0  0  0  0  0
    5.9258  -13.7411   26.6433 N   0  0  0  0  0  0  0  0  0  0  0  0
    9.3402  -16.4221   26.5708 C   0  0  0  0  0  0  0  0  0  0  0  0
    9.5221  -17.6462   26.7599 O   0  0  0  0  0  0  0  0  0  0  0  0
    9.7247  -15.5506   27.5815 O   0  0  0  0  0  0  0  0  0  0  0  0
  1  2  1  0
  3  2  1  0
  3  4  1  1
  5  3  1  0
  5  6  1  6
  7  8  2  0
  7  5  1  0
  9 10  1  0
 10 12  1  0
 11 10  2  0
 12 13  1  0
 14 13  1  1
 14 15  1  0
 15  7  1  0
 16 14  1  0
 16 17  2  0
 18 16  1  0
 19 18  1  0
 19 20  1  1
 20 21  1  0
 21 22  2  0
 21 25  1  0
 22 23  1  0
 23 24  1  0
 25 24  2  0
 26 19  1  0
 27 26  2  0
 28 26  1  0
M  END
$$$$
