IQH.pdb
     RDKit          3D

 28 28  0  0  1  0  0  0  0  0999 V2000
    6.2358  -11.1932   27.6635 C   0  0  0  0  0  0  0  0  0  0  0  0
    5.7129  -12.4495   27.0513 C   0  0  0  0  0  0  0  0  0  0  0  0
    6.7207  -13.0358   26.0770 C   0  0  2  0  0  0  0  0  0  0  0  0
    7.0734  -11.9945   25.0394 C   0  0  0  0  0  0  0  0  0  0  0  0
    6.1582  -14.2537   25.3961 C   0  0  2  0  0  0  0  0  0  0  0  0
    5.8174  -15.2738   26.3834 N   0  0  0  0  0  0  0  0  0  0  0  0
    7.2559  -14.8686   24.5675 C   0  0  0  0  0  0  0  0  0  0  0  0
    7.7212  -15.9971   24.9433 O   0  0  0  0  0  0  0  0  0  0  0  0
    8.1203  -13.1595   18.5195 N   0  0  0  0  0  0  0  0  0  0  0  0
    8.8370  -14.3862   18.6062 C   0  0  0  0  0  0  0  0  0  0  0  0
    9.3248  -14.8634   17.5621 O   0  0  0  0  0  0  0  0  0  0  0  0
    8.9571  -15.0125   19.9366 C   0  0  0  0  0  0  0  0  0  0  0  0
    8.2838  -14.2028   21.0193 C   0  0  0  0  0  0  0  0  0  0  0  0
    8.3429  -14.9053   22.3097 C   0  0  2  0  0  0  0  0  0  0  0  0
    7.7445  -14.2295   23.4224 N   0  0  0  0  0  0  0  0  0  0  0  0
    9.6218  -15.6110   22.6165 C   0  0  0  0  0  0  0  0  0  0  0  0
    9.7539  -16.7985   22.2802 O   0  0  0  0  0  0  0  0  0  0  0  0
   10.7170  -15.0089   23.2769 N   0  0  0  0  0  0  0  0  0  0  0  0
   11.1094  -15.4490   24.6272 C   0  0  1  0  0  0  0  0  0  0  0  0
    9.9542  -15.2287   25.5888 C   0  0  0  0  0  0  0  0  0  0  0  0
   10.4198  -15.5895   26.9506 C   0  0  0  0  0  0  0  0  0  0  0  0
   11.6683  -16.1436   27.2746 C   0  0  0  0  0  0  0  0  0  0  0  0
   11.7304  -16.3338   28.5984 N   0  0  0  0  0  0  0  0  0  0  0  0
   10.5734  -15.9240   29.1320 C   0  0  0  0  0  0  0  0  0  0  0  0
    9.7891  -15.4773   28.1365 N   0  0  0  0  0  0  0  0  0  0  0  0
   11.5666  -16.8587   24.5916 C   0  0  0  0  0  0  0  0  0  0  0  0
   12.6571  -17.2599   25.0577 O   0  0  0  0  0  0  0  0  0  0  0  0
   10.7329  -17.8006   24.0029 O   0  0  0  0  0  0  0  0  0  0  0  0
  1  2  1  0
  3  2  1  0
  3  4  1  6
  5  3  1  0
  5  6  1  1
  7  8  2  0
  7  5  1  0
  9 10  1  0
 10 12  1  0
 11 10  2  0
 12 13  1  0
 14 13  1  6
 14 15  1  0
 15  7  1  0
 16 14  1  0
 16 17  2  0
 18 16  1  0
 19 18  1  0
 19 20  1  1
 20 21  1  0
 21 22  2  0
 21 25  1  0
 22 23  1  0
 23 24  1  0
 25 24  2  0
 26 19  1  0
 27 26  2  0
 28 26  1  0
M  END
$$$$
