IQH.pdb
     RDKit          3D

 28 28  0  0  1  0  0  0  0  0999 V2000
    7.7326  -11.5431   19.4174 C   0  0  0  0  0  0  0  0  0  0  0  0
    8.2349  -12.5770   18.4659 C   0  0  0  0  0  0  0  0  0  0  0  0
    8.3797  -13.9224   19.1571 C   0  0  2  0  0  0  0  0  0  0  0  0
    9.3981  -13.8039   20.2680 C   0  0  0  0  0  0  0  0  0  0  0  0
    8.8210  -14.9788   18.1811 C   0  0  2  0  0  0  0  0  0  0  0  0
    7.8317  -15.1312   17.1182 N   0  0  0  0  0  0  0  0  0  0  0  0
    8.8222  -16.3020   18.9012 C   0  0  0  0  0  0  0  0  0  0  0  0
    7.7383  -16.9778   18.9017 O   0  0  0  0  0  0  0  0  0  0  0  0
    9.4368  -21.8886   18.4738 N   0  0  0  0  0  0  0  0  0  0  0  0
    9.7572  -20.7782   17.6428 C   0  0  0  0  0  0  0  0  0  0  0  0
    9.5937  -20.8920   16.4115 O   0  0  0  0  0  0  0  0  0  0  0  0
   10.2618  -19.5580   18.3009 C   0  0  0  0  0  0  0  0  0  0  0  0
    9.4574  -19.1864   19.5242 C   0  0  0  0  0  0  0  0  0  0  0  0
   10.0609  -18.0384   20.2169 C   0  0  2  0  0  0  0  0  0  0  0  0
    9.9718  -16.7778   19.5417 N   0  0  0  0  0  0  0  0  0  0  0  0
   11.3617  -18.2936   20.9029 C   0  0  0  0  0  0  0  0  0  0  0  0
   12.3336  -18.6790   20.2340 O   0  0  0  0  0  0  0  0  0  0  0  0
   11.5691  -18.1230   22.2907 N   0  0  0  0  0  0  0  0  0  0  0  0
   12.3506  -16.9801   22.7946 C   0  0  1  0  0  0  0  0  0  0  0  0
   11.8088  -15.6921   22.1985 C   0  0  0  0  0  0  0  0  0  0  0  0
   12.7435  -15.2547   21.1326 C   0  0  0  0  0  0  0  0  0  0  0  0
   13.9659  -15.8638   20.8078 C   0  0  0  0  0  0  0  0  0  0  0  0
   14.5316  -15.1938   19.7961 N   0  0  0  0  0  0  0  0  0  0  0  0
   13.7207  -14.1827   19.4623 C   0  0  0  0  0  0  0  0  0  0  0  0
   12.6470  -14.2242   20.2692 N   0  0  0  0  0  0  0  0  0  0  0  0
   12.3470  -16.9734   24.2770 C   0  0  0  0  0  0  0  0  0  0  0  0
   11.4362  -17.4614   24.9837 O   0  0  0  0  0  0  0  0  0  0  0  0
   13.4241  -16.3877   24.9296 O   0  0  0  0  0  0  0  0  0  0  0  0
  1  2  1  0
  3  2  1  0
  3  4  1  1
  5  3  1  0
  5  6  1  6
  7  8  2  0
  7  5  1  0
  9 10  1  0
 10 12  1  0
 11 10  2  0
 12 13  1  0
 14 13  1  6
 14 15  1  0
 15  7  1  0
 16 14  1  0
 16 17  2  0
 18 16  1  0
 19 18  1  0
 19 20  1  6
 20 21  1  0
 21 22  2  0
 21 25  1  0
 22 23  1  0
 23 24  1  0
 25 24  2  0
 26 19  1  0
 27 26  2  0
 28 26  1  0
M  END
$$$$
