IQH.pdb
     RDKit          3D

 28 28  0  0  1  0  0  0  0  0999 V2000
    9.5976  -15.2247   14.4164 C   0  0  0  0  0  0  0  0  0  0  0  0
    8.7709  -14.6549   15.5202 C   0  0  0  0  0  0  0  0  0  0  0  0
    9.5483  -14.6412   16.8256 C   0  0  2  0  0  0  0  0  0  0  0  0
   10.0581  -16.0345   17.1157 C   0  0  0  0  0  0  0  0  0  0  0  0
    8.6765  -14.1784   17.9609 C   0  0  2  0  0  0  0  0  0  0  0  0
    8.1850  -12.8278   17.7039 N   0  0  0  0  0  0  0  0  0  0  0  0
    9.5432  -14.0482   19.1862 C   0  0  0  0  0  0  0  0  0  0  0  0
   10.4623  -13.1613   19.1708 O   0  0  0  0  0  0  0  0  0  0  0  0
    8.1927  -15.9731   24.9305 N   0  0  0  0  0  0  0  0  0  0  0  0
    7.4084  -15.3769   23.9031 C   0  0  0  0  0  0  0  0  0  0  0  0
    6.1801  -15.2612   24.0861 O   0  0  0  0  0  0  0  0  0  0  0  0
    8.1087  -14.9305   22.6837 C   0  0  0  0  0  0  0  0  0  0  0  0
    9.5905  -15.2196   22.7297 C   0  0  0  0  0  0  0  0  0  0  0  0
   10.2218  -14.9173   21.4366 C   0  0  2  0  0  0  0  0  0  0  0  0
    9.3448  -14.8652   20.3048 N   0  0  0  0  0  0  0  0  0  0  0  0
   11.5408  -15.5674   21.1806 C   0  0  0  0  0  0  0  0  0  0  0  0
   11.5689  -16.7098   20.6963 O   0  0  0  0  0  0  0  0  0  0  0  0
   12.7870  -14.9600   21.4564 N   0  0  0  0  0  0  0  0  0  0  0  0
   14.0380  -15.7270   21.3231 C   0  0  1  0  0  0  0  0  0  0  0  0
   15.1611  -14.7969   20.8974 C   0  0  0  0  0  0  0  0  0  0  0  0
   14.9898  -14.5072   19.4524 C   0  0  0  0  0  0  0  0  0  0  0  0
   14.1286  -15.1825   18.5731 C   0  0  0  0  0  0  0  0  0  0  0  0
   14.2438  -14.6457   17.3520 N   0  0  0  0  0  0  0  0  0  0  0  0
   15.1427  -13.6561   17.4161 C   0  0  0  0  0  0  0  0  0  0  0  0
   15.5880  -13.5774   18.6815 N   0  0  0  0  0  0  0  0  0  0  0  0
   14.3336  -16.4446   22.5862 C   0  0  0  0  0  0  0  0  0  0  0  0
   13.6252  -16.3827   23.6166 O   0  0  0  0  0  0  0  0  0  0  0  0
   15.4713  -17.2396   22.6342 O   0  0  0  0  0  0  0  0  0  0  0  0
  1  2  1  0
  3  2  1  0
  3  4  1  1
  5  3  1  0
  5  6  1  6
  7  8  2  0
  7  5  1  0
  9 10  1  0
 10 12  1  0
 11 10  2  0
 12 13  1  0
 14 13  1  1
 14 15  1  0
 15  7  1  0
 16 14  1  0
 16 17  2  0
 18 16  1  0
 19 18  1  0
 19 20  1  1
 20 21  1  0
 21 22  2  0
 21 25  1  0
 22 23  1  0
 23 24  1  0
 25 24  2  0
 26 19  1  0
 27 26  2  0
 28 26  1  0
M  END
$$$$
