IQH.pdb
     RDKit          3D

 28 28  0  0  1  0  0  0  0  0999 V2000
    6.9061  -11.9026   19.5143 C   0  0  0  0  0  0  0  0  0  0  0  0
    7.5431  -12.7651   18.4765 C   0  0  0  0  0  0  0  0  0  0  0  0
    8.8201  -13.3948   19.0069 C   0  0  2  0  0  0  0  0  0  0  0  0
    9.7621  -12.3029   19.4604 C   0  0  0  0  0  0  0  0  0  0  0  0
    9.4871  -14.2248   17.9441 C   0  0  2  0  0  0  0  0  0  0  0  0
    8.5444  -15.1937   17.3924 N   0  0  0  0  0  0  0  0  0  0  0  0
   10.5530  -15.0569   18.6082 C   0  0  0  0  0  0  0  0  0  0  0  0
   10.1906  -16.1434   19.1735 O   0  0  0  0  0  0  0  0  0  0  0  0
   16.8152  -14.8601   17.0787 N   0  0  0  0  0  0  0  0  0  0  0  0
   15.5350  -14.4066   16.6528 C   0  0  0  0  0  0  0  0  0  0  0  0
   15.3591  -14.1819   15.4386 O   0  0  0  0  0  0  0  0  0  0  0  0
   14.4949  -14.2350   17.6849 C   0  0  0  0  0  0  0  0  0  0  0  0
   14.1946  -15.5189   18.4217 C   0  0  0  0  0  0  0  0  0  0  0  0
   12.9620  -15.3907   19.2130 C   0  0  2  0  0  0  0  0  0  0  0  0
   11.8941  -14.6574   18.6007 N   0  0  0  0  0  0  0  0  0  0  0  0
   13.1410  -15.1390   20.6733 C   0  0  0  0  0  0  0  0  0  0  0  0
   12.6161  -14.1367   21.1838 O   0  0  0  0  0  0  0  0  0  0  0  0
   13.8817  -15.9804   21.5344 N   0  0  0  0  0  0  0  0  0  0  0  0
   13.2194  -16.6743   22.6528 C   0  0  1  0  0  0  0  0  0  0  0  0
   12.0711  -17.5144   22.1207 C   0  0  0  0  0  0  0  0  0  0  0  0
   10.8023  -16.8530   22.5133 C   0  0  0  0  0  0  0  0  0  0  0  0
   10.6871  -15.6596   23.2436 C   0  0  0  0  0  0  0  0  0  0  0  0
    9.3897  -15.3721   23.4069 N   0  0  0  0  0  0  0  0  0  0  0  0
    8.6729  -16.3326   22.8112 C   0  0  0  0  0  0  0  0  0  0  0  0
    9.5276  -17.2205   22.2755 N   0  0  0  0  0  0  0  0  0  0  0  0
   14.2090  -17.4713   23.4165 C   0  0  0  0  0  0  0  0  0  0  0  0
   15.1152  -18.1600   22.8952 O   0  0  0  0  0  0  0  0  0  0  0  0
   14.1291  -17.4560   24.8029 O   0  0  0  0  0  0  0  0  0  0  0  0
  1  2  1  0
  3  2  1  0
  3  4  1  6
  5  3  1  0
  5  6  1  1
  7  8  2  0
  7  5  1  0
  9 10  1  0
 10 12  1  0
 11 10  2  0
 12 13  1  0
 14 13  1  6
 14 15  1  0
 15  7  1  0
 16 14  1  0
 16 17  2  0
 18 16  1  0
 19 18  1  0
 19 20  1  6
 20 21  1  0
 21 22  2  0
 21 25  1  0
 22 23  1  0
 23 24  1  0
 25 24  2  0
 26 19  1  0
 27 26  2  0
 28 26  1  0
M  END
$$$$
