IQH.pdb
     RDKit          3D

 28 28  0  0  1  0  0  0  0  0999 V2000
    6.0432  -11.5181   26.5881 C   0  0  0  0  0  0  0  0  0  0  0  0
    5.6411  -12.7221   25.8036 C   0  0  0  0  0  0  0  0  0  0  0  0
    6.8539  -13.5669   25.4512 C   0  0  2  0  0  0  0  0  0  0  0  0
    7.7807  -12.7628   24.5683 C   0  0  0  0  0  0  0  0  0  0  0  0
    6.4391  -14.8223   24.7333 C   0  0  2  0  0  0  0  0  0  0  0  0
    5.5586  -15.6222   25.5797 N   0  0  0  0  0  0  0  0  0  0  0  0
    7.6679  -15.6723   24.5408 C   0  0  0  0  0  0  0  0  0  0  0  0
    8.0320  -16.4170   25.5125 O   0  0  0  0  0  0  0  0  0  0  0  0
   10.5133  -17.2319   19.0605 N   0  0  0  0  0  0  0  0  0  0  0  0
   11.3429  -17.8415   20.0435 C   0  0  0  0  0  0  0  0  0  0  0  0
   12.3133  -18.5247   19.6598 O   0  0  0  0  0  0  0  0  0  0  0  0
   10.9967  -17.6190   21.4602 C   0  0  0  0  0  0  0  0  0  0  0  0
    9.8447  -16.6567   21.6293 C   0  0  0  0  0  0  0  0  0  0  0  0
    9.5120  -16.4854   23.0513 C   0  0  2  0  0  0  0  0  0  0  0  0
    8.3820  -15.6522   23.3375 N   0  0  0  0  0  0  0  0  0  0  0  0
   10.6672  -16.3196   23.9818 C   0  0  0  0  0  0  0  0  0  0  0  0
   11.2385  -15.2197   24.0477 O   0  0  0  0  0  0  0  0  0  0  0  0
   11.1666  -17.3492   24.8116 N   0  0  0  0  0  0  0  0  0  0  0  0
   11.5096  -17.0752   26.2181 C   0  0  1  0  0  0  0  0  0  0  0  0
   10.4013  -16.2594   26.8616 C   0  0  0  0  0  0  0  0  0  0  0  0
   10.8110  -15.9528   28.2543 C   0  0  0  0  0  0  0  0  0  0  0  0
   12.0165  -16.3375   28.8621 C   0  0  0  0  0  0  0  0  0  0  0  0
   12.0344  -15.8826   30.1212 N   0  0  0  0  0  0  0  0  0  0  0  0
   10.8904  -15.2238   30.3415 C   0  0  0  0  0  0  0  0  0  0  0  0
   10.1585  -15.2693   29.2153 N   0  0  0  0  0  0  0  0  0  0  0  0
   11.7786  -18.3450   26.9344 C   0  0  0  0  0  0  0  0  0  0  0  0
   11.1206  -19.3983   26.7768 O   0  0  0  0  0  0  0  0  0  0  0  0
   12.8298  -18.3724   27.8417 O   0  0  0  0  0  0  0  0  0  0  0  0
  1  2  1  0
  3  2  1  0
  3  4  1  6
  5  3  1  0
  5  6  1  1
  7  8  2  0
  7  5  1  0
  9 10  1  0
 10 12  1  0
 11 10  2  0
 12 13  1  0
 14 13  1  6
 14 15  1  0
 15  7  1  0
 16 14  1  0
 16 17  2  0
 18 16  1  0
 19 18  1  0
 19 20  1  1
 20 21  1  0
 21 22  2  0
 21 25  1  0
 22 23  1  0
 23 24  1  0
 25 24  2  0
 26 19  1  0
 27 26  2  0
 28 26  1  0
M  END
$$$$
