QNT.pdb
     RDKit          3D

 25 24  0  0  1  0  0  0  0  0999 V2000
   18.2224  -21.4275  -11.2608 N   0  0  0  0  0  0  0  0  0  0  0  0
   18.4620  -22.4524  -12.2025 C   0  0  0  0  0  0  0  0  0  0  0  0
   17.5115  -23.2226  -12.4607 O   0  0  0  0  0  0  0  0  0  0  0  0
   19.7600  -22.6305  -12.8681 C   0  0  0  0  0  0  0  0  0  0  0  0
   20.7810  -21.6115  -12.4535 C   0  0  0  0  0  0  0  0  0  0  0  0
   21.1122  -20.7246  -13.6042 C   0  0  2  0  0  0  0  0  0  0  0  0
   20.7691  -21.4804  -14.8183 N   0  0  0  0  0  0  0  0  0  0  0  0
   22.5774  -20.4296  -13.6795 C   0  0  0  0  0  0  0  0  0  0  0  0
   23.1232  -19.8369  -12.7202 O   0  0  0  0  0  0  0  0  0  0  0  0
   27.5461  -20.1361  -14.8905 N   0  0  0  0  0  0  0  0  0  0  0  0
   27.0300  -21.4429  -15.0818 C   0  0  0  0  0  0  0  0  0  0  0  0
   27.8264  -22.3932  -15.2685 O   0  0  0  0  0  0  0  0  0  0  0  0
   25.5936  -21.6648  -15.0594 C   0  0  0  0  0  0  0  0  0  0  0  0
   24.7647  -20.4289  -14.8418 C   0  0  2  0  0  0  0  0  0  0  0  0
   23.3648  -20.7976  -14.7964 N   0  0  0  0  0  0  0  0  0  0  0  0
   25.0443  -19.4173  -15.8715 C   0  0  0  0  0  0  0  0  0  0  0  0
   24.4957  -19.4731  -16.9975 O   0  0  0  0  0  0  0  0  0  0  0  0
   25.1105  -15.5064  -15.2750 C   0  0  0  0  0  0  0  0  0  0  0  0
   26.3725  -15.9364  -15.9921 C   0  0  1  0  0  0  0  0  0  0  0  0
   27.4356  -15.9753  -15.0984 O   0  0  0  0  0  0  0  0  0  0  0  0
   26.1213  -17.2782  -16.6319 C   0  0  2  0  0  0  0  0  0  0  0  0
   25.9432  -18.3283  -15.6524 N   0  0  0  0  0  0  0  0  0  0  0  0
   27.2119  -17.6389  -17.5524 C   0  0  0  0  0  0  0  0  0  0  0  0
   27.5296  -16.8282  -18.6168 O   0  0  0  0  0  0  0  0  0  0  0  0
   27.8917  -18.6924  -17.4059 O   0  0  0  0  0  0  0  0  0  0  0  0
  2  4  1  0
  2  1  1  0
  3  2  2  0
  5  4  1  0
  6  5  1  0
  6  7  1  6
  8  6  1  0
  8 15  1  0
  9  8  2  0
 10 11  1  0
 11 12  2  0
 13 11  1  0
 14 13  1  6
 14 15  1  0
 16 14  1  0
 17 16  2  0
 19 18  1  1
 19 21  1  0
 20 19  1  0
 21 22  1  1
 21 23  1  0
 22 16  1  0
 23 24  1  0
 25 23  2  0
M  END
$$$$
