QNT.pdb
     RDKit          3D

 25 24  0  0  1  0  0  0  0  0999 V2000
   17.3007  -13.0973  -13.0184 N   0  0  0  0  0  0  0  0  0  0  0  0
   16.3322  -13.9004  -13.6600 C   0  0  0  0  0  0  0  0  0  0  0  0
   16.5898  -15.1181  -13.7788 O   0  0  0  0  0  0  0  0  0  0  0  0
   15.0668  -13.3585  -14.1745 C   0  0  0  0  0  0  0  0  0  0  0  0
   14.8951  -11.8937  -13.8961 C   0  0  0  0  0  0  0  0  0  0  0  0
   14.1683  -11.7014  -12.6096 C   0  0  2  0  0  0  0  0  0  0  0  0
   12.7483  -11.9533  -12.8975 N   0  0  0  0  0  0  0  0  0  0  0  0
   14.2651  -10.2912  -12.1178 C   0  0  0  0  0  0  0  0  0  0  0  0
   13.4725   -9.4367  -12.5774 O   0  0  0  0  0  0  0  0  0  0  0  0
   15.5627   -5.9760   -9.5788 N   0  0  0  0  0  0  0  0  0  0  0  0
   15.4156   -7.0822   -8.7039 C   0  0  0  0  0  0  0  0  0  0  0  0
   15.3758   -6.8820   -7.4668 O   0  0  0  0  0  0  0  0  0  0  0  0
   15.3132   -8.4265   -9.2472 C   0  0  0  0  0  0  0  0  0  0  0  0
   15.2978   -8.5037  -10.7492 C   0  0  2  0  0  0  0  0  0  0  0  0
   15.2204   -9.8925  -11.1528 N   0  0  0  0  0  0  0  0  0  0  0  0
   16.4634   -7.8173  -11.3252 C   0  0  0  0  0  0  0  0  0  0  0  0
   17.6189   -8.0278  -10.8864 O   0  0  0  0  0  0  0  0  0  0  0  0
   18.0590   -8.0388  -14.5678 C   0  0  0  0  0  0  0  0  0  0  0  0
   17.6685   -6.5810  -14.4487 C   0  0  1  0  0  0  0  0  0  0  0  0
   16.5032   -6.3424  -15.1665 O   0  0  0  0  0  0  0  0  0  0  0  0
   17.5108   -6.2497  -12.9865 C   0  0  2  0  0  0  0  0  0  0  0  0
   16.3494   -6.8851  -12.4022 N   0  0  0  0  0  0  0  0  0  0  0  0
   17.4371   -4.7945  -12.7778 C   0  0  0  0  0  0  0  0  0  0  0  0
   18.4879   -3.9803  -13.1302 O   0  0  0  0  0  0  0  0  0  0  0  0
   16.4211   -4.2403  -12.2737 O   0  0  0  0  0  0  0  0  0  0  0  0
  2  4  1  0
  2  1  1  0
  3  2  2  0
  5  4  1  0
  6  5  1  0
  6  7  1  6
  8  6  1  0
  8 15  1  0
  9  8  2  0
 10 11  1  0
 11 12  2  0
 13 11  1  0
 14 13  1  1
 14 15  1  0
 16 14  1  0
 17 16  2  0
 19 18  1  1
 19 21  1  0
 20 19  1  0
 21 22  1  6
 21 23  1  0
 22 16  1  0
 23 24  1  0
 25 23  2  0
M  END
$$$$
