QNT.pdb
     RDKit          3D

 25 24  0  0  1  0  0  0  0  0999 V2000
   25.7406  -21.1142   -8.8090 N   0  0  0  0  0  0  0  0  0  0  0  0
   24.4548  -21.1542   -9.3919 C   0  0  0  0  0  0  0  0  0  0  0  0
   23.4818  -20.9204   -8.6422 O   0  0  0  0  0  0  0  0  0  0  0  0
   24.2376  -21.4529  -10.8143 C   0  0  0  0  0  0  0  0  0  0  0  0
   24.2047  -20.2252  -11.6770 C   0  0  0  0  0  0  0  0  0  0  0  0
   23.5781  -20.5426  -12.9911 C   0  0  2  0  0  0  0  0  0  0  0  0
   23.6560  -22.0033  -13.1421 N   0  0  0  0  0  0  0  0  0  0  0  0
   24.3423  -19.9496  -14.1331 C   0  0  0  0  0  0  0  0  0  0  0  0
   24.4753  -18.7051  -14.1879 O   0  0  0  0  0  0  0  0  0  0  0  0
   28.1000  -19.9214  -14.5850 N   0  0  0  0  0  0  0  0  0  0  0  0
   28.0639  -20.9525  -15.5577 C   0  0  0  0  0  0  0  0  0  0  0  0
   29.0263  -21.7524  -15.6366 O   0  0  0  0  0  0  0  0  0  0  0  0
   26.9195  -21.0701  -16.4463 C   0  0  0  0  0  0  0  0  0  0  0  0
   25.7811  -20.1361  -16.1405 C   0  0  2  0  0  0  0  0  0  0  0  0
   24.9181  -20.7469  -15.1506 N   0  0  0  0  0  0  0  0  0  0  0  0
   25.0558  -19.7687  -17.3655 C   0  0  0  0  0  0  0  0  0  0  0  0
   24.2209  -20.5496  -17.8806 O   0  0  0  0  0  0  0  0  0  0  0  0
   22.9342  -16.4937  -20.1783 C   0  0  0  0  0  0  0  0  0  0  0  0
   23.6581  -16.8764  -18.9050 C   0  0  1  0  0  0  0  0  0  0  0  0
   22.7433  -17.0515  -17.8742 O   0  0  0  0  0  0  0  0  0  0  0  0
   24.4578  -18.1264  -19.1709 C   0  0  2  0  0  0  0  0  0  0  0  0
   25.2564  -18.5197  -18.0300 N   0  0  0  0  0  0  0  0  0  0  0  0
   25.3245  -17.9605  -20.3490 C   0  0  0  0  0  0  0  0  0  0  0  0
   24.8254  -18.1360  -21.6184 O   0  0  0  0  0  0  0  0  0  0  0  0
   26.5449  -17.6546  -20.2455 O   0  0  0  0  0  0  0  0  0  0  0  0
  2  4  1  0
  2  1  1  0
  3  2  2  0
  5  4  1  0
  6  5  1  0
  6  7  1  6
  8  6  1  0
  8 15  1  0
  9  8  2  0
 10 11  1  0
 11 12  2  0
 13 11  1  0
 14 13  1  6
 14 15  1  0
 16 14  1  0
 17 16  2  0
 19 18  1  6
 19 21  1  0
 20 19  1  0
 21 22  1  1
 21 23  1  0
 22 16  1  0
 23 24  1  0
 25 23  2  0
M  END
$$$$
