QNT.pdb
     RDKit          3D

 25 24  0  0  1  0  0  0  0  0999 V2000
   20.2892  -13.4725  -16.8399 N   0  0  0  0  0  0  0  0  0  0  0  0
   19.3856  -13.4315  -17.9246 C   0  0  0  0  0  0  0  0  0  0  0  0
   19.3899  -14.4068  -18.7070 O   0  0  0  0  0  0  0  0  0  0  0  0
   18.4669  -12.3069  -18.1497 C   0  0  0  0  0  0  0  0  0  0  0  0
   18.4912  -11.2938  -17.0425 C   0  0  0  0  0  0  0  0  0  0  0  0
   19.2106  -10.0679  -17.4892 C   0  0  2  0  0  0  0  0  0  0  0  0
   20.5737  -10.4949  -17.8388 N   0  0  0  0  0  0  0  0  0  0  0  0
   19.3425   -9.0638  -16.3873 C   0  0  0  0  0  0  0  0  0  0  0  0
   18.3018   -8.5819  -15.8830 O   0  0  0  0  0  0  0  0  0  0  0  0
   21.0657   -5.8750  -12.7260 N   0  0  0  0  0  0  0  0  0  0  0  0
   21.4886   -7.2186  -12.5636 C   0  0  0  0  0  0  0  0  0  0  0  0
   22.0274   -7.5637  -11.4853 O   0  0  0  0  0  0  0  0  0  0  0  0
   21.2939   -8.1745  -13.6413 C   0  0  0  0  0  0  0  0  0  0  0  0
   20.6694   -7.6073  -14.8864 C   0  0  2  0  0  0  0  0  0  0  0  0
   20.6015   -8.6419  -15.8976 N   0  0  0  0  0  0  0  0  0  0  0  0
   21.4005   -6.4187  -15.3496 C   0  0  0  0  0  0  0  0  0  0  0  0
   22.4743   -6.5288  -15.9874 O   0  0  0  0  0  0  0  0  0  0  0  0
   20.1989   -3.6730  -17.6044 C   0  0  0  0  0  0  0  0  0  0  0  0
   20.6961   -2.9887  -16.3489 C   0  0  1  0  0  0  0  0  0  0  0  0
   19.6192   -2.6140  -15.5552 O   0  0  0  0  0  0  0  0  0  0  0  0
   21.6275   -3.9321  -15.6311 C   0  0  2  0  0  0  0  0  0  0  0  0
   20.9370   -5.0895  -15.1042 N   0  0  0  0  0  0  0  0  0  0  0  0
   22.3436   -3.2449  -14.5441 C   0  0  0  0  0  0  0  0  0  0  0  0
   22.2157   -3.6674  -13.2416 O   0  0  0  0  0  0  0  0  0  0  0  0
   23.0946   -2.2531  -14.7582 O   0  0  0  0  0  0  0  0  0  0  0  0
  2  4  1  0
  2  1  1  0
  3  2  2  0
  5  4  1  0
  6  5  1  0
  6  7  1  1
  8  6  1  0
  8 15  1  0
  9  8  2  0
 10 11  1  0
 11 12  2  0
 13 11  1  0
 14 13  1  1
 14 15  1  0
 16 14  1  0
 17 16  2  0
 19 18  1  6
 19 21  1  0
 20 19  1  0
 21 22  1  1
 21 23  1  0
 22 16  1  0
 23 24  1  0
 25 23  2  0
M  END
$$$$
