QNT.pdb
     RDKit          3D

 25 24  0  0  1  0  0  0  0  0999 V2000
   20.0673  -20.7093  -19.5124 N   0  0  0  0  0  0  0  0  0  0  0  0
   18.9645  -20.0677  -18.9069 C   0  0  0  0  0  0  0  0  0  0  0  0
   17.9930  -19.7886  -19.6431 O   0  0  0  0  0  0  0  0  0  0  0  0
   18.9293  -19.7314  -17.4769 C   0  0  0  0  0  0  0  0  0  0  0  0
   20.1655  -20.1569  -16.7396 C   0  0  0  0  0  0  0  0  0  0  0  0
   20.0517  -19.7905  -15.2999 C   0  0  2  0  0  0  0  0  0  0  0  0
   19.2888  -18.5341  -15.2541 N   0  0  0  0  0  0  0  0  0  0  0  0
   21.3874  -19.5064  -14.6876 C   0  0  0  0  0  0  0  0  0  0  0  0
   21.9179  -18.3896  -14.8894 O   0  0  0  0  0  0  0  0  0  0  0  0
   21.6059  -19.4126  -11.4046 N   0  0  0  0  0  0  0  0  0  0  0  0
   22.6250  -20.3317  -11.0475 C   0  0  0  0  0  0  0  0  0  0  0  0
   22.6845  -20.7501   -9.8670 O   0  0  0  0  0  0  0  0  0  0  0  0
   23.5825  -20.7756  -12.0470 C   0  0  0  0  0  0  0  0  0  0  0  0
   23.4045  -20.1657  -13.4102 C   0  0  2  0  0  0  0  0  0  0  0  0
   22.0692  -20.4561  -13.8900 N   0  0  0  0  0  0  0  0  0  0  0  0
   24.4463  -20.6312  -14.3373 C   0  0  0  0  0  0  0  0  0  0  0  0
   24.3508  -21.7420  -14.9110 O   0  0  0  0  0  0  0  0  0  0  0  0
   26.3173  -18.2827  -17.0240 C   0  0  0  0  0  0  0  0  0  0  0  0
   27.3098  -19.1159  -16.2412 C   0  0  1  0  0  0  0  0  0  0  0  0
   27.9353  -18.3299  -15.2814 O   0  0  0  0  0  0  0  0  0  0  0  0
   26.5734  -20.2797  -15.6280 C   0  0  2  0  0  0  0  0  0  0  0  0
   25.6101  -19.8572  -14.6342 N   0  0  0  0  0  0  0  0  0  0  0  0
   27.5108  -21.2446  -15.0307 C   0  0  0  0  0  0  0  0  0  0  0  0
   28.4240  -21.9127  -15.8123 O   0  0  0  0  0  0  0  0  0  0  0  0
   27.5161  -21.4961  -13.7937 O   0  0  0  0  0  0  0  0  0  0  0  0
  2  4  1  0
  2  1  1  0
  3  2  2  0
  5  4  1  0
  6  5  1  0
  6  7  1  6
  8  6  1  0
  8 15  1  0
  9  8  2  0
 10 11  1  0
 11 12  2  0
 13 11  1  0
 14 13  1  1
 14 15  1  0
 16 14  1  0
 17 16  2  0
 19 18  1  1
 19 21  1  0
 20 19  1  0
 21 22  1  1
 21 23  1  0
 22 16  1  0
 23 24  1  0
 25 23  2  0
M  END
$$$$
