QNT.pdb
     RDKit          3D

 25 24  0  0  1  0  0  0  0  0999 V2000
   21.4414  -15.9726  -14.3419 N   0  0  0  0  0  0  0  0  0  0  0  0
   20.7684  -17.0879  -14.8876 C   0  0  0  0  0  0  0  0  0  0  0  0
   20.9546  -18.1930  -14.3332 O   0  0  0  0  0  0  0  0  0  0  0  0
   19.8803  -16.9859  -16.0540 C   0  0  0  0  0  0  0  0  0  0  0  0
   19.7298  -15.5811  -16.5605 C   0  0  0  0  0  0  0  0  0  0  0  0
   18.3622  -15.0736  -16.2566 C   0  0  2  0  0  0  0  0  0  0  0  0
   17.4516  -15.7657  -17.1811 N   0  0  0  0  0  0  0  0  0  0  0  0
   18.2331  -13.6097  -16.5393 C   0  0  0  0  0  0  0  0  0  0  0  0
   18.0120  -13.2400  -17.7158 O   0  0  0  0  0  0  0  0  0  0  0  0
   17.8821   -8.5008  -16.3266 N   0  0  0  0  0  0  0  0  0  0  0  0
   16.7887   -9.2564  -15.8327 C   0  0  0  0  0  0  0  0  0  0  0  0
   15.6903   -8.6849  -15.6351 O   0  0  0  0  0  0  0  0  0  0  0  0
   16.9521  -10.6754  -15.5630 C   0  0  0  0  0  0  0  0  0  0  0  0
   18.3172  -11.2261  -15.8712 C   0  0  2  0  0  0  0  0  0  0  0  0
   18.3522  -12.6316  -15.5235 N   0  0  0  0  0  0  0  0  0  0  0  0
   19.3650  -10.4538  -15.1876 C   0  0  0  0  0  0  0  0  0  0  0  0
   19.4962  -10.5051  -13.9417 O   0  0  0  0  0  0  0  0  0  0  0  0
   23.1882  -10.0983  -16.3372 C   0  0  0  0  0  0  0  0  0  0  0  0
   22.5648   -8.7398  -16.0971 C   0  0  1  0  0  0  0  0  0  0  0  0
   22.2403   -8.1462  -17.3106 O   0  0  0  0  0  0  0  0  0  0  0  0
   21.3562   -8.9213  -15.2144 C   0  0  2  0  0  0  0  0  0  0  0  0
   20.2809   -9.6131  -15.8920 N   0  0  0  0  0  0  0  0  0  0  0  0
   20.8712   -7.6274  -14.7073 C   0  0  0  0  0  0  0  0  0  0  0  0
   21.6774   -6.8319  -13.9274 O   0  0  0  0  0  0  0  0  0  0  0  0
   19.7114   -7.1995  -14.9630 O   0  0  0  0  0  0  0  0  0  0  0  0
  2  4  1  0
  2  1  1  0
  3  2  2  0
  5  4  1  0
  6  5  1  0
  6  7  1  6
  8  6  1  0
  8 15  1  0
  9  8  2  0
 10 11  1  0
 11 12  2  0
 13 11  1  0
 14 13  1  1
 14 15  1  0
 16 14  1  0
 17 16  2  0
 19 18  1  6
 19 21  1  0
 20 19  1  0
 21 22  1  6
 21 23  1  0
 22 16  1  0
 23 24  1  0
 25 23  2  0
M  END
$$$$
