QNT.pdb
     RDKit          3D

 25 24  0  0  1  0  0  0  0  0999 V2000
   18.0559  -14.4273  -14.8625 N   0  0  0  0  0  0  0  0  0  0  0  0
   17.0798  -13.8805  -15.7244 C   0  0  0  0  0  0  0  0  0  0  0  0
   16.0379  -14.5486  -15.9019 O   0  0  0  0  0  0  0  0  0  0  0  0
   17.2510  -12.5848  -16.3962 C   0  0  0  0  0  0  0  0  0  0  0  0
   18.5356  -11.8976  -16.0353 C   0  0  0  0  0  0  0  0  0  0  0  0
   18.6265  -10.5862  -16.7368 C   0  0  2  0  0  0  0  0  0  0  0  0
   19.6796  -10.7349  -17.7524 N   0  0  0  0  0  0  0  0  0  0  0  0
   19.0653   -9.4895  -15.8179 C   0  0  0  0  0  0  0  0  0  0  0  0
   19.1081   -9.7158  -14.5864 O   0  0  0  0  0  0  0  0  0  0  0  0
   21.2932   -5.5026  -13.6208 N   0  0  0  0  0  0  0  0  0  0  0  0
   21.8181   -6.8087  -13.7919 C   0  0  0  0  0  0  0  0  0  0  0  0
   22.8790   -7.1231  -13.2021 O   0  0  0  0  0  0  0  0  0  0  0  0
   21.1252   -7.7619  -14.6429 C   0  0  0  0  0  0  0  0  0  0  0  0
   19.9267   -7.2116  -15.3661 C   0  0  2  0  0  0  0  0  0  0  0  0
   19.4325   -8.2082  -16.2935 N   0  0  0  0  0  0  0  0  0  0  0  0
   20.2484   -5.9397  -16.0296 C   0  0  0  0  0  0  0  0  0  0  0  0
   21.1103   -5.8853  -16.9386 O   0  0  0  0  0  0  0  0  0  0  0  0
   17.3778   -3.6910  -17.3898 C   0  0  0  0  0  0  0  0  0  0  0  0
   18.3532   -2.8228  -16.6238 C   0  0  1  0  0  0  0  0  0  0  0  0
   17.8405   -2.5301  -15.3662 O   0  0  0  0  0  0  0  0  0  0  0  0
   19.6723   -3.5483  -16.5428 C   0  0  2  0  0  0  0  0  0  0  0  0
   19.6072   -4.7106  -15.6833 N   0  0  0  0  0  0  0  0  0  0  0  0
   20.7436   -2.6503  -16.0818 C   0  0  0  0  0  0  0  0  0  0  0  0
   21.0678   -1.5198  -16.7947 O   0  0  0  0  0  0  0  0  0  0  0  0
   21.4006   -2.8765  -15.0279 O   0  0  0  0  0  0  0  0  0  0  0  0
  2  4  1  0
  2  1  1  0
  3  2  2  0
  5  4  1  0
  6  5  1  0
  6  7  1  6
  8  6  1  0
  8 15  1  0
  9  8  2  0
 10 11  1  0
 11 12  2  0
 13 11  1  0
 14 13  1  6
 14 15  1  0
 16 14  1  0
 17 16  2  0
 19 18  1  1
 19 21  1  0
 20 19  1  0
 21 22  1  1
 21 23  1  0
 22 16  1  0
 23 24  1  0
 25 23  2  0
M  END
$$$$
