QNT.pdb
     RDKit          3D

 25 24  0  0  1  0  0  0  0  0999 V2000
   26.5960  -19.0515   -7.0285 N   0  0  0  0  0  0  0  0  0  0  0  0
   27.5483  -19.9095   -7.6214 C   0  0  0  0  0  0  0  0  0  0  0  0
   28.6017  -20.1204   -6.9816 O   0  0  0  0  0  0  0  0  0  0  0  0
   27.3388  -20.5431   -8.9307 C   0  0  0  0  0  0  0  0  0  0  0  0
   26.0119  -20.2046   -9.5449 C   0  0  0  0  0  0  0  0  0  0  0  0
   25.5617  -21.3158  -10.4297 C   0  0  2  0  0  0  0  0  0  0  0  0
   26.7820  -21.9184  -10.9868 N   0  0  0  0  0  0  0  0  0  0  0  0
   24.7587  -20.8168  -11.5899 C   0  0  0  0  0  0  0  0  0  0  0  0
   24.0566  -19.7901  -11.4401 O   0  0  0  0  0  0  0  0  0  0  0  0
   26.6154  -22.2071  -15.8283 N   0  0  0  0  0  0  0  0  0  0  0  0
   25.6087  -21.2259  -15.6428 C   0  0  0  0  0  0  0  0  0  0  0  0
   25.8799  -20.0222  -15.8661 O   0  0  0  0  0  0  0  0  0  0  0  0
   24.2828  -21.6236  -15.1992 C   0  0  0  0  0  0  0  0  0  0  0  0
   23.8513  -21.0349  -13.8842 C   0  0  2  0  0  0  0  0  0  0  0  0
   24.7667  -21.4654  -12.8477 N   0  0  0  0  0  0  0  0  0  0  0  0
   22.4563  -21.3862  -13.5806 C   0  0  0  0  0  0  0  0  0  0  0  0
   22.0746  -22.5805  -13.5889 O   0  0  0  0  0  0  0  0  0  0  0  0
   20.4061  -20.5886  -10.5188 C   0  0  0  0  0  0  0  0  0  0  0  0
   19.6072  -20.0778  -11.6989 C   0  0  1  0  0  0  0  0  0  0  0  0
   19.7211  -18.6959  -11.7857 O   0  0  0  0  0  0  0  0  0  0  0  0
   20.1059  -20.7665  -12.9437 C   0  0  2  0  0  0  0  0  0  0  0  0
   21.4696  -20.4027  -13.2630 N   0  0  0  0  0  0  0  0  0  0  0  0
   19.2339  -20.4786  -14.0941 C   0  0  0  0  0  0  0  0  0  0  0  0
   17.9000  -20.8119  -14.0651 O   0  0  0  0  0  0  0  0  0  0  0  0
   19.6673  -19.9219  -15.1409 O   0  0  0  0  0  0  0  0  0  0  0  0
  2  4  1  0
  2  1  1  0
  3  2  2  0
  5  4  1  0
  6  5  1  0
  6  7  1  6
  8  6  1  0
  8 15  1  0
  9  8  2  0
 10 11  1  0
 11 12  2  0
 13 11  1  0
 14 13  1  6
 14 15  1  0
 16 14  1  0
 17 16  2  0
 19 18  1  1
 19 21  1  0
 20 19  1  0
 21 22  1  6
 21 23  1  0
 22 16  1  0
 23 24  1  0
 25 23  2  0
M  END
$$$$
