QNT.pdb
     RDKit          3D

 25 24  0  0  1  0  0  0  0  0999 V2000
   15.2823  -12.7800  -15.8211 N   0  0  0  0  0  0  0  0  0  0  0  0
   16.1995  -13.1361  -16.8344 C   0  0  0  0  0  0  0  0  0  0  0  0
   16.0974  -14.2849  -17.3172 O   0  0  0  0  0  0  0  0  0  0  0  0
   17.2382  -12.2183  -17.3225 C   0  0  0  0  0  0  0  0  0  0  0  0
   17.2087  -10.8793  -16.6451 C   0  0  0  0  0  0  0  0  0  0  0  0
   18.4819  -10.6549  -15.9043 C   0  0  2  0  0  0  0  0  0  0  0  0
   18.5592  -11.7152  -14.8882 N   0  0  0  0  0  0  0  0  0  0  0  0
   18.4788   -9.3518  -15.1684 C   0  0  0  0  0  0  0  0  0  0  0  0
   18.3434   -8.2911  -15.8212 O   0  0  0  0  0  0  0  0  0  0  0  0
   16.3564   -9.6319  -10.7020 N   0  0  0  0  0  0  0  0  0  0  0  0
   16.7079   -8.5964  -11.6047 C   0  0  0  0  0  0  0  0  0  0  0  0
   15.8144   -8.0712  -12.3103 O   0  0  0  0  0  0  0  0  0  0  0  0
   18.0905   -8.1582  -11.7011 C   0  0  0  0  0  0  0  0  0  0  0  0
   18.6054   -7.9889  -13.1041 C   0  0  2  0  0  0  0  0  0  0  0  0
   18.6234   -9.2787  -13.7625 N   0  0  0  0  0  0  0  0  0  0  0  0
   19.9246   -7.3396  -13.1078 C   0  0  0  0  0  0  0  0  0  0  0  0
   20.8515   -7.7563  -12.3734 O   0  0  0  0  0  0  0  0  0  0  0  0
   22.5783   -7.4247  -15.3500 C   0  0  0  0  0  0  0  0  0  0  0  0
   22.2330   -5.9511  -15.3181 C   0  0  1  0  0  0  0  0  0  0  0  0
   21.4318   -5.6285  -16.4063 O   0  0  0  0  0  0  0  0  0  0  0  0
   21.5540   -5.6509  -14.0061 C   0  0  2  0  0  0  0  0  0  0  0  0
   20.2229   -6.2140  -13.9358 N   0  0  0  0  0  0  0  0  0  0  0  0
   21.4923   -4.2008  -13.7610 C   0  0  0  0  0  0  0  0  0  0  0  0
   20.2834   -3.5467  -13.7173 O   0  0  0  0  0  0  0  0  0  0  0  0
   22.5313   -3.5063  -13.5830 O   0  0  0  0  0  0  0  0  0  0  0  0
  2  4  1  0
  2  1  1  0
  3  2  2  0
  5  4  1  0
  6  5  1  0
  6  7  1  1
  8  6  1  0
  8 15  1  0
  9  8  2  0
 10 11  1  0
 11 12  2  0
 13 11  1  0
 14 13  1  1
 14 15  1  0
 16 14  1  0
 17 16  2  0
 19 18  1  1
 19 21  1  0
 20 19  1  0
 21 22  1  6
 21 23  1  0
 22 16  1  0
 23 24  1  0
 25 23  2  0
M  END
$$$$
