QNT.pdb
     RDKit          3D

 25 24  0  0  1  0  0  0  0  0999 V2000
   18.7175  -10.7200  -18.0663 N   0  0  0  0  0  0  0  0  0  0  0  0
   17.5668  -11.4022  -17.6134 C   0  0  0  0  0  0  0  0  0  0  0  0
   16.9844  -12.1443  -18.4341 O   0  0  0  0  0  0  0  0  0  0  0  0
   17.0527  -11.2679  -16.2433 C   0  0  0  0  0  0  0  0  0  0  0  0
   17.8721  -10.3411  -15.3933 C   0  0  0  0  0  0  0  0  0  0  0  0
   17.3224  -10.2995  -14.0090 C   0  0  2  0  0  0  0  0  0  0  0  0
   15.8829  -10.5753  -14.1293 N   0  0  0  0  0  0  0  0  0  0  0  0
   17.4514   -8.9401  -13.3966 C   0  0  0  0  0  0  0  0  0  0  0  0
   16.5589   -8.0902  -13.6218 O   0  0  0  0  0  0  0  0  0  0  0  0
   18.8678   -4.8156  -10.6695 N   0  0  0  0  0  0  0  0  0  0  0  0
   18.6115   -5.9793   -9.9008 C   0  0  0  0  0  0  0  0  0  0  0  0
   18.4984   -5.8771   -8.6563 O   0  0  0  0  0  0  0  0  0  0  0  0
   18.4834   -7.2687  -10.5597 C   0  0  0  0  0  0  0  0  0  0  0  0
   18.6466   -7.2357  -12.0544 C   0  0  2  0  0  0  0  0  0  0  0  0
   18.5460   -8.5841  -12.5732 N   0  0  0  0  0  0  0  0  0  0  0  0
   19.9078   -6.5823  -12.4338 C   0  0  0  0  0  0  0  0  0  0  0  0
   21.0077   -7.0012  -12.0015 O   0  0  0  0  0  0  0  0  0  0  0  0
   21.7439   -6.7141  -15.3210 C   0  0  0  0  0  0  0  0  0  0  0  0
   21.4762   -5.2278  -15.2149 C   0  0  1  0  0  0  0  0  0  0  0  0
   20.4130   -4.8780  -16.0379 O   0  0  0  0  0  0  0  0  0  0  0  0
   21.2065   -4.8959  -13.7693 C   0  0  2  0  0  0  0  0  0  0  0  0
   19.9533   -5.4498  -13.3039 N   0  0  0  0  0  0  0  0  0  0  0  0
   21.2175   -3.4407  -13.5487 C   0  0  0  0  0  0  0  0  0  0  0  0
   22.3678   -2.7106  -13.7357 O   0  0  0  0  0  0  0  0  0  0  0  0
   20.1865   -2.8103  -13.1838 O   0  0  0  0  0  0  0  0  0  0  0  0
  2  4  1  0
  2  1  1  0
  3  2  2  0
  5  4  1  0
  6  5  1  0
  6  7  1  6
  8  6  1  0
  8 15  1  0
  9  8  2  0
 10 11  1  0
 11 12  2  0
 13 11  1  0
 14 13  1  1
 14 15  1  0
 16 14  1  0
 17 16  2  0
 19 18  1  1
 19 21  1  0
 20 19  1  0
 21 22  1  6
 21 23  1  0
 22 16  1  0
 23 24  1  0
 25 23  2  0
M  END
$$$$
