QNT.pdb
     RDKit          3D

 25 24  0  0  1  0  0  0  0  0999 V2000
   25.2071  -10.4057  -15.2006 N   0  0  0  0  0  0  0  0  0  0  0  0
   25.8237   -9.9645  -16.3922 C   0  0  0  0  0  0  0  0  0  0  0  0
   27.0517  -10.1693  -16.5079 O   0  0  0  0  0  0  0  0  0  0  0  0
   25.0813   -9.2928  -17.4679 C   0  0  0  0  0  0  0  0  0  0  0  0
   23.6180   -9.1415  -17.1702 C   0  0  0  0  0  0  0  0  0  0  0  0
   23.3472   -7.7820  -16.6237 C   0  0  2  0  0  0  0  0  0  0  0  0
   23.8485   -7.7868  -15.2412 N   0  0  0  0  0  0  0  0  0  0  0  0
   21.8811   -7.4907  -16.5498 C   0  0  0  0  0  0  0  0  0  0  0  0
   21.2277   -7.4109  -17.6157 O   0  0  0  0  0  0  0  0  0  0  0  0
   19.5297  -10.2159  -13.6457 N   0  0  0  0  0  0  0  0  0  0  0  0
   19.0204   -9.2570  -14.5577 C   0  0  0  0  0  0  0  0  0  0  0  0
   18.4865   -9.6493  -15.6223 O   0  0  0  0  0  0  0  0  0  0  0  0
   19.1219   -7.8399  -14.2505 C   0  0  0  0  0  0  0  0  0  0  0  0
   19.7923   -7.0082  -15.3092 C   0  0  2  0  0  0  0  0  0  0  0  0
   21.2103   -7.3029  -15.3179 N   0  0  0  0  0  0  0  0  0  0  0  0
   19.5188   -5.5776  -15.1088 C   0  0  0  0  0  0  0  0  0  0  0  0
   20.0691   -4.9386  -14.1808 O   0  0  0  0  0  0  0  0  0  0  0  0
   17.9685   -3.1229  -18.1726 C   0  0  0  0  0  0  0  0  0  0  0  0
   18.8154   -2.6418  -17.0138 C   0  0  1  0  0  0  0  0  0  0  0  0
   18.6491   -1.2733  -16.8413 O   0  0  0  0  0  0  0  0  0  0  0  0
   18.4226   -3.4195  -15.7835 C   0  0  2  0  0  0  0  0  0  0  0  0
   18.6243   -4.8431  -15.9468 N   0  0  0  0  0  0  0  0  0  0  0  0
   17.0219   -3.1566  -15.4151 C   0  0  0  0  0  0  0  0  0  0  0  0
   16.6217   -1.8990  -15.0283 O   0  0  0  0  0  0  0  0  0  0  0  0
   16.1416   -4.0610  -15.4383 O   0  0  0  0  0  0  0  0  0  0  0  0
  2  4  1  0
  2  1  1  0
  3  2  2  0
  5  4  1  0
  6  5  1  0
  6  7  1  1
  8  6  1  0
  8 15  1  0
  9  8  2  0
 10 11  1  0
 11 12  2  0
 13 11  1  0
 14 13  1  1
 14 15  1  0
 16 14  1  0
 17 16  2  0
 19 18  1  6
 19 21  1  0
 20 19  1  0
 21 22  1  6
 21 23  1  0
 22 16  1  0
 23 24  1  0
 25 23  2  0
M  END
$$$$
