QNT.pdb
     RDKit          3D

 25 24  0  0  1  0  0  0  0  0999 V2000
   19.6781  -18.1286  -17.8849 N   0  0  0  0  0  0  0  0  0  0  0  0
   18.8129  -17.7327  -16.8411 C   0  0  0  0  0  0  0  0  0  0  0  0
   17.5925  -17.6693  -17.1058 O   0  0  0  0  0  0  0  0  0  0  0  0
   19.2951  -17.4051  -15.4922 C   0  0  0  0  0  0  0  0  0  0  0  0
   20.7882  -17.4862  -15.3630 C   0  0  0  0  0  0  0  0  0  0  0  0
   21.2408  -18.8925  -15.5573 C   0  0  2  0  0  0  0  0  0  0  0  0
   20.3067  -19.7345  -14.7948 N   0  0  0  0  0  0  0  0  0  0  0  0
   22.6018  -19.1269  -14.9806 C   0  0  0  0  0  0  0  0  0  0  0  0
   23.5295  -18.3425  -15.2866 O   0  0  0  0  0  0  0  0  0  0  0  0
   26.6099  -20.7673  -12.1921 N   0  0  0  0  0  0  0  0  0  0  0  0
   25.4145  -21.1732  -11.5464 C   0  0  0  0  0  0  0  0  0  0  0  0
   25.4808  -21.6872  -10.4046 O   0  0  0  0  0  0  0  0  0  0  0  0
   24.1345  -20.9899  -12.2104 C   0  0  0  0  0  0  0  0  0  0  0  0
   24.2147  -20.3874  -13.5861 C   0  0  2  0  0  0  0  0  0  0  0  0
   22.8743  -20.2031  -14.1030 N   0  0  0  0  0  0  0  0  0  0  0  0
   25.0495  -21.2090  -14.4747 C   0  0  0  0  0  0  0  0  0  0  0  0
   25.0201  -22.4610  -14.4133 O   0  0  0  0  0  0  0  0  0  0  0  0
   25.9922  -20.4294  -18.3953 C   0  0  0  0  0  0  0  0  0  0  0  0
   27.2061  -20.7207  -17.5388 C   0  0  1  0  0  0  0  0  0  0  0  0
   27.8599  -19.5358  -17.2248 O   0  0  0  0  0  0  0  0  0  0  0  0
   26.7512  -21.4603  -16.3064 C   0  0  2  0  0  0  0  0  0  0  0  0
   25.9290  -20.6379  -15.4453 N   0  0  0  0  0  0  0  0  0  0  0  0
   27.8995  -21.9802  -15.5463 C   0  0  0  0  0  0  0  0  0  0  0  0
   28.7147  -22.9500  -16.0811 O   0  0  0  0  0  0  0  0  0  0  0  0
   28.1804  -21.5639  -14.3882 O   0  0  0  0  0  0  0  0  0  0  0  0
  2  4  1  0
  2  1  1  0
  3  2  2  0
  5  4  1  0
  6  5  1  0
  6  7  1  1
  8  6  1  0
  8 15  1  0
  9  8  2  0
 10 11  1  0
 11 12  2  0
 13 11  1  0
 14 13  1  1
 14 15  1  0
 16 14  1  0
 17 16  2  0
 19 18  1  6
 19 21  1  0
 20 19  1  0
 21 22  1  1
 21 23  1  0
 22 16  1  0
 23 24  1  0
 25 23  2  0
M  END
$$$$
