QNT.pdb
     RDKit          3D

 25 24  0  0  1  0  0  0  0  0999 V2000
   19.1048  -15.8821  -18.5897 N   0  0  0  0  0  0  0  0  0  0  0  0
   18.7999  -15.8324  -17.2116 C   0  0  0  0  0  0  0  0  0  0  0  0
   17.7223  -16.3515  -16.8473 O   0  0  0  0  0  0  0  0  0  0  0  0
   19.6903  -15.2066  -16.2241 C   0  0  0  0  0  0  0  0  0  0  0  0
   20.3209  -13.9374  -16.7182 C   0  0  0  0  0  0  0  0  0  0  0  0
   19.6564  -12.7605  -16.0908 C   0  0  2  0  0  0  0  0  0  0  0  0
   18.2126  -13.0382  -16.1216 N   0  0  0  0  0  0  0  0  0  0  0  0
   19.8717  -11.5087  -16.8823 C   0  0  0  0  0  0  0  0  0  0  0  0
   20.1184  -11.6046  -18.1068 O   0  0  0  0  0  0  0  0  0  0  0  0
   19.9155   -6.9074  -18.9260 N   0  0  0  0  0  0  0  0  0  0  0  0
   18.9800   -7.9516  -19.1385 C   0  0  0  0  0  0  0  0  0  0  0  0
   18.1973   -7.8816  -20.1156 O   0  0  0  0  0  0  0  0  0  0  0  0
   18.9394   -9.0839  -18.2278 C   0  0  0  0  0  0  0  0  0  0  0  0
   19.9583   -9.0450  -17.1223 C   0  0  2  0  0  0  0  0  0  0  0  0
   19.8059  -10.2233  -16.2940 N   0  0  0  0  0  0  0  0  0  0  0  0
   19.8513   -7.7991  -16.3489 C   0  0  0  0  0  0  0  0  0  0  0  0
   18.7716   -7.4678  -15.8042 O   0  0  0  0  0  0  0  0  0  0  0  0
   23.3855   -5.8766  -15.1316 C   0  0  0  0  0  0  0  0  0  0  0  0
   22.1395   -5.9097  -14.2725 C   0  0  1  0  0  0  0  0  0  0  0  0
   22.1584   -4.8542  -13.3694 O   0  0  0  0  0  0  0  0  0  0  0  0
   20.9362   -5.8578  -15.1792 C   0  0  2  0  0  0  0  0  0  0  0  0
   20.9541   -6.9073  -16.1753 N   0  0  0  0  0  0  0  0  0  0  0  0
   20.8277   -4.5478  -15.8415 C   0  0  0  0  0  0  0  0  0  0  0  0
   20.6803   -3.3973  -15.1026 O   0  0  0  0  0  0  0  0  0  0  0  0
   20.8649   -4.4265  -17.0974 O   0  0  0  0  0  0  0  0  0  0  0  0
  2  4  1  0
  2  1  1  0
  3  2  2  0
  5  4  1  0
  6  5  1  0
  6  7  1  6
  8  6  1  0
  8 15  1  0
  9  8  2  0
 10 11  1  0
 11 12  2  0
 13 11  1  0
 14 13  1  6
 14 15  1  0
 16 14  1  0
 17 16  2  0
 19 18  1  6
 19 21  1  0
 20 19  1  0
 21 22  1  6
 21 23  1  0
 22 16  1  0
 23 24  1  0
 25 23  2  0
M  END
$$$$
