KMW.pdb
     RDKit          3D

 32 33  0  0  1  0  0  0  0  0999 V2000
   24.9265  -24.0266  -14.1754 N   0  0  0  0  0  0  0  0  0  0  0  0
   24.4544  -23.7750  -15.5362 C   0  0  1  0  0  0  0  0  0  0  0  0
   23.5409  -24.8565  -16.0078 C   0  0  0  0  0  0  0  0  0  0  0  0
   24.2057  -25.8225  -16.9566 C   0  0  0  0  0  0  0  0  0  0  0  0
   25.5441  -26.3251  -16.5246 C   0  0  0  0  0  0  0  0  0  0  0  0
   26.2969  -27.1457  -17.5090 C   0  0  0  0  0  0  0  0  0  0  0  0
   27.6461  -27.3367  -16.9836 N   0  0  0  0  0  0  0  0  0  0  0  0
   23.7423  -22.4564  -15.4616 C   0  0  0  0  0  0  0  0  0  0  0  0
   23.2216  -21.9727  -16.5078 O   0  0  0  0  0  0  0  0  0  0  0  0
   19.9510  -19.9980  -10.5765 C   0  0  0  0  0  0  0  0  0  0  0  0
   20.9643  -21.4848  -10.7704 S   0  0  0  0  0  0  0  0  0  0  0  0
   21.5858  -21.5182  -12.4785 C   0  0  0  0  0  0  0  0  0  0  0  0
   22.3447  -20.2541  -12.8212 C   0  0  0  0  0  0  0  0  0  0  0  0
   23.0051  -20.4056  -14.1542 C   0  0  2  0  0  0  0  0  0  0  0  0
   23.6334  -21.7192  -14.2601 N   0  0  0  0  0  0  0  0  0  0  0  0
   23.9144  -19.3543  -14.5691 C   0  0  0  0  0  0  0  0  0  0  0  0
   23.4939  -18.1411  -14.5780 O   0  0  0  0  0  0  0  0  0  0  0  0
   25.2408  -19.5398  -14.9671 N   0  0  0  0  0  0  0  0  0  0  0  0
   26.0712  -18.3760  -15.3044 C   0  0  1  0  0  0  0  0  0  0  0  0
   27.1357  -18.2171  -14.2497 C   0  0  0  0  0  0  0  0  0  0  0  0
   27.5839  -19.4756  -13.6247 C   0  0  0  0  0  0  0  0  0  0  0  0
   28.5390  -20.3975  -13.9428 C   0  0  0  0  0  0  0  0  0  0  0  0
   28.5918  -21.3413  -12.9704 N   0  0  0  0  0  0  0  0  0  0  0  0
   27.6815  -21.0725  -11.9933 C   0  0  0  0  0  0  0  0  0  0  0  0
   27.3212  -21.7197  -10.8275 C   0  0  0  0  0  0  0  0  0  0  0  0
   26.2930  -21.1771  -10.0583 C   0  0  0  0  0  0  0  0  0  0  0  0
   25.6293  -20.0210  -10.4147 C   0  0  0  0  0  0  0  0  0  0  0  0
   26.0349  -19.4170  -11.5904 C   0  0  0  0  0  0  0  0  0  0  0  0
   27.0490  -19.9139  -12.3933 C   0  0  0  0  0  0  0  0  0  0  0  0
   26.7806  -18.7309  -16.5634 C   0  0  0  0  0  0  0  0  0  0  0  0
   27.6304  -17.8476  -17.1644 O   0  0  0  0  0  0  0  0  0  0  0  0
   26.6045  -19.8716  -17.1042 O   0  0  0  0  0  0  0  0  0  0  0  0
  2  1  1  1
  3  2  1  0
  4  3  1  0
  5  4  1  0
  5  6  1  0
  7  6  1  0
  8  2  1  0
  9  8  2  0
 10 11  1  0
 12 11  1  0
 12 13  1  0
 14 13  1  1
 14 15  1  0
 15  8  1  0
 16 17  2  0
 16 14  1  0
 18 16  1  0
 19 20  1  1
 19 18  1  0
 21 20  1  0
 21 22  2  0
 23 22  1  0
 24 23  1  0
 25 24  2  0
 26 25  1  0
 27 26  2  0
 27 28  1  0
 28 29  2  0
 29 24  1  0
 29 21  1  0
 30 19  1  0
 31 30  1  0
 32 30  2  0
M  END
$$$$
