KMW.pdb
     RDKit          3D

 32 33  0  0  1  0  0  0  0  0999 V2000
   22.8312  -19.9121  -13.9975 N   0  0  0  0  0  0  0  0  0  0  0  0
   22.4987  -19.3540  -15.3073 C   0  0  1  0  0  0  0  0  0  0  0  0
   21.4085  -18.3398  -15.2098 C   0  0  0  0  0  0  0  0  0  0  0  0
   20.0421  -18.9532  -15.0312 C   0  0  0  0  0  0  0  0  0  0  0  0
   19.8829  -19.8216  -13.8266 C   0  0  0  0  0  0  0  0  0  0  0  0
   18.5490  -20.4460  -13.6273 C   0  0  0  0  0  0  0  0  0  0  0  0
   18.5904  -21.1810  -12.3659 N   0  0  0  0  0  0  0  0  0  0  0  0
   23.7738  -18.7354  -15.7998 C   0  0  0  0  0  0  0  0  0  0  0  0
   23.7494  -17.9991  -16.8279 O   0  0  0  0  0  0  0  0  0  0  0  0
   26.7893  -13.8256  -14.6273 C   0  0  0  0  0  0  0  0  0  0  0  0
   26.1732  -14.5474  -16.1683 S   0  0  0  0  0  0  0  0  0  0  0  0
   24.9660  -15.8366  -15.7376 C   0  0  0  0  0  0  0  0  0  0  0  0
   25.4124  -16.6400  -14.5348 C   0  0  0  0  0  0  0  0  0  0  0  0
   26.0391  -17.9206  -14.9854 C   0  0  2  0  0  0  0  0  0  0  0  0
   25.0172  -18.9484  -15.1613 N   0  0  0  0  0  0  0  0  0  0  0  0
   27.1589  -18.4215  -14.2112 C   0  0  0  0  0  0  0  0  0  0  0  0
   28.2770  -17.7921  -14.2628 O   0  0  0  0  0  0  0  0  0  0  0  0
   27.1359  -19.5514  -13.3897 N   0  0  0  0  0  0  0  0  0  0  0  0
   28.1935  -20.5635  -13.5109 C   0  0  1  0  0  0  0  0  0  0  0  0
   28.4659  -21.1466  -12.1484 C   0  0  0  0  0  0  0  0  0  0  0  0
   27.3733  -20.9806  -11.1717 C   0  0  0  0  0  0  0  0  0  0  0  0
   26.0143  -21.0807  -11.2522 C   0  0  0  0  0  0  0  0  0  0  0  0
   25.4787  -20.9059  -10.0188 N   0  0  0  0  0  0  0  0  0  0  0  0
   26.4588  -20.6865   -9.0985 C   0  0  0  0  0  0  0  0  0  0  0  0
   26.4464  -20.4289   -7.7415 C   0  0  0  0  0  0  0  0  0  0  0  0
   27.6626  -20.2066   -7.0977 C   0  0  0  0  0  0  0  0  0  0  0  0
   28.8717  -20.2392   -7.7618 C   0  0  0  0  0  0  0  0  0  0  0  0
   28.8211  -20.5036   -9.1180 C   0  0  0  0  0  0  0  0  0  0  0  0
   27.6409  -20.7299   -9.8078 C   0  0  0  0  0  0  0  0  0  0  0  0
   27.6144  -21.6642  -14.3279 C   0  0  0  0  0  0  0  0  0  0  0  0
   28.4032  -22.6626  -14.8225 O   0  0  0  0  0  0  0  0  0  0  0  0
   26.3655  -21.6921  -14.5810 O   0  0  0  0  0  0  0  0  0  0  0  0
  2  1  1  1
  3  2  1  0
  4  3  1  0
  5  4  1  0
  5  6  1  0
  7  6  1  0
  8  2  1  0
  9  8  2  0
 10 11  1  0
 12 11  1  0
 12 13  1  0
 14 13  1  1
 14 15  1  0
 15  8  1  0
 16 17  2  0
 16 14  1  0
 18 16  1  0
 19 20  1  1
 19 18  1  0
 21 20  1  0
 21 22  2  0
 23 22  1  0
 24 23  1  0
 25 24  2  0
 26 25  1  0
 27 26  2  0
 27 28  1  0
 28 29  2  0
 29 24  1  0
 29 21  1  0
 30 19  1  0
 31 30  1  0
 32 30  2  0
M  END
$$$$
