KMW.pdb
     RDKit          3D

 32 33  0  0  1  0  0  0  0  0999 V2000
   28.2626  -19.5753  -13.3208 N   0  0  0  0  0  0  0  0  0  0  0  0
   27.4175  -20.5965  -13.9379 C   0  0  1  0  0  0  0  0  0  0  0  0
   28.2297  -21.6038  -14.6811 C   0  0  0  0  0  0  0  0  0  0  0  0
   28.9969  -21.0111  -15.8368 C   0  0  0  0  0  0  0  0  0  0  0  0
   29.0642  -21.8607  -17.0632 C   0  0  0  0  0  0  0  0  0  0  0  0
   29.9327  -21.3713  -18.1655 C   0  0  0  0  0  0  0  0  0  0  0  0
   29.9219  -22.3840  -19.2179 N   0  0  0  0  0  0  0  0  0  0  0  0
   26.6788  -21.2299  -12.7959 C   0  0  0  0  0  0  0  0  0  0  0  0
   25.9756  -22.2598  -13.0070 O   0  0  0  0  0  0  0  0  0  0  0  0
   29.5116  -20.8417   -6.7770 C   0  0  0  0  0  0  0  0  0  0  0  0
   27.9061  -20.1090   -7.1777 S   0  0  0  0  0  0  0  0  0  0  0  0
   27.3566  -20.8024   -8.7659 C   0  0  0  0  0  0  0  0  0  0  0  0
   26.0418  -20.2002   -9.2130 C   0  0  0  0  0  0  0  0  0  0  0  0
   25.6311  -20.7957  -10.5216 C   0  0  2  0  0  0  0  0  0  0  0  0
   26.7294  -20.7150  -11.4800 N   0  0  0  0  0  0  0  0  0  0  0  0
   24.3895  -20.3250  -11.1058 C   0  0  0  0  0  0  0  0  0  0  0  0
   24.2886  -19.0863  -11.4286 O   0  0  0  0  0  0  0  0  0  0  0  0
   23.2639  -21.1124  -11.3612 N   0  0  0  0  0  0  0  0  0  0  0  0
   22.1061  -20.5283  -12.0512 C   0  0  1  0  0  0  0  0  0  0  0  0
   22.5059  -20.1817  -13.4621 C   0  0  0  0  0  0  0  0  0  0  0  0
   21.4226  -19.6299  -14.2972 C   0  0  0  0  0  0  0  0  0  0  0  0
   20.3577  -18.8150  -14.0414 C   0  0  0  0  0  0  0  0  0  0  0  0
   19.7090  -18.5484  -15.2020 N   0  0  0  0  0  0  0  0  0  0  0  0
   20.3204  -19.1741  -16.2461 C   0  0  0  0  0  0  0  0  0  0  0  0
   20.0493  -19.2490  -17.5984 C   0  0  0  0  0  0  0  0  0  0  0  0
   20.8790  -20.0327  -18.3987 C   0  0  0  0  0  0  0  0  0  0  0  0
   21.9580  -20.7284  -17.8928 C   0  0  0  0  0  0  0  0  0  0  0  0
   22.1805  -20.6136  -16.5330 C   0  0  0  0  0  0  0  0  0  0  0  0
   21.3869  -19.8506  -15.6917 C   0  0  0  0  0  0  0  0  0  0  0  0
   21.1006  -21.6200  -12.1585 C   0  0  0  0  0  0  0  0  0  0  0  0
   19.7640  -21.3556  -12.0732 O   0  0  0  0  0  0  0  0  0  0  0  0
   21.4735  -22.8265  -12.3320 O   0  0  0  0  0  0  0  0  0  0  0  0
  2  1  1  1
  3  2  1  0
  4  3  1  0
  5  4  1  0
  5  6  1  0
  7  6  1  0
  8  2  1  0
  9  8  2  0
 10 11  1  0
 12 11  1  0
 12 13  1  0
 14 13  1  1
 14 15  1  0
 15  8  1  0
 16 17  2  0
 16 14  1  0
 18 16  1  0
 19 20  1  6
 19 18  1  0
 21 20  1  0
 21 22  2  0
 23 22  1  0
 24 23  1  0
 25 24  2  0
 26 25  1  0
 27 26  2  0
 27 28  1  0
 28 29  2  0
 29 24  1  0
 29 21  1  0
 30 19  1  0
 31 30  1  0
 32 30  2  0
M  END
$$$$
