KMW.pdb
     RDKit          3D

 32 33  0  0  1  0  0  0  0  0999 V2000
   27.3722  -23.0580  -16.9081 N   0  0  0  0  0  0  0  0  0  0  0  0
   26.9199  -21.6979  -16.6188 C   0  0  1  0  0  0  0  0  0  0  0  0
   26.1657  -21.1157  -17.7672 C   0  0  0  0  0  0  0  0  0  0  0  0
   27.0411  -20.8068  -18.9561 C   0  0  0  0  0  0  0  0  0  0  0  0
   28.4166  -20.3248  -18.6300 C   0  0  0  0  0  0  0  0  0  0  0  0
   29.2500  -19.8667  -19.7723 C   0  0  0  0  0  0  0  0  0  0  0  0
   30.5267  -19.4088  -19.2307 N   0  0  0  0  0  0  0  0  0  0  0  0
   26.0464  -21.8300  -15.4060 C   0  0  0  0  0  0  0  0  0  0  0  0
   24.9273  -22.4103  -15.5080 O   0  0  0  0  0  0  0  0  0  0  0  0
   25.1382  -20.3733   -7.6710 C   0  0  0  0  0  0  0  0  0  0  0  0
   26.3175  -20.3791   -9.0437 S   0  0  0  0  0  0  0  0  0  0  0  0
   25.4240  -20.8808  -10.5454 C   0  0  0  0  0  0  0  0  0  0  0  0
   26.3369  -20.9170  -11.7523 C   0  0  0  0  0  0  0  0  0  0  0  0
   25.5616  -21.3334  -12.9613 C   0  0  2  0  0  0  0  0  0  0  0  0
   26.4213  -21.3213  -14.1412 N   0  0  0  0  0  0  0  0  0  0  0  0
   24.3097  -20.6468  -13.2174 C   0  0  0  0  0  0  0  0  0  0  0  0
   24.3424  -19.4126  -13.5702 O   0  0  0  0  0  0  0  0  0  0  0  0
   23.0377  -21.2161  -13.1177 N   0  0  0  0  0  0  0  0  0  0  0  0
   21.8459  -20.3683  -13.2551 C   0  0  1  0  0  0  0  0  0  0  0  0
   20.9296  -20.9817  -14.2821 C   0  0  0  0  0  0  0  0  0  0  0  0
   21.1439  -20.5139  -15.6644 C   0  0  0  0  0  0  0  0  0  0  0  0
   21.8661  -19.4933  -16.2123 C   0  0  0  0  0  0  0  0  0  0  0  0
   21.7804  -19.5596  -17.5640 N   0  0  0  0  0  0  0  0  0  0  0  0
   21.0062  -20.6144  -17.9429 C   0  0  0  0  0  0  0  0  0  0  0  0
   20.5904  -21.0946  -19.1695 C   0  0  0  0  0  0  0  0  0  0  0  0
   19.7454  -22.2029  -19.1959 C   0  0  0  0  0  0  0  0  0  0  0  0
   19.3157  -22.8370  -18.0482 C   0  0  0  0  0  0  0  0  0  0  0  0
   19.7661  -22.3126  -16.8508 C   0  0  0  0  0  0  0  0  0  0  0  0
   20.6049  -21.2128  -16.7669 C   0  0  0  0  0  0  0  0  0  0  0  0
   21.1307  -20.4544  -11.9530 C   0  0  0  0  0  0  0  0  0  0  0  0
   19.9804  -19.7522  -11.7350 O   0  0  0  0  0  0  0  0  0  0  0  0
   21.5836  -21.1888  -11.0149 O   0  0  0  0  0  0  0  0  0  0  0  0
  2  1  1  6
  3  2  1  0
  4  3  1  0
  5  4  1  0
  5  6  1  0
  7  6  1  0
  8  2  1  0
  9  8  2  0
 10 11  1  0
 12 11  1  0
 12 13  1  0
 14 13  1  1
 14 15  1  0
 15  8  1  0
 16 17  2  0
 16 14  1  0
 18 16  1  0
 19 20  1  6
 19 18  1  0
 21 20  1  0
 21 22  2  0
 23 22  1  0
 24 23  1  0
 25 24  2  0
 26 25  1  0
 27 26  2  0
 27 28  1  0
 28 29  2  0
 29 24  1  0
 29 21  1  0
 30 19  1  0
 31 30  1  0
 32 30  2  0
M  END
$$$$
