KMW.pdb
     RDKit          3D

 32 33  0  0  1  0  0  0  0  0999 V2000
   27.8131  -21.9494  -17.4793 N   0  0  0  0  0  0  0  0  0  0  0  0
   26.8173  -22.1386  -16.4255 C   0  0  1  0  0  0  0  0  0  0  0  0
   26.3888  -23.5645  -16.3266 C   0  0  0  0  0  0  0  0  0  0  0  0
   24.8899  -23.7333  -16.3088 C   0  0  0  0  0  0  0  0  0  0  0  0
   24.1397  -22.8945  -17.2906 C   0  0  0  0  0  0  0  0  0  0  0  0
   22.6577  -23.0034  -17.2643 C   0  0  0  0  0  0  0  0  0  0  0  0
   22.2940  -24.2380  -17.9545 N   0  0  0  0  0  0  0  0  0  0  0  0
   27.4958  -21.6865  -15.1659 C   0  0  0  0  0  0  0  0  0  0  0  0
   28.7355  -21.4365  -15.1845 O   0  0  0  0  0  0  0  0  0  0  0  0
   25.5639  -16.5194  -15.3365 C   0  0  0  0  0  0  0  0  0  0  0  0
   27.0552  -17.4481  -14.9025 S   0  0  0  0  0  0  0  0  0  0  0  0
   26.6232  -18.6075  -13.5705 C   0  0  0  0  0  0  0  0  0  0  0  0
   27.8051  -19.4651  -13.1716 C   0  0  0  0  0  0  0  0  0  0  0  0
   27.3321  -20.8283  -12.7794 C   0  0  2  0  0  0  0  0  0  0  0  0
   26.8027  -21.5333  -13.9431 N   0  0  0  0  0  0  0  0  0  0  0  0
   26.4223  -20.9179  -11.6531 C   0  0  0  0  0  0  0  0  0  0  0  0
   25.1580  -20.9140  -11.8778 O   0  0  0  0  0  0  0  0  0  0  0  0
   26.8000  -21.0143  -10.3114 N   0  0  0  0  0  0  0  0  0  0  0  0
   25.8357  -21.4989   -9.3149 C   0  0  1  0  0  0  0  0  0  0  0  0
   26.5421  -21.6585   -7.9934 C   0  0  0  0  0  0  0  0  0  0  0  0
   27.0400  -20.4036   -7.3995 C   0  0  0  0  0  0  0  0  0  0  0  0
   26.8441  -19.0832   -7.6853 C   0  0  0  0  0  0  0  0  0  0  0  0
   27.4855  -18.3252   -6.7618 N   0  0  0  0  0  0  0  0  0  0  0  0
   28.1175  -19.1156   -5.8500 C   0  0  0  0  0  0  0  0  0  0  0  0
   28.9129  -18.8496   -4.7524 C   0  0  0  0  0  0  0  0  0  0  0  0
   29.4455  -19.9249   -4.0431 C   0  0  0  0  0  0  0  0  0  0  0  0
   29.2044  -21.2378   -4.3926 C   0  0  0  0  0  0  0  0  0  0  0  0
   28.4000  -21.4418   -5.4985 C   0  0  0  0  0  0  0  0  0  0  0  0
   27.8466  -20.4104   -6.2402 C   0  0  0  0  0  0  0  0  0  0  0  0
   24.8500  -20.3994   -9.1312 C   0  0  0  0  0  0  0  0  0  0  0  0
   23.6942  -20.6008   -8.4332 O   0  0  0  0  0  0  0  0  0  0  0  0
   25.0701  -19.2457   -9.6262 O   0  0  0  0  0  0  0  0  0  0  0  0
  2  1  1  6
  3  2  1  0
  4  3  1  0
  5  4  1  0
  5  6  1  0
  7  6  1  0
  8  2  1  0
  9  8  2  0
 10 11  1  0
 12 11  1  0
 12 13  1  0
 14 13  1  6
 14 15  1  0
 15  8  1  0
 16 17  2  0
 16 14  1  0
 18 16  1  0
 19 20  1  1
 19 18  1  0
 21 20  1  0
 21 22  2  0
 23 22  1  0
 24 23  1  0
 25 24  2  0
 26 25  1  0
 27 26  2  0
 27 28  1  0
 28 29  2  0
 29 24  1  0
 29 21  1  0
 30 19  1  0
 31 30  1  0
 32 30  2  0
M  END
$$$$
