KMW.pdb
     RDKit          3D

 32 33  0  0  1  0  0  0  0  0999 V2000
   27.7695  -22.0503  -16.4724 N   0  0  0  0  0  0  0  0  0  0  0  0
   28.5125  -20.7917  -16.4301 C   0  0  1  0  0  0  0  0  0  0  0  0
   28.3583  -20.0217  -17.6989 C   0  0  0  0  0  0  0  0  0  0  0  0
   28.6851  -20.8325  -18.9281 C   0  0  0  0  0  0  0  0  0  0  0  0
   30.0240  -20.5657  -19.5335 C   0  0  0  0  0  0  0  0  0  0  0  0
   30.3747  -21.3498  -20.7465 C   0  0  0  0  0  0  0  0  0  0  0  0
   31.7516  -21.0180  -21.1030 N   0  0  0  0  0  0  0  0  0  0  0  0
   27.9367  -20.0410  -15.2655 C   0  0  0  0  0  0  0  0  0  0  0  0
   27.7675  -18.7908  -15.3560 O   0  0  0  0  0  0  0  0  0  0  0  0
   21.2063  -19.1667  -12.8282 C   0  0  0  0  0  0  0  0  0  0  0  0
   22.4948  -19.6802  -13.9907 S   0  0  0  0  0  0  0  0  0  0  0  0
   24.0735  -19.7252  -13.0904 C   0  0  0  0  0  0  0  0  0  0  0  0
   25.2248  -20.0961  -14.0005 C   0  0  0  0  0  0  0  0  0  0  0  0
   26.4760  -20.2516  -13.1966 C   0  0  2  0  0  0  0  0  0  0  0  0
   27.5779  -20.6768  -14.0547 N   0  0  0  0  0  0  0  0  0  0  0  0
   26.3997  -21.0660  -11.9986 C   0  0  0  0  0  0  0  0  0  0  0  0
   26.1986  -22.3283  -12.1210 O   0  0  0  0  0  0  0  0  0  0  0  0
   26.5312  -20.5965  -10.6893 N   0  0  0  0  0  0  0  0  0  0  0  0
   26.4139  -21.5323   -9.5632 C   0  0  1  0  0  0  0  0  0  0  0  0
   27.6536  -21.4269   -8.7131 C   0  0  0  0  0  0  0  0  0  0  0  0
   27.6938  -20.2573   -7.8153 C   0  0  0  0  0  0  0  0  0  0  0  0
   27.1326  -19.0139   -7.8623 C   0  0  0  0  0  0  0  0  0  0  0  0
   27.4310  -18.3446   -6.7212 N   0  0  0  0  0  0  0  0  0  0  0  0
   28.1908  -19.1190   -5.8975 C   0  0  0  0  0  0  0  0  0  0  0  0
   28.7692  -18.9064   -4.6613 C   0  0  0  0  0  0  0  0  0  0  0  0
   29.5388  -19.9269   -4.1049 C   0  0  0  0  0  0  0  0  0  0  0  0
   29.7386  -21.1364   -4.7383 C   0  0  0  0  0  0  0  0  0  0  0  0
   29.1335  -21.2916   -5.9718 C   0  0  0  0  0  0  0  0  0  0  0  0
   28.3603  -20.3105   -6.5713 C   0  0  0  0  0  0  0  0  0  0  0  0
   25.2906  -21.0278   -8.7276 C   0  0  0  0  0  0  0  0  0  0  0  0
   24.6253  -19.8833   -9.0611 O   0  0  0  0  0  0  0  0  0  0  0  0
   24.9303  -21.6595   -7.6808 O   0  0  0  0  0  0  0  0  0  0  0  0
  2  1  1  6
  3  2  1  0
  4  3  1  0
  5  4  1  0
  5  6  1  0
  7  6  1  0
  8  2  1  0
  9  8  2  0
 10 11  1  0
 12 11  1  0
 12 13  1  0
 14 13  1  6
 14 15  1  0
 15  8  1  0
 16 17  2  0
 16 14  1  0
 18 16  1  0
 19 20  1  1
 19 18  1  0
 21 20  1  0
 21 22  2  0
 23 22  1  0
 24 23  1  0
 25 24  2  0
 26 25  1  0
 27 26  2  0
 27 28  1  0
 28 29  2  0
 29 24  1  0
 29 21  1  0
 30 19  1  0
 31 30  1  0
 32 30  2  0
M  END
$$$$
