KMW.pdb
     RDKit          3D

 32 33  0  0  1  0  0  0  0  0999 V2000
   28.8278  -19.9394  -17.1464 N   0  0  0  0  0  0  0  0  0  0  0  0
   29.1892  -18.6799  -16.4975 C   0  0  1  0  0  0  0  0  0  0  0  0
   28.9752  -17.5150  -17.4051 C   0  0  0  0  0  0  0  0  0  0  0  0
   29.4931  -17.7489  -18.8024 C   0  0  0  0  0  0  0  0  0  0  0  0
   28.6912  -18.6973  -19.6317 C   0  0  0  0  0  0  0  0  0  0  0  0
   29.1729  -18.9428  -21.0162 C   0  0  0  0  0  0  0  0  0  0  0  0
   29.7855  -17.7067  -21.4954 N   0  0  0  0  0  0  0  0  0  0  0  0
   28.3023  -18.5980  -15.2900 C   0  0  0  0  0  0  0  0  0  0  0  0
   28.3386  -17.5637  -14.5628 O   0  0  0  0  0  0  0  0  0  0  0  0
   21.4703  -20.1771  -12.2488 C   0  0  0  0  0  0  0  0  0  0  0  0
   22.6558  -20.4827  -13.5817 S   0  0  0  0  0  0  0  0  0  0  0  0
   23.9967  -19.2650  -13.4265 C   0  0  0  0  0  0  0  0  0  0  0  0
   25.0428  -19.4460  -14.5055 C   0  0  0  0  0  0  0  0  0  0  0  0
   26.4007  -19.5302  -13.8852 C   0  0  2  0  0  0  0  0  0  0  0  0
   27.4231  -19.6421  -14.9213 N   0  0  0  0  0  0  0  0  0  0  0  0
   26.5965  -20.5229  -12.8457 C   0  0  0  0  0  0  0  0  0  0  0  0
   26.6338  -21.7635  -13.1748 O   0  0  0  0  0  0  0  0  0  0  0  0
   26.7562  -20.2510  -11.4846 N   0  0  0  0  0  0  0  0  0  0  0  0
   26.7580  -21.3547  -10.5152 C   0  0  1  0  0  0  0  0  0  0  0  0
   27.8788  -21.1354   -9.5321 C   0  0  0  0  0  0  0  0  0  0  0  0
   27.5315  -20.2942   -8.3714 C   0  0  0  0  0  0  0  0  0  0  0  0
   26.4384  -19.5448   -8.0444 C   0  0  0  0  0  0  0  0  0  0  0  0
   26.6060  -19.0268   -6.8025 N   0  0  0  0  0  0  0  0  0  0  0  0
   27.8028  -19.4146   -6.2801 C   0  0  0  0  0  0  0  0  0  0  0  0
   28.4509  -19.1463   -5.0902 C   0  0  0  0  0  0  0  0  0  0  0  0
   29.7195  -19.6881   -4.8892 C   0  0  0  0  0  0  0  0  0  0  0  0
   30.3455  -20.4821   -5.8282 C   0  0  0  0  0  0  0  0  0  0  0  0
   29.6473  -20.7171   -6.9982 C   0  0  0  0  0  0  0  0  0  0  0  0
   28.3858  -20.2025   -7.2505 C   0  0  0  0  0  0  0  0  0  0  0  0
   25.4932  -21.2224   -9.7427 C   0  0  0  0  0  0  0  0  0  0  0  0
   24.9934  -22.2721   -9.0271 O   0  0  0  0  0  0  0  0  0  0  0  0
   24.8521  -20.1208   -9.7374 O   0  0  0  0  0  0  0  0  0  0  0  0
  2  1  1  6
  3  2  1  0
  4  3  1  0
  5  4  1  0
  5  6  1  0
  7  6  1  0
  8  2  1  0
  9  8  2  0
 10 11  1  0
 12 11  1  0
 12 13  1  0
 14 13  1  6
 14 15  1  0
 15  8  1  0
 16 17  2  0
 16 14  1  0
 18 16  1  0
 19 20  1  1
 19 18  1  0
 21 20  1  0
 21 22  2  0
 23 22  1  0
 24 23  1  0
 25 24  2  0
 26 25  1  0
 27 26  2  0
 27 28  1  0
 28 29  2  0
 29 24  1  0
 29 21  1  0
 30 19  1  0
 31 30  1  0
 32 30  2  0
M  END
$$$$
