KMW.pdb
     RDKit          3D

 32 33  0  0  1  0  0  0  0  0999 V2000
   28.9567  -24.4875  -17.7450 N   0  0  0  0  0  0  0  0  0  0  0  0
   28.8785  -23.5775  -16.6031 C   0  0  1  0  0  0  0  0  0  0  0  0
   29.6771  -22.3385  -16.8346 C   0  0  0  0  0  0  0  0  0  0  0  0
   30.7997  -22.5325  -17.8233 C   0  0  0  0  0  0  0  0  0  0  0  0
   30.4130  -22.4176  -19.2612 C   0  0  0  0  0  0  0  0  0  0  0  0
   31.5212  -22.4256  -20.2516 C   0  0  0  0  0  0  0  0  0  0  0  0
   30.9296  -22.2592  -21.5765 N   0  0  0  0  0  0  0  0  0  0  0  0
   27.4186  -23.2636  -16.4572 C   0  0  0  0  0  0  0  0  0  0  0  0
   26.8120  -22.6811  -17.4020 O   0  0  0  0  0  0  0  0  0  0  0  0
   22.8533  -27.0145  -15.7423 C   0  0  0  0  0  0  0  0  0  0  0  0
   21.8948  -25.4823  -15.8349 S   0  0  0  0  0  0  0  0  0  0  0  0
   22.9655  -24.1197  -15.2855 C   0  0  0  0  0  0  0  0  0  0  0  0
   24.4314  -24.4732  -15.4184 C   0  0  0  0  0  0  0  0  0  0  0  0
   25.2715  -23.2785  -15.0978 C   0  0  2  0  0  0  0  0  0  0  0  0
   26.6848  -23.5879  -15.2930 N   0  0  0  0  0  0  0  0  0  0  0  0
   25.0478  -22.6324  -13.8183 C   0  0  0  0  0  0  0  0  0  0  0  0
   23.8921  -22.1293  -13.5734 O   0  0  0  0  0  0  0  0  0  0  0  0
   25.9939  -22.5048  -12.7981 N   0  0  0  0  0  0  0  0  0  0  0  0
   25.6767  -21.7104  -11.6039 C   0  0  1  0  0  0  0  0  0  0  0  0
   26.9476  -21.4652  -10.8324 C   0  0  0  0  0  0  0  0  0  0  0  0
   26.8154  -20.5324   -9.6975 C   0  0  0  0  0  0  0  0  0  0  0  0
   25.7997  -19.7439   -9.2395 C   0  0  0  0  0  0  0  0  0  0  0  0
   26.1883  -19.1348   -8.0919 N   0  0  0  0  0  0  0  0  0  0  0  0
   27.4591  -19.4995   -7.7637 C   0  0  0  0  0  0  0  0  0  0  0  0
   28.3107  -19.1506   -6.7338 C   0  0  0  0  0  0  0  0  0  0  0  0
   29.5942  -19.6943   -6.7216 C   0  0  0  0  0  0  0  0  0  0  0  0
   30.0405  -20.5672   -7.6926 C   0  0  0  0  0  0  0  0  0  0  0  0
   29.1432  -20.8806   -8.6968 C   0  0  0  0  0  0  0  0  0  0  0  0
   27.8573  -20.3680   -8.7584 C   0  0  0  0  0  0  0  0  0  0  0  0
   25.2287  -20.3823  -12.1035 C   0  0  0  0  0  0  0  0  0  0  0  0
   24.1553  -19.7476  -11.5478 O   0  0  0  0  0  0  0  0  0  0  0  0
   25.8431  -19.8131  -13.0643 O   0  0  0  0  0  0  0  0  0  0  0  0
  2  1  1  6
  3  2  1  0
  4  3  1  0
  5  4  1  0
  5  6  1  0
  7  6  1  0
  8  2  1  0
  9  8  2  0
 10 11  1  0
 12 11  1  0
 12 13  1  0
 14 13  1  1
 14 15  1  0
 15  8  1  0
 16 17  2  0
 16 14  1  0
 18 16  1  0
 19 20  1  1
 19 18  1  0
 21 20  1  0
 21 22  2  0
 23 22  1  0
 24 23  1  0
 25 24  2  0
 26 25  1  0
 27 26  2  0
 27 28  1  0
 28 29  2  0
 29 24  1  0
 29 21  1  0
 30 19  1  0
 31 30  1  0
 32 30  2  0
M  END
$$$$
