FGQ.pdb
     RDKit          3D

 25 25  0  0  1  0  0  0  0  0999 V2000
   25.2803  -10.7604  -17.4024 N   0  0  0  0  0  0  0  0  0  0  0  0
   24.7774  -11.0650  -16.0768 C   0  0  1  0  0  0  0  0  0  0  0  0
   25.8991  -10.6924  -15.1036 C   0  0  0  0  0  0  0  0  0  0  0  0
   27.0721  -11.5510  -15.4269 C   0  0  0  0  0  0  0  0  0  0  0  0
   28.1729  -11.1048  -16.1134 C   0  0  0  0  0  0  0  0  0  0  0  0
   29.2416  -11.9161  -16.3990 C   0  0  0  0  0  0  0  0  0  0  0  0
   29.2211  -13.2333  -15.9857 C   0  0  0  0  0  0  0  0  0  0  0  0
   28.1450  -13.7122  -15.3016 C   0  0  0  0  0  0  0  0  0  0  0  0
   27.0724  -12.8783  -15.0209 C   0  0  0  0  0  0  0  0  0  0  0  0
   23.5743  -10.2770  -15.7447 C   0  0  0  0  0  0  0  0  0  0  0  0
   23.0190  -10.4047  -14.6332 O   0  0  0  0  0  0  0  0  0  0  0  0
   23.0440   -9.3679  -16.6932 N   0  0  0  0  0  0  0  0  0  0  0  0
   21.8753   -8.5979  -16.4654 C   0  0  0  0  0  0  0  0  0  0  0  0
   22.1344   -7.2277  -15.9013 C   0  0  0  0  0  0  0  0  0  0  0  0
   23.1056   -7.1013  -15.0906 O   0  0  0  0  0  0  0  0  0  0  0  0
   21.6962   -0.0386  -17.5646 N   0  0  0  0  0  0  0  0  0  0  0  0
   21.5657   -1.4414  -17.7047 C   0  0  0  0  0  0  0  0  0  0  0  0
   21.3282   -1.9112  -18.8355 O   0  0  0  0  0  0  0  0  0  0  0  0
   21.7206   -2.3002  -16.4775 C   0  0  0  0  0  0  0  0  0  0  0  0
   21.4937   -3.7029  -16.9065 C   0  0  0  0  0  0  0  0  0  0  0  0
   21.5913   -4.7343  -15.7992 C   0  0  2  0  0  0  0  0  0  0  0  0
   21.3699   -6.0944  -16.2227 N   0  0  0  0  0  0  0  0  0  0  0  0
   20.5631   -4.4140  -14.8015 C   0  0  0  0  0  0  0  0  0  0  0  0
   20.7504   -3.4680  -13.7986 O   0  0  0  0  0  0  0  0  0  0  0  0
   19.4612   -5.0041  -14.8332 O   0  0  0  0  0  0  0  0  0  0  0  0
  2  1  1  6
  2 10  1  0
  3  2  1  0
  4  9  2  0
  4  3  1  0
  5  4  1  0
  6  7  1  0
  6  5  2  0
  7  8  2  0
  8  9  1  0
 10 11  2  0
 12 10  1  0
 12 13  1  0
 14 13  1  0
 14 15  2  0
 16 17  1  0
 17 19  1  0
 18 17  2  0
 19 20  1  0
 21 20  1  6
 21 23  1  0
 22 21  1  0
 22 14  1  0
 23 25  2  0
 23 24  1  0
M  END
$$$$
