FGQ.pdb
     RDKit          3D

 25 25  0  0  1  0  0  0  0  0999 V2000
   26.0862  -20.8210   -7.5269 N   0  0  0  0  0  0  0  0  0  0  0  0
   27.1106  -20.2356   -8.3700 C   0  0  1  0  0  0  0  0  0  0  0  0
   28.4477  -20.7475   -7.8274 C   0  0  0  0  0  0  0  0  0  0  0  0
   28.6632  -20.1081   -6.4999 C   0  0  0  0  0  0  0  0  0  0  0  0
   28.6345  -20.7954   -5.3128 C   0  0  0  0  0  0  0  0  0  0  0  0
   28.8362  -20.1830   -4.1020 C   0  0  0  0  0  0  0  0  0  0  0  0
   29.0783  -18.8242   -4.0626 C   0  0  0  0  0  0  0  0  0  0  0  0
   29.1143  -18.1084   -5.2209 C   0  0  0  0  0  0  0  0  0  0  0  0
   28.9082  -18.7433   -6.4371 C   0  0  0  0  0  0  0  0  0  0  0  0
   26.9751  -20.6525   -9.7794 C   0  0  0  0  0  0  0  0  0  0  0  0
   27.7925  -20.2603  -10.6385 O   0  0  0  0  0  0  0  0  0  0  0  0
   25.9097  -21.5043  -10.1624 N   0  0  0  0  0  0  0  0  0  0  0  0
   25.5317  -21.7206  -11.5118 C   0  0  0  0  0  0  0  0  0  0  0  0
   24.3365  -20.9235  -11.9575 C   0  0  0  0  0  0  0  0  0  0  0  0
   24.1313  -19.8057  -11.3873 O   0  0  0  0  0  0  0  0  0  0  0  0
   21.0785  -23.7389  -15.8585 N   0  0  0  0  0  0  0  0  0  0  0  0
   21.7026  -22.5902  -16.4019 C   0  0  0  0  0  0  0  0  0  0  0  0
   21.2713  -22.1254  -17.4761 O   0  0  0  0  0  0  0  0  0  0  0  0
   22.8603  -21.9838  -15.6538 C   0  0  0  0  0  0  0  0  0  0  0  0
   22.3870  -20.6843  -15.1151 C   0  0  0  0  0  0  0  0  0  0  0  0
   22.4159  -20.5697  -13.6033 C   0  0  2  0  0  0  0  0  0  0  0  0
   23.4485  -21.3439  -12.9609 N   0  0  0  0  0  0  0  0  0  0  0  0
   21.1263  -21.0544  -13.0960 C   0  0  0  0  0  0  0  0  0  0  0  0
   19.9449  -20.3294  -13.2166 O   0  0  0  0  0  0  0  0  0  0  0  0
   21.0605  -22.1654  -12.5263 O   0  0  0  0  0  0  0  0  0  0  0  0
  2  1  1  1
  2 10  1  0
  3  2  1  0
  4  9  2  0
  4  3  1  0
  5  4  1  0
  6  7  1  0
  6  5  2  0
  7  8  2  0
  8  9  1  0
 10 11  2  0
 12 10  1  0
 12 13  1  0
 14 13  1  0
 14 15  2  0
 16 17  1  0
 17 19  1  0
 18 17  2  0
 19 20  1  0
 21 20  1  6
 21 23  1  0
 22 21  1  0
 22 14  1  0
 23 25  2  0
 23 24  1  0
M  END
$$$$
