FGQ.pdb
     RDKit          3D

 25 25  0  0  1  0  0  0  0  0999 V2000
   18.9493  -16.0901  -16.2213 N   0  0  0  0  0  0  0  0  0  0  0  0
   18.6663  -14.9808  -17.1114 C   0  0  1  0  0  0  0  0  0  0  0  0
   17.2309  -14.5468  -16.8023 C   0  0  0  0  0  0  0  0  0  0  0  0
   16.3237  -15.6069  -17.3229 C   0  0  0  0  0  0  0  0  0  0  0  0
   15.8024  -16.6092  -16.5445 C   0  0  0  0  0  0  0  0  0  0  0  0
   14.9683  -17.5748  -17.0483 C   0  0  0  0  0  0  0  0  0  0  0  0
   14.6331  -17.5484  -18.3874 C   0  0  0  0  0  0  0  0  0  0  0  0
   15.1314  -16.5684  -19.1915 C   0  0  0  0  0  0  0  0  0  0  0  0
   15.9737  -15.5994  -18.6661 C   0  0  0  0  0  0  0  0  0  0  0  0
   19.5718  -13.8382  -16.8803 C   0  0  0  0  0  0  0  0  0  0  0  0
   20.1386  -13.6909  -15.7771 O   0  0  0  0  0  0  0  0  0  0  0  0
   19.8008  -12.9003  -17.9171 N   0  0  0  0  0  0  0  0  0  0  0  0
   20.6259  -11.7572  -17.7653 C   0  0  0  0  0  0  0  0  0  0  0  0
   20.0807  -10.7180  -16.8243 C   0  0  0  0  0  0  0  0  0  0  0  0
   18.9500  -10.9466  -16.2897 O   0  0  0  0  0  0  0  0  0  0  0  0
   21.9190   -4.2739  -13.4049 N   0  0  0  0  0  0  0  0  0  0  0  0
   22.0876   -5.4188  -14.2205 C   0  0  0  0  0  0  0  0  0  0  0  0
   23.1728   -5.5766  -14.8150 O   0  0  0  0  0  0  0  0  0  0  0  0
   20.9446   -6.3930  -14.3307 C   0  0  0  0  0  0  0  0  0  0  0  0
   21.3767   -7.4531  -15.2754 C   0  0  0  0  0  0  0  0  0  0  0  0
   20.3163   -8.4849  -15.6078 C   0  0  2  0  0  0  0  0  0  0  0  0
   20.7495   -9.5245  -16.5076 N   0  0  0  0  0  0  0  0  0  0  0  0
   19.2009   -7.7832  -16.2550 C   0  0  0  0  0  0  0  0  0  0  0  0
   18.1955   -7.1392  -15.5407 O   0  0  0  0  0  0  0  0  0  0  0  0
   19.1286   -7.7486  -17.5028 O   0  0  0  0  0  0  0  0  0  0  0  0
  2  1  1  1
  2 10  1  0
  3  2  1  0
  4  9  2  0
  4  3  1  0
  5  4  1  0
  6  7  1  0
  6  5  2  0
  7  8  2  0
  8  9  1  0
 10 11  2  0
 12 10  1  0
 12 13  1  0
 14 13  1  0
 14 15  2  0
 16 17  1  0
 17 19  1  0
 18 17  2  0
 19 20  1  0
 21 20  1  6
 21 23  1  0
 22 21  1  0
 22 14  1  0
 23 25  2  0
 23 24  1  0
M  END
$$$$
