FGQ.pdb
     RDKit          3D

 25 25  0  0  1  0  0  0  0  0999 V2000
   26.5663  -17.9737  -18.7556 N   0  0  0  0  0  0  0  0  0  0  0  0
   25.1284  -18.0219  -18.5741 C   0  0  1  0  0  0  0  0  0  0  0  0
   24.6604  -19.3135  -19.2501 C   0  0  0  0  0  0  0  0  0  0  0  0
   24.5680  -19.0426  -20.7116 C   0  0  0  0  0  0  0  0  0  0  0  0
   23.5465  -18.3313  -21.2884 C   0  0  0  0  0  0  0  0  0  0  0  0
   23.4840  -18.0950  -22.6383 C   0  0  0  0  0  0  0  0  0  0  0  0
   24.4803  -18.5860  -23.4583 C   0  0  0  0  0  0  0  0  0  0  0  0
   25.5108  -19.2969  -22.9215 C   0  0  0  0  0  0  0  0  0  0  0  0
   25.5588  -19.5269  -21.5543 C   0  0  0  0  0  0  0  0  0  0  0  0
   24.7496  -18.0639  -17.1481 C   0  0  0  0  0  0  0  0  0  0  0  0
   25.6266  -18.0892  -16.2591 O   0  0  0  0  0  0  0  0  0  0  0  0
   23.3806  -18.0756  -16.7832 N   0  0  0  0  0  0  0  0  0  0  0  0
   22.9309  -17.9716  -15.4426 C   0  0  0  0  0  0  0  0  0  0  0  0
   22.9967  -19.2568  -14.6638 C   0  0  0  0  0  0  0  0  0  0  0  0
   22.9315  -20.3440  -15.3198 O   0  0  0  0  0  0  0  0  0  0  0  0
   26.2014  -20.2654  -11.4271 N   0  0  0  0  0  0  0  0  0  0  0  0
   25.7078  -21.3716  -10.6945 C   0  0  0  0  0  0  0  0  0  0  0  0
   26.4953  -22.2913  -10.3945 O   0  0  0  0  0  0  0  0  0  0  0  0
   24.2513  -21.3838  -10.3121 C   0  0  0  0  0  0  0  0  0  0  0  0
   23.6187  -20.2328  -11.0036 C   0  0  0  0  0  0  0  0  0  0  0  0
   23.2110  -20.4950  -12.4404 C   0  0  2  0  0  0  0  0  0  0  0  0
   23.1280  -19.3168  -13.2669 N   0  0  0  0  0  0  0  0  0  0  0  0
   21.8776  -21.1089  -12.4191 C   0  0  0  0  0  0  0  0  0  0  0  0
   21.6785  -22.4832  -12.3322 O   0  0  0  0  0  0  0  0  0  0  0  0
   20.8594  -20.3858  -12.4805 O   0  0  0  0  0  0  0  0  0  0  0  0
  2  1  1  1
  2 10  1  0
  3  2  1  0
  4  9  2  0
  4  3  1  0
  5  4  1  0
  6  7  1  0
  6  5  2  0
  7  8  2  0
  8  9  1  0
 10 11  2  0
 12 10  1  0
 12 13  1  0
 14 13  1  0
 14 15  2  0
 16 17  1  0
 17 19  1  0
 18 17  2  0
 19 20  1  0
 21 20  1  1
 21 23  1  0
 22 21  1  0
 22 14  1  0
 23 25  2  0
 23 24  1  0
M  END
$$$$
