FGQ.pdb
     RDKit          3D

 25 25  0  0  1  0  0  0  0  0999 V2000
   23.4856  -32.6827    4.0366 N   0  0  0  0  0  0  0  0  0  0  0  0
   23.8503  -31.8823    2.8836 C   0  0  1  0  0  0  0  0  0  0  0  0
   24.6730  -30.7105    3.4261 C   0  0  0  0  0  0  0  0  0  0  0  0
   23.7181  -29.7320    4.0163 C   0  0  0  0  0  0  0  0  0  0  0  0
   22.9998  -28.8297    3.2732 C   0  0  0  0  0  0  0  0  0  0  0  0
   22.1257  -27.9378    3.8410 C   0  0  0  0  0  0  0  0  0  0  0  0
   21.9531  -27.9379    5.2108 C   0  0  0  0  0  0  0  0  0  0  0  0
   22.6491  -28.8193    5.9815 C   0  0  0  0  0  0  0  0  0  0  0  0
   23.5292  -29.7147    5.3913 C   0  0  0  0  0  0  0  0  0  0  0  0
   24.6733  -32.6391    1.9200 C   0  0  0  0  0  0  0  0  0  0  0  0
   25.1492  -32.0757    0.9120 O   0  0  0  0  0  0  0  0  0  0  0  0
   24.9264  -34.0158    2.1389 N   0  0  0  0  0  0  0  0  0  0  0  0
   25.6853  -34.8192    1.2505 C   0  0  0  0  0  0  0  0  0  0  0  0
   27.1396  -34.9437    1.6139 C   0  0  0  0  0  0  0  0  0  0  0  0
   27.5981  -34.1366    2.4828 O   0  0  0  0  0  0  0  0  0  0  0  0
   32.2679  -39.9535    3.0328 N   0  0  0  0  0  0  0  0  0  0  0  0
   31.0607  -39.4100    2.5313 C   0  0  0  0  0  0  0  0  0  0  0  0
   30.0915  -40.1729    2.3458 O   0  0  0  0  0  0  0  0  0  0  0  0
   31.0059  -37.9325    2.2454 C   0  0  0  0  0  0  0  0  0  0  0  0
   29.6339  -37.6423    1.7591 C   0  0  0  0  0  0  0  0  0  0  0  0
   29.3643  -36.1853    1.4366 C   0  0  2  0  0  0  0  0  0  0  0  0
   28.0055  -35.8957    1.0518 N   0  0  0  0  0  0  0  0  0  0  0  0
   30.2270  -35.8128    0.3086 C   0  0  0  0  0  0  0  0  0  0  0  0
   31.6135  -35.7478    0.4055 O   0  0  0  0  0  0  0  0  0  0  0  0
   29.7171  -35.5369   -0.7992 O   0  0  0  0  0  0  0  0  0  0  0  0
  2  1  1  1
  2 10  1  0
  3  2  1  0
  4  9  2  0
  4  3  1  0
  5  4  1  0
  6  7  1  0
  6  5  2  0
  7  8  2  0
  8  9  1  0
 10 11  2  0
 12 10  1  0
 12 13  1  0
 14 13  1  0
 14 15  2  0
 16 17  1  0
 17 19  1  0
 18 17  2  0
 19 20  1  0
 21 20  1  6
 21 23  1  0
 22 21  1  0
 22 14  1  0
 23 25  2  0
 23 24  1  0
M  END
$$$$
