FGQ.pdb
     RDKit          3D

 25 25  0  0  1  0  0  0  0  0999 V2000
   20.3740  -20.0749  -15.7594 N   0  0  0  0  0  0  0  0  0  0  0  0
   21.2790  -19.9407  -14.6343 C   0  0  1  0  0  0  0  0  0  0  0  0
   21.9003  -18.5465  -14.7559 C   0  0  0  0  0  0  0  0  0  0  0  0
   22.7507  -18.5436  -15.9784 C   0  0  0  0  0  0  0  0  0  0  0  0
   23.9553  -19.1943  -16.0664 C   0  0  0  0  0  0  0  0  0  0  0  0
   24.7207  -19.1765  -17.2047 C   0  0  0  0  0  0  0  0  0  0  0  0
   24.2733  -18.4811  -18.3104 C   0  0  0  0  0  0  0  0  0  0  0  0
   23.0820  -17.8227  -18.2605 C   0  0  0  0  0  0  0  0  0  0  0  0
   22.3202  -17.8509  -17.1014 C   0  0  0  0  0  0  0  0  0  0  0  0
   20.5753  -20.0396  -13.3406 C   0  0  0  0  0  0  0  0  0  0  0  0
   19.4418  -19.5357  -13.1946 O   0  0  0  0  0  0  0  0  0  0  0  0
   21.1892  -20.7114  -12.2546 N   0  0  0  0  0  0  0  0  0  0  0  0
   20.6138  -20.7890  -10.9610 C   0  0  0  0  0  0  0  0  0  0  0  0
   19.6189  -21.9041  -10.7895 C   0  0  0  0  0  0  0  0  0  0  0  0
   19.4444  -22.6907  -11.7731 O   0  0  0  0  0  0  0  0  0  0  0  0
   18.7026  -25.9649   -5.2456 N   0  0  0  0  0  0  0  0  0  0  0  0
   18.7393  -24.8178   -6.0746 C   0  0  0  0  0  0  0  0  0  0  0  0
   19.3123  -23.7927   -5.6544 O   0  0  0  0  0  0  0  0  0  0  0  0
   18.0824  -24.8920   -7.4276 C   0  0  0  0  0  0  0  0  0  0  0  0
   17.7992  -23.4952   -7.8420 C   0  0  0  0  0  0  0  0  0  0  0  0
   17.9927  -23.2144   -9.3196 C   0  0  2  0  0  0  0  0  0  0  0  0
   18.8844  -22.1201   -9.6124 N   0  0  0  0  0  0  0  0  0  0  0  0
   16.6808  -22.8722   -9.8825 C   0  0  0  0  0  0  0  0  0  0  0  0
   15.8615  -23.8034  -10.5130 O   0  0  0  0  0  0  0  0  0  0  0  0
   16.2582  -21.6980   -9.8045 O   0  0  0  0  0  0  0  0  0  0  0  0
  2  1  1  6
  2 10  1  0
  3  2  1  0
  4  9  2  0
  4  3  1  0
  5  4  1  0
  6  7  1  0
  6  5  2  0
  7  8  2  0
  8  9  1  0
 10 11  2  0
 12 10  1  0
 12 13  1  0
 14 13  1  0
 14 15  2  0
 16 17  1  0
 17 19  1  0
 18 17  2  0
 19 20  1  0
 21 20  1  1
 21 23  1  0
 22 21  1  0
 22 14  1  0
 23 25  2  0
 23 24  1  0
M  END
$$$$
