FGQ.pdb
     RDKit          3D

 25 25  0  0  1  0  0  0  0  0999 V2000
   30.8383   -9.9165  -17.8865 N   0  0  0  0  0  0  0  0  0  0  0  0
   30.5150   -8.5120  -18.0473 C   0  0  1  0  0  0  0  0  0  0  0  0
   31.8368   -7.8081  -18.3660 C   0  0  0  0  0  0  0  0  0  0  0  0
   32.6220   -7.7426  -17.1023 C   0  0  0  0  0  0  0  0  0  0  0  0
   32.4454   -6.7723  -16.1486 C   0  0  0  0  0  0  0  0  0  0  0  0
   33.1819   -6.7337  -14.9918 C   0  0  0  0  0  0  0  0  0  0  0  0
   34.1401   -7.7020  -14.7668 C   0  0  0  0  0  0  0  0  0  0  0  0
   34.3438   -8.6815  -15.6911 C   0  0  0  0  0  0  0  0  0  0  0  0
   33.5903   -8.7060  -16.8557 C   0  0  0  0  0  0  0  0  0  0  0  0
   29.5710   -8.2831  -19.1587 C   0  0  0  0  0  0  0  0  0  0  0  0
   29.0248   -9.2467  -19.7360 O   0  0  0  0  0  0  0  0  0  0  0  0
   29.2812   -6.9603  -19.5753 N   0  0  0  0  0  0  0  0  0  0  0  0
   28.3150   -6.6494  -20.5654 C   0  0  0  0  0  0  0  0  0  0  0  0
   27.2562   -5.6795  -20.1173 C   0  0  0  0  0  0  0  0  0  0  0  0
   27.1285   -5.4870  -18.8670 O   0  0  0  0  0  0  0  0  0  0  0  0
   22.0723   -3.4822  -21.0087 N   0  0  0  0  0  0  0  0  0  0  0  0
   22.2216   -4.8498  -21.3426 C   0  0  0  0  0  0  0  0  0  0  0  0
   21.3742   -5.3806  -22.0884 O   0  0  0  0  0  0  0  0  0  0  0  0
   23.4000   -5.5991  -20.7792 C   0  0  0  0  0  0  0  0  0  0  0  0
   24.1749   -4.6280  -19.9671 C   0  0  0  0  0  0  0  0  0  0  0  0
   25.3829   -4.0318  -20.6634 C   0  0  2  0  0  0  0  0  0  0  0  0
   26.4140   -4.9819  -20.9984 N   0  0  0  0  0  0  0  0  0  0  0  0
   25.9771   -3.0438  -19.7544 C   0  0  0  0  0  0  0  0  0  0  0  0
   26.2089   -3.2988  -18.4064 O   0  0  0  0  0  0  0  0  0  0  0  0
   26.2979   -1.9154  -20.1869 O   0  0  0  0  0  0  0  0  0  0  0  0
  2  1  1  6
  2 10  1  0
  3  2  1  0
  4  9  2  0
  4  3  1  0
  5  4  1  0
  6  7  1  0
  6  5  2  0
  7  8  2  0
  8  9  1  0
 10 11  2  0
 12 10  1  0
 12 13  1  0
 14 13  1  0
 14 15  2  0
 16 17  1  0
 17 19  1  0
 18 17  2  0
 19 20  1  0
 21 20  1  1
 21 23  1  0
 22 21  1  0
 22 14  1  0
 23 25  2  0
 23 24  1  0
M  END
$$$$
