FGQ.pdb
     RDKit          3D

 25 25  0  0  1  0  0  0  0  0999 V2000
   24.2011  -14.1549  -17.6593 N   0  0  0  0  0  0  0  0  0  0  0  0
   25.0448  -13.1744  -17.0038 C   0  0  1  0  0  0  0  0  0  0  0  0
   26.4873  -13.6162  -17.2653 C   0  0  0  0  0  0  0  0  0  0  0  0
   26.6613  -14.9580  -16.6434 C   0  0  0  0  0  0  0  0  0  0  0  0
   26.5593  -15.1885  -15.2948 C   0  0  0  0  0  0  0  0  0  0  0  0
   26.7240  -16.4349  -14.7460 C   0  0  0  0  0  0  0  0  0  0  0  0
   27.0033  -17.5063  -15.5709 C   0  0  0  0  0  0  0  0  0  0  0  0
   27.1121  -17.3161  -16.9153 C   0  0  0  0  0  0  0  0  0  0  0  0
   26.9426  -16.0490  -17.4541 C   0  0  0  0  0  0  0  0  0  0  0  0
   24.8522  -11.8187  -17.5550 C   0  0  0  0  0  0  0  0  0  0  0  0
   25.5758  -10.8724  -17.1796 O   0  0  0  0  0  0  0  0  0  0  0  0
   23.8389  -11.5875  -18.5178 N   0  0  0  0  0  0  0  0  0  0  0  0
   23.5138  -10.2991  -19.0126 C   0  0  0  0  0  0  0  0  0  0  0  0
   22.3415   -9.6491  -18.3301 C   0  0  0  0  0  0  0  0  0  0  0  0
   21.3297  -10.3779  -18.0816 O   0  0  0  0  0  0  0  0  0  0  0  0
   21.4386   -7.3046  -13.1842 N   0  0  0  0  0  0  0  0  0  0  0  0
   21.0002   -8.5757  -13.6274 C   0  0  0  0  0  0  0  0  0  0  0  0
   20.7541   -9.4547  -12.7773 O   0  0  0  0  0  0  0  0  0  0  0  0
   20.8520   -8.8048  -15.1083 C   0  0  0  0  0  0  0  0  0  0  0  0
   21.3327   -7.5723  -15.7813 C   0  0  0  0  0  0  0  0  0  0  0  0
   21.2386   -7.5914  -17.2947 C   0  0  2  0  0  0  0  0  0  0  0  0
   22.3088   -8.2962  -17.9552 N   0  0  0  0  0  0  0  0  0  0  0  0
   21.2788   -6.1997  -17.7602 C   0  0  0  0  0  0  0  0  0  0  0  0
   22.2744   -5.7110  -18.6002 O   0  0  0  0  0  0  0  0  0  0  0  0
   20.3897   -5.3978  -17.3995 O   0  0  0  0  0  0  0  0  0  0  0  0
  2  1  1  6
  2 10  1  0
  3  2  1  0
  4  9  2  0
  4  3  1  0
  5  4  1  0
  6  7  1  0
  6  5  2  0
  7  8  2  0
  8  9  1  0
 10 11  2  0
 12 10  1  0
 12 13  1  0
 14 13  1  0
 14 15  2  0
 16 17  1  0
 17 19  1  0
 18 17  2  0
 19 20  1  0
 21 20  1  1
 21 23  1  0
 22 21  1  0
 22 14  1  0
 23 25  2  0
 23 24  1  0
M  END
$$$$
