FGQ.pdb
     RDKit          3D

 25 25  0  0  1  0  0  0  0  0999 V2000
   25.4603  -20.8869   -8.3541 N   0  0  0  0  0  0  0  0  0  0  0  0
   26.7385  -20.2353   -8.5653 C   0  0  1  0  0  0  0  0  0  0  0  0
   27.7634  -21.0476   -7.7691 C   0  0  0  0  0  0  0  0  0  0  0  0
   27.7794  -20.5062   -6.3819 C   0  0  0  0  0  0  0  0  0  0  0  0
   27.7708  -21.2949   -5.2593 C   0  0  0  0  0  0  0  0  0  0  0  0
   27.7859  -20.7715   -3.9913 C   0  0  0  0  0  0  0  0  0  0  0  0
   27.8108  -19.4012   -3.8248 C   0  0  0  0  0  0  0  0  0  0  0  0
   27.8200  -18.5860   -4.9160 C   0  0  0  0  0  0  0  0  0  0  0  0
   27.8045  -19.1316   -6.1915 C   0  0  0  0  0  0  0  0  0  0  0  0
   27.1317  -20.2319   -9.9880 C   0  0  0  0  0  0  0  0  0  0  0  0
   28.2471  -19.7913  -10.3370 O   0  0  0  0  0  0  0  0  0  0  0  0
   26.2378  -20.7322  -10.9668 N   0  0  0  0  0  0  0  0  0  0  0  0
   26.5218  -20.7278  -12.3560 C   0  0  0  0  0  0  0  0  0  0  0  0
   25.4463  -21.3387  -13.2119 C   0  0  0  0  0  0  0  0  0  0  0  0
   25.6572  -22.5035  -13.6761 O   0  0  0  0  0  0  0  0  0  0  0  0
   20.4622  -21.1159  -10.8825 N   0  0  0  0  0  0  0  0  0  0  0  0
   19.9619  -21.9446  -11.9157 C   0  0  0  0  0  0  0  0  0  0  0  0
   18.7346  -22.1606  -11.9693 O   0  0  0  0  0  0  0  0  0  0  0  0
   20.9394  -22.5264  -12.9024 C   0  0  0  0  0  0  0  0  0  0  0  0
   22.2581  -21.9106  -12.6109 C   0  0  0  0  0  0  0  0  0  0  0  0
   22.9640  -21.3116  -13.8118 C   0  0  2  0  0  0  0  0  0  0  0  0
   24.2349  -20.6978  -13.5183 N   0  0  0  0  0  0  0  0  0  0  0  0
   22.0919  -20.2684  -14.3653 C   0  0  0  0  0  0  0  0  0  0  0  0
   21.0744  -20.5368  -15.2755 O   0  0  0  0  0  0  0  0  0  0  0  0
   22.2505  -19.0775  -14.0189 O   0  0  0  0  0  0  0  0  0  0  0  0
  2  1  1  6
  2 10  1  0
  3  2  1  0
  4  9  2  0
  4  3  1  0
  5  4  1  0
  6  7  1  0
  6  5  2  0
  7  8  2  0
  8  9  1  0
 10 11  2  0
 12 10  1  0
 12 13  1  0
 14 13  1  0
 14 15  2  0
 16 17  1  0
 17 19  1  0
 18 17  2  0
 19 20  1  0
 21 20  1  1
 21 23  1  0
 22 21  1  0
 22 14  1  0
 23 25  2  0
 23 24  1  0
M  END
$$$$
