FGQ.pdb
     RDKit          3D

 25 25  0  0  1  0  0  0  0  0999 V2000
   26.1921  -21.2702   -6.7488 N   0  0  0  0  0  0  0  0  0  0  0  0
   26.4927  -20.4466   -7.9039 C   0  0  1  0  0  0  0  0  0  0  0  0
   27.9982  -20.1731   -7.8473 C   0  0  0  0  0  0  0  0  0  0  0  0
   28.3024  -19.6370   -6.4917 C   0  0  0  0  0  0  0  0  0  0  0  0
   28.7269  -20.4160   -5.4452 C   0  0  0  0  0  0  0  0  0  0  0  0
   29.0008  -19.8978   -4.2049 C   0  0  0  0  0  0  0  0  0  0  0  0
   28.8475  -18.5428   -3.9885 C   0  0  0  0  0  0  0  0  0  0  0  0
   28.4277  -17.7376   -5.0037 C   0  0  0  0  0  0  0  0  0  0  0  0
   28.1550  -18.2778   -6.2521 C   0  0  0  0  0  0  0  0  0  0  0  0
   26.1785  -21.1330   -9.1723 C   0  0  0  0  0  0  0  0  0  0  0  0
   26.4774  -22.3348   -9.3344 O   0  0  0  0  0  0  0  0  0  0  0  0
   25.5326  -20.4241  -10.2152 N   0  0  0  0  0  0  0  0  0  0  0  0
   24.6049  -21.0221  -11.1053 C   0  0  0  0  0  0  0  0  0  0  0  0
   24.0630  -20.0914  -12.1555 C   0  0  0  0  0  0  0  0  0  0  0  0
   24.1197  -18.8435  -11.9187 O   0  0  0  0  0  0  0  0  0  0  0  0
   22.2430  -22.2955  -17.4409 N   0  0  0  0  0  0  0  0  0  0  0  0
   21.2664  -22.5141  -16.4395 C   0  0  0  0  0  0  0  0  0  0  0  0
   20.5094  -23.4998  -16.5457 O   0  0  0  0  0  0  0  0  0  0  0  0
   21.1892  -21.5426  -15.2916 C   0  0  0  0  0  0  0  0  0  0  0  0
   22.2483  -20.5279  -15.5190 C   0  0  0  0  0  0  0  0  0  0  0  0
   22.6837  -19.7689  -14.2805 C   0  0  2  0  0  0  0  0  0  0  0  0
   23.5075  -20.5246  -13.3703 N   0  0  0  0  0  0  0  0  0  0  0  0
   21.4718  -19.3766  -13.5506 C   0  0  0  0  0  0  0  0  0  0  0  0
   20.7119  -18.2615  -13.8895 O   0  0  0  0  0  0  0  0  0  0  0  0
   21.0844  -20.0589  -12.5771 O   0  0  0  0  0  0  0  0  0  0  0  0
  2  1  1  1
  2 10  1  0
  3  2  1  0
  4  9  2  0
  4  3  1  0
  5  4  1  0
  6  7  1  0
  6  5  2  0
  7  8  2  0
  8  9  1  0
 10 11  2  0
 12 10  1  0
 12 13  1  0
 14 13  1  0
 14 15  2  0
 16 17  1  0
 17 19  1  0
 18 17  2  0
 19 20  1  0
 21 20  1  6
 21 23  1  0
 22 21  1  0
 22 14  1  0
 23 25  2  0
 23 24  1  0
M  END
$$$$
