FGQ.pdb
     RDKit          3D

 25 25  0  0  1  0  0  0  0  0999 V2000
   24.2522  -19.2321  -16.0012 N   0  0  0  0  0  0  0  0  0  0  0  0
   25.4213  -18.4470  -16.3473 C   0  0  1  0  0  0  0  0  0  0  0  0
   24.9428  -16.9956  -16.4410 C   0  0  0  0  0  0  0  0  0  0  0  0
   24.0556  -16.8957  -17.6329 C   0  0  0  0  0  0  0  0  0  0  0  0
   24.4832  -17.1153  -18.9178 C   0  0  0  0  0  0  0  0  0  0  0  0
   23.6457  -17.0170  -19.9998 C   0  0  0  0  0  0  0  0  0  0  0  0
   22.3202  -16.6853  -19.8019 C   0  0  0  0  0  0  0  0  0  0  0  0
   21.8591  -16.4598  -18.5402 C   0  0  0  0  0  0  0  0  0  0  0  0
   22.7195  -16.5634  -17.4568 C   0  0  0  0  0  0  0  0  0  0  0  0
   26.4757  -18.5376  -15.3184 C   0  0  0  0  0  0  0  0  0  0  0  0
   27.6230  -18.0989  -15.5451 O   0  0  0  0  0  0  0  0  0  0  0  0
   26.1857  -19.1268  -14.0630 N   0  0  0  0  0  0  0  0  0  0  0  0
   27.1231  -19.2000  -13.0016 C   0  0  0  0  0  0  0  0  0  0  0  0
   26.8538  -20.2981  -12.0096 C   0  0  0  0  0  0  0  0  0  0  0  0
   26.6827  -21.4722  -12.4665 O   0  0  0  0  0  0  0  0  0  0  0  0
   28.8960  -19.3707   -5.7941 N   0  0  0  0  0  0  0  0  0  0  0  0
   27.6854  -19.5077   -6.5151 C   0  0  0  0  0  0  0  0  0  0  0  0
   26.6649  -18.9314   -6.0880 O   0  0  0  0  0  0  0  0  0  0  0  0
   27.6891  -20.3453   -7.7665 C   0  0  0  0  0  0  0  0  0  0  0  0
   26.2771  -20.4563   -8.2103 C   0  0  0  0  0  0  0  0  0  0  0  0
   26.0914  -20.9013   -9.6480 C   0  0  2  0  0  0  0  0  0  0  0  0
   26.7856  -20.0961  -10.6215 N   0  0  0  0  0  0  0  0  0  0  0  0
   24.6582  -20.8215   -9.9563 C   0  0  0  0  0  0  0  0  0  0  0  0
   24.1159  -19.8458  -10.7867 O   0  0  0  0  0  0  0  0  0  0  0  0
   23.8689  -21.6563   -9.4628 O   0  0  0  0  0  0  0  0  0  0  0  0
  2  1  1  1
  2 10  1  0
  3  2  1  0
  4  9  2  0
  4  3  1  0
  5  4  1  0
  6  7  1  0
  6  5  2  0
  7  8  2  0
  8  9  1  0
 10 11  2  0
 12 10  1  0
 12 13  1  0
 14 13  1  0
 14 15  2  0
 16 17  1  0
 17 19  1  0
 18 17  2  0
 19 20  1  0
 21 20  1  1
 21 23  1  0
 22 21  1  0
 22 14  1  0
 23 25  2  0
 23 24  1  0
M  END
$$$$
