FGQ.pdb
     RDKit          3D

 25 25  0  0  1  0  0  0  0  0999 V2000
   19.7659   -5.8316  -16.8847 N   0  0  0  0  0  0  0  0  0  0  0  0
   20.1968   -7.2106  -17.0099 C   0  0  1  0  0  0  0  0  0  0  0  0
   21.6868   -7.2212  -16.6578 C   0  0  0  0  0  0  0  0  0  0  0  0
   21.8573   -6.4111  -15.4200 C   0  0  0  0  0  0  0  0  0  0  0  0
   22.1233   -5.0652  -15.4245 C   0  0  0  0  0  0  0  0  0  0  0  0
   22.2762   -4.3407  -14.2696 C   0  0  0  0  0  0  0  0  0  0  0  0
   22.1603   -4.9780  -13.0503 C   0  0  0  0  0  0  0  0  0  0  0  0
   21.8966   -6.3136  -13.0061 C   0  0  0  0  0  0  0  0  0  0  0  0
   21.7449   -7.0315  -14.1835 C   0  0  0  0  0  0  0  0  0  0  0  0
   19.4789   -8.1034  -16.0792 C   0  0  0  0  0  0  0  0  0  0  0  0
   18.9974   -7.6575  -15.0164 O   0  0  0  0  0  0  0  0  0  0  0  0
   19.3340   -9.4775  -16.3924 N   0  0  0  0  0  0  0  0  0  0  0  0
   18.7107  -10.4122  -15.5272 C   0  0  0  0  0  0  0  0  0  0  0  0
   18.5622  -11.7922  -16.1070 C   0  0  0  0  0  0  0  0  0  0  0  0
   18.8899  -11.9551  -17.3246 O   0  0  0  0  0  0  0  0  0  0  0  0
   18.7815  -16.9866  -12.8667 N   0  0  0  0  0  0  0  0  0  0  0  0
   18.4328  -17.5992  -14.0944 C   0  0  0  0  0  0  0  0  0  0  0  0
   18.4200  -18.8447  -14.1604 O   0  0  0  0  0  0  0  0  0  0  0  0
   18.0934  -16.7140  -15.2644 C   0  0  0  0  0  0  0  0  0  0  0  0
   18.2637  -15.3133  -14.8037 C   0  0  0  0  0  0  0  0  0  0  0  0
   17.9408  -14.2550  -15.8406 C   0  0  2  0  0  0  0  0  0  0  0  0
   18.0889  -12.8968  -15.3804 N   0  0  0  0  0  0  0  0  0  0  0  0
   16.5379  -14.4326  -16.2351 C   0  0  0  0  0  0  0  0  0  0  0  0
   16.1524  -15.1771  -17.3453 O   0  0  0  0  0  0  0  0  0  0  0  0
   15.6302  -13.9008  -15.5592 O   0  0  0  0  0  0  0  0  0  0  0  0
  2  1  1  1
  2 10  1  0
  3  2  1  0
  4  9  2  0
  4  3  1  0
  5  4  1  0
  6  7  1  0
  6  5  2  0
  7  8  2  0
  8  9  1  0
 10 11  2  0
 12 10  1  0
 12 13  1  0
 14 13  1  0
 14 15  2  0
 16 17  1  0
 17 19  1  0
 18 17  2  0
 19 20  1  0
 21 20  1  1
 21 23  1  0
 22 21  1  0
 22 14  1  0
 23 25  2  0
 23 24  1  0
M  END
$$$$
