FGQ.pdb
     RDKit          3D

 25 25  0  0  1  0  0  0  0  0999 V2000
   25.5688  -18.6115  -19.2539 N   0  0  0  0  0  0  0  0  0  0  0  0
   25.5882  -17.2509  -18.7526 C   0  0  1  0  0  0  0  0  0  0  0  0
   24.6736  -16.4460  -19.6801 C   0  0  0  0  0  0  0  0  0  0  0  0
   25.4694  -16.0850  -20.8859 C   0  0  0  0  0  0  0  0  0  0  0  0
   25.4312  -16.7933  -22.0603 C   0  0  0  0  0  0  0  0  0  0  0  0
   26.1743  -16.4401  -23.1580 C   0  0  0  0  0  0  0  0  0  0  0  0
   26.9957  -15.3323  -23.0915 C   0  0  0  0  0  0  0  0  0  0  0  0
   27.0599  -14.6043  -21.9420 C   0  0  0  0  0  0  0  0  0  0  0  0
   26.3017  -14.9752  -20.8411 C   0  0  0  0  0  0  0  0  0  0  0  0
   25.0706  -17.1597  -17.3733 C   0  0  0  0  0  0  0  0  0  0  0  0
   24.8461  -16.0471  -16.8520 O   0  0  0  0  0  0  0  0  0  0  0  0
   24.8258  -18.3430  -16.6334 N   0  0  0  0  0  0  0  0  0  0  0  0
   24.1704  -18.3540  -15.3761 C   0  0  0  0  0  0  0  0  0  0  0  0
   22.7925  -18.9569  -15.3992 C   0  0  0  0  0  0  0  0  0  0  0  0
   22.2205  -19.0695  -16.5291 O   0  0  0  0  0  0  0  0  0  0  0  0
   19.2416  -21.6162  -10.7564 N   0  0  0  0  0  0  0  0  0  0  0  0
   19.8456  -20.3496  -10.5680 C   0  0  0  0  0  0  0  0  0  0  0  0
   19.6904  -19.7683   -9.4754 O   0  0  0  0  0  0  0  0  0  0  0  0
   20.6484  -19.7646  -11.6998 C   0  0  0  0  0  0  0  0  0  0  0  0
   20.5672  -20.7298  -12.8245 C   0  0  0  0  0  0  0  0  0  0  0  0
   20.8864  -20.1505  -14.1890 C   0  0  2  0  0  0  0  0  0  0  0  0
   22.1152  -19.3993  -14.2513 N   0  0  0  0  0  0  0  0  0  0  0  0
   19.7960  -19.2361  -14.5499 C   0  0  0  0  0  0  0  0  0  0  0  0
   18.5645  -19.6768  -15.0243 O   0  0  0  0  0  0  0  0  0  0  0  0
   19.9565  -18.0015  -14.4347 O   0  0  0  0  0  0  0  0  0  0  0  0
  2  1  1  6
  2 10  1  0
  3  2  1  0
  4  9  2  0
  4  3  1  0
  5  4  1  0
  6  7  1  0
  6  5  2  0
  7  8  2  0
  8  9  1  0
 10 11  2  0
 12 10  1  0
 12 13  1  0
 14 13  1  0
 14 15  2  0
 16 17  1  0
 17 19  1  0
 18 17  2  0
 19 20  1  0
 21 20  1  1
 21 23  1  0
 22 21  1  0
 22 14  1  0
 23 25  2  0
 23 24  1  0
M  END
$$$$
