NHK.pdb
     RDKit          3D

 28 28  0  0  1  0  0  0  0  0999 V2000
   14.4019  -15.1088   15.4746 N   0  0  0  0  0  0  0  0  0  0  0  0
   14.7536  -14.6592   16.7755 C   0  0  0  0  0  0  0  0  0  0  0  0
   15.9495  -14.7088   17.1147 O   0  0  0  0  0  0  0  0  0  0  0  0
   13.7270  -14.1498   17.6916 C   0  0  0  0  0  0  0  0  0  0  0  0
   13.4991  -15.0235   18.8671 C   0  0  2  0  0  0  0  0  0  0  0  0
   13.2415  -16.4070   18.4805 N   0  0  0  0  0  0  0  0  0  0  0  0
   12.4954  -14.5474   19.8499 C   0  0  0  0  0  0  0  0  0  0  0  0
   12.5656  -13.4583   20.4686 O   0  0  0  0  0  0  0  0  0  0  0  0
   11.3398  -15.3402   20.1605 N   0  0  0  0  0  0  0  0  0  0  0  0
   10.2960  -14.8118   21.1141 C   0  0  1  0  0  0  0  0  0  0  0  0
    9.0023  -15.1558   20.4724 C   0  0  0  0  0  0  0  0  0  0  0  0
    8.6080  -14.4909   19.2476 C   0  0  0  0  0  0  0  0  0  0  0  0
    8.3804  -13.1008   19.2451 C   0  0  0  0  0  0  0  0  0  0  0  0
    8.0330  -12.7097   18.0125 N   0  0  0  0  0  0  0  0  0  0  0  0
    8.0306  -13.7963   17.2302 C   0  0  0  0  0  0  0  0  0  0  0  0
    8.3767  -14.8421   17.9930 N   0  0  0  0  0  0  0  0  0  0  0  0
   10.5542  -15.4677   22.4157 C   0  0  0  0  0  0  0  0  0  0  0  0
   11.3506  -16.4728   22.4677 O   0  0  0  0  0  0  0  0  0  0  0  0
    9.9932  -15.0732   23.6421 N   0  0  0  0  0  0  0  0  0  0  0  0
   10.3741  -15.7935   24.8760 C   0  0  1  0  0  0  0  0  0  0  0  0
    9.9380  -14.9406   26.0388 C   0  0  0  0  0  0  0  0  0  0  0  0
   10.1196  -15.5852   27.3723 C   0  0  0  0  0  0  0  0  0  0  0  0
    9.6887  -14.6333   28.4481 C   0  0  0  0  0  0  0  0  0  0  0  0
    9.8939  -15.1893   29.8431 C   0  0  0  0  0  0  0  0  0  0  0  0
    9.4558  -14.2390   30.8327 N   0  0  0  0  0  0  0  0  0  0  0  0
    9.7907  -17.1488   24.8761 C   0  0  0  0  0  0  0  0  0  0  0  0
   10.1975  -18.0993   25.5815 O   0  0  0  0  0  0  0  0  0  0  0  0
    8.7084  -17.4152   24.0399 O   0  0  0  0  0  0  0  0  0  0  0  0
  2  1  1  0
  2  3  2  0
  4  5  1  0
  4  2  1  0
  5  7  1  0
  5  6  1  6
  7  8  2  0
  9 10  1  0
  9  7  1  0
 11 12  1  0
 10 11  1  6
 12 16  1  0
 13 14  1  0
 13 12  2  0
 14 15  1  0
 15 16  2  0
 17 18  2  0
 17 10  1  0
 19 17  1  0
 20 19  1  0
 20 26  1  0
 20 21  1  1
 22 21  1  0
 23 22  1  0
 24 25  1  0
 24 23  1  0
 26 28  1  0
 27 26  2  0
M  END
$$$$
