NHK.pdb
     RDKit          3D

 28 28  0  0  1  0  0  0  0  0999 V2000
   14.4632  -13.6418   18.1718 N   0  0  0  0  0  0  0  0  0  0  0  0
   13.7017  -14.8408   18.1444 C   0  0  0  0  0  0  0  0  0  0  0  0
   12.7744  -14.9333   17.3202 O   0  0  0  0  0  0  0  0  0  0  0  0
   14.0065  -15.9394   19.0679 C   0  0  0  0  0  0  0  0  0  0  0  0
   12.8148  -16.7295   19.4587 C   0  0  2  0  0  0  0  0  0  0  0  0
   11.9664  -17.0452   18.3139 N   0  0  0  0  0  0  0  0  0  0  0  0
   12.0142  -16.1901   20.5848 C   0  0  0  0  0  0  0  0  0  0  0  0
   12.4987  -15.6584   21.6125 O   0  0  0  0  0  0  0  0  0  0  0  0
   10.5802  -16.2497   20.5596 N   0  0  0  0  0  0  0  0  0  0  0  0
    9.7802  -15.6593   21.6952 C   0  0  1  0  0  0  0  0  0  0  0  0
    8.4555  -15.3592   21.0961 C   0  0  0  0  0  0  0  0  0  0  0  0
    8.2969  -14.1961   20.2477 C   0  0  0  0  0  0  0  0  0  0  0  0
    9.4015  -13.3621   19.9859 C   0  0  0  0  0  0  0  0  0  0  0  0
    9.0216  -12.3612   19.1816 N   0  0  0  0  0  0  0  0  0  0  0  0
    7.7186  -12.5254   18.9212 C   0  0  0  0  0  0  0  0  0  0  0  0
    7.3141  -13.6260   19.5695 N   0  0  0  0  0  0  0  0  0  0  0  0
    9.7756  -16.6760   22.7711 C   0  0  0  0  0  0  0  0  0  0  0  0
    9.4121  -17.8770   22.5015 O   0  0  0  0  0  0  0  0  0  0  0  0
   10.1519  -16.4401   24.1041 N   0  0  0  0  0  0  0  0  0  0  0  0
   10.0555  -17.5400   25.0877 C   0  0  1  0  0  0  0  0  0  0  0  0
   11.4449  -17.7837   25.6168 C   0  0  0  0  0  0  0  0  0  0  0  0
   11.5180  -18.8165   26.6913 C   0  0  0  0  0  0  0  0  0  0  0  0
   12.9463  -18.9978   27.1111 C   0  0  0  0  0  0  0  0  0  0  0  0
   13.1253  -20.1102   28.1250 C   0  0  0  0  0  0  0  0  0  0  0  0
   14.5154  -20.2545   28.4729 N   0  0  0  0  0  0  0  0  0  0  0  0
    9.0679  -17.2054   26.1318 C   0  0  0  0  0  0  0  0  0  0  0  0
    8.6042  -16.0603   26.3327 O   0  0  0  0  0  0  0  0  0  0  0  0
    8.6025  -18.2189   26.9669 O   0  0  0  0  0  0  0  0  0  0  0  0
  2  1  1  0
  2  3  2  0
  4  5  1  0
  4  2  1  0
  5  7  1  0
  5  6  1  6
  7  8  2  0
  9 10  1  0
  9  7  1  0
 11 12  1  0
 10 11  1  6
 12 16  1  0
 13 14  1  0
 13 12  2  0
 14 15  1  0
 15 16  2  0
 17 18  2  0
 17 10  1  0
 19 17  1  0
 20 19  1  0
 20 26  1  0
 20 21  1  1
 22 21  1  0
 23 22  1  0
 24 25  1  0
 24 23  1  0
 26 28  1  0
 27 26  2  0
M  END
$$$$
