NHK.pdb
     RDKit          3D

 28 28  0  0  1  0  0  0  0  0999 V2000
   11.5079  -20.0282   17.0368 N   0  0  0  0  0  0  0  0  0  0  0  0
   11.3898  -18.6433   16.7427 C   0  0  0  0  0  0  0  0  0  0  0  0
   11.7253  -18.2487   15.6116 O   0  0  0  0  0  0  0  0  0  0  0  0
   10.8835  -17.7068   17.7523 C   0  0  0  0  0  0  0  0  0  0  0  0
   10.5984  -18.3455   19.0592 C   0  0  2  0  0  0  0  0  0  0  0  0
    9.4177  -19.2016   19.0054 N   0  0  0  0  0  0  0  0  0  0  0  0
   10.5483  -17.4389   20.2320 C   0  0  0  0  0  0  0  0  0  0  0  0
   11.5527  -16.9122   20.7683 O   0  0  0  0  0  0  0  0  0  0  0  0
    9.2948  -17.1001   20.8439 N   0  0  0  0  0  0  0  0  0  0  0  0
    9.2635  -16.1839   22.0431 C   0  0  1  0  0  0  0  0  0  0  0  0
    7.9732  -15.4602   21.9205 C   0  0  0  0  0  0  0  0  0  0  0  0
    7.8524  -14.3584   20.9881 C   0  0  0  0  0  0  0  0  0  0  0  0
    8.9723  -13.9457   20.2402 C   0  0  0  0  0  0  0  0  0  0  0  0
    8.6255  -12.9225   19.4490 N   0  0  0  0  0  0  0  0  0  0  0  0
    7.3288  -12.6678   19.6641 C   0  0  0  0  0  0  0  0  0  0  0  0
    6.8950  -13.5385   20.5856 N   0  0  0  0  0  0  0  0  0  0  0  0
    9.3934  -17.0547   23.2330 C   0  0  0  0  0  0  0  0  0  0  0  0
    8.5526  -18.0077   23.4112 O   0  0  0  0  0  0  0  0  0  0  0  0
   10.3909  -16.9332   24.2152 N   0  0  0  0  0  0  0  0  0  0  0  0
   10.4574  -17.9306   25.3048 C   0  0  1  0  0  0  0  0  0  0  0  0
   11.5975  -18.8617   24.9835 C   0  0  0  0  0  0  0  0  0  0  0  0
   11.8255  -19.9250   26.0053 C   0  0  0  0  0  0  0  0  0  0  0  0
   12.9853  -20.7781   25.5855 C   0  0  0  0  0  0  0  0  0  0  0  0
   13.2986  -21.8772   26.5812 C   0  0  0  0  0  0  0  0  0  0  0  0
   14.5090  -22.5630   26.2088 N   0  0  0  0  0  0  0  0  0  0  0  0
   10.5878  -17.2531   26.6091 C   0  0  0  0  0  0  0  0  0  0  0  0
   10.9743  -16.0726   26.7630 O   0  0  0  0  0  0  0  0  0  0  0  0
   10.2635  -17.9561   27.7676 O   0  0  0  0  0  0  0  0  0  0  0  0
  2  1  1  0
  2  3  2  0
  4  5  1  0
  4  2  1  0
  5  7  1  0
  5  6  1  6
  7  8  2  0
  9 10  1  0
  9  7  1  0
 11 12  1  0
 10 11  1  1
 12 16  1  0
 13 14  1  0
 13 12  2  0
 14 15  1  0
 15 16  2  0
 17 18  2  0
 17 10  1  0
 19 17  1  0
 20 19  1  0
 20 26  1  0
 20 21  1  6
 22 21  1  0
 23 22  1  0
 24 25  1  0
 24 23  1  0
 26 28  1  0
 27 26  2  0
M  END
$$$$
