NHK.pdb
     RDKit          3D

 28 28  0  0  1  0  0  0  0  0999 V2000
   15.1979  -13.6495   16.5385 N   0  0  0  0  0  0  0  0  0  0  0  0
   15.1345  -14.4248   17.7272 C   0  0  0  0  0  0  0  0  0  0  0  0
   15.9263  -15.3757   17.8555 O   0  0  0  0  0  0  0  0  0  0  0  0
   14.1572  -14.1065   18.7742 C   0  0  0  0  0  0  0  0  0  0  0  0
   13.5662  -15.3059   19.4140 C   0  0  2  0  0  0  0  0  0  0  0  0
   13.1612  -16.3076   18.4329 N   0  0  0  0  0  0  0  0  0  0  0  0
   12.4860  -15.0552   20.3991 C   0  0  0  0  0  0  0  0  0  0  0  0
   12.5531  -14.2193   21.3321 O   0  0  0  0  0  0  0  0  0  0  0  0
   11.2524  -15.7865   20.3365 N   0  0  0  0  0  0  0  0  0  0  0  0
   10.1587  -15.5089   21.3391 C   0  0  1  0  0  0  0  0  0  0  0  0
    8.9064  -15.5669   20.5442 C   0  0  0  0  0  0  0  0  0  0  0  0
    8.5696  -14.4764   19.6523 C   0  0  0  0  0  0  0  0  0  0  0  0
    9.4286  -13.3651   19.5464 C   0  0  0  0  0  0  0  0  0  0  0  0
    8.9198  -12.4925   18.6675 N   0  0  0  0  0  0  0  0  0  0  0  0
    7.7705  -13.0048   18.2097 C   0  0  0  0  0  0  0  0  0  0  0  0
    7.5878  -14.1867   18.8139 N   0  0  0  0  0  0  0  0  0  0  0  0
   10.2912  -16.5401   22.3927 C   0  0  0  0  0  0  0  0  0  0  0  0
   10.3243  -17.7794   22.0608 O   0  0  0  0  0  0  0  0  0  0  0  0
   10.3942  -16.2770   23.7692 N   0  0  0  0  0  0  0  0  0  0  0  0
   10.5591  -17.4057   24.7102 C   0  0  1  0  0  0  0  0  0  0  0  0
   11.8513  -18.0936   24.3541 C   0  0  0  0  0  0  0  0  0  0  0  0
   12.2332  -19.1969   25.2832 C   0  0  0  0  0  0  0  0  0  0  0  0
   13.5511  -19.7724   24.8575 C   0  0  0  0  0  0  0  0  0  0  0  0
   14.0147  -20.9058   25.7506 C   0  0  0  0  0  0  0  0  0  0  0  0
   15.2723  -21.4310   25.2848 N   0  0  0  0  0  0  0  0  0  0  0  0
   10.5034  -16.9209   26.1027 C   0  0  0  0  0  0  0  0  0  0  0  0
   10.5904  -17.6515   27.1152 O   0  0  0  0  0  0  0  0  0  0  0  0
   10.3430  -15.5562   26.3339 O   0  0  0  0  0  0  0  0  0  0  0  0
  2  1  1  0
  2  3  2  0
  4  5  1  0
  4  2  1  0
  5  7  1  0
  5  6  1  6
  7  8  2  0
  9 10  1  0
  9  7  1  0
 11 12  1  0
 10 11  1  6
 12 16  1  0
 13 14  1  0
 13 12  2  0
 14 15  1  0
 15 16  2  0
 17 18  2  0
 17 10  1  0
 19 17  1  0
 20 19  1  0
 20 26  1  0
 20 21  1  6
 22 21  1  0
 23 22  1  0
 24 25  1  0
 24 23  1  0
 26 28  1  0
 27 26  2  0
M  END
$$$$
