NHK.pdb
     RDKit          3D

 28 28  0  0  1  0  0  0  0  0999 V2000
   11.4124  -19.4142   14.2165 N   0  0  0  0  0  0  0  0  0  0  0  0
   11.3031  -18.9078   15.5392 C   0  0  0  0  0  0  0  0  0  0  0  0
   10.1662  -18.7249   16.0099 O   0  0  0  0  0  0  0  0  0  0  0  0
   12.5054  -18.6100   16.3257 C   0  0  0  0  0  0  0  0  0  0  0  0
   12.2142  -17.9572   17.6243 C   0  0  2  0  0  0  0  0  0  0  0  0
   11.0142  -17.1287   17.5649 N   0  0  0  0  0  0  0  0  0  0  0  0
   13.3395  -17.2237   18.2534 C   0  0  0  0  0  0  0  0  0  0  0  0
   14.5209  -17.6424   18.3070 O   0  0  0  0  0  0  0  0  0  0  0  0
   13.1298  -15.9404   18.8613 N   0  0  0  0  0  0  0  0  0  0  0  0
   14.2921  -15.1950   19.4708 C   0  0  1  0  0  0  0  0  0  0  0  0
   14.2498  -13.8572   18.8287 C   0  0  0  0  0  0  0  0  0  0  0  0
   15.4026  -13.3740   18.0970 C   0  0  0  0  0  0  0  0  0  0  0  0
   16.6097  -14.0990   18.1302 C   0  0  0  0  0  0  0  0  0  0  0  0
   17.5266  -13.4697   17.3843 N   0  0  0  0  0  0  0  0  0  0  0  0
   16.9504  -12.3725   16.8776 C   0  0  0  0  0  0  0  0  0  0  0  0
   15.6857  -12.3416   17.3192 N   0  0  0  0  0  0  0  0  0  0  0  0
   14.0690  -15.2050   20.9341 C   0  0  0  0  0  0  0  0  0  0  0  0
   12.8950  -14.9661   21.3941 O   0  0  0  0  0  0  0  0  0  0  0  0
   15.0571  -15.4677   21.8980 N   0  0  0  0  0  0  0  0  0  0  0  0
   14.6481  -15.8454   23.2678 C   0  0  1  0  0  0  0  0  0  0  0  0
   13.7570  -17.0541   23.1462 C   0  0  0  0  0  0  0  0  0  0  0  0
   12.8372  -17.2551   24.3038 C   0  0  0  0  0  0  0  0  0  0  0  0
   12.1049  -18.5534   24.1382 C   0  0  0  0  0  0  0  0  0  0  0  0
   11.1694  -18.8532   25.2925 C   0  0  0  0  0  0  0  0  0  0  0  0
   10.4402  -20.0704   25.0456 N   0  0  0  0  0  0  0  0  0  0  0  0
   15.8375  -16.0617   24.1139 C   0  0  0  0  0  0  0  0  0  0  0  0
   16.9854  -16.3071   23.6795 O   0  0  0  0  0  0  0  0  0  0  0  0
   15.6993  -15.9933   25.4987 O   0  0  0  0  0  0  0  0  0  0  0  0
  2  1  1  0
  2  3  2  0
  4  5  1  0
  4  2  1  0
  5  7  1  0
  5  6  1  6
  7  8  2  0
  9 10  1  0
  9  7  1  0
 11 12  1  0
 10 11  1  6
 12 16  1  0
 13 14  1  0
 13 12  2  0
 14 15  1  0
 15 16  2  0
 17 18  2  0
 17 10  1  0
 19 17  1  0
 20 19  1  0
 20 26  1  0
 20 21  1  6
 22 21  1  0
 23 22  1  0
 24 25  1  0
 24 23  1  0
 26 28  1  0
 27 26  2  0
M  END
$$$$
