NHK.pdb
     RDKit          3D

 28 28  0  0  1  0  0  0  0  0999 V2000
   14.0574  -18.8547   13.3689 N   0  0  0  0  0  0  0  0  0  0  0  0
   12.9415  -18.9710   14.2404 C   0  0  0  0  0  0  0  0  0  0  0  0
   12.3029  -20.0387   14.2435 O   0  0  0  0  0  0  0  0  0  0  0  0
   12.5570  -17.8560   15.1129 C   0  0  0  0  0  0  0  0  0  0  0  0
   11.8266  -18.2837   16.3298 C   0  0  2  0  0  0  0  0  0  0  0  0
   10.5663  -18.9457   16.0088 N   0  0  0  0  0  0  0  0  0  0  0  0
   11.6357  -17.2484   17.3747 C   0  0  0  0  0  0  0  0  0  0  0  0
   12.5678  -16.6798   17.9925 O   0  0  0  0  0  0  0  0  0  0  0  0
   10.3181  -16.8222   17.7525 N   0  0  0  0  0  0  0  0  0  0  0  0
   10.1429  -15.7560   18.8065 C   0  0  1  0  0  0  0  0  0  0  0  0
    8.8803  -15.0711   18.4318 C   0  0  0  0  0  0  0  0  0  0  0  0
    8.3629  -14.0084   19.2690 C   0  0  0  0  0  0  0  0  0  0  0  0
    7.4822  -14.3125   20.3253 C   0  0  0  0  0  0  0  0  0  0  0  0
    7.1411  -13.1830   20.9585 N   0  0  0  0  0  0  0  0  0  0  0  0
    7.7702  -12.1718   20.3466 C   0  0  0  0  0  0  0  0  0  0  0  0
    8.4903  -12.6935   19.3442 N   0  0  0  0  0  0  0  0  0  0  0  0
   10.1220  -16.4602   20.1083 C   0  0  0  0  0  0  0  0  0  0  0  0
    9.5494  -17.6054   20.1960 O   0  0  0  0  0  0  0  0  0  0  0  0
   10.6968  -15.9759   21.2955 N   0  0  0  0  0  0  0  0  0  0  0  0
   10.5575  -16.7633   22.5393 C   0  0  1  0  0  0  0  0  0  0  0  0
   11.9392  -17.2163   22.9334 C   0  0  0  0  0  0  0  0  0  0  0  0
   12.1334  -18.6953   22.8915 C   0  0  0  0  0  0  0  0  0  0  0  0
   13.5691  -19.0172   23.1817 C   0  0  0  0  0  0  0  0  0  0  0  0
   13.8791  -20.4951   23.0512 C   0  0  0  0  0  0  0  0  0  0  0  0
   15.2613  -20.7488   23.3665 N   0  0  0  0  0  0  0  0  0  0  0  0
    9.8718  -15.9653   23.5739 C   0  0  0  0  0  0  0  0  0  0  0  0
    9.6361  -14.7391   23.4877 O   0  0  0  0  0  0  0  0  0  0  0  0
    9.4463  -16.5988   24.7397 O   0  0  0  0  0  0  0  0  0  0  0  0
  2  1  1  0
  2  3  2  0
  4  5  1  0
  4  2  1  0
  5  7  1  0
  5  6  1  6
  7  8  2  0
  9 10  1  0
  9  7  1  0
 11 12  1  0
 10 11  1  6
 12 16  1  0
 13 14  1  0
 13 12  2  0
 14 15  1  0
 15 16  2  0
 17 18  2  0
 17 10  1  0
 19 17  1  0
 20 19  1  0
 20 26  1  0
 20 21  1  1
 22 21  1  0
 23 22  1  0
 24 25  1  0
 24 23  1  0
 26 28  1  0
 27 26  2  0
M  END
$$$$
