NHK.pdb
     RDKit          3D

 28 28  0  0  1  0  0  0  0  0999 V2000
   15.5249  -14.9837   16.4057 N   0  0  0  0  0  0  0  0  0  0  0  0
   14.1686  -15.3655   16.2246 C   0  0  0  0  0  0  0  0  0  0  0  0
   13.8781  -16.0634   15.2365 O   0  0  0  0  0  0  0  0  0  0  0  0
   13.1407  -14.9443   17.1829 C   0  0  0  0  0  0  0  0  0  0  0  0
   12.8834  -15.9419   18.2487 C   0  0  2  0  0  0  0  0  0  0  0  0
   12.2977  -17.1699   17.7208 N   0  0  0  0  0  0  0  0  0  0  0  0
   12.1304  -15.4555   19.4305 C   0  0  0  0  0  0  0  0  0  0  0  0
   12.4699  -14.4764   20.1375 O   0  0  0  0  0  0  0  0  0  0  0  0
   10.9209  -16.1062   19.8479 N   0  0  0  0  0  0  0  0  0  0  0  0
   10.1776  -15.6093   21.0640 C   0  0  1  0  0  0  0  0  0  0  0  0
    8.7808  -15.4296   20.5945 C   0  0  0  0  0  0  0  0  0  0  0  0
    8.4742  -14.3941   19.6293 C   0  0  0  0  0  0  0  0  0  0  0  0
    8.7488  -13.0467   19.9341 C   0  0  0  0  0  0  0  0  0  0  0  0
    8.3890  -12.2752   18.9005 N   0  0  0  0  0  0  0  0  0  0  0  0
    7.8960  -13.0788   17.9497 C   0  0  0  0  0  0  0  0  0  0  0  0
    7.9593  -14.3349   18.4119 N   0  0  0  0  0  0  0  0  0  0  0  0
   10.3684  -16.6352   22.1138 C   0  0  0  0  0  0  0  0  0  0  0  0
   10.0581  -17.8556   21.8659 O   0  0  0  0  0  0  0  0  0  0  0  0
   10.8816  -16.3879   23.3983 N   0  0  0  0  0  0  0  0  0  0  0  0
   10.9361  -17.4925   24.3797 C   0  0  1  0  0  0  0  0  0  0  0  0
   12.3447  -17.5426   24.9118 C   0  0  0  0  0  0  0  0  0  0  0  0
   12.5642  -18.5761   25.9657 C   0  0  0  0  0  0  0  0  0  0  0  0
   14.0038  -18.5607   26.3857 C   0  0  0  0  0  0  0  0  0  0  0  0
   14.3344  -19.6423   27.3948 C   0  0  0  0  0  0  0  0  0  0  0  0
   15.7113  -19.5433   27.8053 N   0  0  0  0  0  0  0  0  0  0  0  0
    9.9095  -17.2999   25.4219 C   0  0  0  0  0  0  0  0  0  0  0  0
    9.2771  -16.2364   25.6108 O   0  0  0  0  0  0  0  0  0  0  0  0
    9.6038  -18.3627   26.2695 O   0  0  0  0  0  0  0  0  0  0  0  0
  2  1  1  0
  2  3  2  0
  4  5  1  0
  4  2  1  0
  5  7  1  0
  5  6  1  6
  7  8  2  0
  9 10  1  0
  9  7  1  0
 11 12  1  0
 10 11  1  6
 12 16  1  0
 13 14  1  0
 13 12  2  0
 14 15  1  0
 15 16  2  0
 17 18  2  0
 17 10  1  0
 19 17  1  0
 20 19  1  0
 20 26  1  0
 20 21  1  1
 22 21  1  0
 23 22  1  0
 24 25  1  0
 24 23  1  0
 26 28  1  0
 27 26  2  0
M  END
$$$$
