NHK.pdb
     RDKit          3D

 28 28  0  0  1  0  0  0  0  0999 V2000
    7.3331  -20.1554   17.4836 N   0  0  0  0  0  0  0  0  0  0  0  0
    8.6792  -19.7056   17.4213 C   0  0  0  0  0  0  0  0  0  0  0  0
    9.3472  -19.9786   16.4079 O   0  0  0  0  0  0  0  0  0  0  0  0
    9.2613  -18.9382   18.5281 C   0  0  0  0  0  0  0  0  0  0  0  0
    9.0421  -17.4768   18.4122 C   0  0  2  0  0  0  0  0  0  0  0  0
    9.7094  -16.9130   17.2432 N   0  0  0  0  0  0  0  0  0  0  0  0
    9.3257  -16.6756   19.6279 C   0  0  0  0  0  0  0  0  0  0  0  0
   10.4565  -16.2310   19.9399 O   0  0  0  0  0  0  0  0  0  0  0  0
    8.2774  -16.3513   20.5534 N   0  0  0  0  0  0  0  0  0  0  0  0
    8.5980  -15.6050   21.8256 C   0  0  1  0  0  0  0  0  0  0  0  0
    7.2877  -15.0801   22.2852 C   0  0  0  0  0  0  0  0  0  0  0  0
    7.1712  -14.4918   23.6037 C   0  0  0  0  0  0  0  0  0  0  0  0
    6.5147  -15.1966   24.6314 C   0  0  0  0  0  0  0  0  0  0  0  0
    6.5324  -14.4653   25.7530 N   0  0  0  0  0  0  0  0  0  0  0  0
    7.1744  -13.3227   25.4794 C   0  0  0  0  0  0  0  0  0  0  0  0
    7.5432  -13.3665   24.1920 N   0  0  0  0  0  0  0  0  0  0  0  0
    9.2428  -16.5844   22.7290 C   0  0  0  0  0  0  0  0  0  0  0  0
    8.9402  -17.8276   22.6295 O   0  0  0  0  0  0  0  0  0  0  0  0
   10.1929  -16.2675   23.7145 N   0  0  0  0  0  0  0  0  0  0  0  0
   10.7719  -17.3525   24.5354 C   0  0  1  0  0  0  0  0  0  0  0  0
   12.1182  -17.6834   23.9456 C   0  0  0  0  0  0  0  0  0  0  0  0
   13.1321  -16.5979   24.0883 C   0  0  0  0  0  0  0  0  0  0  0  0
   14.4431  -17.0648   23.5294 C   0  0  0  0  0  0  0  0  0  0  0  0
   15.5457  -16.0350   23.6754 C   0  0  0  0  0  0  0  0  0  0  0  0
   16.7772  -16.5347   23.1206 N   0  0  0  0  0  0  0  0  0  0  0  0
   10.8232  -16.9473   25.9534 C   0  0  0  0  0  0  0  0  0  0  0  0
   10.4620  -15.8308   26.3885 O   0  0  0  0  0  0  0  0  0  0  0  0
   11.3043  -17.8546   26.8951 O   0  0  0  0  0  0  0  0  0  0  0  0
  2  1  1  0
  2  3  2  0
  4  5  1  0
  4  2  1  0
  5  7  1  0
  5  6  1  6
  7  8  2  0
  9 10  1  0
  9  7  1  0
 11 12  1  0
 10 11  1  1
 12 16  1  0
 13 14  1  0
 13 12  2  0
 14 15  1  0
 15 16  2  0
 17 18  2  0
 17 10  1  0
 19 17  1  0
 20 19  1  0
 20 26  1  0
 20 21  1  6
 22 21  1  0
 23 22  1  0
 24 25  1  0
 24 23  1  0
 26 28  1  0
 27 26  2  0
M  END
$$$$
