NHK.pdb
     RDKit          3D

 28 28  0  0  1  0  0  0  0  0999 V2000
    8.1741  -17.5174   15.7345 N   0  0  0  0  0  0  0  0  0  0  0  0
    8.4258  -16.4778   16.6693 C   0  0  0  0  0  0  0  0  0  0  0  0
    9.2655  -15.6085   16.3745 O   0  0  0  0  0  0  0  0  0  0  0  0
    7.7095  -16.4358   17.9490 C   0  0  0  0  0  0  0  0  0  0  0  0
    8.6059  -16.3130   19.1232 C   0  0  2  0  0  0  0  0  0  0  0  0
    9.7820  -17.1693   19.0073 N   0  0  0  0  0  0  0  0  0  0  0  0
    7.9650  -16.4621   20.4525 C   0  0  0  0  0  0  0  0  0  0  0  0
    6.8868  -15.9159   20.7885 O   0  0  0  0  0  0  0  0  0  0  0  0
    8.5690  -17.2738   21.4708 N   0  0  0  0  0  0  0  0  0  0  0  0
    7.8503  -17.5032   22.7781 C   0  0  1  0  0  0  0  0  0  0  0  0
    7.9204  -18.9716   22.9846 C   0  0  0  0  0  0  0  0  0  0  0  0
    7.4208  -19.5494   24.2153 C   0  0  0  0  0  0  0  0  0  0  0  0
    6.7989  -18.7273   25.1751 C   0  0  0  0  0  0  0  0  0  0  0  0
    6.4173  -19.4737   26.2192 N   0  0  0  0  0  0  0  0  0  0  0  0
    6.7720  -20.7389   25.9616 C   0  0  0  0  0  0  0  0  0  0  0  0
    7.3676  -20.7534   24.7614 N   0  0  0  0  0  0  0  0  0  0  0  0
    8.5574  -16.6848   23.7887 C   0  0  0  0  0  0  0  0  0  0  0  0
    9.8285  -16.5325   23.6988 O   0  0  0  0  0  0  0  0  0  0  0  0
    7.9424  -16.0317   24.8702 N   0  0  0  0  0  0  0  0  0  0  0  0
    8.7751  -15.2554   25.8138 C   0  0  1  0  0  0  0  0  0  0  0  0
    7.8405  -14.3968   26.6257 C   0  0  0  0  0  0  0  0  0  0  0  0
    7.3531  -13.1798   25.9130 C   0  0  0  0  0  0  0  0  0  0  0  0
    6.4710  -12.3859   26.8299 C   0  0  0  0  0  0  0  0  0  0  0  0
    5.9610  -11.1074   26.1953 C   0  0  0  0  0  0  0  0  0  0  0  0
    5.0495  -10.4337   27.0839 N   0  0  0  0  0  0  0  0  0  0  0  0
    9.6092  -16.1636   26.6242 C   0  0  0  0  0  0  0  0  0  0  0  0
    9.3386  -17.3637   26.8545 O   0  0  0  0  0  0  0  0  0  0  0  0
   10.7875  -15.6744   27.1843 O   0  0  0  0  0  0  0  0  0  0  0  0
  2  1  1  0
  2  3  2  0
  4  5  1  0
  4  2  1  0
  5  7  1  0
  5  6  1  6
  7  8  2  0
  9 10  1  0
  9  7  1  0
 11 12  1  0
 10 11  1  1
 12 16  1  0
 13 14  1  0
 13 12  2  0
 14 15  1  0
 15 16  2  0
 17 18  2  0
 17 10  1  0
 19 17  1  0
 20 19  1  0
 20 26  1  0
 20 21  1  1
 22 21  1  0
 23 22  1  0
 24 25  1  0
 24 23  1  0
 26 28  1  0
 27 26  2  0
M  END
$$$$
