NHK.pdb
     RDKit          3D

 28 28  0  0  1  0  0  0  0  0999 V2000
   17.1912  -16.1285   18.1832 N   0  0  0  0  0  0  0  0  0  0  0  0
   15.8424  -16.5732   18.2167 C   0  0  0  0  0  0  0  0  0  0  0  0
   15.4575  -17.3603   17.3335 O   0  0  0  0  0  0  0  0  0  0  0  0
   14.9308  -16.1121   19.2698 C   0  0  0  0  0  0  0  0  0  0  0  0
   13.7202  -15.4349   18.7474 C   0  0  2  0  0  0  0  0  0  0  0  0
   14.0508  -14.3673   17.8089 N   0  0  0  0  0  0  0  0  0  0  0  0
   12.7423  -14.9712   19.7617 C   0  0  0  0  0  0  0  0  0  0  0  0
   12.8803  -13.9420   20.4655 O   0  0  0  0  0  0  0  0  0  0  0  0
   11.5331  -15.7059   20.0040 N   0  0  0  0  0  0  0  0  0  0  0  0
   10.4722  -15.1346   20.9131 C   0  0  1  0  0  0  0  0  0  0  0  0
    9.1925  -15.4514   20.2308 C   0  0  0  0  0  0  0  0  0  0  0  0
    8.6250  -14.5061   19.2915 C   0  0  0  0  0  0  0  0  0  0  0  0
    9.2547  -13.2642   19.0783 C   0  0  0  0  0  0  0  0  0  0  0  0
    8.5600  -12.5635   18.1732 N   0  0  0  0  0  0  0  0  0  0  0  0
    7.5127  -13.3106   17.8018 C   0  0  0  0  0  0  0  0  0  0  0  0
    7.5775  -14.4618   18.4843 N   0  0  0  0  0  0  0  0  0  0  0  0
   10.6660  -15.7786   22.2317 C   0  0  0  0  0  0  0  0  0  0  0  0
   11.2159  -16.9366   22.2926 O   0  0  0  0  0  0  0  0  0  0  0  0
   10.2964  -15.2161   23.4651 N   0  0  0  0  0  0  0  0  0  0  0  0
   10.5431  -15.9766   24.7090 C   0  0  1  0  0  0  0  0  0  0  0  0
   10.3096  -15.0317   25.8591 C   0  0  0  0  0  0  0  0  0  0  0  0
   10.4462  -15.6609   27.2052 C   0  0  0  0  0  0  0  0  0  0  0  0
   10.1481  -14.6413   28.2638 C   0  0  0  0  0  0  0  0  0  0  0  0
   10.2807  -15.1949   29.6686 C   0  0  0  0  0  0  0  0  0  0  0  0
    9.8738  -14.2102   30.6376 N   0  0  0  0  0  0  0  0  0  0  0  0
    9.6955  -17.1839   24.7452 C   0  0  0  0  0  0  0  0  0  0  0  0
    8.6127  -17.3125   24.1308 O   0  0  0  0  0  0  0  0  0  0  0  0
   10.1080  -18.2726   25.5108 O   0  0  0  0  0  0  0  0  0  0  0  0
  2  1  1  0
  2  3  2  0
  4  5  1  0
  4  2  1  0
  5  7  1  0
  5  6  1  1
  7  8  2  0
  9 10  1  0
  9  7  1  0
 11 12  1  0
 10 11  1  6
 12 16  1  0
 13 14  1  0
 13 12  2  0
 14 15  1  0
 15 16  2  0
 17 18  2  0
 17 10  1  0
 19 17  1  0
 20 19  1  0
 20 26  1  0
 20 21  1  1
 22 21  1  0
 23 22  1  0
 24 25  1  0
 24 23  1  0
 26 28  1  0
 27 26  2  0
M  END
$$$$
