QPR.pdb
     RDKit          3D

 28 28  0  0  1  0  0  0  0  0999 V2000
    5.7456  -18.4883   17.1798 N   0  0  0  0  0  0  0  0  0  0  0  0
    7.0917  -18.8605   17.3862 C   0  0  0  0  0  0  0  0  0  0  0  0
    7.3808  -20.0104   17.7931 O   0  0  0  0  0  0  0  0  0  0  0  0
    8.1448  -17.8232   17.0980 C   0  0  0  0  0  0  0  0  0  0  0  0
    7.5232  -16.5555   16.6149 C   0  0  0  0  0  0  0  0  0  0  0  0
    8.5678  -15.4596   16.4951 C   0  0  2  0  0  0  0  0  0  0  0  0
    9.5246  -15.8482   15.4867 N   0  0  0  0  0  0  0  0  0  0  0  0
    9.2139  -15.1896   17.7928 C   0  0  0  0  0  0  0  0  0  0  0  0
   10.4315  -15.5840   17.9112 O   0  0  0  0  0  0  0  0  0  0  0  0
    8.6067  -14.5504   18.8755 N   0  0  0  0  0  0  0  0  0  0  0  0
    7.2100  -14.0996   18.8896 C   0  0  0  0  0  0  0  0  0  0  0  0
    7.3307  -12.7625   19.5679 C   0  0  0  0  0  0  0  0  0  0  0  0
    8.2607  -13.0923   20.7099 C   0  0  0  0  0  0  0  0  0  0  0  0
    9.1419  -14.1921   20.1363 C   0  0  1  0  0  0  0  0  0  0  0  0
    9.1043  -15.3180   21.1098 C   0  0  0  0  0  0  0  0  0  0  0  0
    8.1674  -16.1399   21.1800 O   0  0  0  0  0  0  0  0  0  0  0  0
   15.2207  -18.0687   18.7530 N   0  0  0  0  0  0  0  0  0  0  0  0
   14.0650  -18.5223   19.4467 C   0  0  0  0  0  0  0  0  0  0  0  0
   13.1241  -19.1295   18.8097 N   0  0  0  0  0  0  0  0  0  0  0  0
   13.8939  -18.3335   20.8410 N   0  0  0  0  0  0  0  0  0  0  0  0
   12.7945  -18.9092   21.5216 C   0  0  0  0  0  0  0  0  0  0  0  0
   11.5362  -18.1126   21.5809 C   0  0  0  0  0  0  0  0  0  0  0  0
   11.4241  -17.4006   22.9004 C   0  0  0  0  0  0  0  0  0  0  0  0
   10.1977  -16.5500   23.0199 C   0  0  2  0  0  0  0  0  0  0  0  0
   10.1788  -15.4965   22.0253 N   0  0  0  0  0  0  0  0  0  0  0  0
    9.9730  -16.0285   24.3861 C   0  0  0  0  0  0  0  0  0  0  0  0
    9.9229  -14.7982   24.6665 O   0  0  0  0  0  0  0  0  0  0  0  0
    9.8025  -16.9014   25.4517 O   0  0  0  0  0  0  0  0  0  0  0  0
  2  1  1  0
  3  2  2  0
  4  2  1  0
  5  4  1  0
  6  8  1  0
  6  5  1  0
  6  7  1  6
  8  9  2  0
 10 11  1  0
 10  8  1  0
 12 11  1  0
 13 14  1  0
 13 12  1  0
 14 10  1  0
 15 25  1  0
 14 15  1  1
 16 15  2  0
 18 17  1  0
 19 18  2  0
 20 18  1  0
 21 20  1  0
 22 21  1  0
 23 22  1  0
 24 23  1  1
 24 25  1  0
 26 24  1  0
 26 28  1  0
 27 26  2  0
M  END
$$$$
