QPR.pdb
     RDKit          3D

 28 28  0  0  1  0  0  0  0  0999 V2000
    6.8464  -18.4420   18.6727 N   0  0  0  0  0  0  0  0  0  0  0  0
    8.1316  -18.7934   18.2060 C   0  0  0  0  0  0  0  0  0  0  0  0
    8.7685  -19.7335   18.7370 O   0  0  0  0  0  0  0  0  0  0  0  0
    8.6893  -17.9946   17.0576 C   0  0  0  0  0  0  0  0  0  0  0  0
    7.8399  -16.7994   16.7802 C   0  0  0  0  0  0  0  0  0  0  0  0
    8.7022  -15.5650   16.5824 C   0  0  2  0  0  0  0  0  0  0  0  0
    9.7090  -15.8643   15.5922 N   0  0  0  0  0  0  0  0  0  0  0  0
    9.2971  -15.1160   17.8547 C   0  0  0  0  0  0  0  0  0  0  0  0
   10.5427  -15.3850   18.0225 O   0  0  0  0  0  0  0  0  0  0  0  0
    8.6149  -14.4355   18.8652 N   0  0  0  0  0  0  0  0  0  0  0  0
    7.2258  -13.9742   18.7562 C   0  0  0  0  0  0  0  0  0  0  0  0
    7.3073  -12.6155   19.3963 C   0  0  0  0  0  0  0  0  0  0  0  0
    8.1434  -12.9127   20.6171 C   0  0  0  0  0  0  0  0  0  0  0  0
    9.0551  -14.0381   20.1508 C   0  0  1  0  0  0  0  0  0  0  0  0
    8.9315  -15.1295   21.1558 C   0  0  0  0  0  0  0  0  0  0  0  0
    8.0846  -16.0437   21.0827 O   0  0  0  0  0  0  0  0  0  0  0  0
   13.8105  -20.9316   19.2820 N   0  0  0  0  0  0  0  0  0  0  0  0
   14.1922  -20.8132   20.6468 C   0  0  0  0  0  0  0  0  0  0  0  0
   15.3163  -21.2971   21.0493 N   0  0  0  0  0  0  0  0  0  0  0  0
   13.3742  -20.1719   21.6106 N   0  0  0  0  0  0  0  0  0  0  0  0
   12.9160  -18.8481   21.4080 C   0  0  0  0  0  0  0  0  0  0  0  0
   11.8780  -18.3347   22.3462 C   0  0  0  0  0  0  0  0  0  0  0  0
   11.3898  -16.9830   21.9044 C   0  0  0  0  0  0  0  0  0  0  0  0
   10.3534  -16.3946   22.8109 C   0  0  2  0  0  0  0  0  0  0  0  0
    9.8107  -15.1630   22.2741 N   0  0  0  0  0  0  0  0  0  0  0  0
   10.8138  -16.2365   24.2080 C   0  0  0  0  0  0  0  0  0  0  0  0
   11.1726  -15.1329   24.7064 O   0  0  0  0  0  0  0  0  0  0  0  0
   10.8719  -17.3333   25.0566 O   0  0  0  0  0  0  0  0  0  0  0  0
  2  1  1  0
  3  2  2  0
  4  2  1  0
  5  4  1  0
  6  8  1  0
  6  5  1  0
  6  7  1  6
  8  9  2  0
 10 11  1  0
 10  8  1  0
 12 11  1  0
 13 14  1  0
 13 12  1  0
 14 10  1  0
 15 25  1  0
 14 15  1  1
 16 15  2  0
 18 17  1  0
 19 18  2  0
 20 18  1  0
 21 20  1  0
 22 21  1  0
 23 22  1  0
 24 23  1  6
 24 25  1  0
 26 24  1  0
 26 28  1  0
 27 26  2  0
M  END
$$$$
