QPR.pdb
     RDKit          3D

 28 28  0  0  1  0  0  0  0  0999 V2000
    8.6654  -19.2571   18.1858 N   0  0  0  0  0  0  0  0  0  0  0  0
    8.1932  -18.3850   17.1811 C   0  0  0  0  0  0  0  0  0  0  0  0
    7.9501  -18.8119   16.0278 O   0  0  0  0  0  0  0  0  0  0  0  0
    7.9999  -16.9399   17.5588 C   0  0  0  0  0  0  0  0  0  0  0  0
    8.4196  -16.0394   16.4454 C   0  0  0  0  0  0  0  0  0  0  0  0
    8.2549  -14.5834   16.8445 C   0  0  2  0  0  0  0  0  0  0  0  0
    8.7559  -13.7560   15.7729 N   0  0  0  0  0  0  0  0  0  0  0  0
    8.9308  -14.2975   18.1234 C   0  0  0  0  0  0  0  0  0  0  0  0
   10.2005  -14.1071   18.0618 O   0  0  0  0  0  0  0  0  0  0  0  0
    8.3000  -14.2221   19.3668 N   0  0  0  0  0  0  0  0  0  0  0  0
    6.8487  -14.3206   19.5624 C   0  0  0  0  0  0  0  0  0  0  0  0
    6.6099  -13.2539   20.5958 C   0  0  0  0  0  0  0  0  0  0  0  0
    7.7435  -13.5137   21.5575 C   0  0  0  0  0  0  0  0  0  0  0  0
    8.8529  -14.0365   20.6569 C   0  0  1  0  0  0  0  0  0  0  0  0
    9.3251  -15.3127   21.2611 C   0  0  0  0  0  0  0  0  0  0  0  0
    8.7376  -16.4046   21.1170 O   0  0  0  0  0  0  0  0  0  0  0  0
   16.2514  -14.0847   20.2258 N   0  0  0  0  0  0  0  0  0  0  0  0
   15.7479  -14.9477   19.2138 C   0  0  0  0  0  0  0  0  0  0  0  0
   16.0501  -14.7424   17.9783 N   0  0  0  0  0  0  0  0  0  0  0  0
   14.9080  -16.0513   19.5064 N   0  0  0  0  0  0  0  0  0  0  0  0
   14.4030  -16.2523   20.8133 C   0  0  0  0  0  0  0  0  0  0  0  0
   12.9293  -16.1325   21.0008 C   0  0  0  0  0  0  0  0  0  0  0  0
   12.5242  -16.6616   22.3486 C   0  0  0  0  0  0  0  0  0  0  0  0
   11.0580  -16.5363   22.6255 C   0  0  2  0  0  0  0  0  0  0  0  0
   10.5075  -15.3246   22.0526 N   0  0  0  0  0  0  0  0  0  0  0  0
   10.7142  -16.6801   24.0573 C   0  0  0  0  0  0  0  0  0  0  0  0
   10.1981  -15.7584   24.7494 O   0  0  0  0  0  0  0  0  0  0  0  0
   10.9538  -17.8756   24.7203 O   0  0  0  0  0  0  0  0  0  0  0  0
  2  1  1  0
  3  2  2  0
  4  2  1  0
  5  4  1  0
  6  8  1  0
  6  5  1  0
  6  7  1  6
  8  9  2  0
 10 11  1  0
 10  8  1  0
 12 11  1  0
 13 14  1  0
 13 12  1  0
 14 10  1  0
 15 25  1  0
 14 15  1  1
 16 15  2  0
 18 17  1  0
 19 18  2  0
 20 18  1  0
 21 20  1  0
 22 21  1  0
 23 22  1  0
 24 23  1  1
 24 25  1  0
 26 24  1  0
 26 28  1  0
 27 26  2  0
M  END
$$$$
