QPR.pdb
     RDKit          3D

 28 28  0  0  1  0  0  0  0  0999 V2000
    9.4257  -21.0052   26.6893 N   0  0  0  0  0  0  0  0  0  0  0  0
    9.4365  -21.3873   25.3302 C   0  0  0  0  0  0  0  0  0  0  0  0
   10.2732  -22.2196   24.9078 O   0  0  0  0  0  0  0  0  0  0  0  0
    8.4091  -20.7545   24.4290 C   0  0  0  0  0  0  0  0  0  0  0  0
    7.4749  -19.8932   25.2115 C   0  0  0  0  0  0  0  0  0  0  0  0
    6.6227  -19.0469   24.2820 C   0  0  2  0  0  0  0  0  0  0  0  0
    6.0342  -19.9115   23.2872 N   0  0  0  0  0  0  0  0  0  0  0  0
    7.4109  -17.9606   23.6712 C   0  0  0  0  0  0  0  0  0  0  0  0
    7.6159  -18.0534   22.4057 O   0  0  0  0  0  0  0  0  0  0  0  0
    7.9373  -16.8650   24.3583 N   0  0  0  0  0  0  0  0  0  0  0  0
    7.7153  -16.6022   25.7852 C   0  0  0  0  0  0  0  0  0  0  0  0
    7.4947  -15.1143   25.7878 C   0  0  0  0  0  0  0  0  0  0  0  0
    8.5994  -14.6492   24.8708 C   0  0  0  0  0  0  0  0  0  0  0  0
    8.7493  -15.8035   23.8909 C   0  0  1  0  0  0  0  0  0  0  0  0
   10.1947  -16.1602   23.8721 C   0  0  0  0  0  0  0  0  0  0  0  0
   10.7003  -17.0348   24.6053 O   0  0  0  0  0  0  0  0  0  0  0  0
   14.8928  -13.8383   16.7620 N   0  0  0  0  0  0  0  0  0  0  0  0
   15.8261  -14.4196   17.6640 C   0  0  0  0  0  0  0  0  0  0  0  0
   17.0902  -14.3416   17.4273 N   0  0  0  0  0  0  0  0  0  0  0  0
   15.4223  -15.0982   18.8411 N   0  0  0  0  0  0  0  0  0  0  0  0
   14.0539  -15.3508   19.0996 C   0  0  0  0  0  0  0  0  0  0  0  0
   13.7225  -16.1054   20.3415 C   0  0  0  0  0  0  0  0  0  0  0  0
   12.5192  -15.5080   21.0166 C   0  0  0  0  0  0  0  0  0  0  0  0
   12.1914  -16.1457   22.3311 C   0  0  2  0  0  0  0  0  0  0  0  0
   11.0770  -15.4867   22.9817 N   0  0  0  0  0  0  0  0  0  0  0  0
   13.3596  -16.2787   23.2291 C   0  0  0  0  0  0  0  0  0  0  0  0
   14.2324  -17.1841   23.1132 O   0  0  0  0  0  0  0  0  0  0  0  0
   13.5495  -15.3823   24.2717 O   0  0  0  0  0  0  0  0  0  0  0  0
  2  1  1  0
  3  2  2  0
  4  2  1  0
  5  4  1  0
  6  8  1  0
  6  5  1  0
  6  7  1  6
  8  9  2  0
 10 11  1  0
 10  8  1  0
 12 11  1  0
 13 14  1  0
 13 12  1  0
 14 10  1  0
 15 25  1  0
 14 15  1  1
 16 15  2  0
 18 17  1  0
 19 18  2  0
 20 18  1  0
 21 20  1  0
 22 21  1  0
 23 22  1  0
 24 23  1  6
 24 25  1  0
 26 24  1  0
 26 28  1  0
 27 26  2  0
M  END
$$$$
