QPR.pdb
     RDKit          3D

 28 28  0  0  1  0  0  0  0  0999 V2000
    7.7082  -12.8011   15.1446 N   0  0  0  0  0  0  0  0  0  0  0  0
    8.2901  -13.9641   14.5949 C   0  0  0  0  0  0  0  0  0  0  0  0
    8.1361  -14.2430   13.3826 O   0  0  0  0  0  0  0  0  0  0  0  0
    9.0913  -14.8380   15.5237 C   0  0  0  0  0  0  0  0  0  0  0  0
    8.8224  -14.4852   16.9485 C   0  0  0  0  0  0  0  0  0  0  0  0
    9.6088  -15.3902   17.8808 C   0  0  2  0  0  0  0  0  0  0  0  0
    9.7017  -16.6983   17.2775 N   0  0  0  0  0  0  0  0  0  0  0  0
    8.9956  -15.4437   19.2207 C   0  0  0  0  0  0  0  0  0  0  0  0
    9.0307  -14.3546   19.9026 O   0  0  0  0  0  0  0  0  0  0  0  0
    8.3944  -16.5704   19.7853 N   0  0  0  0  0  0  0  0  0  0  0  0
    8.3163  -17.8802   19.1276 C   0  0  0  0  0  0  0  0  0  0  0  0
    6.9149  -18.3068   19.4690 C   0  0  0  0  0  0  0  0  0  0  0  0
    6.8429  -17.9443   20.9323 C   0  0  0  0  0  0  0  0  0  0  0  0
    7.7480  -16.7256   21.0353 C   0  0  1  0  0  0  0  0  0  0  0  0
    8.7072  -17.0007   22.1402 C   0  0  0  0  0  0  0  0  0  0  0  0
    9.7624  -17.6514   21.9935 O   0  0  0  0  0  0  0  0  0  0  0  0
    9.4463  -16.1912   29.4284 N   0  0  0  0  0  0  0  0  0  0  0  0
   10.1016  -14.9400   29.5944 C   0  0  0  0  0  0  0  0  0  0  0  0
   10.9970  -14.7943   30.5091 N   0  0  0  0  0  0  0  0  0  0  0  0
    9.8093  -13.8165   28.7811 N   0  0  0  0  0  0  0  0  0  0  0  0
    9.1987  -13.9771   27.5144 C   0  0  0  0  0  0  0  0  0  0  0  0
    9.7442  -15.0409   26.6243 C   0  0  0  0  0  0  0  0  0  0  0  0
    9.0276  -15.0417   25.3026 C   0  0  0  0  0  0  0  0  0  0  0  0
    9.4831  -16.1251   24.3748 C   0  0  2  0  0  0  0  0  0  0  0  0
    8.4376  -16.5101   23.4484 N   0  0  0  0  0  0  0  0  0  0  0  0
   10.0648  -17.2927   25.0727 C   0  0  0  0  0  0  0  0  0  0  0  0
    9.3869  -18.2842   25.4632 O   0  0  0  0  0  0  0  0  0  0  0  0
   11.4266  -17.3470   25.3354 O   0  0  0  0  0  0  0  0  0  0  0  0
  2  1  1  0
  3  2  2  0
  4  2  1  0
  5  4  1  0
  6  8  1  0
  6  5  1  0
  6  7  1  6
  8  9  2  0
 10 11  1  0
 10  8  1  0
 12 11  1  0
 13 14  1  0
 13 12  1  0
 14 10  1  0
 15 25  1  0
 14 15  1  1
 16 15  2  0
 18 17  1  0
 19 18  2  0
 20 18  1  0
 21 20  1  0
 22 21  1  0
 23 22  1  0
 24 23  1  1
 24 25  1  0
 26 24  1  0
 26 28  1  0
 27 26  2  0
M  END
$$$$
