QPR.pdb
     RDKit          3D

 28 28  0  0  1  0  0  0  0  0999 V2000
   10.7152  -14.4094   14.5698 N   0  0  0  0  0  0  0  0  0  0  0  0
    9.5546  -15.1059   14.9713 C   0  0  0  0  0  0  0  0  0  0  0  0
    9.3569  -16.2859   14.5975 O   0  0  0  0  0  0  0  0  0  0  0  0
    8.5824  -14.3712   15.8563 C   0  0  0  0  0  0  0  0  0  0  0  0
    8.7130  -14.8179   17.2741 C   0  0  0  0  0  0  0  0  0  0  0  0
    7.6696  -14.1415   18.1460 C   0  0  2  0  0  0  0  0  0  0  0  0
    7.8171  -12.7120   18.0101 N   0  0  0  0  0  0  0  0  0  0  0  0
    7.7804  -14.5758   19.5508 C   0  0  0  0  0  0  0  0  0  0  0  0
    8.2809  -13.7204   20.3693 O   0  0  0  0  0  0  0  0  0  0  0  0
    7.3883  -15.8235   20.0398 N   0  0  0  0  0  0  0  0  0  0  0  0
    6.7990  -16.8846   19.2145 C   0  0  0  0  0  0  0  0  0  0  0  0
    5.7155  -17.4045   20.1191 C   0  0  0  0  0  0  0  0  0  0  0  0
    6.4444  -17.4861   21.4381 C   0  0  0  0  0  0  0  0  0  0  0  0
    7.4451  -16.3429   21.3556 C   0  0  1  0  0  0  0  0  0  0  0  0
    8.7782  -16.9205   21.6811 C   0  0  0  0  0  0  0  0  0  0  0  0
    9.5795  -17.3379   20.8197 O   0  0  0  0  0  0  0  0  0  0  0  0
   10.8142  -15.2634   29.6219 N   0  0  0  0  0  0  0  0  0  0  0  0
   10.3213  -14.2738   28.7273 C   0  0  0  0  0  0  0  0  0  0  0  0
    9.9124  -13.1386   29.1788 N   0  0  0  0  0  0  0  0  0  0  0  0
   10.2564  -14.4818   27.3267 N   0  0  0  0  0  0  0  0  0  0  0  0
   10.6159  -15.7283   26.7609 C   0  0  0  0  0  0  0  0  0  0  0  0
   10.3823  -15.9068   25.2997 C   0  0  0  0  0  0  0  0  0  0  0  0
   10.7838  -17.2893   24.8661 C   0  0  0  0  0  0  0  0  0  0  0  0
   10.4686  -17.5827   23.4320 C   0  0  2  0  0  0  0  0  0  0  0  0
    9.1938  -17.0173   23.0385 N   0  0  0  0  0  0  0  0  0  0  0  0
   10.5698  -19.0180   23.0881 C   0  0  0  0  0  0  0  0  0  0  0  0
   11.6654  -19.6171   22.8990 O   0  0  0  0  0  0  0  0  0  0  0  0
    9.4246  -19.7907   22.9546 O   0  0  0  0  0  0  0  0  0  0  0  0
  2  1  1  0
  3  2  2  0
  4  2  1  0
  5  4  1  0
  6  8  1  0
  6  5  1  0
  6  7  1  1
  8  9  2  0
 10 11  1  0
 10  8  1  0
 12 11  1  0
 13 14  1  0
 13 12  1  0
 14 10  1  0
 15 25  1  0
 14 15  1  6
 16 15  2  0
 18 17  1  0
 19 18  2  0
 20 18  1  0
 21 20  1  0
 22 21  1  0
 23 22  1  0
 24 23  1  1
 24 25  1  0
 26 24  1  0
 26 28  1  0
 27 26  2  0
M  END
$$$$
