QPR.pdb
     RDKit          3D

 28 28  0  0  1  0  0  0  0  0999 V2000
    6.2303  -18.7576   17.0688 N   0  0  0  0  0  0  0  0  0  0  0  0
    7.6241  -18.8514   17.2730 C   0  0  0  0  0  0  0  0  0  0  0  0
    8.1306  -19.8939   17.7505 O   0  0  0  0  0  0  0  0  0  0  0  0
    8.4573  -17.6553   16.8946 C   0  0  0  0  0  0  0  0  0  0  0  0
    7.5943  -16.5399   16.4066 C   0  0  0  0  0  0  0  0  0  0  0  0
    8.4273  -15.2999   16.1330 C   0  0  2  0  0  0  0  0  0  0  0  0
    9.3127  -15.5785   15.0275 N   0  0  0  0  0  0  0  0  0  0  0  0
    9.1653  -14.8726   17.3359 C   0  0  0  0  0  0  0  0  0  0  0  0
   10.4289  -15.1081   17.3374 O   0  0  0  0  0  0  0  0  0  0  0  0
    8.5977  -14.2453   18.4467 N   0  0  0  0  0  0  0  0  0  0  0  0
    7.2039  -13.7903   18.5141 C   0  0  0  0  0  0  0  0  0  0  0  0
    7.3525  -12.4623   19.2047 C   0  0  0  0  0  0  0  0  0  0  0  0
    8.3197  -12.8094   20.3099 C   0  0  0  0  0  0  0  0  0  0  0  0
    9.1769  -13.9047   19.6929 C   0  0  1  0  0  0  0  0  0  0  0  0
    9.1686  -15.0426   20.6529 C   0  0  0  0  0  0  0  0  0  0  0  0
    8.2941  -15.9334   20.6613 O   0  0  0  0  0  0  0  0  0  0  0  0
   14.6344  -20.3246   19.4385 N   0  0  0  0  0  0  0  0  0  0  0  0
   14.3666  -20.8681   20.7251 C   0  0  0  0  0  0  0  0  0  0  0  0
   15.0531  -21.8670   21.1619 N   0  0  0  0  0  0  0  0  0  0  0  0
   13.3546  -20.3505   21.5720 N   0  0  0  0  0  0  0  0  0  0  0  0
   12.3279  -19.5248   21.0547 C   0  0  0  0  0  0  0  0  0  0  0  0
   11.6067  -18.6478   22.0202 C   0  0  0  0  0  0  0  0  0  0  0  0
   11.2773  -17.3247   21.3868 C   0  0  0  0  0  0  0  0  0  0  0  0
   10.5252  -16.3981   22.2912 C   0  0  2  0  0  0  0  0  0  0  0  0
   10.1990  -15.1518   21.6280 N   0  0  0  0  0  0  0  0  0  0  0  0
   11.1909  -16.1769   23.5938 C   0  0  0  0  0  0  0  0  0  0  0  0
   11.9769  -15.2155   23.8241 O   0  0  0  0  0  0  0  0  0  0  0  0
   10.9706  -17.0478   24.6518 O   0  0  0  0  0  0  0  0  0  0  0  0
  2  1  1  0
  3  2  2  0
  4  2  1  0
  5  4  1  0
  6  8  1  0
  6  5  1  0
  6  7  1  6
  8  9  2  0
 10 11  1  0
 10  8  1  0
 12 11  1  0
 13 14  1  0
 13 12  1  0
 14 10  1  0
 15 25  1  0
 14 15  1  1
 16 15  2  0
 18 17  1  0
 19 18  2  0
 20 18  1  0
 21 20  1  0
 22 21  1  0
 23 22  1  0
 24 23  1  6
 24 25  1  0
 26 24  1  0
 26 28  1  0
 27 26  2  0
M  END
$$$$
