QPR.pdb
     RDKit          3D

 28 28  0  0  1  0  0  0  0  0999 V2000
    6.0721  -18.4503   17.2073 N   0  0  0  0  0  0  0  0  0  0  0  0
    7.4183  -18.7905   16.9521 C   0  0  0  0  0  0  0  0  0  0  0  0
    7.7587  -19.9889   16.8134 O   0  0  0  0  0  0  0  0  0  0  0  0
    8.4081  -17.6593   16.8571 C   0  0  0  0  0  0  0  0  0  0  0  0
    7.8144  -16.4931   16.1401 C   0  0  0  0  0  0  0  0  0  0  0  0
    8.7992  -15.3381   16.0906 C   0  0  2  0  0  0  0  0  0  0  0  0
    9.8306  -15.6573   15.1325 N   0  0  0  0  0  0  0  0  0  0  0  0
    9.3568  -15.0503   17.4250 C   0  0  0  0  0  0  0  0  0  0  0  0
   10.5742  -15.4139   17.6196 O   0  0  0  0  0  0  0  0  0  0  0  0
    8.6679  -14.4252   18.4663 N   0  0  0  0  0  0  0  0  0  0  0  0
    7.2448  -14.0694   18.4170 C   0  0  0  0  0  0  0  0  0  0  0  0
    7.2507  -12.7098   19.0605 C   0  0  0  0  0  0  0  0  0  0  0  0
    8.1566  -12.9459   20.2442 C   0  0  0  0  0  0  0  0  0  0  0  0
    9.1300  -13.9985   19.7347 C   0  0  1  0  0  0  0  0  0  0  0  0
    9.1305  -15.0983   20.7383 C   0  0  0  0  0  0  0  0  0  0  0  0
    8.2861  -16.0175   20.7566 O   0  0  0  0  0  0  0  0  0  0  0  0
   16.5195  -16.0786   23.2058 N   0  0  0  0  0  0  0  0  0  0  0  0
   16.0280  -15.1392   22.2579 C   0  0  0  0  0  0  0  0  0  0  0  0
   16.7723  -14.1623   21.8686 N   0  0  0  0  0  0  0  0  0  0  0  0
   14.7252  -15.2281   21.7067 N   0  0  0  0  0  0  0  0  0  0  0  0
   13.9062  -16.3546   21.9587 C   0  0  0  0  0  0  0  0  0  0  0  0
   12.7783  -16.1770   22.9168 C   0  0  0  0  0  0  0  0  0  0  0  0
   11.5768  -16.9618   22.4686 C   0  0  0  0  0  0  0  0  0  0  0  0
   10.2804  -16.2404   22.6709 C   0  0  2  0  0  0  0  0  0  0  0  0
   10.1341  -15.1345   21.7463 N   0  0  0  0  0  0  0  0  0  0  0  0
   10.0483  -15.8273   24.0725 C   0  0  0  0  0  0  0  0  0  0  0  0
    9.9052  -14.6257   24.4338 O   0  0  0  0  0  0  0  0  0  0  0  0
    9.9763  -16.7774   25.0818 O   0  0  0  0  0  0  0  0  0  0  0  0
  2  1  1  0
  3  2  2  0
  4  2  1  0
  5  4  1  0
  6  8  1  0
  6  5  1  0
  6  7  1  6
  8  9  2  0
 10 11  1  0
 10  8  1  0
 12 11  1  0
 13 14  1  0
 13 12  1  0
 14 10  1  0
 15 25  1  0
 14 15  1  1
 16 15  2  0
 18 17  1  0
 19 18  2  0
 20 18  1  0
 21 20  1  0
 22 21  1  0
 23 22  1  0
 24 23  1  1
 24 25  1  0
 26 24  1  0
 26 28  1  0
 27 26  2  0
M  END
$$$$
