QPR.pdb
     RDKit          3D

 28 28  0  0  1  0  0  0  0  0999 V2000
    5.4385  -19.5186   19.9233 N   0  0  0  0  0  0  0  0  0  0  0  0
    6.6676  -19.6434   20.6065 C   0  0  0  0  0  0  0  0  0  0  0  0
    6.7728  -20.4038   21.5975 O   0  0  0  0  0  0  0  0  0  0  0  0
    7.8263  -18.8298   20.0931 C   0  0  0  0  0  0  0  0  0  0  0  0
    7.4153  -17.9999   18.9230 C   0  0  0  0  0  0  0  0  0  0  0  0
    8.5501  -17.0889   18.4886 C   0  0  2  0  0  0  0  0  0  0  0  0
    9.6430  -17.9096   18.0241 N   0  0  0  0  0  0  0  0  0  0  0  0
    8.9631  -16.1878   19.5802 C   0  0  0  0  0  0  0  0  0  0  0  0
   10.0213  -16.5288   20.2253 O   0  0  0  0  0  0  0  0  0  0  0  0
    8.2980  -15.0177   19.9518 N   0  0  0  0  0  0  0  0  0  0  0  0
    7.1453  -14.4609   19.2338 C   0  0  0  0  0  0  0  0  0  0  0  0
    7.4614  -12.9904   19.2487 C   0  0  0  0  0  0  0  0  0  0  0  0
    7.9064  -12.7972   20.6778 C   0  0  0  0  0  0  0  0  0  0  0  0
    8.5495  -14.1313   21.0268 C   0  0  1  0  0  0  0  0  0  0  0  0
    7.9210  -14.5868   22.2973 C   0  0  0  0  0  0  0  0  0  0  0  0
    6.7288  -14.9454   22.3888 O   0  0  0  0  0  0  0  0  0  0  0  0
    7.3490  -21.8957   25.0201 N   0  0  0  0  0  0  0  0  0  0  0  0
    6.7283  -21.2208   26.1071 C   0  0  0  0  0  0  0  0  0  0  0  0
    5.9953  -21.8739   26.9413 N   0  0  0  0  0  0  0  0  0  0  0  0
    6.8810  -19.8282   26.3225 N   0  0  0  0  0  0  0  0  0  0  0  0
    7.3605  -18.9831   25.2932 C   0  0  0  0  0  0  0  0  0  0  0  0
    7.5540  -17.5436   25.6275 C   0  0  0  0  0  0  0  0  0  0  0  0
    8.0420  -16.7838   24.4254 C   0  0  0  0  0  0  0  0  0  0  0  0
    8.2575  -15.3251   24.6855 C   0  0  2  0  0  0  0  0  0  0  0  0
    8.6926  -14.6279   23.4921 N   0  0  0  0  0  0  0  0  0  0  0  0
    9.1432  -15.0568   25.8398 C   0  0  0  0  0  0  0  0  0  0  0  0
   10.4029  -15.0155   25.7611 O   0  0  0  0  0  0  0  0  0  0  0  0
    8.6060  -14.8320   27.0997 O   0  0  0  0  0  0  0  0  0  0  0  0
  2  1  1  0
  3  2  2  0
  4  2  1  0
  5  4  1  0
  6  8  1  0
  6  5  1  0
  6  7  1  1
  8  9  2  0
 10 11  1  0
 10  8  1  0
 12 11  1  0
 13 14  1  0
 13 12  1  0
 14 10  1  0
 15 25  1  0
 14 15  1  1
 16 15  2  0
 18 17  1  0
 19 18  2  0
 20 18  1  0
 21 20  1  0
 22 21  1  0
 23 22  1  0
 24 23  1  6
 24 25  1  0
 26 24  1  0
 26 28  1  0
 27 26  2  0
M  END
$$$$
