QPR.pdb
     RDKit          3D

 28 28  0  0  1  0  0  0  0  0999 V2000
    7.6631  -19.8294   17.5720 N   0  0  0  0  0  0  0  0  0  0  0  0
    6.7568  -18.7480   17.6221 C   0  0  0  0  0  0  0  0  0  0  0  0
    5.5200  -18.9515   17.6302 O   0  0  0  0  0  0  0  0  0  0  0  0
    7.3419  -17.3609   17.6642 C   0  0  0  0  0  0  0  0  0  0  0  0
    8.3090  -17.1583   16.5460 C   0  0  0  0  0  0  0  0  0  0  0  0
    8.8641  -15.7449   16.5686 C   0  0  2  0  0  0  0  0  0  0  0  0
    9.8705  -15.6323   15.5399 N   0  0  0  0  0  0  0  0  0  0  0  0
    9.3955  -15.3981   17.8996 C   0  0  0  0  0  0  0  0  0  0  0  0
   10.5636  -15.8561   18.1791 O   0  0  0  0  0  0  0  0  0  0  0  0
    8.7313  -14.6250   18.8539 N   0  0  0  0  0  0  0  0  0  0  0  0
    7.3968  -14.0450   18.6618 C   0  0  0  0  0  0  0  0  0  0  0  0
    7.5716  -12.6780   19.2644 C   0  0  0  0  0  0  0  0  0  0  0  0
    8.3186  -13.0069   20.5339 C   0  0  0  0  0  0  0  0  0  0  0  0
    9.1448  -14.2248   20.1475 C   0  0  1  0  0  0  0  0  0  0  0  0
    8.8749  -15.2657   21.1772 C   0  0  0  0  0  0  0  0  0  0  0  0
    8.0425  -16.1843   21.0298 O   0  0  0  0  0  0  0  0  0  0  0  0
   14.1269  -20.5267   19.6034 N   0  0  0  0  0  0  0  0  0  0  0  0
   13.8093  -21.0482   20.8878 C   0  0  0  0  0  0  0  0  0  0  0  0
   14.2259  -22.2175   21.2330 N   0  0  0  0  0  0  0  0  0  0  0  0
   13.0366  -20.3251   21.8307 N   0  0  0  0  0  0  0  0  0  0  0  0
   12.4519  -19.0822   21.4889 C   0  0  0  0  0  0  0  0  0  0  0  0
   11.8088  -18.3062   22.5870 C   0  0  0  0  0  0  0  0  0  0  0  0
   11.1807  -17.0509   22.0482 C   0  0  0  0  0  0  0  0  0  0  0  0
   10.1979  -16.4222   22.9867 C   0  0  2  0  0  0  0  0  0  0  0  0
    9.5868  -15.2422   22.4090 N   0  0  0  0  0  0  0  0  0  0  0  0
   10.7537  -16.1582   24.3321 C   0  0  0  0  0  0  0  0  0  0  0  0
   10.6368  -16.9532   25.3064 O   0  0  0  0  0  0  0  0  0  0  0  0
   11.4501  -14.9848   24.5863 O   0  0  0  0  0  0  0  0  0  0  0  0
  2  1  1  0
  3  2  2  0
  4  2  1  0
  5  4  1  0
  6  8  1  0
  6  5  1  0
  6  7  1  6
  8  9  2  0
 10 11  1  0
 10  8  1  0
 12 11  1  0
 13 14  1  0
 13 12  1  0
 14 10  1  0
 15 25  1  0
 14 15  1  1
 16 15  2  0
 18 17  1  0
 19 18  2  0
 20 18  1  0
 21 20  1  0
 22 21  1  0
 23 22  1  0
 24 23  1  6
 24 25  1  0
 26 24  1  0
 26 28  1  0
 27 26  2  0
M  END
$$$$
