QPR.pdb
     RDKit          3D

 28 28  0  0  1  0  0  0  0  0999 V2000
    6.3298  -19.2900   15.8828 N   0  0  0  0  0  0  0  0  0  0  0  0
    6.6752  -18.4580   16.9699 C   0  0  0  0  0  0  0  0  0  0  0  0
    5.9534  -18.4129   17.9937 O   0  0  0  0  0  0  0  0  0  0  0  0
    7.9336  -17.6411   16.8389 C   0  0  0  0  0  0  0  0  0  0  0  0
    7.6225  -16.2574   16.3748 C   0  0  0  0  0  0  0  0  0  0  0  0
    8.8699  -15.3916   16.4008 C   0  0  2  0  0  0  0  0  0  0  0  0
    9.8393  -15.9588   15.4940 N   0  0  0  0  0  0  0  0  0  0  0  0
    9.4049  -15.2618   17.7687 C   0  0  0  0  0  0  0  0  0  0  0  0
   10.4897  -15.9060   18.0151 O   0  0  0  0  0  0  0  0  0  0  0  0
    8.8264  -14.5054   18.7898 N   0  0  0  0  0  0  0  0  0  0  0  0
    7.5592  -13.7763   18.6594 C   0  0  0  0  0  0  0  0  0  0  0  0
    7.8765  -12.4891   19.3701 C   0  0  0  0  0  0  0  0  0  0  0  0
    8.5872  -12.9973   20.6007 C   0  0  0  0  0  0  0  0  0  0  0  0
    9.2815  -14.2582   20.1075 C   0  0  1  0  0  0  0  0  0  0  0  0
    8.9064  -15.3468   21.0513 C   0  0  0  0  0  0  0  0  0  0  0  0
    8.1037  -16.2602   20.7690 O   0  0  0  0  0  0  0  0  0  0  0  0
   15.2869  -19.6791   20.2763 N   0  0  0  0  0  0  0  0  0  0  0  0
   14.7136  -20.4421   21.3306 C   0  0  0  0  0  0  0  0  0  0  0  0
   15.2086  -21.5900   21.6425 N   0  0  0  0  0  0  0  0  0  0  0  0
   13.5949  -19.9891   22.0738 N   0  0  0  0  0  0  0  0  0  0  0  0
   12.9816  -18.7483   21.7779 C   0  0  0  0  0  0  0  0  0  0  0  0
   11.7887  -18.3673   22.5862 C   0  0  0  0  0  0  0  0  0  0  0  0
   11.2284  -17.0546   22.1135 C   0  0  0  0  0  0  0  0  0  0  0  0
   10.0673  -16.5713   22.9261 C   0  0  2  0  0  0  0  0  0  0  0  0
    9.4750  -15.3785   22.3553 N   0  0  0  0  0  0  0  0  0  0  0  0
   10.3823  -16.4029   24.3618 C   0  0  0  0  0  0  0  0  0  0  0  0
    9.9565  -17.1737   25.2671 O   0  0  0  0  0  0  0  0  0  0  0  0
   11.1863  -15.3541   24.7860 O   0  0  0  0  0  0  0  0  0  0  0  0
  2  1  1  0
  3  2  2  0
  4  2  1  0
  5  4  1  0
  6  8  1  0
  6  5  1  0
  6  7  1  6
  8  9  2  0
 10 11  1  0
 10  8  1  0
 12 11  1  0
 13 14  1  0
 13 12  1  0
 14 10  1  0
 15 25  1  0
 14 15  1  1
 16 15  2  0
 18 17  1  0
 19 18  2  0
 20 18  1  0
 21 20  1  0
 22 21  1  0
 23 22  1  0
 24 23  1  6
 24 25  1  0
 26 24  1  0
 26 28  1  0
 27 26  2  0
M  END
$$$$
