QPR.pdb
     RDKit          3D

 28 28  0  0  1  0  0  0  0  0999 V2000
    7.4584  -17.2692   16.1611 N   0  0  0  0  0  0  0  0  0  0  0  0
    8.7324  -16.7152   15.9098 C   0  0  0  0  0  0  0  0  0  0  0  0
    9.6026  -17.3709   15.2899 O   0  0  0  0  0  0  0  0  0  0  0  0
    8.9885  -15.3202   16.4160 C   0  0  0  0  0  0  0  0  0  0  0  0
    7.7765  -14.7688   17.0896 C   0  0  0  0  0  0  0  0  0  0  0  0
    8.1119  -13.4832   17.8252 C   0  0  2  0  0  0  0  0  0  0  0  0
    8.8396  -12.6189   16.9269 N   0  0  0  0  0  0  0  0  0  0  0  0
    8.8674  -13.7539   19.0622 C   0  0  0  0  0  0  0  0  0  0  0  0
   10.1242  -13.4862   19.0272 O   0  0  0  0  0  0  0  0  0  0  0  0
    8.3231  -14.2694   20.2402 N   0  0  0  0  0  0  0  0  0  0  0  0
    6.8952  -14.5465   20.4365 C   0  0  0  0  0  0  0  0  0  0  0  0
    6.6817  -14.0523   21.8411 C   0  0  0  0  0  0  0  0  0  0  0  0
    7.8911  -14.6208   22.5424 C   0  0  0  0  0  0  0  0  0  0  0  0
    8.9567  -14.6214   21.4564 C   0  0  1  0  0  0  0  0  0  0  0  0
    9.5279  -15.9959   21.4220 C   0  0  0  0  0  0  0  0  0  0  0  0
    9.1613  -16.8767   20.6169 O   0  0  0  0  0  0  0  0  0  0  0  0
   16.7168  -13.5677   20.6381 N   0  0  0  0  0  0  0  0  0  0  0  0
   16.8520  -14.5819   19.6504 C   0  0  0  0  0  0  0  0  0  0  0  0
   18.0094  -14.8506   19.1523 N   0  0  0  0  0  0  0  0  0  0  0  0
   15.7463  -15.3307   19.1751 N   0  0  0  0  0  0  0  0  0  0  0  0
   14.4438  -15.1003   19.6788 C   0  0  0  0  0  0  0  0  0  0  0  0
   13.9899  -15.9550   20.8124 C   0  0  0  0  0  0  0  0  0  0  0  0
   12.5615  -15.6471   21.1664 C   0  0  0  0  0  0  0  0  0  0  0  0
   11.8831  -16.7437   21.9275 C   0  0  2  0  0  0  0  0  0  0  0  0
   10.5493  -16.3597   22.3434 N   0  0  0  0  0  0  0  0  0  0  0  0
   12.6882  -17.2644   23.0542 C   0  0  0  0  0  0  0  0  0  0  0  0
   12.6467  -16.7885   24.2233 O   0  0  0  0  0  0  0  0  0  0  0  0
   13.5518  -18.3343   22.8647 O   0  0  0  0  0  0  0  0  0  0  0  0
  2  1  1  0
  3  2  2  0
  4  2  1  0
  5  4  1  0
  6  8  1  0
  6  5  1  0
  6  7  1  6
  8  9  2  0
 10 11  1  0
 10  8  1  0
 12 11  1  0
 13 14  1  0
 13 12  1  0
 14 10  1  0
 15 25  1  0
 14 15  1  6
 16 15  2  0
 18 17  1  0
 19 18  2  0
 20 18  1  0
 21 20  1  0
 22 21  1  0
 23 22  1  0
 24 23  1  1
 24 25  1  0
 26 24  1  0
 26 28  1  0
 27 26  2  0
M  END
$$$$
