QPR.pdb
     RDKit          3D

 28 28  0  0  1  0  0  0  0  0999 V2000
    5.7620  -18.9633   17.1906 N   0  0  0  0  0  0  0  0  0  0  0  0
    7.1056  -18.5941   17.4180 C   0  0  0  0  0  0  0  0  0  0  0  0
    7.9754  -19.4648   17.6558 O   0  0  0  0  0  0  0  0  0  0  0  0
    7.4349  -17.1256   17.3616 C   0  0  0  0  0  0  0  0  0  0  0  0
    8.2586  -16.8120   16.1575 C   0  0  0  0  0  0  0  0  0  0  0  0
    8.7904  -15.3912   16.2287 C   0  0  2  0  0  0  0  0  0  0  0  0
    9.7343  -15.2018   15.1531 N   0  0  0  0  0  0  0  0  0  0  0  0
    9.3911  -15.1082   17.5452 C   0  0  0  0  0  0  0  0  0  0  0  0
   10.5957  -15.5222   17.7179 O   0  0  0  0  0  0  0  0  0  0  0  0
    8.7549  -14.4376   18.5917 N   0  0  0  0  0  0  0  0  0  0  0  0
    7.4108  -13.8551   18.5015 C   0  0  0  0  0  0  0  0  0  0  0  0
    7.5971  -12.5510   19.2277 C   0  0  0  0  0  0  0  0  0  0  0  0
    8.3893  -12.9937   20.4335 C   0  0  0  0  0  0  0  0  0  0  0  0
    9.2099  -14.1603   19.9034 C   0  0  1  0  0  0  0  0  0  0  0  0
    8.9824  -15.2985   20.8358 C   0  0  0  0  0  0  0  0  0  0  0  0
    8.1894  -16.2342   20.6036 O   0  0  0  0  0  0  0  0  0  0  0  0
   15.0414  -19.8740   19.3287 N   0  0  0  0  0  0  0  0  0  0  0  0
   14.7063  -20.5204   20.5503 C   0  0  0  0  0  0  0  0  0  0  0  0
   15.2997  -21.6126   20.8891 N   0  0  0  0  0  0  0  0  0  0  0  0
   13.7255  -20.0077   21.4360 N   0  0  0  0  0  0  0  0  0  0  0  0
   12.9756  -18.8554   21.0996 C   0  0  0  0  0  0  0  0  0  0  0  0
   12.0279  -18.3350   22.1256 C   0  0  0  0  0  0  0  0  0  0  0  0
   11.2950  -17.1304   21.6040 C   0  0  0  0  0  0  0  0  0  0  0  0
   10.2991  -16.5697   22.5714 C   0  0  2  0  0  0  0  0  0  0  0  0
    9.6910  -15.3544   22.0685 N   0  0  0  0  0  0  0  0  0  0  0  0
   10.8381  -16.3968   23.9383 C   0  0  0  0  0  0  0  0  0  0  0  0
   11.6206  -15.4624   24.2694 O   0  0  0  0  0  0  0  0  0  0  0  0
   10.4935  -17.2860   24.9467 O   0  0  0  0  0  0  0  0  0  0  0  0
  2  1  1  0
  3  2  2  0
  4  2  1  0
  5  4  1  0
  6  8  1  0
  6  5  1  0
  6  7  1  6
  8  9  2  0
 10 11  1  0
 10  8  1  0
 12 11  1  0
 13 14  1  0
 13 12  1  0
 14 10  1  0
 15 25  1  0
 14 15  1  1
 16 15  2  0
 18 17  1  0
 19 18  2  0
 20 18  1  0
 21 20  1  0
 22 21  1  0
 23 22  1  0
 24 23  1  6
 24 25  1  0
 26 24  1  0
 26 28  1  0
 27 26  2  0
M  END
$$$$
