QPR.pdb
     RDKit          3D

 28 28  0  0  1  0  0  0  0  0999 V2000
    6.9741  -19.5623   17.3020 N   0  0  0  0  0  0  0  0  0  0  0  0
    6.9311  -19.0421   15.9903 C   0  0  0  0  0  0  0  0  0  0  0  0
    6.4307  -19.7099   15.0548 O   0  0  0  0  0  0  0  0  0  0  0  0
    7.5077  -17.6675   15.7755 C   0  0  0  0  0  0  0  0  0  0  0  0
    8.0397  -17.1093   17.0531 C   0  0  0  0  0  0  0  0  0  0  0  0
    8.7818  -15.8087   16.8003 C   0  0  2  0  0  0  0  0  0  0  0  0
    9.8081  -16.0518   15.8148 N   0  0  0  0  0  0  0  0  0  0  0  0
    9.3373  -15.2559   18.0494 C   0  0  0  0  0  0  0  0  0  0  0  0
   10.5630  -15.5494   18.3017 O   0  0  0  0  0  0  0  0  0  0  0  0
    8.6384  -14.4551   18.9548 N   0  0  0  0  0  0  0  0  0  0  0  0
    7.3024  -13.9010   18.7051 C   0  0  0  0  0  0  0  0  0  0  0  0
    7.4442  -12.5092   19.2579 C   0  0  0  0  0  0  0  0  0  0  0  0
    8.1611  -12.7784   20.5584 C   0  0  0  0  0  0  0  0  0  0  0  0
    9.0123  -13.9992   20.2420 C   0  0  1  0  0  0  0  0  0  0  0  0
    8.7280  -15.0026   21.3045 C   0  0  0  0  0  0  0  0  0  0  0  0
    7.7424  -15.7685   21.2859 O   0  0  0  0  0  0  0  0  0  0  0  0
   13.4026  -20.0588   23.9085 N   0  0  0  0  0  0  0  0  0  0  0  0
   12.9000  -21.0661   23.0395 C   0  0  0  0  0  0  0  0  0  0  0  0
   13.6025  -22.1174   22.7920 N   0  0  0  0  0  0  0  0  0  0  0  0
   11.6308  -20.9667   22.4163 N   0  0  0  0  0  0  0  0  0  0  0  0
   11.1731  -19.7328   21.8954 C   0  0  0  0  0  0  0  0  0  0  0  0
   10.6221  -18.7451   22.8662 C   0  0  0  0  0  0  0  0  0  0  0  0
   10.3448  -17.4339   22.1848 C   0  0  0  0  0  0  0  0  0  0  0  0
    9.8322  -16.3743   23.1103 C   0  0  2  0  0  0  0  0  0  0  0  0
    9.6071  -15.1221   22.4169 N   0  0  0  0  0  0  0  0  0  0  0  0
   10.6633  -16.1973   24.3214 C   0  0  0  0  0  0  0  0  0  0  0  0
   10.4783  -16.8333   25.3967 O   0  0  0  0  0  0  0  0  0  0  0  0
   11.7164  -15.2932   24.3244 O   0  0  0  0  0  0  0  0  0  0  0  0
  2  1  1  0
  3  2  2  0
  4  2  1  0
  5  4  1  0
  6  8  1  0
  6  5  1  0
  6  7  1  6
  8  9  2  0
 10 11  1  0
 10  8  1  0
 12 11  1  0
 13 14  1  0
 13 12  1  0
 14 10  1  0
 15 25  1  0
 14 15  1  1
 16 15  2  0
 18 17  1  0
 19 18  2  0
 20 18  1  0
 21 20  1  0
 22 21  1  0
 23 22  1  0
 24 23  1  6
 24 25  1  0
 26 24  1  0
 26 28  1  0
 27 26  2  0
M  END
$$$$
