QPR.pdb
     RDKit          3D

 28 28  0  0  1  0  0  0  0  0999 V2000
    7.8769  -19.6517   17.1414 N   0  0  0  0  0  0  0  0  0  0  0  0
    7.3242  -18.5400   16.4693 C   0  0  0  0  0  0  0  0  0  0  0  0
    6.1293  -18.5524   16.0904 O   0  0  0  0  0  0  0  0  0  0  0  0
    8.2281  -17.3585   16.2342 C   0  0  0  0  0  0  0  0  0  0  0  0
    7.4319  -16.1119   16.0367 C   0  0  0  0  0  0  0  0  0  0  0  0
    8.3442  -14.8996   15.9714 C   0  0  2  0  0  0  0  0  0  0  0  0
    9.2266  -15.0518   14.8392 N   0  0  0  0  0  0  0  0  0  0  0  0
    9.0898  -14.7203   17.2308 C   0  0  0  0  0  0  0  0  0  0  0  0
   10.3409  -15.0130   17.1939 O   0  0  0  0  0  0  0  0  0  0  0  0
    8.5417  -14.2657   18.4319 N   0  0  0  0  0  0  0  0  0  0  0  0
    7.1254  -13.9269   18.6159 C   0  0  0  0  0  0  0  0  0  0  0  0
    7.2192  -12.6772   19.4478 C   0  0  0  0  0  0  0  0  0  0  0  0
    8.2670  -13.0725   20.4595 C   0  0  0  0  0  0  0  0  0  0  0  0
    9.1630  -14.0243   19.6809 C   0  0  1  0  0  0  0  0  0  0  0  0
    9.2859  -15.2600   20.5022 C   0  0  0  0  0  0  0  0  0  0  0  0
    8.4560  -16.1923   20.4765 O   0  0  0  0  0  0  0  0  0  0  0  0
   14.4473  -20.4669   18.3150 N   0  0  0  0  0  0  0  0  0  0  0  0
   14.8635  -19.6401   19.3948 C   0  0  0  0  0  0  0  0  0  0  0  0
   15.6989  -20.0869   20.2678 N   0  0  0  0  0  0  0  0  0  0  0  0
   14.3911  -18.3141   19.5611 N   0  0  0  0  0  0  0  0  0  0  0  0
   13.8398  -17.8896   20.7936 C   0  0  0  0  0  0  0  0  0  0  0  0
   12.4338  -17.3952   20.7775 C   0  0  0  0  0  0  0  0  0  0  0  0
   11.9572  -17.1145   22.1756 C   0  0  0  0  0  0  0  0  0  0  0  0
   10.5619  -16.5745   22.2359 C   0  0  2  0  0  0  0  0  0  0  0  0
   10.3977  -15.4203   21.3755 N   0  0  0  0  0  0  0  0  0  0  0  0
   10.0904  -16.3123   23.6135 C   0  0  0  0  0  0  0  0  0  0  0  0
    9.8321  -15.1585   24.0574 O   0  0  0  0  0  0  0  0  0  0  0  0
    9.9069  -17.3607   24.5044 O   0  0  0  0  0  0  0  0  0  0  0  0
  2  1  1  0
  3  2  2  0
  4  2  1  0
  5  4  1  0
  6  8  1  0
  6  5  1  0
  6  7  1  6
  8  9  2  0
 10 11  1  0
 10  8  1  0
 12 11  1  0
 13 14  1  0
 13 12  1  0
 14 10  1  0
 15 25  1  0
 14 15  1  1
 16 15  2  0
 18 17  1  0
 19 18  2  0
 20 18  1  0
 21 20  1  0
 22 21  1  0
 23 22  1  0
 24 23  1  1
 24 25  1  0
 26 24  1  0
 26 28  1  0
 27 26  2  0
M  END
$$$$
