QPR.pdb
     RDKit          3D

 28 28  0  0  1  0  0  0  0  0999 V2000
    9.2232  -17.4093   15.7161 N   0  0  0  0  0  0  0  0  0  0  0  0
    8.7445  -17.6456   17.0231 C   0  0  0  0  0  0  0  0  0  0  0  0
    8.6099  -18.8158   17.4518 O   0  0  0  0  0  0  0  0  0  0  0  0
    8.4090  -16.4405   17.8617 C   0  0  0  0  0  0  0  0  0  0  0  0
    8.6662  -15.1796   17.1062 C   0  0  0  0  0  0  0  0  0  0  0  0
    8.3248  -13.9681   17.9559 C   0  0  2  0  0  0  0  0  0  0  0  0
    8.6666  -12.7780   17.2139 N   0  0  0  0  0  0  0  0  0  0  0  0
    9.0079  -14.0184   19.2617 C   0  0  0  0  0  0  0  0  0  0  0  0
   10.2644  -13.7475   19.2534 O   0  0  0  0  0  0  0  0  0  0  0  0
    8.3969  -14.3333   20.4770 N   0  0  0  0  0  0  0  0  0  0  0  0
    6.9702  -14.6443   20.6265 C   0  0  0  0  0  0  0  0  0  0  0  0
    6.6318  -13.9088   21.8943 C   0  0  0  0  0  0  0  0  0  0  0  0
    7.8061  -14.2717   22.7700 C   0  0  0  0  0  0  0  0  0  0  0  0
    8.9500  -14.4183   21.7775 C   0  0  1  0  0  0  0  0  0  0  0  0
    9.5760  -15.7429   22.0428 C   0  0  0  0  0  0  0  0  0  0  0  0
    9.0643  -16.8296   21.7028 O   0  0  0  0  0  0  0  0  0  0  0  0
   17.0588  -16.1758   19.3300 N   0  0  0  0  0  0  0  0  0  0  0  0
   16.7688  -15.0305   20.1216 C   0  0  0  0  0  0  0  0  0  0  0  0
   17.5516  -14.0077   20.0919 N   0  0  0  0  0  0  0  0  0  0  0  0
   15.6308  -14.9583   20.9635 N   0  0  0  0  0  0  0  0  0  0  0  0
   14.7482  -16.0580   21.0864 C   0  0  0  0  0  0  0  0  0  0  0  0
   13.6226  -15.9242   22.0542 C   0  0  0  0  0  0  0  0  0  0  0  0
   12.7412  -17.1414   22.0098 C   0  0  0  0  0  0  0  0  0  0  0  0
   11.5494  -17.0513   22.9118 C   0  0  2  0  0  0  0  0  0  0  0  0
   10.8259  -15.8108   22.7193 N   0  0  0  0  0  0  0  0  0  0  0  0
   11.8686  -17.2932   24.3360 C   0  0  0  0  0  0  0  0  0  0  0  0
   12.5252  -18.2908   24.7468 O   0  0  0  0  0  0  0  0  0  0  0  0
   11.4442  -16.4022   25.3119 O   0  0  0  0  0  0  0  0  0  0  0  0
  2  1  1  0
  3  2  2  0
  4  2  1  0
  5  4  1  0
  6  8  1  0
  6  5  1  0
  6  7  1  6
  8  9  2  0
 10 11  1  0
 10  8  1  0
 12 11  1  0
 13 14  1  0
 13 12  1  0
 14 10  1  0
 15 25  1  0
 14 15  1  6
 16 15  2  0
 18 17  1  0
 19 18  2  0
 20 18  1  0
 21 20  1  0
 22 21  1  0
 23 22  1  0
 24 23  1  6
 24 25  1  0
 26 24  1  0
 26 28  1  0
 27 26  2  0
M  END
$$$$
