LNP.pdb
     RDKit          3D

 24 24  0  0  1  0  0  0  0  0999 V2000
    7.5735  -13.2336   20.6649 C   0  0  0  0  0  0  0  0  0  0  0  0
    8.4071  -13.7030   19.5208 C   0  0  2  0  0  0  0  0  0  0  0  0
    8.8035  -12.5280   18.6549 C   0  0  0  0  0  0  0  0  0  0  0  0
    7.7477  -14.8007   18.7028 C   0  0  0  0  0  0  0  0  0  0  0  0
    7.4622  -15.9486   19.6300 C   0  0  2  0  0  0  0  0  0  0  0  0
    6.5341  -15.5037   20.6514 N   0  0  0  0  0  0  0  0  0  0  0  0
    8.7046  -16.4974   20.2372 C   0  0  0  0  0  0  0  0  0  0  0  0
    9.4516  -17.1563   19.4767 O   0  0  0  0  0  0  0  0  0  0  0  0
   12.9029  -17.9474   22.3563 N   0  0  0  0  0  0  0  0  0  0  0  0
   12.6991  -16.5761   22.0409 C   0  0  0  0  0  0  0  0  0  0  0  0
   13.6012  -15.7361   22.2474 O   0  0  0  0  0  0  0  0  0  0  0  0
   11.4065  -16.0679   21.4522 C   0  0  0  0  0  0  0  0  0  0  0  0
   10.2798  -16.7768   22.1922 C   0  0  2  0  0  0  0  0  0  0  0  0
    9.0474  -16.3070   21.5836 N   0  0  0  0  0  0  0  0  0  0  0  0
   10.2571  -16.5334   23.6292 C   0  0  0  0  0  0  0  0  0  0  0  0
   11.3059  -16.8947   24.2769 O   0  0  0  0  0  0  0  0  0  0  0  0
    9.2261  -15.9487   24.3912 N   0  0  0  0  0  0  0  0  0  0  0  0
    7.9437  -15.4587   23.9461 C   0  0  0  0  0  0  0  0  0  0  0  0
    7.0606  -15.9994   25.0829 C   0  0  0  0  0  0  0  0  0  0  0  0
    7.8462  -15.4076   26.2611 C   0  0  0  0  0  0  0  0  0  0  0  0
    9.2825  -15.7318   25.8346 C   0  0  1  0  0  0  0  0  0  0  0  0
    9.6253  -16.9823   26.5662 C   0  0  0  0  0  0  0  0  0  0  0  0
    9.6127  -18.1531   25.8177 O   0  0  0  0  0  0  0  0  0  0  0  0
    9.9154  -17.0328   27.7849 O   0  0  0  0  0  0  0  0  0  0  0  0
  2  1  1  1
  2  3  1  0
  4  5  1  0
  4  2  1  0
  5  6  1  1
  5  7  1  0
  7  8  2  0
  9 10  1  0
 10 12  1  0
 11 10  2  0
 13 12  1  6
 14  7  1  0
 14 13  1  0
 15 13  1  0
 15 16  2  0
 17 15  1  0
 18 17  1  0
 19 18  1  0
 20 21  1  0
 20 19  1  0
 21 17  1  0
 21 22  1  1
 23 22  1  0
 24 22  2  0
M  END
$$$$
