LNP.pdb
     RDKit          3D

 24 24  0  0  1  0  0  0  0  0999 V2000
    5.5628  -13.1245   26.4782 C   0  0  0  0  0  0  0  0  0  0  0  0
    6.9304  -12.9179   27.0361 C   0  0  2  0  0  0  0  0  0  0  0  0
    7.0176  -11.5616   27.6997 C   0  0  0  0  0  0  0  0  0  0  0  0
    8.0364  -13.1092   26.0118 C   0  0  0  0  0  0  0  0  0  0  0  0
    8.1348  -14.5802   25.7193 C   0  0  2  0  0  0  0  0  0  0  0  0
    8.5933  -15.2636   26.9132 N   0  0  0  0  0  0  0  0  0  0  0  0
    9.0296  -14.8606   24.5643 C   0  0  0  0  0  0  0  0  0  0  0  0
   10.1729  -14.3492   24.6091 O   0  0  0  0  0  0  0  0  0  0  0  0
   12.5008  -16.3977   22.3857 N   0  0  0  0  0  0  0  0  0  0  0  0
   11.3309  -16.9564   22.9695 C   0  0  0  0  0  0  0  0  0  0  0  0
   11.3410  -17.3562   24.1536 O   0  0  0  0  0  0  0  0  0  0  0  0
   10.0374  -17.0967   22.2062 C   0  0  0  0  0  0  0  0  0  0  0  0
    9.3723  -15.7266   22.2162 C   0  0  2  0  0  0  0  0  0  0  0  0
    8.6434  -15.6479   23.4701 N   0  0  0  0  0  0  0  0  0  0  0  0
    8.4731  -15.4861   21.0944 C   0  0  0  0  0  0  0  0  0  0  0  0
    7.7119  -16.4667   20.7644 O   0  0  0  0  0  0  0  0  0  0  0  0
    8.3374  -14.3093   20.3315 N   0  0  0  0  0  0  0  0  0  0  0  0
    8.8457  -12.9886   20.6145 C   0  0  0  0  0  0  0  0  0  0  0  0
    9.3353  -12.6021   19.2089 C   0  0  0  0  0  0  0  0  0  0  0  0
    8.0315  -12.8774   18.4475 C   0  0  0  0  0  0  0  0  0  0  0  0
    7.6258  -14.2234   19.0588 C   0  0  1  0  0  0  0  0  0  0  0  0
    8.1080  -15.2445   18.0886 C   0  0  0  0  0  0  0  0  0  0  0  0
    9.3719  -15.7697   18.3293 O   0  0  0  0  0  0  0  0  0  0  0  0
    7.4537  -15.6429   17.0960 O   0  0  0  0  0  0  0  0  0  0  0  0
  2  1  1  6
  2  3  1  0
  4  5  1  0
  4  2  1  0
  5  6  1  1
  5  7  1  0
  7  8  2  0
  9 10  1  0
 10 12  1  0
 11 10  2  0
 13 12  1  6
 14  7  1  0
 14 13  1  0
 15 13  1  0
 15 16  2  0
 17 15  1  0
 18 17  1  0
 19 18  1  0
 20 21  1  0
 20 19  1  0
 21 17  1  0
 21 22  1  6
 23 22  1  0
 24 22  2  0
M  END
$$$$
