LNP.pdb
     RDKit          3D

 24 24  0  0  1  0  0  0  0  0999 V2000
    9.5364  -13.0599   19.4552 C   0  0  0  0  0  0  0  0  0  0  0  0
    8.0893  -13.3507   19.2416 C   0  0  2  0  0  0  0  0  0  0  0  0
    7.2843  -12.8595   20.4240 C   0  0  0  0  0  0  0  0  0  0  0  0
    7.8044  -14.8129   18.9422 C   0  0  0  0  0  0  0  0  0  0  0  0
    8.4312  -15.6309   20.0362 C   0  0  2  0  0  0  0  0  0  0  0  0
    8.5401  -17.0053   19.5871 N   0  0  0  0  0  0  0  0  0  0  0  0
    7.6645  -15.5420   21.3082 C   0  0  0  0  0  0  0  0  0  0  0  0
    6.4269  -15.7204   21.2256 O   0  0  0  0  0  0  0  0  0  0  0  0
    5.7766  -17.4620   25.5227 N   0  0  0  0  0  0  0  0  0  0  0  0
    7.1773  -17.4985   25.2817 C   0  0  0  0  0  0  0  0  0  0  0  0
    7.9683  -17.8449   26.1853 O   0  0  0  0  0  0  0  0  0  0  0  0
    7.7757  -17.1266   23.9479 C   0  0  0  0  0  0  0  0  0  0  0  0
    7.6817  -15.6107   23.8333 C   0  0  2  0  0  0  0  0  0  0  0  0
    8.2648  -15.2727   22.5466 N   0  0  0  0  0  0  0  0  0  0  0  0
    8.3585  -14.8836   24.9001 C   0  0  0  0  0  0  0  0  0  0  0  0
    9.5469  -15.2798   25.1839 O   0  0  0  0  0  0  0  0  0  0  0  0
    7.8675  -13.7994   25.6543 N   0  0  0  0  0  0  0  0  0  0  0  0
    6.6405  -13.0607   25.4769 C   0  0  0  0  0  0  0  0  0  0  0  0
    6.2111  -12.9311   26.9478 C   0  0  0  0  0  0  0  0  0  0  0  0
    7.5100  -12.3234   27.4947 C   0  0  0  0  0  0  0  0  0  0  0  0
    8.5508  -13.2120   26.8040 C   0  0  1  0  0  0  0  0  0  0  0  0
    8.9070  -14.2422   27.8180 C   0  0  0  0  0  0  0  0  0  0  0  0
    9.7864  -13.8409   28.8165 O   0  0  0  0  0  0  0  0  0  0  0  0
    8.4690  -15.4170   27.8180 O   0  0  0  0  0  0  0  0  0  0  0  0
  2  1  1  1
  2  3  1  0
  4  5  1  0
  4  2  1  0
  5  6  1  6
  5  7  1  0
  7  8  2  0
  9 10  1  0
 10 12  1  0
 11 10  2  0
 13 12  1  1
 14  7  1  0
 14 13  1  0
 15 13  1  0
 15 16  2  0
 17 15  1  0
 18 17  1  0
 19 18  1  0
 20 21  1  0
 20 19  1  0
 21 17  1  0
 21 22  1  1
 23 22  1  0
 24 22  2  0
M  END
$$$$
