LNP.pdb
     RDKit          3D

 24 24  0  0  1  0  0  0  0  0999 V2000
    9.7738  -13.5743   19.7577 C   0  0  0  0  0  0  0  0  0  0  0  0
    8.4303  -13.6117   19.1111 C   0  0  2  0  0  0  0  0  0  0  0  0
    8.0587  -12.2327   18.6132 C   0  0  0  0  0  0  0  0  0  0  0  0
    7.3462  -14.1930   20.0030 C   0  0  0  0  0  0  0  0  0  0  0  0
    7.8865  -15.4579   20.6088 C   0  0  2  0  0  0  0  0  0  0  0  0
    7.5681  -16.5681   19.7320 N   0  0  0  0  0  0  0  0  0  0  0  0
    7.3582  -15.6896   21.9802 C   0  0  0  0  0  0  0  0  0  0  0  0
    6.1109  -15.7116   22.0997 O   0  0  0  0  0  0  0  0  0  0  0  0
    5.2330  -18.0007   24.3407 N   0  0  0  0  0  0  0  0  0  0  0  0
    6.6022  -18.0912   23.9683 C   0  0  0  0  0  0  0  0  0  0  0  0
    6.9390  -18.7010   22.9306 O   0  0  0  0  0  0  0  0  0  0  0  0
    7.7038  -17.4696   24.7901 C   0  0  0  0  0  0  0  0  0  0  0  0
    7.7062  -15.9816   24.4651 C   0  0  2  0  0  0  0  0  0  0  0  0
    8.1847  -15.8743   23.0979 N   0  0  0  0  0  0  0  0  0  0  0  0
    8.5322  -15.1731   25.3532 C   0  0  0  0  0  0  0  0  0  0  0  0
    9.7245  -15.6044   25.5591 O   0  0  0  0  0  0  0  0  0  0  0  0
    8.1815  -13.9768   26.0100 N   0  0  0  0  0  0  0  0  0  0  0  0
    7.0652  -13.1000   25.7497 C   0  0  0  0  0  0  0  0  0  0  0  0
    6.6413  -12.7976   27.1965 C   0  0  0  0  0  0  0  0  0  0  0  0
    8.0035  -12.3239   27.7216 C   0  0  0  0  0  0  0  0  0  0  0  0
    8.9244  -13.3939   27.1244 C   0  0  1  0  0  0  0  0  0  0  0  0
    9.1302  -14.3774   28.2231 C   0  0  0  0  0  0  0  0  0  0  0  0
   10.0428  -14.0154   29.2066 O   0  0  0  0  0  0  0  0  0  0  0  0
    8.5416  -15.4814   28.3046 O   0  0  0  0  0  0  0  0  0  0  0  0
  2  1  1  1
  2  3  1  0
  4  5  1  0
  4  2  1  0
  5  6  1  6
  5  7  1  0
  7  8  2  0
  9 10  1  0
 10 12  1  0
 11 10  2  0
 13 12  1  1
 14  7  1  0
 14 13  1  0
 15 13  1  0
 15 16  2  0
 17 15  1  0
 18 17  1  0
 19 18  1  0
 20 21  1  0
 20 19  1  0
 21 17  1  0
 21 22  1  1
 23 22  1  0
 24 22  2  0
M  END
$$$$
