LNP.pdb
     RDKit          3D

 24 24  0  0  1  0  0  0  0  0999 V2000
    5.1162  -12.7895   26.8898 C   0  0  0  0  0  0  0  0  0  0  0  0
    6.5972  -12.8346   27.0596 C   0  0  2  0  0  0  0  0  0  0  0  0
    7.0687  -11.6064   27.8057 C   0  0  0  0  0  0  0  0  0  0  0  0
    7.3502  -13.0157   25.7523 C   0  0  0  0  0  0  0  0  0  0  0  0
    7.6682  -14.4777   25.6103 C   0  0  2  0  0  0  0  0  0  0  0  0
    7.9438  -15.0251   26.9244 N   0  0  0  0  0  0  0  0  0  0  0  0
    8.8069  -14.7134   24.6821 C   0  0  0  0  0  0  0  0  0  0  0  0
    9.9303  -14.3130   25.0668 O   0  0  0  0  0  0  0  0  0  0  0  0
   12.6529  -15.3713   21.4131 N   0  0  0  0  0  0  0  0  0  0  0  0
   11.5609  -16.2799   21.3546 C   0  0  0  0  0  0  0  0  0  0  0  0
   11.3989  -17.0146   20.3566 O   0  0  0  0  0  0  0  0  0  0  0  0
   10.5551  -16.4043   22.4719 C   0  0  0  0  0  0  0  0  0  0  0  0
    9.6055  -15.2209   22.3399 C   0  0  2  0  0  0  0  0  0  0  0  0
    8.6625  -15.3438   23.4379 N   0  0  0  0  0  0  0  0  0  0  0  0
    8.8943  -15.1590   21.0691 C   0  0  0  0  0  0  0  0  0  0  0  0
    8.4522  -16.2774   20.6177 O   0  0  0  0  0  0  0  0  0  0  0  0
    8.6322  -14.0221   20.2790 N   0  0  0  0  0  0  0  0  0  0  0  0
    8.9928  -12.6476   20.5306 C   0  0  0  0  0  0  0  0  0  0  0  0
    9.4396  -12.2428   19.1160 C   0  0  0  0  0  0  0  0  0  0  0  0
    8.1750  -12.6766   18.3623 C   0  0  0  0  0  0  0  0  0  0  0  0
    7.9177  -14.0441   19.0052 C   0  0  1  0  0  0  0  0  0  0  0  0
    8.5102  -15.0289   18.0587 C   0  0  0  0  0  0  0  0  0  0  0  0
    9.7901  -15.4770   18.3624 O   0  0  0  0  0  0  0  0  0  0  0  0
    7.9327  -15.4614   17.0334 O   0  0  0  0  0  0  0  0  0  0  0  0
  2  1  1  6
  2  3  1  0
  4  5  1  0
  4  2  1  0
  5  6  1  1
  5  7  1  0
  7  8  2  0
  9 10  1  0
 10 12  1  0
 11 10  2  0
 13 12  1  6
 14  7  1  0
 14 13  1  0
 15 13  1  0
 15 16  2  0
 17 15  1  0
 18 17  1  0
 19 18  1  0
 20 21  1  0
 20 19  1  0
 21 17  1  0
 21 22  1  6
 23 22  1  0
 24 22  2  0
M  END
$$$$
