LNP.pdb
     RDKit          3D

 24 24  0  0  1  0  0  0  0  0999 V2000
    8.6179  -13.2001   21.1969 C   0  0  0  0  0  0  0  0  0  0  0  0
    8.5760  -13.5868   19.7571 C   0  0  2  0  0  0  0  0  0  0  0  0
    8.2488  -12.3790   18.9077 C   0  0  0  0  0  0  0  0  0  0  0  0
    7.6329  -14.7428   19.4689 C   0  0  0  0  0  0  0  0  0  0  0  0
    7.9997  -15.8694   20.3937 C   0  0  2  0  0  0  0  0  0  0  0  0
    7.5879  -17.1217   19.7897 N   0  0  0  0  0  0  0  0  0  0  0  0
    7.3968  -15.7018   21.7435 C   0  0  0  0  0  0  0  0  0  0  0  0
    6.1862  -15.3796   21.7761 O   0  0  0  0  0  0  0  0  0  0  0  0
    6.4217  -18.8292   22.8743 N   0  0  0  0  0  0  0  0  0  0  0  0
    6.2775  -17.9501   23.9824 C   0  0  0  0  0  0  0  0  0  0  0  0
    5.1425  -17.6484   24.4100 O   0  0  0  0  0  0  0  0  0  0  0  0
    7.4636  -17.3426   24.6891 C   0  0  0  0  0  0  0  0  0  0  0  0
    7.5286  -15.8827   24.2596 C   0  0  2  0  0  0  0  0  0  0  0  0
    8.1180  -15.8850   22.9321 N   0  0  0  0  0  0  0  0  0  0  0  0
    8.3001  -15.0268   25.1523 C   0  0  0  0  0  0  0  0  0  0  0  0
    9.5378  -15.3378   25.2982 O   0  0  0  0  0  0  0  0  0  0  0  0
    7.8529  -13.9004   25.8712 N   0  0  0  0  0  0  0  0  0  0  0  0
    6.6136  -13.1747   25.7291 C   0  0  0  0  0  0  0  0  0  0  0  0
    6.2778  -12.9590   27.2141 C   0  0  0  0  0  0  0  0  0  0  0  0
    7.6059  -12.3188   27.6406 C   0  0  0  0  0  0  0  0  0  0  0  0
    8.6049  -13.2455   26.9385 C   0  0  1  0  0  0  0  0  0  0  0  0
    9.0297  -14.2138   27.9866 C   0  0  0  0  0  0  0  0  0  0  0  0
    9.9661  -13.7522   28.9039 O   0  0  0  0  0  0  0  0  0  0  0  0
    8.6003  -15.3879   28.0819 O   0  0  0  0  0  0  0  0  0  0  0  0
  2  1  1  1
  2  3  1  0
  4  5  1  0
  4  2  1  0
  5  6  1  6
  5  7  1  0
  7  8  2  0
  9 10  1  0
 10 12  1  0
 11 10  2  0
 13 12  1  1
 14  7  1  0
 14 13  1  0
 15 13  1  0
 15 16  2  0
 17 15  1  0
 18 17  1  0
 19 18  1  0
 20 21  1  0
 20 19  1  0
 21 17  1  0
 21 22  1  1
 23 22  1  0
 24 22  2  0
M  END
$$$$
