LNP.pdb
     RDKit          3D

 24 24  0  0  1  0  0  0  0  0999 V2000
    9.7624  -13.6416   20.1210 C   0  0  0  0  0  0  0  0  0  0  0  0
    8.5175  -13.5539   19.3045 C   0  0  2  0  0  0  0  0  0  0  0  0
    8.2405  -12.1126   18.9393 C   0  0  0  0  0  0  0  0  0  0  0  0
    7.3133  -14.2023   19.9666 C   0  0  0  0  0  0  0  0  0  0  0  0
    7.7855  -15.4653   20.6305 C   0  0  2  0  0  0  0  0  0  0  0  0
    7.3627  -16.5988   19.8310 N   0  0  0  0  0  0  0  0  0  0  0  0
    7.2885  -15.5802   22.0281 C   0  0  0  0  0  0  0  0  0  0  0  0
    6.0512  -15.4648   22.1899 O   0  0  0  0  0  0  0  0  0  0  0  0
    5.3220  -18.0625   24.4347 N   0  0  0  0  0  0  0  0  0  0  0  0
    6.6867  -18.1184   24.0396 C   0  0  0  0  0  0  0  0  0  0  0  0
    7.0264  -18.7523   23.0174 O   0  0  0  0  0  0  0  0  0  0  0  0
    7.7802  -17.4303   24.8183 C   0  0  0  0  0  0  0  0  0  0  0  0
    7.6782  -15.9450   24.4971 C   0  0  2  0  0  0  0  0  0  0  0  0
    8.1332  -15.8031   23.1250 N   0  0  0  0  0  0  0  0  0  0  0  0
    8.4574  -15.0841   25.3782 C   0  0  0  0  0  0  0  0  0  0  0  0
    9.6971  -15.3927   25.5129 O   0  0  0  0  0  0  0  0  0  0  0  0
    8.0158  -13.9553   26.0968 N   0  0  0  0  0  0  0  0  0  0  0  0
    6.7628  -13.2484   25.9829 C   0  0  0  0  0  0  0  0  0  0  0  0
    6.4679  -13.0193   27.4746 C   0  0  0  0  0  0  0  0  0  0  0  0
    7.7988  -12.3559   27.8541 C   0  0  0  0  0  0  0  0  0  0  0  0
    8.7897  -13.2773   27.1336 C   0  0  1  0  0  0  0  0  0  0  0  0
    9.2586  -14.2269   28.1800 C   0  0  0  0  0  0  0  0  0  0  0  0
    8.7078  -15.5021   28.1414 O   0  0  0  0  0  0  0  0  0  0  0  0
   10.0984  -13.9447   29.0672 O   0  0  0  0  0  0  0  0  0  0  0  0
  2  1  1  1
  2  3  1  0
  4  5  1  0
  4  2  1  0
  5  6  1  6
  5  7  1  0
  7  8  2  0
  9 10  1  0
 10 12  1  0
 11 10  2  0
 13 12  1  1
 14  7  1  0
 14 13  1  0
 15 13  1  0
 15 16  2  0
 17 15  1  0
 18 17  1  0
 19 18  1  0
 20 21  1  0
 20 19  1  0
 21 17  1  0
 21 22  1  1
 23 22  1  0
 24 22  2  0
M  END
$$$$
