LNP.pdb
     RDKit          3D

 24 24  0  0  1  0  0  0  0  0999 V2000
    7.7775  -13.1905   21.0757 C   0  0  0  0  0  0  0  0  0  0  0  0
    8.3539  -13.5169   19.7395 C   0  0  2  0  0  0  0  0  0  0  0  0
    7.9704  -12.4508   18.7376 C   0  0  0  0  0  0  0  0  0  0  0  0
    7.9847  -14.9053   19.2447 C   0  0  0  0  0  0  0  0  0  0  0  0
    8.4023  -15.8897   20.3009 C   0  0  2  0  0  0  0  0  0  0  0  0
    8.3416  -17.2266   19.7427 N   0  0  0  0  0  0  0  0  0  0  0  0
    7.5651  -15.7820   21.5260 C   0  0  0  0  0  0  0  0  0  0  0  0
    6.3783  -16.1716   21.4250 O   0  0  0  0  0  0  0  0  0  0  0  0
    5.7362  -17.2522   25.8381 N   0  0  0  0  0  0  0  0  0  0  0  0
    7.0596  -17.5875   25.4411 C   0  0  0  0  0  0  0  0  0  0  0  0
    7.8019  -18.2481   26.1993 O   0  0  0  0  0  0  0  0  0  0  0  0
    7.6315  -17.1712   24.1088 C   0  0  0  0  0  0  0  0  0  0  0  0
    7.5401  -15.6520   24.0486 C   0  0  2  0  0  0  0  0  0  0  0  0
    8.0479  -15.2750   22.7410 N   0  0  0  0  0  0  0  0  0  0  0  0
    8.2834  -14.9626   25.0960 C   0  0  0  0  0  0  0  0  0  0  0  0
    9.4230  -15.4697   25.4029 O   0  0  0  0  0  0  0  0  0  0  0  0
    7.9039  -13.8083   25.8093 N   0  0  0  0  0  0  0  0  0  0  0  0
    6.6977  -13.0262   25.6816 C   0  0  0  0  0  0  0  0  0  0  0  0
    6.4013  -12.7779   27.1699 C   0  0  0  0  0  0  0  0  0  0  0  0
    7.7661  -12.1967   27.5635 C   0  0  0  0  0  0  0  0  0  0  0  0
    8.7065  -13.1777   26.8542 C   0  0  1  0  0  0  0  0  0  0  0  0
    9.1052  -14.1531   27.9060 C   0  0  0  0  0  0  0  0  0  0  0  0
    8.4618  -15.3845   27.8753 O   0  0  0  0  0  0  0  0  0  0  0  0
    9.9644  -13.9284   28.7910 O   0  0  0  0  0  0  0  0  0  0  0  0
  2  1  1  1
  2  3  1  0
  4  5  1  0
  4  2  1  0
  5  6  1  6
  5  7  1  0
  7  8  2  0
  9 10  1  0
 10 12  1  0
 11 10  2  0
 13 12  1  1
 14  7  1  0
 14 13  1  0
 15 13  1  0
 15 16  2  0
 17 15  1  0
 18 17  1  0
 19 18  1  0
 20 21  1  0
 20 19  1  0
 21 17  1  0
 21 22  1  1
 23 22  1  0
 24 22  2  0
M  END
$$$$
