LNP.pdb
     RDKit          3D

 24 24  0  0  1  0  0  0  0  0999 V2000
    7.1966  -12.4336   19.3052 C   0  0  0  0  0  0  0  0  0  0  0  0
    7.9215  -13.5521   19.9742 C   0  0  2  0  0  0  0  0  0  0  0  0
    9.4052  -13.2600   20.0053 C   0  0  0  0  0  0  0  0  0  0  0  0
    7.6341  -14.9119   19.3600 C   0  0  0  0  0  0  0  0  0  0  0  0
    8.1432  -15.9572   20.3124 C   0  0  2  0  0  0  0  0  0  0  0  0
    8.0378  -17.2570   19.6784 N   0  0  0  0  0  0  0  0  0  0  0  0
    7.4141  -15.9327   21.6091 C   0  0  0  0  0  0  0  0  0  0  0  0
    6.2293  -16.3406   21.5890 O   0  0  0  0  0  0  0  0  0  0  0  0
    7.1706  -18.4599   26.5404 N   0  0  0  0  0  0  0  0  0  0  0  0
    6.6974  -17.4944   25.6101 C   0  0  0  0  0  0  0  0  0  0  0  0
    5.6691  -16.8274   25.8548 O   0  0  0  0  0  0  0  0  0  0  0  0
    7.3958  -17.2274   24.3000 C   0  0  0  0  0  0  0  0  0  0  0  0
    7.4362  -15.7148   24.1256 C   0  0  2  0  0  0  0  0  0  0  0  0
    7.9927  -15.4820   22.8043 N   0  0  0  0  0  0  0  0  0  0  0  0
    8.2214  -15.0138   25.1340 C   0  0  0  0  0  0  0  0  0  0  0  0
    9.3706  -15.5204   25.4035 O   0  0  0  0  0  0  0  0  0  0  0  0
    7.8729  -13.8486   25.8456 N   0  0  0  0  0  0  0  0  0  0  0  0
    6.6870  -13.0360   25.7183 C   0  0  0  0  0  0  0  0  0  0  0  0
    6.3997  -12.7773   27.2066 C   0  0  0  0  0  0  0  0  0  0  0  0
    7.7796  -12.2305   27.5967 C   0  0  0  0  0  0  0  0  0  0  0  0
    8.6933  -13.2368   26.8878 C   0  0  1  0  0  0  0  0  0  0  0  0
    9.0686  -14.2200   27.9409 C   0  0  0  0  0  0  0  0  0  0  0  0
    9.9912  -13.7848   28.8847 O   0  0  0  0  0  0  0  0  0  0  0  0
    8.6103  -15.3845   28.0182 O   0  0  0  0  0  0  0  0  0  0  0  0
  2  1  1  6
  2  3  1  0
  4  5  1  0
  4  2  1  0
  5  6  1  6
  5  7  1  0
  7  8  2  0
  9 10  1  0
 10 12  1  0
 11 10  2  0
 13 12  1  1
 14  7  1  0
 14 13  1  0
 15 13  1  0
 15 16  2  0
 17 15  1  0
 18 17  1  0
 19 18  1  0
 20 21  1  0
 20 19  1  0
 21 17  1  0
 21 22  1  1
 23 22  1  0
 24 22  2  0
M  END
$$$$
