LNP.pdb
     RDKit          3D

 24 24  0  0  1  0  0  0  0  0999 V2000
    9.7367  -13.0643   19.7343 C   0  0  0  0  0  0  0  0  0  0  0  0
    8.3552  -13.4590   19.3344 C   0  0  2  0  0  0  0  0  0  0  0  0
    7.6238  -12.2664   18.7596 C   0  0  0  0  0  0  0  0  0  0  0  0
    7.5639  -14.1102   20.4563 C   0  0  0  0  0  0  0  0  0  0  0  0
    8.5171  -14.9570   21.2520 C   0  0  2  0  0  0  0  0  0  0  0  0
    8.6189  -16.2602   20.6245 N   0  0  0  0  0  0  0  0  0  0  0  0
    8.1006  -15.0786   22.6751 C   0  0  0  0  0  0  0  0  0  0  0  0
    7.4744  -14.1057   23.1567 O   0  0  0  0  0  0  0  0  0  0  0  0
    6.2485  -18.4606   22.7408 N   0  0  0  0  0  0  0  0  0  0  0  0
    6.2017  -17.8646   24.0308 C   0  0  0  0  0  0  0  0  0  0  0  0
    5.1391  -17.3686   24.4630 O   0  0  0  0  0  0  0  0  0  0  0  0
    7.4096  -17.7975   24.9320 C   0  0  0  0  0  0  0  0  0  0  0  0
    7.9480  -16.3759   24.8372 C   0  0  2  0  0  0  0  0  0  0  0  0
    8.3804  -16.2057   23.4610 N   0  0  0  0  0  0  0  0  0  0  0  0
    9.0468  -16.0866   25.7503 C   0  0  0  0  0  0  0  0  0  0  0  0
   10.0501  -16.8868   25.6933 O   0  0  0  0  0  0  0  0  0  0  0  0
    9.1415  -15.0360   26.6844 N   0  0  0  0  0  0  0  0  0  0  0  0
    8.2687  -13.8990   26.8530 C   0  0  0  0  0  0  0  0  0  0  0  0
    8.1928  -13.8671   28.3885 C   0  0  0  0  0  0  0  0  0  0  0  0
    9.7005  -13.8444   28.6747 C   0  0  0  0  0  0  0  0  0  0  0  0
   10.1906  -14.9154   27.6936 C   0  0  1  0  0  0  0  0  0  0  0  0
   10.3137  -16.1541   28.5102 C   0  0  0  0  0  0  0  0  0  0  0  0
   11.4314  -16.2379   29.3318 O   0  0  0  0  0  0  0  0  0  0  0  0
    9.4874  -17.0970   28.4956 O   0  0  0  0  0  0  0  0  0  0  0  0
  2  1  1  1
  2  3  1  0
  4  5  1  0
  4  2  1  0
  5  6  1  6
  5  7  1  0
  7  8  2  0
  9 10  1  0
 10 12  1  0
 11 10  2  0
 13 12  1  6
 14  7  1  0
 14 13  1  0
 15 13  1  0
 15 16  2  0
 17 15  1  0
 18 17  1  0
 19 18  1  0
 20 21  1  0
 20 19  1  0
 21 17  1  0
 21 22  1  1
 23 22  1  0
 24 22  2  0
M  END
$$$$
