LNP.pdb
     RDKit          3D

 24 24  0  0  1  0  0  0  0  0999 V2000
    9.7026  -13.3759   19.4329 C   0  0  0  0  0  0  0  0  0  0  0  0
    8.2866  -13.4385   18.9691 C   0  0  2  0  0  0  0  0  0  0  0  0
    7.8694  -12.0997   18.4025 C   0  0  0  0  0  0  0  0  0  0  0  0
    7.3202  -13.9158   20.0402 C   0  0  0  0  0  0  0  0  0  0  0  0
    7.8684  -15.1944   20.6091 C   0  0  2  0  0  0  0  0  0  0  0  0
    7.5409  -16.2835   19.7095 N   0  0  0  0  0  0  0  0  0  0  0  0
    7.3560  -15.4596   21.9805 C   0  0  0  0  0  0  0  0  0  0  0  0
    6.1152  -15.3786   22.1362 O   0  0  0  0  0  0  0  0  0  0  0  0
    6.2521  -17.2514   26.5739 N   0  0  0  0  0  0  0  0  0  0  0  0
    7.3927  -17.8723   25.9951 C   0  0  0  0  0  0  0  0  0  0  0  0
    8.0612  -18.7044   26.6453 O   0  0  0  0  0  0  0  0  0  0  0  0
    7.8519  -17.5661   24.5913 C   0  0  0  0  0  0  0  0  0  0  0  0
    7.7216  -16.0598   24.4068 C   0  0  2  0  0  0  0  0  0  0  0  0
    8.1904  -15.7824   23.0603 N   0  0  0  0  0  0  0  0  0  0  0  0
    8.4709  -15.2681   25.3745 C   0  0  0  0  0  0  0  0  0  0  0  0
    9.6657  -15.6690   25.6236 O   0  0  0  0  0  0  0  0  0  0  0  0
    8.0440  -14.1174   26.0666 N   0  0  0  0  0  0  0  0  0  0  0  0
    6.8554  -13.3270   25.8534 C   0  0  0  0  0  0  0  0  0  0  0  0
    6.4468  -13.0893   27.3167 C   0  0  0  0  0  0  0  0  0  0  0  0
    7.7805  -12.5196   27.8190 C   0  0  0  0  0  0  0  0  0  0  0  0
    8.7673  -13.5004   27.1755 C   0  0  1  0  0  0  0  0  0  0  0  0
    9.0787  -14.4868   28.2463 C   0  0  0  0  0  0  0  0  0  0  0  0
    9.9728  -14.0678   29.2242 O   0  0  0  0  0  0  0  0  0  0  0  0
    8.5918  -15.6405   28.3097 O   0  0  0  0  0  0  0  0  0  0  0  0
  2  1  1  1
  2  3  1  0
  4  5  1  0
  4  2  1  0
  5  6  1  6
  5  7  1  0
  7  8  2  0
  9 10  1  0
 10 12  1  0
 11 10  2  0
 13 12  1  1
 14  7  1  0
 14 13  1  0
 15 13  1  0
 15 16  2  0
 17 15  1  0
 18 17  1  0
 19 18  1  0
 20 21  1  0
 20 19  1  0
 21 17  1  0
 21 22  1  1
 23 22  1  0
 24 22  2  0
M  END
$$$$
