LNP.pdb
     RDKit          3D

 24 24  0  0  1  0  0  0  0  0999 V2000
    9.9133  -13.3261   19.8346 C   0  0  0  0  0  0  0  0  0  0  0  0
    8.6819  -13.5208   19.0160 C   0  0  2  0  0  0  0  0  0  0  0  0
    8.1392  -12.1802   18.5734 C   0  0  0  0  0  0  0  0  0  0  0  0
    7.6169  -14.3501   19.7139 C   0  0  0  0  0  0  0  0  0  0  0  0
    8.3008  -15.5324   20.3411 C   0  0  2  0  0  0  0  0  0  0  0  0
    8.2414  -16.6494   19.4184 N   0  0  0  0  0  0  0  0  0  0  0  0
    7.7023  -15.8905   21.6553 C   0  0  0  0  0  0  0  0  0  0  0  0
    6.7203  -16.6684   21.6260 O   0  0  0  0  0  0  0  0  0  0  0  0
    5.6188  -17.8408   25.7701 N   0  0  0  0  0  0  0  0  0  0  0  0
    7.0100  -17.6155   25.5822 C   0  0  0  0  0  0  0  0  0  0  0  0
    7.8044  -17.7133   26.5421 O   0  0  0  0  0  0  0  0  0  0  0  0
    7.5934  -17.2510   24.2397 C   0  0  0  0  0  0  0  0  0  0  0  0
    7.6263  -15.7297   24.1751 C   0  0  2  0  0  0  0  0  0  0  0  0
    8.1864  -15.3992   22.8763 N   0  0  0  0  0  0  0  0  0  0  0  0
    8.4039  -15.0991   25.2346 C   0  0  0  0  0  0  0  0  0  0  0  0
    9.4946  -15.6939   25.5610 O   0  0  0  0  0  0  0  0  0  0  0  0
    8.1046  -13.9172   25.9408 N   0  0  0  0  0  0  0  0  0  0  0  0
    7.0283  -12.9821   25.7172 C   0  0  0  0  0  0  0  0  0  0  0  0
    6.6151  -12.7222   27.1753 C   0  0  0  0  0  0  0  0  0  0  0  0
    7.9956  -12.3311   27.7201 C   0  0  0  0  0  0  0  0  0  0  0  0
    8.8700  -13.4146   27.0789 C   0  0  1  0  0  0  0  0  0  0  0  0
    9.0302  -14.4512   28.1354 C   0  0  0  0  0  0  0  0  0  0  0  0
    9.9254  -14.1530   29.1557 O   0  0  0  0  0  0  0  0  0  0  0  0
    8.4189  -15.5457   28.1521 O   0  0  0  0  0  0  0  0  0  0  0  0
  2  1  1  1
  2  3  1  0
  4  5  1  0
  4  2  1  0
  5  6  1  6
  5  7  1  0
  7  8  2  0
  9 10  1  0
 10 12  1  0
 11 10  2  0
 13 12  1  1
 14  7  1  0
 14 13  1  0
 15 13  1  0
 15 16  2  0
 17 15  1  0
 18 17  1  0
 19 18  1  0
 20 21  1  0
 20 19  1  0
 21 17  1  0
 21 22  1  1
 23 22  1  0
 24 22  2  0
M  END
$$$$
