AKG.pdb
     RDKit          3D

 19 18  0  0  1  0  0  0  0  0999 V2000
    9.6564  -13.1540   19.3096 C   0  0  0  0  0  0  0  0  0  0  0  0
    8.2521  -13.7070   19.2068 C   0  0  2  0  0  0  0  0  0  0  0  0
    7.3748  -12.6255   18.8767 N   0  0  0  0  0  0  0  0  0  0  0  0
    7.8682  -14.2457   20.5504 C   0  0  0  0  0  0  0  0  0  0  0  0
    7.3346  -13.4527   21.4010 O   0  0  0  0  0  0  0  0  0  0  0  0
    8.0985  -15.6171   20.8622 N   0  0  0  0  0  0  0  0  0  0  0  0
    7.6912  -16.2450   22.0766 C   0  0  1  0  0  0  0  0  0  0  0  0
    7.0990  -17.5878   21.8917 C   0  0  0  0  0  0  0  0  0  0  0  0
    6.5488  -18.2678   23.0846 C   0  0  0  0  0  0  0  0  0  0  0  0
    6.0244  -19.6391   22.7347 C   0  0  0  0  0  0  0  0  0  0  0  0
    5.3857  -20.3424   23.8825 C   0  0  0  0  0  0  0  0  0  0  0  0
    4.6994  -21.5598   23.4795 N   0  0  0  0  0  0  0  0  0  0  0  0
    8.6557  -16.1128   23.1959 C   0  0  0  0  0  0  0  0  0  0  0  0
    8.2770  -16.4773   24.3361 O   0  0  0  0  0  0  0  0  0  0  0  0
    9.9624  -15.6023   23.0614 N   0  0  0  0  0  0  0  0  0  0  0  0
   10.8654  -15.4423   24.1980 C   0  0  0  0  0  0  0  0  0  0  0  0
   11.9571  -16.4260   24.1745 C   0  0  0  0  0  0  0  0  0  0  0  0
   13.2980  -16.0869   24.2670 O   0  0  0  0  0  0  0  0  0  0  0  0
   11.6746  -17.6459   24.0649 O   0  0  0  0  0  0  0  0  0  0  0  0
  2  3  1  0
  2  1  1  1
  4  5  2  0
  4  2  1  0
  6  4  1  0
  7  6  1  0
  7 13  1  0
  7  8  1  6
  9  8  1  0
 10  9  1  0
 11 10  1  0
 12 11  1  0
 13 15  1  0
 13 14  2  0
 15 16  1  0
 16 17  1  0
 17 18  1  0
 19 17  2  0
M  END
$$$$
