AKG.pdb
     RDKit          3D

 19 18  0  0  1  0  0  0  0  0999 V2000
    8.6328  -19.9153   20.5911 C   0  0  0  0  0  0  0  0  0  0  0  0
    7.2582  -19.8098   19.9685 C   0  0  2  0  0  0  0  0  0  0  0  0
    7.4110  -19.2769   18.6490 N   0  0  0  0  0  0  0  0  0  0  0  0
    6.4533  -18.8473   20.7862 C   0  0  0  0  0  0  0  0  0  0  0  0
    6.6924  -17.5954   20.6740 O   0  0  0  0  0  0  0  0  0  0  0  0
    5.4435  -19.3303   21.6684 N   0  0  0  0  0  0  0  0  0  0  0  0
    4.5986  -18.4949   22.4576 C   0  0  1  0  0  0  0  0  0  0  0  0
    3.1650  -18.8534   22.3918 C   0  0  0  0  0  0  0  0  0  0  0  0
    2.5631  -19.0421   21.0538 C   0  0  0  0  0  0  0  0  0  0  0  0
    1.1230  -19.4803   21.1628 C   0  0  0  0  0  0  0  0  0  0  0  0
    0.4188  -19.5412   19.8510 C   0  0  0  0  0  0  0  0  0  0  0  0
   -0.9596  -19.9876   19.9775 N   0  0  0  0  0  0  0  0  0  0  0  0
    5.1247  -18.1816   23.8088 C   0  0  0  0  0  0  0  0  0  0  0  0
    4.4375  -17.4272   24.5401 O   0  0  0  0  0  0  0  0  0  0  0  0
    6.3436  -18.6717   24.3190 N   0  0  0  0  0  0  0  0  0  0  0  0
    6.8283  -18.3373   25.6554 C   0  0  0  0  0  0  0  0  0  0  0  0
    8.0743  -19.0456   25.9805 C   0  0  0  0  0  0  0  0  0  0  0  0
    8.6934  -18.9808   27.2192 O   0  0  0  0  0  0  0  0  0  0  0  0
    8.6204  -19.7531   25.0967 O   0  0  0  0  0  0  0  0  0  0  0  0
  2  3  1  0
  2  1  1  1
  4  5  2  0
  4  2  1  0
  6  4  1  0
  7  6  1  0
  7 13  1  0
  7  8  1  1
  9  8  1  0
 10  9  1  0
 11 10  1  0
 12 11  1  0
 13 15  1  0
 13 14  2  0
 15 16  1  0
 16 17  1  0
 17 18  1  0
 19 17  2  0
M  END
$$$$
