AKG.pdb
     RDKit          3D

 19 18  0  0  1  0  0  0  0  0999 V2000
   10.2390  -20.7439   20.3800 C   0  0  0  0  0  0  0  0  0  0  0  0
    9.9618  -19.5023   19.5616 C   0  0  2  0  0  0  0  0  0  0  0  0
   10.6411  -19.6382   18.3093 N   0  0  0  0  0  0  0  0  0  0  0  0
   10.5338  -18.3284   20.2948 C   0  0  0  0  0  0  0  0  0  0  0  0
   11.7680  -18.0381   20.1227 O   0  0  0  0  0  0  0  0  0  0  0  0
    9.7081  -17.5582   21.1642 N   0  0  0  0  0  0  0  0  0  0  0  0
   10.0919  -16.3123   21.7431 C   0  0  1  0  0  0  0  0  0  0  0  0
    9.0926  -15.2350   21.5728 C   0  0  0  0  0  0  0  0  0  0  0  0
    9.0150  -14.5702   20.2537 C   0  0  0  0  0  0  0  0  0  0  0  0
    7.6458  -13.9786   20.0233 C   0  0  0  0  0  0  0  0  0  0  0  0
    7.4945  -13.3301   18.6903 C   0  0  0  0  0  0  0  0  0  0  0  0
    6.1514  -12.8185   18.4674 N   0  0  0  0  0  0  0  0  0  0  0  0
   10.7048  -16.4178   23.0899 C   0  0  0  0  0  0  0  0  0  0  0  0
   11.0404  -15.3515   23.6615 O   0  0  0  0  0  0  0  0  0  0  0  0
   10.9369  -17.6340   23.7631 N   0  0  0  0  0  0  0  0  0  0  0  0
   11.5117  -17.6937   25.1043 C   0  0  0  0  0  0  0  0  0  0  0  0
   11.5729  -19.0706   25.6145 C   0  0  0  0  0  0  0  0  0  0  0  0
   12.0090  -19.3983   26.8889 O   0  0  0  0  0  0  0  0  0  0  0  0
   11.2132  -20.0136   24.8653 O   0  0  0  0  0  0  0  0  0  0  0  0
  2  3  1  0
  2  1  1  1
  4  5  2  0
  4  2  1  0
  6  4  1  0
  7  6  1  0
  7 13  1  0
  7  8  1  1
  9  8  1  0
 10  9  1  0
 11 10  1  0
 12 11  1  0
 13 15  1  0
 13 14  2  0
 15 16  1  0
 16 17  1  0
 17 18  1  0
 19 17  2  0
M  END
$$$$
