AKG.pdb
     RDKit          3D

 19 18  0  0  1  0  0  0  0  0999 V2000
    7.2563  -11.8591   27.2777 C   0  0  0  0  0  0  0  0  0  0  0  0
    6.1499  -12.3561   26.3737 C   0  0  2  0  0  0  0  0  0  0  0  0
    5.1494  -12.9664   27.1951 N   0  0  0  0  0  0  0  0  0  0  0  0
    6.7280  -13.3971   25.4654 C   0  0  0  0  0  0  0  0  0  0  0  0
    6.7882  -14.6071   25.8769 O   0  0  0  0  0  0  0  0  0  0  0  0
    7.1984  -13.0331   24.1703 N   0  0  0  0  0  0  0  0  0  0  0  0
    7.9304  -13.9014   23.3072 C   0  0  1  0  0  0  0  0  0  0  0  0
    8.1877  -13.3392   21.9634 C   0  0  0  0  0  0  0  0  0  0  0  0
    7.8114  -14.1584   20.7907 C   0  0  0  0  0  0  0  0  0  0  0  0
    8.1601  -13.4547   19.5019 C   0  0  0  0  0  0  0  0  0  0  0  0
    7.7103  -14.1861   18.2842 C   0  0  0  0  0  0  0  0  0  0  0  0
    8.1111  -13.5219   17.0540 N   0  0  0  0  0  0  0  0  0  0  0  0
    9.0763  -14.5910   23.9493 C   0  0  0  0  0  0  0  0  0  0  0  0
    9.9493  -13.8774   24.5015 O   0  0  0  0  0  0  0  0  0  0  0  0
    9.2479  -15.9896   23.9745 N   0  0  0  0  0  0  0  0  0  0  0  0
   10.3940  -16.6302   24.6139 C   0  0  0  0  0  0  0  0  0  0  0  0
   10.3520  -18.0929   24.4772 C   0  0  0  0  0  0  0  0  0  0  0  0
   11.3412  -18.9373   24.9569 O   0  0  0  0  0  0  0  0  0  0  0  0
    9.3713  -18.6218   23.8955 O   0  0  0  0  0  0  0  0  0  0  0  0
  2  3  1  0
  2  1  1  1
  4  5  2  0
  4  2  1  0
  6  4  1  0
  7  6  1  0
  7 13  1  0
  7  8  1  6
  9  8  1  0
 10  9  1  0
 11 10  1  0
 12 11  1  0
 13 15  1  0
 13 14  2  0
 15 16  1  0
 16 17  1  0
 17 18  1  0
 19 17  2  0
M  END
$$$$
