AKG.pdb
     RDKit          3D

 19 18  0  0  1  0  0  0  0  0999 V2000
    7.5624  -14.7314   18.6490 C   0  0  0  0  0  0  0  0  0  0  0  0
    7.8944  -15.8647   19.5943 C   0  0  2  0  0  0  0  0  0  0  0  0
    6.6723  -16.5256   19.9376 N   0  0  0  0  0  0  0  0  0  0  0  0
    8.4868  -15.2724   20.8357 C   0  0  0  0  0  0  0  0  0  0  0  0
    9.7050  -14.8821   20.8098 O   0  0  0  0  0  0  0  0  0  0  0  0
    7.6975  -15.1519   22.0162 N   0  0  0  0  0  0  0  0  0  0  0  0
    8.1811  -14.6444   23.2585 C   0  0  1  0  0  0  0  0  0  0  0  0
    7.1702  -13.8985   24.0394 C   0  0  0  0  0  0  0  0  0  0  0  0
    7.5792  -13.3534   25.3523 C   0  0  0  0  0  0  0  0  0  0  0  0
    6.4583  -12.5669   25.9870 C   0  0  0  0  0  0  0  0  0  0  0  0
    6.8117  -11.9948   27.3167 C   0  0  0  0  0  0  0  0  0  0  0  0
    5.6746  -11.3734   27.9772 N   0  0  0  0  0  0  0  0  0  0  0  0
    9.0225  -15.5923   24.0293 C   0  0  0  0  0  0  0  0  0  0  0  0
    8.4369  -16.4246   24.7646 O   0  0  0  0  0  0  0  0  0  0  0  0
   10.4311  -15.6144   23.9917 N   0  0  0  0  0  0  0  0  0  0  0  0
   11.2260  -16.5225   24.8140 C   0  0  0  0  0  0  0  0  0  0  0  0
   12.6682  -16.3350   24.6019 C   0  0  0  0  0  0  0  0  0  0  0  0
   13.6437  -17.0013   25.3273 O   0  0  0  0  0  0  0  0  0  0  0  0
   13.0534  -15.5293   23.7174 O   0  0  0  0  0  0  0  0  0  0  0  0
  2  3  1  0
  2  1  1  6
  4  5  2  0
  4  2  1  0
  6  4  1  0
  7  6  1  0
  7 13  1  0
  7  8  1  1
  9  8  1  0
 10  9  1  0
 11 10  1  0
 12 11  1  0
 13 15  1  0
 13 14  2  0
 15 16  1  0
 16 17  1  0
 17 18  1  0
 19 17  2  0
M  END
$$$$
