AKG.pdb
     RDKit          3D

 19 18  0  0  1  0  0  0  0  0999 V2000
    9.6339  -25.6303   17.5535 C   0  0  0  0  0  0  0  0  0  0  0  0
    8.8932  -24.9451   16.4264 C   0  0  2  0  0  0  0  0  0  0  0  0
    8.9181  -25.8138   15.2893 N   0  0  0  0  0  0  0  0  0  0  0  0
    9.6304  -23.6864   16.0870 C   0  0  0  0  0  0  0  0  0  0  0  0
   10.6163  -23.7516   15.2741 O   0  0  0  0  0  0  0  0  0  0  0  0
    9.2308  -22.4468   16.6657 N   0  0  0  0  0  0  0  0  0  0  0  0
    9.8884  -21.2023   16.4342 C   0  0  1  0  0  0  0  0  0  0  0  0
    9.0102  -20.1512   15.8756 C   0  0  0  0  0  0  0  0  0  0  0  0
    8.5955  -20.2802   14.4616 C   0  0  0  0  0  0  0  0  0  0  0  0
    7.8309  -19.0612   14.0063 C   0  0  0  0  0  0  0  0  0  0  0  0
    7.4535  -19.0995   12.5654 C   0  0  0  0  0  0  0  0  0  0  0  0
    6.6734  -17.9403   12.1615 N   0  0  0  0  0  0  0  0  0  0  0  0
   10.7999  -20.7716   17.5224 C   0  0  0  0  0  0  0  0  0  0  0  0
   10.3508  -20.7800   18.6948 O   0  0  0  0  0  0  0  0  0  0  0  0
   12.1304  -20.3516   17.3236 N   0  0  0  0  0  0  0  0  0  0  0  0
   12.9800  -19.8858   18.4162 C   0  0  0  0  0  0  0  0  0  0  0  0
   14.3519  -19.6111   17.9661 C   0  0  0  0  0  0  0  0  0  0  0  0
   14.8812  -18.3351   17.8517 O   0  0  0  0  0  0  0  0  0  0  0  0
   15.0981  -20.5767   17.6647 O   0  0  0  0  0  0  0  0  0  0  0  0
  2  3  1  0
  2  1  1  1
  4  5  2  0
  4  2  1  0
  6  4  1  0
  7  6  1  0
  7 13  1  0
  7  8  1  1
  9  8  1  0
 10  9  1  0
 11 10  1  0
 12 11  1  0
 13 15  1  0
 13 14  2  0
 15 16  1  0
 16 17  1  0
 17 18  1  0
 19 17  2  0
M  END
$$$$
