AKG.pdb
     RDKit          3D

 19 18  0  0  1  0  0  0  0  0999 V2000
    9.7041  -18.3891   18.8375 C   0  0  0  0  0  0  0  0  0  0  0  0
    9.7675  -18.5332   20.3420 C   0  0  2  0  0  0  0  0  0  0  0  0
    8.5343  -19.1108   20.7825 N   0  0  0  0  0  0  0  0  0  0  0  0
    9.8954  -17.1628   20.9324 C   0  0  0  0  0  0  0  0  0  0  0  0
   10.9631  -16.4943   20.7087 O   0  0  0  0  0  0  0  0  0  0  0  0
    8.8404  -16.6261   21.7262 N   0  0  0  0  0  0  0  0  0  0  0  0
    8.8168  -15.2949   22.2383 C   0  0  1  0  0  0  0  0  0  0  0  0
    7.5076  -14.6198   22.1023 C   0  0  0  0  0  0  0  0  0  0  0  0
    6.9435  -14.4791   20.7421 C   0  0  0  0  0  0  0  0  0  0  0  0
    7.8483  -13.6522   19.8616 C   0  0  0  0  0  0  0  0  0  0  0  0
    7.2854  -13.3934   18.5065 C   0  0  0  0  0  0  0  0  0  0  0  0
    8.1985  -12.6465   17.6558 N   0  0  0  0  0  0  0  0  0  0  0  0
    9.5008  -15.1211   23.5431 C   0  0  0  0  0  0  0  0  0  0  0  0
    9.0166  -14.2871   24.3471 O   0  0  0  0  0  0  0  0  0  0  0  0
   10.6567  -15.8265   23.9334 N   0  0  0  0  0  0  0  0  0  0  0  0
   11.2702  -15.6654   25.2488 C   0  0  0  0  0  0  0  0  0  0  0  0
   12.3994  -16.5855   25.4443 C   0  0  0  0  0  0  0  0  0  0  0  0
   13.1232  -16.6727   26.6234 O   0  0  0  0  0  0  0  0  0  0  0  0
   12.7391  -17.3413   24.4992 O   0  0  0  0  0  0  0  0  0  0  0  0
  2  3  1  0
  2  1  1  6
  4  5  2  0
  4  2  1  0
  6  4  1  0
  7  6  1  0
  7 13  1  0
  7  8  1  1
  9  8  1  0
 10  9  1  0
 11 10  1  0
 12 11  1  0
 13 15  1  0
 13 14  2  0
 15 16  1  0
 16 17  1  0
 17 18  1  0
 19 17  2  0
M  END
$$$$
