AKG.pdb
     RDKit          3D

 19 18  0  0  1  0  0  0  0  0999 V2000
   11.7782  -20.0641   19.9590 C   0  0  0  0  0  0  0  0  0  0  0  0
   10.9256  -18.9441   19.4047 C   0  0  2  0  0  0  0  0  0  0  0  0
   11.3613  -18.6779   18.0677 N   0  0  0  0  0  0  0  0  0  0  0  0
   11.1643  -17.7247   20.2407 C   0  0  0  0  0  0  0  0  0  0  0  0
   12.3052  -17.1490   20.1766 O   0  0  0  0  0  0  0  0  0  0  0  0
   10.1317  -17.2258   21.0869 N   0  0  0  0  0  0  0  0  0  0  0  0
   10.2245  -16.0204   21.8438 C   0  0  1  0  0  0  0  0  0  0  0  0
    9.0869  -15.0956   21.6467 C   0  0  0  0  0  0  0  0  0  0  0  0
    8.8939  -14.5191   20.2983 C   0  0  0  0  0  0  0  0  0  0  0  0
    7.5369  -13.8705   20.1739 C   0  0  0  0  0  0  0  0  0  0  0  0
    7.2724  -13.2985   18.8237 C   0  0  0  0  0  0  0  0  0  0  0  0
    5.9289  -12.7553   18.7007 N   0  0  0  0  0  0  0  0  0  0  0  0
   10.6736  -16.2024   23.2459 C   0  0  0  0  0  0  0  0  0  0  0  0
   10.6817  -15.1913   23.9901 O   0  0  0  0  0  0  0  0  0  0  0  0
   11.0938  -17.4322   23.7913 N   0  0  0  0  0  0  0  0  0  0  0  0
   11.4701  -17.5831   25.1942 C   0  0  0  0  0  0  0  0  0  0  0  0
   11.7370  -18.9856   25.5431 C   0  0  0  0  0  0  0  0  0  0  0  0
   12.0267  -19.4149   26.8290 O   0  0  0  0  0  0  0  0  0  0  0  0
   11.7043  -19.8550   24.6360 O   0  0  0  0  0  0  0  0  0  0  0  0
  2  3  1  0
  2  1  1  1
  4  5  2  0
  4  2  1  0
  6  4  1  0
  7  6  1  0
  7 13  1  0
  7  8  1  1
  9  8  1  0
 10  9  1  0
 11 10  1  0
 12 11  1  0
 13 15  1  0
 13 14  2  0
 15 16  1  0
 16 17  1  0
 17 18  1  0
 19 17  2  0
M  END
$$$$
