AKG.pdb
     RDKit          3D

 19 18  0  0  1  0  0  0  0  0999 V2000
    7.5940  -13.0124   19.5577 C   0  0  0  0  0  0  0  0  0  0  0  0
    8.1083  -14.3578   20.0201 C   0  0  2  0  0  0  0  0  0  0  0  0
    6.9834  -15.2268   20.1869 N   0  0  0  0  0  0  0  0  0  0  0  0
    8.7707  -14.1671   21.3497 C   0  0  0  0  0  0  0  0  0  0  0  0
    9.8719  -13.5176   21.4003 O   0  0  0  0  0  0  0  0  0  0  0  0
    8.1750  -14.7041   22.5278 N   0  0  0  0  0  0  0  0  0  0  0  0
    8.6863  -14.5139   23.8457 C   0  0  1  0  0  0  0  0  0  0  0  0
    7.6452  -14.2619   24.8658 C   0  0  0  0  0  0  0  0  0  0  0  0
    7.2354  -12.8600   25.0997 C   0  0  0  0  0  0  0  0  0  0  0  0
    6.3459  -12.7494   26.3139 C   0  0  0  0  0  0  0  0  0  0  0  0
    5.9080  -11.3553   26.6055 C   0  0  0  0  0  0  0  0  0  0  0  0
    5.0331  -11.2758   27.7647 N   0  0  0  0  0  0  0  0  0  0  0  0
    9.7580  -15.4621   24.2371 C   0  0  0  0  0  0  0  0  0  0  0  0
   10.1759  -15.4117   25.4199 O   0  0  0  0  0  0  0  0  0  0  0  0
   10.3368  -16.4083   23.3677 N   0  0  0  0  0  0  0  0  0  0  0  0
   11.2957  -17.4115   23.8225 C   0  0  0  0  0  0  0  0  0  0  0  0
   11.7391  -18.2838   22.7260 C   0  0  0  0  0  0  0  0  0  0  0  0
   11.3872  -18.0885   21.3994 O   0  0  0  0  0  0  0  0  0  0  0  0
   12.4786  -19.2653   22.9903 O   0  0  0  0  0  0  0  0  0  0  0  0
  2  3  1  0
  2  1  1  1
  4  5  2  0
  4  2  1  0
  6  4  1  0
  7  6  1  0
  7 13  1  0
  7  8  1  1
  9  8  1  0
 10  9  1  0
 11 10  1  0
 12 11  1  0
 13 15  1  0
 13 14  2  0
 15 16  1  0
 16 17  1  0
 17 18  1  0
 19 17  2  0
M  END
$$$$
