AKG.pdb
     RDKit          3D

 19 18  0  0  1  0  0  0  0  0999 V2000
   10.3047  -19.2361   17.9430 C   0  0  0  0  0  0  0  0  0  0  0  0
   10.5039  -19.3069   19.4408 C   0  0  2  0  0  0  0  0  0  0  0  0
    9.2812  -19.7638   20.0277 N   0  0  0  0  0  0  0  0  0  0  0  0
   10.7873  -17.9219   19.9352 C   0  0  0  0  0  0  0  0  0  0  0  0
   11.9187  -17.3908   19.6611 O   0  0  0  0  0  0  0  0  0  0  0  0
    9.8067  -17.2205   20.6951 N   0  0  0  0  0  0  0  0  0  0  0  0
    9.9857  -15.9068   21.2215 C   0  0  1  0  0  0  0  0  0  0  0  0
    8.9071  -14.9609   20.8612 C   0  0  0  0  0  0  0  0  0  0  0  0
    8.6587  -14.7149   19.4239 C   0  0  0  0  0  0  0  0  0  0  0  0
    7.4886  -13.7823   19.2266 C   0  0  0  0  0  0  0  0  0  0  0  0
    7.1732  -13.5183   17.7944 C   0  0  0  0  0  0  0  0  0  0  0  0
    5.9056  -12.8269   17.6201 N   0  0  0  0  0  0  0  0  0  0  0  0
   10.4395  -15.8618   22.6331 C   0  0  0  0  0  0  0  0  0  0  0  0
   10.6484  -14.7328   23.1413 O   0  0  0  0  0  0  0  0  0  0  0  0
   10.6541  -17.0011   23.4345 N   0  0  0  0  0  0  0  0  0  0  0  0
   11.0279  -16.9129   24.8434 C   0  0  0  0  0  0  0  0  0  0  0  0
   12.4253  -17.3097   25.0665 C   0  0  0  0  0  0  0  0  0  0  0  0
   13.0077  -17.3964   26.3214 O   0  0  0  0  0  0  0  0  0  0  0  0
   13.1443  -17.5890   24.0740 O   0  0  0  0  0  0  0  0  0  0  0  0
  2  3  1  0
  2  1  1  6
  4  5  2  0
  4  2  1  0
  6  4  1  0
  7  6  1  0
  7 13  1  0
  7  8  1  1
  9  8  1  0
 10  9  1  0
 11 10  1  0
 12 11  1  0
 13 15  1  0
 13 14  2  0
 15 16  1  0
 16 17  1  0
 17 18  1  0
 19 17  2  0
M  END
$$$$
