AKG.pdb
     RDKit          3D

 19 18  0  0  1  0  0  0  0  0999 V2000
   -3.0028  -26.2524   26.5642 C   0  0  0  0  0  0  0  0  0  0  0  0
   -4.2027  -26.2848   25.6436 C   0  0  2  0  0  0  0  0  0  0  0  0
   -3.7303  -26.1630   24.2982 N   0  0  0  0  0  0  0  0  0  0  0  0
   -5.0613  -25.0997   25.9617 C   0  0  0  0  0  0  0  0  0  0  0  0
   -4.6322  -23.9318   25.6630 O   0  0  0  0  0  0  0  0  0  0  0  0
   -6.3296  -25.2835   26.5851 N   0  0  0  0  0  0  0  0  0  0  0  0
   -7.2563  -24.2315   26.8482 C   0  0  1  0  0  0  0  0  0  0  0  0
   -8.6742  -24.6264   26.7012 C   0  0  0  0  0  0  0  0  0  0  0  0
   -9.1702  -24.9173   25.3383 C   0  0  0  0  0  0  0  0  0  0  0  0
  -10.6382  -25.2673   25.3576 C   0  0  0  0  0  0  0  0  0  0  0  0
  -11.2020  -25.5422   24.0060 C   0  0  0  0  0  0  0  0  0  0  0  0
  -10.4420  -26.5458   23.2776 N   0  0  0  0  0  0  0  0  0  0  0  0
   -6.9355  -23.4069   28.0389 C   0  0  0  0  0  0  0  0  0  0  0  0
   -7.6516  -22.3993   28.2587 O   0  0  0  0  0  0  0  0  0  0  0  0
   -5.8800  -23.6796   28.9321 N   0  0  0  0  0  0  0  0  0  0  0  0
   -5.6217  -22.8657   30.1168 C   0  0  0  0  0  0  0  0  0  0  0  0
   -4.5185  -23.4056   30.9239 C   0  0  0  0  0  0  0  0  0  0  0  0
   -4.0099  -22.7747   32.0485 O   0  0  0  0  0  0  0  0  0  0  0  0
   -3.9975  -24.4991   30.5880 O   0  0  0  0  0  0  0  0  0  0  0  0
  2  3  1  0
  2  1  1  1
  4  5  2  0
  4  2  1  0
  6  4  1  0
  7  6  1  0
  7 13  1  0
  7  8  1  1
  9  8  1  0
 10  9  1  0
 11 10  1  0
 12 11  1  0
 13 15  1  0
 13 14  2  0
 15 16  1  0
 16 17  1  0
 17 18  1  0
 19 17  2  0
M  END
$$$$
