AKG.pdb
     RDKit          3D

 19 18  0  0  1  0  0  0  0  0999 V2000
    8.5901  -14.6065   17.8929 C   0  0  0  0  0  0  0  0  0  0  0  0
    8.5452  -13.6441   19.0592 C   0  0  2  0  0  0  0  0  0  0  0  0
    8.6950  -12.3177   18.5430 N   0  0  0  0  0  0  0  0  0  0  0  0
    9.7078  -13.9470   19.9532 C   0  0  0  0  0  0  0  0  0  0  0  0
   10.8207  -13.3539   19.7367 O   0  0  0  0  0  0  0  0  0  0  0  0
    9.5635  -14.8800   21.0208 N   0  0  0  0  0  0  0  0  0  0  0  0
   10.6113  -15.2444   21.9175 C   0  0  1  0  0  0  0  0  0  0  0  0
   10.1413  -15.8836   23.1659 C   0  0  0  0  0  0  0  0  0  0  0  0
   11.1616  -16.2997   24.1528 C   0  0  0  0  0  0  0  0  0  0  0  0
   10.5196  -16.9232   25.3680 C   0  0  0  0  0  0  0  0  0  0  0  0
   11.4684  -17.1420   26.4959 C   0  0  0  0  0  0  0  0  0  0  0  0
   10.8045  -17.6151   27.7003 N   0  0  0  0  0  0  0  0  0  0  0  0
   11.7877  -15.8763   21.2713 C   0  0  0  0  0  0  0  0  0  0  0  0
   11.5776  -16.8448   20.5006 O   0  0  0  0  0  0  0  0  0  0  0  0
   13.1201  -15.4625   21.4706 N   0  0  0  0  0  0  0  0  0  0  0  0
   14.2488  -16.0883   20.7871 C   0  0  0  0  0  0  0  0  0  0  0  0
   15.5372  -15.5663   21.2640 C   0  0  0  0  0  0  0  0  0  0  0  0
   16.7641  -15.9853   20.7735 O   0  0  0  0  0  0  0  0  0  0  0  0
   15.5427  -14.6911   22.1663 O   0  0  0  0  0  0  0  0  0  0  0  0
  2  3  1  0
  2  1  1  6
  4  5  2  0
  4  2  1  0
  6  4  1  0
  7  6  1  0
  7 13  1  0
  7  8  1  1
  9  8  1  0
 10  9  1  0
 11 10  1  0
 12 11  1  0
 13 15  1  0
 13 14  2  0
 15 16  1  0
 16 17  1  0
 17 18  1  0
 19 17  2  0
M  END
$$$$
