AKG.pdb
     RDKit          3D

 19 18  0  0  1  0  0  0  0  0999 V2000
    9.0020  -12.4539   20.2816 C   0  0  0  0  0  0  0  0  0  0  0  0
    8.2585  -13.6475   19.7239 C   0  0  2  0  0  0  0  0  0  0  0  0
    7.2742  -13.1641   18.8042 N   0  0  0  0  0  0  0  0  0  0  0  0
    7.5616  -14.3299   20.8603 C   0  0  0  0  0  0  0  0  0  0  0  0
    6.4355  -13.8694   21.2564 O   0  0  0  0  0  0  0  0  0  0  0  0
    8.1527  -15.4694   21.4794 N   0  0  0  0  0  0  0  0  0  0  0  0
    7.5298  -16.2412   22.5047 C   0  0  1  0  0  0  0  0  0  0  0  0
    6.9978  -17.5414   22.0415 C   0  0  0  0  0  0  0  0  0  0  0  0
    6.3010  -18.3920   23.0308 C   0  0  0  0  0  0  0  0  0  0  0  0
    5.8875  -19.7087   22.4198 C   0  0  0  0  0  0  0  0  0  0  0  0
    5.1651  -20.6035   23.3672 C   0  0  0  0  0  0  0  0  0  0  0  0
    4.6743  -21.8140   22.7278 N   0  0  0  0  0  0  0  0  0  0  0  0
    8.2635  -16.2656   23.7937 C   0  0  0  0  0  0  0  0  0  0  0  0
    9.4933  -16.5156   23.7584 O   0  0  0  0  0  0  0  0  0  0  0  0
    7.6689  -16.0313   25.0498 N   0  0  0  0  0  0  0  0  0  0  0  0
    8.4366  -16.0102   26.2920 C   0  0  0  0  0  0  0  0  0  0  0  0
    8.5346  -17.3449   26.8994 C   0  0  0  0  0  0  0  0  0  0  0  0
    9.1339  -17.5881   28.1255 O   0  0  0  0  0  0  0  0  0  0  0  0
    8.0531  -18.3299   26.2848 O   0  0  0  0  0  0  0  0  0  0  0  0
  2  3  1  0
  2  1  1  1
  4  5  2  0
  4  2  1  0
  6  4  1  0
  7  6  1  0
  7 13  1  0
  7  8  1  6
  9  8  1  0
 10  9  1  0
 11 10  1  0
 12 11  1  0
 13 15  1  0
 13 14  2  0
 15 16  1  0
 16 17  1  0
 17 18  1  0
 19 17  2  0
M  END
$$$$
