AKG.pdb
     RDKit          3D

 19 18  0  0  1  0  0  0  0  0999 V2000
    7.5670  -12.7145   19.8941 C   0  0  0  0  0  0  0  0  0  0  0  0
    8.2042  -14.0633   19.6431 C   0  0  2  0  0  0  0  0  0  0  0  0
    7.2069  -15.0684   19.8520 N   0  0  0  0  0  0  0  0  0  0  0  0
    9.2968  -14.2527   20.6497 C   0  0  0  0  0  0  0  0  0  0  0  0
   10.3373  -13.5118   20.5743 O   0  0  0  0  0  0  0  0  0  0  0  0
    9.1670  -15.2426   21.6667 N   0  0  0  0  0  0  0  0  0  0  0  0
   10.1927  -15.5754   22.6005 C   0  0  1  0  0  0  0  0  0  0  0  0
    9.6945  -16.1953   23.8477 C   0  0  0  0  0  0  0  0  0  0  0  0
   10.6923  -16.5978   24.8628 C   0  0  0  0  0  0  0  0  0  0  0  0
   10.0260  -17.2424   26.0537 C   0  0  0  0  0  0  0  0  0  0  0  0
   10.9672  -17.5517   27.1668 C   0  0  0  0  0  0  0  0  0  0  0  0
   10.2975  -18.1356   28.3183 N   0  0  0  0  0  0  0  0  0  0  0  0
   11.3950  -16.2050   22.0016 C   0  0  0  0  0  0  0  0  0  0  0  0
   11.2225  -17.2155   21.2767 O   0  0  0  0  0  0  0  0  0  0  0  0
   12.7127  -15.7451   22.1976 N   0  0  0  0  0  0  0  0  0  0  0  0
   13.8832  -16.5021   21.7623 C   0  0  0  0  0  0  0  0  0  0  0  0
   15.1346  -15.7784   22.0272 C   0  0  0  0  0  0  0  0  0  0  0  0
   16.1571  -15.6484   21.1002 O   0  0  0  0  0  0  0  0  0  0  0  0
   15.3012  -15.2426   23.1519 O   0  0  0  0  0  0  0  0  0  0  0  0
  2  3  1  0
  2  1  1  1
  4  5  2  0
  4  2  1  0
  6  4  1  0
  7  6  1  0
  7 13  1  0
  7  8  1  1
  9  8  1  0
 10  9  1  0
 11 10  1  0
 12 11  1  0
 13 15  1  0
 13 14  2  0
 15 16  1  0
 16 17  1  0
 17 18  1  0
 19 17  2  0
M  END
$$$$
