RQA.pdb
     RDKit          3D

 26 25  0  0  1  0  0  0  0  0999 V2000
    8.1087  -12.5747   18.5132 N   0  0  0  0  0  0  0  0  0  0  0  0
    8.0694  -13.4438   17.4095 C   0  0  0  0  0  0  0  0  0  0  0  0
    7.2035  -13.1984   16.4803 N   0  0  0  0  0  0  0  0  0  0  0  0
    8.9612  -14.5338   17.3567 N   0  0  0  0  0  0  0  0  0  0  0  0
    9.1571  -15.3290   18.5708 C   0  0  0  0  0  0  0  0  0  0  0  0
    7.8311  -15.8078   19.0776 C   0  0  0  0  0  0  0  0  0  0  0  0
    7.6196  -15.5754   20.5273 C   0  0  0  0  0  0  0  0  0  0  0  0
    8.5125  -16.2914   21.4677 C   0  0  2  0  0  0  0  0  0  0  0  0
    8.5465  -17.6930   21.2305 N   0  0  0  0  0  0  0  0  0  0  0  0
    8.0997  -15.9694   22.8809 C   0  0  0  0  0  0  0  0  0  0  0  0
    7.8135  -14.7814   23.1758 O   0  0  0  0  0  0  0  0  0  0  0  0
    7.1943  -13.6731   15.5540 N   0  0  0  0  0  0  0  0  0  0  0  0
    6.4605  -20.2700   27.1877 C   0  0  0  0  0  0  0  0  0  0  0  0
    7.6935  -20.1953   26.4905 O   0  0  0  0  0  0  0  0  0  0  0  0
    8.4483  -21.1866   26.5500 C   0  0  0  0  0  0  0  0  0  0  0  0
    8.0044  -18.9631   25.7465 C   0  0  0  0  0  0  0  0  0  0  0  0
    7.0272  -17.8586   25.8966 C   0  0  1  0  0  0  0  0  0  0  0  0
    7.4335  -16.5826   25.2185 N   0  0  0  0  0  0  0  0  0  0  0  0
    8.0213  -16.9484   23.8876 C   0  0  0  0  0  0  0  0  0  0  0  0
    8.4558  -15.7956   25.9555 O   0  0  0  0  0  0  0  0  0  0  0  0
    9.7052  -16.0128   25.7228 C   0  0  0  0  0  0  0  0  0  0  0  0
    8.6377  -12.6992   27.9490 C   0  0  2  0  0  0  0  0  0  0  0  0
    9.2645  -14.0472   27.5736 N   0  0  0  0  0  0  0  0  0  0  0  0
    8.2113  -14.8016   26.9103 C   0  0  0  0  0  0  0  0  0  0  0  0
    9.8080  -14.7368   28.7383 O   0  0  0  0  0  0  0  0  0  0  0  0
   10.9090  -14.2541   29.4210 O   0  0  0  0  0  0  0  0  0  0  0  0
  2  3  2  0
  2  1  1  0
  4  2  1  0
  5  6  1  0
  5  4  1  0
  6  7  1  0
  7  8  1  0
  8  9  1  6
 10  8  1  0
 10 18  1  0
 11 10  2  0
 13 15  1  0
 13 12  1  0
 14 13  2  0
 17 16  1  6
 16 15  1  0
 17 18  1  0
 19 17  1  0
 20 19  2  0
 22 21  1  6
 22 24  1  0
 22 23  1  0
 23 19  1  0
 24 25  1  0
 26 24  2  0
M  END
$$$$
