RQA.pdb
     RDKit          3D

 26 25  0  0  1  0  0  0  0  0999 V2000
    9.4233  -13.1374   18.4322 N   0  0  0  0  0  0  0  0  0  0  0  0
    8.6613  -12.6469   19.5064 C   0  0  0  0  0  0  0  0  0  0  0  0
    9.2125  -11.7751   20.2871 N   0  0  0  0  0  0  0  0  0  0  0  0
    7.3450  -13.1157   19.6903 N   0  0  0  0  0  0  0  0  0  0  0  0
    7.1518  -14.5303   20.0163 C   0  0  0  0  0  0  0  0  0  0  0  0
    7.4011  -14.7480   21.4775 C   0  0  0  0  0  0  0  0  0  0  0  0
    7.2254  -16.1540   21.9165 C   0  0  0  0  0  0  0  0  0  0  0  0
    8.4501  -16.9663   22.1017 C   0  0  2  0  0  0  0  0  0  0  0  0
    8.1841  -18.3631   22.1125 N   0  0  0  0  0  0  0  0  0  0  0  0
    9.1538  -16.5175   23.3565 C   0  0  0  0  0  0  0  0  0  0  0  0
    9.7706  -15.4222   23.3500 O   0  0  0  0  0  0  0  0  0  0  0  0
    8.7375  -11.3482   21.1091 N   0  0  0  0  0  0  0  0  0  0  0  0
    8.8550  -13.1418   27.1498 C   0  0  0  0  0  0  0  0  0  0  0  0
    9.4399  -14.0076   28.1090 O   0  0  0  0  0  0  0  0  0  0  0  0
    9.9013  -13.4891   29.1455 C   0  0  0  0  0  0  0  0  0  0  0  0
    9.4670  -15.4522   27.8250 C   0  0  0  0  0  0  0  0  0  0  0  0
    8.9706  -15.8529   26.4869 C   0  0  1  0  0  0  0  0  0  0  0  0
    9.8940  -16.7695   25.7383 N   0  0  0  0  0  0  0  0  0  0  0  0
    9.1485  -17.2777   24.5398 C   0  0  0  0  0  0  0  0  0  0  0  0
   10.3464  -17.9521   26.5157 O   0  0  0  0  0  0  0  0  0  0  0  0
    9.4791  -18.8325   26.8834 C   0  0  0  0  0  0  0  0  0  0  0  0
   13.5333  -19.6736   27.2310 C   0  0  2  0  0  0  0  0  0  0  0  0
   12.0511  -19.4736   27.5684 N   0  0  0  0  0  0  0  0  0  0  0  0
   11.6593  -18.2366   26.9090 C   0  0  0  0  0  0  0  0  0  0  0  0
   11.8206  -19.4457   29.0084 O   0  0  0  0  0  0  0  0  0  0  0  0
   11.8410  -20.5989   29.7705 O   0  0  0  0  0  0  0  0  0  0  0  0
  2  3  2  0
  2  1  1  0
  4  2  1  0
  5  6  1  0
  5  4  1  0
  6  7  1  0
  7  8  1  0
  8  9  1  1
 10  8  1  0
 10 18  1  0
 11 10  2  0
 13 15  1  0
 13 12  1  0
 14 13  2  0
 17 16  1  6
 16 15  1  0
 17 18  1  0
 19 17  1  0
 20 19  2  0
 22 21  1  6
 22 24  1  0
 22 23  1  0
 23 19  1  0
 24 25  1  0
 26 24  2  0
M  END
$$$$
