RQA.pdb
     RDKit          3D

 26 25  0  0  1  0  0  0  0  0999 V2000
    9.2890  -14.6390   22.4141 N   0  0  0  0  0  0  0  0  0  0  0  0
    7.9062  -14.5230   22.6364 C   0  0  0  0  0  0  0  0  0  0  0  0
    7.3595  -15.3460   23.4715 N   0  0  0  0  0  0  0  0  0  0  0  0
    7.1776  -13.5297   21.9520 N   0  0  0  0  0  0  0  0  0  0  0  0
    7.8841  -12.7040   20.9703 C   0  0  0  0  0  0  0  0  0  0  0  0
    8.2953  -13.5503   19.8045 C   0  0  0  0  0  0  0  0  0  0  0  0
    8.9533  -12.7931   18.7116 C   0  0  0  0  0  0  0  0  0  0  0  0
    9.4473  -13.5679   17.5498 C   0  0  2  0  0  0  0  0  0  0  0  0
    8.4160  -14.3038   16.9041 N   0  0  0  0  0  0  0  0  0  0  0  0
   10.5789  -14.4575   17.9961 C   0  0  0  0  0  0  0  0  0  0  0  0
   10.3846  -15.6969   18.0740 O   0  0  0  0  0  0  0  0  0  0  0  0
    6.3517  -15.3265   23.7316 N   0  0  0  0  0  0  0  0  0  0  0  0
   16.6745  -13.4993   17.0967 C   0  0  0  0  0  0  0  0  0  0  0  0
   16.7052  -14.6351   17.9456 O   0  0  0  0  0  0  0  0  0  0  0  0
   17.8206  -15.1317   18.2012 C   0  0  0  0  0  0  0  0  0  0  0  0
   15.4301  -15.1544   18.4680 C   0  0  0  0  0  0  0  0  0  0  0  0
   14.2255  -14.3609   18.1261 C   0  0  1  0  0  0  0  0  0  0  0  0
   12.9463  -14.9162   18.6815 N   0  0  0  0  0  0  0  0  0  0  0  0
   11.8493  -13.9550   18.3306 C   0  0  0  0  0  0  0  0  0  0  0  0
   12.9393  -15.0798   20.1583 O   0  0  0  0  0  0  0  0  0  0  0  0
   13.0801  -14.0397   20.9071 C   0  0  0  0  0  0  0  0  0  0  0  0
   12.2965  -17.7719   22.6546 C   0  0  2  0  0  0  0  0  0  0  0  0
   12.8190  -16.3713   22.3138 N   0  0  0  0  0  0  0  0  0  0  0  0
   12.7878  -16.2805   20.8615 C   0  0  0  0  0  0  0  0  0  0  0  0
   14.1479  -16.1375   22.8678 O   0  0  0  0  0  0  0  0  0  0  0  0
   14.3378  -15.8553   24.2078 O   0  0  0  0  0  0  0  0  0  0  0  0
  2  3  2  0
  2  1  1  0
  4  2  1  0
  5  6  1  0
  5  4  1  0
  6  7  1  0
  7  8  1  0
  8  9  1  1
 10  8  1  0
 10 18  1  0
 11 10  2  0
 13 15  1  0
 13 12  1  0
 14 13  2  0
 17 16  1  6
 16 15  1  0
 17 18  1  0
 19 17  1  0
 20 19  2  0
 22 21  1  1
 22 24  1  0
 22 23  1  0
 23 19  1  0
 24 25  1  0
 26 24  2  0
M  END
$$$$
