RQA.pdb
     RDKit          3D

 26 25  0  0  1  0  0  0  0  0999 V2000
    7.5760  -11.8601   18.4780 N   0  0  0  0  0  0  0  0  0  0  0  0
    7.8062  -13.1644   18.0081 C   0  0  0  0  0  0  0  0  0  0  0  0
    8.0943  -13.3111   16.7556 N   0  0  0  0  0  0  0  0  0  0  0  0
    7.7160  -14.2477   18.9051 N   0  0  0  0  0  0  0  0  0  0  0  0
    6.7046  -14.1900   19.9627 C   0  0  0  0  0  0  0  0  0  0  0  0
    7.3353  -14.5234   21.2801 C   0  0  0  0  0  0  0  0  0  0  0  0
    7.4889  -15.9785   21.5244 C   0  0  0  0  0  0  0  0  0  0  0  0
    8.0175  -16.8021   20.4125 C   0  0  2  0  0  0  0  0  0  0  0  0
    7.2165  -17.9476   20.1509 N   0  0  0  0  0  0  0  0  0  0  0  0
    9.4480  -17.1714   20.7098 C   0  0  0  0  0  0  0  0  0  0  0  0
    9.6886  -18.2665   21.2781 O   0  0  0  0  0  0  0  0  0  0  0  0
    8.3011  -14.2290   16.3101 N   0  0  0  0  0  0  0  0  0  0  0  0
   14.7299  -14.1179   18.8346 C   0  0  0  0  0  0  0  0  0  0  0  0
   15.2471  -15.1689   19.6343 O   0  0  0  0  0  0  0  0  0  0  0  0
   16.4866  -15.2449   19.7521 C   0  0  0  0  0  0  0  0  0  0  0  0
   14.2979  -16.0980   20.2702 C   0  0  0  0  0  0  0  0  0  0  0  0
   12.8662  -15.8582   19.9701 C   0  0  1  0  0  0  0  0  0  0  0  0
   11.9267  -16.7994   20.6664 N   0  0  0  0  0  0  0  0  0  0  0  0
   10.5297  -16.3367   20.3758 C   0  0  0  0  0  0  0  0  0  0  0  0
   12.0839  -16.8409   22.1433 O   0  0  0  0  0  0  0  0  0  0  0  0
   11.8637  -15.7719   22.8297 C   0  0  0  0  0  0  0  0  0  0  0  0
   12.0973  -19.3278   24.8227 C   0  0  2  0  0  0  0  0  0  0  0  0
   12.5413  -17.9343   24.3624 N   0  0  0  0  0  0  0  0  0  0  0  0
   12.4548  -17.9520   22.9096 C   0  0  0  0  0  0  0  0  0  0  0  0
   13.8766  -17.6021   24.8465 O   0  0  0  0  0  0  0  0  0  0  0  0
   14.1227  -17.3458   26.1825 O   0  0  0  0  0  0  0  0  0  0  0  0
  2  3  2  0
  2  1  1  0
  4  2  1  0
  5  6  1  0
  5  4  1  0
  6  7  1  0
  7  8  1  0
  8  9  1  1
 10  8  1  0
 10 18  1  0
 11 10  2  0
 13 15  1  0
 13 12  1  0
 14 13  2  0
 17 16  1  6
 16 15  1  0
 17 18  1  0
 19 17  1  0
 20 19  2  0
 22 21  1  1
 22 24  1  0
 22 23  1  0
 23 19  1  0
 24 25  1  0
 26 24  2  0
M  END
$$$$
