RQA.pdb
     RDKit          3D

 26 25  0  0  1  0  0  0  0  0999 V2000
    7.3172  -15.1555   14.4513 N   0  0  0  0  0  0  0  0  0  0  0  0
    8.6182  -14.7262   14.7646 C   0  0  0  0  0  0  0  0  0  0  0  0
    9.5687  -15.0364   13.9439 N   0  0  0  0  0  0  0  0  0  0  0  0
    8.8356  -13.9848   15.9434 N   0  0  0  0  0  0  0  0  0  0  0  0
    7.6857  -13.6957   16.8029 C   0  0  0  0  0  0  0  0  0  0  0  0
    8.1488  -12.9932   18.0425 C   0  0  0  0  0  0  0  0  0  0  0  0
    7.8583  -13.7294   19.2972 C   0  0  0  0  0  0  0  0  0  0  0  0
    8.8175  -13.5721   20.4150 C   0  0  2  0  0  0  0  0  0  0  0  0
   10.1285  -13.2483   19.9698 N   0  0  0  0  0  0  0  0  0  0  0  0
    8.8015  -14.8216   21.2574 C   0  0  0  0  0  0  0  0  0  0  0  0
    7.7034  -15.2420   21.7020 O   0  0  0  0  0  0  0  0  0  0  0  0
   10.5616  -14.7499   14.0691 N   0  0  0  0  0  0  0  0  0  0  0  0
   11.5535  -18.6964   18.6333 C   0  0  0  0  0  0  0  0  0  0  0  0
   11.8063  -19.0657   19.9792 O   0  0  0  0  0  0  0  0  0  0  0  0
   12.9020  -19.6060   20.2308 C   0  0  0  0  0  0  0  0  0  0  0  0
   10.7688  -18.7917   20.9878 C   0  0  0  0  0  0  0  0  0  0  0  0
   11.0563  -17.6731   21.9170 C   0  0  2  0  0  0  0  0  0  0  0  0
    9.8530  -16.8534   22.2823 N   0  0  0  0  0  0  0  0  0  0  0  0
    9.9704  -15.5396   21.5677 C   0  0  0  0  0  0  0  0  0  0  0  0
    9.7283  -16.5612   23.7337 O   0  0  0  0  0  0  0  0  0  0  0  0
   10.4835  -15.6590   24.2610 C   0  0  0  0  0  0  0  0  0  0  0  0
    7.3629  -17.0490   26.4934 C   0  0  2  0  0  0  0  0  0  0  0  0
    8.8240  -16.8838   26.0591 N   0  0  0  0  0  0  0  0  0  0  0  0
    8.8475  -17.1735   24.6329 C   0  0  0  0  0  0  0  0  0  0  0  0
    9.7193  -17.7424   26.8265 O   0  0  0  0  0  0  0  0  0  0  0  0
   10.0578  -17.4546   28.1356 O   0  0  0  0  0  0  0  0  0  0  0  0
  2  3  2  0
  2  1  1  0
  4  2  1  0
  5  6  1  0
  5  4  1  0
  6  7  1  0
  7  8  1  0
  8  9  1  6
 10  8  1  0
 10 18  1  0
 11 10  2  0
 13 15  1  0
 13 12  1  0
 14 13  2  0
 17 16  1  6
 16 15  1  0
 17 18  1  0
 19 17  1  0
 20 19  2  0
 22 21  1  6
 22 24  1  0
 22 23  1  0
 23 19  1  0
 24 25  1  0
 26 24  2  0
M  END
$$$$
