RQA.pdb
     RDKit          3D

 26 25  0  0  1  0  0  0  0  0999 V2000
    7.6459  -12.6727   19.1864 N   0  0  0  0  0  0  0  0  0  0  0  0
    8.8675  -13.3169   18.9257 C   0  0  0  0  0  0  0  0  0  0  0  0
    9.9372  -12.8152   19.4525 N   0  0  0  0  0  0  0  0  0  0  0  0
    8.8816  -14.4678   18.1124 N   0  0  0  0  0  0  0  0  0  0  0  0
    7.6057  -14.9676   17.5957 C   0  0  0  0  0  0  0  0  0  0  0  0
    7.0013  -15.9184   18.5832 C   0  0  0  0  0  0  0  0  0  0  0  0
    7.6198  -17.2667   18.5788 C   0  0  0  0  0  0  0  0  0  0  0  0
    8.1017  -17.7974   19.8750 C   0  0  2  0  0  0  0  0  0  0  0  0
    7.6456  -17.0324   20.9835 N   0  0  0  0  0  0  0  0  0  0  0  0
    9.6052  -17.8953   19.8390 C   0  0  0  0  0  0  0  0  0  0  0  0
   10.1488  -18.5889   18.9426 O   0  0  0  0  0  0  0  0  0  0  0  0
   10.8918  -13.2069   19.3148 N   0  0  0  0  0  0  0  0  0  0  0  0
   13.6969  -13.7687   18.8629 C   0  0  0  0  0  0  0  0  0  0  0  0
   14.3097  -15.0377   18.7020 O   0  0  0  0  0  0  0  0  0  0  0  0
   15.2260  -15.1310   17.8608 C   0  0  0  0  0  0  0  0  0  0  0  0
   13.8305  -16.1574   19.5298 C   0  0  0  0  0  0  0  0  0  0  0  0
   12.3647  -16.2175   19.7421 C   0  0  1  0  0  0  0  0  0  0  0  0
   11.9184  -17.3418   20.6310 N   0  0  0  0  0  0  0  0  0  0  0  0
   10.4284  -17.2391   20.7718 C   0  0  0  0  0  0  0  0  0  0  0  0
   12.4982  -17.3089   21.9986 O   0  0  0  0  0  0  0  0  0  0  0  0
   12.5174  -16.1946   22.6471 C   0  0  0  0  0  0  0  0  0  0  0  0
   13.9295  -19.7021   24.4804 C   0  0  2  0  0  0  0  0  0  0  0  0
   13.6953  -18.2674   23.9929 N   0  0  0  0  0  0  0  0  0  0  0  0
   13.0455  -18.3918   22.6965 C   0  0  0  0  0  0  0  0  0  0  0  0
   14.9369  -17.5043   23.9335 O   0  0  0  0  0  0  0  0  0  0  0  0
   15.5053  -17.1329   22.7292 O   0  0  0  0  0  0  0  0  0  0  0  0
  2  3  2  0
  2  1  1  0
  4  2  1  0
  5  6  1  0
  5  4  1  0
  6  7  1  0
  7  8  1  0
  8  9  1  1
 10  8  1  0
 10 18  1  0
 11 10  2  0
 13 15  1  0
 13 12  1  0
 14 13  2  0
 17 16  1  6
 16 15  1  0
 17 18  1  0
 19 17  1  0
 20 19  2  0
 22 21  1  1
 22 24  1  0
 22 23  1  0
 23 19  1  0
 24 25  1  0
 26 24  2  0
M  END
$$$$
