RQA.pdb
     RDKit          3D

 26 25  0  0  1  0  0  0  0  0999 V2000
   17.7714  -18.8435   16.3015 N   0  0  0  0  0  0  0  0  0  0  0  0
   17.8318  -17.5304   15.8045 C   0  0  0  0  0  0  0  0  0  0  0  0
   18.3571  -17.3524   14.6358 N   0  0  0  0  0  0  0  0  0  0  0  0
   17.3255  -16.4723   16.5857 N   0  0  0  0  0  0  0  0  0  0  0  0
   16.7504  -16.7900   17.8946 C   0  0  0  0  0  0  0  0  0  0  0  0
   15.3650  -17.3318   17.7167 C   0  0  0  0  0  0  0  0  0  0  0  0
   14.3668  -16.7537   18.6494 C   0  0  0  0  0  0  0  0  0  0  0  0
   13.1840  -16.0907   18.0534 C   0  0  2  0  0  0  0  0  0  0  0  0
   13.5230  -15.2432   16.9630 N   0  0  0  0  0  0  0  0  0  0  0  0
   12.4390  -15.3485   19.1329 C   0  0  0  0  0  0  0  0  0  0  0  0
   12.9894  -14.3619   19.6843 O   0  0  0  0  0  0  0  0  0  0  0  0
   18.4107  -16.4298   14.1568 N   0  0  0  0  0  0  0  0  0  0  0  0
    7.0849  -12.2910   18.8091 C   0  0  0  0  0  0  0  0  0  0  0  0
    7.8647  -13.3032   18.1935 O   0  0  0  0  0  0  0  0  0  0  0  0
    7.4009  -13.8430   17.1691 C   0  0  0  0  0  0  0  0  0  0  0  0
    9.1621  -13.6524   18.7963 C   0  0  0  0  0  0  0  0  0  0  0  0
    9.0990  -14.5111   20.0029 C   0  0  2  0  0  0  0  0  0  0  0  0
   10.4409  -14.8729   20.5702 N   0  0  0  0  0  0  0  0  0  0  0  0
   11.1473  -15.7164   19.5504 C   0  0  0  0  0  0  0  0  0  0  0  0
   10.3821  -15.6555   21.8318 O   0  0  0  0  0  0  0  0  0  0  0  0
    9.9796  -16.8799   21.7944 C   0  0  0  0  0  0  0  0  0  0  0  0
    8.8860  -15.6980   24.5347 C   0  0  1  0  0  0  0  0  0  0  0  0
   10.3912  -15.9102   24.3346 N   0  0  0  0  0  0  0  0  0  0  0  0
   10.7306  -15.2018   23.1093 C   0  0  0  0  0  0  0  0  0  0  0  0
   10.7385  -17.3260   24.2853 O   0  0  0  0  0  0  0  0  0  0  0  0
   11.4746  -17.9294   25.2880 O   0  0  0  0  0  0  0  0  0  0  0  0
  2  3  2  0
  2  1  1  0
  4  2  1  0
  5  6  1  0
  5  4  1  0
  6  7  1  0
  7  8  1  0
  8  9  1  6
 10  8  1  0
 10 18  1  0
 11 10  2  0
 13 15  1  0
 13 12  1  0
 14 13  2  0
 17 16  1  6
 16 15  1  0
 17 18  1  0
 19 17  1  0
 20 19  2  0
 22 21  1  1
 22 24  1  0
 22 23  1  0
 23 19  1  0
 24 25  1  0
 26 24  2  0
M  END
$$$$
