RQA.pdb
     RDKit          3D

 26 25  0  0  1  0  0  0  0  0999 V2000
   10.3009  -12.4160   19.6663 N   0  0  0  0  0  0  0  0  0  0  0  0
    9.2227  -13.1265   19.1115 C   0  0  0  0  0  0  0  0  0  0  0  0
    9.4207  -13.7438   17.9920 N   0  0  0  0  0  0  0  0  0  0  0  0
    7.9849  -13.1400   19.7850 N   0  0  0  0  0  0  0  0  0  0  0  0
    6.8898  -13.9226   19.2079 C   0  0  0  0  0  0  0  0  0  0  0  0
    6.9857  -15.3426   19.6759 C   0  0  0  0  0  0  0  0  0  0  0  0
    6.6144  -15.5351   21.0991 C   0  0  0  0  0  0  0  0  0  0  0  0
    6.6419  -16.9186   21.6275 C   0  0  2  0  0  0  0  0  0  0  0  0
    5.6374  -17.7444   21.0521 N   0  0  0  0  0  0  0  0  0  0  0  0
    6.5412  -16.8740   23.1305 C   0  0  0  0  0  0  0  0  0  0  0  0
    5.4550  -16.5246   23.6578 O   0  0  0  0  0  0  0  0  0  0  0  0
    8.6982  -14.3159   17.5079 N   0  0  0  0  0  0  0  0  0  0  0  0
    9.8235  -19.0044   29.1758 C   0  0  0  0  0  0  0  0  0  0  0  0
    8.8157  -19.3349   28.2340 O   0  0  0  0  0  0  0  0  0  0  0  0
    8.6070  -20.5453   28.0164 C   0  0  0  0  0  0  0  0  0  0  0  0
    8.0846  -18.2389   27.5762 C   0  0  0  0  0  0  0  0  0  0  0  0
    8.0653  -18.2784   26.0945 C   0  0  1  0  0  0  0  0  0  0  0  0
    7.4596  -17.0627   25.4555 N   0  0  0  0  0  0  0  0  0  0  0  0
    7.6181  -17.2091   23.9709 C   0  0  0  0  0  0  0  0  0  0  0  0
    8.1005  -15.7808   25.8474 O   0  0  0  0  0  0  0  0  0  0  0  0
    9.2138  -15.4390   25.2940 C   0  0  0  0  0  0  0  0  0  0  0  0
    7.2501  -12.6244   27.5245 C   0  0  2  0  0  0  0  0  0  0  0  0
    8.3306  -13.6526   27.1692 N   0  0  0  0  0  0  0  0  0  0  0  0
    7.6152  -14.8600   26.7834 C   0  0  0  0  0  0  0  0  0  0  0  0
    9.2567  -13.8715   28.2746 O   0  0  0  0  0  0  0  0  0  0  0  0
   10.1149  -12.8796   28.7114 O   0  0  0  0  0  0  0  0  0  0  0  0
  2  3  2  0
  2  1  1  0
  4  2  1  0
  5  6  1  0
  5  4  1  0
  6  7  1  0
  7  8  1  0
  8  9  1  6
 10  8  1  0
 10 18  1  0
 11 10  2  0
 13 15  1  0
 13 12  1  0
 14 13  2  0
 17 16  1  6
 16 15  1  0
 17 18  1  0
 19 17  1  0
 20 19  2  0
 22 21  1  6
 22 24  1  0
 22 23  1  0
 23 19  1  0
 24 25  1  0
 26 24  2  0
M  END
$$$$
