RQA.pdb
     RDKit          3D

 26 25  0  0  1  0  0  0  0  0999 V2000
    7.2072  -13.8762   21.7506 N   0  0  0  0  0  0  0  0  0  0  0  0
    7.6996  -12.7592   21.0542 C   0  0  0  0  0  0  0  0  0  0  0  0
    8.2595  -11.8186   21.7435 N   0  0  0  0  0  0  0  0  0  0  0  0
    7.5671  -12.7060   19.6521 N   0  0  0  0  0  0  0  0  0  0  0  0
    6.8953  -13.8181   18.9763 C   0  0  0  0  0  0  0  0  0  0  0  0
    7.9107  -14.6663   18.2734 C   0  0  0  0  0  0  0  0  0  0  0  0
    8.6657  -13.9514   17.2154 C   0  0  0  0  0  0  0  0  0  0  0  0
    9.5949  -14.7518   16.3849 C   0  0  2  0  0  0  0  0  0  0  0  0
    8.9211  -15.7068   15.5750 N   0  0  0  0  0  0  0  0  0  0  0  0
   10.6232  -15.3966   17.2782 C   0  0  0  0  0  0  0  0  0  0  0  0
   10.5112  -16.6183   17.5523 O   0  0  0  0  0  0  0  0  0  0  0  0
    8.6695  -10.9574   21.3266 N   0  0  0  0  0  0  0  0  0  0  0  0
   16.4142  -13.2101   18.8523 C   0  0  0  0  0  0  0  0  0  0  0  0
   16.4078  -14.5662   19.2676 O   0  0  0  0  0  0  0  0  0  0  0  0
   17.5067  -15.0879   19.5438 C   0  0  0  0  0  0  0  0  0  0  0  0
   15.1162  -15.2692   19.3459 C   0  0  0  0  0  0  0  0  0  0  0  0
   14.0175  -14.6850   18.5405 C   0  0  1  0  0  0  0  0  0  0  0  0
   12.7097  -15.4108   18.6678 N   0  0  0  0  0  0  0  0  0  0  0  0
   11.7079  -14.6839   17.8201 C   0  0  0  0  0  0  0  0  0  0  0  0
   12.1691  -15.4617   20.0508 O   0  0  0  0  0  0  0  0  0  0  0  0
   11.7170  -14.3811   20.5897 C   0  0  0  0  0  0  0  0  0  0  0  0
   11.0278  -18.0177   22.4616 C   0  0  2  0  0  0  0  0  0  0  0  0
   11.4959  -16.5811   22.2008 N   0  0  0  0  0  0  0  0  0  0  0  0
   12.0862  -16.5933   20.8705 C   0  0  0  0  0  0  0  0  0  0  0  0
   12.4221  -16.1168   23.2275 O   0  0  0  0  0  0  0  0  0  0  0  0
   11.9992  -15.8288   24.5118 O   0  0  0  0  0  0  0  0  0  0  0  0
  2  3  2  0
  2  1  1  0
  4  2  1  0
  5  6  1  0
  5  4  1  0
  6  7  1  0
  7  8  1  0
  8  9  1  1
 10  8  1  0
 10 18  1  0
 11 10  2  0
 13 15  1  0
 13 12  1  0
 14 13  2  0
 17 16  1  6
 16 15  1  0
 17 18  1  0
 19 17  1  0
 20 19  2  0
 22 21  1  6
 22 24  1  0
 22 23  1  0
 23 19  1  0
 24 25  1  0
 26 24  2  0
M  END
$$$$
