RQA.pdb
     RDKit          3D

 26 25  0  0  1  0  0  0  0  0999 V2000
    8.0139  -12.4735   19.2472 N   0  0  0  0  0  0  0  0  0  0  0  0
    9.2125  -13.2049   19.1891 C   0  0  0  0  0  0  0  0  0  0  0  0
   10.2856  -12.6389   19.6383 N   0  0  0  0  0  0  0  0  0  0  0  0
    9.2013  -14.5078   18.6520 N   0  0  0  0  0  0  0  0  0  0  0  0
    7.9067  -15.1229   18.3516 C   0  0  0  0  0  0  0  0  0  0  0  0
    7.7559  -16.3876   19.1404 C   0  0  0  0  0  0  0  0  0  0  0  0
    7.1529  -16.1937   20.4818 C   0  0  0  0  0  0  0  0  0  0  0  0
    6.9644  -17.3984   21.3228 C   0  0  2  0  0  0  0  0  0  0  0  0
    6.0458  -18.3238   20.7555 N   0  0  0  0  0  0  0  0  0  0  0  0
    6.5513  -16.9725   22.7081 C   0  0  0  0  0  0  0  0  0  0  0  0
    5.3285  -16.8292   22.9617 O   0  0  0  0  0  0  0  0  0  0  0  0
   11.2403  -13.0419   19.5397 N   0  0  0  0  0  0  0  0  0  0  0  0
    8.6619  -19.3243   27.7190 C   0  0  0  0  0  0  0  0  0  0  0  0
    7.7304  -19.7586   26.7416 O   0  0  0  0  0  0  0  0  0  0  0  0
    7.4861  -20.9805   26.6834 C   0  0  0  0  0  0  0  0  0  0  0  0
    7.1148  -18.7499   25.8630 C   0  0  0  0  0  0  0  0  0  0  0  0
    7.5721  -17.3549   26.0682 C   0  0  2  0  0  0  0  0  0  0  0  0
    6.9849  -16.3676   25.1019 N   0  0  0  0  0  0  0  0  0  0  0  0
    7.4825  -16.7277   23.7333 C   0  0  0  0  0  0  0  0  0  0  0  0
    7.3701  -14.9557   25.3585 O   0  0  0  0  0  0  0  0  0  0  0  0
    8.5209  -14.5347   24.9573 C   0  0  0  0  0  0  0  0  0  0  0  0
    5.9038  -11.8459   26.7936 C   0  0  2  0  0  0  0  0  0  0  0  0
    7.1265  -12.7146   26.4752 N   0  0  0  0  0  0  0  0  0  0  0  0
    6.5963  -13.9872   26.0086 C   0  0  0  0  0  0  0  0  0  0  0  0
    8.0073  -12.8566   27.6292 O   0  0  0  0  0  0  0  0  0  0  0  0
    8.7941  -11.8115   28.0764 O   0  0  0  0  0  0  0  0  0  0  0  0
  2  3  2  0
  2  1  1  0
  4  2  1  0
  5  6  1  0
  5  4  1  0
  6  7  1  0
  7  8  1  0
  8  9  1  6
 10  8  1  0
 10 18  1  0
 11 10  2  0
 13 15  1  0
 13 12  1  0
 14 13  2  0
 17 16  1  6
 16 15  1  0
 17 18  1  0
 19 17  1  0
 20 19  2  0
 22 21  1  6
 22 24  1  0
 22 23  1  0
 23 19  1  0
 24 25  1  0
 26 24  2  0
M  END
$$$$
