RQA.pdb
     RDKit          3D

 26 25  0  0  1  0  0  0  0  0999 V2000
    9.0750  -12.7823   16.3605 N   0  0  0  0  0  0  0  0  0  0  0  0
    8.2660  -13.9304   16.3119 C   0  0  0  0  0  0  0  0  0  0  0  0
    8.6276  -14.8889   15.5221 N   0  0  0  0  0  0  0  0  0  0  0  0
    7.1083  -13.9939   17.1132 N   0  0  0  0  0  0  0  0  0  0  0  0
    6.9799  -15.1041   18.0595 C   0  0  0  0  0  0  0  0  0  0  0  0
    8.3386  -15.6407   18.3923 C   0  0  0  0  0  0  0  0  0  0  0  0
    8.5396  -15.9215   19.8349 C   0  0  0  0  0  0  0  0  0  0  0  0
    7.5094  -16.7373   20.5184 C   0  0  2  0  0  0  0  0  0  0  0  0
    6.2071  -16.1767   20.4112 N   0  0  0  0  0  0  0  0  0  0  0  0
    7.9172  -16.9435   21.9546 C   0  0  0  0  0  0  0  0  0  0  0  0
    8.0871  -18.1152   22.3769 O   0  0  0  0  0  0  0  0  0  0  0  0
    8.1708  -15.8239   15.4953 N   0  0  0  0  0  0  0  0  0  0  0  0
   12.4267  -17.9335   23.2994 C   0  0  0  0  0  0  0  0  0  0  0  0
   12.2872  -16.5746   23.6810 O   0  0  0  0  0  0  0  0  0  0  0  0
   13.3229  -15.9590   24.0040 C   0  0  0  0  0  0  0  0  0  0  0  0
   10.9404  -15.9791   23.6733 C   0  0  0  0  0  0  0  0  0  0  0  0
    9.8589  -16.8306   24.2236 C   0  0  1  0  0  0  0  0  0  0  0  0
    8.5134  -16.1661   24.2620 N   0  0  0  0  0  0  0  0  0  0  0  0
    8.1161  -15.8734   22.8454 C   0  0  0  0  0  0  0  0  0  0  0  0
    8.4858  -14.8807   25.0068 O   0  0  0  0  0  0  0  0  0  0  0  0
    9.2064  -13.8963   24.5895 C   0  0  0  0  0  0  0  0  0  0  0  0
    6.4495  -12.7950   27.0321 C   0  0  2  0  0  0  0  0  0  0  0  0
    7.8667  -13.3695   26.9204 N   0  0  0  0  0  0  0  0  0  0  0  0
    7.7350  -14.5999   26.1542 C   0  0  0  0  0  0  0  0  0  0  0  0
    8.4725  -13.5798   28.2305 O   0  0  0  0  0  0  0  0  0  0  0  0
    8.8082  -12.5219   29.0547 O   0  0  0  0  0  0  0  0  0  0  0  0
  2  3  2  0
  2  1  1  0
  4  2  1  0
  5  6  1  0
  5  4  1  0
  6  7  1  0
  7  8  1  0
  8  9  1  1
 10  8  1  0
 10 18  1  0
 11 10  2  0
 13 15  1  0
 13 12  1  0
 14 13  2  0
 17 16  1  6
 16 15  1  0
 17 18  1  0
 19 17  1  0
 20 19  2  0
 22 21  1  6
 22 24  1  0
 22 23  1  0
 23 19  1  0
 24 25  1  0
 26 24  2  0
M  END
$$$$
