MTM.pdb
     RDKit          3D

 24 23  0  0  1  0  0  0  0  0999 V2000
   29.6009  -19.9152   -5.7734 C   0  0  0  0  0  0  0  0  0  0  0  0
   28.1599  -18.8824   -5.6191 S   0  0  0  0  0  0  0  0  0  0  0  0
   26.7460  -19.2894   -6.5912 C   0  0  0  0  0  0  0  0  0  0  0  0
   26.9714  -19.7947   -7.9563 C   0  0  0  0  0  0  0  0  0  0  0  0
   25.8346  -20.0791   -8.8456 C   0  0  2  0  0  0  0  0  0  0  0  0
   24.9196  -21.1009   -8.4395 N   0  0  0  0  0  0  0  0  0  0  0  0
   26.2729  -20.4230  -10.2457 C   0  0  0  0  0  0  0  0  0  0  0  0
   27.0707  -21.3718  -10.4806 O   0  0  0  0  0  0  0  0  0  0  0  0
   25.8611  -22.5430  -11.8097 C   0  0  0  0  0  0  0  0  0  0  0  0
   25.2872  -21.5627  -12.8209 C   0  0  1  0  0  0  0  0  0  0  0  0
   23.9182  -21.3917  -12.6540 O   0  0  0  0  0  0  0  0  0  0  0  0
   25.9915  -20.2076  -12.6814 C   0  0  2  0  0  0  0  0  0  0  0  0
   25.8021  -19.6868  -11.3674 N   0  0  0  0  0  0  0  0  0  0  0  0
   25.4542  -19.3360  -13.7473 C   0  0  0  0  0  0  0  0  0  0  0  0
   24.5127  -18.5217  -13.6055 O   0  0  0  0  0  0  0  0  0  0  0  0
   30.4824  -15.9601  -16.5646 C   0  0  0  0  0  0  0  0  0  0  0  0
   29.3568  -17.1766  -17.3401 S   0  0  0  0  0  0  0  0  0  0  0  0
   27.8383  -17.3377  -16.3412 C   0  0  0  0  0  0  0  0  0  0  0  0
   26.9438  -18.3688  -16.9680 C   0  0  0  0  0  0  0  0  0  0  0  0
   25.6947  -18.5611  -16.1338 C   0  0  2  0  0  0  0  0  0  0  0  0
   26.0536  -19.4303  -15.0327 N   0  0  0  0  0  0  0  0  0  0  0  0
   24.5745  -19.0621  -16.9210 C   0  0  0  0  0  0  0  0  0  0  0  0
   24.3954  -20.2891  -17.0797 O   0  0  0  0  0  0  0  0  0  0  0  0
   23.6872  -18.1824  -17.5079 O   0  0  0  0  0  0  0  0  0  0  0  0
  1  2  1  0
  2  3  1  0
  4  3  1  0
  5  4  1  0
  5  6  1  1
  7  5  1  0
  7  8  2  0
 10  9  1  1
 10 12  1  0
 11 10  1  0
 12 13  1  1
 13  7  1  0
 14 12  1  0
 15 14  2  0
 16 17  1  0
 17 18  1  0
 18 19  1  0
 20 19  1  6
 20 21  1  0
 20 22  1  0
 21 14  1  0
 22 24  1  0
 23 22  2  0
M  END
$$$$
