MTM.pdb
     RDKit          3D

 24 23  0  0  1  0  0  0  0  0999 V2000
   32.0485  -21.0651   -8.7500 C   0  0  0  0  0  0  0  0  0  0  0  0
   32.8811  -22.0877   -9.9449 S   0  0  0  0  0  0  0  0  0  0  0  0
   32.0760  -22.3757  -11.4872 C   0  0  0  0  0  0  0  0  0  0  0  0
   30.8384  -21.6279  -11.7679 C   0  0  0  0  0  0  0  0  0  0  0  0
   30.2107  -21.6927  -13.0968 C   0  0  2  0  0  0  0  0  0  0  0  0
   31.0376  -21.4152  -14.2306 N   0  0  0  0  0  0  0  0  0  0  0  0
   29.0079  -20.7918  -13.2081 C   0  0  0  0  0  0  0  0  0  0  0  0
   29.1202  -19.5397  -13.3144 O   0  0  0  0  0  0  0  0  0  0  0  0
   27.0020  -19.1502  -14.9944 C   0  0  0  0  0  0  0  0  0  0  0  0
   25.9651  -19.9417  -14.2125 C   0  0  1  0  0  0  0  0  0  0  0  0
   25.4721  -21.0131  -14.9474 O   0  0  0  0  0  0  0  0  0  0  0  0
   26.5873  -20.4596  -12.9100 C   0  0  2  0  0  0  0  0  0  0  0  0
   27.6877  -21.3199  -13.1977 N   0  0  0  0  0  0  0  0  0  0  0  0
   25.5029  -21.1180  -12.1516 C   0  0  0  0  0  0  0  0  0  0  0  0
   25.5953  -22.2295  -11.5810 O   0  0  0  0  0  0  0  0  0  0  0  0
   25.2064  -20.8362   -7.1976 C   0  0  0  0  0  0  0  0  0  0  0  0
   23.4161  -21.2020   -7.1013 S   0  0  0  0  0  0  0  0  0  0  0  0
   22.6994  -21.2268   -8.7791 C   0  0  0  0  0  0  0  0  0  0  0  0
   23.7519  -20.8190   -9.7702 C   0  0  0  0  0  0  0  0  0  0  0  0
   23.1933  -20.8533  -11.1773 C   0  0  2  0  0  0  0  0  0  0  0  0
   24.2593  -20.4354  -12.0638 N   0  0  0  0  0  0  0  0  0  0  0  0
   21.9841  -20.0503  -11.3130 C   0  0  0  0  0  0  0  0  0  0  0  0
   22.0217  -18.9081  -11.8197 O   0  0  0  0  0  0  0  0  0  0  0  0
   20.7690  -20.5426  -10.8805 O   0  0  0  0  0  0  0  0  0  0  0  0
  1  2  1  0
  2  3  1  0
  4  3  1  0
  5  4  1  0
  5  6  1  6
  7  5  1  0
  7  8  2  0
 10  9  1  6
 10 12  1  0
 11 10  1  0
 12 13  1  6
 13  7  1  0
 14 12  1  0
 15 14  2  0
 16 17  1  0
 17 18  1  0
 18 19  1  0
 20 19  1  1
 20 21  1  0
 20 22  1  0
 21 14  1  0
 22 24  1  0
 23 22  2  0
M  END
$$$$
