MTM.pdb
     RDKit          3D

 24 23  0  0  1  0  0  0  0  0999 V2000
   11.0326  -11.1611   -9.9466 C   0  0  0  0  0  0  0  0  0  0  0  0
   11.8265  -12.5378  -10.7473 S   0  0  0  0  0  0  0  0  0  0  0  0
   13.4876  -12.3243  -11.2996 C   0  0  0  0  0  0  0  0  0  0  0  0
   14.2610  -11.2034  -10.7381 C   0  0  0  0  0  0  0  0  0  0  0  0
   15.6238  -10.9221  -11.2154 C   0  0  2  0  0  0  0  0  0  0  0  0
   16.5718  -11.9924  -11.1709 N   0  0  0  0  0  0  0  0  0  0  0  0
   16.2540   -9.7563  -10.4981 C   0  0  0  0  0  0  0  0  0  0  0  0
   16.8715   -9.8994   -9.4072 O   0  0  0  0  0  0  0  0  0  0  0  0
   18.9578   -7.4490  -11.0850 C   0  0  0  0  0  0  0  0  0  0  0  0
   17.7251   -6.5674  -10.9585 C   0  0  1  0  0  0  0  0  0  0  0  0
   17.2613   -6.1479  -12.1995 O   0  0  0  0  0  0  0  0  0  0  0  0
   16.6146   -7.3361  -10.2321 C   0  0  2  0  0  0  0  0  0  0  0  0
   16.1780   -8.4379  -11.0252 N   0  0  0  0  0  0  0  0  0  0  0  0
   15.5453   -6.3603   -9.9337 C   0  0  0  0  0  0  0  0  0  0  0  0
   14.4211   -6.3326  -10.4859 O   0  0  0  0  0  0  0  0  0  0  0  0
   11.4573   -2.7539   -4.6498 C   0  0  0  0  0  0  0  0  0  0  0  0
   12.6321   -4.0447   -5.1992 S   0  0  0  0  0  0  0  0  0  0  0  0
   13.3209   -3.6001   -6.8293 C   0  0  0  0  0  0  0  0  0  0  0  0
   14.3107   -4.6493   -7.2484 C   0  0  0  0  0  0  0  0  0  0  0  0
   14.8847   -4.3192   -8.6102 C   0  0  2  0  0  0  0  0  0  0  0  0
   15.8153   -5.3777   -8.9427 N   0  0  0  0  0  0  0  0  0  0  0  0
   15.4852   -2.9913   -8.6513 C   0  0  0  0  0  0  0  0  0  0  0  0
   16.7054   -2.8282   -8.4341 O   0  0  0  0  0  0  0  0  0  0  0  0
   14.7094   -1.8847   -8.9328 O   0  0  0  0  0  0  0  0  0  0  0  0
  1  2  1  0
  2  3  1  0
  4  3  1  0
  5  4  1  0
  5  6  1  1
  7  5  1  0
  7  8  2  0
 10  9  1  6
 10 12  1  0
 11 10  1  0
 12 13  1  6
 13  7  1  0
 14 12  1  0
 15 14  2  0
 16 17  1  0
 17 18  1  0
 18 19  1  0
 20 19  1  1
 20 21  1  0
 20 22  1  0
 21 14  1  0
 22 24  1  0
 23 22  2  0
M  END
$$$$
