MTM.pdb
     RDKit          3D

 24 23  0  0  1  0  0  0  0  0999 V2000
   16.5252  -12.3463  -21.2522 C   0  0  0  0  0  0  0  0  0  0  0  0
   17.7004  -11.5439  -20.1837 S   0  0  0  0  0  0  0  0  0  0  0  0
   17.6409  -11.9211  -18.4620 C   0  0  0  0  0  0  0  0  0  0  0  0
   18.5797  -11.2184  -17.5705 C   0  0  0  0  0  0  0  0  0  0  0  0
   20.0243  -11.4860  -17.6455 C   0  0  2  0  0  0  0  0  0  0  0  0
   20.4584  -12.8299  -17.4178 N   0  0  0  0  0  0  0  0  0  0  0  0
   20.8194  -10.6108  -16.7115 C   0  0  0  0  0  0  0  0  0  0  0  0
   21.1387  -10.9907  -15.5515 O   0  0  0  0  0  0  0  0  0  0  0  0
   24.1008   -8.8396  -17.4212 C   0  0  0  0  0  0  0  0  0  0  0  0
   23.1320   -7.7985  -16.8825 C   0  0  1  0  0  0  0  0  0  0  0  0
   22.6390   -6.9810  -17.8924 O   0  0  0  0  0  0  0  0  0  0  0  0
   21.9640   -8.4983  -16.1769 C   0  0  2  0  0  0  0  0  0  0  0  0
   21.2454   -9.3117  -17.1020 N   0  0  0  0  0  0  0  0  0  0  0  0
   21.1421   -7.4372  -15.5580 C   0  0  0  0  0  0  0  0  0  0  0  0
   20.1156   -6.9316  -16.0683 O   0  0  0  0  0  0  0  0  0  0  0  0
   17.6791   -4.8221   -9.3222 C   0  0  0  0  0  0  0  0  0  0  0  0
   18.7626   -6.0634  -10.1181 S   0  0  0  0  0  0  0  0  0  0  0  0
   19.5622   -5.3344  -11.5873 C   0  0  0  0  0  0  0  0  0  0  0  0
   20.2669   -6.4178  -12.3528 C   0  0  0  0  0  0  0  0  0  0  0  0
   20.8895   -5.8541  -13.6128 C   0  0  2  0  0  0  0  0  0  0  0  0
   21.5493   -6.9541  -14.2848 N   0  0  0  0  0  0  0  0  0  0  0  0
   21.7784   -4.7318  -13.3373 C   0  0  0  0  0  0  0  0  0  0  0  0
   22.9752   -4.9177  -13.0279 O   0  0  0  0  0  0  0  0  0  0  0  0
   21.3084   -3.4361  -13.4143 O   0  0  0  0  0  0  0  0  0  0  0  0
  1  2  1  0
  2  3  1  0
  4  3  1  0
  5  4  1  0
  5  6  1  1
  7  5  1  0
  7  8  2  0
 10  9  1  6
 10 12  1  0
 11 10  1  0
 12 13  1  6
 13  7  1  0
 14 12  1  0
 15 14  2  0
 16 17  1  0
 17 18  1  0
 18 19  1  0
 20 19  1  1
 20 21  1  0
 20 22  1  0
 21 14  1  0
 22 24  1  0
 23 22  2  0
M  END
$$$$
