MTM.pdb
     RDKit          3D

 24 23  0  0  1  0  0  0  0  0999 V2000
   22.1672  -17.4800  -19.5831 C   0  0  0  0  0  0  0  0  0  0  0  0
   22.7587  -16.1224  -18.5962 S   0  0  0  0  0  0  0  0  0  0  0  0
   21.5664  -15.1434  -17.7418 C   0  0  0  0  0  0  0  0  0  0  0  0
   22.0483  -13.9703  -16.9926 C   0  0  0  0  0  0  0  0  0  0  0  0
   22.3386  -12.7067  -17.6879 C   0  0  2  0  0  0  0  0  0  0  0  0
   23.2902  -12.7452  -18.7552 N   0  0  0  0  0  0  0  0  0  0  0  0
   22.7913  -11.6229  -16.7439 C   0  0  0  0  0  0  0  0  0  0  0  0
   22.2184  -11.4194  -15.6384 O   0  0  0  0  0  0  0  0  0  0  0  0
   26.2941  -10.9080  -15.4014 C   0  0  0  0  0  0  0  0  0  0  0  0
   25.7671   -9.6301  -16.0356 C   0  0  1  0  0  0  0  0  0  0  0  0
   26.3362   -9.4002  -17.2824 O   0  0  0  0  0  0  0  0  0  0  0  0
   24.2427   -9.7170  -16.1788 C   0  0  2  0  0  0  0  0  0  0  0  0
   23.8905  -10.7793  -17.0627 N   0  0  0  0  0  0  0  0  0  0  0  0
   23.7808   -8.3891  -16.6346 C   0  0  0  0  0  0  0  0  0  0  0  0
   23.4868   -8.0955  -17.8166 O   0  0  0  0  0  0  0  0  0  0  0  0
   20.8279   -1.7063  -13.5987 C   0  0  0  0  0  0  0  0  0  0  0  0
   21.4756   -3.3971  -13.3344 S   0  0  0  0  0  0  0  0  0  0  0  0
   22.1529   -4.0507  -14.8975 C   0  0  0  0  0  0  0  0  0  0  0  0
   22.6080   -5.4661  -14.6832 C   0  0  0  0  0  0  0  0  0  0  0  0
   23.1880   -6.0333  -15.9618 C   0  0  2  0  0  0  0  0  0  0  0  0
   23.6612   -7.3668  -15.6543 N   0  0  0  0  0  0  0  0  0  0  0  0
   24.2189   -5.1740  -16.5314 C   0  0  0  0  0  0  0  0  0  0  0  0
   25.3977   -5.2196  -16.1177 O   0  0  0  0  0  0  0  0  0  0  0  0
   23.9069   -4.2897  -17.5444 O   0  0  0  0  0  0  0  0  0  0  0  0
  1  2  1  0
  2  3  1  0
  4  3  1  0
  5  4  1  0
  5  6  1  6
  7  5  1  0
  7  8  2  0
 10  9  1  6
 10 12  1  0
 11 10  1  0
 12 13  1  6
 13  7  1  0
 14 12  1  0
 15 14  2  0
 16 17  1  0
 17 18  1  0
 18 19  1  0
 20 19  1  1
 20 21  1  0
 20 22  1  0
 21 14  1  0
 22 24  1  0
 23 22  2  0
M  END
$$$$
