MTM.pdb
     RDKit          3D

 24 23  0  0  1  0  0  0  0  0999 V2000
   31.0840  -22.0991   -8.4080 C   0  0  0  0  0  0  0  0  0  0  0  0
   32.0862  -22.3733   -9.8526 S   0  0  0  0  0  0  0  0  0  0  0  0
   31.7251  -21.4294  -11.2978 C   0  0  0  0  0  0  0  0  0  0  0  0
   30.4002  -20.7923  -11.3907 C   0  0  0  0  0  0  0  0  0  0  0  0
   29.3710  -21.3352  -12.2908 C   0  0  2  0  0  0  0  0  0  0  0  0
   29.7726  -21.6787  -13.6200 N   0  0  0  0  0  0  0  0  0  0  0  0
   28.1817  -20.4190  -12.4216 C   0  0  0  0  0  0  0  0  0  0  0  0
   27.5851  -19.9527  -11.4125 O   0  0  0  0  0  0  0  0  0  0  0  0
   27.5362  -17.2701  -14.5271 C   0  0  0  0  0  0  0  0  0  0  0  0
   26.4692  -18.2961  -14.8757 C   0  0  1  0  0  0  0  0  0  0  0  0
   26.7080  -18.8901  -16.1091 O   0  0  0  0  0  0  0  0  0  0  0  0
   26.4203  -19.3775  -13.7895 C   0  0  2  0  0  0  0  0  0  0  0  0
   27.6798  -20.0401  -13.6968 N   0  0  0  0  0  0  0  0  0  0  0  0
   25.3008  -20.2786  -14.1348 C   0  0  0  0  0  0  0  0  0  0  0  0
   25.3838  -21.5247  -14.2348 O   0  0  0  0  0  0  0  0  0  0  0  0
   20.2368  -21.6569   -9.2751 C   0  0  0  0  0  0  0  0  0  0  0  0
   21.6708  -20.7777   -9.9952 S   0  0  0  0  0  0  0  0  0  0  0  0
   21.6017  -20.8704  -11.8162 C   0  0  0  0  0  0  0  0  0  0  0  0
   22.8270  -20.2175  -12.3893 C   0  0  0  0  0  0  0  0  0  0  0  0
   22.7909  -20.2638  -13.9024 C   0  0  2  0  0  0  0  0  0  0  0  0
   24.0319  -19.6833  -14.3712 N   0  0  0  0  0  0  0  0  0  0  0  0
   21.6076  -19.6103  -14.4485 C   0  0  0  0  0  0  0  0  0  0  0  0
   20.5856  -20.2674  -14.7425 O   0  0  0  0  0  0  0  0  0  0  0  0
   21.5973  -18.2448  -14.6512 O   0  0  0  0  0  0  0  0  0  0  0  0
  1  2  1  0
  2  3  1  0
  4  3  1  0
  5  4  1  0
  5  6  1  6
  7  5  1  0
  7  8  2  0
 10  9  1  1
 10 12  1  0
 11 10  1  0
 12 13  1  6
 13  7  1  0
 14 12  1  0
 15 14  2  0
 16 17  1  0
 17 18  1  0
 18 19  1  0
 20 19  1  1
 20 21  1  0
 20 22  1  0
 21 14  1  0
 22 24  1  0
 23 22  2  0
M  END
$$$$
