MTM.pdb
     RDKit          3D

 24 23  0  0  1  0  0  0  0  0999 V2000
   16.8493  -23.7255  -10.0942 C   0  0  0  0  0  0  0  0  0  0  0  0
   16.1465  -22.2612  -10.8211 S   0  0  0  0  0  0  0  0  0  0  0  0
   16.9919  -21.5311  -12.1858 C   0  0  0  0  0  0  0  0  0  0  0  0
   18.3594  -21.9951  -12.4764 C   0  0  0  0  0  0  0  0  0  0  0  0
   19.0523  -21.5606  -13.6993 C   0  0  2  0  0  0  0  0  0  0  0  0
   18.4514  -21.8983  -14.9527 N   0  0  0  0  0  0  0  0  0  0  0  0
   20.4764  -22.0499  -13.7568 C   0  0  0  0  0  0  0  0  0  0  0  0
   20.7568  -23.2769  -13.8435 O   0  0  0  0  0  0  0  0  0  0  0  0
   22.8398  -22.2508  -16.1510 C   0  0  0  0  0  0  0  0  0  0  0  0
   23.5460  -21.4059  -15.1020 C   0  0  1  0  0  0  0  0  0  0  0  0
   23.4908  -20.0515  -15.4078 O   0  0  0  0  0  0  0  0  0  0  0  0
   22.9042  -21.6459  -13.7301 C   0  0  2  0  0  0  0  0  0  0  0  0
   21.5701  -21.1422  -13.7154 N   0  0  0  0  0  0  0  0  0  0  0  0
   23.7879  -21.0121  -12.7291 C   0  0  0  0  0  0  0  0  0  0  0  0
   23.4418  -20.1101  -11.9314 O   0  0  0  0  0  0  0  0  0  0  0  0
   26.9378  -18.9164   -7.5423 C   0  0  0  0  0  0  0  0  0  0  0  0
   26.1919  -20.5712   -7.7736 S   0  0  0  0  0  0  0  0  0  0  0  0
   26.6480  -21.2310   -9.4125 C   0  0  0  0  0  0  0  0  0  0  0  0
   25.5677  -20.8897  -10.3988 C   0  0  0  0  0  0  0  0  0  0  0  0
   26.1280  -20.8577  -11.8052 C   0  0  2  0  0  0  0  0  0  0  0  0
   25.1346  -21.4624  -12.6681 N   0  0  0  0  0  0  0  0  0  0  0  0
   27.4348  -21.4979  -11.8956 C   0  0  0  0  0  0  0  0  0  0  0  0
   28.4726  -20.8987  -11.5398 O   0  0  0  0  0  0  0  0  0  0  0  0
   27.5473  -22.7859  -12.3794 O   0  0  0  0  0  0  0  0  0  0  0  0
  1  2  1  0
  2  3  1  0
  4  3  1  0
  5  4  1  0
  5  6  1  6
  7  5  1  0
  7  8  2  0
 10  9  1  6
 10 12  1  0
 11 10  1  0
 12 13  1  6
 13  7  1  0
 14 12  1  0
 15 14  2  0
 16 17  1  0
 17 18  1  0
 18 19  1  0
 20 19  1  1
 20 21  1  0
 20 22  1  0
 21 14  1  0
 22 24  1  0
 23 22  2  0
M  END
$$$$
