MTM.pdb
     RDKit          3D

 24 23  0  0  1  0  0  0  0  0999 V2000
   27.4854  -20.7334   -8.2046 C   0  0  0  0  0  0  0  0  0  0  0  0
   28.6455  -21.3602   -9.3996 S   0  0  0  0  0  0  0  0  0  0  0  0
   28.1646  -21.3561  -11.0963 C   0  0  0  0  0  0  0  0  0  0  0  0
   26.7515  -21.0839  -11.4106 C   0  0  0  0  0  0  0  0  0  0  0  0
   26.2875  -21.0584  -12.8064 C   0  0  2  0  0  0  0  0  0  0  0  0
   27.0450  -20.2817  -13.7387 N   0  0  0  0  0  0  0  0  0  0  0  0
   24.8560  -20.6035  -12.9272 C   0  0  0  0  0  0  0  0  0  0  0  0
   24.5549  -19.3939  -13.1220 O   0  0  0  0  0  0  0  0  0  0  0  0
   23.2136  -19.1993  -14.4839 C   0  0  0  0  0  0  0  0  0  0  0  0
   22.3033  -20.4148  -14.4031 C   0  0  1  0  0  0  0  0  0  0  0  0
   22.5989  -21.3474  -15.3901 O   0  0  0  0  0  0  0  0  0  0  0  0
   22.4413  -21.0707  -13.0237 C   0  0  2  0  0  0  0  0  0  0  0  0
   23.7783  -21.5256  -12.8259 N   0  0  0  0  0  0  0  0  0  0  0  0
   21.4330  -22.1496  -12.9617 C   0  0  0  0  0  0  0  0  0  0  0  0
   21.4664  -23.2060  -13.6344 O   0  0  0  0  0  0  0  0  0  0  0  0
   19.4607  -23.6883   -7.4492 C   0  0  0  0  0  0  0  0  0  0  0  0
   17.9661  -24.3688   -8.2563 S   0  0  0  0  0  0  0  0  0  0  0  0
   18.0877  -24.1532  -10.0641 C   0  0  0  0  0  0  0  0  0  0  0  0
   19.1317  -23.1166  -10.3672 C   0  0  0  0  0  0  0  0  0  0  0  0
   19.3221  -22.9812  -11.8633 C   0  0  2  0  0  0  0  0  0  0  0  0
   20.3415  -21.9734  -12.0686 N   0  0  0  0  0  0  0  0  0  0  0  0
   18.0737  -22.6864  -12.5563 C   0  0  0  0  0  0  0  0  0  0  0  0
   17.6151  -21.5241  -12.5927 O   0  0  0  0  0  0  0  0  0  0  0  0
   17.3731  -23.6943  -13.1879 O   0  0  0  0  0  0  0  0  0  0  0  0
  1  2  1  0
  2  3  1  0
  4  3  1  0
  5  4  1  0
  5  6  1  6
  7  5  1  0
  7  8  2  0
 10  9  1  1
 10 12  1  0
 11 10  1  0
 12 13  1  6
 13  7  1  0
 14 12  1  0
 15 14  2  0
 16 17  1  0
 17 18  1  0
 18 19  1  0
 20 19  1  1
 20 21  1  0
 20 22  1  0
 21 14  1  0
 22 24  1  0
 23 22  2  0
M  END
$$$$
