MTM.pdb
     RDKit          3D

 24 23  0  0  1  0  0  0  0  0999 V2000
   27.5742  -23.8184  -19.8346 C   0  0  0  0  0  0  0  0  0  0  0  0
   28.9500  -22.7120  -20.0578 S   0  0  0  0  0  0  0  0  0  0  0  0
   29.6897  -22.0151  -18.6166 C   0  0  0  0  0  0  0  0  0  0  0  0
   28.7983  -21.4355  -17.5971 C   0  0  0  0  0  0  0  0  0  0  0  0
   28.7192  -22.0242  -16.2513 C   0  0  2  0  0  0  0  0  0  0  0  0
   28.1907  -23.3489  -16.1413 N   0  0  0  0  0  0  0  0  0  0  0  0
   27.9344  -21.1648  -15.2940 C   0  0  0  0  0  0  0  0  0  0  0  0
   28.1453  -19.9258  -15.1838 O   0  0  0  0  0  0  0  0  0  0  0  0
   24.6658  -20.0016  -15.3230 C   0  0  0  0  0  0  0  0  0  0  0  0
   24.7418  -20.7474  -13.9998 C   0  0  1  0  0  0  0  0  0  0  0  0
   24.1722  -22.0120  -14.0869 O   0  0  0  0  0  0  0  0  0  0  0  0
   26.2067  -20.8765  -13.5648 C   0  0  2  0  0  0  0  0  0  0  0  0
   26.9170  -21.7192  -14.4699 N   0  0  0  0  0  0  0  0  0  0  0  0
   26.1961  -21.3764  -12.1740 C   0  0  0  0  0  0  0  0  0  0  0  0
   26.3459  -22.5740  -11.8380 O   0  0  0  0  0  0  0  0  0  0  0  0
   29.2664  -19.4880   -6.9392 C   0  0  0  0  0  0  0  0  0  0  0  0
   27.5349  -19.1497   -6.4539 S   0  0  0  0  0  0  0  0  0  0  0  0
   26.4022  -20.1778   -7.4486 C   0  0  0  0  0  0  0  0  0  0  0  0
   26.6726  -19.9388   -8.9067 C   0  0  0  0  0  0  0  0  0  0  0  0
   25.7614  -20.7961   -9.7598 C   0  0  2  0  0  0  0  0  0  0  0  0
   26.0009  -20.4227  -11.1383 N   0  0  0  0  0  0  0  0  0  0  0  0
   24.3624  -20.6788   -9.3667 C   0  0  0  0  0  0  0  0  0  0  0  0
   23.9670  -21.0965   -8.2569 O   0  0  0  0  0  0  0  0  0  0  0  0
   23.4453  -20.1000  -10.2210 O   0  0  0  0  0  0  0  0  0  0  0  0
  1  2  1  0
  2  3  1  0
  4  3  1  0
  5  4  1  0
  5  6  1  6
  7  5  1  0
  7  8  2  0
 10  9  1  6
 10 12  1  0
 11 10  1  0
 12 13  1  6
 13  7  1  0
 14 12  1  0
 15 14  2  0
 16 17  1  0
 17 18  1  0
 18 19  1  0
 20 19  1  1
 20 21  1  0
 20 22  1  0
 21 14  1  0
 22 24  1  0
 23 22  2  0
M  END
$$$$
