MTM.pdb
     RDKit          3D

 24 23  0  0  1  0  0  0  0  0999 V2000
   19.5432  -17.6853  -13.4101 C   0  0  0  0  0  0  0  0  0  0  0  0
   20.3588  -17.9510  -14.9692 S   0  0  0  0  0  0  0  0  0  0  0  0
   19.6942  -17.1521  -16.3940 C   0  0  0  0  0  0  0  0  0  0  0  0
   19.2849  -15.7430  -16.2650 C   0  0  0  0  0  0  0  0  0  0  0  0
   18.6199  -15.0524  -17.3807 C   0  0  2  0  0  0  0  0  0  0  0  0
   18.6692  -15.6778  -18.6663 N   0  0  0  0  0  0  0  0  0  0  0  0
   19.1229  -13.6440  -17.5657 C   0  0  0  0  0  0  0  0  0  0  0  0
   20.0819  -13.3747  -18.3399 O   0  0  0  0  0  0  0  0  0  0  0  0
   16.9318  -10.4027  -17.9988 C   0  0  0  0  0  0  0  0  0  0  0  0
   17.9618  -10.1931  -16.8997 C   0  0  1  0  0  0  0  0  0  0  0  0
   17.3913  -10.2760  -15.6353 O   0  0  0  0  0  0  0  0  0  0  0  0
   19.0726  -11.2426  -17.0280 C   0  0  2  0  0  0  0  0  0  0  0  0
   18.5330  -12.5531  -16.8701 N   0  0  0  0  0  0  0  0  0  0  0  0
   20.1010  -10.9002  -16.0231 C   0  0  0  0  0  0  0  0  0  0  0  0
   20.1989  -11.4195  -14.8872 O   0  0  0  0  0  0  0  0  0  0  0  0
   27.5419   -9.9368  -14.9173 C   0  0  0  0  0  0  0  0  0  0  0  0
   26.1265  -10.1702  -16.0531 S   0  0  0  0  0  0  0  0  0  0  0  0
   24.5853   -9.6307  -15.2389 C   0  0  0  0  0  0  0  0  0  0  0  0
   23.4161   -9.9900  -16.1107 C   0  0  0  0  0  0  0  0  0  0  0  0
   22.1253   -9.4949  -15.4928 C   0  0  2  0  0  0  0  0  0  0  0  0
   21.0521   -9.9042  -16.3747 N   0  0  0  0  0  0  0  0  0  0  0  0
   22.1468   -8.0591  -15.2407 C   0  0  0  0  0  0  0  0  0  0  0  0
   21.8154   -7.2433  -16.1280 O   0  0  0  0  0  0  0  0  0  0  0  0
   22.5368   -7.5743  -14.0084 O   0  0  0  0  0  0  0  0  0  0  0  0
  1  2  1  0
  2  3  1  0
  4  3  1  0
  5  4  1  0
  5  6  1  6
  7  5  1  0
  7  8  2  0
 10  9  1  6
 10 12  1  0
 11 10  1  0
 12 13  1  1
 13  7  1  0
 14 12  1  0
 15 14  2  0
 16 17  1  0
 17 18  1  0
 18 19  1  0
 20 19  1  6
 20 21  1  0
 20 22  1  0
 21 14  1  0
 22 24  1  0
 23 22  2  0
M  END
$$$$
