MTM.pdb
     RDKit          3D

 24 23  0  0  1  0  0  0  0  0999 V2000
   28.8901  -18.4876   -5.9013 C   0  0  0  0  0  0  0  0  0  0  0  0
   27.6702  -19.7398   -6.2340 S   0  0  0  0  0  0  0  0  0  0  0  0
   28.1173  -21.0602   -7.3141 C   0  0  0  0  0  0  0  0  0  0  0  0
   27.6807  -20.9785   -8.7186 C   0  0  0  0  0  0  0  0  0  0  0  0
   26.4081  -20.3293   -9.0693 C   0  0  2  0  0  0  0  0  0  0  0  0
   25.2032  -20.9512   -8.6135 N   0  0  0  0  0  0  0  0  0  0  0  0
   26.2561  -20.1294  -10.5552 C   0  0  0  0  0  0  0  0  0  0  0  0
   27.0355  -19.3850  -11.2110 O   0  0  0  0  0  0  0  0  0  0  0  0
   27.5674  -20.0545  -12.7471 C   0  0  0  0  0  0  0  0  0  0  0  0
   26.4728  -20.9144  -13.3598 C   0  0  1  0  0  0  0  0  0  0  0  0
   26.7423  -22.2704  -13.2188 O   0  0  0  0  0  0  0  0  0  0  0  0
   25.1298  -20.5893  -12.6948 C   0  0  2  0  0  0  0  0  0  0  0  0
   25.2205  -20.7761  -11.2839 N   0  0  0  0  0  0  0  0  0  0  0  0
   24.1148  -21.4469  -13.3420 C   0  0  0  0  0  0  0  0  0  0  0  0
   23.8004  -22.5998  -12.9658 O   0  0  0  0  0  0  0  0  0  0  0  0
   19.5218  -21.9559  -10.9291 C   0  0  0  0  0  0  0  0  0  0  0  0
   18.8326  -20.9901  -12.3221 S   0  0  0  0  0  0  0  0  0  0  0  0
   19.7997  -21.3121  -13.8355 C   0  0  0  0  0  0  0  0  0  0  0  0
   21.2430  -20.9869  -13.5760 C   0  0  0  0  0  0  0  0  0  0  0  0
   22.0755  -21.2579  -14.8115 C   0  0  2  0  0  0  0  0  0  0  0  0
   23.4441  -20.9209  -14.4795 N   0  0  0  0  0  0  0  0  0  0  0  0
   21.5760  -20.5478  -15.9828 C   0  0  0  0  0  0  0  0  0  0  0  0
   21.8942  -19.3587  -16.2004 O   0  0  0  0  0  0  0  0  0  0  0  0
   20.7372  -21.1827  -16.8767 O   0  0  0  0  0  0  0  0  0  0  0  0
  1  2  1  0
  2  3  1  0
  4  3  1  0
  5  4  1  0
  5  6  1  6
  7  5  1  0
  7  8  2  0
 10  9  1  1
 10 12  1  0
 11 10  1  0
 12 13  1  1
 13  7  1  0
 14 12  1  0
 15 14  2  0
 16 17  1  0
 17 18  1  0
 18 19  1  0
 20 19  1  1
 20 21  1  0
 20 22  1  0
 21 14  1  0
 22 24  1  0
 23 22  2  0
M  END
$$$$
