MTM.pdb
     RDKit          3D

 24 23  0  0  1  0  0  0  0  0999 V2000
   27.4272  -18.2143   -5.9499 C   0  0  0  0  0  0  0  0  0  0  0  0
   28.5352  -19.6021   -5.8359 S   0  0  0  0  0  0  0  0  0  0  0  0
   28.5523  -20.7552   -7.1700 C   0  0  0  0  0  0  0  0  0  0  0  0
   27.8023  -20.4083   -8.3893 C   0  0  0  0  0  0  0  0  0  0  0  0
   27.7067  -21.3622   -9.5051 C   0  0  2  0  0  0  0  0  0  0  0  0
   28.9293  -21.8873  -10.0300 N   0  0  0  0  0  0  0  0  0  0  0  0
   26.9392  -20.8024  -10.6749 C   0  0  0  0  0  0  0  0  0  0  0  0
   27.5159  -20.2159  -11.6315 O   0  0  0  0  0  0  0  0  0  0  0  0
   26.8736  -20.9622  -13.3208 C   0  0  0  0  0  0  0  0  0  0  0  0
   25.3954  -21.2741  -13.1466 C   0  0  1  0  0  0  0  0  0  0  0  0
   25.1721  -22.6346  -12.9724 O   0  0  0  0  0  0  0  0  0  0  0  0
   24.8465  -20.5080  -11.9368 C   0  0  2  0  0  0  0  0  0  0  0  0
   25.5235  -20.9129  -10.7487 N   0  0  0  0  0  0  0  0  0  0  0  0
   23.3895  -20.7537  -11.9015 C   0  0  0  0  0  0  0  0  0  0  0  0
   22.7913  -21.4115  -11.0189 O   0  0  0  0  0  0  0  0  0  0  0  0
   17.2606  -16.5707  -14.5387 C   0  0  0  0  0  0  0  0  0  0  0  0
   19.0436  -16.9736  -14.6205 S   0  0  0  0  0  0  0  0  0  0  0  0
   19.3942  -18.4379  -13.5899 C   0  0  0  0  0  0  0  0  0  0  0  0
   20.8455  -18.8002  -13.7267 C   0  0  0  0  0  0  0  0  0  0  0  0
   21.1811  -19.9794  -12.8379 C   0  0  2  0  0  0  0  0  0  0  0  0
   22.6078  -20.1995  -12.9513 N   0  0  0  0  0  0  0  0  0  0  0  0
   20.3892  -21.1600  -13.1615 C   0  0  0  0  0  0  0  0  0  0  0  0
   20.7580  -21.9611  -14.0475 O   0  0  0  0  0  0  0  0  0  0  0  0
   19.2105  -21.4136  -12.4891 O   0  0  0  0  0  0  0  0  0  0  0  0
  1  2  1  0
  2  3  1  0
  4  3  1  0
  5  4  1  0
  5  6  1  6
  7  5  1  0
  7  8  2  0
 10  9  1  1
 10 12  1  0
 11 10  1  0
 12 13  1  1
 13  7  1  0
 14 12  1  0
 15 14  2  0
 16 17  1  0
 17 18  1  0
 18 19  1  0
 20 19  1  6
 20 21  1  0
 20 22  1  0
 21 14  1  0
 22 24  1  0
 23 22  2  0
M  END
$$$$
