MTM.pdb
     RDKit          3D

 24 23  0  0  1  0  0  0  0  0999 V2000
   20.5368  -16.7617  -17.4869 C   0  0  0  0  0  0  0  0  0  0  0  0
   19.3672  -17.0161  -18.8037 S   0  0  0  0  0  0  0  0  0  0  0  0
   18.3272  -15.6654  -19.2551 C   0  0  0  0  0  0  0  0  0  0  0  0
   18.8998  -14.3091  -19.2052 C   0  0  0  0  0  0  0  0  0  0  0  0
   18.5120  -13.3725  -18.1392 C   0  0  2  0  0  0  0  0  0  0  0  0
   17.1303  -13.0139  -18.0473 N   0  0  0  0  0  0  0  0  0  0  0  0
   19.2903  -12.0835  -18.1964 C   0  0  0  0  0  0  0  0  0  0  0  0
   20.5141  -12.0564  -18.5023 O   0  0  0  0  0  0  0  0  0  0  0  0
   17.8711   -8.5796  -19.5804 C   0  0  0  0  0  0  0  0  0  0  0  0
   18.5361   -8.4320  -18.2207 C   0  0  1  0  0  0  0  0  0  0  0  0
   17.6012   -8.3271  -17.1979 O   0  0  0  0  0  0  0  0  0  0  0  0
   19.4458   -9.6385  -17.9587 C   0  0  2  0  0  0  0  0  0  0  0  0
   18.6730  -10.8360  -17.9058 N   0  0  0  0  0  0  0  0  0  0  0  0
   20.1831   -9.3535  -16.7099 C   0  0  0  0  0  0  0  0  0  0  0  0
   19.8026   -9.6735  -15.5599 O   0  0  0  0  0  0  0  0  0  0  0  0
   26.7540  -10.0772  -16.0301 C   0  0  0  0  0  0  0  0  0  0  0  0
   25.6616  -10.3761  -14.5929 S   0  0  0  0  0  0  0  0  0  0  0  0
   24.3326   -9.1264  -14.5565 C   0  0  0  0  0  0  0  0  0  0  0  0
   23.3573   -9.4124  -15.6625 C   0  0  0  0  0  0  0  0  0  0  0  0
   22.2636   -8.3654  -15.6857 C   0  0  2  0  0  0  0  0  0  0  0  0
   21.4200   -8.6628  -16.8245 N   0  0  0  0  0  0  0  0  0  0  0  0
   22.7962   -7.0083  -15.7029 C   0  0  0  0  0  0  0  0  0  0  0  0
   22.9068   -6.3723  -16.7734 O   0  0  0  0  0  0  0  0  0  0  0  0
   23.1898   -6.3998  -14.5279 O   0  0  0  0  0  0  0  0  0  0  0  0
  1  2  1  0
  2  3  1  0
  4  3  1  0
  5  4  1  0
  5  6  1  6
  7  5  1  0
  7  8  2  0
 10  9  1  6
 10 12  1  0
 11 10  1  0
 12 13  1  1
 13  7  1  0
 14 12  1  0
 15 14  2  0
 16 17  1  0
 17 18  1  0
 18 19  1  0
 20 19  1  6
 20 21  1  0
 20 22  1  0
 21 14  1  0
 22 24  1  0
 23 22  2  0
M  END
$$$$
