MTM.pdb
     RDKit          3D

 24 23  0  0  1  0  0  0  0  0999 V2000
   26.7359  -21.5340  -20.5751 C   0  0  0  0  0  0  0  0  0  0  0  0
   28.0767  -20.4635  -20.1031 S   0  0  0  0  0  0  0  0  0  0  0  0
   28.6100  -20.5020  -18.4226 C   0  0  0  0  0  0  0  0  0  0  0  0
   27.7918  -19.7921  -17.4243 C   0  0  0  0  0  0  0  0  0  0  0  0
   26.3252  -19.9050  -17.4429 C   0  0  2  0  0  0  0  0  0  0  0  0
   25.6309  -19.2963  -18.5354 N   0  0  0  0  0  0  0  0  0  0  0  0
   25.6928  -19.3772  -16.1810 C   0  0  0  0  0  0  0  0  0  0  0  0
   25.2349  -18.2041  -16.1049 O   0  0  0  0  0  0  0  0  0  0  0  0
   22.5030  -19.3225  -13.0646 C   0  0  0  0  0  0  0  0  0  0  0  0
   23.3451  -19.5758  -14.3054 C   0  0  1  0  0  0  0  0  0  0  0  0
   23.2181  -18.5493  -15.2335 O   0  0  0  0  0  0  0  0  0  0  0  0
   24.8185  -19.7234  -13.9063 C   0  0  2  0  0  0  0  0  0  0  0  0
   25.5856  -20.1856  -15.0162 N   0  0  0  0  0  0  0  0  0  0  0  0
   24.8558  -20.6317  -12.7409 C   0  0  0  0  0  0  0  0  0  0  0  0
   24.4621  -21.8211  -12.7420 O   0  0  0  0  0  0  0  0  0  0  0  0
   27.7401  -18.2358   -7.5392 C   0  0  0  0  0  0  0  0  0  0  0  0
   27.3637  -19.8851   -6.8419 S   0  0  0  0  0  0  0  0  0  0  0  0
   26.2672  -20.8005   -7.9772 C   0  0  0  0  0  0  0  0  0  0  0  0
   26.2397  -20.1008   -9.3061 C   0  0  0  0  0  0  0  0  0  0  0  0
   25.3606  -20.8550  -10.2814 C   0  0  2  0  0  0  0  0  0  0  0  0
   25.3795  -20.1138  -11.5253 N   0  0  0  0  0  0  0  0  0  0  0  0
   24.0159  -21.0722   -9.7615 C   0  0  0  0  0  0  0  0  0  0  0  0
   23.1250  -20.2055   -9.8947 O   0  0  0  0  0  0  0  0  0  0  0  0
   23.7032  -22.2478   -9.1088 O   0  0  0  0  0  0  0  0  0  0  0  0
  1  2  1  0
  2  3  1  0
  4  3  1  0
  5  4  1  0
  5  6  1  6
  7  5  1  0
  7  8  2  0
 10  9  1  1
 10 12  1  0
 11 10  1  0
 12 13  1  6
 13  7  1  0
 14 12  1  0
 15 14  2  0
 16 17  1  0
 17 18  1  0
 18 19  1  0
 20 19  1  1
 20 21  1  0
 20 22  1  0
 21 14  1  0
 22 24  1  0
 23 22  2  0
M  END
$$$$
