HTQ.pdb
     RDKit          3D

 27 27  0  0  1  0  0  0  0  0999 V2000
   13.8163  -14.0148   17.9561 N   0  0  0  0  0  0  0  0  0  0  0  0
   12.5263  -14.6237   18.0990 C   0  0  1  0  0  0  0  0  0  0  0  0
   12.6654  -16.1301   17.9974 C   0  0  0  0  0  0  0  0  0  0  0  0
   13.1593  -16.4339   16.6289 C   0  0  0  0  0  0  0  0  0  0  0  0
   13.4645  -15.5253   15.6454 C   0  0  0  0  0  0  0  0  0  0  0  0
   13.8865  -16.1571   14.5229 N   0  0  0  0  0  0  0  0  0  0  0  0
   13.8413  -17.4645   14.8158 C   0  0  0  0  0  0  0  0  0  0  0  0
   13.4076  -17.6529   16.0747 N   0  0  0  0  0  0  0  0  0  0  0  0
   11.8342  -14.2183   19.3469 C   0  0  0  0  0  0  0  0  0  0  0  0
   12.5566  -13.7269   20.2600 O   0  0  0  0  0  0  0  0  0  0  0  0
    8.0784  -12.4993   19.8786 C   0  0  0  0  0  0  0  0  0  0  0  0
    8.4061  -13.6730   20.7462 C   0  0  1  0  0  0  0  0  0  0  0  0
    7.8139  -14.8047   20.1749 O   0  0  0  0  0  0  0  0  0  0  0  0
    9.8876  -13.9504   20.8287 C   0  0  2  0  0  0  0  0  0  0  0  0
   10.4606  -14.3416   19.5761 N   0  0  0  0  0  0  0  0  0  0  0  0
   10.0697  -14.9823   21.8956 C   0  0  0  0  0  0  0  0  0  0  0  0
   10.2801  -16.1571   21.4741 O   0  0  0  0  0  0  0  0  0  0  0  0
    9.9731  -14.1861   28.0368 N   0  0  0  0  0  0  0  0  0  0  0  0
   10.3384  -15.5559   28.0422 C   0  0  0  0  0  0  0  0  0  0  0  0
   10.5802  -16.1691   29.1160 O   0  0  0  0  0  0  0  0  0  0  0  0
   10.4277  -16.2585   26.7036 C   0  0  0  0  0  0  0  0  0  0  0  0
   10.1606  -15.2350   25.6350 C   0  0  0  0  0  0  0  0  0  0  0  0
   10.1946  -15.7749   24.2286 C   0  0  2  0  0  0  0  0  0  0  0  0
   10.0164  -14.6971   23.2620 N   0  0  0  0  0  0  0  0  0  0  0  0
    9.1726  -16.8021   24.0139 C   0  0  0  0  0  0  0  0  0  0  0  0
    9.4233  -18.0077   24.2190 O   0  0  0  0  0  0  0  0  0  0  0  0
    7.8683  -16.5121   23.5725 O   0  0  0  0  0  0  0  0  0  0  0  0
  2  3  1  0
  2  1  1  1
  3  4  1  0
  4  5  2  0
  4  8  1  0
  5  6  1  0
  6  7  1  0
  8  7  2  0
  9 10  2  0
  9  2  1  0
 12 11  1  6
 12 14  1  0
 13 12  1  0
 14 16  1  0
 14 15  1  6
 15  9  1  0
 16 24  1  0
 17 16  2  0
 19 21  1  0
 19 18  1  0
 20 19  2  0
 23 22  1  1
 22 21  1  0
 24 23  1  0
 25 27  1  0
 25 23  1  0
 26 25  2  0
M  END
$$$$
