HTQ.pdb
     RDKit          3D

 27 27  0  0  1  0  0  0  0  0999 V2000
    9.8645  -16.0111   15.2205 N   0  0  0  0  0  0  0  0  0  0  0  0
    9.0856  -16.4333   16.3475 C   0  0  1  0  0  0  0  0  0  0  0  0
    9.1541  -17.9429   16.4712 C   0  0  0  0  0  0  0  0  0  0  0  0
    8.4433  -18.5121   15.2965 C   0  0  0  0  0  0  0  0  0  0  0  0
    7.0957  -18.7543   15.1902 C   0  0  0  0  0  0  0  0  0  0  0  0
    6.7968  -19.2778   13.9762 N   0  0  0  0  0  0  0  0  0  0  0  0
    7.9679  -19.3592   13.3290 C   0  0  0  0  0  0  0  0  0  0  0  0
    8.9693  -18.9049   14.1033 N   0  0  0  0  0  0  0  0  0  0  0  0
    9.4853  -15.7598   17.6074 C   0  0  0  0  0  0  0  0  0  0  0  0
   10.7221  -15.7310   17.8654 O   0  0  0  0  0  0  0  0  0  0  0  0
    7.6234  -12.5465   19.4830 C   0  0  0  0  0  0  0  0  0  0  0  0
    8.0728  -13.6571   20.3787 C   0  0  1  0  0  0  0  0  0  0  0  0
    6.9534  -14.4392   20.6836 O   0  0  0  0  0  0  0  0  0  0  0  0
    9.0793  -14.5723   19.7245 C   0  0  2  0  0  0  0  0  0  0  0  0
    8.6006  -15.1653   18.5122 N   0  0  0  0  0  0  0  0  0  0  0  0
    9.4643  -15.5878   20.7525 C   0  0  0  0  0  0  0  0  0  0  0  0
    9.0607  -16.7647   20.5201 O   0  0  0  0  0  0  0  0  0  0  0  0
   14.5289  -17.4833   22.5011 N   0  0  0  0  0  0  0  0  0  0  0  0
   14.3646  -16.0752   22.5031 C   0  0  0  0  0  0  0  0  0  0  0  0
   15.3463  -15.2971   22.3677 O   0  0  0  0  0  0  0  0  0  0  0  0
   12.9591  -15.5379   22.6747 C   0  0  0  0  0  0  0  0  0  0  0  0
   12.0219  -16.7136   22.6863 C   0  0  0  0  0  0  0  0  0  0  0  0
   10.5655  -16.3520   22.8237 C   0  0  2  0  0  0  0  0  0  0  0  0
   10.2127  -15.2859   21.8928 N   0  0  0  0  0  0  0  0  0  0  0  0
   10.2320  -15.9423   24.1900 C   0  0  0  0  0  0  0  0  0  0  0  0
    9.8074  -14.7928   24.4284 O   0  0  0  0  0  0  0  0  0  0  0  0
   10.3627  -16.7925   25.3037 O   0  0  0  0  0  0  0  0  0  0  0  0
  2  3  1  0
  2  1  1  6
  3  4  1  0
  4  5  2  0
  4  8  1  0
  5  6  1  0
  6  7  1  0
  8  7  2  0
  9 10  2  0
  9  2  1  0
 12 11  1  6
 12 14  1  0
 13 12  1  0
 14 16  1  0
 14 15  1  6
 15  9  1  0
 16 24  1  0
 17 16  2  0
 19 21  1  0
 19 18  1  0
 20 19  2  0
 23 22  1  1
 22 21  1  0
 24 23  1  0
 25 27  1  0
 25 23  1  0
 26 25  2  0
M  END
$$$$
