HTQ.pdb
     RDKit          3D

 27 27  0  0  1  0  0  0  0  0999 V2000
   11.5766  -14.5336   17.4199 N   0  0  0  0  0  0  0  0  0  0  0  0
   12.0001  -14.7446   18.7731 C   0  0  1  0  0  0  0  0  0  0  0  0
   13.3194  -14.0344   19.0056 C   0  0  0  0  0  0  0  0  0  0  0  0
   14.3675  -14.8118   18.2940 C   0  0  0  0  0  0  0  0  0  0  0  0
   14.9049  -16.0140   18.6834 C   0  0  0  0  0  0  0  0  0  0  0  0
   15.8378  -16.4330   17.7938 N   0  0  0  0  0  0  0  0  0  0  0  0
   15.8764  -15.4827   16.8490 C   0  0  0  0  0  0  0  0  0  0  0  0
   15.0018  -14.5004   17.1297 N   0  0  0  0  0  0  0  0  0  0  0  0
   10.9752  -14.3395   19.7662 C   0  0  0  0  0  0  0  0  0  0  0  0
   10.7625  -13.0995   19.8852 O   0  0  0  0  0  0  0  0  0  0  0  0
    7.4350  -14.1928   19.9175 C   0  0  0  0  0  0  0  0  0  0  0  0
    7.8577  -14.9903   21.1104 C   0  0  1  0  0  0  0  0  0  0  0  0
    7.7704  -16.3450   20.7710 O   0  0  0  0  0  0  0  0  0  0  0  0
    9.2890  -14.7333   21.5151 C   0  0  2  0  0  0  0  0  0  0  0  0
   10.2422  -15.2223   20.5648 N   0  0  0  0  0  0  0  0  0  0  0  0
    9.4637  -15.3363   22.8723 C   0  0  0  0  0  0  0  0  0  0  0  0
   10.2641  -16.3155   22.9243 O   0  0  0  0  0  0  0  0  0  0  0  0
    7.0371  -12.2270   27.5328 N   0  0  0  0  0  0  0  0  0  0  0  0
    8.2409  -12.8696   27.9172 C   0  0  0  0  0  0  0  0  0  0  0  0
    8.6147  -12.9034   29.1199 O   0  0  0  0  0  0  0  0  0  0  0  0
    9.0649  -13.5170   26.8239 C   0  0  0  0  0  0  0  0  0  0  0  0
    8.3571  -14.7765   26.4074 C   0  0  0  0  0  0  0  0  0  0  0  0
    9.0315  -15.5344   25.2931 C   0  0  2  0  0  0  0  0  0  0  0  0
    8.8047  -14.8724   24.0133 N   0  0  0  0  0  0  0  0  0  0  0  0
    8.5674  -16.9217   25.2184 C   0  0  0  0  0  0  0  0  0  0  0  0
    7.5798  -17.2300   24.5198 O   0  0  0  0  0  0  0  0  0  0  0  0
    9.1848  -17.9799   25.9107 O   0  0  0  0  0  0  0  0  0  0  0  0
  2  3  1  0
  2  1  1  6
  3  4  1  0
  4  5  2  0
  4  8  1  0
  5  6  1  0
  6  7  1  0
  8  7  2  0
  9 10  2  0
  9  2  1  0
 12 11  1  6
 12 14  1  0
 13 12  1  0
 14 16  1  0
 14 15  1  6
 15  9  1  0
 16 24  1  0
 17 16  2  0
 19 21  1  0
 19 18  1  0
 20 19  2  0
 23 22  1  1
 22 21  1  0
 24 23  1  0
 25 27  1  0
 25 23  1  0
 26 25  2  0
M  END
$$$$
