HTQ.pdb
     RDKit          3D

 27 27  0  0  1  0  0  0  0  0999 V2000
    8.8686  -15.4804   13.7277 N   0  0  0  0  0  0  0  0  0  0  0  0
    8.4005  -15.8367   15.0350 C   0  0  1  0  0  0  0  0  0  0  0  0
    8.4690  -17.3421   15.2026 C   0  0  0  0  0  0  0  0  0  0  0  0
    9.3181  -17.8680   14.1019 C   0  0  0  0  0  0  0  0  0  0  0  0
   10.6820  -18.0270   14.1210 C   0  0  0  0  0  0  0  0  0  0  0  0
   11.1224  -18.5326   12.9430 N   0  0  0  0  0  0  0  0  0  0  0  0
   10.0228  -18.6867   12.1919 C   0  0  0  0  0  0  0  0  0  0  0  0
    8.9288  -18.2938   12.8682 N   0  0  0  0  0  0  0  0  0  0  0  0
    9.1264  -15.1293   16.1183 C   0  0  0  0  0  0  0  0  0  0  0  0
   10.2530  -14.6413   15.8189 O   0  0  0  0  0  0  0  0  0  0  0  0
    7.6899  -12.5303   18.9115 C   0  0  0  0  0  0  0  0  0  0  0  0
    8.5840  -13.5962   19.4611 C   0  0  1  0  0  0  0  0  0  0  0  0
    7.7712  -14.5910   20.0159 O   0  0  0  0  0  0  0  0  0  0  0  0
    9.4279  -14.2628   18.4019 C   0  0  2  0  0  0  0  0  0  0  0  0
    8.6555  -14.9694   17.4249 N   0  0  0  0  0  0  0  0  0  0  0  0
   10.3974  -15.1452   19.1214 C   0  0  0  0  0  0  0  0  0  0  0  0
   10.1643  -16.3857   19.0273 O   0  0  0  0  0  0  0  0  0  0  0  0
   16.8819  -14.4275   19.0365 N   0  0  0  0  0  0  0  0  0  0  0  0
   15.5047  -14.2242   18.7687 C   0  0  0  0  0  0  0  0  0  0  0  0
   15.0775  -13.1329   18.3061 O   0  0  0  0  0  0  0  0  0  0  0  0
   14.5612  -15.3724   19.0604 C   0  0  0  0  0  0  0  0  0  0  0  0
   13.8417  -15.0544   20.3418 C   0  0  0  0  0  0  0  0  0  0  0  0
   12.4408  -15.6029   20.4260 C   0  0  2  0  0  0  0  0  0  0  0  0
   11.4869  -14.6617   19.8499 N   0  0  0  0  0  0  0  0  0  0  0  0
   12.0571  -15.9093   21.8061 C   0  0  0  0  0  0  0  0  0  0  0  0
   11.1335  -15.2849   22.3678 O   0  0  0  0  0  0  0  0  0  0  0  0
   12.6854  -16.9037   22.5786 O   0  0  0  0  0  0  0  0  0  0  0  0
  2  3  1  0
  2  1  1  6
  3  4  1  0
  4  5  2  0
  4  8  1  0
  5  6  1  0
  6  7  1  0
  8  7  2  0
  9 10  2  0
  9  2  1  0
 12 11  1  6
 12 14  1  0
 13 12  1  0
 14 16  1  0
 14 15  1  6
 15  9  1  0
 16 24  1  0
 17 16  2  0
 19 21  1  0
 19 18  1  0
 20 19  2  0
 23 22  1  1
 22 21  1  0
 24 23  1  0
 25 27  1  0
 25 23  1  0
 26 25  2  0
M  END
$$$$
