HTQ.pdb
     RDKit          3D

 27 27  0  0  1  0  0  0  0  0999 V2000
    8.6514  -16.7495   19.8939 N   0  0  0  0  0  0  0  0  0  0  0  0
    8.9179  -15.8543   20.9814 C   0  0  1  0  0  0  0  0  0  0  0  0
    7.8503  -14.7785   21.0227 C   0  0  0  0  0  0  0  0  0  0  0  0
    7.9334  -14.0285   19.7422 C   0  0  0  0  0  0  0  0  0  0  0  0
    8.6756  -12.8990   19.4986 C   0  0  0  0  0  0  0  0  0  0  0  0
    8.5119  -12.4843   18.2186 N   0  0  0  0  0  0  0  0  0  0  0  0
    7.6630  -13.3640   17.6685 C   0  0  0  0  0  0  0  0  0  0  0  0
    7.3032  -14.2991   18.5656 N   0  0  0  0  0  0  0  0  0  0  0  0
    9.0448  -16.5533   22.2837 C   0  0  0  0  0  0  0  0  0  0  0  0
    7.9670  -16.8671   22.8642 O   0  0  0  0  0  0  0  0  0  0  0  0
   10.4951  -19.8723   23.1296 C   0  0  0  0  0  0  0  0  0  0  0  0
   11.0681  -18.8750   24.0861 C   0  0  1  0  0  0  0  0  0  0  0  0
   12.3499  -18.5397   23.6362 O   0  0  0  0  0  0  0  0  0  0  0  0
   10.2766  -17.5910   24.1445 C   0  0  2  0  0  0  0  0  0  0  0  0
   10.2555  -16.8822   22.9005 N   0  0  0  0  0  0  0  0  0  0  0  0
   10.8562  -16.7827   25.2611 C   0  0  0  0  0  0  0  0  0  0  0  0
   11.8910  -16.1188   24.9606 O   0  0  0  0  0  0  0  0  0  0  0  0
    8.3180  -13.0720   29.0338 N   0  0  0  0  0  0  0  0  0  0  0  0
    8.3225  -13.1282   27.6173 C   0  0  0  0  0  0  0  0  0  0  0  0
    7.5457  -12.4156   26.9272 O   0  0  0  0  0  0  0  0  0  0  0  0
    9.2999  -14.0807   26.9608 C   0  0  0  0  0  0  0  0  0  0  0  0
    9.9794  -14.8584   28.0537 C   0  0  0  0  0  0  0  0  0  0  0  0
   10.9417  -15.9112   27.5676 C   0  0  2  0  0  0  0  0  0  0  0  0
   10.3153  -16.7459   26.5486 N   0  0  0  0  0  0  0  0  0  0  0  0
   11.4274  -16.7536   28.6632 C   0  0  0  0  0  0  0  0  0  0  0  0
   11.1286  -17.9643   28.7211 O   0  0  0  0  0  0  0  0  0  0  0  0
   12.2445  -16.2718   29.7026 O   0  0  0  0  0  0  0  0  0  0  0  0
  2  3  1  0
  2  1  1  6
  3  4  1  0
  4  5  2  0
  4  8  1  0
  5  6  1  0
  6  7  1  0
  8  7  2  0
  9 10  2  0
  9  2  1  0
 12 11  1  6
 12 14  1  0
 13 12  1  0
 14 16  1  0
 14 15  1  6
 15  9  1  0
 16 24  1  0
 17 16  2  0
 19 21  1  0
 19 18  1  0
 20 19  2  0
 23 22  1  1
 22 21  1  0
 24 23  1  0
 25 27  1  0
 25 23  1  0
 26 25  2  0
M  END
$$$$
