HTQ.pdb
     RDKit          3D

 27 27  0  0  1  0  0  0  0  0999 V2000
   12.0704  -16.7685   18.7314 N   0  0  0  0  0  0  0  0  0  0  0  0
   11.1707  -17.4117   19.6435 C   0  0  1  0  0  0  0  0  0  0  0  0
   11.7173  -18.7769   20.0130 C   0  0  0  0  0  0  0  0  0  0  0  0
   11.4379  -19.6854   18.8703 C   0  0  0  0  0  0  0  0  0  0  0  0
   10.3062  -19.7027   18.0926 C   0  0  0  0  0  0  0  0  0  0  0  0
   10.3932  -20.6637   17.1406 N   0  0  0  0  0  0  0  0  0  0  0  0
   11.5867  -21.2432   17.3322 C   0  0  0  0  0  0  0  0  0  0  0  0
   12.2302  -20.6713   18.3653 N   0  0  0  0  0  0  0  0  0  0  0  0
   10.8853  -16.5901   20.8452 C   0  0  0  0  0  0  0  0  0  0  0  0
   11.8595  -15.9556   21.3406 O   0  0  0  0  0  0  0  0  0  0  0  0
    7.5975  -14.2806   21.8615 C   0  0  0  0  0  0  0  0  0  0  0  0
    8.0606  -15.2548   22.8979 C   0  0  1  0  0  0  0  0  0  0  0  0
    7.2365  -16.3830   22.8217 O   0  0  0  0  0  0  0  0  0  0  0  0
    9.4747  -15.7313   22.6699 C   0  0  2  0  0  0  0  0  0  0  0  0
    9.6329  -16.4730   21.4553 N   0  0  0  0  0  0  0  0  0  0  0  0
    9.8609  -16.5172   23.8821 C   0  0  0  0  0  0  0  0  0  0  0  0
   10.0970  -17.7429   23.6729 O   0  0  0  0  0  0  0  0  0  0  0  0
   10.2415  -12.8813   28.3704 N   0  0  0  0  0  0  0  0  0  0  0  0
   10.3191  -14.1545   28.9890 C   0  0  0  0  0  0  0  0  0  0  0  0
   10.8406  -14.3037   30.1262 O   0  0  0  0  0  0  0  0  0  0  0  0
    9.7495  -15.3343   28.2293 C   0  0  0  0  0  0  0  0  0  0  0  0
   10.8666  -15.9375   27.4236 C   0  0  0  0  0  0  0  0  0  0  0  0
   10.4141  -16.7952   26.2702 C   0  0  2  0  0  0  0  0  0  0  0  0
    9.9609  -15.9638   25.1608 N   0  0  0  0  0  0  0  0  0  0  0  0
    9.3455  -17.7171   26.6626 C   0  0  0  0  0  0  0  0  0  0  0  0
    8.1708  -17.5355   26.2812 O   0  0  0  0  0  0  0  0  0  0  0  0
    9.5600  -18.8448   27.4766 O   0  0  0  0  0  0  0  0  0  0  0  0
  2  3  1  0
  2  1  1  6
  3  4  1  0
  4  5  2  0
  4  8  1  0
  5  6  1  0
  6  7  1  0
  8  7  2  0
  9 10  2  0
  9  2  1  0
 12 11  1  6
 12 14  1  0
 13 12  1  0
 14 16  1  0
 14 15  1  6
 15  9  1  0
 16 24  1  0
 17 16  2  0
 19 21  1  0
 19 18  1  0
 20 19  2  0
 23 22  1  1
 22 21  1  0
 24 23  1  0
 25 27  1  0
 25 23  1  0
 26 25  2  0
M  END
$$$$
