HTQ.pdb
     RDKit          3D

 27 27  0  0  1  0  0  0  0  0999 V2000
    8.9866  -17.1732   16.8130 N   0  0  0  0  0  0  0  0  0  0  0  0
    8.1776  -17.2606   17.9932 C   0  0  1  0  0  0  0  0  0  0  0  0
    7.9181  -18.7183   18.3203 C   0  0  0  0  0  0  0  0  0  0  0  0
    7.0270  -19.2543   17.2583 C   0  0  0  0  0  0  0  0  0  0  0  0
    5.6550  -19.2026   17.2339 C   0  0  0  0  0  0  0  0  0  0  0  0
    5.1726  -19.7907   16.1120 N   0  0  0  0  0  0  0  0  0  0  0  0
    6.2545  -20.2081   15.4394 C   0  0  0  0  0  0  0  0  0  0  0  0
    7.3780  -19.8964   16.1096 N   0  0  0  0  0  0  0  0  0  0  0  0
    8.7629  -16.5341   19.1466 C   0  0  0  0  0  0  0  0  0  0  0  0
    9.9918  -16.7255   19.3707 O   0  0  0  0  0  0  0  0  0  0  0  0
    7.7375  -12.7826   20.6502 C   0  0  0  0  0  0  0  0  0  0  0  0
    7.9354  -13.8702   21.6581 C   0  0  1  0  0  0  0  0  0  0  0  0
    6.6720  -14.3428   22.0299 O   0  0  0  0  0  0  0  0  0  0  0  0
    8.6990  -15.0512   21.1097 C   0  0  2  0  0  0  0  0  0  0  0  0
    8.0581  -15.6674   19.9872 N   0  0  0  0  0  0  0  0  0  0  0  0
    8.9012  -15.9960   22.2510 C   0  0  0  0  0  0  0  0  0  0  0  0
    8.1546  -17.0181   22.2388 O   0  0  0  0  0  0  0  0  0  0  0  0
   10.9184  -20.6092   23.2489 N   0  0  0  0  0  0  0  0  0  0  0  0
   11.8284  -19.6415   22.7537 C   0  0  0  0  0  0  0  0  0  0  0  0
   12.7631  -19.9563   21.9698 O   0  0  0  0  0  0  0  0  0  0  0  0
   11.6347  -18.2084   23.2036 C   0  0  0  0  0  0  0  0  0  0  0  0
   10.2800  -18.1144   23.8492 C   0  0  0  0  0  0  0  0  0  0  0  0
    9.9267  -16.7439   24.3665 C   0  0  2  0  0  0  0  0  0  0  0  0
    9.8370  -15.7893   23.2673 N   0  0  0  0  0  0  0  0  0  0  0  0
   10.8977  -16.2669   25.3542 C   0  0  0  0  0  0  0  0  0  0  0  0
   11.0734  -16.8798   26.4274 O   0  0  0  0  0  0  0  0  0  0  0  0
   11.6822  -15.1133   25.1697 O   0  0  0  0  0  0  0  0  0  0  0  0
  2  3  1  0
  2  1  1  6
  3  4  1  0
  4  5  2  0
  4  8  1  0
  5  6  1  0
  6  7  1  0
  8  7  2  0
  9 10  2  0
  9  2  1  0
 12 11  1  6
 12 14  1  0
 13 12  1  0
 14 16  1  0
 14 15  1  6
 15  9  1  0
 16 24  1  0
 17 16  2  0
 19 21  1  0
 19 18  1  0
 20 19  2  0
 23 22  1  6
 22 21  1  0
 24 23  1  0
 25 27  1  0
 25 23  1  0
 26 25  2  0
M  END
$$$$
