YYD.pdb
     RDKit          3D

 33 34  0  0  1  0  0  0  0  0999 V2000
   30.4417  -15.9627  -18.6414 O   0  0  0  0  0  0  0  0  0  0  0  0
   29.4824  -16.7896  -18.0561 C   0  0  0  0  0  0  0  0  0  0  0  0
   28.8805  -17.8073  -18.7749 C   0  0  0  0  0  0  0  0  0  0  0  0
   27.9236  -18.6133  -18.1503 C   0  0  0  0  0  0  0  0  0  0  0  0
   27.5677  -18.4235  -16.8522 C   0  0  0  0  0  0  0  0  0  0  0  0
   26.5490  -19.3010  -16.2291 C   0  0  0  0  0  0  0  0  0  0  0  0
   27.2635  -20.4429  -15.5449 C   0  0  2  0  0  0  0  0  0  0  0  0
   27.9358  -21.2515  -16.5298 N   0  0  0  0  0  0  0  0  0  0  0  0
   26.3402  -21.2931  -14.7671 C   0  0  0  0  0  0  0  0  0  0  0  0
   25.9650  -22.4316  -15.1787 O   0  0  0  0  0  0  0  0  0  0  0  0
   28.1545  -17.4179  -16.1221 C   0  0  0  0  0  0  0  0  0  0  0  0
   29.1080  -16.6148  -16.7445 C   0  0  0  0  0  0  0  0  0  0  0  0
   27.1274  -18.7976   -7.2400 O   0  0  0  0  0  0  0  0  0  0  0  0
   26.7774  -19.6314   -8.3050 C   0  0  0  0  0  0  0  0  0  0  0  0
   27.7101  -20.0292   -9.2399 C   0  0  0  0  0  0  0  0  0  0  0  0
   27.3389  -20.8490  -10.2766 C   0  0  0  0  0  0  0  0  0  0  0  0
   26.0446  -21.3178  -10.4495 C   0  0  0  0  0  0  0  0  0  0  0  0
   25.7719  -22.1752  -11.5786 C   0  0  0  0  0  0  0  0  0  0  0  0
   24.9404  -21.7014  -12.6912 C   0  0  2  0  0  0  0  0  0  0  0  0
   25.8391  -20.8553  -13.5195 N   0  0  0  0  0  0  0  0  0  0  0  0
   23.7796  -20.8574  -12.3492 C   0  0  0  0  0  0  0  0  0  0  0  0
   23.9112  -19.5826  -12.2656 O   0  0  0  0  0  0  0  0  0  0  0  0
   25.1141  -20.9171   -9.5113 C   0  0  0  0  0  0  0  0  0  0  0  0
   25.4899  -20.0948   -8.4728 C   0  0  0  0  0  0  0  0  0  0  0  0
   22.4629  -21.3239  -12.0921 N   0  0  0  0  0  0  0  0  0  0  0  0
   21.3341  -20.8020  -12.8092 C   0  0  1  0  0  0  0  0  0  0  0  0
   21.5468  -20.7874  -14.3043 C   0  0  0  0  0  0  0  0  0  0  0  0
   20.9386  -19.6126  -14.9517 C   0  0  0  0  0  0  0  0  0  0  0  0
   21.0194  -18.4326  -14.5247 O   0  0  0  0  0  0  0  0  0  0  0  0
   20.1173  -21.6038  -12.5605 C   0  0  0  0  0  0  0  0  0  0  0  0
   18.9664  -21.1464  -12.3859 O   0  0  0  0  0  0  0  0  0  0  0  0
   20.2208  -19.8185  -16.1217 O   0  0  0  0  0  0  0  0  0  0  0  0
   20.2286  -23.0041  -12.5098 O   0  0  0  0  0  0  0  0  0  0  0  0
  2  3  2  0
  2  1  1  0
  4  3  1  0
  5  4  2  0
  6  7  1  0
  6  5  1  0
  7  9  1  0
  7  8  1  6
  9 10  2  0
 11  5  1  0
 11 12  2  0
 12  2  1  0
 13 14  1  0
 14 24  2  0
 15 14  1  0
 15 16  2  0
 16 17  1  0
 17 23  2  0
 17 18  1  0
 19 18  1  1
 20 19  1  0
 20  9  1  0
 21 19  1  0
 22 21  2  0
 24 23  1  0
 25 21  1  0
 26 25  1  0
 26 27  1  6
 28 32  1  0
 28 27  1  0
 29 28  2  0
 30 26  1  0
 30 33  1  0
 31 30  2  0
M  END
$$$$
