YYD.pdb
     RDKit          3D

 33 34  0  0  1  0  0  0  0  0999 V2000
   28.3228  -16.6194  -18.2838 O   0  0  0  0  0  0  0  0  0  0  0  0
   27.7635  -17.2792  -17.1891 C   0  0  0  0  0  0  0  0  0  0  0  0
   28.2087  -17.0342  -15.9021 C   0  0  0  0  0  0  0  0  0  0  0  0
   27.6209  -17.7171  -14.8327 C   0  0  0  0  0  0  0  0  0  0  0  0
   26.6210  -18.6179  -15.0240 C   0  0  0  0  0  0  0  0  0  0  0  0
   26.0259  -19.3195  -13.8623 C   0  0  0  0  0  0  0  0  0  0  0  0
   26.9900  -20.3929  -13.4138 C   0  0  2  0  0  0  0  0  0  0  0  0
   27.0272  -21.4488  -14.3933 N   0  0  0  0  0  0  0  0  0  0  0  0
   26.6219  -20.9609  -12.1015 C   0  0  0  0  0  0  0  0  0  0  0  0
   25.8850  -21.9865  -11.9945 O   0  0  0  0  0  0  0  0  0  0  0  0
   26.1656  -18.8747  -16.2949 C   0  0  0  0  0  0  0  0  0  0  0  0
   26.7513  -18.1941  -17.3604 C   0  0  0  0  0  0  0  0  0  0  0  0
   27.2086  -19.6930   -3.1484 O   0  0  0  0  0  0  0  0  0  0  0  0
   27.3698  -19.9276   -4.5163 C   0  0  0  0  0  0  0  0  0  0  0  0
   27.6410  -18.8978   -5.3926 C   0  0  0  0  0  0  0  0  0  0  0  0
   27.7946  -19.1565   -6.7321 C   0  0  0  0  0  0  0  0  0  0  0  0
   27.6912  -20.4278   -7.2778 C   0  0  0  0  0  0  0  0  0  0  0  0
   27.8723  -20.5785   -8.7023 C   0  0  0  0  0  0  0  0  0  0  0  0
   26.7345  -20.9105   -9.5677 C   0  0  2  0  0  0  0  0  0  0  0  0
   27.0882  -20.3679  -10.9056 N   0  0  0  0  0  0  0  0  0  0  0  0
   25.4290  -20.3201   -9.2156 C   0  0  0  0  0  0  0  0  0  0  0  0
   25.1479  -19.1183   -9.5707 O   0  0  0  0  0  0  0  0  0  0  0  0
   27.4196  -21.4559   -6.3969 C   0  0  0  0  0  0  0  0  0  0  0  0
   27.2662  -21.1927   -5.0541 C   0  0  0  0  0  0  0  0  0  0  0  0
   24.3937  -20.9697   -8.4923 N   0  0  0  0  0  0  0  0  0  0  0  0
   23.0107  -20.6965   -8.7631 C   0  0  1  0  0  0  0  0  0  0  0  0
   22.6485  -20.8966  -10.2155 C   0  0  0  0  0  0  0  0  0  0  0  0
   21.2233  -20.6400  -10.4846 C   0  0  0  0  0  0  0  0  0  0  0  0
   20.4316  -20.0707   -9.6905 O   0  0  0  0  0  0  0  0  0  0  0  0
   22.1211  -21.5777   -7.9775 C   0  0  0  0  0  0  0  0  0  0  0  0
   20.8815  -21.4511   -7.8681 O   0  0  0  0  0  0  0  0  0  0  0  0
   20.7107  -21.0562  -11.7054 O   0  0  0  0  0  0  0  0  0  0  0  0
   22.6848  -22.6608   -7.2812 O   0  0  0  0  0  0  0  0  0  0  0  0
  2  3  2  0
  2  1  1  0
  4  3  1  0
  5  4  2  0
  6  7  1  0
  6  5  1  0
  7  9  1  0
  7  8  1  6
  9 10  2  0
 11  5  1  0
 11 12  2  0
 12  2  1  0
 13 14  1  0
 14 24  2  0
 15 14  1  0
 15 16  2  0
 16 17  1  0
 17 23  2  0
 17 18  1  0
 19 18  1  1
 20 19  1  0
 20  9  1  0
 21 19  1  0
 22 21  2  0
 24 23  1  0
 25 21  1  0
 26 25  1  0
 26 27  1  6
 28 32  1  0
 28 27  1  0
 29 28  2  0
 30 26  1  0
 30 33  1  0
 31 30  2  0
M  END
$$$$
