YYD.pdb
     RDKit          3D

 33 34  0  0  1  0  0  0  0  0999 V2000
   29.0327  -22.7477  -17.6898 O   0  0  0  0  0  0  0  0  0  0  0  0
   28.0200  -22.2314  -16.8810 C   0  0  0  0  0  0  0  0  0  0  0  0
   27.5577  -20.9383  -17.0512 C   0  0  0  0  0  0  0  0  0  0  0  0
   26.5410  -20.4597  -16.2190 C   0  0  0  0  0  0  0  0  0  0  0  0
   25.9929  -21.2327  -15.2443 C   0  0  0  0  0  0  0  0  0  0  0  0
   24.9171  -20.6857  -14.3844 C   0  0  0  0  0  0  0  0  0  0  0  0
   23.7444  -21.6370  -14.4319 C   0  0  2  0  0  0  0  0  0  0  0  0
   23.2346  -21.7086  -15.7776 N   0  0  0  0  0  0  0  0  0  0  0  0
   22.6562  -21.2275  -13.5218 C   0  0  0  0  0  0  0  0  0  0  0  0
   22.7708  -20.2387  -12.7372 O   0  0  0  0  0  0  0  0  0  0  0  0
   26.4389  -22.5194  -15.0601 C   0  0  0  0  0  0  0  0  0  0  0  0
   27.4520  -22.9963  -15.8895 C   0  0  0  0  0  0  0  0  0  0  0  0
   20.0748  -15.5965  -15.3697 O   0  0  0  0  0  0  0  0  0  0  0  0
   19.8873  -16.8973  -14.8957 C   0  0  0  0  0  0  0  0  0  0  0  0
   20.0814  -17.9921  -15.7116 C   0  0  0  0  0  0  0  0  0  0  0  0
   19.8900  -19.2595  -15.2199 C   0  0  0  0  0  0  0  0  0  0  0  0
   19.5015  -19.5175  -13.9133 C   0  0  0  0  0  0  0  0  0  0  0  0
   19.3311  -20.8929  -13.5084 C   0  0  0  0  0  0  0  0  0  0  0  0
   20.3057  -21.5345  -12.6183 C   0  0  2  0  0  0  0  0  0  0  0  0
   21.4338  -21.9379  -13.4981 N   0  0  0  0  0  0  0  0  0  0  0  0
   19.8710  -22.7584  -11.9184 C   0  0  0  0  0  0  0  0  0  0  0  0
   19.8152  -23.8763  -12.5482 O   0  0  0  0  0  0  0  0  0  0  0  0
   19.3082  -18.4186  -13.0999 C   0  0  0  0  0  0  0  0  0  0  0  0
   19.5011  -17.1489  -13.5964 C   0  0  0  0  0  0  0  0  0  0  0  0
   19.4909  -22.8413  -10.5524 N   0  0  0  0  0  0  0  0  0  0  0  0
   19.0937  -24.0888   -9.9637 C   0  0  1  0  0  0  0  0  0  0  0  0
   19.0432  -24.0341   -8.4554 C   0  0  0  0  0  0  0  0  0  0  0  0
   18.7693  -25.3484   -7.8496 C   0  0  0  0  0  0  0  0  0  0  0  0
   18.5419  -26.4046   -8.4930 O   0  0  0  0  0  0  0  0  0  0  0  0
   17.7485  -24.4984  -10.4198 C   0  0  0  0  0  0  0  0  0  0  0  0
   16.7501  -23.7502  -10.5086 O   0  0  0  0  0  0  0  0  0  0  0  0
   18.7606  -25.4325   -6.4642 O   0  0  0  0  0  0  0  0  0  0  0  0
   17.5394  -25.8372  -10.7933 O   0  0  0  0  0  0  0  0  0  0  0  0
  2  3  2  0
  2  1  1  0
  4  3  1  0
  5  4  2  0
  6  7  1  0
  6  5  1  0
  7  9  1  0
  7  8  1  6
  9 10  2  0
 11  5  1  0
 11 12  2  0
 12  2  1  0
 13 14  1  0
 14 24  2  0
 15 14  1  0
 15 16  2  0
 16 17  1  0
 17 23  2  0
 17 18  1  0
 19 18  1  6
 20 19  1  0
 20  9  1  0
 21 19  1  0
 22 21  2  0
 24 23  1  0
 25 21  1  0
 26 25  1  0
 26 27  1  1
 28 32  1  0
 28 27  1  0
 29 28  2  0
 30 26  1  0
 30 33  1  0
 31 30  2  0
M  END
$$$$
