YYD.pdb
     RDKit          3D

 33 34  0  0  1  0  0  0  0  0999 V2000
   20.7292  -10.3986  -22.7076 O   0  0  0  0  0  0  0  0  0  0  0  0
   20.4174   -9.4542  -21.7291 C   0  0  0  0  0  0  0  0  0  0  0  0
   21.3804   -8.5938  -21.2323 C   0  0  0  0  0  0  0  0  0  0  0  0
   21.0258   -7.6620  -20.2519 C   0  0  0  0  0  0  0  0  0  0  0  0
   19.7567   -7.5782  -19.7723 C   0  0  0  0  0  0  0  0  0  0  0  0
   19.4238   -6.5757  -18.7329 C   0  0  0  0  0  0  0  0  0  0  0  0
   19.9727   -7.0636  -17.4126 C   0  0  2  0  0  0  0  0  0  0  0  0
   19.3276   -8.2993  -17.0483 N   0  0  0  0  0  0  0  0  0  0  0  0
   19.7806   -6.0782  -16.3299 C   0  0  0  0  0  0  0  0  0  0  0  0
   18.6947   -5.9930  -15.6818 O   0  0  0  0  0  0  0  0  0  0  0  0
   18.7864   -8.4242  -20.2534 C   0  0  0  0  0  0  0  0  0  0  0  0
   19.1399   -9.3528  -21.2304 C   0  0  0  0  0  0  0  0  0  0  0  0
   21.2642   -9.3227  -10.5946 O   0  0  0  0  0  0  0  0  0  0  0  0
   21.3888   -8.1876  -11.3997 C   0  0  0  0  0  0  0  0  0  0  0  0
   22.2458   -8.1661  -12.4800 C   0  0  0  0  0  0  0  0  0  0  0  0
   22.3488   -7.0373  -13.2545 C   0  0  0  0  0  0  0  0  0  0  0  0
   21.6227   -5.8801  -13.0122 C   0  0  0  0  0  0  0  0  0  0  0  0
   21.8141   -4.7540  -13.8953 C   0  0  0  0  0  0  0  0  0  0  0  0
   20.7322   -4.3086  -14.7812 C   0  0  2  0  0  0  0  0  0  0  0  0
   20.8194   -5.1857  -15.9781 N   0  0  0  0  0  0  0  0  0  0  0  0
   20.8017   -2.9220  -15.2805 C   0  0  0  0  0  0  0  0  0  0  0  0
   21.8054   -2.5396  -15.9846 O   0  0  0  0  0  0  0  0  0  0  0  0
   20.7659   -5.9060  -11.9297 C   0  0  0  0  0  0  0  0  0  0  0  0
   20.6652   -7.0399  -11.1551 C   0  0  0  0  0  0  0  0  0  0  0  0
   19.8281   -1.9117  -15.0595 N   0  0  0  0  0  0  0  0  0  0  0  0
   19.9777   -0.5978  -15.6178 C   0  0  1  0  0  0  0  0  0  0  0  0
   18.6554    0.0960  -15.8433 C   0  0  0  0  0  0  0  0  0  0  0  0
   18.8047    1.3911  -16.5285 C   0  0  0  0  0  0  0  0  0  0  0  0
   19.8882    1.8512  -16.9709 O   0  0  0  0  0  0  0  0  0  0  0  0
   20.7725    0.2792  -14.7321 C   0  0  0  0  0  0  0  0  0  0  0  0
   20.4642    0.6088  -13.5655 O   0  0  0  0  0  0  0  0  0  0  0  0
   17.6663    2.1661  -16.7014 O   0  0  0  0  0  0  0  0  0  0  0  0
   21.9848    0.8050  -15.2115 O   0  0  0  0  0  0  0  0  0  0  0  0
  2  3  2  0
  2  1  1  0
  4  3  1  0
  5  4  2  0
  6  7  1  0
  6  5  1  0
  7  9  1  0
  7  8  1  1
  9 10  2  0
 11  5  1  0
 11 12  2  0
 12  2  1  0
 13 14  1  0
 14 24  2  0
 15 14  1  0
 15 16  2  0
 16 17  1  0
 17 23  2  0
 17 18  1  0
 19 18  1  1
 20 19  1  0
 20  9  1  0
 21 19  1  0
 22 21  2  0
 24 23  1  0
 25 21  1  0
 26 25  1  0
 26 27  1  1
 28 32  1  0
 28 27  1  0
 29 28  2  0
 30 26  1  0
 30 33  1  0
 31 30  2  0
M  END
$$$$
