YYD.pdb
     RDKit          3D

 33 34  0  0  1  0  0  0  0  0999 V2000
   21.4883  -10.6456  -18.7382 O   0  0  0  0  0  0  0  0  0  0  0  0
   21.3282  -12.0237  -18.5911 C   0  0  0  0  0  0  0  0  0  0  0  0
   20.5537  -12.7526  -19.4763 C   0  0  0  0  0  0  0  0  0  0  0  0
   20.4193  -14.1323  -19.2929 C   0  0  0  0  0  0  0  0  0  0  0  0
   21.0308  -14.7788  -18.2653 C   0  0  0  0  0  0  0  0  0  0  0  0
   20.8617  -16.2426  -18.1077 C   0  0  0  0  0  0  0  0  0  0  0  0
   22.2058  -16.8991  -18.3194 C   0  0  2  0  0  0  0  0  0  0  0  0
   22.6535  -16.6595  -19.6678 N   0  0  0  0  0  0  0  0  0  0  0  0
   22.1610  -18.3545  -18.0743 C   0  0  0  0  0  0  0  0  0  0  0  0
   21.7004  -19.1677  -18.9305 O   0  0  0  0  0  0  0  0  0  0  0  0
   21.8040  -14.0720  -17.3759 C   0  0  0  0  0  0  0  0  0  0  0  0
   21.9379  -12.6971  -17.5588 C   0  0  0  0  0  0  0  0  0  0  0  0
   25.2322  -25.9235  -14.3725 O   0  0  0  0  0  0  0  0  0  0  0  0
   24.9048  -24.6228  -14.7639 C   0  0  0  0  0  0  0  0  0  0  0  0
   25.2384  -24.1455  -16.0140 C   0  0  0  0  0  0  0  0  0  0  0  0
   24.9045  -22.8631  -16.3727 C   0  0  0  0  0  0  0  0  0  0  0  0
   24.2316  -21.9890  -15.5314 C   0  0  0  0  0  0  0  0  0  0  0  0
   23.9339  -20.6627  -16.0182 C   0  0  0  0  0  0  0  0  0  0  0  0
   22.6134  -20.3531  -16.5789 C   0  0  2  0  0  0  0  0  0  0  0  0
   22.6382  -18.8932  -16.8572 N   0  0  0  0  0  0  0  0  0  0  0  0
   21.4440  -20.5871  -15.7102 C   0  0  0  0  0  0  0  0  0  0  0  0
   21.0276  -19.6597  -14.9254 O   0  0  0  0  0  0  0  0  0  0  0  0
   23.8996  -22.4709  -14.2808 C   0  0  0  0  0  0  0  0  0  0  0  0
   24.2361  -23.7576  -13.9244 C   0  0  0  0  0  0  0  0  0  0  0  0
   20.6866  -21.7869  -15.6454 N   0  0  0  0  0  0  0  0  0  0  0  0
   19.5125  -21.8836  -14.8251 C   0  0  1  0  0  0  0  0  0  0  0  0
   18.4799  -20.8323  -15.1555 C   0  0  0  0  0  0  0  0  0  0  0  0
   17.2016  -21.0550  -14.4587 C   0  0  0  0  0  0  0  0  0  0  0  0
   17.0617  -21.1080  -13.2101 O   0  0  0  0  0  0  0  0  0  0  0  0
   18.8493  -23.1953  -14.9820 C   0  0  0  0  0  0  0  0  0  0  0  0
   18.6646  -23.7935  -16.0649 O   0  0  0  0  0  0  0  0  0  0  0  0
   16.0624  -21.2193  -15.2344 O   0  0  0  0  0  0  0  0  0  0  0  0
   18.3736  -23.8543  -13.8353 O   0  0  0  0  0  0  0  0  0  0  0  0
  2  3  2  0
  2  1  1  0
  4  3  1  0
  5  4  2  0
  6  7  1  0
  6  5  1  0
  7  9  1  0
  7  8  1  6
  9 10  2  0
 11  5  1  0
 11 12  2  0
 12  2  1  0
 13 14  1  0
 14 24  2  0
 15 14  1  0
 15 16  2  0
 16 17  1  0
 17 23  2  0
 17 18  1  0
 19 18  1  1
 20 19  1  0
 20  9  1  0
 21 19  1  0
 22 21  2  0
 24 23  1  0
 25 21  1  0
 26 25  1  0
 26 27  1  6
 28 32  1  0
 28 27  1  0
 29 28  2  0
 30 26  1  0
 30 33  1  0
 31 30  2  0
M  END
$$$$
