YYD.pdb
     RDKit          3D

 33 34  0  0  1  0  0  0  0  0999 V2000
   30.8522  -18.5652  -18.9359 O   0  0  0  0  0  0  0  0  0  0  0  0
   29.7191  -18.3472  -18.1517 C   0  0  0  0  0  0  0  0  0  0  0  0
   29.0576  -19.3987  -17.5424 C   0  0  0  0  0  0  0  0  0  0  0  0
   27.9255  -19.1366  -16.7645 C   0  0  0  0  0  0  0  0  0  0  0  0
   27.4559  -17.8729  -16.5903 C   0  0  0  0  0  0  0  0  0  0  0  0
   26.2525  -17.6397  -15.7576 C   0  0  0  0  0  0  0  0  0  0  0  0
   25.0749  -18.3037  -16.4323 C   0  0  2  0  0  0  0  0  0  0  0  0
   24.8010  -17.6451  -17.6841 N   0  0  0  0  0  0  0  0  0  0  0  0
   23.8608  -18.2742  -15.5925 C   0  0  0  0  0  0  0  0  0  0  0  0
   23.2907  -17.1889  -15.2709 O   0  0  0  0  0  0  0  0  0  0  0  0
   28.0994  -16.8157  -17.1875 C   0  0  0  0  0  0  0  0  0  0  0  0
   29.2276  -17.0769  -17.9626 C   0  0  0  0  0  0  0  0  0  0  0  0
   18.3847  -15.9586  -18.3486 O   0  0  0  0  0  0  0  0  0  0  0  0
   19.0322  -16.9315  -17.5828 C   0  0  0  0  0  0  0  0  0  0  0  0
   18.8008  -17.0482  -16.2283 C   0  0  0  0  0  0  0  0  0  0  0  0
   19.4507  -18.0133  -15.4996 C   0  0  0  0  0  0  0  0  0  0  0  0
   20.3540  -18.9071  -16.0565 C   0  0  0  0  0  0  0  0  0  0  0  0
   20.9770  -19.8800  -15.1906 C   0  0  0  0  0  0  0  0  0  0  0  0
   22.0582  -19.4843  -14.2804 C   0  0  2  0  0  0  0  0  0  0  0  0
   23.2888  -19.4756  -15.1141 N   0  0  0  0  0  0  0  0  0  0  0  0
   22.3382  -20.3798  -13.1418 C   0  0  0  0  0  0  0  0  0  0  0  0
   22.4879  -21.6407  -13.3345 O   0  0  0  0  0  0  0  0  0  0  0  0
   20.5826  -18.7868  -17.4130 C   0  0  0  0  0  0  0  0  0  0  0  0
   19.9290  -17.8176  -18.1406 C   0  0  0  0  0  0  0  0  0  0  0  0
   22.4705  -19.9794  -11.7856 N   0  0  0  0  0  0  0  0  0  0  0  0
   22.6325  -20.9451  -10.7358 C   0  0  1  0  0  0  0  0  0  0  0  0
   23.8427  -20.6746   -9.8739 C   0  0  0  0  0  0  0  0  0  0  0  0
   25.1071  -21.0075  -10.5520 C   0  0  0  0  0  0  0  0  0  0  0  0
   25.1971  -21.5173  -11.6980 O   0  0  0  0  0  0  0  0  0  0  0  0
   21.4625  -20.9637   -9.8325 C   0  0  0  0  0  0  0  0  0  0  0  0
   21.2617  -21.7922   -8.9172 O   0  0  0  0  0  0  0  0  0  0  0  0
   26.2913  -20.7402   -9.8793 O   0  0  0  0  0  0  0  0  0  0  0  0
   20.4714  -19.9793   -9.9888 O   0  0  0  0  0  0  0  0  0  0  0  0
  2  3  2  0
  2  1  1  0
  4  3  1  0
  5  4  2  0
  6  7  1  0
  6  5  1  0
  7  9  1  0
  7  8  1  6
  9 10  2  0
 11  5  1  0
 11 12  2  0
 12  2  1  0
 13 14  1  0
 14 24  2  0
 15 14  1  0
 15 16  2  0
 16 17  1  0
 17 23  2  0
 17 18  1  0
 19 18  1  6
 20 19  1  0
 20  9  1  0
 21 19  1  0
 22 21  2  0
 24 23  1  0
 25 21  1  0
 26 25  1  0
 26 27  1  1
 28 32  1  0
 28 27  1  0
 29 28  2  0
 30 26  1  0
 30 33  1  0
 31 30  2  0
M  END
$$$$
