YYD.pdb
     RDKit          3D

 33 34  0  0  1  0  0  0  0  0999 V2000
   44.4491   -5.4838  -10.5173 O   0  0  0  0  0  0  0  0  0  0  0  0
   44.6430   -6.7228   -9.9061 C   0  0  0  0  0  0  0  0  0  0  0  0
   44.5361   -7.9000  -10.6253 C   0  0  0  0  0  0  0  0  0  0  0  0
   44.7380   -9.1209   -9.9742 C   0  0  0  0  0  0  0  0  0  0  0  0
   45.0375   -9.1827   -8.6496 C   0  0  0  0  0  0  0  0  0  0  0  0
   45.2437  -10.4980   -7.9989 C   0  0  0  0  0  0  0  0  0  0  0  0
   43.8956  -11.1594   -7.8322 C   0  0  2  0  0  0  0  0  0  0  0  0
   43.1320  -10.4549   -6.8340 N   0  0  0  0  0  0  0  0  0  0  0  0
   44.0145  -12.5781   -7.4406 C   0  0  0  0  0  0  0  0  0  0  0  0
   44.2754  -12.9287   -6.2509 O   0  0  0  0  0  0  0  0  0  0  0  0
   45.1479   -8.0242   -7.9186 C   0  0  0  0  0  0  0  0  0  0  0  0
   44.9466   -6.8077   -8.5676 C   0  0  0  0  0  0  0  0  0  0  0  0
   43.2969  -21.2142  -10.1374 O   0  0  0  0  0  0  0  0  0  0  0  0
   43.2005  -19.8645   -9.7893 C   0  0  0  0  0  0  0  0  0  0  0  0
   43.2844  -18.8712  -10.7423 C   0  0  0  0  0  0  0  0  0  0  0  0
   43.1864  -17.5527  -10.3725 C   0  0  0  0  0  0  0  0  0  0  0  0
   43.0026  -17.1427   -9.0599 C   0  0  0  0  0  0  0  0  0  0  0  0
   42.9138  -15.7270   -8.7907 C   0  0  0  0  0  0  0  0  0  0  0  0
   43.9750  -15.0419   -8.0435 C   0  0  2  0  0  0  0  0  0  0  0  0
   43.8380  -13.6046   -8.3969 N   0  0  0  0  0  0  0  0  0  0  0  0
   45.3669  -15.4136   -8.3619 C   0  0  0  0  0  0  0  0  0  0  0  0
   45.9834  -14.8366   -9.3296 O   0  0  0  0  0  0  0  0  0  0  0  0
   42.9191  -18.1405   -8.1091 C   0  0  0  0  0  0  0  0  0  0  0  0
   43.0178  -19.4618   -8.4836 C   0  0  0  0  0  0  0  0  0  0  0  0
   46.1416  -16.3880   -7.6779 N   0  0  0  0  0  0  0  0  0  0  0  0
   47.4449  -16.7664   -8.1458 C   0  0  1  0  0  0  0  0  0  0  0  0
   48.5201  -16.5709   -7.1035 C   0  0  0  0  0  0  0  0  0  0  0  0
   49.8597  -16.9336   -7.5965 C   0  0  0  0  0  0  0  0  0  0  0  0
   50.5054  -16.2930   -8.4649 O   0  0  0  0  0  0  0  0  0  0  0  0
   47.4865  -18.1912   -8.5377 C   0  0  0  0  0  0  0  0  0  0  0  0
   46.9972  -19.1405   -7.8867 O   0  0  0  0  0  0  0  0  0  0  0  0
   50.4590  -18.0674   -7.0654 O   0  0  0  0  0  0  0  0  0  0  0  0
   48.1233  -18.5437   -9.7401 O   0  0  0  0  0  0  0  0  0  0  0  0
  2  3  2  0
  2  1  1  0
  4  3  1  0
  5  4  2  0
  6  7  1  0
  6  5  1  0
  7  9  1  0
  7  8  1  1
  9 10  2  0
 11  5  1  0
 11 12  2  0
 12  2  1  0
 13 14  1  0
 14 24  2  0
 15 14  1  0
 15 16  2  0
 16 17  1  0
 17 23  2  0
 17 18  1  0
 19 18  1  6
 20 19  1  0
 20  9  1  0
 21 19  1  0
 22 21  2  0
 24 23  1  0
 25 21  1  0
 26 25  1  0
 26 27  1  1
 28 32  1  0
 28 27  1  0
 29 28  2  0
 30 26  1  0
 30 33  1  0
 31 30  2  0
M  END
$$$$
