YYD.pdb
     RDKit          3D

 33 34  0  0  1  0  0  0  0  0999 V2000
   29.5593  -19.5856   -5.7402 O   0  0  0  0  0  0  0  0  0  0  0  0
   29.0087  -19.7679   -7.0091 C   0  0  0  0  0  0  0  0  0  0  0  0
   27.6830  -19.4644   -7.2642 C   0  0  0  0  0  0  0  0  0  0  0  0
   27.1707  -19.6619   -8.5502 C   0  0  0  0  0  0  0  0  0  0  0  0
   27.9421  -20.1456   -9.5596 C   0  0  0  0  0  0  0  0  0  0  0  0
   27.3588  -20.3398  -10.9079 C   0  0  0  0  0  0  0  0  0  0  0  0
   26.4324  -21.5321  -10.8548 C   0  0  2  0  0  0  0  0  0  0  0  0
   27.1515  -22.7200  -11.2388 N   0  0  0  0  0  0  0  0  0  0  0  0
   25.2601  -21.3678  -11.7374 C   0  0  0  0  0  0  0  0  0  0  0  0
   25.1916  -21.9205  -12.8760 O   0  0  0  0  0  0  0  0  0  0  0  0
   29.2610  -20.4527   -9.3255 C   0  0  0  0  0  0  0  0  0  0  0  0
   29.7715  -20.2558   -8.0440 C   0  0  0  0  0  0  0  0  0  0  0  0
   16.5511  -18.8568  -12.0826 O   0  0  0  0  0  0  0  0  0  0  0  0
   17.8582  -19.2487  -11.7826 C   0  0  0  0  0  0  0  0  0  0  0  0
   18.8633  -18.3198  -11.6123 C   0  0  0  0  0  0  0  0  0  0  0  0
   20.1392  -18.7324  -11.3181 C   0  0  0  0  0  0  0  0  0  0  0  0
   20.4933  -20.0664  -11.1766 C   0  0  0  0  0  0  0  0  0  0  0  0
   21.8678  -20.3809  -10.8660 C   0  0  0  0  0  0  0  0  0  0  0  0
   22.8108  -20.7368  -11.9327 C   0  0  2  0  0  0  0  0  0  0  0  0
   24.1609  -20.5760  -11.3320 N   0  0  0  0  0  0  0  0  0  0  0  0
   22.7976  -19.8988  -13.1470 C   0  0  0  0  0  0  0  0  0  0  0  0
   23.3681  -18.7482  -13.1428 O   0  0  0  0  0  0  0  0  0  0  0  0
   19.4839  -20.9930  -11.3478 C   0  0  0  0  0  0  0  0  0  0  0  0
   18.2055  -20.5754  -11.6429 C   0  0  0  0  0  0  0  0  0  0  0  0
   22.1947  -20.2442  -14.3858 N   0  0  0  0  0  0  0  0  0  0  0  0
   22.1645  -19.3194  -15.4833 C   0  0  1  0  0  0  0  0  0  0  0  0
   22.2117  -20.0056  -16.8278 C   0  0  0  0  0  0  0  0  0  0  0  0
   22.1863  -19.0533  -17.9511 C   0  0  0  0  0  0  0  0  0  0  0  0
   21.1700  -18.7773  -18.6384 O   0  0  0  0  0  0  0  0  0  0  0  0
   20.9343  -18.5001  -15.4668 C   0  0  0  0  0  0  0  0  0  0  0  0
   20.8697  -17.2772  -15.7216 O   0  0  0  0  0  0  0  0  0  0  0  0
   23.3711  -18.4094  -18.2798 O   0  0  0  0  0  0  0  0  0  0  0  0
   19.7145  -19.1177  -15.1407 O   0  0  0  0  0  0  0  0  0  0  0  0
  2  3  2  0
  2  1  1  0
  4  3  1  0
  5  4  2  0
  6  7  1  0
  6  5  1  0
  7  9  1  0
  7  8  1  6
  9 10  2  0
 11  5  1  0
 11 12  2  0
 12  2  1  0
 13 14  1  0
 14 24  2  0
 15 14  1  0
 15 16  2  0
 16 17  1  0
 17 23  2  0
 17 18  1  0
 19 18  1  1
 20 19  1  0
 20  9  1  0
 21 19  1  0
 22 21  2  0
 24 23  1  0
 25 21  1  0
 26 25  1  0
 26 27  1  6
 28 32  1  0
 28 27  1  0
 29 28  2  0
 30 26  1  0
 30 33  1  0
 31 30  2  0
M  END
$$$$
