YYD.pdb
     RDKit          3D

 33 34  0  0  1  0  0  0  0  0999 V2000
   33.4631  -10.5252  -17.7263 O   0  0  0  0  0  0  0  0  0  0  0  0
   32.0768  -10.5372  -17.8829 C   0  0  0  0  0  0  0  0  0  0  0  0
   31.3740  -11.7275  -17.9453 C   0  0  0  0  0  0  0  0  0  0  0  0
   29.9850  -11.6949  -18.1028 C   0  0  0  0  0  0  0  0  0  0  0  0
   29.3044  -10.5220  -18.1966 C   0  0  0  0  0  0  0  0  0  0  0  0
   27.8319  -10.5330  -18.3629 C   0  0  0  0  0  0  0  0  0  0  0  0
   27.2104   -9.9613  -17.1100 C   0  0  2  0  0  0  0  0  0  0  0  0
   27.5512  -10.7889  -15.9809 N   0  0  0  0  0  0  0  0  0  0  0  0
   25.7409   -9.8603  -17.2118 C   0  0  0  0  0  0  0  0  0  0  0  0
   25.1701   -9.3263  -18.2095 O   0  0  0  0  0  0  0  0  0  0  0  0
   29.9849   -9.3296  -18.1367 C   0  0  0  0  0  0  0  0  0  0  0  0
   31.3691   -9.3621  -17.9797 C   0  0  0  0  0  0  0  0  0  0  0  0
   17.4506  -12.5635  -14.9125 O   0  0  0  0  0  0  0  0  0  0  0  0
   18.8166  -12.3107  -15.0617 C   0  0  0  0  0  0  0  0  0  0  0  0
   19.4650  -12.5585  -16.2534 C   0  0  0  0  0  0  0  0  0  0  0  0
   20.8082  -12.3010  -16.3726 C   0  0  0  0  0  0  0  0  0  0  0  0
   21.5794  -11.7912  -15.3382 C   0  0  0  0  0  0  0  0  0  0  0  0
   22.9839  -11.5605  -15.5805 C   0  0  0  0  0  0  0  0  0  0  0  0
   23.4304  -10.3550  -16.2885 C   0  0  2  0  0  0  0  0  0  0  0  0
   24.9130  -10.3646  -16.1824 N   0  0  0  0  0  0  0  0  0  0  0  0
   22.9870   -9.0561  -15.7472 C   0  0  0  0  0  0  0  0  0  0  0  0
   23.5749   -8.5491  -14.7241 O   0  0  0  0  0  0  0  0  0  0  0  0
   20.9262  -11.5445  -14.1469 C   0  0  0  0  0  0  0  0  0  0  0  0
   19.5790  -11.8041  -14.0309 C   0  0  0  0  0  0  0  0  0  0  0  0
   21.9283   -8.2615  -16.2621 N   0  0  0  0  0  0  0  0  0  0  0  0
   21.4933   -7.0716  -15.5871 C   0  0  1  0  0  0  0  0  0  0  0  0
   21.4207   -5.8730  -16.5030 C   0  0  0  0  0  0  0  0  0  0  0  0
   20.9437   -4.6617  -15.8141 C   0  0  0  0  0  0  0  0  0  0  0  0
   21.5756   -4.0473  -14.9171 O   0  0  0  0  0  0  0  0  0  0  0  0
   20.1462   -7.2428  -15.0029 C   0  0  0  0  0  0  0  0  0  0  0  0
   19.1808   -7.8167  -15.5534 O   0  0  0  0  0  0  0  0  0  0  0  0
   19.7036   -4.1564  -16.1790 O   0  0  0  0  0  0  0  0  0  0  0  0
   19.8952   -6.7278  -13.7194 O   0  0  0  0  0  0  0  0  0  0  0  0
  2  3  2  0
  2  1  1  0
  4  3  1  0
  5  4  2  0
  6  7  1  0
  6  5  1  0
  7  9  1  0
  7  8  1  1
  9 10  2  0
 11  5  1  0
 11 12  2  0
 12  2  1  0
 13 14  1  0
 14 24  2  0
 15 14  1  0
 15 16  2  0
 16 17  1  0
 17 23  2  0
 17 18  1  0
 19 18  1  1
 20 19  1  0
 20  9  1  0
 21 19  1  0
 22 21  2  0
 24 23  1  0
 25 21  1  0
 26 25  1  0
 26 27  1  6
 28 32  1  0
 28 27  1  0
 29 28  2  0
 30 26  1  0
 30 33  1  0
 31 30  2  0
M  END
$$$$
