YYD.pdb
     RDKit          3D

 33 34  0  0  1  0  0  0  0  0999 V2000
   22.6310   -0.9454  -20.2994 O   0  0  0  0  0  0  0  0  0  0  0  0
   21.6447   -1.5634  -19.5300 C   0  0  0  0  0  0  0  0  0  0  0  0
   20.4851   -2.0483  -20.1087 C   0  0  0  0  0  0  0  0  0  0  0  0
   19.5217   -2.6612  -19.3014 C   0  0  0  0  0  0  0  0  0  0  0  0
   19.6941   -2.7938  -17.9596 C   0  0  0  0  0  0  0  0  0  0  0  0
   18.6475   -3.4500  -17.1411 C   0  0  0  0  0  0  0  0  0  0  0  0
   19.0008   -4.9128  -17.0064 C   0  0  2  0  0  0  0  0  0  0  0  0
   18.9146   -5.5512  -18.2951 N   0  0  0  0  0  0  0  0  0  0  0  0
   18.1155   -5.6157  -16.0563 C   0  0  0  0  0  0  0  0  0  0  0  0
   17.0024   -6.1072  -16.4107 O   0  0  0  0  0  0  0  0  0  0  0  0
   20.8392   -2.3184  -17.3668 C   0  0  0  0  0  0  0  0  0  0  0  0
   21.7992   -1.7077  -18.1713 C   0  0  0  0  0  0  0  0  0  0  0  0
   15.9864  -11.3853   -9.7682 O   0  0  0  0  0  0  0  0  0  0  0  0
   16.5735  -10.4639  -10.6392 C   0  0  0  0  0  0  0  0  0  0  0  0
   16.2607  -10.4480  -11.9823 C   0  0  0  0  0  0  0  0  0  0  0  0
   16.8525   -9.5318  -12.8159 C   0  0  0  0  0  0  0  0  0  0  0  0
   17.7743   -8.5910  -12.3798 C   0  0  0  0  0  0  0  0  0  0  0  0
   18.3310   -7.6772  -13.3491 C   0  0  0  0  0  0  0  0  0  0  0  0
   17.6151   -6.4489  -13.7131 C   0  0  2  0  0  0  0  0  0  0  0  0
   18.4895   -5.7636  -14.7007 N   0  0  0  0  0  0  0  0  0  0  0  0
   17.3670   -5.4724  -12.6352 C   0  0  0  0  0  0  0  0  0  0  0  0
   18.3209   -4.7252  -12.2097 O   0  0  0  0  0  0  0  0  0  0  0  0
   18.0845   -8.6105  -11.0344 C   0  0  0  0  0  0  0  0  0  0  0  0
   17.4890   -9.5309  -10.2013 C   0  0  0  0  0  0  0  0  0  0  0  0
   16.1233   -5.2542  -11.9848 N   0  0  0  0  0  0  0  0  0  0  0  0
   15.9819   -4.2561  -10.9628 C   0  0  1  0  0  0  0  0  0  0  0  0
   14.8703   -3.2757  -11.2526 C   0  0  0  0  0  0  0  0  0  0  0  0
   14.6782   -2.2997  -10.1664 C   0  0  0  0  0  0  0  0  0  0  0  0
   15.3962   -2.2170   -9.1373 O   0  0  0  0  0  0  0  0  0  0  0  0
   15.6806   -4.8649   -9.6499 C   0  0  0  0  0  0  0  0  0  0  0  0
   15.4915   -4.2400   -8.5831 O   0  0  0  0  0  0  0  0  0  0  0  0
   13.6266   -1.4014  -10.2828 O   0  0  0  0  0  0  0  0  0  0  0  0
   15.5919   -6.2647   -9.5577 O   0  0  0  0  0  0  0  0  0  0  0  0
  2  3  2  0
  2  1  1  0
  4  3  1  0
  5  4  2  0
  6  7  1  0
  6  5  1  0
  7  9  1  0
  7  8  1  6
  9 10  2  0
 11  5  1  0
 11 12  2  0
 12  2  1  0
 13 14  1  0
 14 24  2  0
 15 14  1  0
 15 16  2  0
 16 17  1  0
 17 23  2  0
 17 18  1  0
 19 18  1  1
 20 19  1  0
 20  9  1  0
 21 19  1  0
 22 21  2  0
 24 23  1  0
 25 21  1  0
 26 25  1  0
 26 27  1  6
 28 32  1  0
 28 27  1  0
 29 28  2  0
 30 26  1  0
 30 33  1  0
 31 30  2  0
M  END
$$$$
