YYD.pdb
     RDKit          3D

 33 34  0  0  1  0  0  0  0  0999 V2000
   16.2182  -15.3276  -20.1290 O   0  0  0  0  0  0  0  0  0  0  0  0
   15.5394  -15.2137  -18.9155 C   0  0  0  0  0  0  0  0  0  0  0  0
   15.2017  -13.9757  -18.3980 C   0  0  0  0  0  0  0  0  0  0  0  0
   14.5213  -13.9059  -17.1783 C   0  0  0  0  0  0  0  0  0  0  0  0
   14.1816  -15.0248  -16.4853 C   0  0  0  0  0  0  0  0  0  0  0  0
   13.4605  -14.9055  -15.1961 C   0  0  0  0  0  0  0  0  0  0  0  0
   14.4478  -14.4631  -14.1415 C   0  0  2  0  0  0  0  0  0  0  0  0
   15.3828  -15.5273  -13.8783 N   0  0  0  0  0  0  0  0  0  0  0  0
   13.7828  -14.0784  -12.8806 C   0  0  0  0  0  0  0  0  0  0  0  0
   13.6499  -14.8885  -11.9150 O   0  0  0  0  0  0  0  0  0  0  0  0
   14.5084  -16.2633  -16.9831 C   0  0  0  0  0  0  0  0  0  0  0  0
   15.1864  -16.3328  -18.1985 C   0  0  0  0  0  0  0  0  0  0  0  0
   10.3132   -7.8785   -7.2780 O   0  0  0  0  0  0  0  0  0  0  0  0
   10.9386   -8.6352   -8.2722 C   0  0  0  0  0  0  0  0  0  0  0  0
   12.1414   -9.2687   -8.0401 C   0  0  0  0  0  0  0  0  0  0  0  0
   12.7341  -10.0061   -9.0349 C   0  0  0  0  0  0  0  0  0  0  0  0
   12.1830  -10.1596  -10.2988 C   0  0  0  0  0  0  0  0  0  0  0  0
   12.8979  -10.9594  -11.2652 C   0  0  0  0  0  0  0  0  0  0  0  0
   12.5432  -12.3677  -11.4761 C   0  0  2  0  0  0  0  0  0  0  0  0
   13.2660  -12.7733  -12.7101 N   0  0  0  0  0  0  0  0  0  0  0  0
   11.1194  -12.6728  -11.7135 C   0  0  0  0  0  0  0  0  0  0  0  0
   10.6531  -12.6849  -12.9101 O   0  0  0  0  0  0  0  0  0  0  0  0
   10.9787   -9.5237  -10.5268 C   0  0  0  0  0  0  0  0  0  0  0  0
   10.3871   -8.7850   -9.5267 C   0  0  0  0  0  0  0  0  0  0  0  0
   10.1581  -12.9735  -10.7121 N   0  0  0  0  0  0  0  0  0  0  0  0
    8.7846  -13.2213  -11.0480 C   0  0  1  0  0  0  0  0  0  0  0  0
    8.6160  -14.3763  -12.0062 C   0  0  0  0  0  0  0  0  0  0  0  0
    7.2020  -14.6760  -12.2891 C   0  0  0  0  0  0  0  0  0  0  0  0
    6.3570  -13.8404  -12.7001 O   0  0  0  0  0  0  0  0  0  0  0  0
    7.9838  -13.5438   -9.8480 C   0  0  0  0  0  0  0  0  0  0  0  0
    8.4429  -13.8849   -8.7357 O   0  0  0  0  0  0  0  0  0  0  0  0
    6.7644  -15.9778  -12.0884 O   0  0  0  0  0  0  0  0  0  0  0  0
    6.5825  -13.4706   -9.9302 O   0  0  0  0  0  0  0  0  0  0  0  0
  2  3  2  0
  2  1  1  0
  4  3  1  0
  5  4  2  0
  6  7  1  0
  6  5  1  0
  7  9  1  0
  7  8  1  1
  9 10  2  0
 11  5  1  0
 11 12  2  0
 12  2  1  0
 13 14  1  0
 14 24  2  0
 15 14  1  0
 15 16  2  0
 16 17  1  0
 17 23  2  0
 17 18  1  0
 19 18  1  6
 20 19  1  0
 20  9  1  0
 21 19  1  0
 22 21  2  0
 24 23  1  0
 25 21  1  0
 26 25  1  0
 26 27  1  6
 28 32  1  0
 28 27  1  0
 29 28  2  0
 30 26  1  0
 30 33  1  0
 31 30  2  0
M  END
$$$$
