YYD.pdb
     RDKit          3D

 33 34  0  0  1  0  0  0  0  0999 V2000
   24.5123  -16.4245  -27.3849 O   0  0  0  0  0  0  0  0  0  0  0  0
   23.7895  -15.8854  -26.3203 C   0  0  0  0  0  0  0  0  0  0  0  0
   22.4359  -15.6220  -26.4351 C   0  0  0  0  0  0  0  0  0  0  0  0
   21.7487  -15.0815  -25.3438 C   0  0  0  0  0  0  0  0  0  0  0  0
   22.3763  -14.8071  -24.1697 C   0  0  0  0  0  0  0  0  0  0  0  0
   21.6098  -14.2345  -23.0380 C   0  0  0  0  0  0  0  0  0  0  0  0
   21.4746  -12.7467  -23.2633 C   0  0  2  0  0  0  0  0  0  0  0  0
   22.7579  -12.1140  -23.0940 N   0  0  0  0  0  0  0  0  0  0  0  0
   20.5028  -12.1283  -22.3396 C   0  0  0  0  0  0  0  0  0  0  0  0
   20.8435  -11.6831  -21.2029 O   0  0  0  0  0  0  0  0  0  0  0  0
   23.7201  -15.0619  -24.0365 C   0  0  0  0  0  0  0  0  0  0  0  0
   24.4049  -15.6005  -25.1241 C   0  0  0  0  0  0  0  0  0  0  0  0
   13.1378   -7.5219  -20.2775 O   0  0  0  0  0  0  0  0  0  0  0  0
   14.1990   -8.2272  -20.8508 C   0  0  0  0  0  0  0  0  0  0  0  0
   14.1135   -9.5834  -21.0863 C   0  0  0  0  0  0  0  0  0  0  0  0
   15.1714  -10.2518  -21.6509 C   0  0  0  0  0  0  0  0  0  0  0  0
   16.3586   -9.6306  -22.0110 C   0  0  0  0  0  0  0  0  0  0  0  0
   17.4029  -10.4368  -22.5975 C   0  0  0  0  0  0  0  0  0  0  0  0
   18.1305  -11.4199  -21.7864 C   0  0  2  0  0  0  0  0  0  0  0  0
   19.1408  -12.0124  -22.7016 N   0  0  0  0  0  0  0  0  0  0  0  0
   17.3525  -12.5502  -21.2444 C   0  0  0  0  0  0  0  0  0  0  0  0
   17.3428  -13.6790  -21.8567 O   0  0  0  0  0  0  0  0  0  0  0  0
   16.4398   -8.2728  -21.7734 C   0  0  0  0  0  0  0  0  0  0  0  0
   15.3768   -7.6056  -21.2070 C   0  0  0  0  0  0  0  0  0  0  0  0
   16.5750  -12.5269  -20.0559 N   0  0  0  0  0  0  0  0  0  0  0  0
   15.8312  -13.6782  -19.6293 C   0  0  1  0  0  0  0  0  0  0  0  0
   16.7188  -14.8342  -19.2335 C   0  0  0  0  0  0  0  0  0  0  0  0
   16.3432  -16.0917  -19.9021 C   0  0  0  0  0  0  0  0  0  0  0  0
   15.3682  -16.2279  -20.6846 O   0  0  0  0  0  0  0  0  0  0  0  0
   14.9844  -13.3714  -18.4572 C   0  0  0  0  0  0  0  0  0  0  0  0
   13.8944  -13.9200  -18.1821 O   0  0  0  0  0  0  0  0  0  0  0  0
   17.1210  -17.2138  -19.6527 O   0  0  0  0  0  0  0  0  0  0  0  0
   15.4119  -12.3829  -17.5539 O   0  0  0  0  0  0  0  0  0  0  0  0
  2  3  2  0
  2  1  1  0
  4  3  1  0
  5  4  2  0
  6  7  1  0
  6  5  1  0
  7  9  1  0
  7  8  1  1
  9 10  2  0
 11  5  1  0
 11 12  2  0
 12  2  1  0
 13 14  1  0
 14 24  2  0
 15 14  1  0
 15 16  2  0
 16 17  1  0
 17 23  2  0
 17 18  1  0
 19 18  1  6
 20 19  1  0
 20  9  1  0
 21 19  1  0
 22 21  2  0
 24 23  1  0
 25 21  1  0
 26 25  1  0
 26 27  1  1
 28 32  1  0
 28 27  1  0
 29 28  2  0
 30 26  1  0
 30 33  1  0
 31 30  2  0
M  END
$$$$
