YYD.pdb
     RDKit          3D

 33 34  0  0  1  0  0  0  0  0999 V2000
   27.5116  -15.1847  -18.1822 O   0  0  0  0  0  0  0  0  0  0  0  0
   27.2062  -16.1343  -17.2068 C   0  0  0  0  0  0  0  0  0  0  0  0
   27.3058  -15.8338  -15.8598 C   0  0  0  0  0  0  0  0  0  0  0  0
   26.9903  -16.8146  -14.9144 C   0  0  0  0  0  0  0  0  0  0  0  0
   26.5871  -18.0591  -15.2840 C   0  0  0  0  0  0  0  0  0  0  0  0
   26.2623  -19.0688  -14.2491 C   0  0  0  0  0  0  0  0  0  0  0  0
   27.5586  -19.5884  -13.6726 C   0  0  2  0  0  0  0  0  0  0  0  0
   28.2052  -20.4456  -14.6332 N   0  0  0  0  0  0  0  0  0  0  0  0
   27.3507  -20.3367  -12.4168 C   0  0  0  0  0  0  0  0  0  0  0  0
   26.9796  -21.5486  -12.4087 O   0  0  0  0  0  0  0  0  0  0  0  0
   26.4821  -18.3762  -16.6170 C   0  0  0  0  0  0  0  0  0  0  0  0
   26.7966  -17.3988  -17.5590 C   0  0  0  0  0  0  0  0  0  0  0  0
   27.3687  -20.6561   -3.3620 O   0  0  0  0  0  0  0  0  0  0  0  0
   27.5608  -20.4311   -4.7275 C   0  0  0  0  0  0  0  0  0  0  0  0
   28.2210  -21.3477   -5.5187 C   0  0  0  0  0  0  0  0  0  0  0  0
   28.3959  -21.1013   -6.8579 C   0  0  0  0  0  0  0  0  0  0  0  0
   27.9364  -19.9528   -7.4860 C   0  0  0  0  0  0  0  0  0  0  0  0
   28.1790  -19.8025   -8.9014 C   0  0  0  0  0  0  0  0  0  0  0  0
   27.2673  -20.4029   -9.8822 C   0  0  2  0  0  0  0  0  0  0  0  0
   27.5628  -19.7134  -11.1655 N   0  0  0  0  0  0  0  0  0  0  0  0
   25.8209  -20.2321   -9.6462 C   0  0  0  0  0  0  0  0  0  0  0  0
   25.3023  -19.0572   -9.6431 O   0  0  0  0  0  0  0  0  0  0  0  0
   27.2760  -19.0378   -6.6902 C   0  0  0  0  0  0  0  0  0  0  0  0
   27.1024  -19.2883   -5.3475 C   0  0  0  0  0  0  0  0  0  0  0  0
   24.8899  -21.2791   -9.4132 N   0  0  0  0  0  0  0  0  0  0  0  0
   23.5085  -21.0006   -9.1395 C   0  0  1  0  0  0  0  0  0  0  0  0
   22.5708  -21.6937  -10.0992 C   0  0  0  0  0  0  0  0  0  0  0  0
   22.6336  -21.1306  -11.4587 C   0  0  0  0  0  0  0  0  0  0  0  0
   22.6675  -21.8078  -12.5178 O   0  0  0  0  0  0  0  0  0  0  0  0
   23.1271  -21.4396   -7.7804 C   0  0  0  0  0  0  0  0  0  0  0  0
   23.8715  -22.0365   -6.9717 O   0  0  0  0  0  0  0  0  0  0  0  0
   22.6574  -19.7487  -11.5857 O   0  0  0  0  0  0  0  0  0  0  0  0
   21.8224  -21.1794   -7.3267 O   0  0  0  0  0  0  0  0  0  0  0  0
  2  3  2  0
  2  1  1  0
  4  3  1  0
  5  4  2  0
  6  7  1  0
  6  5  1  0
  7  9  1  0
  7  8  1  6
  9 10  2  0
 11  5  1  0
 11 12  2  0
 12  2  1  0
 13 14  1  0
 14 24  2  0
 15 14  1  0
 15 16  2  0
 16 17  1  0
 17 23  2  0
 17 18  1  0
 19 18  1  1
 20 19  1  0
 20  9  1  0
 21 19  1  0
 22 21  2  0
 24 23  1  0
 25 21  1  0
 26 25  1  0
 26 27  1  6
 28 32  1  0
 28 27  1  0
 29 28  2  0
 30 26  1  0
 30 33  1  0
 31 30  2  0
M  END
$$$$
