YYD.pdb
     RDKit          3D

 33 34  0  0  1  0  0  0  0  0999 V2000
   20.0154   -7.3486   -9.9444 O   0  0  0  0  0  0  0  0  0  0  0  0
   20.1694   -7.8007  -11.2553 C   0  0  0  0  0  0  0  0  0  0  0  0
   21.0338   -7.1701  -12.1327 C   0  0  0  0  0  0  0  0  0  0  0  0
   21.1586   -7.6554  -13.4381 C   0  0  0  0  0  0  0  0  0  0  0  0
   20.4514   -8.7330  -13.8699 C   0  0  0  0  0  0  0  0  0  0  0  0
   20.6139   -9.2144  -15.2620 C   0  0  0  0  0  0  0  0  0  0  0  0
   19.7903   -8.3288  -16.1675 C   0  0  2  0  0  0  0  0  0  0  0  0
   18.4505   -8.2204  -15.6487 N   0  0  0  0  0  0  0  0  0  0  0  0
   19.7350   -8.8423  -17.5508 C   0  0  0  0  0  0  0  0  0  0  0  0
   18.7073   -9.4221  -18.0133 O   0  0  0  0  0  0  0  0  0  0  0  0
   19.5880   -9.3725  -13.0131 C   0  0  0  0  0  0  0  0  0  0  0  0
   19.4637   -8.8889  -11.7122 C   0  0  0  0  0  0  0  0  0  0  0  0
   23.0827   -9.0847  -25.9597 O   0  0  0  0  0  0  0  0  0  0  0  0
   22.7036   -8.8513  -24.6353 C   0  0  0  0  0  0  0  0  0  0  0  0
   23.5390   -9.1681  -23.5847 C   0  0  0  0  0  0  0  0  0  0  0  0
   23.1414   -8.9281  -22.2928 C   0  0  0  0  0  0  0  0  0  0  0  0
   21.9140   -8.3698  -21.9662 C   0  0  0  0  0  0  0  0  0  0  0  0
   21.6048   -8.1638  -20.5710 C   0  0  0  0  0  0  0  0  0  0  0  0
   20.8021   -9.1454  -19.8323 C   0  0  2  0  0  0  0  0  0  0  0  0
   20.8453   -8.7000  -18.4148 N   0  0  0  0  0  0  0  0  0  0  0  0
   21.2767  -10.5424  -19.8399 C   0  0  0  0  0  0  0  0  0  0  0  0
   22.2730  -10.8890  -19.1073 O   0  0  0  0  0  0  0  0  0  0  0  0
   21.0808   -8.0542  -23.0211 C   0  0  0  0  0  0  0  0  0  0  0  0
   21.4829   -8.2962  -24.3156 C   0  0  0  0  0  0  0  0  0  0  0  0
   20.7220  -11.6020  -20.6058 N   0  0  0  0  0  0  0  0  0  0  0  0
   21.2843  -12.9223  -20.5685 C   0  0  1  0  0  0  0  0  0  0  0  0
   20.2392  -13.9985  -20.3955 C   0  0  0  0  0  0  0  0  0  0  0  0
   20.8085  -15.3557  -20.4537 C   0  0  0  0  0  0  0  0  0  0  0  0
   20.6390  -16.1679  -21.3986 O   0  0  0  0  0  0  0  0  0  0  0  0
   22.0144  -13.2348  -21.8153 C   0  0  0  0  0  0  0  0  0  0  0  0
   21.9717  -12.5666  -22.8718 O   0  0  0  0  0  0  0  0  0  0  0  0
   21.5919  -15.7744  -19.3872 O   0  0  0  0  0  0  0  0  0  0  0  0
   22.8365  -14.3744  -21.8503 O   0  0  0  0  0  0  0  0  0  0  0  0
  2  3  2  0
  2  1  1  0
  4  3  1  0
  5  4  2  0
  6  7  1  0
  6  5  1  0
  7  9  1  0
  7  8  1  1
  9 10  2  0
 11  5  1  0
 11 12  2  0
 12  2  1  0
 13 14  1  0
 14 24  2  0
 15 14  1  0
 15 16  2  0
 16 17  1  0
 17 23  2  0
 17 18  1  0
 19 18  1  6
 20 19  1  0
 20  9  1  0
 21 19  1  0
 22 21  2  0
 24 23  1  0
 25 21  1  0
 26 25  1  0
 26 27  1  6
 28 32  1  0
 28 27  1  0
 29 28  2  0
 30 26  1  0
 30 33  1  0
 31 30  2  0
M  END
$$$$
