YKG.pdb
     RDKit          3D

 26 26  0  0  1  0  0  0  0  0999 V2000
   28.7979  -20.1274   -6.0670 O   0  0  0  0  0  0  0  0  0  0  0  0
   28.3240  -20.1906   -7.3678 C   0  0  0  0  0  0  0  0  0  0  0  0
   29.0958  -20.6534   -8.4130 C   0  0  0  0  0  0  0  0  0  0  0  0
   28.6224  -20.7166   -9.7120 C   0  0  0  0  0  0  0  0  0  0  0  0
   27.3290  -20.3064  -10.0029 C   0  0  0  0  0  0  0  0  0  0  0  0
   26.7535  -20.3440  -11.3630 C   0  0  0  0  0  0  0  0  0  0  0  0
   25.7176  -21.4393  -11.5082 C   0  0  2  0  0  0  0  0  0  0  0  0
   26.3436  -22.7537  -11.5438 N   0  0  0  0  0  0  0  0  0  0  0  0
   24.8667  -21.2557  -12.6904 C   0  0  0  0  0  0  0  0  0  0  0  0
   25.2154  -21.7820  -13.7834 O   0  0  0  0  0  0  0  0  0  0  0  0
   26.5636  -19.8456   -8.9557 C   0  0  0  0  0  0  0  0  0  0  0  0
   27.0353  -19.7818   -7.6563 C   0  0  0  0  0  0  0  0  0  0  0  0
   23.6517  -20.5138  -12.7011 N   0  0  0  0  0  0  0  0  0  0  0  0
   22.7938  -20.4434  -13.8673 C   0  0  1  0  0  0  0  0  0  0  0  0
   21.3661  -20.3111  -13.4382 C   0  0  0  0  0  0  0  0  0  0  0  0
   20.4085  -21.1446  -14.2239 C   0  0  0  0  0  0  0  0  0  0  0  0
   19.2821  -21.5570  -13.2885 C   0  0  0  0  0  0  0  0  0  0  0  0
   18.2239  -22.3622  -14.0191 C   0  0  0  0  0  0  0  0  0  0  0  0
   17.2086  -22.7783  -13.0846 N   0  0  0  0  0  0  0  0  0  0  0  0
   23.2207  -19.3751  -14.8010 C   0  0  0  0  0  0  0  0  0  0  0  0
   23.7903  -18.3218  -14.4243 O   0  0  0  0  0  0  0  0  0  0  0  0
   22.9845  -19.5276  -16.1955 N   0  0  0  0  0  0  0  0  0  0  0  0
   23.2895  -18.4442  -17.1116 C   0  0  0  0  0  0  0  0  0  0  0  0
   24.4081  -18.7973  -17.9800 C   0  0  0  0  0  0  0  0  0  0  0  0
   25.5078  -19.4496  -17.4553 O   0  0  0  0  0  0  0  0  0  0  0  0
   24.3877  -18.5173  -19.1997 O   0  0  0  0  0  0  0  0  0  0  0  0
  2  3  2  0
  2  1  1  0
  4  3  1  0
  5  4  2  0
  6  5  1  0
  7  6  1  0
  7  9  1  0
  7  8  1  6
  9 10  2  0
 11  5  1  0
 11 12  2  0
 12  2  1  0
 13  9  1  0
 13 14  1  0
 14 15  1  1
 15 16  1  0
 17 16  1  0
 18 19  1  0
 18 17  1  0
 20 21  2  0
 20 14  1  0
 22 20  1  0
 23 24  1  0
 23 22  1  0
 24 25  1  0
 26 24  2  0
M  END
$$$$
