YKG.pdb
     RDKit          3D

 26 26  0  0  1  0  0  0  0  0999 V2000
   23.4457  -13.8112  -19.4597 O   0  0  0  0  0  0  0  0  0  0  0  0
   23.1255  -14.8754  -18.6317 C   0  0  0  0  0  0  0  0  0  0  0  0
   23.2103  -14.7930  -17.2576 C   0  0  0  0  0  0  0  0  0  0  0  0
   22.8906  -15.8559  -16.4307 C   0  0  0  0  0  0  0  0  0  0  0  0
   22.4666  -17.0596  -16.9758 C   0  0  0  0  0  0  0  0  0  0  0  0
   22.1082  -18.2374  -16.1591 C   0  0  0  0  0  0  0  0  0  0  0  0
   23.3083  -19.1184  -15.8808 C   0  0  2  0  0  0  0  0  0  0  0  0
   23.7696  -19.7774  -17.0948 N   0  0  0  0  0  0  0  0  0  0  0  0
   23.0436  -20.1163  -14.8369 C   0  0  0  0  0  0  0  0  0  0  0  0
   22.5195  -21.2177  -15.1617 O   0  0  0  0  0  0  0  0  0  0  0  0
   22.3840  -17.1358  -18.3477 C   0  0  0  0  0  0  0  0  0  0  0  0
   22.7033  -16.0741  -19.1759 C   0  0  0  0  0  0  0  0  0  0  0  0
   23.3384  -19.9350  -13.4560 N   0  0  0  0  0  0  0  0  0  0  0  0
   23.0009  -20.9249  -12.4524 C   0  0  1  0  0  0  0  0  0  0  0  0
   23.8552  -20.7277  -11.2395 C   0  0  0  0  0  0  0  0  0  0  0  0
   25.1801  -21.4130  -11.3030 C   0  0  0  0  0  0  0  0  0  0  0  0
   25.6918  -21.2949  -12.7306 C   0  0  0  0  0  0  0  0  0  0  0  0
   27.0824  -21.8852  -12.8699 C   0  0  0  0  0  0  0  0  0  0  0  0
   27.5445  -21.7084  -14.2235 N   0  0  0  0  0  0  0  0  0  0  0  0
   21.5510  -20.9270  -12.1471 C   0  0  0  0  0  0  0  0  0  0  0  0
   20.8834  -19.8772  -11.9800 O   0  0  0  0  0  0  0  0  0  0  0  0
   20.8607  -22.1657  -12.0329 N   0  0  0  0  0  0  0  0  0  0  0  0
   19.4571  -22.1893  -11.6654 C   0  0  0  0  0  0  0  0  0  0  0  0
   18.6171  -22.4205  -12.8364 C   0  0  0  0  0  0  0  0  0  0  0  0
   17.2906  -22.7727  -12.6734 O   0  0  0  0  0  0  0  0  0  0  0  0
   19.0812  -22.3045  -13.9929 O   0  0  0  0  0  0  0  0  0  0  0  0
  2  3  2  0
  2  1  1  0
  4  3  1  0
  5  4  2  0
  6  5  1  0
  7  6  1  0
  7  9  1  0
  7  8  1  6
  9 10  2  0
 11  5  1  0
 11 12  2  0
 12  2  1  0
 13  9  1  0
 13 14  1  0
 14 15  1  1
 15 16  1  0
 17 16  1  0
 18 19  1  0
 18 17  1  0
 20 21  2  0
 20 14  1  0
 22 20  1  0
 23 24  1  0
 23 22  1  0
 24 25  1  0
 26 24  2  0
M  END
$$$$
