YKG.pdb
     RDKit          3D

 26 26  0  0  1  0  0  0  0  0999 V2000
   16.7478  -15.6536  -16.7148 O   0  0  0  0  0  0  0  0  0  0  0  0
   17.4681  -16.5618  -15.9553 C   0  0  0  0  0  0  0  0  0  0  0  0
   16.8569  -17.5313  -15.1880 C   0  0  0  0  0  0  0  0  0  0  0  0
   17.5764  -18.4384  -14.4295 C   0  0  0  0  0  0  0  0  0  0  0  0
   18.9634  -18.3944  -14.4215 C   0  0  0  0  0  0  0  0  0  0  0  0
   19.7991  -19.3275  -13.6382 C   0  0  0  0  0  0  0  0  0  0  0  0
   20.2053  -20.5399  -14.4500 C   0  0  2  0  0  0  0  0  0  0  0  0
   19.1335  -21.5247  -14.4964 N   0  0  0  0  0  0  0  0  0  0  0  0
   21.4385  -21.1623  -13.9530 C   0  0  0  0  0  0  0  0  0  0  0  0
   21.3639  -22.0086  -13.0195 O   0  0  0  0  0  0  0  0  0  0  0  0
   19.5676  -17.4247  -15.1891 C   0  0  0  0  0  0  0  0  0  0  0  0
   18.8498  -16.5171  -15.9480 C   0  0  0  0  0  0  0  0  0  0  0  0
   22.7414  -20.8798  -14.4526 N   0  0  0  0  0  0  0  0  0  0  0  0
   23.9323  -21.5115  -13.9199 C   0  0  1  0  0  0  0  0  0  0  0  0
   25.0136  -21.5069  -14.9545 C   0  0  0  0  0  0  0  0  0  0  0  0
   26.2648  -22.2076  -14.5390 C   0  0  0  0  0  0  0  0  0  0  0  0
   27.2525  -22.1086  -15.6916 C   0  0  0  0  0  0  0  0  0  0  0  0
   28.4367  -23.0344  -15.4857 C   0  0  0  0  0  0  0  0  0  0  0  0
   29.3811  -22.8499  -16.5586 N   0  0  0  0  0  0  0  0  0  0  0  0
   24.3531  -20.8998  -12.6376 C   0  0  0  0  0  0  0  0  0  0  0  0
   24.3566  -19.6607  -12.4370 O   0  0  0  0  0  0  0  0  0  0  0  0
   24.7776  -21.7362  -11.5681 N   0  0  0  0  0  0  0  0  0  0  0  0
   25.1290  -21.1593  -10.2838 C   0  0  0  0  0  0  0  0  0  0  0  0
   26.5735  -20.9841  -10.1706 C   0  0  0  0  0  0  0  0  0  0  0  0
   27.1245  -20.5642   -8.9746 O   0  0  0  0  0  0  0  0  0  0  0  0
   27.3263  -21.2091  -11.1448 O   0  0  0  0  0  0  0  0  0  0  0  0
  2  3  2  0
  2  1  1  0
  4  3  1  0
  5  4  2  0
  6  5  1  0
  7  6  1  0
  7  9  1  0
  7  8  1  1
  9 10  2  0
 11  5  1  0
 11 12  2  0
 12  2  1  0
 13  9  1  0
 13 14  1  0
 14 15  1  6
 15 16  1  0
 17 16  1  0
 18 19  1  0
 18 17  1  0
 20 21  2  0
 20 14  1  0
 22 20  1  0
 23 24  1  0
 23 22  1  0
 24 25  1  0
 26 24  2  0
M  END
$$$$
