YKG.pdb
     RDKit          3D

 26 26  0  0  1  0  0  0  0  0999 V2000
   24.0079  -14.2749  -21.2398 O   0  0  0  0  0  0  0  0  0  0  0  0
   23.6997  -15.3372  -20.4049 C   0  0  0  0  0  0  0  0  0  0  0  0
   23.8382  -16.6512  -20.8005 C   0  0  0  0  0  0  0  0  0  0  0  0
   23.5303  -17.7121  -19.9665 C   0  0  0  0  0  0  0  0  0  0  0  0
   23.0636  -17.4753  -18.6812 C   0  0  0  0  0  0  0  0  0  0  0  0
   22.7145  -18.5542  -17.7343 C   0  0  0  0  0  0  0  0  0  0  0  0
   23.9196  -19.0285  -16.9490 C   0  0  2  0  0  0  0  0  0  0  0  0
   24.8926  -19.6752  -17.8185 N   0  0  0  0  0  0  0  0  0  0  0  0
   23.5547  -19.9275  -15.8471 C   0  0  0  0  0  0  0  0  0  0  0  0
   23.0702  -21.0613  -16.1169 O   0  0  0  0  0  0  0  0  0  0  0  0
   22.9275  -16.1619  -18.2923 C   0  0  0  0  0  0  0  0  0  0  0  0
   23.2348  -15.1000  -19.1247 C   0  0  0  0  0  0  0  0  0  0  0  0
   23.7078  -19.6134  -14.4669 N   0  0  0  0  0  0  0  0  0  0  0  0
   23.3040  -20.5230  -13.4131 C   0  0  1  0  0  0  0  0  0  0  0  0
   24.4655  -20.7999  -12.5108 C   0  0  0  0  0  0  0  0  0  0  0  0
   24.2067  -20.5099  -11.0693 C   0  0  0  0  0  0  0  0  0  0  0  0
   25.5015  -20.7571  -10.3102 C   0  0  0  0  0  0  0  0  0  0  0  0
   25.3123  -20.5649   -8.8173 C   0  0  0  0  0  0  0  0  0  0  0  0
   26.5810  -20.7153   -8.1503 N   0  0  0  0  0  0  0  0  0  0  0  0
   22.1100  -20.0295  -12.6876 C   0  0  0  0  0  0  0  0  0  0  0  0
   22.1234  -19.0070  -11.9597 O   0  0  0  0  0  0  0  0  0  0  0  0
   20.8783  -20.7314  -12.8061 N   0  0  0  0  0  0  0  0  0  0  0  0
   20.7246  -21.7756  -13.8020 C   0  0  0  0  0  0  0  0  0  0  0  0
   19.9773  -22.9056  -13.2591 C   0  0  0  0  0  0  0  0  0  0  0  0
   18.9587  -22.6850  -12.3514 O   0  0  0  0  0  0  0  0  0  0  0  0
   20.2454  -24.0784  -13.6042 O   0  0  0  0  0  0  0  0  0  0  0  0
  2  3  2  0
  2  1  1  0
  4  3  1  0
  5  4  2  0
  6  5  1  0
  7  6  1  0
  7  9  1  0
  7  8  1  6
  9 10  2  0
 11  5  1  0
 11 12  2  0
 12  2  1  0
 13  9  1  0
 13 14  1  0
 14 15  1  1
 15 16  1  0
 17 16  1  0
 18 19  1  0
 18 17  1  0
 20 21  2  0
 20 14  1  0
 22 20  1  0
 23 24  1  0
 23 22  1  0
 24 25  1  0
 26 24  2  0
M  END
$$$$
