YKG.pdb
     RDKit          3D

 26 26  0  0  1  0  0  0  0  0999 V2000
   20.9052  -20.5166   -8.4417 O   0  0  0  0  0  0  0  0  0  0  0  0
   22.0278  -20.4542   -9.2519 C   0  0  0  0  0  0  0  0  0  0  0  0
   21.9464  -20.4712  -10.6287 C   0  0  0  0  0  0  0  0  0  0  0  0
   23.0676  -20.4088  -11.4378 C   0  0  0  0  0  0  0  0  0  0  0  0
   24.3317  -20.3256  -10.8714 C   0  0  0  0  0  0  0  0  0  0  0  0
   25.5737  -20.2556  -11.6683 C   0  0  0  0  0  0  0  0  0  0  0  0
   25.7809  -21.5027  -12.5024 C   0  0  2  0  0  0  0  0  0  0  0  0
   26.0577  -22.6583  -11.6605 N   0  0  0  0  0  0  0  0  0  0  0  0
   26.8454  -21.3416  -13.5005 C   0  0  0  0  0  0  0  0  0  0  0  0
   28.0389  -21.2193  -13.1083 O   0  0  0  0  0  0  0  0  0  0  0  0
   24.4066  -20.3090   -9.4970 C   0  0  0  0  0  0  0  0  0  0  0  0
   23.2866  -20.3713   -8.6865 C   0  0  0  0  0  0  0  0  0  0  0  0
   26.6323  -21.3117  -14.9078 N   0  0  0  0  0  0  0  0  0  0  0  0
   27.7221  -21.2011  -15.8571 C   0  0  1  0  0  0  0  0  0  0  0  0
   27.8088  -22.4507  -16.6761 C   0  0  0  0  0  0  0  0  0  0  0  0
   29.2027  -22.8940  -16.9753 C   0  0  0  0  0  0  0  0  0  0  0  0
   29.1135  -24.1326  -17.8538 C   0  0  0  0  0  0  0  0  0  0  0  0
   30.4910  -24.6718  -18.1905 C   0  0  0  0  0  0  0  0  0  0  0  0
   31.2147  -23.6909  -18.9593 N   0  0  0  0  0  0  0  0  0  0  0  0
   27.6127  -19.9739  -16.6802 C   0  0  0  0  0  0  0  0  0  0  0  0
   26.5441  -19.6078  -17.2275 O   0  0  0  0  0  0  0  0  0  0  0  0
   28.7600  -19.1554  -16.8739 N   0  0  0  0  0  0  0  0  0  0  0  0
   28.6684  -17.9438  -17.6672 C   0  0  0  0  0  0  0  0  0  0  0  0
   28.9603  -18.2181  -19.0706 C   0  0  0  0  0  0  0  0  0  0  0  0
   29.8988  -17.4560  -19.7403 O   0  0  0  0  0  0  0  0  0  0  0  0
   28.3710  -19.1379  -19.6815 O   0  0  0  0  0  0  0  0  0  0  0  0
  2  3  2  0
  2  1  1  0
  4  3  1  0
  5  4  2  0
  6  5  1  0
  7  6  1  0
  7  9  1  0
  7  8  1  1
  9 10  2  0
 11  5  1  0
 11 12  2  0
 12  2  1  0
 13  9  1  0
 13 14  1  0
 14 15  1  6
 15 16  1  0
 17 16  1  0
 18 19  1  0
 18 17  1  0
 20 21  2  0
 20 14  1  0
 22 20  1  0
 23 24  1  0
 23 22  1  0
 24 25  1  0
 26 24  2  0
M  END
$$$$
