YKG.pdb
     RDKit          3D

 26 26  0  0  1  0  0  0  0  0999 V2000
   28.3956  -19.8908   -6.0916 O   0  0  0  0  0  0  0  0  0  0  0  0
   27.9664  -20.0041   -7.4044 C   0  0  0  0  0  0  0  0  0  0  0  0
   28.7908  -20.4544   -8.4143 C   0  0  0  0  0  0  0  0  0  0  0  0
   28.3620  -20.5676   -9.7255 C   0  0  0  0  0  0  0  0  0  0  0  0
   27.0615  -20.2228  -10.0654 C   0  0  0  0  0  0  0  0  0  0  0  0
   26.5316  -20.3164  -11.4413 C   0  0  0  0  0  0  0  0  0  0  0  0
   25.4819  -21.4005  -11.5700 C   0  0  2  0  0  0  0  0  0  0  0  0
   26.0963  -22.7141  -11.7032 N   0  0  0  0  0  0  0  0  0  0  0  0
   24.5601  -21.1612  -12.6874 C   0  0  0  0  0  0  0  0  0  0  0  0
   24.9204  -21.4741  -13.8559 O   0  0  0  0  0  0  0  0  0  0  0  0
   26.2435  -19.7741   -9.0532 C   0  0  0  0  0  0  0  0  0  0  0  0
   26.6706  -19.6604   -7.7418 C   0  0  0  0  0  0  0  0  0  0  0  0
   23.2626  -20.5910  -12.5532 N   0  0  0  0  0  0  0  0  0  0  0  0
   22.3552  -20.4507  -13.6748 C   0  0  1  0  0  0  0  0  0  0  0  0
   20.9407  -20.5612  -13.1984 C   0  0  0  0  0  0  0  0  0  0  0  0
   20.3673  -21.9367  -13.2892 C   0  0  0  0  0  0  0  0  0  0  0  0
   19.8449  -22.3098  -11.9101 C   0  0  0  0  0  0  0  0  0  0  0  0
   19.2043  -23.6849  -11.9152 C   0  0  0  0  0  0  0  0  0  0  0  0
   18.8434  -24.0503  -10.5686 N   0  0  0  0  0  0  0  0  0  0  0  0
   22.6144  -19.2090  -14.4406 C   0  0  0  0  0  0  0  0  0  0  0  0
   22.6782  -18.0745  -13.9072 O   0  0  0  0  0  0  0  0  0  0  0  0
   22.8033  -19.2807  -15.8488 N   0  0  0  0  0  0  0  0  0  0  0  0
   23.1477  -18.0891  -16.6020 C   0  0  0  0  0  0  0  0  0  0  0  0
   23.3017  -18.3972  -18.0202 C   0  0  0  0  0  0  0  0  0  0  0  0
   22.6592  -17.6218  -18.9669 O   0  0  0  0  0  0  0  0  0  0  0  0
   24.0104  -19.3580  -18.3957 O   0  0  0  0  0  0  0  0  0  0  0  0
  2  3  2  0
  2  1  1  0
  4  3  1  0
  5  4  2  0
  6  5  1  0
  7  6  1  0
  7  9  1  0
  7  8  1  6
  9 10  2  0
 11  5  1  0
 11 12  2  0
 12  2  1  0
 13  9  1  0
 13 14  1  0
 14 15  1  1
 15 16  1  0
 17 16  1  0
 18 19  1  0
 18 17  1  0
 20 21  2  0
 20 14  1  0
 22 20  1  0
 23 24  1  0
 23 22  1  0
 24 25  1  0
 26 24  2  0
M  END
$$$$
