YKG.pdb
     RDKit          3D

 26 26  0  0  1  0  0  0  0  0999 V2000
   21.1500  -19.1100  -14.2186 O   0  0  0  0  0  0  0  0  0  0  0  0
   21.3030  -17.7573  -14.4781 C   0  0  0  0  0  0  0  0  0  0  0  0
   20.4044  -16.8130  -14.0274 C   0  0  0  0  0  0  0  0  0  0  0  0
   20.5572  -15.4620  -14.2866 C   0  0  0  0  0  0  0  0  0  0  0  0
   21.6438  -15.0126  -15.0238 C   0  0  0  0  0  0  0  0  0  0  0  0
   21.8745  -13.5883  -15.3408 C   0  0  0  0  0  0  0  0  0  0  0  0
   20.8727  -13.0643  -16.3487 C   0  0  2  0  0  0  0  0  0  0  0  0
   21.1007  -13.6423  -17.6658 N   0  0  0  0  0  0  0  0  0  0  0  0
   20.8762  -11.5987  -16.4355 C   0  0  0  0  0  0  0  0  0  0  0  0
   21.7452  -11.0301  -17.1530 O   0  0  0  0  0  0  0  0  0  0  0  0
   22.5371  -15.9597  -15.4708 C   0  0  0  0  0  0  0  0  0  0  0  0
   22.3858  -17.3108  -15.2125 C   0  0  0  0  0  0  0  0  0  0  0  0
   19.9555  -10.7495  -15.7588 N   0  0  0  0  0  0  0  0  0  0  0  0
   19.9521   -9.3106  -15.9334 C   0  0  1  0  0  0  0  0  0  0  0  0
   18.5427   -8.8143  -16.0179 C   0  0  0  0  0  0  0  0  0  0  0  0
   17.8470   -9.1540  -17.2945 C   0  0  0  0  0  0  0  0  0  0  0  0
   16.6899  -10.0814  -16.9557 C   0  0  0  0  0  0  0  0  0  0  0  0
   15.9267  -10.4907  -18.2013 C   0  0  0  0  0  0  0  0  0  0  0  0
   14.8316  -11.3514  -17.8309 N   0  0  0  0  0  0  0  0  0  0  0  0
   20.7464   -8.6271  -14.8858 C   0  0  0  0  0  0  0  0  0  0  0  0
   20.6970   -8.9427  -13.6719 O   0  0  0  0  0  0  0  0  0  0  0  0
   21.6134   -7.5592  -15.2488 N   0  0  0  0  0  0  0  0  0  0  0  0
   22.4714   -6.9435  -14.2535 C   0  0  0  0  0  0  0  0  0  0  0  0
   21.8658   -5.7239  -13.7283 C   0  0  0  0  0  0  0  0  0  0  0  0
   22.6428   -4.5972  -13.5356 O   0  0  0  0  0  0  0  0  0  0  0  0
   20.6469   -5.6812  -13.4477 O   0  0  0  0  0  0  0  0  0  0  0  0
  2  3  2  0
  2  1  1  0
  4  3  1  0
  5  4  2  0
  6  5  1  0
  7  6  1  0
  7  9  1  0
  7  8  1  6
  9 10  2  0
 11  5  1  0
 11 12  2  0
 12  2  1  0
 13  9  1  0
 13 14  1  0
 14 15  1  1
 15 16  1  0
 17 16  1  0
 18 19  1  0
 18 17  1  0
 20 21  2  0
 20 14  1  0
 22 20  1  0
 23 24  1  0
 23 22  1  0
 24 25  1  0
 26 24  2  0
M  END
$$$$
