YKG.pdb
     RDKit          3D

 26 26  0  0  1  0  0  0  0  0999 V2000
   24.7675  -17.8546  -17.0361 O   0  0  0  0  0  0  0  0  0  0  0  0
   23.7548  -18.5233  -16.3668 C   0  0  0  0  0  0  0  0  0  0  0  0
   23.7510  -18.6752  -14.9959 C   0  0  0  0  0  0  0  0  0  0  0  0
   22.7396  -19.3430  -14.3275 C   0  0  0  0  0  0  0  0  0  0  0  0
   21.6788  -19.8895  -15.0361 C   0  0  0  0  0  0  0  0  0  0  0  0
   20.5638  -20.6154  -14.3939 C   0  0  0  0  0  0  0  0  0  0  0  0
   20.9957  -21.9722  -13.8778 C   0  0  2  0  0  0  0  0  0  0  0  0
   21.4529  -22.8270  -14.9646 N   0  0  0  0  0  0  0  0  0  0  0  0
   19.9369  -22.6482  -13.1181 C   0  0  0  0  0  0  0  0  0  0  0  0
   19.0380  -23.2743  -13.7451 O   0  0  0  0  0  0  0  0  0  0  0  0
   21.6882  -19.7346  -16.4038 C   0  0  0  0  0  0  0  0  0  0  0  0
   22.6987  -19.0673  -17.0737 C   0  0  0  0  0  0  0  0  0  0  0  0
   19.8423  -22.6531  -11.6976 N   0  0  0  0  0  0  0  0  0  0  0  0
   18.7699  -23.3262  -10.9920 C   0  0  1  0  0  0  0  0  0  0  0  0
   19.1148  -23.4443   -9.5405 C   0  0  0  0  0  0  0  0  0  0  0  0
   18.1034  -24.1814   -8.7264 C   0  0  0  0  0  0  0  0  0  0  0  0
   18.8437  -24.8849   -7.5991 C   0  0  0  0  0  0  0  0  0  0  0  0
   17.8792  -25.5458   -6.6323 C   0  0  0  0  0  0  0  0  0  0  0  0
   18.6190  -26.1319   -5.5432 N   0  0  0  0  0  0  0  0  0  0  0  0
   17.4612  -22.6721  -11.2263 C   0  0  0  0  0  0  0  0  0  0  0  0
   17.2816  -21.4353  -11.1097 O   0  0  0  0  0  0  0  0  0  0  0  0
   16.3399  -23.4628  -11.6023 N   0  0  0  0  0  0  0  0  0  0  0  0
   15.0231  -22.8618  -11.7059 C   0  0  0  0  0  0  0  0  0  0  0  0
   14.8161  -22.2892  -13.0324 C   0  0  0  0  0  0  0  0  0  0  0  0
   13.7467  -22.7052  -13.8026 O   0  0  0  0  0  0  0  0  0  0  0  0
   15.5961  -21.4221  -13.4866 O   0  0  0  0  0  0  0  0  0  0  0  0
  2  3  2  0
  2  1  1  0
  4  3  1  0
  5  4  2  0
  6  5  1  0
  7  6  1  0
  7  9  1  0
  7  8  1  6
  9 10  2  0
 11  5  1  0
 11 12  2  0
 12  2  1  0
 13  9  1  0
 13 14  1  0
 14 15  1  1
 15 16  1  0
 17 16  1  0
 18 19  1  0
 18 17  1  0
 20 21  2  0
 20 14  1  0
 22 20  1  0
 23 24  1  0
 23 22  1  0
 24 25  1  0
 26 24  2  0
M  END
$$$$
