YKG.pdb
     RDKit          3D

 26 26  0  0  1  0  0  0  0  0999 V2000
   25.4336  -31.3020   -8.7600 O   0  0  0  0  0  0  0  0  0  0  0  0
   26.1426  -32.2362   -8.0216 C   0  0  0  0  0  0  0  0  0  0  0  0
   26.9220  -33.2079   -8.6139 C   0  0  0  0  0  0  0  0  0  0  0  0
   27.6300  -34.1409   -7.8763 C   0  0  0  0  0  0  0  0  0  0  0  0
   27.5724  -34.1221   -6.4899 C   0  0  0  0  0  0  0  0  0  0  0  0
   28.2992  -35.0837   -5.6356 C   0  0  0  0  0  0  0  0  0  0  0  0
   29.7953  -34.8506   -5.6690 C   0  0  2  0  0  0  0  0  0  0  0  0
   30.3400  -35.1199   -6.9924 N   0  0  0  0  0  0  0  0  0  0  0  0
   30.5106  -35.6423   -4.6605 C   0  0  0  0  0  0  0  0  0  0  0  0
   30.7179  -36.8682   -4.8787 O   0  0  0  0  0  0  0  0  0  0  0  0
   26.7930  -33.1501   -5.9047 C   0  0  0  0  0  0  0  0  0  0  0  0
   26.0844  -32.2165   -6.6405 C   0  0  0  0  0  0  0  0  0  0  0  0
   30.9997  -35.1242   -3.4280 N   0  0  0  0  0  0  0  0  0  0  0  0
   31.7022  -35.9466   -2.4630 C   0  0  1  0  0  0  0  0  0  0  0  0
   33.0721  -35.3919   -2.2273 C   0  0  0  0  0  0  0  0  0  0  0  0
   33.9706  -35.4465   -3.4184 C   0  0  0  0  0  0  0  0  0  0  0  0
   34.3783  -36.8979   -3.6215 C   0  0  0  0  0  0  0  0  0  0  0  0
   35.3336  -37.0451   -4.7908 C   0  0  0  0  0  0  0  0  0  0  0  0
   35.6076  -38.4426   -5.0125 N   0  0  0  0  0  0  0  0  0  0  0  0
   30.9226  -36.1179   -1.2146 C   0  0  0  0  0  0  0  0  0  0  0  0
   31.3364  -36.7816   -0.2329 O   0  0  0  0  0  0  0  0  0  0  0  0
   29.6413  -35.5106   -1.0997 N   0  0  0  0  0  0  0  0  0  0  0  0
   28.8539  -35.6874    0.1063 C   0  0  0  0  0  0  0  0  0  0  0  0
   27.7011  -34.7923    0.1102 C   0  0  0  0  0  0  0  0  0  0  0  0
   27.4835  -33.9454   -0.9601 O   0  0  0  0  0  0  0  0  0  0  0  0
   26.9013  -34.7790    1.0728 O   0  0  0  0  0  0  0  0  0  0  0  0
  2  3  2  0
  2  1  1  0
  4  3  1  0
  5  4  2  0
  6  5  1  0
  7  6  1  0
  7  9  1  0
  7  8  1  6
  9 10  2  0
 11  5  1  0
 11 12  2  0
 12  2  1  0
 13  9  1  0
 13 14  1  0
 14 15  1  1
 15 16  1  0
 17 16  1  0
 18 19  1  0
 18 17  1  0
 20 21  2  0
 20 14  1  0
 22 20  1  0
 23 24  1  0
 23 22  1  0
 24 25  1  0
 26 24  2  0
M  END
$$$$
