YKG.pdb
     RDKit          3D

 26 26  0  0  1  0  0  0  0  0999 V2000
   17.8991  -25.0951   -6.0088 O   0  0  0  0  0  0  0  0  0  0  0  0
   18.0546  -24.5201   -7.2600 C   0  0  0  0  0  0  0  0  0  0  0  0
   16.9866  -24.2750   -8.0977 C   0  0  0  0  0  0  0  0  0  0  0  0
   17.1420  -23.7007   -9.3474 C   0  0  0  0  0  0  0  0  0  0  0  0
   18.4057  -23.3485   -9.8000 C   0  0  0  0  0  0  0  0  0  0  0  0
   18.6509  -22.7322  -11.1201 C   0  0  0  0  0  0  0  0  0  0  0  0
   19.1018  -21.2917  -10.9961 C   0  0  2  0  0  0  0  0  0  0  0  0
   18.1028  -20.4854  -10.3085 N   0  0  0  0  0  0  0  0  0  0  0  0
   19.4259  -20.6898  -12.2954 C   0  0  0  0  0  0  0  0  0  0  0  0
   18.6476  -19.8219  -12.7792 O   0  0  0  0  0  0  0  0  0  0  0  0
   19.4675  -23.5955   -8.9596 C   0  0  0  0  0  0  0  0  0  0  0  0
   19.3139  -24.1697   -7.7099 C   0  0  0  0  0  0  0  0  0  0  0  0
   20.5751  -21.0157  -13.0699 N   0  0  0  0  0  0  0  0  0  0  0  0
   20.9037  -20.3262  -14.3018 C   0  0  1  0  0  0  0  0  0  0  0  0
   22.3857  -20.1422  -14.3991 C   0  0  0  0  0  0  0  0  0  0  0  0
   22.8283  -19.3268  -15.5689 C   0  0  0  0  0  0  0  0  0  0  0  0
   24.3493  -19.3079  -15.5680 C   0  0  0  0  0  0  0  0  0  0  0  0
   24.8938  -18.5914  -16.7893 C   0  0  0  0  0  0  0  0  0  0  0  0
   26.3070  -18.3637  -16.6208 N   0  0  0  0  0  0  0  0  0  0  0  0
   20.3242  -21.0055  -15.4842 C   0  0  0  0  0  0  0  0  0  0  0  0
   20.3739  -20.5268  -16.6435 O   0  0  0  0  0  0  0  0  0  0  0  0
   19.6754  -22.2613  -15.3230 N   0  0  0  0  0  0  0  0  0  0  0  0
   18.2888  -22.4240  -15.7188 C   0  0  0  0  0  0  0  0  0  0  0  0
   18.1865  -22.7205  -17.1442 C   0  0  0  0  0  0  0  0  0  0  0  0
   16.9473  -22.9444  -17.7136 O   0  0  0  0  0  0  0  0  0  0  0  0
   19.2090  -22.7757  -17.8638 O   0  0  0  0  0  0  0  0  0  0  0  0
  2  3  2  0
  2  1  1  0
  4  3  1  0
  5  4  2  0
  6  5  1  0
  7  6  1  0
  7  9  1  0
  7  8  1  6
  9 10  2  0
 11  5  1  0
 11 12  2  0
 12  2  1  0
 13  9  1  0
 13 14  1  0
 14 15  1  6
 15 16  1  0
 17 16  1  0
 18 19  1  0
 18 17  1  0
 20 21  2  0
 20 14  1  0
 22 20  1  0
 23 24  1  0
 23 22  1  0
 24 25  1  0
 26 24  2  0
M  END
$$$$
