YKG.pdb
     RDKit          3D

 26 26  0  0  1  0  0  0  0  0999 V2000
   29.4650  -19.9193   -5.9544 O   0  0  0  0  0  0  0  0  0  0  0  0
   28.5469  -20.2252   -6.9464 C   0  0  0  0  0  0  0  0  0  0  0  0
   28.8837  -20.9640   -8.0614 C   0  0  0  0  0  0  0  0  0  0  0  0
   27.9667  -21.2694   -9.0522 C   0  0  0  0  0  0  0  0  0  0  0  0
   26.6547  -20.8298   -8.9466 C   0  0  0  0  0  0  0  0  0  0  0  0
   25.6203  -21.1154   -9.9620 C   0  0  0  0  0  0  0  0  0  0  0  0
   25.9507  -20.4838  -11.2984 C   0  0  2  0  0  0  0  0  0  0  0  0
   26.5378  -19.1625  -11.1246 N   0  0  0  0  0  0  0  0  0  0  0  0
   24.7841  -20.4026  -12.1860 C   0  0  0  0  0  0  0  0  0  0  0  0
   23.8519  -19.6011  -11.9000 O   0  0  0  0  0  0  0  0  0  0  0  0
   26.3247  -20.0930   -7.8318 C   0  0  0  0  0  0  0  0  0  0  0  0
   27.2402  -19.7867   -6.8402 C   0  0  0  0  0  0  0  0  0  0  0  0
   24.6180  -21.1743  -13.3708 N   0  0  0  0  0  0  0  0  0  0  0  0
   23.4607  -21.0368  -14.2325 C   0  0  1  0  0  0  0  0  0  0  0  0
   23.8862  -21.1027  -15.6658 C   0  0  0  0  0  0  0  0  0  0  0  0
   22.7751  -20.9180  -16.6459 C   0  0  0  0  0  0  0  0  0  0  0  0
   23.3666  -21.0436  -18.0417 C   0  0  0  0  0  0  0  0  0  0  0  0
   22.3061  -20.8566  -19.1102 C   0  0  0  0  0  0  0  0  0  0  0  0
   22.8762  -21.1336  -20.4046 N   0  0  0  0  0  0  0  0  0  0  0  0
   22.4034  -22.0184  -13.8951 C   0  0  0  0  0  0  0  0  0  0  0  0
   22.6474  -23.1506  -13.4111 O   0  0  0  0  0  0  0  0  0  0  0  0
   21.0392  -21.6847  -14.1215 N   0  0  0  0  0  0  0  0  0  0  0  0
   20.0002  -22.6774  -13.9193 C   0  0  0  0  0  0  0  0  0  0  0  0
   19.1430  -22.3111  -12.7963 C   0  0  0  0  0  0  0  0  0  0  0  0
   19.2837  -22.9580  -11.5831 O   0  0  0  0  0  0  0  0  0  0  0  0
   18.2770  -21.4153  -12.9146 O   0  0  0  0  0  0  0  0  0  0  0  0
  2  3  2  0
  2  1  1  0
  4  3  1  0
  5  4  2  0
  6  5  1  0
  7  6  1  0
  7  9  1  0
  7  8  1  1
  9 10  2  0
 11  5  1  0
 11 12  2  0
 12  2  1  0
 13  9  1  0
 13 14  1  0
 14 15  1  6
 15 16  1  0
 17 16  1  0
 18 19  1  0
 18 17  1  0
 20 21  2  0
 20 14  1  0
 22 20  1  0
 23 24  1  0
 23 22  1  0
 24 25  1  0
 26 24  2  0
M  END
$$$$
