YKG.pdb
     RDKit          3D

 26 26  0  0  1  0  0  0  0  0999 V2000
   11.6428  -12.7444  -16.1646 O   0  0  0  0  0  0  0  0  0  0  0  0
   12.9180  -12.2293  -15.9941 C   0  0  0  0  0  0  0  0  0  0  0  0
   13.6605  -12.4586  -14.8545 C   0  0  0  0  0  0  0  0  0  0  0  0
   14.9340  -11.9441  -14.6842 C   0  0  0  0  0  0  0  0  0  0  0  0
   15.5099  -11.1663  -15.6788 C   0  0  0  0  0  0  0  0  0  0  0  0
   16.8629  -10.5830  -15.5699 C   0  0  0  0  0  0  0  0  0  0  0  0
   17.9048  -11.4401  -16.2582 C   0  0  2  0  0  0  0  0  0  0  0  0
   17.9685  -12.7684  -15.6645 N   0  0  0  0  0  0  0  0  0  0  0  0
   19.2363  -10.8218  -16.2504 C   0  0  0  0  0  0  0  0  0  0  0  0
   19.9700  -10.9610  -15.2328 O   0  0  0  0  0  0  0  0  0  0  0  0
   14.7641  -10.9409  -16.8136 C   0  0  0  0  0  0  0  0  0  0  0  0
   13.4907  -11.4546  -16.9855 C   0  0  0  0  0  0  0  0  0  0  0  0
   19.7771  -10.0603  -17.3249 N   0  0  0  0  0  0  0  0  0  0  0  0
   21.1146   -9.5029  -17.2869 C   0  0  1  0  0  0  0  0  0  0  0  0
   21.7763   -9.6837  -18.6171 C   0  0  0  0  0  0  0  0  0  0  0  0
   21.8556  -11.1021  -19.0764 C   0  0  0  0  0  0  0  0  0  0  0  0
   23.0305  -11.7524  -18.3620 C   0  0  0  0  0  0  0  0  0  0  0  0
   23.2236  -13.1888  -18.8105 C   0  0  0  0  0  0  0  0  0  0  0  0
   24.3288  -13.7707  -18.0915 N   0  0  0  0  0  0  0  0  0  0  0  0
   21.1111   -8.0944  -16.8270 C   0  0  0  0  0  0  0  0  0  0  0  0
   20.7934   -7.1317  -17.5671 O   0  0  0  0  0  0  0  0  0  0  0  0
   21.4817   -7.7940  -15.4867 N   0  0  0  0  0  0  0  0  0  0  0  0
   21.5601   -6.4151  -15.0414 C   0  0  0  0  0  0  0  0  0  0  0  0
   21.8213   -6.3462  -13.6071 C   0  0  0  0  0  0  0  0  0  0  0  0
   21.8018   -7.5007  -12.8476 O   0  0  0  0  0  0  0  0  0  0  0  0
   22.0643   -5.2520  -13.0502 O   0  0  0  0  0  0  0  0  0  0  0  0
  2  3  2  0
  2  1  1  0
  4  3  1  0
  5  4  2  0
  6  5  1  0
  7  6  1  0
  7  9  1  0
  7  8  1  1
  9 10  2  0
 11  5  1  0
 11 12  2  0
 12  2  1  0
 13  9  1  0
 13 14  1  0
 14 15  1  6
 15 16  1  0
 17 16  1  0
 18 19  1  0
 18 17  1  0
 20 21  2  0
 20 14  1  0
 22 20  1  0
 23 24  1  0
 23 22  1  0
 24 25  1  0
 26 24  2  0
M  END
$$$$
