NNN.pdb
     RDKit          3D

 25 24  0  0  1  0  0  0  0  0999 V2000
    5.9955  -12.6712   19.7121 N   0  0  0  0  0  0  0  0  0  0  0  0
    6.9655  -13.5857   19.2405 C   0  0  0  0  0  0  0  0  0  0  0  0
    6.6088  -14.7903   19.0749 O   0  0  0  0  0  0  0  0  0  0  0  0
    8.3576  -13.2107   18.9349 C   0  0  0  0  0  0  0  0  0  0  0  0
    9.2312  -14.4175   19.2727 C   0  0  2  0  0  0  0  0  0  0  0  0
    8.4933  -15.5811   18.8699 N   0  0  0  0  0  0  0  0  0  0  0  0
    9.4946  -14.4139   20.7477 C   0  0  0  0  0  0  0  0  0  0  0  0
    8.8587  -13.6714   21.5294 O   0  0  0  0  0  0  0  0  0  0  0  0
    6.9424  -15.1088   22.9661 N   0  0  0  0  0  0  0  0  0  0  0  0
    8.2130  -15.0546   23.6534 C   0  0  0  0  0  0  0  0  0  0  0  0
    8.2867  -14.2199   24.5528 O   0  0  0  0  0  0  0  0  0  0  0  0
    9.2622  -15.9485   23.2508 C   0  0  0  0  0  0  0  0  0  0  0  0
   10.5816  -15.4110   22.7880 C   0  0  2  0  0  0  0  0  0  0  0  0
   10.4813  -15.2605   21.3039 N   0  0  0  0  0  0  0  0  0  0  0  0
   11.7521  -16.2421   23.0573 C   0  0  0  0  0  0  0  0  0  0  0  0
   11.7687  -17.4669   22.6361 O   0  0  0  0  0  0  0  0  0  0  0  0
   17.3998  -16.6203   24.8096 N   0  0  0  0  0  0  0  0  0  0  0  0
   16.6111  -16.5424   23.5905 C   0  0  0  0  0  0  0  0  0  0  0  0
   17.1261  -17.1453   22.6255 O   0  0  0  0  0  0  0  0  0  0  0  0
   15.3351  -15.8007   23.5811 C   0  0  0  0  0  0  0  0  0  0  0  0
   14.1145  -16.6298   23.7114 C   0  0  2  0  0  0  0  0  0  0  0  0
   12.8967  -15.8140   23.7464 N   0  0  0  0  0  0  0  0  0  0  0  0
   14.0881  -17.4663   24.9106 C   0  0  0  0  0  0  0  0  0  0  0  0
   14.8532  -18.6372   25.0412 O   0  0  0  0  0  0  0  0  0  0  0  0
   13.3802  -17.1834   25.8887 O   0  0  0  0  0  0  0  0  0  0  0  0
  1  2  1  0
  2  3  2  0
  4  2  1  0
  5  6  1  1
  5  4  1  0
  7  5  1  0
  8  7  2  0
  9 10  1  0
 10 12  1  0
 11 10  2  0
 13 12  1  6
 13 15  1  0
 13 14  1  0
 14  7  1  0
 15 16  2  0
 17 18  1  0
 18 19  2  0
 21 20  1  1
 20 18  1  0
 21 23  1  0
 22 15  1  0
 22 21  1  0
 23 25  2  0
 23 24  1  0
M  END
$$$$
