NNN.pdb
     RDKit          3D

 25 24  0  0  1  0  0  0  0  0999 V2000
   11.2378  -17.4713   18.9604 N   0  0  0  0  0  0  0  0  0  0  0  0
   10.4201  -16.3278   19.1123 C   0  0  0  0  0  0  0  0  0  0  0  0
    9.7447  -15.9485   18.1094 O   0  0  0  0  0  0  0  0  0  0  0  0
   10.3154  -15.5623   20.3674 C   0  0  0  0  0  0  0  0  0  0  0  0
    9.3610  -16.3286   21.2814 C   0  0  2  0  0  0  0  0  0  0  0  0
    8.1058  -16.4050   20.5890 N   0  0  0  0  0  0  0  0  0  0  0  0
    9.2350  -15.5774   22.5717 C   0  0  0  0  0  0  0  0  0  0  0  0
   10.2392  -15.1794   23.2040 O   0  0  0  0  0  0  0  0  0  0  0  0
    7.2155  -12.3183   26.3977 N   0  0  0  0  0  0  0  0  0  0  0  0
    6.2615  -13.1528   25.7023 C   0  0  0  0  0  0  0  0  0  0  0  0
    5.1488  -13.2197   26.2204 O   0  0  0  0  0  0  0  0  0  0  0  0
    6.6675  -13.8209   24.4978 C   0  0  0  0  0  0  0  0  0  0  0  0
    7.8518  -14.7383   24.5008 C   0  0  2  0  0  0  0  0  0  0  0  0
    7.9614  -15.2938   23.1171 N   0  0  0  0  0  0  0  0  0  0  0  0
    7.7907  -15.8747   25.4163 C   0  0  0  0  0  0  0  0  0  0  0  0
    6.6349  -16.3275   25.7864 O   0  0  0  0  0  0  0  0  0  0  0  0
    7.4341  -20.5026   27.8573 N   0  0  0  0  0  0  0  0  0  0  0  0
    8.6614  -20.1073   27.1849 C   0  0  0  0  0  0  0  0  0  0  0  0
    9.6402  -20.8276   27.4725 O   0  0  0  0  0  0  0  0  0  0  0  0
    8.6623  -18.9523   26.2660 C   0  0  0  0  0  0  0  0  0  0  0  0
    8.7203  -17.6216   26.9140 C   0  0  2  0  0  0  0  0  0  0  0  0
    8.9081  -16.5429   25.9389 N   0  0  0  0  0  0  0  0  0  0  0  0
    9.7944  -17.4842   27.8968 C   0  0  0  0  0  0  0  0  0  0  0  0
    9.7818  -18.1422   29.1379 O   0  0  0  0  0  0  0  0  0  0  0  0
   10.7863  -16.7708   27.6847 O   0  0  0  0  0  0  0  0  0  0  0  0
  1  2  1  0
  2  3  2  0
  4  2  1  0
  5  6  1  6
  5  4  1  0
  7  5  1  0
  8  7  2  0
  9 10  1  0
 10 12  1  0
 11 10  2  0
 13 12  1  6
 13 15  1  0
 13 14  1  0
 14  7  1  0
 15 16  2  0
 17 18  1  0
 18 19  2  0
 21 20  1  6
 20 18  1  0
 21 23  1  0
 22 15  1  0
 22 21  1  0
 23 25  2  0
 23 24  1  0
M  END
$$$$
