NNN.pdb
     RDKit          3D

 25 24  0  0  1  0  0  0  0  0999 V2000
    8.5193  -14.5111   15.4350 N   0  0  0  0  0  0  0  0  0  0  0  0
    8.3156  -15.2478   16.6246 C   0  0  0  0  0  0  0  0  0  0  0  0
    7.5900  -16.2846   16.5591 O   0  0  0  0  0  0  0  0  0  0  0  0
    8.8999  -14.8731   17.9247 C   0  0  0  0  0  0  0  0  0  0  0  0
    7.8328  -14.0892   18.6865 C   0  0  2  0  0  0  0  0  0  0  0  0
    7.7840  -12.7831   18.0927 N   0  0  0  0  0  0  0  0  0  0  0  0
    8.2313  -14.0252   20.1294 C   0  0  0  0  0  0  0  0  0  0  0  0
    8.9801  -13.1229   20.5675 O   0  0  0  0  0  0  0  0  0  0  0  0
    6.7622  -16.5603   25.3515 N   0  0  0  0  0  0  0  0  0  0  0  0
    6.7075  -15.3002   24.6452 C   0  0  0  0  0  0  0  0  0  0  0  0
    6.6016  -14.3044   25.3581 O   0  0  0  0  0  0  0  0  0  0  0  0
    6.7782  -15.3011   23.2110 C   0  0  0  0  0  0  0  0  0  0  0  0
    8.0084  -14.8101   22.5112 C   0  0  2  0  0  0  0  0  0  0  0  0
    7.7660  -14.9949   21.0476 N   0  0  0  0  0  0  0  0  0  0  0  0
    9.2559  -15.4994   22.8304 C   0  0  0  0  0  0  0  0  0  0  0  0
    9.7226  -15.4363   24.0371 O   0  0  0  0  0  0  0  0  0  0  0  0
   14.5333  -17.2116   22.1440 N   0  0  0  0  0  0  0  0  0  0  0  0
   13.6413  -16.4242   22.9799 C   0  0  0  0  0  0  0  0  0  0  0  0
   14.0642  -16.2622   24.1437 O   0  0  0  0  0  0  0  0  0  0  0  0
   12.3759  -15.9039   22.4262 C   0  0  0  0  0  0  0  0  0  0  0  0
   11.2630  -16.8787   22.3532 C   0  0  2  0  0  0  0  0  0  0  0  0
   10.0108  -16.2522   21.9185 N   0  0  0  0  0  0  0  0  0  0  0  0
   10.9738  -17.5483   23.6207 C   0  0  0  0  0  0  0  0  0  0  0  0
   11.8286  -18.5070   24.1897 O   0  0  0  0  0  0  0  0  0  0  0  0
    9.9459  -17.3026   24.2693 O   0  0  0  0  0  0  0  0  0  0  0  0
  1  2  1  0
  2  3  2  0
  4  2  1  0
  5  6  1  6
  5  4  1  0
  7  5  1  0
  8  7  2  0
  9 10  1  0
 10 12  1  0
 11 10  2  0
 13 12  1  1
 13 15  1  0
 13 14  1  0
 14  7  1  0
 15 16  2  0
 17 18  1  0
 18 19  2  0
 21 20  1  1
 20 18  1  0
 21 23  1  0
 22 15  1  0
 22 21  1  0
 23 25  2  0
 23 24  1  0
M  END
$$$$
