NNN.pdb
     RDKit          3D

 25 24  0  0  1  0  0  0  0  0999 V2000
   11.7602  -19.0102   18.4227 N   0  0  0  0  0  0  0  0  0  0  0  0
   11.0472  -17.9338   17.8460 C   0  0  0  0  0  0  0  0  0  0  0  0
   11.1264  -17.7794   16.5907 O   0  0  0  0  0  0  0  0  0  0  0  0
   10.2244  -16.9914   18.6251 C   0  0  0  0  0  0  0  0  0  0  0  0
   10.3633  -17.3843   20.0948 C   0  0  2  0  0  0  0  0  0  0  0  0
    9.3753  -18.3960   20.3419 N   0  0  0  0  0  0  0  0  0  0  0  0
   10.1285  -16.1662   20.9352 C   0  0  0  0  0  0  0  0  0  0  0  0
   11.0709  -15.5520   21.4841 O   0  0  0  0  0  0  0  0  0  0  0  0
    6.5399  -13.6256   19.1352 N   0  0  0  0  0  0  0  0  0  0  0  0
    7.5752  -13.2478   20.0708 C   0  0  0  0  0  0  0  0  0  0  0  0
    8.4724  -12.5485   19.6049 O   0  0  0  0  0  0  0  0  0  0  0  0
    7.4850  -13.7006   21.4305 C   0  0  0  0  0  0  0  0  0  0  0  0
    8.5945  -14.5026   22.0387 C   0  0  2  0  0  0  0  0  0  0  0  0
    8.8188  -15.6710   21.1334 N   0  0  0  0  0  0  0  0  0  0  0  0
    8.3524  -15.0361   23.3767 C   0  0  0  0  0  0  0  0  0  0  0  0
    7.9895  -14.2296   24.3232 O   0  0  0  0  0  0  0  0  0  0  0  0
    6.3213  -18.4589   27.4074 N   0  0  0  0  0  0  0  0  0  0  0  0
    7.5244  -18.6525   26.6139 C   0  0  0  0  0  0  0  0  0  0  0  0
    8.4105  -19.3045   27.2049 O   0  0  0  0  0  0  0  0  0  0  0  0
    7.6072  -18.0978   25.2486 C   0  0  0  0  0  0  0  0  0  0  0  0
    8.2912  -16.7892   25.1322 C   0  0  2  0  0  0  0  0  0  0  0  0
    8.4749  -16.3871   23.7342 N   0  0  0  0  0  0  0  0  0  0  0  0
    9.6152  -16.7522   25.7520 C   0  0  0  0  0  0  0  0  0  0  0  0
   10.8053  -16.8898   25.0184 O   0  0  0  0  0  0  0  0  0  0  0  0
    9.7602  -16.5952   26.9735 O   0  0  0  0  0  0  0  0  0  0  0  0
  1  2  1  0
  2  3  2  0
  4  2  1  0
  5  6  1  1
  5  4  1  0
  7  5  1  0
  8  7  2  0
  9 10  1  0
 10 12  1  0
 11 10  2  0
 13 12  1  6
 13 15  1  0
 13 14  1  0
 14  7  1  0
 15 16  2  0
 17 18  1  0
 18 19  2  0
 21 20  1  6
 20 18  1  0
 21 23  1  0
 22 15  1  0
 22 21  1  0
 23 25  2  0
 23 24  1  0
M  END
$$$$
