NNN.pdb
     RDKit          3D

 25 24  0  0  1  0  0  0  0  0999 V2000
   10.8298  -16.9666   13.7369 N   0  0  0  0  0  0  0  0  0  0  0  0
   12.2114  -16.9977   14.0364 C   0  0  0  0  0  0  0  0  0  0  0  0
   13.0174  -17.2044   13.0806 O   0  0  0  0  0  0  0  0  0  0  0  0
   12.7554  -16.8034   15.3923 C   0  0  0  0  0  0  0  0  0  0  0  0
   11.5660  -16.7533   16.3495 C   0  0  2  0  0  0  0  0  0  0  0  0
   10.8073  -15.5867   15.9972 N   0  0  0  0  0  0  0  0  0  0  0  0
   12.0889  -16.6694   17.7511 C   0  0  0  0  0  0  0  0  0  0  0  0
   12.6319  -17.6477   18.3122 O   0  0  0  0  0  0  0  0  0  0  0  0
   15.0240  -13.7622   17.9476 N   0  0  0  0  0  0  0  0  0  0  0  0
   14.7997  -14.4911   19.1757 C   0  0  0  0  0  0  0  0  0  0  0  0
   15.7217  -15.2253   19.5248 O   0  0  0  0  0  0  0  0  0  0  0  0
   13.5590  -14.3118   19.8762 C   0  0  0  0  0  0  0  0  0  0  0  0
   12.5252  -15.3959   19.8787 C   0  0  2  0  0  0  0  0  0  0  0  0
   11.9818  -15.4670   18.4877 N   0  0  0  0  0  0  0  0  0  0  0  0
   11.3876  -15.2064   20.7750 C   0  0  0  0  0  0  0  0  0  0  0  0
   11.6022  -14.8643   22.0058 O   0  0  0  0  0  0  0  0  0  0  0  0
    7.6757  -13.0472   18.6633 N   0  0  0  0  0  0  0  0  0  0  0  0
    8.1645  -13.1929   20.0250 C   0  0  0  0  0  0  0  0  0  0  0  0
    8.8538  -12.2261   20.4121 O   0  0  0  0  0  0  0  0  0  0  0  0
    7.8311  -14.4004   20.8055 C   0  0  0  0  0  0  0  0  0  0  0  0
    8.9855  -15.1194   21.3924 C   0  0  2  0  0  0  0  0  0  0  0  0
   10.0430  -15.3601   20.4057 N   0  0  0  0  0  0  0  0  0  0  0  0
    8.6474  -16.4221   21.9643 C   0  0  0  0  0  0  0  0  0  0  0  0
    7.7219  -16.5797   23.0094 O   0  0  0  0  0  0  0  0  0  0  0  0
    9.1657  -17.4706   21.5523 O   0  0  0  0  0  0  0  0  0  0  0  0
  1  2  1  0
  2  3  2  0
  4  2  1  0
  5  6  1  6
  5  4  1  0
  7  5  1  0
  8  7  2  0
  9 10  1  0
 10 12  1  0
 11 10  2  0
 13 12  1  6
 13 15  1  0
 13 14  1  0
 14  7  1  0
 15 16  2  0
 17 18  1  0
 18 19  2  0
 21 20  1  6
 20 18  1  0
 21 23  1  0
 22 15  1  0
 22 21  1  0
 23 25  2  0
 23 24  1  0
M  END
$$$$
