NNN.pdb
     RDKit          3D

 25 24  0  0  1  0  0  0  0  0999 V2000
    6.1559  -14.9100   17.7931 N   0  0  0  0  0  0  0  0  0  0  0  0
    7.1472  -13.9038   17.7269 C   0  0  0  0  0  0  0  0  0  0  0  0
    7.7985  -13.7881   16.6460 O   0  0  0  0  0  0  0  0  0  0  0  0
    7.4576  -12.9916   18.8420 C   0  0  0  0  0  0  0  0  0  0  0  0
    8.9106  -13.2465   19.2384 C   0  0  2  0  0  0  0  0  0  0  0  0
    9.6959  -13.0634   18.0507 N   0  0  0  0  0  0  0  0  0  0  0  0
    9.0204  -14.6459   19.7626 C   0  0  0  0  0  0  0  0  0  0  0  0
    8.1748  -15.1223   20.5529 O   0  0  0  0  0  0  0  0  0  0  0  0
    8.5656  -18.5338   17.4789 N   0  0  0  0  0  0  0  0  0  0  0  0
    9.8049  -17.7908   17.4342 C   0  0  0  0  0  0  0  0  0  0  0  0
   10.0746  -17.2872   16.3458 O   0  0  0  0  0  0  0  0  0  0  0  0
   10.6048  -17.6971   18.6231 C   0  0  0  0  0  0  0  0  0  0  0  0
   10.1227  -16.9091   19.8024 C   0  0  2  0  0  0  0  0  0  0  0  0
   10.0962  -15.4771   19.3734 N   0  0  0  0  0  0  0  0  0  0  0  0
   10.9413  -16.9806   21.0099 C   0  0  0  0  0  0  0  0  0  0  0  0
   11.9612  -16.1912   21.1304 O   0  0  0  0  0  0  0  0  0  0  0  0
    9.1515  -15.7206   24.6162 N   0  0  0  0  0  0  0  0  0  0  0  0
   10.5475  -16.1218   24.6865 C   0  0  0  0  0  0  0  0  0  0  0  0
   11.3272  -15.1721   24.9101 O   0  0  0  0  0  0  0  0  0  0  0  0
   10.9206  -17.5375   24.4998 C   0  0  0  0  0  0  0  0  0  0  0  0
   11.6205  -17.8509   23.2326 C   0  0  2  0  0  0  0  0  0  0  0  0
   10.7074  -17.8506   22.0854 N   0  0  0  0  0  0  0  0  0  0  0  0
   12.2915  -19.1502   23.2285 C   0  0  0  0  0  0  0  0  0  0  0  0
   13.4136  -19.4321   24.0253 O   0  0  0  0  0  0  0  0  0  0  0  0
   11.9010  -20.0845   22.5127 O   0  0  0  0  0  0  0  0  0  0  0  0
  1  2  1  0
  2  3  2  0
  4  2  1  0
  5  6  1  6
  5  4  1  0
  7  5  1  0
  8  7  2  0
  9 10  1  0
 10 12  1  0
 11 10  2  0
 13 12  1  6
 13 15  1  0
 13 14  1  0
 14  7  1  0
 15 16  2  0
 17 18  1  0
 18 19  2  0
 21 20  1  1
 20 18  1  0
 21 23  1  0
 22 15  1  0
 22 21  1  0
 23 25  2  0
 23 24  1  0
M  END
$$$$
