ANA.pdb
     RDKit          3D

 19 18  0  0  1  0  0  0  0  0999 V2000
    7.7307  -15.4581   17.1909 C   0  0  0  0  0  0  0  0  0  0  0  0
    7.5400  -14.1928   17.9815 C   0  0  2  0  0  0  0  0  0  0  0  0
    8.0562  -13.0875   17.1668 N   0  0  0  0  0  0  0  0  0  0  0  0
    8.3559  -14.2513   19.2227 C   0  0  0  0  0  0  0  0  0  0  0  0
    9.5247  -13.8024   19.1989 O   0  0  0  0  0  0  0  0  0  0  0  0
    9.1818  -13.9845   24.5907 N   0  0  0  0  0  0  0  0  0  0  0  0
    8.2445  -14.9453   24.1453 C   0  0  0  0  0  0  0  0  0  0  0  0
    7.9279  -15.8867   24.9169 O   0  0  0  0  0  0  0  0  0  0  0  0
    7.6173  -14.9051   22.8274 C   0  0  0  0  0  0  0  0  0  0  0  0
    8.5486  -14.8387   21.6611 C   0  0  2  0  0  0  0  0  0  0  0  0
    7.8391  -14.8057   20.4366 N   0  0  0  0  0  0  0  0  0  0  0  0
    9.6110  -15.8621   21.7358 C   0  0  0  0  0  0  0  0  0  0  0  0
   10.4434  -15.7303   22.6765 O   0  0  0  0  0  0  0  0  0  0  0  0
   12.1423  -17.4509   20.7437 C   0  0  0  0  0  0  0  0  0  0  0  0
   10.7641  -17.9661   20.9520 C   0  0  2  0  0  0  0  0  0  0  0  0
    9.7424  -16.9458   20.8404 N   0  0  0  0  0  0  0  0  0  0  0  0
   10.6804  -18.6820   22.2538 C   0  0  0  0  0  0  0  0  0  0  0  0
   11.4886  -19.6169   22.4579 O   0  0  0  0  0  0  0  0  0  0  0  0
    9.7666  -18.3588   23.2172 O   0  0  0  0  0  0  0  0  0  0  0  0
  2  1  1  6
  2  3  1  0
  2  4  1  0
  4  5  2  0
  7  6  1  0
  7  9  1  0
  8  7  2  0
 10  9  1  1
 11  4  1  0
 11 10  1  0
 12 10  1  0
 12 16  1  0
 13 12  2  0
 15 16  1  0
 15 14  1  1
 17 15  1  0
 17 19  1  0
 18 17  2  0
M  END
$$$$
