ANA.pdb
     RDKit          3D

 19 18  0  0  1  0  0  0  0  0999 V2000
   -3.1274  -27.7101   29.3987 C   0  0  0  0  0  0  0  0  0  0  0  0
   -4.2863  -26.8774   28.9232 C   0  0  2  0  0  0  0  0  0  0  0  0
   -3.9818  -25.4799   29.2487 N   0  0  0  0  0  0  0  0  0  0  0  0
   -5.5129  -27.2533   29.6740 C   0  0  0  0  0  0  0  0  0  0  0  0
   -5.9840  -28.4039   29.5242 O   0  0  0  0  0  0  0  0  0  0  0  0
   -6.2414  -27.8921   34.6185 N   0  0  0  0  0  0  0  0  0  0  0  0
   -6.8775  -27.8127   33.3578 C   0  0  0  0  0  0  0  0  0  0  0  0
   -7.1698  -28.8788   32.7580 O   0  0  0  0  0  0  0  0  0  0  0  0
   -7.2176  -26.5505   32.7076 C   0  0  0  0  0  0  0  0  0  0  0  0
   -7.3845  -26.6027   31.2239 C   0  0  2  0  0  0  0  0  0  0  0  0
   -6.1638  -26.3357   30.5586 N   0  0  0  0  0  0  0  0  0  0  0  0
   -8.5325  -25.7961   30.7623 C   0  0  0  0  0  0  0  0  0  0  0  0
   -8.3684  -24.5438   30.7667 O   0  0  0  0  0  0  0  0  0  0  0  0
  -11.9484  -26.3175   29.2091 C   0  0  0  0  0  0  0  0  0  0  0  0
  -10.8806  -25.5282   29.8762 C   0  0  2  0  0  0  0  0  0  0  0  0
   -9.7651  -26.3323   30.3302 N   0  0  0  0  0  0  0  0  0  0  0  0
  -11.4608  -24.7240   30.9856 C   0  0  0  0  0  0  0  0  0  0  0  0
  -11.3743  -25.1851   32.1470 O   0  0  0  0  0  0  0  0  0  0  0  0
  -12.0743  -23.5198   30.7826 O   0  0  0  0  0  0  0  0  0  0  0  0
  2  1  1  1
  2  3  1  0
  2  4  1  0
  4  5  2  0
  7  6  1  0
  7  9  1  0
  8  7  2  0
 10  9  1  1
 11  4  1  0
 11 10  1  0
 12 10  1  0
 12 16  1  0
 13 12  2  0
 15 16  1  0
 15 14  1  1
 17 15  1  0
 17 19  1  0
 18 17  2  0
M  END
$$$$
