ANA.pdb
     RDKit          3D

 19 18  0  0  1  0  0  0  0  0999 V2000
    8.0562  -24.7117   26.6503 C   0  0  0  0  0  0  0  0  0  0  0  0
    9.4440  -24.8116   27.2217 C   0  0  2  0  0  0  0  0  0  0  0  0
    9.7927  -26.2355   27.2738 N   0  0  0  0  0  0  0  0  0  0  0  0
    9.4478  -24.2999   28.6173 C   0  0  0  0  0  0  0  0  0  0  0  0
    9.2382  -23.0811   28.8144 O   0  0  0  0  0  0  0  0  0  0  0  0
    6.5192  -26.2450   32.6168 N   0  0  0  0  0  0  0  0  0  0  0  0
    7.4536  -25.3732   32.0109 C   0  0  0  0  0  0  0  0  0  0  0  0
    7.0394  -24.3025   31.4973 O   0  0  0  0  0  0  0  0  0  0  0  0
    8.8860  -25.6489   31.9480 C   0  0  0  0  0  0  0  0  0  0  0  0
    9.6911  -24.7347   31.0831 C   0  0  2  0  0  0  0  0  0  0  0  0
    9.6843  -25.1632   29.7340 N   0  0  0  0  0  0  0  0  0  0  0  0
   11.0318  -24.4718   31.6444 C   0  0  0  0  0  0  0  0  0  0  0  0
   11.7502  -25.4871   31.8641 O   0  0  0  0  0  0  0  0  0  0  0  0
   13.8573  -23.2693   31.1409 C   0  0  0  0  0  0  0  0  0  0  0  0
   12.9275  -22.9176   32.2455 C   0  0  2  0  0  0  0  0  0  0  0  0
   11.5379  -23.1872   31.9397 N   0  0  0  0  0  0  0  0  0  0  0  0
   13.1321  -21.5004   32.6503 C   0  0  0  0  0  0  0  0  0  0  0  0
   14.2183  -21.2015   33.1977 O   0  0  0  0  0  0  0  0  0  0  0  0
   12.1902  -20.5311   32.4481 O   0  0  0  0  0  0  0  0  0  0  0  0
  2  1  1  1
  2  3  1  0
  2  4  1  0
  4  5  2  0
  7  6  1  0
  7  9  1  0
  8  7  2  0
 10  9  1  1
 11  4  1  0
 11 10  1  0
 12 10  1  0
 12 16  1  0
 13 12  2  0
 15 16  1  0
 15 14  1  6
 17 15  1  0
 17 19  1  0
 18 17  2  0
M  END
$$$$
