ANA.pdb
     RDKit          3D

 19 18  0  0  1  0  0  0  0  0999 V2000
    7.2648  -13.0829   19.8154 C   0  0  0  0  0  0  0  0  0  0  0  0
    8.4993  -13.5444   20.5404 C   0  0  2  0  0  0  0  0  0  0  0  0
    8.9913  -14.7395   19.8466 N   0  0  0  0  0  0  0  0  0  0  0  0
    8.1434  -13.9477   21.9262 C   0  0  0  0  0  0  0  0  0  0  0  0
    7.5996  -13.1076   22.6789 O   0  0  0  0  0  0  0  0  0  0  0  0
    6.1308  -18.0409   25.3835 N   0  0  0  0  0  0  0  0  0  0  0  0
    7.4672  -17.8093   24.9827 C   0  0  0  0  0  0  0  0  0  0  0  0
    8.3988  -18.1293   25.7647 O   0  0  0  0  0  0  0  0  0  0  0  0
    7.8295  -17.2143   23.6996 C   0  0  0  0  0  0  0  0  0  0  0  0
    8.0158  -15.7320   23.6948 C   0  0  2  0  0  0  0  0  0  0  0  0
    8.4068  -15.2661   22.4166 N   0  0  0  0  0  0  0  0  0  0  0  0
    8.8678  -15.2727   24.8105 C   0  0  0  0  0  0  0  0  0  0  0  0
   10.1132  -15.4085   24.6500 O   0  0  0  0  0  0  0  0  0  0  0  0
    8.5516  -13.0882   27.8455 C   0  0  0  0  0  0  0  0  0  0  0  0
    9.2278  -14.1331   27.0336 C   0  0  2  0  0  0  0  0  0  0  0  0
    8.3807  -14.7078   26.0093 N   0  0  0  0  0  0  0  0  0  0  0  0
    9.7946  -15.1814   27.9246 C   0  0  0  0  0  0  0  0  0  0  0  0
    9.3381  -16.3433   27.8216 O   0  0  0  0  0  0  0  0  0  0  0  0
   10.7797  -14.9228   28.8359 O   0  0  0  0  0  0  0  0  0  0  0  0
  2  1  1  6
  2  3  1  0
  2  4  1  0
  4  5  2  0
  7  6  1  0
  7  9  1  0
  8  7  2  0
 10  9  1  6
 11  4  1  0
 11 10  1  0
 12 10  1  0
 12 16  1  0
 13 12  2  0
 15 16  1  0
 15 14  1  1
 17 15  1  0
 17 19  1  0
 18 17  2  0
M  END
$$$$
