ANA.pdb
     RDKit          3D

 19 18  0  0  1  0  0  0  0  0999 V2000
    8.2910  -18.6151   17.0043 C   0  0  0  0  0  0  0  0  0  0  0  0
    8.7260  -18.5661   18.4434 C   0  0  2  0  0  0  0  0  0  0  0  0
    7.5298  -18.7692   19.2677 N   0  0  0  0  0  0  0  0  0  0  0  0
    9.2607  -17.2152   18.7580 C   0  0  0  0  0  0  0  0  0  0  0  0
   10.4106  -16.9140   18.3641 O   0  0  0  0  0  0  0  0  0  0  0  0
    7.6614  -12.2855   17.8609 N   0  0  0  0  0  0  0  0  0  0  0  0
    7.5535  -13.5910   18.3941 C   0  0  0  0  0  0  0  0  0  0  0  0
    7.1062  -14.5101   17.6613 O   0  0  0  0  0  0  0  0  0  0  0  0
    7.9363  -13.9350   19.7604 C   0  0  0  0  0  0  0  0  0  0  0  0
    8.9837  -14.9911   19.9004 C   0  0  2  0  0  0  0  0  0  0  0  0
    8.4959  -16.2571   19.4964 N   0  0  0  0  0  0  0  0  0  0  0  0
    9.6251  -14.9686   21.2307 C   0  0  0  0  0  0  0  0  0  0  0  0
   10.0899  -13.8551   21.6038 O   0  0  0  0  0  0  0  0  0  0  0  0
    9.5242  -16.0491   24.5254 C   0  0  0  0  0  0  0  0  0  0  0  0
   10.4365  -16.0687   23.3525 C   0  0  2  0  0  0  0  0  0  0  0  0
    9.7434  -16.0894   22.0811 N   0  0  0  0  0  0  0  0  0  0  0  0
   11.3927  -17.2026   23.4713 C   0  0  0  0  0  0  0  0  0  0  0  0
   11.3620  -18.0864   22.5843 O   0  0  0  0  0  0  0  0  0  0  0  0
   12.2879  -17.3095   24.4984 O   0  0  0  0  0  0  0  0  0  0  0  0
  2  1  1  6
  2  3  1  0
  2  4  1  0
  4  5  2  0
  7  6  1  0
  7  9  1  0
  8  7  2  0
 10  9  1  1
 11  4  1  0
 11 10  1  0
 12 10  1  0
 12 16  1  0
 13 12  2  0
 15 16  1  0
 15 14  1  1
 17 15  1  0
 17 19  1  0
 18 17  2  0
M  END
$$$$
