ANA.pdb
     RDKit          3D

 19 18  0  0  1  0  0  0  0  0999 V2000
    8.3536  -12.0640   19.5362 C   0  0  0  0  0  0  0  0  0  0  0  0
    8.2639  -13.2777   18.6522 C   0  0  2  0  0  0  0  0  0  0  0  0
    6.8409  -13.5317   18.4032 N   0  0  0  0  0  0  0  0  0  0  0  0
    8.8094  -14.4598   19.3697 C   0  0  0  0  0  0  0  0  0  0  0  0
    8.0222  -15.1947   20.0088 O   0  0  0  0  0  0  0  0  0  0  0  0
   11.6743  -16.7073   16.4836 N   0  0  0  0  0  0  0  0  0  0  0  0
   11.3155  -17.1540   17.7766 C   0  0  0  0  0  0  0  0  0  0  0  0
   10.5353  -18.1345   17.8846 O   0  0  0  0  0  0  0  0  0  0  0  0
   11.8051  -16.5352   19.0051 C   0  0  0  0  0  0  0  0  0  0  0  0
   10.7643  -15.9505   19.9032 C   0  0  2  0  0  0  0  0  0  0  0  0
   10.2052  -14.7750   19.3469 N   0  0  0  0  0  0  0  0  0  0  0  0
   11.2405  -15.8132   21.2946 C   0  0  0  0  0  0  0  0  0  0  0  0
   12.1395  -14.9480   21.4906 O   0  0  0  0  0  0  0  0  0  0  0  0
   10.2012  -16.7055   24.7696 C   0  0  0  0  0  0  0  0  0  0  0  0
   11.2388  -16.4282   23.7426 C   0  0  2  0  0  0  0  0  0  0  0  0
   10.7604  -16.5731   22.3834 N   0  0  0  0  0  0  0  0  0  0  0  0
   12.4389  -17.2720   23.9916 C   0  0  0  0  0  0  0  0  0  0  0  0
   12.7391  -18.1278   23.1277 O   0  0  0  0  0  0  0  0  0  0  0  0
   13.2107  -17.1461   25.1123 O   0  0  0  0  0  0  0  0  0  0  0  0
  2  1  1  1
  2  3  1  0
  2  4  1  0
  4  5  2  0
  7  6  1  0
  7  9  1  0
  8  7  2  0
 10  9  1  6
 11  4  1  0
 11 10  1  0
 12 10  1  0
 12 16  1  0
 13 12  2  0
 15 16  1  0
 15 14  1  1
 17 15  1  0
 17 19  1  0
 18 17  2  0
M  END
$$$$
