ANA.pdb
     RDKit          3D

 19 18  0  0  1  0  0  0  0  0999 V2000
    7.6374  -12.5648   19.2286 C   0  0  0  0  0  0  0  0  0  0  0  0
    8.7402  -13.2052   20.0263 C   0  0  2  0  0  0  0  0  0  0  0  0
    9.1074  -14.4496   19.3421 N   0  0  0  0  0  0  0  0  0  0  0  0
    8.2338  -13.5704   21.3754 C   0  0  0  0  0  0  0  0  0  0  0  0
    7.7697  -12.6691   22.1107 O   0  0  0  0  0  0  0  0  0  0  0  0
    6.7915  -17.9806   20.9590 N   0  0  0  0  0  0  0  0  0  0  0  0
    6.4671  -17.2948   22.1526 C   0  0  0  0  0  0  0  0  0  0  0  0
    5.2565  -17.0853   22.4216 O   0  0  0  0  0  0  0  0  0  0  0  0
    7.4683  -16.8122   23.0994 C   0  0  0  0  0  0  0  0  0  0  0  0
    7.7232  -15.3402   23.0886 C   0  0  2  0  0  0  0  0  0  0  0  0
    8.2646  -14.9201   21.8499 N   0  0  0  0  0  0  0  0  0  0  0  0
    8.4769  -14.8953   24.2785 C   0  0  0  0  0  0  0  0  0  0  0  0
    9.7210  -15.1122   24.2604 O   0  0  0  0  0  0  0  0  0  0  0  0
    8.0102  -12.6693   27.2653 C   0  0  0  0  0  0  0  0  0  0  0  0
    8.6578  -13.7946   26.5426 C   0  0  2  0  0  0  0  0  0  0  0  0
    7.8999  -14.2606   25.4000 N   0  0  0  0  0  0  0  0  0  0  0  0
    8.9544  -14.9034   27.4897 C   0  0  0  0  0  0  0  0  0  0  0  0
    8.3659  -15.9947   27.3123 O   0  0  0  0  0  0  0  0  0  0  0  0
    9.8326  -14.7724   28.5286 O   0  0  0  0  0  0  0  0  0  0  0  0
  2  1  1  6
  2  3  1  0
  2  4  1  0
  4  5  2  0
  7  6  1  0
  7  9  1  0
  8  7  2  0
 10  9  1  6
 11  4  1  0
 11 10  1  0
 12 10  1  0
 12 16  1  0
 13 12  2  0
 15 16  1  0
 15 14  1  1
 17 15  1  0
 17 19  1  0
 18 17  2  0
M  END
$$$$
