ANA.pdb
     RDKit          3D

 19 18  0  0  1  0  0  0  0  0999 V2000
    7.4934  -12.5276   19.7740 C   0  0  0  0  0  0  0  0  0  0  0  0
    8.2573  -13.7915   19.4880 C   0  0  2  0  0  0  0  0  0  0  0  0
    7.3978  -14.6422   18.6578 N   0  0  0  0  0  0  0  0  0  0  0  0
    8.5122  -14.5196   20.7586 C   0  0  0  0  0  0  0  0  0  0  0  0
    9.2169  -13.9724   21.6374 O   0  0  0  0  0  0  0  0  0  0  0  0
    4.9000  -17.2986   21.3206 N   0  0  0  0  0  0  0  0  0  0  0  0
    5.7970  -17.2272   22.4118 C   0  0  0  0  0  0  0  0  0  0  0  0
    5.3832  -16.7696   23.5078 O   0  0  0  0  0  0  0  0  0  0  0  0
    7.1896  -17.6594   22.3367 C   0  0  0  0  0  0  0  0  0  0  0  0
    8.2039  -16.5743   22.1769 C   0  0  2  0  0  0  0  0  0  0  0  0
    7.9740  -15.8237   20.9989 N   0  0  0  0  0  0  0  0  0  0  0  0
    9.5851  -17.0732   22.3355 C   0  0  0  0  0  0  0  0  0  0  0  0
   10.0466  -17.7451   21.3709 O   0  0  0  0  0  0  0  0  0  0  0  0
   12.7367  -16.3232   22.9697 C   0  0  0  0  0  0  0  0  0  0  0  0
   11.7715  -17.2738   23.5804 C   0  0  2  0  0  0  0  0  0  0  0  0
   10.3920  -16.8468   23.4718 N   0  0  0  0  0  0  0  0  0  0  0  0
   12.1495  -17.5440   24.9940 C   0  0  0  0  0  0  0  0  0  0  0  0
   11.3217  -17.2467   25.8858 O   0  0  0  0  0  0  0  0  0  0  0  0
   13.3491  -18.0964   25.3453 O   0  0  0  0  0  0  0  0  0  0  0  0
  2  1  1  1
  2  3  1  0
  2  4  1  0
  4  5  2  0
  7  6  1  0
  7  9  1  0
  8  7  2  0
 10  9  1  6
 11  4  1  0
 11 10  1  0
 12 10  1  0
 12 16  1  0
 13 12  2  0
 15 16  1  0
 15 14  1  1
 17 15  1  0
 17 19  1  0
 18 17  2  0
M  END
$$$$
