ANA.pdb
     RDKit          3D

 19 18  0  0  1  0  0  0  0  0999 V2000
    3.6657  -17.9689   21.2912 C   0  0  0  0  0  0  0  0  0  0  0  0
    4.7422  -17.6551   20.2886 C   0  0  2  0  0  0  0  0  0  0  0  0
    5.1234  -18.9185   19.6482 N   0  0  0  0  0  0  0  0  0  0  0  0
    5.9425  -17.1312   20.9917 C   0  0  0  0  0  0  0  0  0  0  0  0
    6.7166  -17.9413   21.5509 O   0  0  0  0  0  0  0  0  0  0  0  0
    7.2677  -12.6663   19.0526 N   0  0  0  0  0  0  0  0  0  0  0  0
    7.9421  -13.5632   19.9135 C   0  0  0  0  0  0  0  0  0  0  0  0
    8.9060  -14.2309   19.4588 O   0  0  0  0  0  0  0  0  0  0  0  0
    7.5788  -13.7589   21.3140 C   0  0  0  0  0  0  0  0  0  0  0  0
    7.3331  -15.1711   21.7352 C   0  0  2  0  0  0  0  0  0  0  0  0
    6.2317  -15.7305   21.0438 N   0  0  0  0  0  0  0  0  0  0  0  0
    7.2819  -15.3148   23.2043 C   0  0  0  0  0  0  0  0  0  0  0  0
    6.3102  -14.7529   23.7833 O   0  0  0  0  0  0  0  0  0  0  0  0
    6.8207  -16.9638   25.7480 C   0  0  0  0  0  0  0  0  0  0  0  0
    8.0916  -16.2815   25.3908 C   0  0  2  0  0  0  0  0  0  0  0  0
    8.2308  -16.0239   23.9725 N   0  0  0  0  0  0  0  0  0  0  0  0
    9.2487  -17.0518   25.9217 C   0  0  0  0  0  0  0  0  0  0  0  0
   10.0948  -17.4733   25.0999 O   0  0  0  0  0  0  0  0  0  0  0  0
    9.4158  -17.3099   27.2533 O   0  0  0  0  0  0  0  0  0  0  0  0
  2  1  1  1
  2  3  1  0
  2  4  1  0
  4  5  2  0
  7  6  1  0
  7  9  1  0
  8  7  2  0
 10  9  1  1
 11  4  1  0
 11 10  1  0
 12 10  1  0
 12 16  1  0
 13 12  2  0
 15 16  1  0
 15 14  1  6
 17 15  1  0
 17 19  1  0
 18 17  2  0
M  END
$$$$
