ANA.pdb
     RDKit          3D

 19 18  0  0  1  0  0  0  0  0999 V2000
    3.5517  -20.1492   19.5174 C   0  0  0  0  0  0  0  0  0  0  0  0
    4.8949  -19.7213   20.0420 C   0  0  2  0  0  0  0  0  0  0  0  0
    5.8598  -20.7618   19.6707 N   0  0  0  0  0  0  0  0  0  0  0  0
    4.8548  -19.6591   21.5266 C   0  0  0  0  0  0  0  0  0  0  0  0
    4.0858  -18.8376   22.0762 O   0  0  0  0  0  0  0  0  0  0  0  0
    4.5617  -23.7879   23.5114 N   0  0  0  0  0  0  0  0  0  0  0  0
    4.6272  -22.5952   24.2687 C   0  0  0  0  0  0  0  0  0  0  0  0
    3.6011  -22.2124   24.8869 O   0  0  0  0  0  0  0  0  0  0  0  0
    5.8310  -21.7757   24.3744 C   0  0  0  0  0  0  0  0  0  0  0  0
    5.7582  -20.4218   23.7471 C   0  0  2  0  0  0  0  0  0  0  0  0
    5.6702  -20.5114   22.3371 N   0  0  0  0  0  0  0  0  0  0  0  0
    6.8133  -19.5172   24.2471 C   0  0  0  0  0  0  0  0  0  0  0  0
    7.9498  -19.6400   23.7101 O   0  0  0  0  0  0  0  0  0  0  0  0
    7.1328  -16.2983   26.0886 C   0  0  0  0  0  0  0  0  0  0  0  0
    7.6555  -17.6347   25.7023 C   0  0  2  0  0  0  0  0  0  0  0  0
    6.6261  -18.5529   25.2613 N   0  0  0  0  0  0  0  0  0  0  0  0
    8.4576  -18.2083   26.8166 C   0  0  0  0  0  0  0  0  0  0  0  0
    8.0186  -19.2361   27.3820 O   0  0  0  0  0  0  0  0  0  0  0  0
    9.6371  -17.6601   27.2361 O   0  0  0  0  0  0  0  0  0  0  0  0
  2  1  1  1
  2  3  1  0
  2  4  1  0
  4  5  2  0
  7  6  1  0
  7  9  1  0
  8  7  2  0
 10  9  1  1
 11  4  1  0
 11 10  1  0
 12 10  1  0
 12 16  1  0
 13 12  2  0
 15 16  1  0
 15 14  1  1
 17 15  1  0
 17 19  1  0
 18 17  2  0
M  END
$$$$
