ANA.pdb
     RDKit          3D

 19 18  0  0  1  0  0  0  0  0999 V2000
    5.9816  -18.4213   15.3194 C   0  0  0  0  0  0  0  0  0  0  0  0
    5.9979  -19.2005   16.6059 C   0  0  2  0  0  0  0  0  0  0  0  0
    4.6090  -19.5518   16.9207 N   0  0  0  0  0  0  0  0  0  0  0  0
    6.5003  -18.3370   17.7067 C   0  0  0  0  0  0  0  0  0  0  0  0
    5.7029  -17.5548   18.2727 O   0  0  0  0  0  0  0  0  0  0  0  0
    9.6488  -16.4041   21.5148 N   0  0  0  0  0  0  0  0  0  0  0  0
    9.9350  -17.7466   21.1742 C   0  0  0  0  0  0  0  0  0  0  0  0
   10.7457  -18.3931   21.8861 O   0  0  0  0  0  0  0  0  0  0  0  0
    9.3361  -18.4310   20.0320 C   0  0  0  0  0  0  0  0  0  0  0  0
    8.3881  -17.6222   19.2080 C   0  0  2  0  0  0  0  0  0  0  0  0
    7.8663  -18.3792   18.1315 N   0  0  0  0  0  0  0  0  0  0  0  0
    8.9553  -16.3123   18.8284 C   0  0  0  0  0  0  0  0  0  0  0  0
    9.8458  -16.3317   17.9330 O   0  0  0  0  0  0  0  0  0  0  0  0
    8.4015  -12.6367   19.5816 C   0  0  0  0  0  0  0  0  0  0  0  0
    9.1198  -13.7994   18.9981 C   0  0  2  0  0  0  0  0  0  0  0  0
    8.5684  -15.0783   19.3950 N   0  0  0  0  0  0  0  0  0  0  0  0
   10.5715  -13.7100   19.3121 C   0  0  0  0  0  0  0  0  0  0  0  0
   11.2025  -12.7200   18.8755 O   0  0  0  0  0  0  0  0  0  0  0  0
   11.2277  -14.6560   20.0484 O   0  0  0  0  0  0  0  0  0  0  0  0
  2  1  1  6
  2  3  1  0
  2  4  1  0
  4  5  2  0
  7  6  1  0
  7  9  1  0
  8  7  2  0
 10  9  1  6
 11  4  1  0
 11 10  1  0
 12 10  1  0
 12 16  1  0
 13 12  2  0
 15 16  1  0
 15 14  1  1
 17 15  1  0
 17 19  1  0
 18 17  2  0
M  END
$$$$
