ANA.pdb
     RDKit          3D

 19 18  0  0  1  0  0  0  0  0999 V2000
    9.6862  -17.3766   15.5921 C   0  0  0  0  0  0  0  0  0  0  0  0
    9.4488  -18.0081   16.9364 C   0  0  2  0  0  0  0  0  0  0  0  0
    8.0122  -18.2858   17.0403 N   0  0  0  0  0  0  0  0  0  0  0  0
    9.7952  -17.0411   18.0110 C   0  0  0  0  0  0  0  0  0  0  0  0
   10.9905  -16.6944   18.1492 O   0  0  0  0  0  0  0  0  0  0  0  0
    6.5982  -12.9015   19.0031 N   0  0  0  0  0  0  0  0  0  0  0  0
    7.7842  -13.6572   19.1533 C   0  0  0  0  0  0  0  0  0  0  0  0
    8.7350  -13.4585   18.3543 O   0  0  0  0  0  0  0  0  0  0  0  0
    7.9686  -14.6644   20.1940 C   0  0  0  0  0  0  0  0  0  0  0  0
    9.0797  -15.6383   19.9727 C   0  0  2  0  0  0  0  0  0  0  0  0
    8.7997  -16.5009   18.8858 N   0  0  0  0  0  0  0  0  0  0  0  0
    9.4806  -16.3209   21.2197 C   0  0  0  0  0  0  0  0  0  0  0  0
    8.6951  -17.2164   21.6394 O   0  0  0  0  0  0  0  0  0  0  0  0
   12.4534  -16.5017   23.5521 C   0  0  0  0  0  0  0  0  0  0  0  0
   11.0305  -16.7038   23.1747 C   0  0  2  0  0  0  0  0  0  0  0  0
   10.6576  -16.0352   21.9455 N   0  0  0  0  0  0  0  0  0  0  0  0
   10.1442  -16.3070   24.3022 C   0  0  0  0  0  0  0  0  0  0  0  0
    9.3469  -15.3600   24.1116 O   0  0  0  0  0  0  0  0  0  0  0  0
   10.1711  -16.9310   25.5178 O   0  0  0  0  0  0  0  0  0  0  0  0
  2  1  1  6
  2  3  1  0
  2  4  1  0
  4  5  2  0
  7  6  1  0
  7  9  1  0
  8  7  2  0
 10  9  1  1
 11  4  1  0
 11 10  1  0
 12 10  1  0
 12 16  1  0
 13 12  2  0
 15 16  1  0
 15 14  1  1
 17 15  1  0
 17 19  1  0
 18 17  2  0
M  END
$$$$
