ANA.pdb
     RDKit          3D

 19 18  0  0  1  0  0  0  0  0999 V2000
    7.9985  -12.5156   19.0145 C   0  0  0  0  0  0  0  0  0  0  0  0
    8.1829  -13.9387   19.4653 C   0  0  2  0  0  0  0  0  0  0  0  0
    6.8819  -14.6058   19.3466 N   0  0  0  0  0  0  0  0  0  0  0  0
    8.5671  -13.9622   20.9011 C   0  0  0  0  0  0  0  0  0  0  0  0
    9.7610  -13.7455   21.2105 O   0  0  0  0  0  0  0  0  0  0  0  0
    6.0049  -13.4018   26.5217 N   0  0  0  0  0  0  0  0  0  0  0  0
    7.0190  -13.6684   25.5726 C   0  0  0  0  0  0  0  0  0  0  0  0
    8.2048  -13.7962   25.9719 O   0  0  0  0  0  0  0  0  0  0  0  0
    6.7642  -13.8053   24.1415 C   0  0  0  0  0  0  0  0  0  0  0  0
    7.9180  -14.2669   23.3124 C   0  0  2  0  0  0  0  0  0  0  0  0
    7.6093  -14.2253   21.9315 N   0  0  0  0  0  0  0  0  0  0  0  0
    8.4677  -15.5530   23.7873 C   0  0  0  0  0  0  0  0  0  0  0  0
    7.6629  -16.5260   23.8097 O   0  0  0  0  0  0  0  0  0  0  0  0
   11.6488  -17.3239   23.8450 C   0  0  0  0  0  0  0  0  0  0  0  0
   10.3645  -17.0401   24.5365 C   0  0  2  0  0  0  0  0  0  0  0  0
    9.8024  -15.7474   24.2047 N   0  0  0  0  0  0  0  0  0  0  0  0
   10.5321  -17.2012   26.0063 C   0  0  0  0  0  0  0  0  0  0  0  0
   10.2207  -16.2336   26.7381 O   0  0  0  0  0  0  0  0  0  0  0  0
   11.0065  -18.3503   26.5740 O   0  0  0  0  0  0  0  0  0  0  0  0
  2  1  1  1
  2  3  1  0
  2  4  1  0
  4  5  2  0
  7  6  1  0
  7  9  1  0
  8  7  2  0
 10  9  1  1
 11  4  1  0
 11 10  1  0
 12 10  1  0
 12 16  1  0
 13 12  2  0
 15 16  1  0
 15 14  1  6
 17 15  1  0
 17 19  1  0
 18 17  2  0
M  END
$$$$
