YGC.pdb
     RDKit          3D

 23 23  0  0  1  0  0  0  0  0999 V2000
   11.3969  -14.8539   30.5915 O   0  0  0  0  0  0  0  0  0  0  0  0
   10.4700  -14.9296   29.5476 C   0  0  0  0  0  0  0  0  0  0  0  0
    9.8215  -16.1272   29.2947 C   0  0  0  0  0  0  0  0  0  0  0  0
    8.9085  -16.2167   28.2726 C   0  0  0  0  0  0  0  0  0  0  0  0
    8.5909  -15.1492   27.4589 C   0  0  0  0  0  0  0  0  0  0  0  0
    7.6151  -15.2268   26.3591 C   0  0  0  0  0  0  0  0  0  0  0  0
    8.0034  -16.3278   25.4186 C   0  0  2  0  0  0  0  0  0  0  0  0
    9.3574  -16.1306   24.9875 N   0  0  0  0  0  0  0  0  0  0  0  0
    7.0550  -16.4533   24.2855 C   0  0  0  0  0  0  0  0  0  0  0  0
    6.4169  -15.4284   23.9386 O   0  0  0  0  0  0  0  0  0  0  0  0
    9.2441  -13.9452   27.7146 C   0  0  0  0  0  0  0  0  0  0  0  0
   10.1614  -13.8587   28.7429 C   0  0  0  0  0  0  0  0  0  0  0  0
    6.8323  -17.6559   23.5799 N   0  0  0  0  0  0  0  0  0  0  0  0
    6.0706  -17.8001   22.3853 C   0  0  0  0  0  0  0  0  0  0  0  0
    6.5632  -17.0837   21.2054 C   0  0  0  0  0  0  0  0  0  0  0  0
    5.9661  -17.2709   20.0862 O   0  0  0  0  0  0  0  0  0  0  0  0
    7.6574  -16.1908   21.1859 N   0  0  0  0  0  0  0  0  0  0  0  0
    8.2453  -15.6092   19.9945 C   0  0  1  0  0  0  0  0  0  0  0  0
    8.2774  -14.1163   20.1770 C   0  0  0  0  0  0  0  0  0  0  0  0
    6.7004  -13.4767   20.7997 S   0  0  0  0  0  0  0  0  0  0  0  0
    9.6502  -16.0782   19.7773 C   0  0  0  0  0  0  0  0  0  0  0  0
   10.4052  -15.7488   18.6664 O   0  0  0  0  0  0  0  0  0  0  0  0
   10.2271  -16.8170   20.6256 O   0  0  0  0  0  0  0  0  0  0  0  0
  2  1  1  0
  2  3  2  0
  4  3  1  0
  5  4  2  0
  6  5  1  0
  7  6  1  0
  7  9  1  0
  7  8  1  6
  9 10  2  0
  9 13  1  0
 11 12  2  0
 11  5  1  0
 12  2  1  0
 13 14  1  0
 14 15  1  0
 15 17  1  0
 16 15  2  0
 17 18  1  0
 18 21  1  0
 18 19  1  1
 19 20  1  0
 21 22  1  0
 23 21  2  0
M  END
$$$$
