YGC.pdb
     RDKit          3D

 23 23  0  0  1  0  0  0  0  0999 V2000
   10.7636  -13.6160   30.2943 O   0  0  0  0  0  0  0  0  0  0  0  0
   10.3361  -14.3942   29.2143 C   0  0  0  0  0  0  0  0  0  0  0  0
    9.7977  -13.7766   28.0974 C   0  0  0  0  0  0  0  0  0  0  0  0
    9.3735  -14.5280   27.0289 C   0  0  0  0  0  0  0  0  0  0  0  0
    9.4556  -15.9047   27.0041 C   0  0  0  0  0  0  0  0  0  0  0  0
    9.0060  -16.7260   25.8679 C   0  0  0  0  0  0  0  0  0  0  0  0
    8.1349  -15.9040   24.9663 C   0  0  2  0  0  0  0  0  0  0  0  0
    6.9592  -15.4975   25.6808 N   0  0  0  0  0  0  0  0  0  0  0  0
    7.8195  -16.6098   23.7007 C   0  0  0  0  0  0  0  0  0  0  0  0
    8.7402  -17.2611   23.1473 O   0  0  0  0  0  0  0  0  0  0  0  0
    9.9974  -16.5244   28.1284 C   0  0  0  0  0  0  0  0  0  0  0  0
   10.4229  -15.7659   29.2009 C   0  0  0  0  0  0  0  0  0  0  0  0
    6.5475  -16.5890   23.0882 N   0  0  0  0  0  0  0  0  0  0  0  0
    6.2345  -17.0722   21.7858 C   0  0  0  0  0  0  0  0  0  0  0  0
    7.0280  -16.5302   20.6791 C   0  0  0  0  0  0  0  0  0  0  0  0
    7.0743  -17.1920   19.5819 O   0  0  0  0  0  0  0  0  0  0  0  0
    7.7624  -15.3242   20.7106 N   0  0  0  0  0  0  0  0  0  0  0  0
    8.6155  -14.8327   19.6457 C   0  0  1  0  0  0  0  0  0  0  0  0
    8.5427  -13.3302   19.6519 C   0  0  0  0  0  0  0  0  0  0  0  0
    6.8320  -12.7355   19.5927 S   0  0  0  0  0  0  0  0  0  0  0  0
   10.0457  -15.2266   19.8471 C   0  0  0  0  0  0  0  0  0  0  0  0
   11.0468  -14.9757   18.9267 O   0  0  0  0  0  0  0  0  0  0  0  0
   10.4135  -15.8223   20.8998 O   0  0  0  0  0  0  0  0  0  0  0  0
  2  1  1  0
  2  3  2  0
  4  3  1  0
  5  4  2  0
  6  5  1  0
  7  6  1  0
  7  9  1  0
  7  8  1  1
  9 10  2  0
  9 13  1  0
 11 12  2  0
 11  5  1  0
 12  2  1  0
 13 14  1  0
 14 15  1  0
 15 17  1  0
 16 15  2  0
 17 18  1  0
 18 21  1  0
 18 19  1  1
 19 20  1  0
 21 22  1  0
 23 21  2  0
M  END
$$$$
