YGC.pdb
     RDKit          3D

 23 23  0  0  1  0  0  0  0  0999 V2000
   11.4912  -14.5582   29.8782 O   0  0  0  0  0  0  0  0  0  0  0  0
   10.4239  -14.7896   29.0051 C   0  0  0  0  0  0  0  0  0  0  0  0
    9.9577  -16.0811   28.8225 C   0  0  0  0  0  0  0  0  0  0  0  0
    8.9101  -16.3238   27.9682 C   0  0  0  0  0  0  0  0  0  0  0  0
    8.2766  -15.3239   27.2600 C   0  0  0  0  0  0  0  0  0  0  0  0
    7.1527  -15.5654   26.3401 C   0  0  0  0  0  0  0  0  0  0  0  0
    7.6120  -16.4209   25.1980 C   0  0  2  0  0  0  0  0  0  0  0  0
    8.5894  -15.7051   24.4297 N   0  0  0  0  0  0  0  0  0  0  0  0
    6.4786  -16.9048   24.3730 C   0  0  0  0  0  0  0  0  0  0  0  0
    5.4797  -16.1531   24.2503 O   0  0  0  0  0  0  0  0  0  0  0  0
    8.7468  -14.0253   27.4447 C   0  0  0  0  0  0  0  0  0  0  0  0
    9.8002  -13.7849   28.3044 C   0  0  0  0  0  0  0  0  0  0  0  0
    6.4623  -18.1577   23.7222 N   0  0  0  0  0  0  0  0  0  0  0  0
    7.3444  -18.5773   22.6859 C   0  0  0  0  0  0  0  0  0  0  0  0
    7.4541  -17.6926   21.5226 C   0  0  0  0  0  0  0  0  0  0  0  0
    7.0592  -18.1317   20.3844 O   0  0  0  0  0  0  0  0  0  0  0  0
    7.9666  -16.3766   21.5389 N   0  0  0  0  0  0  0  0  0  0  0  0
    8.7541  -15.7692   20.4833 C   0  0  1  0  0  0  0  0  0  0  0  0
    8.3620  -14.3198   20.3904 C   0  0  0  0  0  0  0  0  0  0  0  0
    6.8054  -13.9833   21.2549 S   0  0  0  0  0  0  0  0  0  0  0  0
   10.2216  -15.8330   20.7720 C   0  0  0  0  0  0  0  0  0  0  0  0
   11.1992  -15.5073   19.8497 O   0  0  0  0  0  0  0  0  0  0  0  0
   10.6455  -16.1967   21.9062 O   0  0  0  0  0  0  0  0  0  0  0  0
  2  1  1  0
  2  3  2  0
  4  3  1  0
  5  4  2  0
  6  5  1  0
  7  6  1  0
  7  9  1  0
  7  8  1  6
  9 10  2  0
  9 13  1  0
 11 12  2  0
 11  5  1  0
 12  2  1  0
 13 14  1  0
 14 15  1  0
 15 17  1  0
 16 15  2  0
 17 18  1  0
 18 21  1  0
 18 19  1  1
 19 20  1  0
 21 22  1  0
 23 21  2  0
M  END
$$$$
