YGC.pdb
     RDKit          3D

 23 23  0  0  1  0  0  0  0  0999 V2000
    8.6594  -12.7588   16.7036 O   0  0  0  0  0  0  0  0  0  0  0  0
    8.2311  -13.1296   17.9818 C   0  0  0  0  0  0  0  0  0  0  0  0
    7.2862  -14.1327   18.1218 C   0  0  0  0  0  0  0  0  0  0  0  0
    6.8558  -14.5078   19.3710 C   0  0  0  0  0  0  0  0  0  0  0  0
    7.3255  -13.9244   20.5293 C   0  0  0  0  0  0  0  0  0  0  0  0
    6.8757  -14.3134   21.8762 C   0  0  0  0  0  0  0  0  0  0  0  0
    7.9739  -15.0528   22.5795 C   0  0  2  0  0  0  0  0  0  0  0  0
    8.4056  -16.1521   21.7651 N   0  0  0  0  0  0  0  0  0  0  0  0
    7.5769  -15.4740   23.9449 C   0  0  0  0  0  0  0  0  0  0  0  0
    7.2557  -14.5781   24.7647 O   0  0  0  0  0  0  0  0  0  0  0  0
    8.2759  -12.9155   20.3868 C   0  0  0  0  0  0  0  0  0  0  0  0
    8.7064  -12.5410   19.1294 C   0  0  0  0  0  0  0  0  0  0  0  0
    7.5408  -16.8199   24.3699 N   0  0  0  0  0  0  0  0  0  0  0  0
    7.1776  -17.2815   25.6672 C   0  0  0  0  0  0  0  0  0  0  0  0
    8.1444  -17.0393   26.7418 C   0  0  0  0  0  0  0  0  0  0  0  0
    7.7674  -17.2250   27.9532 O   0  0  0  0  0  0  0  0  0  0  0  0
    9.4779  -16.6096   26.5633 N   0  0  0  0  0  0  0  0  0  0  0  0
   10.2133  -15.7537   27.4744 C   0  0  1  0  0  0  0  0  0  0  0  0
    9.2137  -14.9596   28.2701 C   0  0  0  0  0  0  0  0  0  0  0  0
    8.8262  -13.3750   27.4810 S   0  0  0  0  0  0  0  0  0  0  0  0
   11.0458  -16.5436   28.4357 C   0  0  0  0  0  0  0  0  0  0  0  0
   11.9149  -15.9716   29.3467 O   0  0  0  0  0  0  0  0  0  0  0  0
   10.9888  -17.8063   28.4595 O   0  0  0  0  0  0  0  0  0  0  0  0
  2  1  1  0
  2  3  2  0
  4  3  1  0
  5  4  2  0
  6  5  1  0
  7  6  1  0
  7  9  1  0
  7  8  1  6
  9 10  2  0
  9 13  1  0
 11 12  2  0
 11  5  1  0
 12  2  1  0
 13 14  1  0
 14 15  1  0
 15 17  1  0
 16 15  2  0
 17 18  1  0
 18 21  1  0
 18 19  1  1
 19 20  1  0
 21 22  1  0
 23 21  2  0
M  END
$$$$
