YGC.pdb
     RDKit          3D

 23 23  0  0  1  0  0  0  0  0999 V2000
   13.5565  -20.7781   10.3698 O   0  0  0  0  0  0  0  0  0  0  0  0
   13.0474  -20.6936   11.6692 C   0  0  0  0  0  0  0  0  0  0  0  0
   12.8095  -19.4499   12.2306 C   0  0  0  0  0  0  0  0  0  0  0  0
   12.3095  -19.3511   13.5061 C   0  0  0  0  0  0  0  0  0  0  0  0
   12.0222  -20.4538   14.2833 C   0  0  0  0  0  0  0  0  0  0  0  0
   11.4861  -20.3670   15.6518 C   0  0  0  0  0  0  0  0  0  0  0  0
   12.6047  -20.1051   16.6148 C   0  0  2  0  0  0  0  0  0  0  0  0
   13.6412  -21.0770   16.4166 N   0  0  0  0  0  0  0  0  0  0  0  0
   12.1307  -20.0531   18.0190 C   0  0  0  0  0  0  0  0  0  0  0  0
   12.4831  -20.9788   18.7916 O   0  0  0  0  0  0  0  0  0  0  0  0
   12.2621  -21.7042   13.7171 C   0  0  0  0  0  0  0  0  0  0  0  0
   12.7648  -21.7998   12.4346 C   0  0  0  0  0  0  0  0  0  0  0  0
   11.3094  -19.0250   18.5309 N   0  0  0  0  0  0  0  0  0  0  0  0
   10.8842  -18.8843   19.8827 C   0  0  0  0  0  0  0  0  0  0  0  0
   11.6955  -18.0112   20.7358 C   0  0  0  0  0  0  0  0  0  0  0  0
   12.8038  -17.5646   20.2708 O   0  0  0  0  0  0  0  0  0  0  0  0
   11.3642  -17.6102   22.0490 N   0  0  0  0  0  0  0  0  0  0  0  0
   12.0907  -16.6330   22.8368 C   0  0  1  0  0  0  0  0  0  0  0  0
   11.1589  -16.1076   23.8944 C   0  0  0  0  0  0  0  0  0  0  0  0
    9.6634  -15.3781   23.1768 S   0  0  0  0  0  0  0  0  0  0  0  0
   13.2756  -17.2370   23.5240 C   0  0  0  0  0  0  0  0  0  0  0  0
   14.3421  -16.4988   24.0038 O   0  0  0  0  0  0  0  0  0  0  0  0
   13.3559  -18.4859   23.7034 O   0  0  0  0  0  0  0  0  0  0  0  0
  2  1  1  0
  2  3  2  0
  4  3  1  0
  5  4  2  0
  6  5  1  0
  7  6  1  0
  7  9  1  0
  7  8  1  1
  9 10  2  0
  9 13  1  0
 11 12  2  0
 11  5  1  0
 12  2  1  0
 13 14  1  0
 14 15  1  0
 15 17  1  0
 16 15  2  0
 17 18  1  0
 18 21  1  0
 18 19  1  1
 19 20  1  0
 21 22  1  0
 23 21  2  0
M  END
$$$$
