YGC.pdb
     RDKit          3D

 23 23  0  0  1  0  0  0  0  0999 V2000
    5.0252  -11.0915   27.4460 O   0  0  0  0  0  0  0  0  0  0  0  0
    5.8672  -11.9918   26.7864 C   0  0  0  0  0  0  0  0  0  0  0  0
    7.0516  -11.5379   26.2298 C   0  0  0  0  0  0  0  0  0  0  0  0
    7.8889  -12.4107   25.5788 C   0  0  0  0  0  0  0  0  0  0  0  0
    7.6086  -13.7545   25.4438 C   0  0  0  0  0  0  0  0  0  0  0  0
    8.4939  -14.7042   24.7496 C   0  0  0  0  0  0  0  0  0  0  0  0
    7.8572  -15.1379   23.4635 C   0  0  2  0  0  0  0  0  0  0  0  0
    7.0236  -16.2800   23.7061 N   0  0  0  0  0  0  0  0  0  0  0  0
    8.8604  -15.3781   22.3981 C   0  0  0  0  0  0  0  0  0  0  0  0
    9.6263  -14.4314   22.0897 O   0  0  0  0  0  0  0  0  0  0  0  0
    6.4168  -14.2095   26.0043 C   0  0  0  0  0  0  0  0  0  0  0  0
    5.5774  -13.3294   26.6580 C   0  0  0  0  0  0  0  0  0  0  0  0
    8.9998  -16.6064   21.7160 N   0  0  0  0  0  0  0  0  0  0  0  0
    9.9226  -16.8850   20.6678 C   0  0  0  0  0  0  0  0  0  0  0  0
   11.2578  -17.3328   21.0741 C   0  0  0  0  0  0  0  0  0  0  0  0
   12.1245  -17.5708   20.1596 O   0  0  0  0  0  0  0  0  0  0  0  0
   11.6857  -17.5326   22.4052 N   0  0  0  0  0  0  0  0  0  0  0  0
   12.9462  -18.1311   22.8009 C   0  0  1  0  0  0  0  0  0  0  0  0
   13.3977  -17.4602   24.0694 C   0  0  0  0  0  0  0  0  0  0  0  0
   13.4532  -15.6570   23.8985 S   0  0  0  0  0  0  0  0  0  0  0  0
   12.8082  -19.5959   23.0770 C   0  0  0  0  0  0  0  0  0  0  0  0
   13.8670  -20.4124   23.4304 O   0  0  0  0  0  0  0  0  0  0  0  0
   11.6840  -20.1688   22.9988 O   0  0  0  0  0  0  0  0  0  0  0  0
  2  1  1  0
  2  3  2  0
  4  3  1  0
  5  4  2  0
  6  5  1  0
  7  6  1  0
  7  9  1  0
  7  8  1  1
  9 10  2  0
  9 13  1  0
 11 12  2  0
 11  5  1  0
 12  2  1  0
 13 14  1  0
 14 15  1  0
 15 17  1  0
 16 15  2  0
 17 18  1  0
 18 21  1  0
 18 19  1  1
 19 20  1  0
 21 22  1  0
 23 21  2  0
M  END
$$$$
