YGC.pdb
     RDKit          3D

 23 23  0  0  1  0  0  0  0  0999 V2000
    5.7468  -11.0266   27.6931 O   0  0  0  0  0  0  0  0  0  0  0  0
    6.3990  -11.9761   26.9007 C   0  0  0  0  0  0  0  0  0  0  0  0
    5.7983  -13.2027   26.6698 C   0  0  0  0  0  0  0  0  0  0  0  0
    6.4270  -14.1453   25.8936 C   0  0  0  0  0  0  0  0  0  0  0  0
    7.6602  -13.9333   25.3131 C   0  0  0  0  0  0  0  0  0  0  0  0
    8.3487  -14.9318   24.4784 C   0  0  0  0  0  0  0  0  0  0  0  0
    7.4022  -15.4615   23.4435 C   0  0  2  0  0  0  0  0  0  0  0  0
    6.8674  -16.7172   23.8854 N   0  0  0  0  0  0  0  0  0  0  0  0
    8.0325  -15.5480   22.1040 C   0  0  0  0  0  0  0  0  0  0  0  0
    8.5629  -14.5093   21.6373 O   0  0  0  0  0  0  0  0  0  0  0  0
    8.2631  -12.6990   25.5463 C   0  0  0  0  0  0  0  0  0  0  0  0
    7.6283  -11.7536   26.3273 C   0  0  0  0  0  0  0  0  0  0  0  0
    8.0680  -16.7281   21.3297 N   0  0  0  0  0  0  0  0  0  0  0  0
    8.6764  -16.8755   20.0507 C   0  0  0  0  0  0  0  0  0  0  0  0
   10.1344  -17.0240   20.0334 C   0  0  0  0  0  0  0  0  0  0  0  0
   10.7089  -17.2620   18.9120 O   0  0  0  0  0  0  0  0  0  0  0  0
   10.9815  -16.9298   21.1596 N   0  0  0  0  0  0  0  0  0  0  0  0
   12.3643  -17.3644   21.2087 C   0  0  1  0  0  0  0  0  0  0  0  0
   13.1907  -16.2174   21.7232 C   0  0  0  0  0  0  0  0  0  0  0  0
   13.1594  -14.8007   20.5937 S   0  0  0  0  0  0  0  0  0  0  0  0
   12.5543  -18.5233   22.1370 C   0  0  0  0  0  0  0  0  0  0  0  0
   11.5298  -19.0947   22.8695 O   0  0  0  0  0  0  0  0  0  0  0  0
   13.6933  -19.0483   22.2963 O   0  0  0  0  0  0  0  0  0  0  0  0
  2  1  1  0
  2  3  2  0
  4  3  1  0
  5  4  2  0
  6  5  1  0
  7  6  1  0
  7  9  1  0
  7  8  1  1
  9 10  2  0
  9 13  1  0
 11 12  2  0
 11  5  1  0
 12  2  1  0
 13 14  1  0
 14 15  1  0
 15 17  1  0
 16 15  2  0
 17 18  1  0
 18 21  1  0
 18 19  1  1
 19 20  1  0
 21 22  1  0
 23 21  2  0
M  END
$$$$
