YGC.pdb
     RDKit          3D

 23 23  0  0  1  0  0  0  0  0999 V2000
   12.3289  -17.3406   31.7162 O   0  0  0  0  0  0  0  0  0  0  0  0
   12.0327  -17.2257   30.3546 C   0  0  0  0  0  0  0  0  0  0  0  0
   12.6508  -18.0699   29.4469 C   0  0  0  0  0  0  0  0  0  0  0  0
   12.3699  -17.9688   28.1063 C   0  0  0  0  0  0  0  0  0  0  0  0
   11.4800  -17.0462   27.5971 C   0  0  0  0  0  0  0  0  0  0  0  0
   11.1667  -16.9235   26.1637 C   0  0  0  0  0  0  0  0  0  0  0  0
    9.6803  -16.8729   25.9759 C   0  0  2  0  0  0  0  0  0  0  0  0
    9.1535  -18.2073   25.9840 N   0  0  0  0  0  0  0  0  0  0  0  0
    9.2974  -16.1143   24.7605 C   0  0  0  0  0  0  0  0  0  0  0  0
    9.9601  -15.0850   24.4788 O   0  0  0  0  0  0  0  0  0  0  0  0
   10.8590  -16.1976   28.5114 C   0  0  0  0  0  0  0  0  0  0  0  0
   11.1438  -16.3020   29.8585 C   0  0  0  0  0  0  0  0  0  0  0  0
    8.2344  -16.4848   23.9084 N   0  0  0  0  0  0  0  0  0  0  0  0
    7.7492  -15.7379   22.7973 C   0  0  0  0  0  0  0  0  0  0  0  0
    7.2480  -14.3907   23.0838 C   0  0  0  0  0  0  0  0  0  0  0  0
    7.0559  -13.5907   22.1004 O   0  0  0  0  0  0  0  0  0  0  0  0
    6.9536  -13.8814   24.3679 N   0  0  0  0  0  0  0  0  0  0  0  0
    7.0032  -12.4826   24.7479 C   0  0  1  0  0  0  0  0  0  0  0  0
    5.6222  -12.0725   25.1809 C   0  0  0  0  0  0  0  0  0  0  0  0
    5.1225  -12.8946   26.7166 S   0  0  0  0  0  0  0  0  0  0  0  0
    7.9358  -12.2469   25.8949 C   0  0  0  0  0  0  0  0  0  0  0  0
    8.5655  -13.2618   26.5920 O   0  0  0  0  0  0  0  0  0  0  0  0
    8.1988  -11.0745   26.2883 O   0  0  0  0  0  0  0  0  0  0  0  0
  2  1  1  0
  2  3  2  0
  4  3  1  0
  5  4  2  0
  6  5  1  0
  7  6  1  0
  7  9  1  0
  7  8  1  6
  9 10  2  0
  9 13  1  0
 11 12  2  0
 11  5  1  0
 12  2  1  0
 13 14  1  0
 14 15  1  0
 15 17  1  0
 16 15  2  0
 17 18  1  0
 18 21  1  0
 18 19  1  1
 19 20  1  0
 21 22  1  0
 23 21  2  0
M  END
$$$$
