YGC.pdb
     RDKit          3D

 23 23  0  0  1  0  0  0  0  0999 V2000
   11.1967  -15.0379   30.3101 O   0  0  0  0  0  0  0  0  0  0  0  0
   10.9374  -15.8453   29.1985 C   0  0  0  0  0  0  0  0  0  0  0  0
   11.9010  -16.7408   28.7645 C   0  0  0  0  0  0  0  0  0  0  0  0
   11.6606  -17.5405   27.6740 C   0  0  0  0  0  0  0  0  0  0  0  0
   10.4781  -17.5012   26.9650 C   0  0  0  0  0  0  0  0  0  0  0  0
   10.2032  -18.3506   25.7942 C   0  0  0  0  0  0  0  0  0  0  0  0
   10.6179  -17.6342   24.5443 C   0  0  2  0  0  0  0  0  0  0  0  0
   11.9438  -17.1128   24.7117 N   0  0  0  0  0  0  0  0  0  0  0  0
    9.6396  -16.5924   24.1482 C   0  0  0  0  0  0  0  0  0  0  0  0
    9.7334  -15.4633   24.6907 O   0  0  0  0  0  0  0  0  0  0  0  0
    9.5099  -16.5999   27.4028 C   0  0  0  0  0  0  0  0  0  0  0  0
    9.7549  -15.7974   28.4995 C   0  0  0  0  0  0  0  0  0  0  0  0
    8.6146  -16.8005   23.1997 N   0  0  0  0  0  0  0  0  0  0  0  0
    7.4352  -16.0162   23.0520 C   0  0  0  0  0  0  0  0  0  0  0  0
    7.5378  -14.6036   23.4290 C   0  0  0  0  0  0  0  0  0  0  0  0
    8.2702  -13.8337   22.7115 O   0  0  0  0  0  0  0  0  0  0  0  0
    6.8941  -14.0007   24.5321 N   0  0  0  0  0  0  0  0  0  0  0  0
    7.0840  -12.6309   24.9691 C   0  0  1  0  0  0  0  0  0  0  0  0
    5.7293  -12.0501   25.2702 C   0  0  0  0  0  0  0  0  0  0  0  0
    4.7945  -13.0801   26.4316 S   0  0  0  0  0  0  0  0  0  0  0  0
    7.9085  -12.5502   26.2160 C   0  0  0  0  0  0  0  0  0  0  0  0
    8.2786  -13.6537   26.9629 O   0  0  0  0  0  0  0  0  0  0  0  0
    8.3168  -11.4368   26.6542 O   0  0  0  0  0  0  0  0  0  0  0  0
  2  1  1  0
  2  3  2  0
  4  3  1  0
  5  4  2  0
  6  5  1  0
  7  6  1  0
  7  9  1  0
  7  8  1  1
  9 10  2  0
  9 13  1  0
 11 12  2  0
 11  5  1  0
 12  2  1  0
 13 14  1  0
 14 15  1  0
 15 17  1  0
 16 15  2  0
 17 18  1  0
 18 21  1  0
 18 19  1  1
 19 20  1  0
 21 22  1  0
 23 21  2  0
M  END
$$$$
