YGC.pdb
     RDKit          3D

 23 23  0  0  1  0  0  0  0  0999 V2000
    7.5148  -11.3334   28.5582 O   0  0  0  0  0  0  0  0  0  0  0  0
    7.3059  -12.1782   27.4640 C   0  0  0  0  0  0  0  0  0  0  0  0
    8.0298  -13.3547   27.3605 C   0  0  0  0  0  0  0  0  0  0  0  0
    7.8354  -14.1945   26.2913 C   0  0  0  0  0  0  0  0  0  0  0  0
    6.9326  -13.9247   25.2840 C   0  0  0  0  0  0  0  0  0  0  0  0
    6.7111  -14.8129   24.1308 C   0  0  0  0  0  0  0  0  0  0  0  0
    7.6412  -15.9857   24.2130 C   0  0  2  0  0  0  0  0  0  0  0  0
    8.9237  -15.6142   23.6884 N   0  0  0  0  0  0  0  0  0  0  0  0
    7.0802  -17.1894   23.5529 C   0  0  0  0  0  0  0  0  0  0  0  0
    6.0584  -17.7144   24.0612 O   0  0  0  0  0  0  0  0  0  0  0  0
    6.2052  -12.7409   25.3894 C   0  0  0  0  0  0  0  0  0  0  0  0
    6.4032  -11.8989   26.4657 C   0  0  0  0  0  0  0  0  0  0  0  0
    7.6298  -17.7733   22.3908 N   0  0  0  0  0  0  0  0  0  0  0  0
    7.0168  -17.8251   21.1065 C   0  0  0  0  0  0  0  0  0  0  0  0
    7.5824  -16.9495   20.0762 C   0  0  0  0  0  0  0  0  0  0  0  0
    6.9672  -16.8517   18.9555 O   0  0  0  0  0  0  0  0  0  0  0  0
    8.7666  -16.1906   20.2051 N   0  0  0  0  0  0  0  0  0  0  0  0
    9.0522  -14.9545   19.5023 C   0  0  1  0  0  0  0  0  0  0  0  0
    7.9638  -13.9713   19.8365 C   0  0  0  0  0  0  0  0  0  0  0  0
    8.2137  -12.3783   19.0095 S   0  0  0  0  0  0  0  0  0  0  0  0
   10.3586  -14.3587   19.9257 C   0  0  0  0  0  0  0  0  0  0  0  0
   11.0533  -14.7572   21.0532 O   0  0  0  0  0  0  0  0  0  0  0  0
   10.9024  -13.4385   19.2506 O   0  0  0  0  0  0  0  0  0  0  0  0
  2  1  1  0
  2  3  2  0
  4  3  1  0
  5  4  2  0
  6  5  1  0
  7  6  1  0
  7  9  1  0
  7  8  1  6
  9 10  2  0
  9 13  1  0
 11 12  2  0
 11  5  1  0
 12  2  1  0
 13 14  1  0
 14 15  1  0
 15 17  1  0
 16 15  2  0
 17 18  1  0
 18 21  1  0
 18 19  1  1
 19 20  1  0
 21 22  1  0
 23 21  2  0
M  END
$$$$
