YGC.pdb
     RDKit          3D

 23 23  0  0  1  0  0  0  0  0999 V2000
   11.3065  -14.8043   30.1233 O   0  0  0  0  0  0  0  0  0  0  0  0
   10.4046  -14.8477   29.0558 C   0  0  0  0  0  0  0  0  0  0  0  0
    9.5839  -15.9525   28.8987 C   0  0  0  0  0  0  0  0  0  0  0  0
    8.6930  -16.0093   27.8549 C   0  0  0  0  0  0  0  0  0  0  0  0
    8.5654  -14.9977   26.9259 C   0  0  0  0  0  0  0  0  0  0  0  0
    7.6163  -15.0415   25.8011 C   0  0  0  0  0  0  0  0  0  0  0  0
    7.6633  -16.3935   25.1552 C   0  0  2  0  0  0  0  0  0  0  0  0
    9.0285  -16.8196   25.0408 N   0  0  0  0  0  0  0  0  0  0  0  0
    6.9465  -16.4165   23.8572 C   0  0  0  0  0  0  0  0  0  0  0  0
    5.9857  -15.6218   23.7038 O   0  0  0  0  0  0  0  0  0  0  0  0
    9.3916  -13.8871   27.0852 C   0  0  0  0  0  0  0  0  0  0  0  0
   10.2861  -13.8333   28.1358 C   0  0  0  0  0  0  0  0  0  0  0  0
    7.2840  -17.2785   22.7912 N   0  0  0  0  0  0  0  0  0  0  0  0
    6.7236  -17.2548   21.4822 C   0  0  0  0  0  0  0  0  0  0  0  0
    7.5118  -16.5821   20.4456 C   0  0  0  0  0  0  0  0  0  0  0  0
    7.6481  -17.1637   19.3111 O   0  0  0  0  0  0  0  0  0  0  0  0
    8.1492  -15.3294   20.5841 N   0  0  0  0  0  0  0  0  0  0  0  0
    9.0521  -14.7354   19.6169 C   0  0  1  0  0  0  0  0  0  0  0  0
    8.7848  -13.2553   19.5839 C   0  0  0  0  0  0  0  0  0  0  0  0
    7.0133  -12.8901   19.4725 S   0  0  0  0  0  0  0  0  0  0  0  0
   10.4870  -14.9372   19.9929 C   0  0  0  0  0  0  0  0  0  0  0  0
   11.5498  -14.5332   19.2057 O   0  0  0  0  0  0  0  0  0  0  0  0
   10.8008  -15.5012   21.0800 O   0  0  0  0  0  0  0  0  0  0  0  0
  2  1  1  0
  2  3  2  0
  4  3  1  0
  5  4  2  0
  6  5  1  0
  7  6  1  0
  7  9  1  0
  7  8  1  6
  9 10  2  0
  9 13  1  0
 11 12  2  0
 11  5  1  0
 12  2  1  0
 13 14  1  0
 14 15  1  0
 15 17  1  0
 16 15  2  0
 17 18  1  0
 18 21  1  0
 18 19  1  1
 19 20  1  0
 21 22  1  0
 23 21  2  0
M  END
$$$$
