GCG.pdb
     RDKit          3D

 15 14  0  0  1  0  0  0  0  0999 V2000
   19.8713  -15.8097  -16.8411 N   0  0  0  0  0  0  0  0  0  0  0  0
   20.8371  -14.9367  -17.4575 C   0  0  0  0  0  0  0  0  0  0  0  0
   21.3192  -13.9757  -16.4371 C   0  0  0  0  0  0  0  0  0  0  0  0
   20.5304  -13.5446  -15.5360 O   0  0  0  0  0  0  0  0  0  0  0  0
   22.6621  -13.5100  -16.4318 N   0  0  0  0  0  0  0  0  0  0  0  0
   23.1586  -12.5147  -15.5444 C   0  0  1  0  0  0  0  0  0  0  0  0
   24.6659  -12.6397  -15.3419 C   0  0  0  0  0  0  0  0  0  0  0  0
   25.0245  -14.3202  -14.7463 S   0  0  0  0  0  0  0  0  0  0  0  0
   22.8017  -11.1376  -15.9253 C   0  0  0  0  0  0  0  0  0  0  0  0
   22.8937  -10.8332  -17.1478 O   0  0  0  0  0  0  0  0  0  0  0  0
   22.3684  -10.1610  -14.9964 N   0  0  0  0  0  0  0  0  0  0  0  0
   21.8785   -8.8832  -15.4641 C   0  0  0  0  0  0  0  0  0  0  0  0
   21.5895   -7.9684  -14.3077 C   0  0  0  0  0  0  0  0  0  0  0  0
   21.3269   -6.7587  -14.5201 O   0  0  0  0  0  0  0  0  0  0  0  0
   21.6245   -8.5031  -13.0354 O   0  0  0  0  0  0  0  0  0  0  0  0
  1  2  1  0
  3  4  2  0
  3  2  1  0
  5  3  1  0
  6  9  1  0
  6  5  1  0
  7  8  1  0
  6  7  1  6
  9 11  1  0
 10  9  2  0
 11 12  1  0
 12 13  1  0
 13 14  2  0
 13 15  1  0
M  END
$$$$
