GCG.pdb
     RDKit          3D

 15 14  0  0  1  0  0  0  0  0999 V2000
   23.3637  -14.1259  -17.5577 N   0  0  0  0  0  0  0  0  0  0  0  0
   23.8666  -12.9500  -18.2205 C   0  0  0  0  0  0  0  0  0  0  0  0
   24.0130  -11.8712  -17.2146 C   0  0  0  0  0  0  0  0  0  0  0  0
   23.0516  -11.5886  -16.4298 O   0  0  0  0  0  0  0  0  0  0  0  0
   25.2175  -11.1261  -17.0950 N   0  0  0  0  0  0  0  0  0  0  0  0
   25.3578   -9.9577  -16.2952 C   0  0  1  0  0  0  0  0  0  0  0  0
   26.8075   -9.4854  -16.2344 C   0  0  0  0  0  0  0  0  0  0  0  0
   27.7964  -10.7805  -15.4269 S   0  0  0  0  0  0  0  0  0  0  0  0
   24.4704   -8.8501  -16.6884 C   0  0  0  0  0  0  0  0  0  0  0  0
   23.8507   -8.9659  -17.7831 O   0  0  0  0  0  0  0  0  0  0  0  0
   24.2871   -7.6846  -15.9058 N   0  0  0  0  0  0  0  0  0  0  0  0
   23.3006   -7.6696  -14.8485 C   0  0  0  0  0  0  0  0  0  0  0  0
   21.9101   -7.6901  -15.4175 C   0  0  0  0  0  0  0  0  0  0  0  0
   21.3478   -6.6111  -15.7289 O   0  0  0  0  0  0  0  0  0  0  0  0
   21.2951   -8.9155  -15.5785 O   0  0  0  0  0  0  0  0  0  0  0  0
  1  2  1  0
  3  4  2  0
  3  2  1  0
  5  3  1  0
  6  9  1  0
  6  5  1  0
  7  8  1  0
  6  7  1  6
  9 11  1  0
 10  9  2  0
 11 12  1  0
 12 13  1  0
 13 14  2  0
 13 15  1  0
M  END
$$$$
