GCG.pdb
     RDKit          3D

 15 14  0  0  1  0  0  0  0  0999 V2000
   11.5764  -10.4625  -10.7433 N   0  0  0  0  0  0  0  0  0  0  0  0
   12.5566  -10.6688  -11.7784 C   0  0  0  0  0  0  0  0  0  0  0  0
   13.6786   -9.7260  -11.5563 C   0  0  0  0  0  0  0  0  0  0  0  0
   13.5630   -8.7743  -10.7191 O   0  0  0  0  0  0  0  0  0  0  0  0
   14.9056   -9.8526  -12.2626 N   0  0  0  0  0  0  0  0  0  0  0  0
   15.9902   -8.9385  -12.1494 C   0  0  1  0  0  0  0  0  0  0  0  0
   17.3274   -9.6620  -12.0200 C   0  0  0  0  0  0  0  0  0  0  0  0
   17.3198  -10.6017  -10.4629 S   0  0  0  0  0  0  0  0  0  0  0  0
   16.0475   -7.9373  -13.2279 C   0  0  0  0  0  0  0  0  0  0  0  0
   15.9209   -8.3557  -14.4131 O   0  0  0  0  0  0  0  0  0  0  0  0
   16.2348   -6.5534  -12.9956 N   0  0  0  0  0  0  0  0  0  0  0  0
   16.2987   -5.6338  -14.1099 C   0  0  0  0  0  0  0  0  0  0  0  0
   16.5134   -4.2271  -13.6273 C   0  0  0  0  0  0  0  0  0  0  0  0
   16.4638   -3.9752  -12.3978 O   0  0  0  0  0  0  0  0  0  0  0  0
   16.7608   -3.2502  -14.5708 O   0  0  0  0  0  0  0  0  0  0  0  0
  1  2  1  0
  3  4  2  0
  3  2  1  0
  5  3  1  0
  6  9  1  0
  6  5  1  0
  7  8  1  0
  6  7  1  6
  9 11  1  0
 10  9  2  0
 11 12  1  0
 12 13  1  0
 13 14  2  0
 13 15  1  0
M  END
$$$$
