GCG.pdb
     RDKit          3D

 15 14  0  0  1  0  0  0  0  0999 V2000
   28.9869  -34.1827   -5.4173 N   0  0  0  0  0  0  0  0  0  0  0  0
   30.4144  -33.9936   -5.3846 C   0  0  0  0  0  0  0  0  0  0  0  0
   30.9801  -34.8731   -4.3341 C   0  0  0  0  0  0  0  0  0  0  0  0
   30.2244  -35.6596   -3.6781 O   0  0  0  0  0  0  0  0  0  0  0  0
   32.3682  -34.8669   -4.0288 N   0  0  0  0  0  0  0  0  0  0  0  0
   32.9841  -35.7442   -3.0930 C   0  0  1  0  0  0  0  0  0  0  0  0
   34.4838  -35.8743   -3.3429 C   0  0  0  0  0  0  0  0  0  0  0  0
   34.7314  -36.4113   -5.0628 S   0  0  0  0  0  0  0  0  0  0  0  0
   32.7237  -35.3999   -1.6850 C   0  0  0  0  0  0  0  0  0  0  0  0
   32.6977  -34.1732   -1.3846 O   0  0  0  0  0  0  0  0  0  0  0  0
   32.5057  -36.3676   -0.6749 N   0  0  0  0  0  0  0  0  0  0  0  0
   32.3835  -35.9580    0.7067 C   0  0  0  0  0  0  0  0  0  0  0  0
   30.9385  -35.8262    1.0969 C   0  0  0  0  0  0  0  0  0  0  0  0
   30.6332  -35.6191    2.2975 O   0  0  0  0  0  0  0  0  0  0  0  0
   29.9871  -35.9398    0.1031 O   0  0  0  0  0  0  0  0  0  0  0  0
  1  2  1  0
  3  4  2  0
  3  2  1  0
  5  3  1  0
  6  9  1  0
  6  5  1  0
  7  8  1  0
  6  7  1  1
  9 11  1  0
 10  9  2  0
 11 12  1  0
 12 13  1  0
 13 14  2  0
 13 15  1  0
M  END
$$$$
