GCG.pdb
     RDKit          3D

 15 14  0  0  1  0  0  0  0  0999 V2000
   22.4609  -13.2770  -16.8871 N   0  0  0  0  0  0  0  0  0  0  0  0
   22.0863  -11.9911  -17.4172 C   0  0  0  0  0  0  0  0  0  0  0  0
   22.5543  -10.9430  -16.4795 C   0  0  0  0  0  0  0  0  0  0  0  0
   21.9532  -10.7543  -15.3736 O   0  0  0  0  0  0  0  0  0  0  0  0
   23.6763  -10.1242  -16.7812 N   0  0  0  0  0  0  0  0  0  0  0  0
   24.1368   -9.0634  -15.9521 C   0  0  1  0  0  0  0  0  0  0  0  0
   25.6544   -8.9167  -16.0132 C   0  0  0  0  0  0  0  0  0  0  0  0
   26.4004  -10.3473  -15.1738 S   0  0  0  0  0  0  0  0  0  0  0  0
   23.4826   -7.7699  -16.2124 C   0  0  0  0  0  0  0  0  0  0  0  0
   23.3929   -7.3988  -17.4165 O   0  0  0  0  0  0  0  0  0  0  0  0
   22.9608   -6.9421  -15.1892 N   0  0  0  0  0  0  0  0  0  0  0  0
   22.2780   -5.7134  -15.5289 C   0  0  0  0  0  0  0  0  0  0  0  0
   21.8470   -4.9835  -14.2882 C   0  0  0  0  0  0  0  0  0  0  0  0
   22.0414   -5.5017  -13.1607 O   0  0  0  0  0  0  0  0  0  0  0  0
   21.2441   -3.7509  -14.4394 O   0  0  0  0  0  0  0  0  0  0  0  0
  1  2  1  0
  3  4  2  0
  3  2  1  0
  5  3  1  0
  6  9  1  0
  6  5  1  0
  7  8  1  0
  6  7  1  6
  9 11  1  0
 10  9  2  0
 11 12  1  0
 12 13  1  0
 13 14  2  0
 13 15  1  0
M  END
$$$$
