GCG.pdb
     RDKit          3D

 15 14  0  0  1  0  0  0  0  0999 V2000
   14.9392  -14.9185  -12.4456 N   0  0  0  0  0  0  0  0  0  0  0  0
   16.0878  -14.0493  -12.4446 C   0  0  0  0  0  0  0  0  0  0  0  0
   15.6141  -12.6461  -12.5027 C   0  0  0  0  0  0  0  0  0  0  0  0
   14.8787  -12.2547  -13.4650 O   0  0  0  0  0  0  0  0  0  0  0  0
   15.9616  -11.7029  -11.4977 N   0  0  0  0  0  0  0  0  0  0  0  0
   15.5050  -10.3555  -11.4749 C   0  0  1  0  0  0  0  0  0  0  0  0
   14.7953  -10.0216  -10.1659 C   0  0  0  0  0  0  0  0  0  0  0  0
   13.3744  -11.1424   -9.9850 S   0  0  0  0  0  0  0  0  0  0  0  0
   16.5525   -9.3610  -11.7620 C   0  0  0  0  0  0  0  0  0  0  0  0
   17.5834   -9.3793  -11.0321 O   0  0  0  0  0  0  0  0  0  0  0  0
   16.4537   -8.4046  -12.8012 N   0  0  0  0  0  0  0  0  0  0  0  0
   17.5922   -7.5782  -13.1361 C   0  0  0  0  0  0  0  0  0  0  0  0
   17.2498   -6.6252  -14.2462 C   0  0  0  0  0  0  0  0  0  0  0  0
   16.1234   -6.6896  -14.7981 O   0  0  0  0  0  0  0  0  0  0  0  0
   18.2035   -5.7005  -14.6220 O   0  0  0  0  0  0  0  0  0  0  0  0
  1  2  1  0
  3  4  2  0
  3  2  1  0
  5  3  1  0
  6  9  1  0
  6  5  1  0
  7  8  1  0
  6  7  1  1
  9 11  1  0
 10  9  2  0
 11 12  1  0
 12 13  1  0
 13 14  2  0
 13 15  1  0
M  END
$$$$
