GCG.pdb
     RDKit          3D

 15 14  0  0  1  0  0  0  0  0999 V2000
   22.1536  -13.8327  -15.6962 N   0  0  0  0  0  0  0  0  0  0  0  0
   22.6224  -12.9125  -16.7004 C   0  0  0  0  0  0  0  0  0  0  0  0
   22.9474  -11.6251  -16.0416 C   0  0  0  0  0  0  0  0  0  0  0  0
   22.2364  -11.1992  -15.0756 O   0  0  0  0  0  0  0  0  0  0  0  0
   24.0506  -10.8337  -16.4621 N   0  0  0  0  0  0  0  0  0  0  0  0
   24.3412   -9.5357  -15.9564 C   0  0  1  0  0  0  0  0  0  0  0  0
   25.8321   -9.2199  -16.0344 C   0  0  0  0  0  0  0  0  0  0  0  0
   26.7093  -10.3173  -14.8796 S   0  0  0  0  0  0  0  0  0  0  0  0
   23.5524   -8.4583  -16.5774 C   0  0  0  0  0  0  0  0  0  0  0  0
   23.7210   -8.2560  -17.8129 O   0  0  0  0  0  0  0  0  0  0  0  0
   22.6316   -7.6562  -15.8611 N   0  0  0  0  0  0  0  0  0  0  0  0
   21.8966   -6.6132  -16.5418 C   0  0  0  0  0  0  0  0  0  0  0  0
   21.7228   -5.4161  -15.6504 C   0  0  0  0  0  0  0  0  0  0  0  0
   22.7335   -4.8295  -15.1899 O   0  0  0  0  0  0  0  0  0  0  0  0
   20.4368   -5.0012  -15.3680 O   0  0  0  0  0  0  0  0  0  0  0  0
  1  2  1  0
  3  4  2  0
  3  2  1  0
  5  3  1  0
  6  9  1  0
  6  5  1  0
  7  8  1  0
  6  7  1  6
  9 11  1  0
 10  9  2  0
 11 12  1  0
 12 13  1  0
 13 14  2  0
 13 15  1  0
M  END
$$$$
