GCG.pdb
     RDKit          3D

 15 14  0  0  1  0  0  0  0  0999 V2000
   19.7891  -11.4729  -16.8399 N   0  0  0  0  0  0  0  0  0  0  0  0
   19.5673  -10.1974  -17.4713 C   0  0  0  0  0  0  0  0  0  0  0  0
   19.6651   -9.1393  -16.4379 C   0  0  0  0  0  0  0  0  0  0  0  0
   18.6611   -8.8583  -15.7079 O   0  0  0  0  0  0  0  0  0  0  0  0
   20.8691   -8.4127  -16.2311 N   0  0  0  0  0  0  0  0  0  0  0  0
   21.0451   -7.4313  -15.2159 C   0  0  1  0  0  0  0  0  0  0  0  0
   22.1955   -7.7879  -14.2789 C   0  0  0  0  0  0  0  0  0  0  0  0
   22.2032   -6.5960  -12.9052 S   0  0  0  0  0  0  0  0  0  0  0  0
   21.2026   -6.0592  -15.7272 C   0  0  0  0  0  0  0  0  0  0  0  0
   21.9568   -5.8975  -16.7276 O   0  0  0  0  0  0  0  0  0  0  0  0
   20.5566   -4.9368  -15.1552 N   0  0  0  0  0  0  0  0  0  0  0  0
   20.6986   -3.6319  -15.7621 C   0  0  0  0  0  0  0  0  0  0  0  0
   19.9347   -2.5974  -14.9848 C   0  0  0  0  0  0  0  0  0  0  0  0
   19.9882   -1.3915  -15.3317 O   0  0  0  0  0  0  0  0  0  0  0  0
   19.1915   -3.0209  -13.9013 O   0  0  0  0  0  0  0  0  0  0  0  0
  1  2  1  0
  3  4  2  0
  3  2  1  0
  5  3  1  0
  6  9  1  0
  6  5  1  0
  7  8  1  0
  6  7  1  6
  9 11  1  0
 10  9  2  0
 11 12  1  0
 12 13  1  0
 13 14  2  0
 13 15  1  0
M  END
$$$$
