GCG.pdb
     RDKit          3D

 15 14  0  0  1  0  0  0  0  0999 V2000
   18.9060  -11.2295  -17.9649 N   0  0  0  0  0  0  0  0  0  0  0  0
   19.2391   -9.8293  -18.0225 C   0  0  0  0  0  0  0  0  0  0  0  0
   19.6874   -9.3983  -16.6770 C   0  0  0  0  0  0  0  0  0  0  0  0
   18.8800   -9.4173  -15.6932 O   0  0  0  0  0  0  0  0  0  0  0  0
   21.0176   -8.9548  -16.4445 N   0  0  0  0  0  0  0  0  0  0  0  0
   21.5096   -8.5358  -15.1768 C   0  0  1  0  0  0  0  0  0  0  0  0
   22.6001   -9.4685  -14.6577 C   0  0  0  0  0  0  0  0  0  0  0  0
   22.8520   -9.1240  -12.8898 S   0  0  0  0  0  0  0  0  0  0  0  0
   21.9680   -7.1367  -15.1425 C   0  0  0  0  0  0  0  0  0  0  0  0
   22.7317   -6.7551  -16.0736 O   0  0  0  0  0  0  0  0  0  0  0  0
   21.5955   -6.2205  -14.1295 N   0  0  0  0  0  0  0  0  0  0  0  0
   22.0050   -4.8364  -14.2181 C   0  0  0  0  0  0  0  0  0  0  0  0
   20.9621   -4.0170  -14.9243 C   0  0  0  0  0  0  0  0  0  0  0  0
   21.1703   -3.6195  -16.0974 O   0  0  0  0  0  0  0  0  0  0  0  0
   19.7961   -3.7285  -14.2439 O   0  0  0  0  0  0  0  0  0  0  0  0
  1  2  1  0
  3  4  2  0
  3  2  1  0
  5  3  1  0
  6  9  1  0
  6  5  1  0
  7  8  1  0
  6  7  1  6
  9 11  1  0
 10  9  2  0
 11 12  1  0
 12 13  1  0
 13 14  2  0
 13 15  1  0
M  END
$$$$
