GCG.pdb
     RDKit          3D

 15 14  0  0  1  0  0  0  0  0999 V2000
   18.9024  -12.4286  -15.8689 N   0  0  0  0  0  0  0  0  0  0  0  0
   19.0542  -11.1911  -16.5903 C   0  0  0  0  0  0  0  0  0  0  0  0
   19.9064  -10.2819  -15.7876 C   0  0  0  0  0  0  0  0  0  0  0  0
   19.7140  -10.1583  -14.5355 O   0  0  0  0  0  0  0  0  0  0  0  0
   20.9536   -9.5275  -16.3830 N   0  0  0  0  0  0  0  0  0  0  0  0
   21.7139   -8.5383  -15.6988 C   0  0  1  0  0  0  0  0  0  0  0  0
   23.2050   -8.8624  -15.7126 C   0  0  0  0  0  0  0  0  0  0  0  0
   23.5906   -9.8390  -14.2276 S   0  0  0  0  0  0  0  0  0  0  0  0
   21.4801   -7.1645  -16.1751 C   0  0  0  0  0  0  0  0  0  0  0  0
   21.5089   -6.9721  -17.4233 O   0  0  0  0  0  0  0  0  0  0  0  0
   21.2296   -6.0729  -15.3092 N   0  0  0  0  0  0  0  0  0  0  0  0
   21.0414   -4.7458  -15.8521 C   0  0  0  0  0  0  0  0  0  0  0  0
   20.7104   -3.7666  -14.7614 C   0  0  0  0  0  0  0  0  0  0  0  0
   20.5662   -4.1726  -13.5816 O   0  0  0  0  0  0  0  0  0  0  0  0
   20.5756   -2.4365  -15.1053 O   0  0  0  0  0  0  0  0  0  0  0  0
  1  2  1  0
  3  4  2  0
  3  2  1  0
  5  3  1  0
  6  9  1  0
  6  5  1  0
  7  8  1  0
  6  7  1  6
  9 11  1  0
 10  9  2  0
 11 12  1  0
 12 13  1  0
 13 14  2  0
 13 15  1  0
M  END
$$$$
