GCG.pdb
     RDKit          3D

 15 14  0  0  1  0  0  0  0  0999 V2000
   28.6107  -20.5166  -14.2557 N   0  0  0  0  0  0  0  0  0  0  0  0
   27.6257  -19.7846  -13.5016 C   0  0  0  0  0  0  0  0  0  0  0  0
   26.8093  -20.7532  -12.7320 C   0  0  0  0  0  0  0  0  0  0  0  0
   26.4667  -21.8628  -13.2530 O   0  0  0  0  0  0  0  0  0  0  0  0
   26.3875  -20.4778  -11.4029 N   0  0  0  0  0  0  0  0  0  0  0  0
   25.2130  -21.0192  -10.8094 C   0  0  1  0  0  0  0  0  0  0  0  0
   25.1439  -20.7162   -9.3154 C   0  0  0  0  0  0  0  0  0  0  0  0
   26.8431  -20.5938   -8.6787 S   0  0  0  0  0  0  0  0  0  0  0  0
   23.9628  -20.6170  -11.4757 C   0  0  0  0  0  0  0  0  0  0  0  0
   23.9592  -19.5064  -12.0776 O   0  0  0  0  0  0  0  0  0  0  0  0
   22.7886  -21.4079  -11.4695 N   0  0  0  0  0  0  0  0  0  0  0  0
   22.3688  -22.0913  -12.6729 C   0  0  0  0  0  0  0  0  0  0  0  0
   21.4125  -21.2417  -13.4613 C   0  0  0  0  0  0  0  0  0  0  0  0
   21.1091  -20.0956  -13.0466 O   0  0  0  0  0  0  0  0  0  0  0  0
   20.8964  -21.7636  -14.6304 O   0  0  0  0  0  0  0  0  0  0  0  0
  1  2  1  0
  3  4  2  0
  3  2  1  0
  5  3  1  0
  6  9  1  0
  6  5  1  0
  7  8  1  0
  6  7  1  1
  9 11  1  0
 10  9  2  0
 11 12  1  0
 12 13  1  0
 13 14  2  0
 13 15  1  0
M  END
$$$$
