GCG.pdb
     RDKit          3D

 15 14  0  0  1  0  0  0  0  0999 V2000
   27.3911  -11.1165  -15.8046 N   0  0  0  0  0  0  0  0  0  0  0  0
   26.1327  -11.4852  -15.2084 C   0  0  0  0  0  0  0  0  0  0  0  0
   25.1043  -10.5103  -15.6433 C   0  0  0  0  0  0  0  0  0  0  0  0
   25.4292   -9.5083  -16.3578 O   0  0  0  0  0  0  0  0  0  0  0  0
   23.7382  -10.6609  -15.2809 N   0  0  0  0  0  0  0  0  0  0  0  0
   22.7087   -9.7512  -15.6513 C   0  0  1  0  0  0  0  0  0  0  0  0
   21.3757  -10.4627  -15.8639 C   0  0  0  0  0  0  0  0  0  0  0  0
   20.1660   -9.2425  -16.4601 S   0  0  0  0  0  0  0  0  0  0  0  0
   22.5465   -8.6176  -14.7253 C   0  0  0  0  0  0  0  0  0  0  0  0
   22.4460   -8.8854  -13.4949 O   0  0  0  0  0  0  0  0  0  0  0  0
   22.4996   -7.2675  -15.1488 N   0  0  0  0  0  0  0  0  0  0  0  0
   22.2999   -6.2112  -14.1816 C   0  0  0  0  0  0  0  0  0  0  0  0
   22.1967   -4.8768  -14.8645 C   0  0  0  0  0  0  0  0  0  0  0  0
   22.1576   -4.8195  -16.1186 O   0  0  0  0  0  0  0  0  0  0  0  0
   22.1481   -3.7470  -14.0727 O   0  0  0  0  0  0  0  0  0  0  0  0
  1  2  1  0
  3  4  2  0
  3  2  1  0
  5  3  1  0
  6  9  1  0
  6  5  1  0
  7  8  1  0
  6  7  1  1
  9 11  1  0
 10  9  2  0
 11 12  1  0
 12 13  1  0
 13 14  2  0
 13 15  1  0
M  END
$$$$
