GCG.pdb
     RDKit          3D

 15 14  0  0  1  0  0  0  0  0999 V2000
   24.0392  -15.1164  -19.6543 N   0  0  0  0  0  0  0  0  0  0  0  0
   25.3835  -14.7821  -20.0491 C   0  0  0  0  0  0  0  0  0  0  0  0
   25.9600  -13.8749  -19.0286 C   0  0  0  0  0  0  0  0  0  0  0  0
   25.2721  -12.9105  -18.5629 O   0  0  0  0  0  0  0  0  0  0  0  0
   27.2842  -14.0501  -18.5426 N   0  0  0  0  0  0  0  0  0  0  0  0
   27.9001  -13.2028  -17.5796 C   0  0  1  0  0  0  0  0  0  0  0  0
   28.4467  -13.9963  -16.3963 C   0  0  0  0  0  0  0  0  0  0  0  0
   27.0464  -14.7747  -15.5355 S   0  0  0  0  0  0  0  0  0  0  0  0
   28.9407  -12.3202  -18.1337 C   0  0  0  0  0  0  0  0  0  0  0  0
   29.7423  -12.8246  -18.9696 O   0  0  0  0  0  0  0  0  0  0  0  0
   29.0768  -10.9574  -17.7752 N   0  0  0  0  0  0  0  0  0  0  0  0
   30.1103  -10.1482  -18.3822 C   0  0  0  0  0  0  0  0  0  0  0  0
   29.9976   -8.7180  -17.9355 C   0  0  0  0  0  0  0  0  0  0  0  0
   29.0443   -8.3690  -17.1958 O   0  0  0  0  0  0  0  0  0  0  0  0
   30.9630   -7.8287  -18.3632 O   0  0  0  0  0  0  0  0  0  0  0  0
  1  2  1  0
  3  4  2  0
  3  2  1  0
  5  3  1  0
  6  9  1  0
  6  5  1  0
  7  8  1  0
  6  7  1  1
  9 11  1  0
 10  9  2  0
 11 12  1  0
 12 13  1  0
 13 14  2  0
 13 15  1  0
M  END
$$$$
