NDF.pdb
     RDKit          3D

 28 28  0  0  1  0  0  0  0  0999 V2000
    8.4897  -12.9263   16.8748 N   0  0  0  0  0  0  0  0  0  0  0  0
    7.7224  -14.1090   16.8742 C   0  0  0  0  0  0  0  0  0  0  0  0
    7.0707  -14.3858   15.8391 O   0  0  0  0  0  0  0  0  0  0  0  0
    7.7322  -14.9523   18.0952 C   0  0  0  0  0  0  0  0  0  0  0  0
    8.4988  -14.2809   19.2181 C   0  0  2  0  0  0  0  0  0  0  0  0
    9.7498  -13.7316   18.7438 N   0  0  0  0  0  0  0  0  0  0  0  0
    8.8008  -15.3259   20.2220 C   0  0  0  0  0  0  0  0  0  0  0  0
    7.8471  -15.9271   20.7703 O   0  0  0  0  0  0  0  0  0  0  0  0
   10.1190  -15.6813   20.5951 N   0  0  0  0  0  0  0  0  0  0  0  0
   10.3172  -16.6634   21.6177 C   0  0  1  0  0  0  0  0  0  0  0  0
   11.5267  -17.4948   21.2783 C   0  0  0  0  0  0  0  0  0  0  0  0
   11.7529  -18.4940   22.3379 C   0  0  0  0  0  0  0  0  0  0  0  0
   10.7743  -19.0345   22.8957 O   0  0  0  0  0  0  0  0  0  0  0  0
   10.5886  -15.9639   22.9292 C   0  0  0  0  0  0  0  0  0  0  0  0
   11.2996  -14.9358   22.9165 O   0  0  0  0  0  0  0  0  0  0  0  0
   13.0158  -18.8801   22.7640 O   0  0  0  0  0  0  0  0  0  0  0  0
   10.0618  -16.4445   24.1452 N   0  0  0  0  0  0  0  0  0  0  0  0
    9.4934  -15.5219   25.1308 C   0  0  1  0  0  0  0  0  0  0  0  0
    8.4986  -14.6019   24.5162 C   0  0  0  0  0  0  0  0  0  0  0  0
    7.8782  -13.6560   25.4631 C   0  0  0  0  0  0  0  0  0  0  0  0
    6.5424  -13.3131   25.3776 C   0  0  0  0  0  0  0  0  0  0  0  0
    5.9491  -12.4306   26.2778 C   0  0  0  0  0  0  0  0  0  0  0  0
    6.7366  -11.8938   27.2774 C   0  0  0  0  0  0  0  0  0  0  0  0
    8.0715  -12.2125   27.3934 C   0  0  0  0  0  0  0  0  0  0  0  0
    8.5990  -13.0853   26.4800 C   0  0  0  0  0  0  0  0  0  0  0  0
    9.0262  -16.2308   26.3317 C   0  0  0  0  0  0  0  0  0  0  0  0
    9.2746  -15.7818   27.4625 O   0  0  0  0  0  0  0  0  0  0  0  0
    8.3116  -17.3975   26.2035 O   0  0  0  0  0  0  0  0  0  0  0  0
  1  2  1  0
  2  3  2  0
  2  4  1  0
  4  5  1  0
  5  7  1  0
  5  6  1  6
  7  8  2  0
  9 10  1  0
  9  7  1  0
 10 11  1  6
 12 11  1  0
 13 12  2  0
 14 15  2  0
 14 10  1  0
 16 12  1  0
 17 14  1  0
 18 17  1  0
 18 26  1  0
 18 19  1  6
 20 19  1  0
 21 20  2  0
 22 21  1  0
 23 22  2  0
 23 24  1  0
 24 25  2  0
 25 20  1  0
 26 28  1  0
 27 26  2  0
M  END
$$$$
