NDF.pdb
     RDKit          3D

 28 28  0  0  1  0  0  0  0  0999 V2000
    7.5422  -12.5757   16.3260 N   0  0  0  0  0  0  0  0  0  0  0  0
    7.8595  -13.9185   16.6155 C   0  0  0  0  0  0  0  0  0  0  0  0
    8.3772  -14.6089   15.7056 O   0  0  0  0  0  0  0  0  0  0  0  0
    7.5623  -14.4321   17.9757 C   0  0  0  0  0  0  0  0  0  0  0  0
    8.7016  -14.1389   18.9325 C   0  0  2  0  0  0  0  0  0  0  0  0
    9.9812  -14.2139   18.2628 N   0  0  0  0  0  0  0  0  0  0  0  0
    8.6647  -15.1815   19.9827 C   0  0  0  0  0  0  0  0  0  0  0  0
    7.5836  -15.3956   20.5802 O   0  0  0  0  0  0  0  0  0  0  0  0
    9.7947  -15.9518   20.3471 N   0  0  0  0  0  0  0  0  0  0  0  0
    9.7399  -16.7619   21.5261 C   0  0  1  0  0  0  0  0  0  0  0  0
   10.9270  -17.6893   21.5455 C   0  0  0  0  0  0  0  0  0  0  0  0
   10.6523  -18.8616   20.6956 C   0  0  0  0  0  0  0  0  0  0  0  0
    9.6843  -18.8384   19.9060 O   0  0  0  0  0  0  0  0  0  0  0  0
    9.8279  -15.8707   22.7431 C   0  0  0  0  0  0  0  0  0  0  0  0
   10.3172  -14.7285   22.6070 O   0  0  0  0  0  0  0  0  0  0  0  0
   11.4210  -20.0167   20.7191 O   0  0  0  0  0  0  0  0  0  0  0  0
    9.3748  -16.3000   24.0070 N   0  0  0  0  0  0  0  0  0  0  0  0
    8.9092  -15.3323   25.0032 C   0  0  1  0  0  0  0  0  0  0  0  0
    7.9361  -14.3678   24.4229 C   0  0  0  0  0  0  0  0  0  0  0  0
    7.4716  -13.3313   25.3643 C   0  0  0  0  0  0  0  0  0  0  0  0
    8.1588  -12.1450   25.5362 C   0  0  0  0  0  0  0  0  0  0  0  0
    7.7165  -11.1578   26.4142 C   0  0  0  0  0  0  0  0  0  0  0  0
    6.5550  -11.3914   27.1240 C   0  0  0  0  0  0  0  0  0  0  0  0
    5.8438  -12.5618   26.9785 C   0  0  0  0  0  0  0  0  0  0  0  0
    6.3271  -13.4951   26.1011 C   0  0  0  0  0  0  0  0  0  0  0  0
    8.4662  -15.9956   26.2387 C   0  0  0  0  0  0  0  0  0  0  0  0
    8.9051  -15.6284   27.3408 O   0  0  0  0  0  0  0  0  0  0  0  0
    7.5624  -17.0287   26.1749 O   0  0  0  0  0  0  0  0  0  0  0  0
  1  2  1  0
  2  3  2  0
  2  4  1  0
  4  5  1  0
  5  7  1  0
  5  6  1  6
  7  8  2  0
  9 10  1  0
  9  7  1  0
 10 11  1  6
 12 11  1  0
 13 12  2  0
 14 15  2  0
 14 10  1  0
 16 12  1  0
 17 14  1  0
 18 17  1  0
 18 26  1  0
 18 19  1  6
 20 19  1  0
 21 20  2  0
 22 21  1  0
 23 22  2  0
 23 24  1  0
 24 25  2  0
 25 20  1  0
 26 28  1  0
 27 26  2  0
M  END
$$$$
