NDF.pdb
     RDKit          3D

 28 28  0  0  1  0  0  0  0  0999 V2000
    8.1243  -12.5735   18.3387 N   0  0  0  0  0  0  0  0  0  0  0  0
    7.6142  -13.7888   17.8384 C   0  0  0  0  0  0  0  0  0  0  0  0
    7.4270  -13.8825   16.6019 O   0  0  0  0  0  0  0  0  0  0  0  0
    7.3303  -14.8805   18.8026 C   0  0  0  0  0  0  0  0  0  0  0  0
    7.5628  -14.4244   20.2300 C   0  0  2  0  0  0  0  0  0  0  0  0
    8.3960  -13.2431   20.2738 N   0  0  0  0  0  0  0  0  0  0  0  0
    8.2739  -15.5209   20.9250 C   0  0  0  0  0  0  0  0  0  0  0  0
    7.7063  -16.6336   21.0316 O   0  0  0  0  0  0  0  0  0  0  0  0
    9.5687  -15.3744   21.4775 N   0  0  0  0  0  0  0  0  0  0  0  0
   10.0984  -16.4141   22.3069 C   0  0  1  0  0  0  0  0  0  0  0  0
   11.5911  -16.4873   22.1166 C   0  0  0  0  0  0  0  0  0  0  0  0
   12.1105  -17.7128   22.7498 C   0  0  0  0  0  0  0  0  0  0  0  0
   11.3834  -18.7263   22.8216 O   0  0  0  0  0  0  0  0  0  0  0  0
    9.8317  -16.0757   23.7551 C   0  0  0  0  0  0  0  0  0  0  0  0
   10.5295  -15.1901   24.2949 O   0  0  0  0  0  0  0  0  0  0  0  0
   13.3875  -17.8120   23.2837 O   0  0  0  0  0  0  0  0  0  0  0  0
    8.8261  -16.7317   24.4935 N   0  0  0  0  0  0  0  0  0  0  0  0
    8.6145  -16.4214   25.9093 C   0  0  1  0  0  0  0  0  0  0  0  0
    7.2473  -15.8904   26.1597 C   0  0  0  0  0  0  0  0  0  0  0  0
    7.1268  -14.4273   26.0148 C   0  0  0  0  0  0  0  0  0  0  0  0
    6.5812  -13.8514   24.8834 C   0  0  0  0  0  0  0  0  0  0  0  0
    6.4532  -12.4707   24.7480 C   0  0  0  0  0  0  0  0  0  0  0  0
    6.8904  -11.6719   25.7864 C   0  0  0  0  0  0  0  0  0  0  0  0
    7.4393  -12.2105   26.9289 C   0  0  0  0  0  0  0  0  0  0  0  0
    7.5393  -13.5738   27.0051 C   0  0  0  0  0  0  0  0  0  0  0  0
    9.0159  -17.5396   26.7761 C   0  0  0  0  0  0  0  0  0  0  0  0
    9.0095  -18.7035   26.3432 O   0  0  0  0  0  0  0  0  0  0  0  0
    9.3994  -17.2970   28.0732 O   0  0  0  0  0  0  0  0  0  0  0  0
  1  2  1  0
  2  3  2  0
  2  4  1  0
  4  5  1  0
  5  7  1  0
  5  6  1  6
  7  8  2  0
  9 10  1  0
  9  7  1  0
 10 11  1  1
 12 11  1  0
 13 12  2  0
 14 15  2  0
 14 10  1  0
 16 12  1  0
 17 14  1  0
 18 17  1  0
 18 26  1  0
 18 19  1  6
 20 19  1  0
 21 20  2  0
 22 21  1  0
 23 22  2  0
 23 24  1  0
 24 25  2  0
 25 20  1  0
 26 28  1  0
 27 26  2  0
M  END
$$$$
