NDF.pdb
     RDKit          3D

 28 28  0  0  1  0  0  0  0  0999 V2000
    6.1757  -16.5763   20.3040 N   0  0  0  0  0  0  0  0  0  0  0  0
    6.0156  -15.5272   21.2321 C   0  0  0  0  0  0  0  0  0  0  0  0
    4.8537  -15.2582   21.6197 O   0  0  0  0  0  0  0  0  0  0  0  0
    7.2284  -14.8069   21.6928 C   0  0  0  0  0  0  0  0  0  0  0  0
    8.4673  -15.3057   20.9746 C   0  0  2  0  0  0  0  0  0  0  0  0
    8.1192  -16.1552   19.8572 N   0  0  0  0  0  0  0  0  0  0  0  0
    9.2381  -16.1110   21.9485 C   0  0  0  0  0  0  0  0  0  0  0  0
    8.6812  -17.0947   22.4905 O   0  0  0  0  0  0  0  0  0  0  0  0
   10.5789  -15.8238   22.2994 N   0  0  0  0  0  0  0  0  0  0  0  0
   11.2533  -16.6675   23.2390 C   0  0  1  0  0  0  0  0  0  0  0  0
   12.7387  -16.4405   23.1313 C   0  0  0  0  0  0  0  0  0  0  0  0
   13.1971  -16.8024   21.7780 C   0  0  0  0  0  0  0  0  0  0  0  0
   13.9838  -16.0459   21.1699 O   0  0  0  0  0  0  0  0  0  0  0  0
   10.8269  -16.2894   24.6383 C   0  0  0  0  0  0  0  0  0  0  0  0
   11.2633  -15.2230   25.1230 O   0  0  0  0  0  0  0  0  0  0  0  0
   12.7991  -17.9590   21.1227 O   0  0  0  0  0  0  0  0  0  0  0  0
    9.9598  -17.1062   25.3921 N   0  0  0  0  0  0  0  0  0  0  0  0
    9.6004  -16.7478   26.7661 C   0  0  1  0  0  0  0  0  0  0  0  0
    8.1519  -16.4325   26.8934 C   0  0  0  0  0  0  0  0  0  0  0  0
    7.7886  -15.0635   26.4808 C   0  0  0  0  0  0  0  0  0  0  0  0
    8.3675  -13.9515   27.0618 C   0  0  0  0  0  0  0  0  0  0  0  0
    8.0372  -12.6571   26.6660 C   0  0  0  0  0  0  0  0  0  0  0  0
    7.1016  -12.5027   25.6618 C   0  0  0  0  0  0  0  0  0  0  0  0
    6.5040  -13.5878   25.0598 C   0  0  0  0  0  0  0  0  0  0  0  0
    6.8684  -14.8351   25.4906 C   0  0  0  0  0  0  0  0  0  0  0  0
   10.1106  -17.7301   27.7344 C   0  0  0  0  0  0  0  0  0  0  0  0
   10.5844  -18.8094   27.3439 O   0  0  0  0  0  0  0  0  0  0  0  0
   10.0624  -17.4540   29.0798 O   0  0  0  0  0  0  0  0  0  0  0  0
  1  2  1  0
  2  3  2  0
  2  4  1  0
  4  5  1  0
  5  7  1  0
  5  6  1  6
  7  8  2  0
  9 10  1  0
  9  7  1  0
 10 11  1  1
 12 11  1  0
 13 12  2  0
 14 15  2  0
 14 10  1  0
 16 12  1  0
 17 14  1  0
 18 17  1  0
 18 26  1  0
 18 19  1  6
 20 19  1  0
 21 20  2  0
 22 21  1  0
 23 22  2  0
 23 24  1  0
 24 25  2  0
 25 20  1  0
 26 28  1  0
 27 26  2  0
M  END
$$$$
