NDF.pdb
     RDKit          3D

 28 28  0  0  1  0  0  0  0  0999 V2000
   15.0189  -14.3502   19.8002 N   0  0  0  0  0  0  0  0  0  0  0  0
   14.0384  -14.3282   18.7874 C   0  0  0  0  0  0  0  0  0  0  0  0
   14.3904  -13.9744   17.6369 O   0  0  0  0  0  0  0  0  0  0  0  0
   12.6533  -14.7239   19.1431 C   0  0  0  0  0  0  0  0  0  0  0  0
   12.6359  -15.6090   20.3743 C   0  0  2  0  0  0  0  0  0  0  0  0
   13.2191  -16.9032   20.0979 N   0  0  0  0  0  0  0  0  0  0  0  0
   11.2167  -15.8081   20.7449 C   0  0  0  0  0  0  0  0  0  0  0  0
   10.4677  -14.8055   20.8187 O   0  0  0  0  0  0  0  0  0  0  0  0
   10.6612  -17.0802   21.0212 N   0  0  0  0  0  0  0  0  0  0  0  0
    9.3343  -17.1652   21.5520 C   0  0  1  0  0  0  0  0  0  0  0  0
    8.8297  -18.5766   21.4004 C   0  0  0  0  0  0  0  0  0  0  0  0
    8.4434  -18.8154   19.9982 C   0  0  0  0  0  0  0  0  0  0  0  0
    9.3253  -19.0640   19.1488 O   0  0  0  0  0  0  0  0  0  0  0  0
    9.3702  -16.8416   23.0274 C   0  0  0  0  0  0  0  0  0  0  0  0
   10.4368  -16.4069   23.5130 O   0  0  0  0  0  0  0  0  0  0  0  0
    7.1295  -18.7802   19.5533 O   0  0  0  0  0  0  0  0  0  0  0  0
    8.2393  -17.0194   23.8500 N   0  0  0  0  0  0  0  0  0  0  0  0
    7.9305  -16.0617   24.9145 C   0  0  1  0  0  0  0  0  0  0  0  0
    7.9115  -14.6623   24.4094 C   0  0  0  0  0  0  0  0  0  0  0  0
    7.6789  -13.6428   25.4500 C   0  0  0  0  0  0  0  0  0  0  0  0
    8.7043  -13.1701   26.2464 C   0  0  0  0  0  0  0  0  0  0  0  0
    8.4918  -12.1977   27.2213 C   0  0  0  0  0  0  0  0  0  0  0  0
    7.2114  -11.7050   27.3804 C   0  0  0  0  0  0  0  0  0  0  0  0
    6.1649  -12.1524   26.6048 C   0  0  0  0  0  0  0  0  0  0  0  0
    6.4343  -13.1089   25.6631 C   0  0  0  0  0  0  0  0  0  0  0  0
    6.7395  -16.4638   25.6777 C   0  0  0  0  0  0  0  0  0  0  0  0
    6.7694  -16.4938   26.9188 O   0  0  0  0  0  0  0  0  0  0  0  0
    5.5864  -16.8099   25.0152 O   0  0  0  0  0  0  0  0  0  0  0  0
  1  2  1  0
  2  3  2  0
  2  4  1  0
  4  5  1  0
  5  7  1  0
  5  6  1  6
  7  8  2  0
  9 10  1  0
  9  7  1  0
 10 11  1  1
 12 11  1  0
 13 12  2  0
 14 15  2  0
 14 10  1  0
 16 12  1  0
 17 14  1  0
 18 17  1  0
 18 26  1  0
 18 19  1  6
 20 19  1  0
 21 20  2  0
 22 21  1  0
 23 22  2  0
 23 24  1  0
 24 25  2  0
 25 20  1  0
 26 28  1  0
 27 26  2  0
M  END
$$$$
