NDF.pdb
     RDKit          3D

 28 28  0  0  1  0  0  0  0  0999 V2000
    8.3465  -12.1609   17.5977 N   0  0  0  0  0  0  0  0  0  0  0  0
    7.9244  -13.5035   17.6790 C   0  0  0  0  0  0  0  0  0  0  0  0
    7.7332  -14.1250   16.6067 O   0  0  0  0  0  0  0  0  0  0  0  0
    7.7324  -14.0984   19.0249 C   0  0  0  0  0  0  0  0  0  0  0  0
    9.0632  -14.4323   19.6707 C   0  0  2  0  0  0  0  0  0  0  0  0
    9.9436  -15.1037   18.7403 N   0  0  0  0  0  0  0  0  0  0  0  0
    8.7808  -15.3557   20.7926 C   0  0  0  0  0  0  0  0  0  0  0  0
    7.8613  -15.0657   21.5938 O   0  0  0  0  0  0  0  0  0  0  0  0
    9.5010  -16.5553   21.0062 N   0  0  0  0  0  0  0  0  0  0  0  0
    9.3072  -17.2814   22.2247 C   0  0  1  0  0  0  0  0  0  0  0  0
    9.9482  -18.6390   22.0996 C   0  0  0  0  0  0  0  0  0  0  0  0
    9.6076  -19.4568   23.2776 C   0  0  0  0  0  0  0  0  0  0  0  0
    8.7016  -19.0789   24.0503 O   0  0  0  0  0  0  0  0  0  0  0  0
    9.9936  -16.5469   23.3527 C   0  0  0  0  0  0  0  0  0  0  0  0
   11.2032  -16.2593   23.2232 O   0  0  0  0  0  0  0  0  0  0  0  0
   10.2468  -20.6487   23.5881 O   0  0  0  0  0  0  0  0  0  0  0  0
    9.3031  -16.1874   24.5278 N   0  0  0  0  0  0  0  0  0  0  0  0
    9.9906  -15.4862   25.6147 C   0  0  1  0  0  0  0  0  0  0  0  0
    9.7424  -14.0198   25.5695 C   0  0  0  0  0  0  0  0  0  0  0  0
    8.3906  -13.6178   26.0023 C   0  0  0  0  0  0  0  0  0  0  0  0
    8.1944  -12.7354   27.0473 C   0  0  0  0  0  0  0  0  0  0  0  0
    6.9200  -12.3426   27.4507 C   0  0  0  0  0  0  0  0  0  0  0  0
    5.8343  -12.8619   26.7732 C   0  0  0  0  0  0  0  0  0  0  0  0
    5.9915  -13.7437   25.7269 C   0  0  0  0  0  0  0  0  0  0  0  0
    7.2677  -14.0930   25.3755 C   0  0  0  0  0  0  0  0  0  0  0  0
    9.7355  -16.1204   26.9168 C   0  0  0  0  0  0  0  0  0  0  0  0
   10.2723  -15.6795   27.9461 O   0  0  0  0  0  0  0  0  0  0  0  0
    8.8995  -17.2082   26.9966 O   0  0  0  0  0  0  0  0  0  0  0  0
  1  2  1  0
  2  3  2  0
  2  4  1  0
  4  5  1  0
  5  7  1  0
  5  6  1  6
  7  8  2  0
  9 10  1  0
  9  7  1  0
 10 11  1  6
 12 11  1  0
 13 12  2  0
 14 15  2  0
 14 10  1  0
 16 12  1  0
 17 14  1  0
 18 17  1  0
 18 26  1  0
 18 19  1  1
 20 19  1  0
 21 20  2  0
 22 21  1  0
 23 22  2  0
 23 24  1  0
 24 25  2  0
 25 20  1  0
 26 28  1  0
 27 26  2  0
M  END
$$$$
