NDF.pdb
     RDKit          3D

 28 28  0  0  1  0  0  0  0  0999 V2000
    6.1897  -21.2232   19.8161 N   0  0  0  0  0  0  0  0  0  0  0  0
    7.4142  -20.5245   19.7995 C   0  0  0  0  0  0  0  0  0  0  0  0
    7.5352  -19.5707   18.9944 O   0  0  0  0  0  0  0  0  0  0  0  0
    8.4825  -20.9591   20.7332 C   0  0  0  0  0  0  0  0  0  0  0  0
    8.4138  -20.1915   22.0392 C   0  0  2  0  0  0  0  0  0  0  0  0
    7.2181  -19.3809   22.1086 N   0  0  0  0  0  0  0  0  0  0  0  0
    9.5884  -19.2915   22.0753 C   0  0  0  0  0  0  0  0  0  0  0  0
   10.6084  -19.6585   22.7051 O   0  0  0  0  0  0  0  0  0  0  0  0
    9.6168  -18.0316   21.4311 N   0  0  0  0  0  0  0  0  0  0  0  0
   10.7553  -17.1812   21.6051 C   0  0  1  0  0  0  0  0  0  0  0  0
   10.9864  -16.3978   20.3392 C   0  0  0  0  0  0  0  0  0  0  0  0
   11.6358  -17.2603   19.3359 C   0  0  0  0  0  0  0  0  0  0  0  0
   11.1558  -17.3379   18.1850 O   0  0  0  0  0  0  0  0  0  0  0  0
   10.4715  -16.1958   22.7148 C   0  0  0  0  0  0  0  0  0  0  0  0
   10.7828  -14.9981   22.5378 O   0  0  0  0  0  0  0  0  0  0  0  0
   12.7745  -18.0091   19.5974 O   0  0  0  0  0  0  0  0  0  0  0  0
    9.8717  -16.5991   23.9250 N   0  0  0  0  0  0  0  0  0  0  0  0
    9.3880  -15.6066   24.8876 C   0  0  1  0  0  0  0  0  0  0  0  0
    8.4913  -14.6073   24.2464 C   0  0  0  0  0  0  0  0  0  0  0  0
    7.8920  -13.6380   25.1833 C   0  0  0  0  0  0  0  0  0  0  0  0
    6.6299  -13.8249   25.7138 C   0  0  0  0  0  0  0  0  0  0  0  0
    6.0654  -12.9190   26.6092 C   0  0  0  0  0  0  0  0  0  0  0  0
    6.8054  -11.8080   26.9639 C   0  0  0  0  0  0  0  0  0  0  0  0
    8.0664  -11.5889   26.4553 C   0  0  0  0  0  0  0  0  0  0  0  0
    8.5689  -12.5137   25.5797 C   0  0  0  0  0  0  0  0  0  0  0  0
    8.8460  -16.2430   26.0975 C   0  0  0  0  0  0  0  0  0  0  0  0
    8.9715  -15.6956   27.2051 O   0  0  0  0  0  0  0  0  0  0  0  0
    8.1976  -17.4510   26.0039 O   0  0  0  0  0  0  0  0  0  0  0  0
  1  2  1  0
  2  3  2  0
  2  4  1  0
  4  5  1  0
  5  7  1  0
  5  6  1  6
  7  8  2  0
  9 10  1  0
  9  7  1  0
 10 11  1  6
 12 11  1  0
 13 12  2  0
 14 15  2  0
 14 10  1  0
 16 12  1  0
 17 14  1  0
 18 17  1  0
 18 26  1  0
 18 19  1  6
 20 19  1  0
 21 20  2  0
 22 21  1  0
 23 22  2  0
 23 24  1  0
 24 25  2  0
 25 20  1  0
 26 28  1  0
 27 26  2  0
M  END
$$$$
