NDF.pdb
     RDKit          3D

 28 28  0  0  1  0  0  0  0  0999 V2000
    7.8232  -11.7607   18.8834 N   0  0  0  0  0  0  0  0  0  0  0  0
    8.1928  -13.1156   18.7602 C   0  0  0  0  0  0  0  0  0  0  0  0
    8.9822  -13.4274   17.8370 O   0  0  0  0  0  0  0  0  0  0  0  0
    7.6268  -14.0879   19.7277 C   0  0  0  0  0  0  0  0  0  0  0  0
    8.1531  -15.4865   19.4697 C   0  0  2  0  0  0  0  0  0  0  0  0
    7.1474  -16.3184   18.8466 N   0  0  0  0  0  0  0  0  0  0  0  0
    8.4904  -16.0724   20.7865 C   0  0  0  0  0  0  0  0  0  0  0  0
    7.5669  -16.5492   21.4874 O   0  0  0  0  0  0  0  0  0  0  0  0
    9.8102  -16.1209   21.2956 N   0  0  0  0  0  0  0  0  0  0  0  0
   10.1156  -17.0210   22.3661 C   0  0  1  0  0  0  0  0  0  0  0  0
   11.5767  -17.3835   22.3068 C   0  0  0  0  0  0  0  0  0  0  0  0
   11.8817  -18.3787   23.3503 C   0  0  0  0  0  0  0  0  0  0  0  0
   12.9436  -18.2843   24.0018 O   0  0  0  0  0  0  0  0  0  0  0  0
    9.8636  -16.3259   23.6838 C   0  0  0  0  0  0  0  0  0  0  0  0
   10.5111  -15.2877   23.9395 O   0  0  0  0  0  0  0  0  0  0  0  0
   11.0419  -19.4389   23.6608 O   0  0  0  0  0  0  0  0  0  0  0  0
    8.9261  -16.8216   24.6126 N   0  0  0  0  0  0  0  0  0  0  0  0
    8.7764  -16.1982   25.9296 C   0  0  1  0  0  0  0  0  0  0  0  0
    7.3867  -15.7182   26.1583 C   0  0  0  0  0  0  0  0  0  0  0  0
    7.2514  -14.2502   26.2144 C   0  0  0  0  0  0  0  0  0  0  0  0
    8.3543  -13.4179   26.2067 C   0  0  0  0  0  0  0  0  0  0  0  0
    8.2308  -12.0307   26.2461 C   0  0  0  0  0  0  0  0  0  0  0  0
    6.9600  -11.4918   26.2939 C   0  0  0  0  0  0  0  0  0  0  0  0
    5.8378  -12.2904   26.3030 C   0  0  0  0  0  0  0  0  0  0  0  0
    6.0216  -13.6464   26.2628 C   0  0  0  0  0  0  0  0  0  0  0  0
    9.3248  -17.0474   26.9977 C   0  0  0  0  0  0  0  0  0  0  0  0
    9.3412  -16.6465   28.1729 O   0  0  0  0  0  0  0  0  0  0  0  0
    9.8237  -18.2915   26.6951 O   0  0  0  0  0  0  0  0  0  0  0  0
  1  2  1  0
  2  3  2  0
  2  4  1  0
  4  5  1  0
  5  7  1  0
  5  6  1  1
  7  8  2  0
  9 10  1  0
  9  7  1  0
 10 11  1  1
 12 11  1  0
 13 12  2  0
 14 15  2  0
 14 10  1  0
 16 12  1  0
 17 14  1  0
 18 17  1  0
 18 26  1  0
 18 19  1  1
 20 19  1  0
 21 20  2  0
 22 21  1  0
 23 22  2  0
 23 24  1  0
 24 25  2  0
 25 20  1  0
 26 28  1  0
 27 26  2  0
M  END
$$$$
