NDF.pdb
     RDKit          3D

 28 28  0  0  1  0  0  0  0  0999 V2000
    7.9478  -12.4470   18.2075 N   0  0  0  0  0  0  0  0  0  0  0  0
    7.4638  -13.7207   17.8452 C   0  0  0  0  0  0  0  0  0  0  0  0
    7.1545  -13.9118   16.6450 O   0  0  0  0  0  0  0  0  0  0  0  0
    7.3501  -14.7550   18.9031 C   0  0  0  0  0  0  0  0  0  0  0  0
    7.7273  -14.1936   20.2604 C   0  0  2  0  0  0  0  0  0  0  0  0
    8.7411  -13.1692   20.1407 N   0  0  0  0  0  0  0  0  0  0  0  0
    8.2878  -15.3122   21.0514 C   0  0  0  0  0  0  0  0  0  0  0  0
    7.5633  -16.3094   21.2806 O   0  0  0  0  0  0  0  0  0  0  0  0
    9.6070  -15.3115   21.5641 N   0  0  0  0  0  0  0  0  0  0  0  0
   10.0203  -16.3684   22.4368 C   0  0  1  0  0  0  0  0  0  0  0  0
   11.4846  -16.6470   22.2185 C   0  0  0  0  0  0  0  0  0  0  0  0
   11.8446  -17.9264   22.8556 C   0  0  0  0  0  0  0  0  0  0  0  0
   10.9446  -18.7329   23.1727 O   0  0  0  0  0  0  0  0  0  0  0  0
    9.8415  -15.9247   23.8700 C   0  0  0  0  0  0  0  0  0  0  0  0
   10.4916  -14.9345   24.2694 O   0  0  0  0  0  0  0  0  0  0  0  0
   13.1526  -18.2988   23.1312 O   0  0  0  0  0  0  0  0  0  0  0  0
    8.9683  -16.5983   24.7480 N   0  0  0  0  0  0  0  0  0  0  0  0
    8.8133  -16.1547   26.1354 C   0  0  1  0  0  0  0  0  0  0  0  0
    7.4313  -15.6773   26.4111 C   0  0  0  0  0  0  0  0  0  0  0  0
    7.1963  -14.2622   26.0669 C   0  0  0  0  0  0  0  0  0  0  0  0
    7.9959  -13.2508   26.5639 C   0  0  0  0  0  0  0  0  0  0  0  0
    7.7858  -11.9144   26.2309 C   0  0  0  0  0  0  0  0  0  0  0  0
    6.7426  -11.6128   25.3776 C   0  0  0  0  0  0  0  0  0  0  0  0
    5.9251  -12.5945   24.8628 C   0  0  0  0  0  0  0  0  0  0  0  0
    6.1800  -13.8897   25.2256 C   0  0  0  0  0  0  0  0  0  0  0  0
    9.3277  -17.1527   27.0852 C   0  0  0  0  0  0  0  0  0  0  0  0
    9.3488  -16.9088   28.3026 O   0  0  0  0  0  0  0  0  0  0  0  0
    9.7893  -18.3622   26.6243 O   0  0  0  0  0  0  0  0  0  0  0  0
  1  2  1  0
  2  3  2  0
  2  4  1  0
  4  5  1  0
  5  7  1  0
  5  6  1  6
  7  8  2  0
  9 10  1  0
  9  7  1  0
 10 11  1  1
 12 11  1  0
 13 12  2  0
 14 15  2  0
 14 10  1  0
 16 12  1  0
 17 14  1  0
 18 17  1  0
 18 26  1  0
 18 19  1  1
 20 19  1  0
 21 20  2  0
 22 21  1  0
 23 22  2  0
 23 24  1  0
 24 25  2  0
 25 20  1  0
 26 28  1  0
 27 26  2  0
M  END
$$$$
