NDF.pdb
     RDKit          3D

 28 28  0  0  1  0  0  0  0  0999 V2000
    8.4111  -12.7602   18.2857 N   0  0  0  0  0  0  0  0  0  0  0  0
    7.7350  -13.9867   18.4480 C   0  0  0  0  0  0  0  0  0  0  0  0
    7.9372  -14.8858   17.5975 O   0  0  0  0  0  0  0  0  0  0  0  0
    6.8276  -14.1389   19.6122 C   0  0  0  0  0  0  0  0  0  0  0  0
    7.5574  -13.8699   20.9140 C   0  0  2  0  0  0  0  0  0  0  0  0
    8.7949  -13.1577   20.6838 N   0  0  0  0  0  0  0  0  0  0  0  0
    7.8821  -15.1859   21.5087 C   0  0  0  0  0  0  0  0  0  0  0  0
    6.9556  -16.0120   21.6843 O   0  0  0  0  0  0  0  0  0  0  0  0
    9.1929  -15.5592   21.8907 N   0  0  0  0  0  0  0  0  0  0  0  0
    9.3804  -16.7158   22.7133 C   0  0  1  0  0  0  0  0  0  0  0  0
   10.1521  -17.7534   21.9403 C   0  0  0  0  0  0  0  0  0  0  0  0
   11.3653  -17.1426   21.3682 C   0  0  0  0  0  0  0  0  0  0  0  0
   11.3470  -15.9428   21.0200 O   0  0  0  0  0  0  0  0  0  0  0  0
   10.2007  -16.3343   23.9234 C   0  0  0  0  0  0  0  0  0  0  0  0
   11.3160  -16.8770   24.0785 O   0  0  0  0  0  0  0  0  0  0  0  0
   12.5546  -17.8347   21.1885 O   0  0  0  0  0  0  0  0  0  0  0  0
    9.7357  -15.3924   24.8635 N   0  0  0  0  0  0  0  0  0  0  0  0
    9.0054  -15.8248   26.0574 C   0  0  1  0  0  0  0  0  0  0  0  0
    7.5684  -15.4443   25.9933 C   0  0  0  0  0  0  0  0  0  0  0  0
    7.3053  -14.0152   26.2479 C   0  0  0  0  0  0  0  0  0  0  0  0
    8.3316  -13.0989   26.3763 C   0  0  0  0  0  0  0  0  0  0  0  0
    8.0874  -11.7462   26.6034 C   0  0  0  0  0  0  0  0  0  0  0  0
    6.7742  -11.3294   26.6997 C   0  0  0  0  0  0  0  0  0  0  0  0
    5.7258  -12.2141   26.5769 C   0  0  0  0  0  0  0  0  0  0  0  0
    6.0273  -13.5309   26.3545 C   0  0  0  0  0  0  0  0  0  0  0  0
    9.2611  -17.2395   26.3675 C   0  0  0  0  0  0  0  0  0  0  0  0
    8.9704  -18.1249   25.5468 O   0  0  0  0  0  0  0  0  0  0  0  0
    9.8237  -17.5854   27.5726 O   0  0  0  0  0  0  0  0  0  0  0  0
  1  2  1  0
  2  3  2  0
  2  4  1  0
  4  5  1  0
  5  7  1  0
  5  6  1  6
  7  8  2  0
  9 10  1  0
  9  7  1  0
 10 11  1  6
 12 11  1  0
 13 12  2  0
 14 15  2  0
 14 10  1  0
 16 12  1  0
 17 14  1  0
 18 17  1  0
 18 26  1  0
 18 19  1  6
 20 19  1  0
 21 20  2  0
 22 21  1  0
 23 22  2  0
 23 24  1  0
 24 25  2  0
 25 20  1  0
 26 28  1  0
 27 26  2  0
M  END
$$$$
