NDF.pdb
     RDKit          3D

 28 28  0  0  1  0  0  0  0  0999 V2000
    6.5534  -19.4296   15.9037 N   0  0  0  0  0  0  0  0  0  0  0  0
    6.9461  -18.1539   16.3577 C   0  0  0  0  0  0  0  0  0  0  0  0
    7.0440  -17.2338   15.5113 O   0  0  0  0  0  0  0  0  0  0  0  0
    7.2189  -17.9779   17.8056 C   0  0  0  0  0  0  0  0  0  0  0  0
    8.3778  -17.0267   18.0327 C   0  0  2  0  0  0  0  0  0  0  0  0
    9.3285  -17.0895   16.9446 N   0  0  0  0  0  0  0  0  0  0  0  0
    9.0600  -17.4628   19.2718 C   0  0  0  0  0  0  0  0  0  0  0  0
    8.3773  -17.9930   20.1799 O   0  0  0  0  0  0  0  0  0  0  0  0
   10.4511  -17.3100   19.4830 N   0  0  0  0  0  0  0  0  0  0  0  0
   11.0163  -17.7003   20.7391 C   0  0  1  0  0  0  0  0  0  0  0  0
   12.5189  -17.6859   20.6321 C   0  0  0  0  0  0  0  0  0  0  0  0
   12.9610  -18.7701   19.7368 C   0  0  0  0  0  0  0  0  0  0  0  0
   12.3617  -19.8663   19.7521 O   0  0  0  0  0  0  0  0  0  0  0  0
   10.6171  -16.6955   21.7946 C   0  0  0  0  0  0  0  0  0  0  0  0
   11.2714  -15.6338   21.8797 O   0  0  0  0  0  0  0  0  0  0  0  0
   14.0271  -18.6449   18.8574 O   0  0  0  0  0  0  0  0  0  0  0  0
    9.5373  -16.9328   22.6691 N   0  0  0  0  0  0  0  0  0  0  0  0
    9.2123  -15.9794   23.7326 C   0  0  1  0  0  0  0  0  0  0  0  0
    7.8364  -15.4332   23.5827 C   0  0  0  0  0  0  0  0  0  0  0  0
    7.6283  -14.6354   22.3594 C   0  0  0  0  0  0  0  0  0  0  0  0
    6.7859  -15.0596   21.3496 C   0  0  0  0  0  0  0  0  0  0  0  0
    6.5760  -14.3031   20.1986 C   0  0  0  0  0  0  0  0  0  0  0  0
    7.2388  -13.0969   20.0831 C   0  0  0  0  0  0  0  0  0  0  0  0
    8.0859  -12.6421   21.0693 C   0  0  0  0  0  0  0  0  0  0  0  0
    8.2528  -13.4286   22.1773 C   0  0  0  0  0  0  0  0  0  0  0  0
    9.5244  -16.5229   25.0630 C   0  0  0  0  0  0  0  0  0  0  0  0
    9.8683  -17.7091   25.1920 O   0  0  0  0  0  0  0  0  0  0  0  0
    9.4341  -15.7151   26.1710 O   0  0  0  0  0  0  0  0  0  0  0  0
  1  2  1  0
  2  3  2  0
  2  4  1  0
  4  5  1  0
  5  7  1  0
  5  6  1  6
  7  8  2  0
  9 10  1  0
  9  7  1  0
 10 11  1  6
 12 11  1  0
 13 12  2  0
 14 15  2  0
 14 10  1  0
 16 12  1  0
 17 14  1  0
 18 17  1  0
 18 26  1  0
 18 19  1  1
 20 19  1  0
 21 20  2  0
 22 21  1  0
 23 22  2  0
 23 24  1  0
 24 25  2  0
 25 20  1  0
 26 28  1  0
 27 26  2  0
M  END
$$$$
