NDF.pdb
     RDKit          3D

 28 28  0  0  1  0  0  0  0  0999 V2000
    8.1702  -12.4200   18.3328 N   0  0  0  0  0  0  0  0  0  0  0  0
    7.5663  -13.6505   18.0031 C   0  0  0  0  0  0  0  0  0  0  0  0
    7.3413  -13.8887   16.7926 O   0  0  0  0  0  0  0  0  0  0  0  0
    7.2343  -14.5867   19.1055 C   0  0  0  0  0  0  0  0  0  0  0  0
    7.6147  -14.0033   20.4525 C   0  0  2  0  0  0  0  0  0  0  0  0
    8.7117  -13.0691   20.3283 N   0  0  0  0  0  0  0  0  0  0  0  0
    8.0579  -15.1304   21.3035 C   0  0  0  0  0  0  0  0  0  0  0  0
    7.2266  -16.0182   21.6073 O   0  0  0  0  0  0  0  0  0  0  0  0
    9.3799  -15.2558   21.7933 N   0  0  0  0  0  0  0  0  0  0  0  0
    9.7206  -16.3804   22.6109 C   0  0  1  0  0  0  0  0  0  0  0  0
   11.1294  -16.8121   22.2974 C   0  0  0  0  0  0  0  0  0  0  0  0
   11.3851  -18.1355   22.8938 C   0  0  0  0  0  0  0  0  0  0  0  0
   10.4758  -18.7137   23.5261 O   0  0  0  0  0  0  0  0  0  0  0  0
    9.6746  -15.9677   24.0637 C   0  0  0  0  0  0  0  0  0  0  0  0
   10.3386  -14.9694   24.4175 O   0  0  0  0  0  0  0  0  0  0  0  0
   12.6025  -18.7939   22.7937 O   0  0  0  0  0  0  0  0  0  0  0  0
    8.9080  -16.6785   25.0093 N   0  0  0  0  0  0  0  0  0  0  0  0
    8.9110  -16.2875   26.4210 C   0  0  1  0  0  0  0  0  0  0  0  0
    7.5911  -15.7492   26.8473 C   0  0  0  0  0  0  0  0  0  0  0  0
    7.3177  -14.3740   26.3885 C   0  0  0  0  0  0  0  0  0  0  0  0
    7.9874  -13.2858   26.9142 C   0  0  0  0  0  0  0  0  0  0  0  0
    7.7420  -11.9867   26.4745 C   0  0  0  0  0  0  0  0  0  0  0  0
    6.7979  -11.8029   25.4833 C   0  0  0  0  0  0  0  0  0  0  0  0
    6.1109  -12.8638   24.9359 C   0  0  0  0  0  0  0  0  0  0  0  0
    6.3945  -14.1171   25.4081 C   0  0  0  0  0  0  0  0  0  0  0  0
    9.4550  -17.3516   27.2779 C   0  0  0  0  0  0  0  0  0  0  0  0
    9.7205  -18.4674   26.8017 O   0  0  0  0  0  0  0  0  0  0  0  0
    9.6703  -17.1120   28.6138 O   0  0  0  0  0  0  0  0  0  0  0  0
  1  2  1  0
  2  3  2  0
  2  4  1  0
  4  5  1  0
  5  7  1  0
  5  6  1  6
  7  8  2  0
  9 10  1  0
  9  7  1  0
 10 11  1  6
 12 11  1  0
 13 12  2  0
 14 15  2  0
 14 10  1  0
 16 12  1  0
 17 14  1  0
 18 17  1  0
 18 26  1  0
 18 19  1  1
 20 19  1  0
 21 20  2  0
 22 21  1  0
 23 22  2  0
 23 24  1  0
 24 25  2  0
 25 20  1  0
 26 28  1  0
 27 26  2  0
M  END
$$$$
