NDF.pdb
     RDKit          3D

 28 28  0  0  1  0  0  0  0  0999 V2000
    8.6630  -14.5662   16.8930 N   0  0  0  0  0  0  0  0  0  0  0  0
    7.7318  -14.0787   17.8326 C   0  0  0  0  0  0  0  0  0  0  0  0
    7.1972  -12.9669   17.6070 O   0  0  0  0  0  0  0  0  0  0  0  0
    7.4415  -14.9083   19.0281 C   0  0  0  0  0  0  0  0  0  0  0  0
    8.1536  -14.3701   20.2540 C   0  0  2  0  0  0  0  0  0  0  0  0
    9.3886  -13.7088   19.8948 N   0  0  0  0  0  0  0  0  0  0  0  0
    8.4807  -15.5323   21.1104 C   0  0  0  0  0  0  0  0  0  0  0  0
    7.5495  -16.2810   21.4900 O   0  0  0  0  0  0  0  0  0  0  0  0
    9.7986  -15.8414   21.5235 N   0  0  0  0  0  0  0  0  0  0  0  0
   10.0115  -16.9255   22.4339 C   0  0  1  0  0  0  0  0  0  0  0  0
   11.3998  -17.4753   22.2335 C   0  0  0  0  0  0  0  0  0  0  0  0
   11.5015  -18.0848   20.8954 C   0  0  0  0  0  0  0  0  0  0  0  0
   10.7615  -19.0462   20.5971 O   0  0  0  0  0  0  0  0  0  0  0  0
    9.9180  -16.4076   23.8502 C   0  0  0  0  0  0  0  0  0  0  0  0
   10.6539  -15.4531   24.1820 O   0  0  0  0  0  0  0  0  0  0  0  0
   12.3898  -17.6459   19.9238 O   0  0  0  0  0  0  0  0  0  0  0  0
    9.0295  -16.9742   24.7865 N   0  0  0  0  0  0  0  0  0  0  0  0
    9.0512  -16.5521   26.1890 C   0  0  1  0  0  0  0  0  0  0  0  0
    7.7680  -15.9173   26.5942 C   0  0  0  0  0  0  0  0  0  0  0  0
    7.6370  -14.5025   26.1975 C   0  0  0  0  0  0  0  0  0  0  0  0
    6.8939  -14.1222   25.0964 C   0  0  0  0  0  0  0  0  0  0  0  0
    6.7564  -12.7862   24.7259 C   0  0  0  0  0  0  0  0  0  0  0  0
    7.3894  -11.8294   25.4950 C   0  0  0  0  0  0  0  0  0  0  0  0
    8.1383  -12.1713   26.5992 C   0  0  0  0  0  0  0  0  0  0  0  0
    8.2373  -13.4999   26.9143 C   0  0  0  0  0  0  0  0  0  0  0  0
    9.5184  -17.6303   27.0733 C   0  0  0  0  0  0  0  0  0  0  0  0
    9.6478  -18.7866   26.6395 O   0  0  0  0  0  0  0  0  0  0  0  0
    9.8125  -17.3586   28.3878 O   0  0  0  0  0  0  0  0  0  0  0  0
  1  2  1  0
  2  3  2  0
  2  4  1  0
  4  5  1  0
  5  7  1  0
  5  6  1  6
  7  8  2  0
  9 10  1  0
  9  7  1  0
 10 11  1  6
 12 11  1  0
 13 12  2  0
 14 15  2  0
 14 10  1  0
 16 12  1  0
 17 14  1  0
 18 17  1  0
 18 26  1  0
 18 19  1  1
 20 19  1  0
 21 20  2  0
 22 21  1  0
 23 22  2  0
 23 24  1  0
 24 25  2  0
 25 20  1  0
 26 28  1  0
 27 26  2  0
M  END
$$$$
