PTM.pdb
     RDKit          3D

 23 23  0  0  1  0  0  0  0  0999 V2000
   18.2748  -12.1446  -14.9470 N   0  0  0  0  0  0  0  0  0  0  0  0
   17.9803  -13.5650  -14.9382 C   0  0  0  0  0  0  0  0  0  0  0  0
   17.3420  -13.7295  -16.3113 C   0  0  0  0  0  0  0  0  0  0  0  0
   18.2184  -12.8551  -17.1728 C   0  0  0  0  0  0  0  0  0  0  0  0
   19.0110  -12.0159  -16.1999 C   0  0  1  0  0  0  0  0  0  0  0  0
   19.1412  -10.6191  -16.6253 C   0  0  0  0  0  0  0  0  0  0  0  0
   19.7645  -10.3620  -17.6859 O   0  0  0  0  0  0  0  0  0  0  0  0
   16.4554   -8.0097  -17.2630 C   0  0  0  0  0  0  0  0  0  0  0  0
   17.3619   -7.4609  -16.1806 C   0  0  1  0  0  0  0  0  0  0  0  0
   16.7018   -7.6564  -14.9747 O   0  0  0  0  0  0  0  0  0  0  0  0
   18.6941   -8.1745  -16.2222 C   0  0  2  0  0  0  0  0  0  0  0  0
   18.5945   -9.5693  -15.8884 N   0  0  0  0  0  0  0  0  0  0  0  0
   19.6989   -7.4611  -15.4128 C   0  0  0  0  0  0  0  0  0  0  0  0
   20.0975   -7.8811  -14.2877 O   0  0  0  0  0  0  0  0  0  0  0  0
   25.1573   -6.4941  -17.0819 C   0  0  0  0  0  0  0  0  0  0  0  0
   25.2416   -5.0233  -16.0310 S   0  0  0  0  0  0  0  0  0  0  0  0
   23.6770   -4.8356  -15.0916 C   0  0  0  0  0  0  0  0  0  0  0  0
   22.5873   -5.6083  -15.7944 C   0  0  0  0  0  0  0  0  0  0  0  0
   21.2764   -5.5085  -15.0819 C   0  0  2  0  0  0  0  0  0  0  0  0
   20.2880   -6.2368  -15.8614 N   0  0  0  0  0  0  0  0  0  0  0  0
   20.8191   -4.1570  -14.7769 C   0  0  0  0  0  0  0  0  0  0  0  0
   21.2900   -3.4014  -13.8882 O   0  0  0  0  0  0  0  0  0  0  0  0
   19.7551   -3.6313  -15.5343 O   0  0  0  0  0  0  0  0  0  0  0  0
  1  5  1  0
  1  2  1  0
  2  3  1  0
  4  3  1  0
  5  4  1  0
  5  6  1  6
  7  6  2  0
  9  8  1  6
  9 11  1  0
 10  9  1  0
 11 12  1  1
 11 13  1  0
 12  6  1  0
 13 20  1  0
 14 13  2  0
 15 16  1  0
 17 16  1  0
 18 17  1  0
 19 18  1  6
 19 21  1  0
 20 19  1  0
 21 23  1  0
 22 21  2  0
M  END
$$$$
