PTM.pdb
     RDKit          3D

 23 23  0  0  1  0  0  0  0  0999 V2000
   21.8863  -11.2646  -17.8123 N   0  0  0  0  0  0  0  0  0  0  0  0
   21.9725  -12.6519  -18.2271 C   0  0  0  0  0  0  0  0  0  0  0  0
   23.3217  -12.6520  -18.9341 C   0  0  0  0  0  0  0  0  0  0  0  0
   24.1548  -11.7860  -18.0225 C   0  0  0  0  0  0  0  0  0  0  0  0
   23.1598  -11.0963  -17.1208 C   0  0  1  0  0  0  0  0  0  0  0  0
   23.4823   -9.6852  -16.8889 C   0  0  0  0  0  0  0  0  0  0  0  0
   24.5697   -9.3938  -16.3302 O   0  0  0  0  0  0  0  0  0  0  0  0
   24.0636   -6.9115  -19.1428 C   0  0  0  0  0  0  0  0  0  0  0  0
   22.8980   -6.4414  -18.2972 C   0  0  1  0  0  0  0  0  0  0  0  0
   21.7582   -6.5907  -19.0761 O   0  0  0  0  0  0  0  0  0  0  0  0
   22.8295   -7.2576  -17.0263 C   0  0  2  0  0  0  0  0  0  0  0  0
   22.6190   -8.6587  -17.2695 N   0  0  0  0  0  0  0  0  0  0  0  0
   21.8498   -6.6849  -16.0851 C   0  0  0  0  0  0  0  0  0  0  0  0
   20.6076   -6.9124  -16.1649 O   0  0  0  0  0  0  0  0  0  0  0  0
   19.3446   -9.5544  -11.5374 C   0  0  0  0  0  0  0  0  0  0  0  0
   20.2777   -8.0122  -11.3773 S   0  0  0  0  0  0  0  0  0  0  0  0
   20.3452   -7.1513  -12.9959 C   0  0  0  0  0  0  0  0  0  0  0  0
   21.2238   -5.9307  -12.8659 C   0  0  0  0  0  0  0  0  0  0  0  0
   21.3043   -5.1558  -14.1422 C   0  0  2  0  0  0  0  0  0  0  0  0
   22.2552   -5.8280  -15.0133 N   0  0  0  0  0  0  0  0  0  0  0  0
   21.6207   -3.7379  -14.0070 C   0  0  0  0  0  0  0  0  0  0  0  0
   22.7074   -3.1904  -14.3263 O   0  0  0  0  0  0  0  0  0  0  0  0
   20.6342   -2.8873  -13.4728 O   0  0  0  0  0  0  0  0  0  0  0  0
  1  5  1  0
  1  2  1  0
  2  3  1  0
  4  3  1  0
  5  4  1  0
  5  6  1  6
  7  6  2  0
  9  8  1  6
  9 11  1  0
 10  9  1  0
 11 12  1  6
 11 13  1  0
 12  6  1  0
 13 20  1  0
 14 13  2  0
 15 16  1  0
 17 16  1  0
 18 17  1  0
 19 18  1  1
 19 21  1  0
 20 19  1  0
 21 23  1  0
 22 21  2  0
M  END
$$$$
