PTM.pdb
     RDKit          3D

 23 23  0  0  1  0  0  0  0  0999 V2000
   18.4306  -12.3346  -16.3185 N   0  0  0  0  0  0  0  0  0  0  0  0
   17.1433  -13.0014  -16.2695 C   0  0  0  0  0  0  0  0  0  0  0  0
   16.4932  -12.2748  -15.0993 C   0  0  0  0  0  0  0  0  0  0  0  0
   16.9158  -10.8472  -15.3411 C   0  0  0  0  0  0  0  0  0  0  0  0
   18.0227  -10.9346  -16.3639 C   0  0  1  0  0  0  0  0  0  0  0  0
   19.1355  -10.0236  -16.0797 C   0  0  0  0  0  0  0  0  0  0  0  0
   19.8358  -10.2203  -15.0548 O   0  0  0  0  0  0  0  0  0  0  0  0
   22.0115   -6.2814  -17.5964 C   0  0  0  0  0  0  0  0  0  0  0  0
   20.8051   -7.1497  -17.8884 C   0  0  1  0  0  0  0  0  0  0  0  0
   21.1509   -7.9597  -18.9620 O   0  0  0  0  0  0  0  0  0  0  0  0
   20.4485   -7.9553  -16.6596 C   0  0  2  0  0  0  0  0  0  0  0  0
   19.4388   -8.9471  -16.9121 N   0  0  0  0  0  0  0  0  0  0  0  0
   20.1138   -7.0705  -15.5289 C   0  0  0  0  0  0  0  0  0  0  0  0
   18.9786   -6.5278  -15.3950 O   0  0  0  0  0  0  0  0  0  0  0  0
   21.8795   -7.6951   -9.2569 C   0  0  0  0  0  0  0  0  0  0  0  0
   20.3637   -6.7259   -9.4518 S   0  0  0  0  0  0  0  0  0  0  0  0
   20.4706   -5.6957  -10.9660 C   0  0  0  0  0  0  0  0  0  0  0  0
   20.6801   -6.5971  -12.1586 C   0  0  0  0  0  0  0  0  0  0  0  0
   20.8007   -5.8256  -13.4339 C   0  0  2  0  0  0  0  0  0  0  0  0
   21.0677   -6.7724  -14.5049 N   0  0  0  0  0  0  0  0  0  0  0  0
   21.7757   -4.7402  -13.4313 C   0  0  0  0  0  0  0  0  0  0  0  0
   21.5636   -3.5584  -13.0558 O   0  0  0  0  0  0  0  0  0  0  0  0
   23.0784   -5.0192  -13.8864 O   0  0  0  0  0  0  0  0  0  0  0  0
  1  5  1  0
  1  2  1  0
  2  3  1  0
  4  3  1  0
  5  4  1  0
  5  6  1  1
  7  6  2  0
  9  8  1  1
  9 11  1  0
 10  9  1  0
 11 12  1  6
 11 13  1  0
 12  6  1  0
 13 20  1  0
 14 13  2  0
 15 16  1  0
 17 16  1  0
 18 17  1  0
 19 18  1  1
 19 21  1  0
 20 19  1  0
 21 23  1  0
 22 21  2  0
M  END
$$$$
