PTM.pdb
     RDKit          3D

 23 23  0  0  1  0  0  0  0  0999 V2000
   28.5256  -21.7235  -16.7041 N   0  0  0  0  0  0  0  0  0  0  0  0
   28.9769  -22.1329  -18.0206 C   0  0  0  0  0  0  0  0  0  0  0  0
   28.3968  -21.0157  -18.8781 C   0  0  0  0  0  0  0  0  0  0  0  0
   28.6512  -19.7988  -18.0240 C   0  0  0  0  0  0  0  0  0  0  0  0
   28.9976  -20.3438  -16.6595 C   0  0  1  0  0  0  0  0  0  0  0  0
   28.3826  -19.5827  -15.5680 C   0  0  0  0  0  0  0  0  0  0  0  0
   28.3768  -18.3274  -15.6299 O   0  0  0  0  0  0  0  0  0  0  0  0
   26.2292  -17.9841  -15.3001 C   0  0  0  0  0  0  0  0  0  0  0  0
   25.7176  -18.9297  -14.2331 C   0  0  1  0  0  0  0  0  0  0  0  0
   24.8954  -19.8453  -14.8766 O   0  0  0  0  0  0  0  0  0  0  0  0
   26.8851  -19.5994  -13.5443 C   0  0  2  0  0  0  0  0  0  0  0  0
   27.8051  -20.2100  -14.4649 N   0  0  0  0  0  0  0  0  0  0  0  0
   26.4174  -20.5284  -12.4994 C   0  0  0  0  0  0  0  0  0  0  0  0
   27.0577  -21.5689  -12.1698 O   0  0  0  0  0  0  0  0  0  0  0  0
   27.6732  -18.9658   -7.7060 C   0  0  0  0  0  0  0  0  0  0  0  0
   26.7598  -20.3232   -6.9327 S   0  0  0  0  0  0  0  0  0  0  0  0
   25.5895  -21.0570   -8.1398 C   0  0  0  0  0  0  0  0  0  0  0  0
   25.8449  -20.4535   -9.4997 C   0  0  0  0  0  0  0  0  0  0  0  0
   24.8858  -20.9588  -10.5297 C   0  0  2  0  0  0  0  0  0  0  0  0
   25.1961  -20.3015  -11.7892 N   0  0  0  0  0  0  0  0  0  0  0  0
   23.4706  -20.8294  -10.1994 C   0  0  0  0  0  0  0  0  0  0  0  0
   22.6383  -20.0962  -10.7928 O   0  0  0  0  0  0  0  0  0  0  0  0
   22.9703  -21.5850   -9.1220 O   0  0  0  0  0  0  0  0  0  0  0  0
  1  5  1  0
  1  2  1  0
  2  3  1  0
  4  3  1  0
  5  4  1  0
  5  6  1  1
  7  6  2  0
  9  8  1  6
  9 11  1  0
 10  9  1  0
 11 12  1  6
 11 13  1  0
 12  6  1  0
 13 20  1  0
 14 13  2  0
 15 16  1  0
 17 16  1  0
 18 17  1  0
 19 18  1  1
 19 21  1  0
 20 19  1  0
 21 23  1  0
 22 21  2  0
M  END
$$$$
