PTM.pdb
     RDKit          3D

 23 23  0  0  1  0  0  0  0  0999 V2000
   27.1969  -18.7444  -14.7577 N   0  0  0  0  0  0  0  0  0  0  0  0
   28.3869  -18.2469  -15.4217 C   0  0  0  0  0  0  0  0  0  0  0  0
   29.4588  -19.1020  -14.7585 C   0  0  0  0  0  0  0  0  0  0  0  0
   28.7907  -20.4529  -14.6974 C   0  0  0  0  0  0  0  0  0  0  0  0
   27.3318  -20.1809  -14.9742 C   0  0  1  0  0  0  0  0  0  0  0  0
   26.4334  -20.9576  -14.1148 C   0  0  0  0  0  0  0  0  0  0  0  0
   26.4396  -22.2112  -14.2041 O   0  0  0  0  0  0  0  0  0  0  0  0
   26.2646  -21.3810  -10.6091 C   0  0  0  0  0  0  0  0  0  0  0  0
   24.8607  -20.9015  -10.9150 C   0  0  1  0  0  0  0  0  0  0  0  0
   24.7875  -19.5857  -10.4772 O   0  0  0  0  0  0  0  0  0  0  0  0
   24.5931  -21.0233  -12.3981 C   0  0  2  0  0  0  0  0  0  0  0  0
   25.5736  -20.3469  -13.2029 N   0  0  0  0  0  0  0  0  0  0  0  0
   23.2113  -20.6212  -12.7184 C   0  0  0  0  0  0  0  0  0  0  0  0
   22.8514  -19.4112  -12.8048 O   0  0  0  0  0  0  0  0  0  0  0  0
   19.6939  -24.2145  -16.3380 C   0  0  0  0  0  0  0  0  0  0  0  0
   18.2994  -23.1681  -15.8529 S   0  0  0  0  0  0  0  0  0  0  0  0
   18.8527  -21.9149  -14.6328 C   0  0  0  0  0  0  0  0  0  0  0  0
   20.3092  -22.1505  -14.3140 C   0  0  0  0  0  0  0  0  0  0  0  0
   20.8109  -21.2238  -13.2530 C   0  0  2  0  0  0  0  0  0  0  0  0
   22.1858  -21.5910  -12.9532 N   0  0  0  0  0  0  0  0  0  0  0  0
   20.0054  -21.1512  -12.0387 C   0  0  0  0  0  0  0  0  0  0  0  0
   20.2366  -21.7597  -10.9621 O   0  0  0  0  0  0  0  0  0  0  0  0
   18.8611  -20.3312  -12.0512 O   0  0  0  0  0  0  0  0  0  0  0  0
  1  5  1  0
  1  2  1  0
  2  3  1  0
  4  3  1  0
  5  4  1  0
  5  6  1  1
  7  6  2  0
  9  8  1  6
  9 11  1  0
 10  9  1  0
 11 12  1  6
 11 13  1  0
 12  6  1  0
 13 20  1  0
 14 13  2  0
 15 16  1  0
 17 16  1  0
 18 17  1  0
 19 18  1  6
 19 21  1  0
 20 19  1  0
 21 23  1  0
 22 21  2  0
M  END
$$$$
