PTM.pdb
     RDKit          3D

 23 23  0  0  1  0  0  0  0  0999 V2000
   20.1366  -15.1744  -18.6364 N   0  0  0  0  0  0  0  0  0  0  0  0
   19.8247  -16.5242  -19.0666 C   0  0  0  0  0  0  0  0  0  0  0  0
   19.6678  -16.3133  -20.5669 C   0  0  0  0  0  0  0  0  0  0  0  0
   20.7968  -15.3604  -20.8707 C   0  0  0  0  0  0  0  0  0  0  0  0
   21.2451  -14.8432  -19.5252 C   0  0  1  0  0  0  0  0  0  0  0  0
   21.5378  -13.4068  -19.5346 C   0  0  0  0  0  0  0  0  0  0  0  0
   22.5002  -12.9868  -20.2251 O   0  0  0  0  0  0  0  0  0  0  0  0
   19.0905  -10.6524  -20.3312 C   0  0  0  0  0  0  0  0  0  0  0  0
   19.6928  -10.2965  -18.9877 C   0  0  1  0  0  0  0  0  0  0  0  0
   18.7367  -10.6083  -18.0301 O   0  0  0  0  0  0  0  0  0  0  0  0
   20.9755  -11.0704  -18.7839 C   0  0  2  0  0  0  0  0  0  0  0  0
   20.7807  -12.4947  -18.8007 N   0  0  0  0  0  0  0  0  0  0  0  0
   21.6870  -10.6026  -17.5804 C   0  0  0  0  0  0  0  0  0  0  0  0
   21.5899  -11.1795  -16.4583 O   0  0  0  0  0  0  0  0  0  0  0  0
   26.7736  -11.7059  -14.9536 C   0  0  0  0  0  0  0  0  0  0  0  0
   27.0771   -9.9637  -15.3375 S   0  0  0  0  0  0  0  0  0  0  0  0
   25.4922   -9.0399  -15.3460 C   0  0  0  0  0  0  0  0  0  0  0  0
   24.6336   -9.5497  -16.4781 C   0  0  0  0  0  0  0  0  0  0  0  0
   23.2551   -8.9711  -16.4445 C   0  0  2  0  0  0  0  0  0  0  0  0
   22.5396   -9.4540  -17.6149 N   0  0  0  0  0  0  0  0  0  0  0  0
   23.1771   -7.5181  -16.3384 C   0  0  0  0  0  0  0  0  0  0  0  0
   23.1575   -6.7078  -17.3005 O   0  0  0  0  0  0  0  0  0  0  0  0
   23.1175   -6.9504  -15.0515 O   0  0  0  0  0  0  0  0  0  0  0  0
  1  5  1  0
  1  2  1  0
  2  3  1  0
  4  3  1  0
  5  4  1  0
  5  6  1  6
  7  6  2  0
  9  8  1  6
  9 11  1  0
 10  9  1  0
 11 12  1  1
 11 13  1  0
 12  6  1  0
 13 20  1  0
 14 13  2  0
 15 16  1  0
 17 16  1  0
 18 17  1  0
 19 18  1  6
 19 21  1  0
 20 19  1  0
 21 23  1  0
 22 21  2  0
M  END
$$$$
