PTM.pdb
     RDKit          3D

 23 23  0  0  1  0  0  0  0  0999 V2000
   19.8989  -12.7605  -17.4951 N   0  0  0  0  0  0  0  0  0  0  0  0
   18.7093  -13.5726  -17.6677 C   0  0  0  0  0  0  0  0  0  0  0  0
   17.9446  -13.2270  -16.3965 C   0  0  0  0  0  0  0  0  0  0  0  0
   18.1815  -11.7419  -16.2806 C   0  0  0  0  0  0  0  0  0  0  0  0
   19.3120  -11.4500  -17.2374 C   0  0  1  0  0  0  0  0  0  0  0  0
   20.2895  -10.5023  -16.6939 C   0  0  0  0  0  0  0  0  0  0  0  0
   21.0446  -10.8755  -15.7611 O   0  0  0  0  0  0  0  0  0  0  0  0
   22.7982   -8.3882  -18.6404 C   0  0  0  0  0  0  0  0  0  0  0  0
   22.0063   -7.4304  -17.7743 C   0  0  1  0  0  0  0  0  0  0  0  0
   21.1104   -6.7841  -18.6156 O   0  0  0  0  0  0  0  0  0  0  0  0
   21.3040   -8.1982  -16.6773 C   0  0  2  0  0  0  0  0  0  0  0  0
   20.4053   -9.2010  -17.1808 N   0  0  0  0  0  0  0  0  0  0  0  0
   20.6608   -7.2794  -15.7205 C   0  0  0  0  0  0  0  0  0  0  0  0
   19.4346   -6.9729  -15.7819 O   0  0  0  0  0  0  0  0  0  0  0  0
   19.2461   -7.9913   -9.9729 C   0  0  0  0  0  0  0  0  0  0  0  0
   20.0804   -6.4030   -9.7358 S   0  0  0  0  0  0  0  0  0  0  0  0
   20.1523   -5.4909  -11.3258 C   0  0  0  0  0  0  0  0  0  0  0  0
   20.6445   -6.4245  -12.4050 C   0  0  0  0  0  0  0  0  0  0  0  0
   20.8003   -5.7321  -13.7212 C   0  0  2  0  0  0  0  0  0  0  0  0
   21.3979   -6.6748  -14.6535 N   0  0  0  0  0  0  0  0  0  0  0  0
   21.5380   -4.4736  -13.6949 C   0  0  0  0  0  0  0  0  0  0  0  0
   21.1177   -3.3812  -13.2338 O   0  0  0  0  0  0  0  0  0  0  0  0
   22.8405   -4.4583  -14.2289 O   0  0  0  0  0  0  0  0  0  0  0  0
  1  5  1  0
  1  2  1  0
  2  3  1  0
  4  3  1  0
  5  4  1  0
  5  6  1  1
  7  6  2  0
  9  8  1  6
  9 11  1  0
 10  9  1  0
 11 12  1  6
 11 13  1  0
 12  6  1  0
 13 20  1  0
 14 13  2  0
 15 16  1  0
 17 16  1  0
 18 17  1  0
 19 18  1  1
 19 21  1  0
 20 19  1  0
 21 23  1  0
 22 21  2  0
M  END
$$$$
