PTM.pdb
     RDKit          3D

 23 23  0  0  1  0  0  0  0  0999 V2000
   23.3057  -18.5401  -14.8178 N   0  0  0  0  0  0  0  0  0  0  0  0
   22.5364  -18.1409  -15.9811 C   0  0  0  0  0  0  0  0  0  0  0  0
   21.9842  -19.4875  -16.4302 C   0  0  0  0  0  0  0  0  0  0  0  0
   21.6220  -20.1334  -15.1161 C   0  0  0  0  0  0  0  0  0  0  0  0
   22.3098  -19.2955  -14.0655 C   0  0  1  0  0  0  0  0  0  0  0  0
   22.9137  -20.1000  -12.9992 C   0  0  0  0  0  0  0  0  0  0  0  0
   22.1620  -20.7078  -12.1960 O   0  0  0  0  0  0  0  0  0  0  0  0
   24.6336  -23.1228  -13.1365 C   0  0  0  0  0  0  0  0  0  0  0  0
   25.6587  -22.2234  -12.4771 C   0  0  1  0  0  0  0  0  0  0  0  0
   26.5638  -21.8628  -13.4666 O   0  0  0  0  0  0  0  0  0  0  0  0
   24.9679  -21.0219  -11.8728 C   0  0  2  0  0  0  0  0  0  0  0  0
   24.2956  -20.2102  -12.8505 N   0  0  0  0  0  0  0  0  0  0  0  0
   25.8972  -20.2504  -11.0274 C   0  0  0  0  0  0  0  0  0  0  0  0
   26.2464  -19.0644  -11.2971 O   0  0  0  0  0  0  0  0  0  0  0  0
   26.6915  -19.3027   -4.9527 C   0  0  0  0  0  0  0  0  0  0  0  0
   28.4077  -19.8069   -5.2267 S   0  0  0  0  0  0  0  0  0  0  0  0
   28.7591  -19.8777   -7.0258 C   0  0  0  0  0  0  0  0  0  0  0  0
   27.5129  -20.3234   -7.7517 C   0  0  0  0  0  0  0  0  0  0  0  0
   27.6866  -20.2992   -9.2368 C   0  0  2  0  0  0  0  0  0  0  0  0
   26.4638  -20.8078   -9.8376 N   0  0  0  0  0  0  0  0  0  0  0  0
   28.8597  -20.9973   -9.7517 C   0  0  0  0  0  0  0  0  0  0  0  0
   28.8800  -22.1696  -10.2076 O   0  0  0  0  0  0  0  0  0  0  0  0
   30.0912  -20.3150   -9.7472 O   0  0  0  0  0  0  0  0  0  0  0  0
  1  5  1  0
  1  2  1  0
  2  3  1  0
  4  3  1  0
  5  4  1  0
  5  6  1  1
  7  6  2  0
  9  8  1  6
  9 11  1  0
 10  9  1  0
 11 12  1  6
 11 13  1  0
 12  6  1  0
 13 20  1  0
 14 13  2  0
 15 16  1  0
 17 16  1  0
 18 17  1  0
 19 18  1  1
 19 21  1  0
 20 19  1  0
 21 23  1  0
 22 21  2  0
M  END
$$$$
