PTM.pdb
     RDKit          3D

 23 23  0  0  1  0  0  0  0  0999 V2000
   24.7191  -22.2611  -15.6524 N   0  0  0  0  0  0  0  0  0  0  0  0
   24.0378  -22.0798  -16.9201 C   0  0  0  0  0  0  0  0  0  0  0  0
   24.7295  -20.8244  -17.4356 C   0  0  0  0  0  0  0  0  0  0  0  0
   26.1668  -21.0781  -17.0550 C   0  0  0  0  0  0  0  0  0  0  0  0
   26.1154  -22.2241  -16.0737 C   0  0  1  0  0  0  0  0  0  0  0  0
   27.0311  -22.0483  -14.9425 C   0  0  0  0  0  0  0  0  0  0  0  0
   28.2698  -22.0744  -15.1533 O   0  0  0  0  0  0  0  0  0  0  0  0
   25.7481  -18.9942  -13.2667 C   0  0  0  0  0  0  0  0  0  0  0  0
   27.1649  -19.5178  -13.1531 C   0  0  1  0  0  0  0  0  0  0  0  0
   27.8250  -18.6834  -12.2608 O   0  0  0  0  0  0  0  0  0  0  0  0
   27.1406  -20.9530  -12.6783 C   0  0  2  0  0  0  0  0  0  0  0  0
   26.5683  -21.8535  -13.6419 N   0  0  0  0  0  0  0  0  0  0  0  0
   26.5099  -21.0574  -11.3499 C   0  0  0  0  0  0  0  0  0  0  0  0
   25.2810  -21.3149  -11.1921 O   0  0  0  0  0  0  0  0  0  0  0  0
   29.5159  -20.3714   -4.9890 C   0  0  0  0  0  0  0  0  0  0  0  0
   28.2359  -19.1725   -5.4349 S   0  0  0  0  0  0  0  0  0  0  0  0
   26.9889  -19.9646   -6.5226 C   0  0  0  0  0  0  0  0  0  0  0  0
   27.5706  -20.1146   -7.9074 C   0  0  0  0  0  0  0  0  0  0  0  0
   26.6470  -20.8429   -8.8308 C   0  0  2  0  0  0  0  0  0  0  0  0
   27.2632  -20.8712  -10.1477 N   0  0  0  0  0  0  0  0  0  0  0  0
   25.2810  -20.3345   -8.8961 C   0  0  0  0  0  0  0  0  0  0  0  0
   24.8898  -19.3556   -9.5825 O   0  0  0  0  0  0  0  0  0  0  0  0
   24.2954  -20.9841   -8.1289 O   0  0  0  0  0  0  0  0  0  0  0  0
  1  5  1  0
  1  2  1  0
  2  3  1  0
  4  3  1  0
  5  4  1  0
  5  6  1  1
  7  6  2  0
  9  8  1  1
  9 11  1  0
 10  9  1  0
 11 12  1  6
 11 13  1  0
 12  6  1  0
 13 20  1  0
 14 13  2  0
 15 16  1  0
 17 16  1  0
 18 17  1  0
 19 18  1  1
 19 21  1  0
 20 19  1  0
 21 23  1  0
 22 21  2  0
M  END
$$$$
