PTM.pdb
     RDKit          3D

 23 23  0  0  1  0  0  0  0  0999 V2000
   23.0688  -11.9293  -19.2087 N   0  0  0  0  0  0  0  0  0  0  0  0
   22.5811  -13.0471  -19.9941 C   0  0  0  0  0  0  0  0  0  0  0  0
   23.0067  -14.2165  -19.1158 C   0  0  0  0  0  0  0  0  0  0  0  0
   22.6927  -13.7023  -17.7330 C   0  0  0  0  0  0  0  0  0  0  0  0
   22.4767  -12.2183  -17.9070 C   0  0  1  0  0  0  0  0  0  0  0  0
   23.0822  -11.4239  -16.8341 C   0  0  0  0  0  0  0  0  0  0  0  0
   22.5474  -11.4303  -15.6968 O   0  0  0  0  0  0  0  0  0  0  0  0
   26.8080  -11.4843  -15.8158 C   0  0  0  0  0  0  0  0  0  0  0  0
   26.4221  -10.0478  -16.1023 C   0  0  1  0  0  0  0  0  0  0  0  0
   26.9171   -9.7491  -17.3648 O   0  0  0  0  0  0  0  0  0  0  0  0
   24.9190   -9.9008  -16.0312 C   0  0  2  0  0  0  0  0  0  0  0  0
   24.2321  -10.6625  -17.0385 N   0  0  0  0  0  0  0  0  0  0  0  0
   24.5290   -8.4790  -16.0213 C   0  0  0  0  0  0  0  0  0  0  0  0
   25.0485   -7.6305  -15.2393 O   0  0  0  0  0  0  0  0  0  0  0  0
   22.1808   -6.1463  -21.3591 C   0  0  0  0  0  0  0  0  0  0  0  0
   23.9270   -5.9282  -20.9371 S   0  0  0  0  0  0  0  0  0  0  0  0
   24.2231   -6.4593  -19.2063 C   0  0  0  0  0  0  0  0  0  0  0  0
   22.9831   -6.1850  -18.3902 C   0  0  0  0  0  0  0  0  0  0  0  0
   23.1572   -6.5667  -16.9549 C   0  0  2  0  0  0  0  0  0  0  0  0
   23.5274   -7.9723  -16.9085 N   0  0  0  0  0  0  0  0  0  0  0  0
   22.0230   -6.2886  -16.0803 C   0  0  0  0  0  0  0  0  0  0  0  0
   21.3115   -7.1477  -15.4986 O   0  0  0  0  0  0  0  0  0  0  0  0
   21.6762   -4.9432  -15.8532 O   0  0  0  0  0  0  0  0  0  0  0  0
  1  5  1  0
  1  2  1  0
  2  3  1  0
  4  3  1  0
  5  4  1  0
  5  6  1  1
  7  6  2  0
  9  8  1  6
  9 11  1  0
 10  9  1  0
 11 12  1  6
 11 13  1  0
 12  6  1  0
 13 20  1  0
 14 13  2  0
 15 16  1  0
 17 16  1  0
 18 17  1  0
 19 18  1  6
 19 21  1  0
 20 19  1  0
 21 23  1  0
 22 21  2  0
M  END
$$$$
