PTM.pdb
     RDKit          3D

 23 23  0  0  1  0  0  0  0  0999 V2000
   28.1696  -25.5491  -16.3263 N   0  0  0  0  0  0  0  0  0  0  0  0
   28.5339  -26.3654  -17.4688 C   0  0  0  0  0  0  0  0  0  0  0  0
   27.1797  -26.9584  -17.8355 C   0  0  0  0  0  0  0  0  0  0  0  0
   26.2591  -25.7777  -17.6530 C   0  0  0  0  0  0  0  0  0  0  0  0
   27.0683  -24.7667  -16.8772 C   0  0  1  0  0  0  0  0  0  0  0  0
   26.2904  -24.0931  -15.8331 C   0  0  0  0  0  0  0  0  0  0  0  0
   26.1149  -24.6765  -14.7338 O   0  0  0  0  0  0  0  0  0  0  0  0
   25.5924  -19.9100  -16.0826 C   0  0  0  0  0  0  0  0  0  0  0  0
   25.5910  -20.7027  -14.7918 C   0  0  1  0  0  0  0  0  0  0  0  0
   24.8391  -19.9734  -13.8801 O   0  0  0  0  0  0  0  0  0  0  0  0
   25.0097  -22.0764  -15.0389 C   0  0  2  0  0  0  0  0  0  0  0  0
   25.7404  -22.8263  -16.0240 N   0  0  0  0  0  0  0  0  0  0  0  0
   23.5678  -21.9924  -15.3348 C   0  0  0  0  0  0  0  0  0  0  0  0
   23.1170  -21.7944  -16.5004 O   0  0  0  0  0  0  0  0  0  0  0  0
   16.4902  -24.2258  -12.6340 C   0  0  0  0  0  0  0  0  0  0  0  0
   18.2497  -23.9438  -12.3184 S   0  0  0  0  0  0  0  0  0  0  0  0
   18.9871  -22.9871  -13.6991 C   0  0  0  0  0  0  0  0  0  0  0  0
   20.4715  -22.8489  -13.4621 C   0  0  0  0  0  0  0  0  0  0  0  0
   21.1554  -22.1251  -14.5777 C   0  0  2  0  0  0  0  0  0  0  0  0
   22.5839  -22.1328  -14.3054 N   0  0  0  0  0  0  0  0  0  0  0  0
   20.6752  -20.7742  -14.8485 C   0  0  0  0  0  0  0  0  0  0  0  0
   19.7057  -20.4703  -15.5903 O   0  0  0  0  0  0  0  0  0  0  0  0
   21.3435  -19.6983  -14.2339 O   0  0  0  0  0  0  0  0  0  0  0  0
  1  5  1  0
  1  2  1  0
  2  3  1  0
  4  3  1  0
  5  4  1  0
  5  6  1  1
  7  6  2  0
  9  8  1  6
  9 11  1  0
 10  9  1  0
 11 12  1  6
 11 13  1  0
 12  6  1  0
 13 20  1  0
 14 13  2  0
 15 16  1  0
 17 16  1  0
 18 17  1  0
 19 18  1  1
 19 21  1  0
 20 19  1  0
 21 23  1  0
 22 21  2  0
M  END
$$$$
