PTM.pdb
     RDKit          3D

 23 23  0  0  1  0  0  0  0  0999 V2000
   24.3329  -11.9703  -15.8260 N   0  0  0  0  0  0  0  0  0  0  0  0
   24.9451  -13.2735  -16.0025 C   0  0  0  0  0  0  0  0  0  0  0  0
   23.7473  -14.0864  -16.4764 C   0  0  0  0  0  0  0  0  0  0  0  0
   23.0645  -13.1231  -17.4149 C   0  0  0  0  0  0  0  0  0  0  0  0
   23.6911  -11.7812  -17.1225 C   0  0  1  0  0  0  0  0  0  0  0  0
   22.7150  -10.6876  -17.1034 C   0  0  0  0  0  0  0  0  0  0  0  0
   22.1567  -10.3521  -18.1782 O   0  0  0  0  0  0  0  0  0  0  0  0
   19.4565  -10.3887  -15.7465 C   0  0  0  0  0  0  0  0  0  0  0  0
   20.2150   -9.2891  -15.0323 C   0  0  1  0  0  0  0  0  0  0  0  0
   20.5281   -9.7788  -13.7711 O   0  0  0  0  0  0  0  0  0  0  0  0
   21.4506   -8.9259  -15.8244 C   0  0  2  0  0  0  0  0  0  0  0  0
   22.3890  -10.0100  -15.9294 N   0  0  0  0  0  0  0  0  0  0  0  0
   22.0607   -7.6866  -15.3092 C   0  0  0  0  0  0  0  0  0  0  0  0
   23.0831   -7.6837  -14.5636 O   0  0  0  0  0  0  0  0  0  0  0  0
   22.4159    0.1702  -16.2834 C   0  0  0  0  0  0  0  0  0  0  0  0
   21.8916   -1.4619  -16.8632 S   0  0  0  0  0  0  0  0  0  0  0  0
   22.2950   -2.7325  -15.6029 C   0  0  0  0  0  0  0  0  0  0  0  0
   21.7751   -4.0701  -16.0711 C   0  0  0  0  0  0  0  0  0  0  0  0
   22.0742   -5.1637  -15.0961 C   0  0  2  0  0  0  0  0  0  0  0  0
   21.5231   -6.3996  -15.6287 N   0  0  0  0  0  0  0  0  0  0  0  0
   21.6302   -4.9333  -13.7255 C   0  0  0  0  0  0  0  0  0  0  0  0
   20.5624   -5.3585  -13.2142 O   0  0  0  0  0  0  0  0  0  0  0  0
   22.4572   -4.1680  -12.8815 O   0  0  0  0  0  0  0  0  0  0  0  0
  1  5  1  0
  1  2  1  0
  2  3  1  0
  4  3  1  0
  5  4  1  0
  5  6  1  1
  7  6  2  0
  9  8  1  6
  9 11  1  0
 10  9  1  0
 11 12  1  1
 11 13  1  0
 12  6  1  0
 13 20  1  0
 14 13  2  0
 15 16  1  0
 17 16  1  0
 18 17  1  0
 19 18  1  6
 19 21  1  0
 20 19  1  0
 21 23  1  0
 22 21  2  0
M  END
$$$$
