PTM.pdb
     RDKit          3D

 23 23  0  0  1  0  0  0  0  0999 V2000
   20.4999  -12.2281  -18.4338 N   0  0  0  0  0  0  0  0  0  0  0  0
   20.1745  -13.4953  -19.0603 C   0  0  0  0  0  0  0  0  0  0  0  0
   19.8645  -14.3450  -17.8348 C   0  0  0  0  0  0  0  0  0  0  0  0
   19.0873  -13.3820  -16.9724 C   0  0  0  0  0  0  0  0  0  0  0  0
   19.3312  -12.0239  -17.5847 C   0  0  1  0  0  0  0  0  0  0  0  0
   19.5506  -10.9770  -16.5823 C   0  0  0  0  0  0  0  0  0  0  0  0
   18.6566  -10.7574  -15.7266 O   0  0  0  0  0  0  0  0  0  0  0  0
   22.3113  -10.6913  -14.1495 C   0  0  0  0  0  0  0  0  0  0  0  0
   22.3296   -9.3724  -14.8942 C   0  0  1  0  0  0  0  0  0  0  0  0
   23.3994   -9.4314  -15.7777 O   0  0  0  0  0  0  0  0  0  0  0  0
   21.0121   -9.1730  -15.6086 C   0  0  2  0  0  0  0  0  0  0  0  0
   20.7204  -10.2191  -16.5507 N   0  0  0  0  0  0  0  0  0  0  0  0
   20.9346   -7.8265  -16.2040 C   0  0  0  0  0  0  0  0  0  0  0  0
   21.1644   -7.6033  -17.4282 O   0  0  0  0  0  0  0  0  0  0  0  0
   16.7812   -1.6891  -17.6439 C   0  0  0  0  0  0  0  0  0  0  0  0
   17.0536   -3.3384  -16.9508 S   0  0  0  0  0  0  0  0  0  0  0  0
   18.8475   -3.6173  -16.6869 C   0  0  0  0  0  0  0  0  0  0  0  0
   19.0600   -5.0386  -16.2249 C   0  0  0  0  0  0  0  0  0  0  0  0
   20.5037   -5.3416  -15.9799 C   0  0  2  0  0  0  0  0  0  0  0  0
   20.5899   -6.6807  -15.4194 N   0  0  0  0  0  0  0  0  0  0  0  0
   21.2261   -4.3762  -15.1584 C   0  0  0  0  0  0  0  0  0  0  0  0
   21.4963   -4.5028  -13.9363 O   0  0  0  0  0  0  0  0  0  0  0  0
   21.6701   -3.1880  -15.7692 O   0  0  0  0  0  0  0  0  0  0  0  0
  1  5  1  0
  1  2  1  0
  2  3  1  0
  4  3  1  0
  5  4  1  0
  5  6  1  1
  7  6  2  0
  9  8  1  6
  9 11  1  0
 10  9  1  0
 11 12  1  6
 11 13  1  0
 12  6  1  0
 13 20  1  0
 14 13  2  0
 15 16  1  0
 17 16  1  0
 18 17  1  0
 19 18  1  1
 19 21  1  0
 20 19  1  0
 21 23  1  0
 22 21  2  0
M  END
$$$$
