PTM.pdb
     RDKit          3D

 23 23  0  0  1  0  0  0  0  0999 V2000
   18.2453  -12.2597  -14.9948 N   0  0  0  0  0  0  0  0  0  0  0  0
   17.6893  -13.5982  -15.0551 C   0  0  0  0  0  0  0  0  0  0  0  0
   16.6222  -13.4127  -16.1260 C   0  0  0  0  0  0  0  0  0  0  0  0
   17.3305  -12.5354  -17.1278 C   0  0  0  0  0  0  0  0  0  0  0  0
   18.5470  -12.0150  -16.4011 C   0  0  1  0  0  0  0  0  0  0  0  0
   18.8118  -10.5990  -16.6728 C   0  0  0  0  0  0  0  0  0  0  0  0
   19.1807  -10.2596  -17.8253 O   0  0  0  0  0  0  0  0  0  0  0  0
   16.4486   -7.7567  -16.4575 C   0  0  0  0  0  0  0  0  0  0  0  0
   17.5827   -7.4186  -15.5121 C   0  0  1  0  0  0  0  0  0  0  0  0
   17.1397   -7.7324  -14.2340 O   0  0  0  0  0  0  0  0  0  0  0  0
   18.8163   -8.2044  -15.8955 C   0  0  2  0  0  0  0  0  0  0  0  0
   18.6665   -9.6195  -15.6913 N   0  0  0  0  0  0  0  0  0  0  0  0
   20.0162   -7.6537  -15.2394 C   0  0  0  0  0  0  0  0  0  0  0  0
   20.4526   -8.0858  -14.1330 O   0  0  0  0  0  0  0  0  0  0  0  0
   25.7666   -6.5220  -17.8901 C   0  0  0  0  0  0  0  0  0  0  0  0
   25.4218   -4.9319  -17.0979 S   0  0  0  0  0  0  0  0  0  0  0  0
   24.2308   -5.1639  -15.7220 C   0  0  0  0  0  0  0  0  0  0  0  0
   22.9774   -5.8089  -16.2619 C   0  0  0  0  0  0  0  0  0  0  0  0
   21.9473   -6.0167  -15.1980 C   0  0  2  0  0  0  0  0  0  0  0  0
   20.7652   -6.5849  -15.8260 N   0  0  0  0  0  0  0  0  0  0  0  0
   21.6105   -4.8425  -14.4002 C   0  0  0  0  0  0  0  0  0  0  0  0
   22.3001   -4.3643  -13.4630 O   0  0  0  0  0  0  0  0  0  0  0  0
   20.4089   -4.1682  -14.6890 O   0  0  0  0  0  0  0  0  0  0  0  0
  1  5  1  0
  1  2  1  0
  2  3  1  0
  4  3  1  0
  5  4  1  0
  5  6  1  1
  7  6  2  0
  9  8  1  6
  9 11  1  0
 10  9  1  0
 11 12  1  1
 11 13  1  0
 12  6  1  0
 13 20  1  0
 14 13  2  0
 15 16  1  0
 17 16  1  0
 18 17  1  0
 19 18  1  6
 19 21  1  0
 20 19  1  0
 21 23  1  0
 22 21  2  0
M  END
$$$$
