AWG.pdb
     RDKit          3D

 24 25  0  0  1  0  0  0  0  0999 V2000
   27.2273  -19.0121  -15.5158 C   0  0  0  0  0  0  0  0  0  0  0  0
   28.0100  -19.8805  -14.5598 C   0  0  2  0  0  0  0  0  0  0  0  0
   28.8414  -20.8030  -15.2970 N   0  0  0  0  0  0  0  0  0  0  0  0
   27.0299  -20.5735  -13.6943 C   0  0  0  0  0  0  0  0  0  0  0  0
   26.5268  -21.6381  -14.1578 O   0  0  0  0  0  0  0  0  0  0  0  0
   26.6329  -20.1388  -12.4271 N   0  0  0  0  0  0  0  0  0  0  0  0
   25.7192  -20.9492  -11.6453 C   0  0  1  0  0  0  0  0  0  0  0  0
   25.8226  -20.7796  -10.1807 C   0  0  0  0  0  0  0  0  0  0  0  0
   27.1794  -20.9281   -9.6499 C   0  0  0  0  0  0  0  0  0  0  0  0
   28.2880  -21.5672  -10.1351 C   0  0  0  0  0  0  0  0  0  0  0  0
   29.2811  -21.3935   -9.2271 N   0  0  0  0  0  0  0  0  0  0  0  0
   28.8511  -20.6760   -8.1928 C   0  0  0  0  0  0  0  0  0  0  0  0
   29.4911  -20.2442   -7.0273 C   0  0  0  0  0  0  0  0  0  0  0  0
   28.7575  -19.5074   -6.1359 C   0  0  0  0  0  0  0  0  0  0  0  0
   27.4351  -19.1771   -6.3343 C   0  0  0  0  0  0  0  0  0  0  0  0
   26.8176  -19.6141   -7.4962 C   0  0  0  0  0  0  0  0  0  0  0  0
   27.5411  -20.3635   -8.4160 C   0  0  0  0  0  0  0  0  0  0  0  0
   24.3067  -20.6745  -12.1161 C   0  0  0  0  0  0  0  0  0  0  0  0
   23.9247  -19.5327  -12.4377 O   0  0  0  0  0  0  0  0  0  0  0  0
   23.4130  -21.7711  -12.1831 N   0  0  0  0  0  0  0  0  0  0  0  0
   22.1266  -21.6639  -12.8713 C   0  0  0  0  0  0  0  0  0  0  0  0
   21.1610  -21.0580  -11.9507 C   0  0  0  0  0  0  0  0  0  0  0  0
   20.7208  -19.9149  -12.1640 O   0  0  0  0  0  0  0  0  0  0  0  0
   20.7414  -21.7592  -10.8471 O   0  0  0  0  0  0  0  0  0  0  0  0
  2  1  1  6
  2  3  1  0
  4  2  1  0
  5  4  2  0
  6  4  1  0
  7  6  1  0
  8  9  1  0
  7  8  1  1
  9 17  1  0
 10 11  1  0
 10  9  2  0
 11 12  1  0
 12 17  2  0
 12 13  1  0
 13 14  2  0
 14 15  1  0
 16 15  2  0
 17 16  1  0
 18 20  1  0
 18  7  1  0
 19 18  2  0
 21 20  1  0
 22 24  1  0
 22 21  1  0
 23 22  2  0
M  END
$$$$
