AWG.pdb
     RDKit          3D

 24 25  0  0  1  0  0  0  0  0999 V2000
   28.2355  -18.9083  -13.3961 C   0  0  0  0  0  0  0  0  0  0  0  0
   28.7753  -20.1982  -12.8257 C   0  0  2  0  0  0  0  0  0  0  0  0
   29.1982  -21.0729  -13.8942 N   0  0  0  0  0  0  0  0  0  0  0  0
   27.7022  -20.7954  -12.0001 C   0  0  0  0  0  0  0  0  0  0  0  0
   26.8966  -21.5655  -12.5993 O   0  0  0  0  0  0  0  0  0  0  0  0
   27.5248  -20.5696  -10.6326 N   0  0  0  0  0  0  0  0  0  0  0  0
   26.4418  -21.2320   -9.9317 C   0  0  1  0  0  0  0  0  0  0  0  0
   26.6925  -21.5065   -8.5011 C   0  0  0  0  0  0  0  0  0  0  0  0
   27.0350  -20.3227   -7.7101 C   0  0  0  0  0  0  0  0  0  0  0  0
   26.7016  -19.0023   -7.8456 C   0  0  0  0  0  0  0  0  0  0  0  0
   27.3032  -18.3302   -6.8321 N   0  0  0  0  0  0  0  0  0  0  0  0
   28.0002  -19.1638   -6.0649 C   0  0  0  0  0  0  0  0  0  0  0  0
   28.7782  -18.9499   -4.9231 C   0  0  0  0  0  0  0  0  0  0  0  0
   29.3825  -20.0390   -4.3536 C   0  0  0  0  0  0  0  0  0  0  0  0
   29.2592  -21.3184   -4.8489 C   0  0  0  0  0  0  0  0  0  0  0  0
   28.4833  -21.5106   -5.9817 C   0  0  0  0  0  0  0  0  0  0  0  0
   27.8601  -20.4211   -6.5778 C   0  0  0  0  0  0  0  0  0  0  0  0
   25.1814  -20.4112  -10.1048 C   0  0  0  0  0  0  0  0  0  0  0  0
   25.0364  -19.2965   -9.5667 O   0  0  0  0  0  0  0  0  0  0  0  0
   24.1511  -20.9539  -10.9107 N   0  0  0  0  0  0  0  0  0  0  0  0
   22.9042  -20.2256  -11.1451 C   0  0  0  0  0  0  0  0  0  0  0  0
   22.0643  -21.0266  -12.0396 C   0  0  0  0  0  0  0  0  0  0  0  0
   22.4788  -22.1092  -12.4894 O   0  0  0  0  0  0  0  0  0  0  0  0
   20.8127  -20.5766  -12.3811 O   0  0  0  0  0  0  0  0  0  0  0  0
  2  1  1  6
  2  3  1  0
  4  2  1  0
  5  4  2  0
  6  4  1  0
  7  6  1  0
  8  9  1  0
  7  8  1  1
  9 17  1  0
 10 11  1  0
 10  9  2  0
 11 12  1  0
 12 17  2  0
 12 13  1  0
 13 14  2  0
 14 15  1  0
 16 15  2  0
 17 16  1  0
 18 20  1  0
 18  7  1  0
 19 18  2  0
 21 20  1  0
 22 24  1  0
 22 21  1  0
 23 22  2  0
M  END
$$$$
