AWG.pdb
     RDKit          3D

 24 25  0  0  1  0  0  0  0  0999 V2000
   27.1135  -19.3542  -14.6501 C   0  0  0  0  0  0  0  0  0  0  0  0
   27.9175  -20.3129  -13.8045 C   0  0  2  0  0  0  0  0  0  0  0  0
   28.4297  -21.3857  -14.6243 N   0  0  0  0  0  0  0  0  0  0  0  0
   27.0265  -20.8018  -12.7289 C   0  0  0  0  0  0  0  0  0  0  0  0
   26.4289  -21.8952  -12.9496 O   0  0  0  0  0  0  0  0  0  0  0  0
   26.8072  -20.1497  -11.5127 N   0  0  0  0  0  0  0  0  0  0  0  0
   25.9060  -20.7343  -10.5385 C   0  0  1  0  0  0  0  0  0  0  0  0
   26.1430  -20.3270   -9.1376 C   0  0  0  0  0  0  0  0  0  0  0  0
   27.4383  -20.7457   -8.5979 C   0  0  0  0  0  0  0  0  0  0  0  0
   28.4302  -21.5388   -9.1079 C   0  0  0  0  0  0  0  0  0  0  0  0
   29.4142  -21.6004   -8.1758 N   0  0  0  0  0  0  0  0  0  0  0  0
   29.0895  -20.8845   -7.1027 C   0  0  0  0  0  0  0  0  0  0  0  0
   29.7645  -20.6464   -5.9017 C   0  0  0  0  0  0  0  0  0  0  0  0
   29.1482  -19.8490   -4.9744 C   0  0  0  0  0  0  0  0  0  0  0  0
   27.9097  -19.2787   -5.1700 C   0  0  0  0  0  0  0  0  0  0  0  0
   27.2560  -19.5261   -6.3673 C   0  0  0  0  0  0  0  0  0  0  0  0
   27.8608  -20.3322   -7.3240 C   0  0  0  0  0  0  0  0  0  0  0  0
   24.4826  -20.4246  -10.9510 C   0  0  0  0  0  0  0  0  0  0  0  0
   24.1613  -19.3322  -11.4576 O   0  0  0  0  0  0  0  0  0  0  0  0
   23.5062  -21.4290  -10.7423 N   0  0  0  0  0  0  0  0  0  0  0  0
   22.0877  -21.1763  -10.9955 C   0  0  0  0  0  0  0  0  0  0  0  0
   21.8301  -21.3875  -12.4224 C   0  0  0  0  0  0  0  0  0  0  0  0
   22.6997  -21.8985  -13.1496 O   0  0  0  0  0  0  0  0  0  0  0  0
   20.6202  -21.0182  -12.9568 O   0  0  0  0  0  0  0  0  0  0  0  0
  2  1  1  6
  2  3  1  0
  4  2  1  0
  5  4  2  0
  6  4  1  0
  7  6  1  0
  8  9  1  0
  7  8  1  1
  9 17  1  0
 10 11  1  0
 10  9  2  0
 11 12  1  0
 12 17  2  0
 12 13  1  0
 13 14  2  0
 14 15  1  0
 16 15  2  0
 17 16  1  0
 18 20  1  0
 18  7  1  0
 19 18  2  0
 21 20  1  0
 22 24  1  0
 22 21  1  0
 23 22  2  0
M  END
$$$$
