AWG.pdb
     RDKit          3D

 24 25  0  0  1  0  0  0  0  0999 V2000
   26.6950  -19.1048  -15.4614 C   0  0  0  0  0  0  0  0  0  0  0  0
   27.6144  -19.9280  -14.5911 C   0  0  2  0  0  0  0  0  0  0  0  0
   28.3612  -20.8599  -15.4031 N   0  0  0  0  0  0  0  0  0  0  0  0
   26.7712  -20.6086  -13.5834 C   0  0  0  0  0  0  0  0  0  0  0  0
   26.3780  -21.7751  -13.8769 O   0  0  0  0  0  0  0  0  0  0  0  0
   26.3895  -20.0597  -12.3564 N   0  0  0  0  0  0  0  0  0  0  0  0
   25.6431  -20.8675  -11.4113 C   0  0  1  0  0  0  0  0  0  0  0  0
   25.9055  -20.5735   -9.9867 C   0  0  0  0  0  0  0  0  0  0  0  0
   27.2637  -20.8955   -9.5439 C   0  0  0  0  0  0  0  0  0  0  0  0
   28.2742  -21.6074  -10.1312 C   0  0  0  0  0  0  0  0  0  0  0  0
   29.3235  -21.5995   -9.2711 N   0  0  0  0  0  0  0  0  0  0  0  0
   29.0222  -20.9171   -8.1697 C   0  0  0  0  0  0  0  0  0  0  0  0
   29.7606  -20.6356   -7.0163 C   0  0  0  0  0  0  0  0  0  0  0  0
   29.1528  -19.8932   -6.0389 C   0  0  0  0  0  0  0  0  0  0  0  0
   27.8640  -19.4179   -6.1407 C   0  0  0  0  0  0  0  0  0  0  0  0
   27.1478  -19.7070   -7.2921 C   0  0  0  0  0  0  0  0  0  0  0  0
   27.7427  -20.4588   -8.2980 C   0  0  0  0  0  0  0  0  0  0  0  0
   24.1673  -20.7329  -11.7211 C   0  0  0  0  0  0  0  0  0  0  0  0
   23.6141  -19.6231  -11.8458 O   0  0  0  0  0  0  0  0  0  0  0  0
   23.4170  -21.9248  -11.8688 N   0  0  0  0  0  0  0  0  0  0  0  0
   21.9697  -21.8923  -12.0798 C   0  0  0  0  0  0  0  0  0  0  0  0
   21.7143  -21.4415  -13.4505 C   0  0  0  0  0  0  0  0  0  0  0  0
   22.4153  -21.8567  -14.3899 O   0  0  0  0  0  0  0  0  0  0  0  0
   20.6942  -20.5556  -13.6960 O   0  0  0  0  0  0  0  0  0  0  0  0
  2  1  1  6
  2  3  1  0
  4  2  1  0
  5  4  2  0
  6  4  1  0
  7  6  1  0
  8  9  1  0
  7  8  1  1
  9 17  1  0
 10 11  1  0
 10  9  2  0
 11 12  1  0
 12 17  2  0
 12 13  1  0
 13 14  2  0
 14 15  1  0
 16 15  2  0
 17 16  1  0
 18 20  1  0
 18  7  1  0
 19 18  2  0
 21 20  1  0
 22 24  1  0
 22 21  1  0
 23 22  2  0
M  END
$$$$
