AWG.pdb
     RDKit          3D

 24 25  0  0  1  0  0  0  0  0999 V2000
   26.1465  -21.4833  -16.5811 C   0  0  0  0  0  0  0  0  0  0  0  0
   27.1157  -21.8260  -15.4749 C   0  0  2  0  0  0  0  0  0  0  0  0
   27.7313  -23.1061  -15.7355 N   0  0  0  0  0  0  0  0  0  0  0  0
   26.3544  -21.8149  -14.2060 C   0  0  0  0  0  0  0  0  0  0  0  0
   25.7090  -22.8678  -13.9301 O   0  0  0  0  0  0  0  0  0  0  0  0
   26.3031  -20.7417  -13.3126 N   0  0  0  0  0  0  0  0  0  0  0  0
   25.6266  -20.9008  -12.0397 C   0  0  1  0  0  0  0  0  0  0  0  0
   26.1910  -20.1126  -10.9240 C   0  0  0  0  0  0  0  0  0  0  0  0
   27.4382  -20.6494  -10.3756 C   0  0  0  0  0  0  0  0  0  0  0  0
   28.4562  -21.3651  -10.9451 C   0  0  0  0  0  0  0  0  0  0  0  0
   29.3679  -21.6112   -9.9709 N   0  0  0  0  0  0  0  0  0  0  0  0
   28.9728  -21.0853   -8.8147 C   0  0  0  0  0  0  0  0  0  0  0  0
   29.5598  -21.0757   -7.5459 C   0  0  0  0  0  0  0  0  0  0  0  0
   28.8855  -20.4372   -6.5393 C   0  0  0  0  0  0  0  0  0  0  0  0
   27.6713  -19.8123   -6.7192 C   0  0  0  0  0  0  0  0  0  0  0  0
   27.1051  -19.8321   -7.9845 C   0  0  0  0  0  0  0  0  0  0  0  0
   27.7700  -20.4738   -9.0223 C   0  0  0  0  0  0  0  0  0  0  0  0
   24.1589  -20.5818  -12.2300 C   0  0  0  0  0  0  0  0  0  0  0  0
   23.7745  -19.5675  -12.8436 O   0  0  0  0  0  0  0  0  0  0  0  0
   23.2154  -21.4844  -11.6817 N   0  0  0  0  0  0  0  0  0  0  0  0
   21.7949  -21.1443  -11.5997 C   0  0  0  0  0  0  0  0  0  0  0  0
   21.1149  -21.7242  -12.7609 C   0  0  0  0  0  0  0  0  0  0  0  0
   19.8745  -21.6956  -12.8424 O   0  0  0  0  0  0  0  0  0  0  0  0
   21.8545  -22.3015  -13.7636 O   0  0  0  0  0  0  0  0  0  0  0  0
  2  1  1  6
  2  3  1  0
  4  2  1  0
  5  4  2  0
  6  4  1  0
  7  6  1  0
  8  9  1  0
  7  8  1  1
  9 17  1  0
 10 11  1  0
 10  9  2  0
 11 12  1  0
 12 17  2  0
 12 13  1  0
 13 14  2  0
 14 15  1  0
 16 15  2  0
 17 16  1  0
 18 20  1  0
 18  7  1  0
 19 18  2  0
 21 20  1  0
 22 24  1  0
 22 21  1  0
 23 22  2  0
M  END
$$$$
