AWG.pdb
     RDKit          3D

 24 25  0  0  1  0  0  0  0  0999 V2000
   26.2441  -16.9580  -14.7949 C   0  0  0  0  0  0  0  0  0  0  0  0
   27.4517  -17.8634  -14.7440 C   0  0  2  0  0  0  0  0  0  0  0  0
   28.0944  -17.9040  -16.0366 N   0  0  0  0  0  0  0  0  0  0  0  0
   26.9818  -19.1966  -14.3062 C   0  0  0  0  0  0  0  0  0  0  0  0
   26.6611  -20.0071  -15.2236 O   0  0  0  0  0  0  0  0  0  0  0  0
   26.8719  -19.6096  -12.9759 N   0  0  0  0  0  0  0  0  0  0  0  0
   26.5812  -20.9989  -12.6787 C   0  0  1  0  0  0  0  0  0  0  0  0
   27.2112  -21.5250  -11.4495 C   0  0  0  0  0  0  0  0  0  0  0  0
   26.7353  -20.9017  -10.2127 C   0  0  0  0  0  0  0  0  0  0  0  0
   25.5092  -20.4193   -9.8429 C   0  0  0  0  0  0  0  0  0  0  0  0
   25.6309  -19.9393   -8.5797 N   0  0  0  0  0  0  0  0  0  0  0  0
   26.8752  -20.0956   -8.1362 C   0  0  0  0  0  0  0  0  0  0  0  0
   27.4802  -19.7632   -6.9204 C   0  0  0  0  0  0  0  0  0  0  0  0
   28.8089  -20.0594   -6.7706 C   0  0  0  0  0  0  0  0  0  0  0  0
   29.5653  -20.6624   -7.7513 C   0  0  0  0  0  0  0  0  0  0  0  0
   28.9477  -20.9848   -8.9499 C   0  0  0  0  0  0  0  0  0  0  0  0
   27.6003  -20.6941   -9.1260 C   0  0  0  0  0  0  0  0  0  0  0  0
   25.0786  -21.1772  -12.6268 C   0  0  0  0  0  0  0  0  0  0  0  0
   24.3213  -20.2972  -12.1737 O   0  0  0  0  0  0  0  0  0  0  0  0
   24.5455  -22.3942  -13.1167 N   0  0  0  0  0  0  0  0  0  0  0  0
   23.1255  -22.7158  -12.9737 C   0  0  0  0  0  0  0  0  0  0  0  0
   22.4164  -22.2019  -14.1485 C   0  0  0  0  0  0  0  0  0  0  0  0
   23.0362  -21.6038  -15.0452 O   0  0  0  0  0  0  0  0  0  0  0  0
   21.0596  -22.3837  -14.2571 O   0  0  0  0  0  0  0  0  0  0  0  0
  2  1  1  6
  2  3  1  0
  4  2  1  0
  5  4  2  0
  6  4  1  0
  7  6  1  0
  8  9  1  0
  7  8  1  1
  9 17  1  0
 10 11  1  0
 10  9  2  0
 11 12  1  0
 12 17  2  0
 12 13  1  0
 13 14  2  0
 14 15  1  0
 16 15  2  0
 17 16  1  0
 18 20  1  0
 18  7  1  0
 19 18  2  0
 21 20  1  0
 22 24  1  0
 22 21  1  0
 23 22  2  0
M  END
$$$$
