AWG.pdb
     RDKit          3D

 24 25  0  0  1  0  0  0  0  0999 V2000
   28.4851  -21.6811  -14.6747 C   0  0  0  0  0  0  0  0  0  0  0  0
   27.1587  -20.9593  -14.6545 C   0  0  2  0  0  0  0  0  0  0  0  0
   27.3615  -19.5458  -14.8699 N   0  0  0  0  0  0  0  0  0  0  0  0
   26.5242  -21.2449  -13.3485 C   0  0  0  0  0  0  0  0  0  0  0  0
   26.2805  -22.4610  -13.0975 O   0  0  0  0  0  0  0  0  0  0  0  0
   26.1843  -20.2809  -12.3957 N   0  0  0  0  0  0  0  0  0  0  0  0
   25.5017  -20.6834  -11.1812 C   0  0  1  0  0  0  0  0  0  0  0  0
   25.9972  -20.0499   -9.9411 C   0  0  0  0  0  0  0  0  0  0  0  0
   27.2997  -20.5437   -9.4895 C   0  0  0  0  0  0  0  0  0  0  0  0
   28.2484  -21.3175  -10.1012 C   0  0  0  0  0  0  0  0  0  0  0  0
   29.2652  -21.4795   -9.2175 N   0  0  0  0  0  0  0  0  0  0  0  0
   29.0021  -20.8455   -8.0781 C   0  0  0  0  0  0  0  0  0  0  0  0
   29.7290  -20.7231   -6.8901 C   0  0  0  0  0  0  0  0  0  0  0  0
   29.1714  -19.9885   -5.8776 C   0  0  0  0  0  0  0  0  0  0  0  0
   27.9431  -19.3731   -5.9766 C   0  0  0  0  0  0  0  0  0  0  0  0
   27.2374  -19.5056   -7.1626 C   0  0  0  0  0  0  0  0  0  0  0  0
   27.7821  -20.2462   -8.2045 C   0  0  0  0  0  0  0  0  0  0  0  0
   24.0191  -20.4306  -11.3544 C   0  0  0  0  0  0  0  0  0  0  0  0
   23.5660  -19.3026  -11.6291 O   0  0  0  0  0  0  0  0  0  0  0  0
   23.1430  -21.5315  -11.1931 N   0  0  0  0  0  0  0  0  0  0  0  0
   21.6905  -21.3595  -11.2231 C   0  0  0  0  0  0  0  0  0  0  0  0
   21.2528  -21.3843  -12.6213 C   0  0  0  0  0  0  0  0  0  0  0  0
   22.0718  -21.5943  -13.5330 O   0  0  0  0  0  0  0  0  0  0  0  0
   19.9298  -21.1743  -12.9233 O   0  0  0  0  0  0  0  0  0  0  0  0
  2  1  1  1
  2  3  1  0
  4  2  1  0
  5  4  2  0
  6  4  1  0
  7  6  1  0
  8  9  1  0
  7  8  1  1
  9 17  1  0
 10 11  1  0
 10  9  2  0
 11 12  1  0
 12 17  2  0
 12 13  1  0
 13 14  2  0
 14 15  1  0
 16 15  2  0
 17 16  1  0
 18 20  1  0
 18  7  1  0
 19 18  2  0
 21 20  1  0
 22 24  1  0
 22 21  1  0
 23 22  2  0
M  END
$$$$
