AWG.pdb
     RDKit          3D

 24 25  0  0  1  0  0  0  0  0999 V2000
   27.0269  -18.5532  -15.1988 C   0  0  0  0  0  0  0  0  0  0  0  0
   27.9027  -19.4757  -14.3848 C   0  0  2  0  0  0  0  0  0  0  0  0
   28.7259  -20.2766  -15.2604 N   0  0  0  0  0  0  0  0  0  0  0  0
   27.0076  -20.3002  -13.5428 C   0  0  0  0  0  0  0  0  0  0  0  0
   26.5841  -21.3747  -14.0599 O   0  0  0  0  0  0  0  0  0  0  0  0
   26.6088  -19.9768  -12.2433 N   0  0  0  0  0  0  0  0  0  0  0  0
   25.6986  -20.8550  -11.5338 C   0  0  1  0  0  0  0  0  0  0  0  0
   25.8044  -20.8137  -10.0601 C   0  0  0  0  0  0  0  0  0  0  0  0
   27.1731  -20.9164   -9.5499 C   0  0  0  0  0  0  0  0  0  0  0  0
   28.2869  -21.5465  -10.0351 C   0  0  0  0  0  0  0  0  0  0  0  0
   29.2917  -21.3231   -9.1512 N   0  0  0  0  0  0  0  0  0  0  0  0
   28.8642  -20.5829   -8.1321 C   0  0  0  0  0  0  0  0  0  0  0  0
   29.5151  -20.1010   -6.9923 C   0  0  0  0  0  0  0  0  0  0  0  0
   28.7812  -19.3524   -6.1110 C   0  0  0  0  0  0  0  0  0  0  0  0
   27.4485  -19.0570   -6.2954 C   0  0  0  0  0  0  0  0  0  0  0  0
   26.8205  -19.5434   -7.4317 C   0  0  0  0  0  0  0  0  0  0  0  0
   27.5440  -20.3056   -8.3408 C   0  0  0  0  0  0  0  0  0  0  0  0
   24.2845  -20.5439  -11.9764 C   0  0  0  0  0  0  0  0  0  0  0  0
   23.8273  -19.3846  -11.9705 O   0  0  0  0  0  0  0  0  0  0  0  0
   23.4790  -21.6264  -12.4063 N   0  0  0  0  0  0  0  0  0  0  0  0
   22.2130  -21.4032  -13.1046 C   0  0  0  0  0  0  0  0  0  0  0  0
   21.1616  -21.2124  -12.1020 C   0  0  0  0  0  0  0  0  0  0  0  0
   21.3464  -21.5611  -10.9229 O   0  0  0  0  0  0  0  0  0  0  0  0
   19.9665  -20.6446  -12.4695 O   0  0  0  0  0  0  0  0  0  0  0  0
  2  1  1  6
  2  3  1  0
  4  2  1  0
  5  4  2  0
  6  4  1  0
  7  6  1  0
  8  9  1  0
  7  8  1  1
  9 17  1  0
 10 11  1  0
 10  9  2  0
 11 12  1  0
 12 17  2  0
 12 13  1  0
 13 14  2  0
 14 15  1  0
 16 15  2  0
 17 16  1  0
 18 20  1  0
 18  7  1  0
 19 18  2  0
 21 20  1  0
 22 24  1  0
 22 21  1  0
 23 22  2  0
M  END
$$$$
