AWG.pdb
     RDKit          3D

 24 25  0  0  1  0  0  0  0  0999 V2000
   22.3934  -21.1103  -14.4529 C   0  0  0  0  0  0  0  0  0  0  0  0
   22.6976  -21.4503  -13.0133 C   0  0  2  0  0  0  0  0  0  0  0  0
   21.6098  -21.0247  -12.1641 N   0  0  0  0  0  0  0  0  0  0  0  0
   23.9750  -20.7883  -12.6670 C   0  0  0  0  0  0  0  0  0  0  0  0
   23.9967  -19.5267  -12.7631 O   0  0  0  0  0  0  0  0  0  0  0  0
   25.1325  -21.4505  -12.2499 N   0  0  0  0  0  0  0  0  0  0  0  0
   26.3080  -20.6812  -11.8903 C   0  0  1  0  0  0  0  0  0  0  0  0
   27.0647  -21.1936  -10.7287 C   0  0  0  0  0  0  0  0  0  0  0  0
   26.5641  -20.7341   -9.4315 C   0  0  0  0  0  0  0  0  0  0  0  0
   25.2968  -20.5123   -8.9649 C   0  0  0  0  0  0  0  0  0  0  0  0
   25.4106  -20.0809   -7.6835 N   0  0  0  0  0  0  0  0  0  0  0  0
   26.6888  -20.0197   -7.3207 C   0  0  0  0  0  0  0  0  0  0  0  0
   27.3006  -19.6388   -6.1227 C   0  0  0  0  0  0  0  0  0  0  0  0
   28.6682  -19.6842   -6.0658 C   0  0  0  0  0  0  0  0  0  0  0  0
   29.4569  -20.0833   -7.1222 C   0  0  0  0  0  0  0  0  0  0  0  0
   28.8321  -20.4576   -8.3019 C   0  0  0  0  0  0  0  0  0  0  0  0
   27.4455  -20.4198   -8.3842 C   0  0  0  0  0  0  0  0  0  0  0  0
   27.2043  -20.5728  -13.1057 C   0  0  0  0  0  0  0  0  0  0  0  0
   27.7102  -21.5741  -13.6484 O   0  0  0  0  0  0  0  0  0  0  0  0
   27.4576  -19.2779  -13.6201 N   0  0  0  0  0  0  0  0  0  0  0  0
   28.3863  -19.0681  -14.7308 C   0  0  0  0  0  0  0  0  0  0  0  0
   27.6234  -19.1011  -15.9814 C   0  0  0  0  0  0  0  0  0  0  0  0
   27.2800  -18.0429  -16.5366 O   0  0  0  0  0  0  0  0  0  0  0  0
   27.2873  -20.3092  -16.5411 O   0  0  0  0  0  0  0  0  0  0  0  0
  2  1  1  6
  2  3  1  0
  4  2  1  0
  5  4  2  0
  6  4  1  0
  7  6  1  0
  8  9  1  0
  7  8  1  1
  9 17  1  0
 10 11  1  0
 10  9  2  0
 11 12  1  0
 12 17  2  0
 12 13  1  0
 13 14  2  0
 14 15  1  0
 16 15  2  0
 17 16  1  0
 18 20  1  0
 18  7  1  0
 19 18  2  0
 21 20  1  0
 22 24  1  0
 22 21  1  0
 23 22  2  0
M  END
$$$$
