AWG.pdb
     RDKit          3D

 24 25  0  0  1  0  0  0  0  0999 V2000
   26.0006  -20.9152  -16.1752 C   0  0  0  0  0  0  0  0  0  0  0  0
   27.0044  -21.1752  -15.0773 C   0  0  2  0  0  0  0  0  0  0  0  0
   27.8712  -22.2691  -15.4484 N   0  0  0  0  0  0  0  0  0  0  0  0
   26.2398  -21.4563  -13.8419 C   0  0  0  0  0  0  0  0  0  0  0  0
   25.7097  -22.6024  -13.7592 O   0  0  0  0  0  0  0  0  0  0  0  0
   26.0692  -20.5590  -12.7844 N   0  0  0  0  0  0  0  0  0  0  0  0
   25.3073  -20.9625  -11.6184 C   0  0  1  0  0  0  0  0  0  0  0  0
   25.7467  -20.3629  -10.3408 C   0  0  0  0  0  0  0  0  0  0  0  0
   27.0916  -20.7597   -9.9186 C   0  0  0  0  0  0  0  0  0  0  0  0
   28.0723  -21.4814  -10.5433 C   0  0  0  0  0  0  0  0  0  0  0  0
   29.1222  -21.5571   -9.6872 N   0  0  0  0  0  0  0  0  0  0  0  0
   28.8497  -20.9180   -8.5528 C   0  0  0  0  0  0  0  0  0  0  0  0
   29.6000  -20.7227   -7.3894 C   0  0  0  0  0  0  0  0  0  0  0  0
   29.0234  -20.0056   -6.3750 C   0  0  0  0  0  0  0  0  0  0  0  0
   27.7544  -19.4753   -6.4494 C   0  0  0  0  0  0  0  0  0  0  0  0
   27.0258  -19.6792   -7.6112 C   0  0  0  0  0  0  0  0  0  0  0  0
   27.5892  -20.4038   -8.6545 C   0  0  0  0  0  0  0  0  0  0  0  0
   23.8443  -20.6665  -11.8717 C   0  0  0  0  0  0  0  0  0  0  0  0
   23.4653  -19.6108  -12.4149 O   0  0  0  0  0  0  0  0  0  0  0  0
   22.8988  -21.6402  -11.4675 N   0  0  0  0  0  0  0  0  0  0  0  0
   21.4618  -21.3686  -11.5066 C   0  0  0  0  0  0  0  0  0  0  0  0
   20.9678  -21.6957  -12.8468 C   0  0  0  0  0  0  0  0  0  0  0  0
   21.7279  -22.2009  -13.6912 O   0  0  0  0  0  0  0  0  0  0  0  0
   19.6572  -21.4420  -13.1690 O   0  0  0  0  0  0  0  0  0  0  0  0
  2  1  1  6
  2  3  1  0
  4  2  1  0
  5  4  2  0
  6  4  1  0
  7  6  1  0
  8  9  1  0
  7  8  1  1
  9 17  1  0
 10 11  1  0
 10  9  2  0
 11 12  1  0
 12 17  2  0
 12 13  1  0
 13 14  2  0
 14 15  1  0
 16 15  2  0
 17 16  1  0
 18 20  1  0
 18  7  1  0
 19 18  2  0
 21 20  1  0
 22 24  1  0
 22 21  1  0
 23 22  2  0
M  END
$$$$
