AWG.pdb
     RDKit          3D

 24 25  0  0  1  0  0  0  0  0999 V2000
   25.8395  -20.2313  -16.0663 C   0  0  0  0  0  0  0  0  0  0  0  0
   26.8296  -20.4098  -14.9400 C   0  0  2  0  0  0  0  0  0  0  0  0
   27.9084  -21.2723  -15.3618 N   0  0  0  0  0  0  0  0  0  0  0  0
   26.0858  -20.9612  -13.7857 C   0  0  0  0  0  0  0  0  0  0  0  0
   25.5627  -22.1019  -13.9489 O   0  0  0  0  0  0  0  0  0  0  0  0
   25.9271  -20.3190  -12.5549 N   0  0  0  0  0  0  0  0  0  0  0  0
   25.1653  -20.9643  -11.5030 C   0  0  1  0  0  0  0  0  0  0  0  0
   25.5331  -20.5700  -10.1268 C   0  0  0  0  0  0  0  0  0  0  0  0
   26.9100  -20.8988   -9.7520 C   0  0  0  0  0  0  0  0  0  0  0  0
   27.8756  -21.6436  -10.3733 C   0  0  0  0  0  0  0  0  0  0  0  0
   28.9725  -21.6253   -9.5748 N   0  0  0  0  0  0  0  0  0  0  0  0
   28.7439  -20.9051   -8.4801 C   0  0  0  0  0  0  0  0  0  0  0  0
   29.5508  -20.5998   -7.3798 C   0  0  0  0  0  0  0  0  0  0  0  0
   29.0100  -19.8188   -6.3933 C   0  0  0  0  0  0  0  0  0  0  0  0
   27.7239  -19.3274   -6.4365 C   0  0  0  0  0  0  0  0  0  0  0  0
   26.9392  -19.6407   -7.5357 C   0  0  0  0  0  0  0  0  0  0  0  0
   27.4654  -20.4317   -8.5497 C   0  0  0  0  0  0  0  0  0  0  0  0
   23.6926  -20.7182  -11.7533 C   0  0  0  0  0  0  0  0  0  0  0  0
   23.2463  -19.5879  -12.0295 O   0  0  0  0  0  0  0  0  0  0  0  0
   22.8179  -21.8284  -11.6639 N   0  0  0  0  0  0  0  0  0  0  0  0
   21.3689  -21.6677  -11.7842 C   0  0  0  0  0  0  0  0  0  0  0  0
   21.0446  -21.4590  -13.1978 C   0  0  0  0  0  0  0  0  0  0  0  0
   20.4561  -20.4260  -13.5621 O   0  0  0  0  0  0  0  0  0  0  0  0
   21.3942  -22.4112  -14.1234 O   0  0  0  0  0  0  0  0  0  0  0  0
  2  1  1  6
  2  3  1  0
  4  2  1  0
  5  4  2  0
  6  4  1  0
  7  6  1  0
  8  9  1  0
  7  8  1  1
  9 17  1  0
 10 11  1  0
 10  9  2  0
 11 12  1  0
 12 17  2  0
 12 13  1  0
 13 14  2  0
 14 15  1  0
 16 15  2  0
 17 16  1  0
 18 20  1  0
 18  7  1  0
 19 18  2  0
 21 20  1  0
 22 24  1  0
 22 21  1  0
 23 22  2  0
M  END
$$$$
