AWG.pdb
     RDKit          3D

 24 25  0  0  1  0  0  0  0  0999 V2000
   26.3034  -19.6295  -14.9645 C   0  0  0  0  0  0  0  0  0  0  0  0
   27.3135  -20.5407  -14.3088 C   0  0  2  0  0  0  0  0  0  0  0  0
   27.5158  -21.7191  -15.1188 N   0  0  0  0  0  0  0  0  0  0  0  0
   26.7999  -20.8657  -12.9596 C   0  0  0  0  0  0  0  0  0  0  0  0
   26.0795  -21.9021  -12.8686 O   0  0  0  0  0  0  0  0  0  0  0  0
   27.0531  -20.1198  -11.8055 N   0  0  0  0  0  0  0  0  0  0  0  0
   26.5496  -20.5844  -10.5274 C   0  0  1  0  0  0  0  0  0  0  0  0
   27.3027  -20.1143   -9.3456 C   0  0  0  0  0  0  0  0  0  0  0  0
   26.7040  -20.4847   -8.0615 C   0  0  0  0  0  0  0  0  0  0  0  0
   25.5838  -21.2052   -7.7468 C   0  0  0  0  0  0  0  0  0  0  0  0
   25.4933  -21.2358   -6.3934 N   0  0  0  0  0  0  0  0  0  0  0  0
   26.5024  -20.5687   -5.8404 C   0  0  0  0  0  0  0  0  0  0  0  0
   26.8362  -20.3215   -4.5053 C   0  0  0  0  0  0  0  0  0  0  0  0
   27.9625  -19.5824   -4.2590 C   0  0  0  0  0  0  0  0  0  0  0  0
   28.7702  -19.0787   -5.2546 C   0  0  0  0  0  0  0  0  0  0  0  0
   28.4231  -19.3345   -6.5723 C   0  0  0  0  0  0  0  0  0  0  0  0
   27.2846  -20.0820   -6.8478 C   0  0  0  0  0  0  0  0  0  0  0  0
   25.0889  -20.2022  -10.4162 C   0  0  0  0  0  0  0  0  0  0  0  0
   24.7086  -19.0160  -10.4548 O   0  0  0  0  0  0  0  0  0  0  0  0
   24.1471  -21.2488  -10.2645 N   0  0  0  0  0  0  0  0  0  0  0  0
   22.9505  -21.3239  -11.1028 C   0  0  0  0  0  0  0  0  0  0  0  0
   21.8584  -20.6363  -10.4089 C   0  0  0  0  0  0  0  0  0  0  0  0
   20.7921  -20.3931  -11.0004 O   0  0  0  0  0  0  0  0  0  0  0  0
   22.0162  -20.2599   -9.0977 O   0  0  0  0  0  0  0  0  0  0  0  0
  2  1  1  6
  2  3  1  0
  4  2  1  0
  5  4  2  0
  6  4  1  0
  7  6  1  0
  8  9  1  0
  7  8  1  1
  9 17  1  0
 10 11  1  0
 10  9  2  0
 11 12  1  0
 12 17  2  0
 12 13  1  0
 13 14  2  0
 14 15  1  0
 16 15  2  0
 17 16  1  0
 18 20  1  0
 18  7  1  0
 19 18  2  0
 21 20  1  0
 22 24  1  0
 22 21  1  0
 23 22  2  0
M  END
$$$$
