GPF.pdb
     RDKit          3D

 23 24  0  0  1  0  0  0  0  0999 V2000
    9.8801  -17.4707   18.0477 N   0  0  0  0  0  0  0  0  0  0  0  0
    8.8537  -17.2284   19.0028 C   0  0  0  0  0  0  0  0  0  0  0  0
    9.2983  -16.4252   20.1603 C   0  0  0  0  0  0  0  0  0  0  0  0
   10.5067  -16.1230   20.2643 O   0  0  0  0  0  0  0  0  0  0  0  0
    8.3891  -15.9912   21.1515 N   0  0  0  0  0  0  0  0  0  0  0  0
    6.9291  -16.1499   21.1221 C   0  0  0  0  0  0  0  0  0  0  0  0
    6.5105  -14.7760   21.6633 C   0  0  0  0  0  0  0  0  0  0  0  0
    7.4218  -14.6746   22.8675 C   0  0  0  0  0  0  0  0  0  0  0  0
    8.6848  -15.3065   22.3940 C   0  0  1  0  0  0  0  0  0  0  0  0
    9.1623  -16.2884   23.4082 C   0  0  0  0  0  0  0  0  0  0  0  0
    8.8419  -17.5202   23.3135 O   0  0  0  0  0  0  0  0  0  0  0  0
    9.9753  -15.8659   24.4860 N   0  0  0  0  0  0  0  0  0  0  0  0
   10.6903  -16.8141   25.3538 C   0  0  1  0  0  0  0  0  0  0  0  0
   11.6524  -15.9979   26.1634 C   0  0  0  0  0  0  0  0  0  0  0  0
   11.0315  -15.2503   27.2659 C   0  0  0  0  0  0  0  0  0  0  0  0
   11.0788  -15.6984   28.5703 C   0  0  0  0  0  0  0  0  0  0  0  0
   10.4971  -14.9988   29.6103 C   0  0  0  0  0  0  0  0  0  0  0  0
    9.8375  -13.8094   29.3835 C   0  0  0  0  0  0  0  0  0  0  0  0
    9.7816  -13.3483   28.0852 C   0  0  0  0  0  0  0  0  0  0  0  0
   10.3651  -14.0529   27.0523 C   0  0  0  0  0  0  0  0  0  0  0  0
    9.7338  -17.5910   26.1307 C   0  0  0  0  0  0  0  0  0  0  0  0
   10.1300  -18.7432   26.7784 O   0  0  0  0  0  0  0  0  0  0  0  0
    8.5416  -17.2285   26.2236 O   0  0  0  0  0  0  0  0  0  0  0  0
  1  2  1  0
  3  2  1  0
  3  4  2  0
  5  3  1  0
  6  5  1  0
  7  6  1  0
  8  7  1  0
  8  9  1  0
  9  5  1  0
  9 10  1  1
 10 11  2  0
 12 10  1  0
 12 13  1  0
 13 14  1  1
 14 15  1  0
 15 20  1  0
 16 15  2  0
 16 17  1  0
 17 18  2  0
 18 19  1  0
 20 19  2  0
 21 22  1  0
 21 13  1  0
 23 21  2  0
M  END
$$$$
