GPF.pdb
     RDKit          3D

 23 24  0  0  1  0  0  0  0  0999 V2000
    5.8853  -18.4800   20.3827 N   0  0  0  0  0  0  0  0  0  0  0  0
    5.8809  -17.1150   20.7846 C   0  0  0  0  0  0  0  0  0  0  0  0
    7.2239  -16.5840   21.0957 C   0  0  0  0  0  0  0  0  0  0  0  0
    8.1919  -17.3724   21.1563 O   0  0  0  0  0  0  0  0  0  0  0  0
    7.4387  -15.2062   21.3260 N   0  0  0  0  0  0  0  0  0  0  0  0
    6.4112  -14.1566   21.3426 C   0  0  0  0  0  0  0  0  0  0  0  0
    7.1626  -13.0497   20.5904 C   0  0  0  0  0  0  0  0  0  0  0  0
    8.4871  -13.0815   21.3223 C   0  0  0  0  0  0  0  0  0  0  0  0
    8.6934  -14.5318   21.5919 C   0  0  1  0  0  0  0  0  0  0  0  0
    9.0756  -14.7246   23.0193 C   0  0  0  0  0  0  0  0  0  0  0  0
    9.9781  -13.9942   23.5491 O   0  0  0  0  0  0  0  0  0  0  0  0
    8.4425  -15.7187   23.8016 N   0  0  0  0  0  0  0  0  0  0  0  0
    8.6593  -15.8383   25.2515 C   0  0  1  0  0  0  0  0  0  0  0  0
    7.3446  -15.5239   25.8994 C   0  0  0  0  0  0  0  0  0  0  0  0
    7.1298  -14.0950   26.1677 C   0  0  0  0  0  0  0  0  0  0  0  0
    8.1208  -13.2943   26.6980 C   0  0  0  0  0  0  0  0  0  0  0  0
    7.9239  -11.9501   26.9515 C   0  0  0  0  0  0  0  0  0  0  0  0
    6.7136  -11.3474   26.6813 C   0  0  0  0  0  0  0  0  0  0  0  0
    5.7132  -12.1344   26.1511 C   0  0  0  0  0  0  0  0  0  0  0  0
    5.9179  -13.4758   25.9009 C   0  0  0  0  0  0  0  0  0  0  0  0
    9.2020  -17.1538   25.5631 C   0  0  0  0  0  0  0  0  0  0  0  0
    9.8457  -17.3791   26.7626 O   0  0  0  0  0  0  0  0  0  0  0  0
    9.0943  -18.0981   24.7517 O   0  0  0  0  0  0  0  0  0  0  0  0
  1  2  1  0
  3  2  1  0
  3  4  2  0
  5  3  1  0
  6  5  1  0
  7  6  1  0
  8  7  1  0
  8  9  1  0
  9  5  1  0
  9 10  1  1
 10 11  2  0
 12 10  1  0
 12 13  1  0
 13 14  1  1
 14 15  1  0
 15 20  1  0
 16 15  2  0
 16 17  1  0
 17 18  2  0
 18 19  1  0
 20 19  2  0
 21 22  1  0
 21 13  1  0
 23 21  2  0
M  END
$$$$
