GPF.pdb
     RDKit          3D

 23 24  0  0  1  0  0  0  0  0999 V2000
    7.9496  -11.9409   19.2596 N   0  0  0  0  0  0  0  0  0  0  0  0
    8.4408  -13.2668   19.4191 C   0  0  0  0  0  0  0  0  0  0  0  0
    7.8927  -13.9641   20.6006 C   0  0  0  0  0  0  0  0  0  0  0  0
    7.2978  -13.3014   21.4778 O   0  0  0  0  0  0  0  0  0  0  0  0
    8.0256  -15.3619   20.7613 N   0  0  0  0  0  0  0  0  0  0  0  0
    8.7554  -16.2743   19.8710 C   0  0  0  0  0  0  0  0  0  0  0  0
    7.7724  -17.4529   19.8493 C   0  0  0  0  0  0  0  0  0  0  0  0
    7.5007  -17.6010   21.3309 C   0  0  0  0  0  0  0  0  0  0  0  0
    7.4839  -16.1933   21.8174 C   0  0  1  0  0  0  0  0  0  0  0  0
    8.3339  -16.0763   23.0358 C   0  0  0  0  0  0  0  0  0  0  0  0
    9.5920  -15.8906   22.9286 O   0  0  0  0  0  0  0  0  0  0  0  0
    7.7557  -16.1695   24.3234 N   0  0  0  0  0  0  0  0  0  0  0  0
    8.5431  -16.0089   25.5554 C   0  0  1  0  0  0  0  0  0  0  0  0
    7.5874  -15.5238   26.6035 C   0  0  0  0  0  0  0  0  0  0  0  0
    7.2558  -14.0955   26.5041 C   0  0  0  0  0  0  0  0  0  0  0  0
    8.2264  -13.1155   26.5491 C   0  0  0  0  0  0  0  0  0  0  0  0
    7.9197  -11.7712   26.4555 C   0  0  0  0  0  0  0  0  0  0  0  0
    6.6148  -11.3500   26.3115 C   0  0  0  0  0  0  0  0  0  0  0  0
    5.6334  -12.3175   26.2648 C   0  0  0  0  0  0  0  0  0  0  0  0
    5.9479  -13.6576   26.3590 C   0  0  0  0  0  0  0  0  0  0  0  0
    9.2252  -17.2565   25.8720 C   0  0  0  0  0  0  0  0  0  0  0  0
   10.3509  -17.2555   26.6701 O   0  0  0  0  0  0  0  0  0  0  0  0
    8.8040  -18.3458   25.4276 O   0  0  0  0  0  0  0  0  0  0  0  0
  1  2  1  0
  3  2  1  0
  3  4  2  0
  5  3  1  0
  6  5  1  0
  7  6  1  0
  8  7  1  0
  8  9  1  0
  9  5  1  0
  9 10  1  1
 10 11  2  0
 12 10  1  0
 12 13  1  0
 13 14  1  1
 14 15  1  0
 15 20  1  0
 16 15  2  0
 16 17  1  0
 17 18  2  0
 18 19  1  0
 20 19  2  0
 21 22  1  0
 21 13  1  0
 23 21  2  0
M  END
$$$$
