GPF.pdb
     RDKit          3D

 23 24  0  0  1  0  0  0  0  0999 V2000
    7.9210  -12.5351   18.0383 N   0  0  0  0  0  0  0  0  0  0  0  0
    8.2350  -13.8834   18.3673 C   0  0  0  0  0  0  0  0  0  0  0  0
    7.8888  -14.2511   19.7557 C   0  0  0  0  0  0  0  0  0  0  0  0
    7.7216  -13.3466   20.6020 O   0  0  0  0  0  0  0  0  0  0  0  0
    7.7425  -15.6009   20.1480 N   0  0  0  0  0  0  0  0  0  0  0  0
    8.0224  -16.7823   19.3212 C   0  0  0  0  0  0  0  0  0  0  0  0
    6.8257  -17.6597   19.7134 C   0  0  0  0  0  0  0  0  0  0  0  0
    6.8831  -17.5310   21.2203 C   0  0  0  0  0  0  0  0  0  0  0  0
    7.2931  -16.1140   21.4266 C   0  0  1  0  0  0  0  0  0  0  0  0
    8.4093  -16.0559   22.4124 C   0  0  0  0  0  0  0  0  0  0  0  0
    9.5912  -16.3927   22.0683 O   0  0  0  0  0  0  0  0  0  0  0  0
    8.1707  -15.6271   23.7391 N   0  0  0  0  0  0  0  0  0  0  0  0
    9.2504  -15.4811   24.7272 C   0  0  1  0  0  0  0  0  0  0  0  0
    9.4047  -14.0091   24.9651 C   0  0  0  0  0  0  0  0  0  0  0  0
    8.2481  -13.3778   25.6160 C   0  0  0  0  0  0  0  0  0  0  0  0
    8.1761  -13.2209   26.9852 C   0  0  0  0  0  0  0  0  0  0  0  0
    7.0910  -12.6275   27.6018 C   0  0  0  0  0  0  0  0  0  0  0  0
    6.0230  -12.1625   26.8641 C   0  0  0  0  0  0  0  0  0  0  0  0
    6.0801  -12.3120   25.4946 C   0  0  0  0  0  0  0  0  0  0  0  0
    7.1672  -12.9057   24.8866 C   0  0  0  0  0  0  0  0  0  0  0  0
    8.9446  -16.2693   25.9135 C   0  0  0  0  0  0  0  0  0  0  0  0
    9.9223  -16.5301   26.8516 O   0  0  0  0  0  0  0  0  0  0  0  0
    7.7949  -16.7215   26.1014 O   0  0  0  0  0  0  0  0  0  0  0  0
  1  2  1  0
  3  2  1  0
  3  4  2  0
  5  3  1  0
  6  5  1  0
  7  6  1  0
  8  7  1  0
  8  9  1  0
  9  5  1  0
  9 10  1  1
 10 11  2  0
 12 10  1  0
 12 13  1  0
 13 14  1  1
 14 15  1  0
 15 20  1  0
 16 15  2  0
 16 17  1  0
 17 18  2  0
 18 19  1  0
 20 19  2  0
 21 22  1  0
 21 13  1  0
 23 21  2  0
M  END
$$$$
