GPF.pdb
     RDKit          3D

 23 24  0  0  1  0  0  0  0  0999 V2000
    8.1785  -12.5601   18.1117 N   0  0  0  0  0  0  0  0  0  0  0  0
    8.6083  -13.8120   18.6340 C   0  0  0  0  0  0  0  0  0  0  0  0
    8.1812  -14.0511   20.0279 C   0  0  0  0  0  0  0  0  0  0  0  0
    8.2108  -13.1057   20.8450 O   0  0  0  0  0  0  0  0  0  0  0  0
    7.7405  -15.3232   20.4579 N   0  0  0  0  0  0  0  0  0  0  0  0
    7.7660  -16.5640   19.6721 C   0  0  0  0  0  0  0  0  0  0  0  0
    6.4028  -17.1473   20.0687 C   0  0  0  0  0  0  0  0  0  0  0  0
    6.4700  -16.9840   21.5718 C   0  0  0  0  0  0  0  0  0  0  0  0
    7.1761  -15.6837   21.7429 C   0  0  1  0  0  0  0  0  0  0  0  0
    8.2670  -15.8365   22.7466 C   0  0  0  0  0  0  0  0  0  0  0  0
    9.4035  -16.3004   22.3975 O   0  0  0  0  0  0  0  0  0  0  0  0
    8.0545  -15.4692   24.0960 N   0  0  0  0  0  0  0  0  0  0  0  0
    9.0985  -15.6023   25.1236 C   0  0  1  0  0  0  0  0  0  0  0  0
    9.3656  -14.2174   25.6316 C   0  0  0  0  0  0  0  0  0  0  0  0
    8.1559  -13.4531   25.9667 C   0  0  0  0  0  0  0  0  0  0  0  0
    7.3477  -13.7948   27.0319 C   0  0  0  0  0  0  0  0  0  0  0  0
    6.2096  -13.0789   27.3514 C   0  0  0  0  0  0  0  0  0  0  0  0
    5.8311  -11.9805   26.6089 C   0  0  0  0  0  0  0  0  0  0  0  0
    6.6285  -11.6264   25.5412 C   0  0  0  0  0  0  0  0  0  0  0  0
    7.7633  -12.3465   25.2288 C   0  0  0  0  0  0  0  0  0  0  0  0
    8.6758  -16.5604   26.1362 C   0  0  0  0  0  0  0  0  0  0  0  0
    9.5685  -17.0154   27.0849 O   0  0  0  0  0  0  0  0  0  0  0  0
    7.5011  -16.9855   26.1630 O   0  0  0  0  0  0  0  0  0  0  0  0
  1  2  1  0
  3  2  1  0
  3  4  2  0
  5  3  1  0
  6  5  1  0
  7  6  1  0
  8  7  1  0
  8  9  1  0
  9  5  1  0
  9 10  1  1
 10 11  2  0
 12 10  1  0
 12 13  1  0
 13 14  1  1
 14 15  1  0
 15 20  1  0
 16 15  2  0
 16 17  1  0
 17 18  2  0
 18 19  1  0
 20 19  2  0
 21 22  1  0
 21 13  1  0
 23 21  2  0
M  END
$$$$
