GPF.pdb
     RDKit          3D

 23 24  0  0  1  0  0  0  0  0999 V2000
   10.7696  -17.7812   18.4898 N   0  0  0  0  0  0  0  0  0  0  0  0
    9.5262  -17.6419   19.1675 C   0  0  0  0  0  0  0  0  0  0  0  0
    9.5552  -16.6498   20.2618 C   0  0  0  0  0  0  0  0  0  0  0  0
   10.6407  -16.3987   20.8282 O   0  0  0  0  0  0  0  0  0  0  0  0
    8.3844  -15.9789   20.6821 N   0  0  0  0  0  0  0  0  0  0  0  0
    7.0585  -16.0682   20.0563 C   0  0  0  0  0  0  0  0  0  0  0  0
    6.6384  -14.5940   20.1332 C   0  0  0  0  0  0  0  0  0  0  0  0
    6.9790  -14.2945   21.5772 C   0  0  0  0  0  0  0  0  0  0  0  0
    8.2303  -15.0709   21.8009 C   0  0  1  0  0  0  0  0  0  0  0  0
    8.1158  -15.8480   23.0674 C   0  0  0  0  0  0  0  0  0  0  0  0
    7.8284  -17.0911   23.0370 O   0  0  0  0  0  0  0  0  0  0  0  0
    8.3242  -15.2164   24.3158 N   0  0  0  0  0  0  0  0  0  0  0  0
    8.4234  -15.9706   25.5747 C   0  0  1  0  0  0  0  0  0  0  0  0
    8.7290  -14.9646   26.6432 C   0  0  0  0  0  0  0  0  0  0  0  0
    7.7741  -13.8497   26.7140 C   0  0  0  0  0  0  0  0  0  0  0  0
    6.5040  -13.9407   26.1819 C   0  0  0  0  0  0  0  0  0  0  0  0
    5.6024  -12.8955   26.2465 C   0  0  0  0  0  0  0  0  0  0  0  0
    5.9400  -11.7042   26.8531 C   0  0  0  0  0  0  0  0  0  0  0  0
    7.2057  -11.5977   27.3897 C   0  0  0  0  0  0  0  0  0  0  0  0
    8.1002  -12.6461   27.3211 C   0  0  0  0  0  0  0  0  0  0  0  0
    7.2068  -16.7438   25.7847 C   0  0  0  0  0  0  0  0  0  0  0  0
    6.0878  -16.5114   25.0115 O   0  0  0  0  0  0  0  0  0  0  0  0
    7.1557  -17.6282   26.6661 O   0  0  0  0  0  0  0  0  0  0  0  0
  1  2  1  0
  3  2  1  0
  3  4  2  0
  5  3  1  0
  6  5  1  0
  7  6  1  0
  8  7  1  0
  8  9  1  0
  9  5  1  0
  9 10  1  1
 10 11  2  0
 12 10  1  0
 12 13  1  0
 13 14  1  1
 14 15  1  0
 15 20  1  0
 16 15  2  0
 16 17  1  0
 17 18  2  0
 18 19  1  0
 20 19  2  0
 21 22  1  0
 21 13  1  0
 23 21  2  0
M  END
$$$$
