GPF.pdb
     RDKit          3D

 23 24  0  0  1  0  0  0  0  0999 V2000
    7.9741  -12.5190   18.1130 N   0  0  0  0  0  0  0  0  0  0  0  0
    8.5067  -13.7573   18.5686 C   0  0  0  0  0  0  0  0  0  0  0  0
    8.0716  -14.1244   19.9319 C   0  0  0  0  0  0  0  0  0  0  0  0
    7.9011  -13.2228   20.7806 O   0  0  0  0  0  0  0  0  0  0  0  0
    7.8441  -15.4705   20.2976 N   0  0  0  0  0  0  0  0  0  0  0  0
    8.0955  -16.6529   19.4632 C   0  0  0  0  0  0  0  0  0  0  0  0
    6.8430  -17.4745   19.7980 C   0  0  0  0  0  0  0  0  0  0  0  0
    6.8508  -17.3695   21.3078 C   0  0  0  0  0  0  0  0  0  0  0  0
    7.3228  -15.9778   21.5509 C   0  0  1  0  0  0  0  0  0  0  0  0
    8.4031  -15.9893   22.5773 C   0  0  0  0  0  0  0  0  0  0  0  0
    9.6065  -16.2527   22.2435 O   0  0  0  0  0  0  0  0  0  0  0  0
    8.1065  -15.7087   23.9316 N   0  0  0  0  0  0  0  0  0  0  0  0
    9.1472  -15.6362   24.9685 C   0  0  1  0  0  0  0  0  0  0  0  0
    9.3762  -14.1782   25.2314 C   0  0  0  0  0  0  0  0  0  0  0  0
    8.2200  -13.4799   25.8106 C   0  0  0  0  0  0  0  0  0  0  0  0
    8.1482  -13.1763   27.1549 C   0  0  0  0  0  0  0  0  0  0  0  0
    7.0636  -12.5194   27.7041 C   0  0  0  0  0  0  0  0  0  0  0  0
    5.9957  -12.1360   26.9208 C   0  0  0  0  0  0  0  0  0  0  0  0
    6.0525  -12.4323   25.5753 C   0  0  0  0  0  0  0  0  0  0  0  0
    7.1392  -13.0885   25.0347 C   0  0  0  0  0  0  0  0  0  0  0  0
    8.7426  -16.4166   26.1301 C   0  0  0  0  0  0  0  0  0  0  0  0
    7.4909  -16.9951   26.1831 O   0  0  0  0  0  0  0  0  0  0  0  0
    9.5197  -16.5752   27.0957 O   0  0  0  0  0  0  0  0  0  0  0  0
  1  2  1  0
  3  2  1  0
  3  4  2  0
  5  3  1  0
  6  5  1  0
  7  6  1  0
  8  7  1  0
  8  9  1  0
  9  5  1  0
  9 10  1  1
 10 11  2  0
 12 10  1  0
 12 13  1  0
 13 14  1  1
 14 15  1  0
 15 20  1  0
 16 15  2  0
 16 17  1  0
 17 18  2  0
 18 19  1  0
 20 19  2  0
 21 22  1  0
 21 13  1  0
 23 21  2  0
M  END
$$$$
