GPF.pdb
     RDKit          3D

 23 24  0  0  1  0  0  0  0  0999 V2000
    7.8183  -11.9586   19.0694 N   0  0  0  0  0  0  0  0  0  0  0  0
    8.4054  -13.2250   19.3452 C   0  0  0  0  0  0  0  0  0  0  0  0
    7.8598  -13.8818   20.5509 C   0  0  0  0  0  0  0  0  0  0  0  0
    7.3161  -13.1822   21.4326 O   0  0  0  0  0  0  0  0  0  0  0  0
    7.9387  -15.2815   20.7297 N   0  0  0  0  0  0  0  0  0  0  0  0
    8.5895  -16.2385   19.8252 C   0  0  0  0  0  0  0  0  0  0  0  0
    7.5563  -17.3728   19.8649 C   0  0  0  0  0  0  0  0  0  0  0  0
    7.3421  -17.4864   21.3589 C   0  0  0  0  0  0  0  0  0  0  0  0
    7.4071  -16.0721   21.8216 C   0  0  1  0  0  0  0  0  0  0  0  0
    8.3127  -15.9740   23.0011 C   0  0  0  0  0  0  0  0  0  0  0  0
    9.5703  -15.8305   22.8379 O   0  0  0  0  0  0  0  0  0  0  0  0
    7.7883  -16.0389   24.3132 N   0  0  0  0  0  0  0  0  0  0  0  0
    8.6386  -15.9338   25.5088 C   0  0  1  0  0  0  0  0  0  0  0  0
    7.7571  -15.4186   26.6063 C   0  0  0  0  0  0  0  0  0  0  0  0
    7.3990  -13.9991   26.4773 C   0  0  0  0  0  0  0  0  0  0  0  0
    8.3552  -13.0045   26.4446 C   0  0  0  0  0  0  0  0  0  0  0  0
    8.0235  -11.6685   26.3230 C   0  0  0  0  0  0  0  0  0  0  0  0
    6.7068  -11.2705   26.2281 C   0  0  0  0  0  0  0  0  0  0  0  0
    5.7395  -12.2527   26.2593 C   0  0  0  0  0  0  0  0  0  0  0  0
    6.0790  -13.5846   26.3810 C   0  0  0  0  0  0  0  0  0  0  0  0
    9.2734  -17.2170   25.7780 C   0  0  0  0  0  0  0  0  0  0  0  0
   10.4880  -17.2737   26.4305 O   0  0  0  0  0  0  0  0  0  0  0  0
    8.7306  -18.2854   25.4237 O   0  0  0  0  0  0  0  0  0  0  0  0
  1  2  1  0
  3  2  1  0
  3  4  2  0
  5  3  1  0
  6  5  1  0
  7  6  1  0
  8  7  1  0
  8  9  1  0
  9  5  1  0
  9 10  1  1
 10 11  2  0
 12 10  1  0
 12 13  1  0
 13 14  1  1
 14 15  1  0
 15 20  1  0
 16 15  2  0
 16 17  1  0
 17 18  2  0
 18 19  1  0
 20 19  2  0
 21 22  1  0
 21 13  1  0
 23 21  2  0
M  END
$$$$
