GPF.pdb
     RDKit          3D

 23 24  0  0  1  0  0  0  0  0999 V2000
    6.5199  -19.0141   20.3302 N   0  0  0  0  0  0  0  0  0  0  0  0
    6.3464  -17.6752   20.7795 C   0  0  0  0  0  0  0  0  0  0  0  0
    7.6171  -16.9628   21.0253 C   0  0  0  0  0  0  0  0  0  0  0  0
    8.6906  -17.6023   20.9919 O   0  0  0  0  0  0  0  0  0  0  0  0
    7.6463  -15.5762   21.2971 N   0  0  0  0  0  0  0  0  0  0  0  0
    6.4859  -14.6780   21.3620 C   0  0  0  0  0  0  0  0  0  0  0  0
    7.0657  -13.4565   20.6357 C   0  0  0  0  0  0  0  0  0  0  0  0
    8.3952  -13.3290   21.3476 C   0  0  0  0  0  0  0  0  0  0  0  0
    8.8021  -14.7449   21.5671 C   0  0  1  0  0  0  0  0  0  0  0  0
    9.2330  -14.9267   22.9821 C   0  0  0  0  0  0  0  0  0  0  0  0
   10.3232  -14.4077   23.3955 O   0  0  0  0  0  0  0  0  0  0  0  0
    8.4387  -15.6758   23.8814 N   0  0  0  0  0  0  0  0  0  0  0  0
    8.7481  -15.7711   25.3162 C   0  0  1  0  0  0  0  0  0  0  0  0
    7.4684  -15.4812   26.0412 C   0  0  0  0  0  0  0  0  0  0  0  0
    7.2266  -14.0536   26.2927 C   0  0  0  0  0  0  0  0  0  0  0  0
    8.2176  -13.2168   26.7642 C   0  0  0  0  0  0  0  0  0  0  0  0
    7.9953  -11.8737   27.0016 C   0  0  0  0  0  0  0  0  0  0  0  0
    6.7584  -11.3086   26.7740 C   0  0  0  0  0  0  0  0  0  0  0  0
    5.7577  -12.1318   26.3028 C   0  0  0  0  0  0  0  0  0  0  0  0
    5.9878  -13.4720   26.0682 C   0  0  0  0  0  0  0  0  0  0  0  0
    9.3428  -17.0684   25.6084 C   0  0  0  0  0  0  0  0  0  0  0  0
    9.4691  -18.0196   24.6167 O   0  0  0  0  0  0  0  0  0  0  0  0
    9.7476  -17.3415   26.7586 O   0  0  0  0  0  0  0  0  0  0  0  0
  1  2  1  0
  3  2  1  0
  3  4  2  0
  5  3  1  0
  6  5  1  0
  7  6  1  0
  8  7  1  0
  8  9  1  0
  9  5  1  0
  9 10  1  1
 10 11  2  0
 12 10  1  0
 12 13  1  0
 13 14  1  1
 14 15  1  0
 15 20  1  0
 16 15  2  0
 16 17  1  0
 17 18  2  0
 18 19  1  0
 20 19  2  0
 21 22  1  0
 21 13  1  0
 23 21  2  0
M  END
$$$$
