GPF.pdb
     RDKit          3D

 23 24  0  0  1  0  0  0  0  0999 V2000
    5.2198  -18.4599   21.2714 N   0  0  0  0  0  0  0  0  0  0  0  0
    5.4550  -17.0813   21.5337 C   0  0  0  0  0  0  0  0  0  0  0  0
    6.8811  -16.7502   21.7317 C   0  0  0  0  0  0  0  0  0  0  0  0
    7.7003  -17.6745   21.9239 O   0  0  0  0  0  0  0  0  0  0  0  0
    7.3394  -15.4135   21.7089 N   0  0  0  0  0  0  0  0  0  0  0  0
    6.5260  -14.2195   21.4434 C   0  0  0  0  0  0  0  0  0  0  0  0
    7.5013  -13.4371   20.5532 C   0  0  0  0  0  0  0  0  0  0  0  0
    8.7650  -13.5502   21.3784 C   0  0  0  0  0  0  0  0  0  0  0  0
    8.6858  -14.9287   21.9370 C   0  0  1  0  0  0  0  0  0  0  0  0
    8.9658  -14.8911   23.4003 C   0  0  0  0  0  0  0  0  0  0  0  0
    9.2888  -13.7940   23.9666 O   0  0  0  0  0  0  0  0  0  0  0  0
    8.8764  -16.0703   24.1765 N   0  0  0  0  0  0  0  0  0  0  0  0
    8.9925  -16.0603   25.6427 C   0  0  1  0  0  0  0  0  0  0  0  0
    7.6143  -15.7972   26.1705 C   0  0  0  0  0  0  0  0  0  0  0  0
    7.2792  -14.3722   26.3009 C   0  0  0  0  0  0  0  0  0  0  0  0
    8.1365  -13.4720   26.9003 C   0  0  0  0  0  0  0  0  0  0  0  0
    7.8262  -12.1312   27.0248 C   0  0  0  0  0  0  0  0  0  0  0  0
    6.6321  -11.6325   26.5489 C   0  0  0  0  0  0  0  0  0  0  0  0
    5.7646  -12.5196   25.9474 C   0  0  0  0  0  0  0  0  0  0  0  0
    6.0820  -13.8570   25.8270 C   0  0  0  0  0  0  0  0  0  0  0  0
    9.6013  -17.3026   26.0987 C   0  0  0  0  0  0  0  0  0  0  0  0
   10.0660  -17.4205   27.3926 O   0  0  0  0  0  0  0  0  0  0  0  0
    9.7130  -18.2801   25.3283 O   0  0  0  0  0  0  0  0  0  0  0  0
  1  2  1  0
  3  2  1  0
  3  4  2  0
  5  3  1  0
  6  5  1  0
  7  6  1  0
  8  7  1  0
  8  9  1  0
  9  5  1  0
  9 10  1  1
 10 11  2  0
 12 10  1  0
 12 13  1  0
 13 14  1  1
 14 15  1  0
 15 20  1  0
 16 15  2  0
 16 17  1  0
 17 18  2  0
 18 19  1  0
 20 19  2  0
 21 22  1  0
 21 13  1  0
 23 21  2  0
M  END
$$$$
