GPF.pdb
     RDKit          3D

 23 24  0  0  1  0  0  0  0  0999 V2000
    6.1535  -18.5185   19.9891 N   0  0  0  0  0  0  0  0  0  0  0  0
    6.1253  -17.1993   20.5216 C   0  0  0  0  0  0  0  0  0  0  0  0
    7.4664  -16.6238   20.7517 C   0  0  0  0  0  0  0  0  0  0  0  0
    8.4640  -17.3766   20.7324 O   0  0  0  0  0  0  0  0  0  0  0  0
    7.6465  -15.2430   20.9928 N   0  0  0  0  0  0  0  0  0  0  0  0
    6.5857  -14.2319   21.0930 C   0  0  0  0  0  0  0  0  0  0  0  0
    7.2482  -13.0866   20.3152 C   0  0  0  0  0  0  0  0  0  0  0  0
    8.6167  -13.0817   20.9616 C   0  0  0  0  0  0  0  0  0  0  0  0
    8.8909  -14.5276   21.1914 C   0  0  1  0  0  0  0  0  0  0  0  0
    9.3696  -14.7289   22.5883 C   0  0  0  0  0  0  0  0  0  0  0  0
   10.5428  -14.3581   22.9272 O   0  0  0  0  0  0  0  0  0  0  0  0
    8.5292  -15.3326   23.5527 N   0  0  0  0  0  0  0  0  0  0  0  0
    8.9197  -15.4701   24.9641 C   0  0  1  0  0  0  0  0  0  0  0  0
    7.6603  -15.3232   25.7638 C   0  0  0  0  0  0  0  0  0  0  0  0
    7.2973  -13.9322   26.0689 C   0  0  0  0  0  0  0  0  0  0  0  0
    5.9842  -13.5081   26.0919 C   0  0  0  0  0  0  0  0  0  0  0  0
    5.6379  -12.2014   26.3788 C   0  0  0  0  0  0  0  0  0  0  0  0
    6.6029  -11.2568   26.6572 C   0  0  0  0  0  0  0  0  0  0  0  0
    7.9198  -11.6651   26.6381 C   0  0  0  0  0  0  0  0  0  0  0  0
    8.2573  -12.9718   26.3507 C   0  0  0  0  0  0  0  0  0  0  0  0
    9.6321  -16.7257   25.1596 C   0  0  0  0  0  0  0  0  0  0  0  0
   10.5296  -16.8666   26.1982 O   0  0  0  0  0  0  0  0  0  0  0  0
    9.4433  -17.6938   24.3924 O   0  0  0  0  0  0  0  0  0  0  0  0
  1  2  1  0
  3  2  1  0
  3  4  2  0
  5  3  1  0
  6  5  1  0
  7  6  1  0
  8  7  1  0
  8  9  1  0
  9  5  1  0
  9 10  1  1
 10 11  2  0
 12 10  1  0
 12 13  1  0
 13 14  1  1
 14 15  1  0
 15 20  1  0
 16 15  2  0
 16 17  1  0
 17 18  2  0
 18 19  1  0
 20 19  2  0
 21 22  1  0
 21 13  1  0
 23 21  2  0
M  END
$$$$
