GPF.pdb
     RDKit          3D

 23 24  0  0  1  0  0  0  0  0999 V2000
    7.9527  -11.8000   19.3565 N   0  0  0  0  0  0  0  0  0  0  0  0
    8.2836  -13.1806   19.4525 C   0  0  0  0  0  0  0  0  0  0  0  0
    7.7639  -13.8316   20.6725 C   0  0  0  0  0  0  0  0  0  0  0  0
    7.2417  -13.1277   21.5636 O   0  0  0  0  0  0  0  0  0  0  0  0
    7.8437  -15.2309   20.8546 N   0  0  0  0  0  0  0  0  0  0  0  0
    8.4664  -16.1934   19.9363 C   0  0  0  0  0  0  0  0  0  0  0  0
    7.4315  -17.3245   20.0092 C   0  0  0  0  0  0  0  0  0  0  0  0
    7.2585  -17.4315   21.5090 C   0  0  0  0  0  0  0  0  0  0  0  0
    7.3404  -16.0156   21.9640 C   0  0  1  0  0  0  0  0  0  0  0  0
    8.2786  -15.9156   23.1176 C   0  0  0  0  0  0  0  0  0  0  0  0
    9.5270  -15.7396   22.9195 O   0  0  0  0  0  0  0  0  0  0  0  0
    7.7957  -16.0147   24.4434 N   0  0  0  0  0  0  0  0  0  0  0  0
    8.6883  -15.9883   25.6122 C   0  0  1  0  0  0  0  0  0  0  0  0
    7.8665  -15.4746   26.7558 C   0  0  0  0  0  0  0  0  0  0  0  0
    7.4337  -14.0778   26.6092 C   0  0  0  0  0  0  0  0  0  0  0  0
    8.3366  -13.0361   26.5462 C   0  0  0  0  0  0  0  0  0  0  0  0
    7.9346  -11.7211   26.4078 C   0  0  0  0  0  0  0  0  0  0  0  0
    6.5979  -11.3931   26.3261 C   0  0  0  0  0  0  0  0  0  0  0  0
    5.6832  -12.4231   26.3876 C   0  0  0  0  0  0  0  0  0  0  0  0
    6.0928  -13.7335   26.5259 C   0  0  0  0  0  0  0  0  0  0  0  0
    9.2743  -17.3062   25.8163 C   0  0  0  0  0  0  0  0  0  0  0  0
   10.4190  -17.4536   26.5726 O   0  0  0  0  0  0  0  0  0  0  0  0
    8.7521  -18.3230   25.3113 O   0  0  0  0  0  0  0  0  0  0  0  0
  1  2  1  0
  3  2  1  0
  3  4  2  0
  5  3  1  0
  6  5  1  0
  7  6  1  0
  8  7  1  0
  8  9  1  0
  9  5  1  0
  9 10  1  1
 10 11  2  0
 12 10  1  0
 12 13  1  0
 13 14  1  1
 14 15  1  0
 15 20  1  0
 16 15  2  0
 16 17  1  0
 17 18  2  0
 18 19  1  0
 20 19  2  0
 21 22  1  0
 21 13  1  0
 23 21  2  0
M  END
$$$$
