GPF.pdb
     RDKit          3D

 23 24  0  0  1  0  0  0  0  0999 V2000
    8.3736  -12.5074   18.2559 N   0  0  0  0  0  0  0  0  0  0  0  0
    8.5943  -13.8651   18.6202 C   0  0  0  0  0  0  0  0  0  0  0  0
    8.0288  -14.2254   19.9366 C   0  0  0  0  0  0  0  0  0  0  0  0
    7.7649  -13.3185   20.7553 O   0  0  0  0  0  0  0  0  0  0  0  0
    7.7797  -15.5707   20.2907 N   0  0  0  0  0  0  0  0  0  0  0  0
    8.0404  -16.7520   19.4575 C   0  0  0  0  0  0  0  0  0  0  0  0
    6.7724  -17.5630   19.7578 C   0  0  0  0  0  0  0  0  0  0  0  0
    6.7440  -17.4644   21.2678 C   0  0  0  0  0  0  0  0  0  0  0  0
    7.2229  -16.0783   21.5285 C   0  0  1  0  0  0  0  0  0  0  0  0
    8.2774  -16.1043   22.5812 C   0  0  0  0  0  0  0  0  0  0  0  0
    9.4664  -16.4681   22.2934 O   0  0  0  0  0  0  0  0  0  0  0  0
    7.9720  -15.7264   23.9096 N   0  0  0  0  0  0  0  0  0  0  0  0
    8.9912  -15.6732   24.9689 C   0  0  1  0  0  0  0  0  0  0  0  0
    9.2555  -14.2197   25.2236 C   0  0  0  0  0  0  0  0  0  0  0  0
    8.1198  -13.4925   25.8076 C   0  0  0  0  0  0  0  0  0  0  0  0
    6.9636  -13.2493   25.0945 C   0  0  0  0  0  0  0  0  0  0  0  0
    5.8928  -12.5664   25.6394 C   0  0  0  0  0  0  0  0  0  0  0  0
    5.9374  -12.0947   26.9342 C   0  0  0  0  0  0  0  0  0  0  0  0
    7.0861  -12.3298   27.6598 C   0  0  0  0  0  0  0  0  0  0  0  0
    8.1509  -13.0125   27.1084 C   0  0  0  0  0  0  0  0  0  0  0  0
    8.5391  -16.4307   26.1281 C   0  0  0  0  0  0  0  0  0  0  0  0
    7.2796  -16.9940   26.1481 O   0  0  0  0  0  0  0  0  0  0  0  0
    9.2819  -16.5830   27.1213 O   0  0  0  0  0  0  0  0  0  0  0  0
  1  2  1  0
  3  2  1  0
  3  4  2  0
  5  3  1  0
  6  5  1  0
  7  6  1  0
  8  7  1  0
  8  9  1  0
  9  5  1  0
  9 10  1  1
 10 11  2  0
 12 10  1  0
 12 13  1  0
 13 14  1  1
 14 15  1  0
 15 20  1  0
 16 15  2  0
 16 17  1  0
 17 18  2  0
 18 19  1  0
 20 19  2  0
 21 22  1  0
 21 13  1  0
 23 21  2  0
M  END
$$$$
