GPF.pdb
     RDKit          3D

 23 24  0  0  1  0  0  0  0  0999 V2000
    6.3043  -19.0116   20.6212 N   0  0  0  0  0  0  0  0  0  0  0  0
    6.1684  -17.6631   21.0545 C   0  0  0  0  0  0  0  0  0  0  0  0
    7.4552  -16.9490   21.1834 C   0  0  0  0  0  0  0  0  0  0  0  0
    8.5218  -17.5961   21.1050 O   0  0  0  0  0  0  0  0  0  0  0  0
    7.5076  -15.5523   21.3932 N   0  0  0  0  0  0  0  0  0  0  0  0
    6.3570  -14.6477   21.5169 C   0  0  0  0  0  0  0  0  0  0  0  0
    6.8744  -13.4599   20.6939 C   0  0  0  0  0  0  0  0  0  0  0  0
    8.2589  -13.3079   21.2863 C   0  0  0  0  0  0  0  0  0  0  0  0
    8.6822  -14.7149   21.5306 C   0  0  1  0  0  0  0  0  0  0  0  0
    9.2297  -14.8388   22.9110 C   0  0  0  0  0  0  0  0  0  0  0  0
   10.3826  -14.3688   23.1917 O   0  0  0  0  0  0  0  0  0  0  0  0
    8.4779  -15.4783   23.9243 N   0  0  0  0  0  0  0  0  0  0  0  0
    8.9850  -15.6484   25.2945 C   0  0  1  0  0  0  0  0  0  0  0  0
    7.8314  -15.3599   26.2073 C   0  0  0  0  0  0  0  0  0  0  0  0
    7.5913  -13.9294   26.4437 C   0  0  0  0  0  0  0  0  0  0  0  0
    6.3199  -13.3925   26.4444 C   0  0  0  0  0  0  0  0  0  0  0  0
    6.0890  -12.0483   26.6667 C   0  0  0  0  0  0  0  0  0  0  0  0
    7.1330  -11.1784   26.8997 C   0  0  0  0  0  0  0  0  0  0  0  0
    8.4095  -11.6998   26.9022 C   0  0  0  0  0  0  0  0  0  0  0  0
    8.6317  -13.0432   26.6794 C   0  0  0  0  0  0  0  0  0  0  0  0
    9.5731  -16.9729   25.4428 C   0  0  0  0  0  0  0  0  0  0  0  0
   10.5423  -17.2053   26.3971 O   0  0  0  0  0  0  0  0  0  0  0  0
    9.2112  -17.9185   24.7105 O   0  0  0  0  0  0  0  0  0  0  0  0
  1  2  1  0
  3  2  1  0
  3  4  2  0
  5  3  1  0
  6  5  1  0
  7  6  1  0
  8  7  1  0
  8  9  1  0
  9  5  1  0
  9 10  1  1
 10 11  2  0
 12 10  1  0
 12 13  1  0
 13 14  1  1
 14 15  1  0
 15 20  1  0
 16 15  2  0
 16 17  1  0
 17 18  2  0
 18 19  1  0
 20 19  2  0
 21 22  1  0
 21 13  1  0
 23 21  2  0
M  END
$$$$
