GPF.pdb
     RDKit          3D

 23 24  0  0  1  0  0  0  0  0999 V2000
    5.3985  -19.0682   22.6932 N   0  0  0  0  0  0  0  0  0  0  0  0
    5.6107  -17.6623   22.6365 C   0  0  0  0  0  0  0  0  0  0  0  0
    7.0183  -17.2843   22.3949 C   0  0  0  0  0  0  0  0  0  0  0  0
    7.8890  -18.1794   22.3405 O   0  0  0  0  0  0  0  0  0  0  0  0
    7.4021  -15.9349   22.2240 N   0  0  0  0  0  0  0  0  0  0  0  0
    6.5337  -14.7588   22.3665 C   0  0  0  0  0  0  0  0  0  0  0  0
    7.0274  -13.9289   21.1736 C   0  0  0  0  0  0  0  0  0  0  0  0
    8.5233  -14.0247   21.3828 C   0  0  0  0  0  0  0  0  0  0  0  0
    8.7104  -15.4173   21.8771 C   0  0  1  0  0  0  0  0  0  0  0  0
    9.5831  -15.4051   23.0851 C   0  0  0  0  0  0  0  0  0  0  0  0
   10.8367  -15.1940   22.9723 O   0  0  0  0  0  0  0  0  0  0  0  0
    9.0316  -15.6271   24.3686 N   0  0  0  0  0  0  0  0  0  0  0  0
    9.8605  -15.7014   25.5814 C   0  0  1  0  0  0  0  0  0  0  0  0
    9.6242  -14.4242   26.3296 C   0  0  0  0  0  0  0  0  0  0  0  0
    8.2378  -13.9397   26.2751 C   0  0  0  0  0  0  0  0  0  0  0  0
    7.1621  -14.7790   26.4826 C   0  0  0  0  0  0  0  0  0  0  0  0
    5.8567  -14.3281   26.4329 C   0  0  0  0  0  0  0  0  0  0  0  0
    5.5731  -13.0046   26.1706 C   0  0  0  0  0  0  0  0  0  0  0  0
    6.6374  -12.1534   25.9609 C   0  0  0  0  0  0  0  0  0  0  0  0
    7.9380  -12.6114   26.0123 C   0  0  0  0  0  0  0  0  0  0  0  0
    9.5469  -16.9169   26.3205 C   0  0  0  0  0  0  0  0  0  0  0  0
    8.5000  -17.7249   25.9267 O   0  0  0  0  0  0  0  0  0  0  0  0
   10.2185  -17.2477   27.3211 O   0  0  0  0  0  0  0  0  0  0  0  0
  1  2  1  0
  3  2  1  0
  3  4  2  0
  5  3  1  0
  6  5  1  0
  7  6  1  0
  8  7  1  0
  8  9  1  0
  9  5  1  0
  9 10  1  1
 10 11  2  0
 12 10  1  0
 12 13  1  0
 13 14  1  1
 14 15  1  0
 15 20  1  0
 16 15  2  0
 16 17  1  0
 17 18  2  0
 18 19  1  0
 20 19  2  0
 21 22  1  0
 21 13  1  0
 23 21  2  0
M  END
$$$$
