GPF.pdb
     RDKit          3D

 23 24  0  0  1  0  0  0  0  0999 V2000
    8.2970  -12.3980   18.3420 N   0  0  0  0  0  0  0  0  0  0  0  0
    8.4558  -13.7753   18.6625 C   0  0  0  0  0  0  0  0  0  0  0  0
    7.9669  -14.1307   20.0105 C   0  0  0  0  0  0  0  0  0  0  0  0
    7.8044  -13.2263   20.8579 O   0  0  0  0  0  0  0  0  0  0  0  0
    7.6790  -15.4686   20.3632 N   0  0  0  0  0  0  0  0  0  0  0  0
    7.8671  -16.6518   19.5134 C   0  0  0  0  0  0  0  0  0  0  0  0
    6.5800  -17.4172   19.8503 C   0  0  0  0  0  0  0  0  0  0  0  0
    6.6056  -17.3302   21.3611 C   0  0  0  0  0  0  0  0  0  0  0  0
    7.1449  -15.9652   21.6154 C   0  0  1  0  0  0  0  0  0  0  0  0
    8.2322  -16.0396   22.6319 C   0  0  0  0  0  0  0  0  0  0  0  0
    9.3868  -16.4776   22.3096 O   0  0  0  0  0  0  0  0  0  0  0  0
    7.9961  -15.6258   23.9638 N   0  0  0  0  0  0  0  0  0  0  0  0
    9.0495  -15.6324   24.9903 C   0  0  1  0  0  0  0  0  0  0  0  0
    9.3126  -14.1962   25.3301 C   0  0  0  0  0  0  0  0  0  0  0  0
    8.1494  -13.4812   25.8737 C   0  0  0  0  0  0  0  0  0  0  0  0
    7.9512  -13.3344   27.2315 C   0  0  0  0  0  0  0  0  0  0  0  0
    6.8594  -12.6625   27.7474 C   0  0  0  0  0  0  0  0  0  0  0  0
    5.9121  -12.1045   26.9154 C   0  0  0  0  0  0  0  0  0  0  0  0
    6.0961  -12.2427   25.5559 C   0  0  0  0  0  0  0  0  0  0  0  0
    7.1890  -12.9151   25.0487 C   0  0  0  0  0  0  0  0  0  0  0  0
    8.6411  -16.4672   26.1121 C   0  0  0  0  0  0  0  0  0  0  0  0
    9.5364  -16.7790   27.1147 O   0  0  0  0  0  0  0  0  0  0  0  0
    7.4765  -16.9141   26.1854 O   0  0  0  0  0  0  0  0  0  0  0  0
  1  2  1  0
  3  2  1  0
  3  4  2  0
  5  3  1  0
  6  5  1  0
  7  6  1  0
  8  7  1  0
  8  9  1  0
  9  5  1  0
  9 10  1  1
 10 11  2  0
 12 10  1  0
 12 13  1  0
 13 14  1  1
 14 15  1  0
 15 20  1  0
 16 15  2  0
 16 17  1  0
 17 18  2  0
 18 19  1  0
 20 19  2  0
 21 22  1  0
 21 13  1  0
 23 21  2  0
M  END
$$$$
