WKD.pdb
     RDKit          3D

 32 33  0  0  1  0  0  0  0  0999 V2000
    6.1700  -17.9930   23.8938 N   0  0  0  0  0  0  0  0  0  0  0  0
    6.8119  -16.7311   23.6533 C   0  0  1  0  0  0  0  0  0  0  0  0
    7.6408  -16.2347   24.7876 C   0  0  0  0  0  0  0  0  0  0  0  0
    7.0023  -15.2844   25.6935 C   0  0  0  0  0  0  0  0  0  0  0  0
    6.0863  -15.6171   26.6990 C   0  0  0  0  0  0  0  0  0  0  0  0
    5.7452  -14.4855   27.3291 N   0  0  0  0  0  0  0  0  0  0  0  0
    6.4043  -13.4545   26.7663 C   0  0  0  0  0  0  0  0  0  0  0  0
    6.3787  -12.1090   27.0632 C   0  0  0  0  0  0  0  0  0  0  0  0
    7.1446  -11.2402   26.3343 C   0  0  0  0  0  0  0  0  0  0  0  0
    7.9443  -11.6725   25.3071 C   0  0  0  0  0  0  0  0  0  0  0  0
    7.9739  -13.0158   25.0061 C   0  0  0  0  0  0  0  0  0  0  0  0
    7.2108  -13.9227   25.7254 C   0  0  0  0  0  0  0  0  0  0  0  0
    7.7161  -16.8679   22.4657 C   0  0  0  0  0  0  0  0  0  0  0  0
    8.0879  -18.0104   22.0732 O   0  0  0  0  0  0  0  0  0  0  0  0
    8.1508  -15.7237   21.7902 N   0  0  0  0  0  0  0  0  0  0  0  0
    9.0022  -15.6701   20.6545 C   0  0  1  0  0  0  0  0  0  0  0  0
    8.9211  -14.4173   19.8112 C   0  0  0  0  0  0  0  0  0  0  0  0
    8.0560  -14.6643   18.6312 C   0  0  0  0  0  0  0  0  0  0  0  0
    8.3581  -13.6393   17.5410 C   0  0  0  0  0  0  0  0  0  0  0  0
    7.5621  -13.9200   16.2925 C   0  0  0  0  0  0  0  0  0  0  0  0
    7.8700  -12.8515   15.3555 N   0  0  0  0  0  0  0  0  0  0  0  0
   10.3331  -16.1751   20.9226 C   0  0  0  0  0  0  0  0  0  0  0  0
   11.1781  -16.1659   19.9756 O   0  0  0  0  0  0  0  0  0  0  0  0
   10.7870  -16.6840   22.1552 N   0  0  0  0  0  0  0  0  0  0  0  0
   12.1845  -17.0657   22.4212 C   0  0  1  0  0  0  0  0  0  0  0  0
   13.0878  -15.8993   22.1946 C   0  0  0  0  0  0  0  0  0  0  0  0
   14.4814  -16.2203   22.5107 C   0  0  0  0  0  0  0  0  0  0  0  0
   14.8507  -17.3109   22.9652 O   0  0  0  0  0  0  0  0  0  0  0  0
   12.2237  -17.4430   23.8546 C   0  0  0  0  0  0  0  0  0  0  0  0
   12.6090  -18.7291   24.2214 O   0  0  0  0  0  0  0  0  0  0  0  0
   15.5203  -15.2792   22.3105 O   0  0  0  0  0  0  0  0  0  0  0  0
   11.9277  -16.6633   24.7579 O   0  0  0  0  0  0  0  0  0  0  0  0
  2  1  1  1
  2 13  1  0
  2  3  1  0
  4  5  2  0
  4  3  1  0
  6  5  1  0
  7 12  2  0
  7  6  1  0
  8  7  1  0
  9 10  1  0
  9  8  2  0
 10 11  2  0
 11 12  1  0
 12  4  1  0
 13 14  2  0
 15 16  1  0
 15 13  1  0
 16 22  1  0
 16 17  1  1
 18 17  1  0
 19 18  1  0
 20 19  1  0
 21 20  1  0
 22 23  2  0
 22 24  1  0
 24 25  1  0
 25 29  1  0
 25 26  1  1
 27 26  1  0
 28 27  2  0
 29 32  2  0
 29 30  1  0
 31 27  1  0
M  END
$$$$
