WKD.pdb
     RDKit          3D

 32 33  0  0  1  0  0  0  0  0999 V2000
    7.0784  -17.4898   25.5281 N   0  0  0  0  0  0  0  0  0  0  0  0
    7.2472  -16.4990   24.5023 C   0  0  1  0  0  0  0  0  0  0  0  0
    8.1444  -15.3699   24.8771 C   0  0  0  0  0  0  0  0  0  0  0  0
    7.7728  -14.6107   26.0674 C   0  0  0  0  0  0  0  0  0  0  0  0
    7.8796  -15.0710   27.3855 C   0  0  0  0  0  0  0  0  0  0  0  0
    7.4671  -14.0868   28.1948 N   0  0  0  0  0  0  0  0  0  0  0  0
    7.1047  -13.0269   27.4467 C   0  0  0  0  0  0  0  0  0  0  0  0
    6.6156  -11.7943   27.8216 C   0  0  0  0  0  0  0  0  0  0  0  0
    6.3088  -10.8676   26.8626 C   0  0  0  0  0  0  0  0  0  0  0  0
    6.4746  -11.1315   25.5267 C   0  0  0  0  0  0  0  0  0  0  0  0
    6.9631  -12.3614   25.1464 C   0  0  0  0  0  0  0  0  0  0  0  0
    7.2845  -13.3223   26.0927 C   0  0  0  0  0  0  0  0  0  0  0  0
    7.8368  -17.1546   23.2902 C   0  0  0  0  0  0  0  0  0  0  0  0
    8.6718  -18.0952   23.4143 O   0  0  0  0  0  0  0  0  0  0  0  0
    7.4606  -16.7207   22.0155 N   0  0  0  0  0  0  0  0  0  0  0  0
    8.1873  -15.8550   21.1554 C   0  0  1  0  0  0  0  0  0  0  0  0
    7.8965  -14.3767   21.2862 C   0  0  0  0  0  0  0  0  0  0  0  0
    7.1370  -13.9098   20.0999 C   0  0  0  0  0  0  0  0  0  0  0  0
    8.0887  -13.6885   18.9270 C   0  0  0  0  0  0  0  0  0  0  0  0
    7.3347  -13.3264   17.6735 C   0  0  0  0  0  0  0  0  0  0  0  0
    8.3245  -13.2033   16.6152 N   0  0  0  0  0  0  0  0  0  0  0  0
    9.5827  -16.2234   21.0317 C   0  0  0  0  0  0  0  0  0  0  0  0
   10.2514  -15.7212   20.0769 O   0  0  0  0  0  0  0  0  0  0  0  0
   10.2807  -17.1006   21.8848 N   0  0  0  0  0  0  0  0  0  0  0  0
   11.6682  -17.5382   21.6551 C   0  0  1  0  0  0  0  0  0  0  0  0
   12.4114  -17.5904   22.9485 C   0  0  0  0  0  0  0  0  0  0  0  0
   13.0402  -16.3067   23.2675 C   0  0  0  0  0  0  0  0  0  0  0  0
   13.1269  -15.3651   22.4685 O   0  0  0  0  0  0  0  0  0  0  0  0
   11.5619  -18.9079   21.0971 C   0  0  0  0  0  0  0  0  0  0  0  0
   12.7123  -19.5880   20.7086 O   0  0  0  0  0  0  0  0  0  0  0  0
   13.6023  -16.0556   24.5426 O   0  0  0  0  0  0  0  0  0  0  0  0
   10.4877  -19.4890   20.9556 O   0  0  0  0  0  0  0  0  0  0  0  0
  2  1  1  1
  2 13  1  0
  2  3  1  0
  4  5  2  0
  4  3  1  0
  6  5  1  0
  7 12  2  0
  7  6  1  0
  8  7  1  0
  9 10  1  0
  9  8  2  0
 10 11  2  0
 11 12  1  0
 12  4  1  0
 13 14  2  0
 15 16  1  0
 15 13  1  0
 16 22  1  0
 16 17  1  1
 18 17  1  0
 19 18  1  0
 20 19  1  0
 21 20  1  0
 22 23  2  0
 22 24  1  0
 24 25  1  0
 25 29  1  0
 25 26  1  1
 27 26  1  0
 28 27  2  0
 29 32  2  0
 29 30  1  0
 31 27  1  0
M  END
$$$$
