WKD.pdb
     RDKit          3D

 32 33  0  0  1  0  0  0  0  0999 V2000
    5.9174  -17.3546   25.5156 N   0  0  0  0  0  0  0  0  0  0  0  0
    6.8757  -16.3535   25.1392 C   0  0  1  0  0  0  0  0  0  0  0  0
    7.9939  -16.1752   26.1078 C   0  0  0  0  0  0  0  0  0  0  0  0
    8.0530  -14.8940   26.8053 C   0  0  0  0  0  0  0  0  0  0  0  0
    9.0150  -14.5360   27.7576 C   0  0  0  0  0  0  0  0  0  0  0  0
    8.7526  -13.2825   28.1496 N   0  0  0  0  0  0  0  0  0  0  0  0
    7.6686  -12.8340   27.4877 C   0  0  0  0  0  0  0  0  0  0  0  0
    7.0203  -11.6198   27.5544 C   0  0  0  0  0  0  0  0  0  0  0  0
    5.9175  -11.3976   26.7752 C   0  0  0  0  0  0  0  0  0  0  0  0
    5.4332  -12.3564   25.9222 C   0  0  0  0  0  0  0  0  0  0  0  0
    6.0770  -13.5715   25.8515 C   0  0  0  0  0  0  0  0  0  0  0  0
    7.1973  -13.8287   26.6267 C   0  0  0  0  0  0  0  0  0  0  0  0
    7.4819  -16.7360   23.8229 C   0  0  0  0  0  0  0  0  0  0  0  0
    7.7653  -17.9427   23.5757 O   0  0  0  0  0  0  0  0  0  0  0  0
    7.7359  -15.7505   22.8643 N   0  0  0  0  0  0  0  0  0  0  0  0
    8.2602  -15.9400   21.5579 C   0  0  1  0  0  0  0  0  0  0  0  0
    8.2884  -14.7227   20.6610 C   0  0  0  0  0  0  0  0  0  0  0  0
    8.8061  -15.1000   19.3225 C   0  0  0  0  0  0  0  0  0  0  0  0
    8.1096  -14.2745   18.2437 C   0  0  0  0  0  0  0  0  0  0  0  0
    8.6917  -12.8871   18.1575 C   0  0  0  0  0  0  0  0  0  0  0  0
    7.9660  -12.1978   17.1025 N   0  0  0  0  0  0  0  0  0  0  0  0
    9.4441  -16.7743   21.5406 C   0  0  0  0  0  0  0  0  0  0  0  0
    9.6033  -17.5661   20.5614 O   0  0  0  0  0  0  0  0  0  0  0  0
   10.4532  -16.7910   22.5234 N   0  0  0  0  0  0  0  0  0  0  0  0
   11.7227  -17.5248   22.3841 C   0  0  1  0  0  0  0  0  0  0  0  0
   12.4981  -16.9947   21.2241 C   0  0  0  0  0  0  0  0  0  0  0  0
   13.3167  -15.8394   21.5985 C   0  0  0  0  0  0  0  0  0  0  0  0
   13.3213  -15.3363   22.7295 O   0  0  0  0  0  0  0  0  0  0  0  0
   12.4715  -17.2574   23.6356 C   0  0  0  0  0  0  0  0  0  0  0  0
   13.7306  -17.8203   23.8225 O   0  0  0  0  0  0  0  0  0  0  0  0
   14.1768  -15.2098   20.6664 O   0  0  0  0  0  0  0  0  0  0  0  0
   12.0304  -16.5489   24.5384 O   0  0  0  0  0  0  0  0  0  0  0  0
  2  1  1  1
  2 13  1  0
  2  3  1  0
  4  5  2  0
  4  3  1  0
  6  5  1  0
  7 12  2  0
  7  6  1  0
  8  7  1  0
  9 10  1  0
  9  8  2  0
 10 11  2  0
 11 12  1  0
 12  4  1  0
 13 14  2  0
 15 16  1  0
 15 13  1  0
 16 22  1  0
 16 17  1  1
 18 17  1  0
 19 18  1  0
 20 19  1  0
 21 20  1  0
 22 23  2  0
 22 24  1  0
 24 25  1  0
 25 29  1  0
 25 26  1  6
 27 26  1  0
 28 27  2  0
 29 32  2  0
 29 30  1  0
 31 27  1  0
M  END
$$$$
