WKD.pdb
     RDKit          3D

 32 33  0  0  1  0  0  0  0  0999 V2000
    7.0361  -17.5217   25.5418 N   0  0  0  0  0  0  0  0  0  0  0  0
    7.2081  -16.2661   24.8665 C   0  0  1  0  0  0  0  0  0  0  0  0
    8.3459  -15.4460   25.3697 C   0  0  0  0  0  0  0  0  0  0  0  0
    8.0886  -14.6337   26.5552 C   0  0  0  0  0  0  0  0  0  0  0  0
    8.4765  -14.9626   27.8598 C   0  0  0  0  0  0  0  0  0  0  0  0
    8.0856  -13.9656   28.6640 N   0  0  0  0  0  0  0  0  0  0  0  0
    7.4685  -13.0230   27.9256 C   0  0  0  0  0  0  0  0  0  0  0  0
    6.8969  -11.8266   28.3011 C   0  0  0  0  0  0  0  0  0  0  0  0
    6.3151  -11.0278   27.3544 C   0  0  0  0  0  0  0  0  0  0  0  0
    6.2832  -11.3860   26.0306 C   0  0  0  0  0  0  0  0  0  0  0  0
    6.8529  -12.5803   25.6498 C   0  0  0  0  0  0  0  0  0  0  0  0
    7.4511  -13.4124   26.5836 C   0  0  0  0  0  0  0  0  0  0  0  0
    7.4567  -16.5301   23.4121 C   0  0  0  0  0  0  0  0  0  0  0  0
    7.5366  -17.7159   22.9819 O   0  0  0  0  0  0  0  0  0  0  0  0
    7.6023  -15.4571   22.5279 N   0  0  0  0  0  0  0  0  0  0  0  0
    7.7449  -15.5226   21.1162 C   0  0  1  0  0  0  0  0  0  0  0  0
    7.3667  -14.2791   20.3432 C   0  0  0  0  0  0  0  0  0  0  0  0
    7.4310  -14.5570   18.8869 C   0  0  0  0  0  0  0  0  0  0  0  0
    8.0305  -13.3592   18.1547 C   0  0  0  0  0  0  0  0  0  0  0  0
    8.0523  -13.5855   16.6649 C   0  0  0  0  0  0  0  0  0  0  0  0
    8.7120  -12.4293   16.0795 N   0  0  0  0  0  0  0  0  0  0  0  0
    8.9642  -16.1863   20.7025 C   0  0  0  0  0  0  0  0  0  0  0  0
    9.0989  -16.4784   19.4747 O   0  0  0  0  0  0  0  0  0  0  0  0
   10.0332  -16.5444   21.5471 N   0  0  0  0  0  0  0  0  0  0  0  0
   11.4031  -16.8038   21.0724 C   0  0  1  0  0  0  0  0  0  0  0  0
   11.9482  -15.5936   20.3897 C   0  0  0  0  0  0  0  0  0  0  0  0
   13.3182  -15.8055   19.9172 C   0  0  0  0  0  0  0  0  0  0  0  0
   13.7369  -16.8858   19.4814 O   0  0  0  0  0  0  0  0  0  0  0  0
   12.1984  -17.0756   22.2939 C   0  0  0  0  0  0  0  0  0  0  0  0
   11.5742  -17.0875   23.5377 O   0  0  0  0  0  0  0  0  0  0  0  0
   14.2740  -14.7608   19.9289 O   0  0  0  0  0  0  0  0  0  0  0  0
   13.4076  -17.2963   22.2672 O   0  0  0  0  0  0  0  0  0  0  0  0
  2  1  1  1
  2 13  1  0
  2  3  1  0
  4  5  2  0
  4  3  1  0
  6  5  1  0
  7 12  2  0
  7  6  1  0
  8  7  1  0
  9 10  1  0
  9  8  2  0
 10 11  2  0
 11 12  1  0
 12  4  1  0
 13 14  2  0
 15 16  1  0
 15 13  1  0
 16 22  1  0
 16 17  1  1
 18 17  1  0
 19 18  1  0
 20 19  1  0
 21 20  1  0
 22 23  2  0
 22 24  1  0
 24 25  1  0
 25 29  1  0
 25 26  1  1
 27 26  1  0
 28 27  2  0
 29 32  2  0
 29 30  1  0
 31 27  1  0
M  END
$$$$
