WKD.pdb
     RDKit          3D

 32 33  0  0  1  0  0  0  0  0999 V2000
    9.3657  -14.7313   24.4395 N   0  0  0  0  0  0  0  0  0  0  0  0
    8.4019  -15.7943   24.4976 C   0  0  1  0  0  0  0  0  0  0  0  0
    7.1238  -15.4318   25.1725 C   0  0  0  0  0  0  0  0  0  0  0  0
    7.2247  -14.5307   26.3167 C   0  0  0  0  0  0  0  0  0  0  0  0
    6.2236  -13.6487   26.7413 C   0  0  0  0  0  0  0  0  0  0  0  0
    6.6760  -13.0136   27.8302 N   0  0  0  0  0  0  0  0  0  0  0  0
    7.9171  -13.4551   28.1113 C   0  0  0  0  0  0  0  0  0  0  0  0
    8.7839  -13.1000   29.1221 C   0  0  0  0  0  0  0  0  0  0  0  0
   10.0144  -13.6940   29.1984 C   0  0  0  0  0  0  0  0  0  0  0  0
   10.4147  -14.6408   28.2900 C   0  0  0  0  0  0  0  0  0  0  0  0
    9.5527  -14.9994   27.2781 C   0  0  0  0  0  0  0  0  0  0  0  0
    8.2987  -14.4175   27.1727 C   0  0  0  0  0  0  0  0  0  0  0  0
    8.0645  -16.2170   23.0997 C   0  0  0  0  0  0  0  0  0  0  0  0
    7.2093  -17.1249   22.8949 O   0  0  0  0  0  0  0  0  0  0  0  0
    8.7016  -15.6032   22.0172 N   0  0  0  0  0  0  0  0  0  0  0  0
    8.7307  -16.0550   20.6709 C   0  0  1  0  0  0  0  0  0  0  0  0
    7.9641  -15.2249   19.6657 C   0  0  0  0  0  0  0  0  0  0  0  0
    8.7384  -14.0039   19.3315 C   0  0  0  0  0  0  0  0  0  0  0  0
    7.9952  -13.1892   18.2760 C   0  0  0  0  0  0  0  0  0  0  0  0
    8.5298  -13.4685   16.8949 C   0  0  0  0  0  0  0  0  0  0  0  0
    7.7516  -12.6528   15.9764 N   0  0  0  0  0  0  0  0  0  0  0  0
   10.0420  -16.5100   20.2567 C   0  0  0  0  0  0  0  0  0  0  0  0
   10.1527  -17.0567   19.1165 O   0  0  0  0  0  0  0  0  0  0  0  0
   11.2267  -16.4016   21.0112 N   0  0  0  0  0  0  0  0  0  0  0  0
   12.5289  -16.9345   20.5757 C   0  0  1  0  0  0  0  0  0  0  0  0
   13.4938  -15.8172   20.3556 C   0  0  0  0  0  0  0  0  0  0  0  0
   13.2847  -15.1640   19.0614 C   0  0  0  0  0  0  0  0  0  0  0  0
   12.5309  -15.6023   18.1828 O   0  0  0  0  0  0  0  0  0  0  0  0
   13.0051  -17.7772   21.6990 C   0  0  0  0  0  0  0  0  0  0  0  0
   14.2273  -18.4357   21.6003 O   0  0  0  0  0  0  0  0  0  0  0  0
   13.9483  -13.9590   18.7259 O   0  0  0  0  0  0  0  0  0  0  0  0
   12.3642  -17.9293   22.7371 O   0  0  0  0  0  0  0  0  0  0  0  0
  2  1  1  6
  2 13  1  0
  2  3  1  0
  4  5  2  0
  4  3  1  0
  6  5  1  0
  7 12  2  0
  7  6  1  0
  8  7  1  0
  9 10  1  0
  9  8  2  0
 10 11  2  0
 11 12  1  0
 12  4  1  0
 13 14  2  0
 15 16  1  0
 15 13  1  0
 16 22  1  0
 16 17  1  6
 18 17  1  0
 19 18  1  0
 20 19  1  0
 21 20  1  0
 22 23  2  0
 22 24  1  0
 24 25  1  0
 25 29  1  0
 25 26  1  1
 27 26  1  0
 28 27  2  0
 29 32  2  0
 29 30  1  0
 31 27  1  0
M  END
$$$$
