WKD.pdb
     RDKit          3D

 32 33  0  0  1  0  0  0  0  0999 V2000
    6.5610  -17.1271   25.4366 N   0  0  0  0  0  0  0  0  0  0  0  0
    6.9224  -16.0321   24.5806 C   0  0  1  0  0  0  0  0  0  0  0  0
    8.1403  -15.2891   25.0107 C   0  0  0  0  0  0  0  0  0  0  0  0
    8.0394  -14.5419   26.2609 C   0  0  0  0  0  0  0  0  0  0  0  0
    8.4499  -15.0076   27.5160 C   0  0  0  0  0  0  0  0  0  0  0  0
    8.2194  -14.0341   28.4064 N   0  0  0  0  0  0  0  0  0  0  0  0
    7.6819  -12.9758   27.7697 C   0  0  0  0  0  0  0  0  0  0  0  0
    7.2744  -11.7527   28.2568 C   0  0  0  0  0  0  0  0  0  0  0  0
    6.7448  -10.8256   27.4009 C   0  0  0  0  0  0  0  0  0  0  0  0
    6.6055  -11.0798   26.0601 C   0  0  0  0  0  0  0  0  0  0  0  0
    7.0110  -12.3001   25.5680 C   0  0  0  0  0  0  0  0  0  0  0  0
    7.5524  -13.2612   26.4078 C   0  0  0  0  0  0  0  0  0  0  0  0
    7.1857  -16.5622   23.2036 C   0  0  0  0  0  0  0  0  0  0  0  0
    7.7269  -17.6935   23.0464 O   0  0  0  0  0  0  0  0  0  0  0  0
    6.8310  -15.7986   22.0875 N   0  0  0  0  0  0  0  0  0  0  0  0
    7.6819  -15.3782   21.0307 C   0  0  1  0  0  0  0  0  0  0  0  0
    7.3258  -14.0706   20.3596 C   0  0  0  0  0  0  0  0  0  0  0  0
    8.2695  -13.8076   19.2451 C   0  0  0  0  0  0  0  0  0  0  0  0
    7.5730  -14.0427   17.9072 C   0  0  0  0  0  0  0  0  0  0  0  0
    8.5179  -13.8224   16.7540 C   0  0  0  0  0  0  0  0  0  0  0  0
    7.7747  -14.1346   15.5437 N   0  0  0  0  0  0  0  0  0  0  0  0
    9.0859  -15.5867   21.3198 C   0  0  0  0  0  0  0  0  0  0  0  0
    9.4979  -15.3380   22.4943 O   0  0  0  0  0  0  0  0  0  0  0  0
   10.0543  -16.0473   20.4063 N   0  0  0  0  0  0  0  0  0  0  0  0
   11.4209  -16.4421   20.7882 C   0  0  1  0  0  0  0  0  0  0  0  0
   11.3764  -17.5823   21.7504 C   0  0  0  0  0  0  0  0  0  0  0  0
   12.7097  -18.1323   22.0053 C   0  0  0  0  0  0  0  0  0  0  0  0
   13.7435  -17.7054   21.4747 O   0  0  0  0  0  0  0  0  0  0  0  0
   12.0678  -16.8887   19.5310 C   0  0  0  0  0  0  0  0  0  0  0  0
   13.4409  -16.7329   19.3659 O   0  0  0  0  0  0  0  0  0  0  0  0
   12.9049  -19.2139   22.8979 O   0  0  0  0  0  0  0  0  0  0  0  0
   11.4425  -17.4011   18.6047 O   0  0  0  0  0  0  0  0  0  0  0  0
  2  1  1  1
  2 13  1  0
  2  3  1  0
  4  5  2  0
  4  3  1  0
  6  5  1  0
  7 12  2  0
  7  6  1  0
  8  7  1  0
  9 10  1  0
  9  8  2  0
 10 11  2  0
 11 12  1  0
 12  4  1  0
 13 14  2  0
 15 16  1  0
 15 13  1  0
 16 22  1  0
 16 17  1  1
 18 17  1  0
 19 18  1  0
 20 19  1  0
 21 20  1  0
 22 23  2  0
 22 24  1  0
 24 25  1  0
 25 29  1  0
 25 26  1  1
 27 26  1  0
 28 27  2  0
 29 32  2  0
 29 30  1  0
 31 27  1  0
M  END
$$$$
