WKD.pdb
     RDKit          3D

 32 33  0  0  1  0  0  0  0  0999 V2000
    9.2641  -16.2232   24.7066 N   0  0  0  0  0  0  0  0  0  0  0  0
    7.9753  -16.8563   24.7260 C   0  0  1  0  0  0  0  0  0  0  0  0
    7.1711  -16.5806   25.9497 C   0  0  0  0  0  0  0  0  0  0  0  0
    7.2647  -15.2315   26.4998 C   0  0  0  0  0  0  0  0  0  0  0  0
    6.3789  -14.1829   26.2233 C   0  0  0  0  0  0  0  0  0  0  0  0
    6.7780  -13.1166   26.9287 N   0  0  0  0  0  0  0  0  0  0  0  0
    7.8754  -13.4453   27.6372 C   0  0  0  0  0  0  0  0  0  0  0  0
    8.6421  -12.6903   28.4982 C   0  0  0  0  0  0  0  0  0  0  0  0
    9.7315  -13.2536   29.1054 C   0  0  0  0  0  0  0  0  0  0  0  0
   10.0867  -14.5593   28.8802 C   0  0  0  0  0  0  0  0  0  0  0  0
    9.3242  -15.3183   28.0210 C   0  0  0  0  0  0  0  0  0  0  0  0
    8.2138  -14.7785   27.3902 C   0  0  0  0  0  0  0  0  0  0  0  0
    7.1813  -16.3711   23.5510 C   0  0  0  0  0  0  0  0  0  0  0  0
    6.2815  -17.0989   23.0426 O   0  0  0  0  0  0  0  0  0  0  0  0
    7.4397  -15.1062   23.0146 N   0  0  0  0  0  0  0  0  0  0  0  0
    8.0005  -14.8123   21.7431 C   0  0  1  0  0  0  0  0  0  0  0  0
    8.0051  -13.3576   21.3297 C   0  0  0  0  0  0  0  0  0  0  0  0
    8.6964  -13.2111   20.0248 C   0  0  0  0  0  0  0  0  0  0  0  0
    7.7110  -13.4521   18.8841 C   0  0  0  0  0  0  0  0  0  0  0  0
    8.3914  -13.3450   17.5437 C   0  0  0  0  0  0  0  0  0  0  0  0
    7.3485  -13.4710   16.5381 N   0  0  0  0  0  0  0  0  0  0  0  0
    9.2140  -15.5566   21.4759 C   0  0  0  0  0  0  0  0  0  0  0  0
    9.4778  -15.8577   20.2714 O   0  0  0  0  0  0  0  0  0  0  0  0
   10.1456  -15.9854   22.4417 N   0  0  0  0  0  0  0  0  0  0  0  0
   11.4762  -16.5260   22.1154 C   0  0  1  0  0  0  0  0  0  0  0  0
   12.5404  -15.5932   22.5899 C   0  0  0  0  0  0  0  0  0  0  0  0
   13.8821  -16.1142   22.3184 C   0  0  0  0  0  0  0  0  0  0  0  0
   14.1002  -17.1841   21.7352 O   0  0  0  0  0  0  0  0  0  0  0  0
   11.5767  -17.8027   22.8629 C   0  0  0  0  0  0  0  0  0  0  0  0
   12.7026  -18.6066   22.7113 O   0  0  0  0  0  0  0  0  0  0  0  0
   15.0435  -15.4083   22.7157 O   0  0  0  0  0  0  0  0  0  0  0  0
   10.6991  -18.1989   23.6272 O   0  0  0  0  0  0  0  0  0  0  0  0
  2  1  1  1
  2 13  1  0
  2  3  1  0
  4  5  2  0
  4  3  1  0
  6  5  1  0
  7 12  2  0
  7  6  1  0
  8  7  1  0
  9 10  1  0
  9  8  2  0
 10 11  2  0
 11 12  1  0
 12  4  1  0
 13 14  2  0
 15 16  1  0
 15 13  1  0
 16 22  1  0
 16 17  1  1
 18 17  1  0
 19 18  1  0
 20 19  1  0
 21 20  1  0
 22 23  2  0
 22 24  1  0
 24 25  1  0
 25 29  1  0
 25 26  1  1
 27 26  1  0
 28 27  2  0
 29 32  2  0
 29 30  1  0
 31 27  1  0
M  END
$$$$
