WKD.pdb
     RDKit          3D

 32 33  0  0  1  0  0  0  0  0999 V2000
    6.3448  -17.6816   24.0093 N   0  0  0  0  0  0  0  0  0  0  0  0
    6.9878  -16.4887   23.5340 C   0  0  1  0  0  0  0  0  0  0  0  0
    7.8346  -15.7989   24.5475 C   0  0  0  0  0  0  0  0  0  0  0  0
    7.1361  -14.9619   25.5185 C   0  0  0  0  0  0  0  0  0  0  0  0
    6.3282  -15.4347   26.5598 C   0  0  0  0  0  0  0  0  0  0  0  0
    5.8857  -14.3729   27.2457 N   0  0  0  0  0  0  0  0  0  0  0  0
    6.3778  -13.2519   26.6839 C   0  0  0  0  0  0  0  0  0  0  0  0
    6.2020  -11.9290   27.0276 C   0  0  0  0  0  0  0  0  0  0  0  0
    6.8104  -10.9510   26.2888 C   0  0  0  0  0  0  0  0  0  0  0  0
    7.5971  -11.2508   25.2057 C   0  0  0  0  0  0  0  0  0  0  0  0
    7.7764  -12.5709   24.8578 C   0  0  0  0  0  0  0  0  0  0  0  0
    7.1748  -13.5861   25.5857 C   0  0  0  0  0  0  0  0  0  0  0  0
    7.8746  -16.8455   22.3794 C   0  0  0  0  0  0  0  0  0  0  0  0
    8.3967  -17.9942   22.3051 O   0  0  0  0  0  0  0  0  0  0  0  0
    8.1256  -15.9003   21.3803 N   0  0  0  0  0  0  0  0  0  0  0  0
    9.2683  -15.8236   20.5403 C   0  0  1  0  0  0  0  0  0  0  0  0
    9.3001  -14.6810   19.5500 C   0  0  0  0  0  0  0  0  0  0  0  0
    8.3109  -14.9267   18.4715 C   0  0  0  0  0  0  0  0  0  0  0  0
    8.4068  -13.8269   17.4172 C   0  0  0  0  0  0  0  0  0  0  0  0
    7.4992  -14.1112   16.2482 C   0  0  0  0  0  0  0  0  0  0  0  0
    7.7054  -13.0351   15.2920 N   0  0  0  0  0  0  0  0  0  0  0  0
   10.5052  -16.0941   21.2439 C   0  0  0  0  0  0  0  0  0  0  0  0
   10.5951  -15.7302   22.4566 O   0  0  0  0  0  0  0  0  0  0  0  0
   11.6372  -16.7337   20.7018 N   0  0  0  0  0  0  0  0  0  0  0  0
   12.8493  -17.0521   21.4754 C   0  0  1  0  0  0  0  0  0  0  0  0
   12.5267  -18.0279   22.5578 C   0  0  0  0  0  0  0  0  0  0  0  0
   13.7315  -18.4935   23.2482 C   0  0  0  0  0  0  0  0  0  0  0  0
   14.8757  -18.1125   22.9690 O   0  0  0  0  0  0  0  0  0  0  0  0
   13.7789  -17.6844   20.5086 C   0  0  0  0  0  0  0  0  0  0  0  0
   15.0706  -18.0164   20.9062 O   0  0  0  0  0  0  0  0  0  0  0  0
   13.6611  -19.4322   24.3060 O   0  0  0  0  0  0  0  0  0  0  0  0
   13.4632  -17.9374   19.3476 O   0  0  0  0  0  0  0  0  0  0  0  0
  2  1  1  1
  2 13  1  0
  2  3  1  0
  4  5  2  0
  4  3  1  0
  6  5  1  0
  7 12  2  0
  7  6  1  0
  8  7  1  0
  9 10  1  0
  9  8  2  0
 10 11  2  0
 11 12  1  0
 12  4  1  0
 13 14  2  0
 15 16  1  0
 15 13  1  0
 16 22  1  0
 16 17  1  1
 18 17  1  0
 19 18  1  0
 20 19  1  0
 21 20  1  0
 22 23  2  0
 22 24  1  0
 24 25  1  0
 25 29  1  0
 25 26  1  1
 27 26  1  0
 28 27  2  0
 29 32  2  0
 29 30  1  0
 31 27  1  0
M  END
$$$$
