WKD.pdb
     RDKit          3D

 32 33  0  0  1  0  0  0  0  0999 V2000
    6.6211  -17.4926   24.1788 N   0  0  0  0  0  0  0  0  0  0  0  0
    7.0224  -16.1494   23.8675 C   0  0  1  0  0  0  0  0  0  0  0  0
    8.0904  -15.6041   24.7521 C   0  0  0  0  0  0  0  0  0  0  0  0
    7.6479  -14.9538   25.9820 C   0  0  0  0  0  0  0  0  0  0  0  0
    7.4118  -15.6034   27.1997 C   0  0  0  0  0  0  0  0  0  0  0  0
    7.0452  -14.6744   28.0920 N   0  0  0  0  0  0  0  0  0  0  0  0
    7.0392  -13.4684   27.4920 C   0  0  0  0  0  0  0  0  0  0  0  0
    6.7287  -12.2228   27.9933 C   0  0  0  0  0  0  0  0  0  0  0  0
    6.7915  -11.1286   27.1739 C   0  0  0  0  0  0  0  0  0  0  0  0
    7.1571  -11.2355   25.8561 C   0  0  0  0  0  0  0  0  0  0  0  0
    7.4684  -12.4776   25.3500 C   0  0  0  0  0  0  0  0  0  0  0  0
    7.4157  -13.6063   26.1533 C   0  0  0  0  0  0  0  0  0  0  0  0
    7.5450  -16.1149   22.4631 C   0  0  0  0  0  0  0  0  0  0  0  0
    7.9499  -17.1742   21.9051 O   0  0  0  0  0  0  0  0  0  0  0  0
    7.5852  -14.9024   21.7681 N   0  0  0  0  0  0  0  0  0  0  0  0
    8.2078  -14.6519   20.5163 C   0  0  1  0  0  0  0  0  0  0  0  0
    8.0868  -13.2454   19.9740 C   0  0  0  0  0  0  0  0  0  0  0  0
    8.8551  -13.1293   18.7098 C   0  0  0  0  0  0  0  0  0  0  0  0
    7.9791  -13.5403   17.5290 C   0  0  0  0  0  0  0  0  0  0  0  0
    8.7937  -14.2098   16.4524 C   0  0  0  0  0  0  0  0  0  0  0  0
    8.4759  -13.5282   15.2077 N   0  0  0  0  0  0  0  0  0  0  0  0
    9.5119  -15.2716   20.4006 C   0  0  0  0  0  0  0  0  0  0  0  0
    9.7683  -15.9335   19.3484 O   0  0  0  0  0  0  0  0  0  0  0  0
   10.5408  -15.2084   21.3608 N   0  0  0  0  0  0  0  0  0  0  0  0
   11.8434  -15.8799   21.2135 C   0  0  1  0  0  0  0  0  0  0  0  0
   12.9185  -14.8709   20.9815 C   0  0  0  0  0  0  0  0  0  0  0  0
   13.2334  -14.7279   19.5583 C   0  0  0  0  0  0  0  0  0  0  0  0
   12.6750  -15.3730   18.6615 O   0  0  0  0  0  0  0  0  0  0  0  0
   12.0839  -16.5612   22.5083 C   0  0  0  0  0  0  0  0  0  0  0  0
   11.1103  -16.5224   23.5021 O   0  0  0  0  0  0  0  0  0  0  0  0
   14.2211  -13.8190   19.1075 O   0  0  0  0  0  0  0  0  0  0  0  0
   13.1208  -17.1729   22.7577 O   0  0  0  0  0  0  0  0  0  0  0  0
  2  1  1  1
  2 13  1  0
  2  3  1  0
  4  5  2  0
  4  3  1  0
  6  5  1  0
  7 12  2  0
  7  6  1  0
  8  7  1  0
  9 10  1  0
  9  8  2  0
 10 11  2  0
 11 12  1  0
 12  4  1  0
 13 14  2  0
 15 16  1  0
 15 13  1  0
 16 22  1  0
 16 17  1  1
 18 17  1  0
 19 18  1  0
 20 19  1  0
 21 20  1  0
 22 23  2  0
 22 24  1  0
 24 25  1  0
 25 29  1  0
 25 26  1  1
 27 26  1  0
 28 27  2  0
 29 32  2  0
 29 30  1  0
 31 27  1  0
M  END
$$$$
