WKD.pdb
     RDKit          3D

 32 33  0  0  1  0  0  0  0  0999 V2000
    6.3459  -17.6423   25.0944 N   0  0  0  0  0  0  0  0  0  0  0  0
    6.8151  -16.3918   24.5667 C   0  0  1  0  0  0  0  0  0  0  0  0
    7.9355  -15.7797   25.3351 C   0  0  0  0  0  0  0  0  0  0  0  0
    7.5639  -14.8674   26.4126 C   0  0  0  0  0  0  0  0  0  0  0  0
    7.3902  -15.2293   27.7540 C   0  0  0  0  0  0  0  0  0  0  0  0
    7.0777  -14.1206   28.4373 N   0  0  0  0  0  0  0  0  0  0  0  0
    7.0462  -13.0761   27.5875 C   0  0  0  0  0  0  0  0  0  0  0  0
    6.7706  -11.7455   27.8172 C   0  0  0  0  0  0  0  0  0  0  0  0
    6.7953  -10.8593   26.7748 C   0  0  0  0  0  0  0  0  0  0  0  0
    7.0885  -11.2596   25.4959 C   0  0  0  0  0  0  0  0  0  0  0  0
    7.3648  -12.5878   25.2606 C   0  0  0  0  0  0  0  0  0  0  0  0
    7.3490  -13.5113   26.2945 C   0  0  0  0  0  0  0  0  0  0  0  0
    7.3015  -16.6108   23.1660 C   0  0  0  0  0  0  0  0  0  0  0  0
    7.7777  -17.7299   22.8220 O   0  0  0  0  0  0  0  0  0  0  0  0
    7.2284  -15.5694   22.2361 N   0  0  0  0  0  0  0  0  0  0  0  0
    8.0242  -15.4023   21.0716 C   0  0  1  0  0  0  0  0  0  0  0  0
    7.6879  -14.2200   20.1906 C   0  0  0  0  0  0  0  0  0  0  0  0
    8.6256  -14.1702   19.0415 C   0  0  0  0  0  0  0  0  0  0  0  0
    7.8931  -13.6855   17.7930 C   0  0  0  0  0  0  0  0  0  0  0  0
    8.8090  -13.6656   16.5964 C   0  0  0  0  0  0  0  0  0  0  0  0
    8.0223  -13.1651   15.4805 N   0  0  0  0  0  0  0  0  0  0  0  0
    9.4327  -15.6403   21.3118 C   0  0  0  0  0  0  0  0  0  0  0  0
    9.9643  -15.1041   22.3320 O   0  0  0  0  0  0  0  0  0  0  0  0
   10.2834  -16.4239   20.5075 N   0  0  0  0  0  0  0  0  0  0  0  0
   11.7168  -16.6240   20.7809 C   0  0  1  0  0  0  0  0  0  0  0  0
   11.9001  -17.6936   21.8057 C   0  0  0  0  0  0  0  0  0  0  0  0
   13.3100  -18.0544   21.9703 C   0  0  0  0  0  0  0  0  0  0  0  0
   14.2358  -17.5137   21.3514 O   0  0  0  0  0  0  0  0  0  0  0  0
   12.3040  -17.0731   19.4955 C   0  0  0  0  0  0  0  0  0  0  0  0
   13.6777  -16.9808   19.2925 O   0  0  0  0  0  0  0  0  0  0  0  0
   13.7128  -19.0698   22.8712 O   0  0  0  0  0  0  0  0  0  0  0  0
   11.6275  -17.5333   18.5779 O   0  0  0  0  0  0  0  0  0  0  0  0
  2  1  1  1
  2 13  1  0
  2  3  1  0
  4  5  2  0
  4  3  1  0
  6  5  1  0
  7 12  2  0
  7  6  1  0
  8  7  1  0
  9 10  1  0
  9  8  2  0
 10 11  2  0
 11 12  1  0
 12  4  1  0
 13 14  2  0
 15 16  1  0
 15 13  1  0
 16 22  1  0
 16 17  1  1
 18 17  1  0
 19 18  1  0
 20 19  1  0
 21 20  1  0
 22 23  2  0
 22 24  1  0
 24 25  1  0
 25 29  1  0
 25 26  1  1
 27 26  1  0
 28 27  2  0
 29 32  2  0
 29 30  1  0
 31 27  1  0
M  END
$$$$
