WKD.pdb
     RDKit          3D

 32 33  0  0  1  0  0  0  0  0999 V2000
    6.6839  -18.6199   25.3586 N   0  0  0  0  0  0  0  0  0  0  0  0
    6.9533  -17.2732   24.9389 C   0  0  1  0  0  0  0  0  0  0  0  0
    7.8690  -16.5180   25.8397 C   0  0  0  0  0  0  0  0  0  0  0  0
    7.4045  -15.2100   26.2921 C   0  0  0  0  0  0  0  0  0  0  0  0
    6.0667  -14.7993   26.3385 C   0  0  0  0  0  0  0  0  0  0  0  0
    6.0405  -13.5533   26.8292 N   0  0  0  0  0  0  0  0  0  0  0  0
    7.3011  -13.1598   27.0940 C   0  0  0  0  0  0  0  0  0  0  0  0
    7.7777  -11.9703   27.6010 C   0  0  0  0  0  0  0  0  0  0  0  0
    9.1240  -11.8013   27.7788 C   0  0  0  0  0  0  0  0  0  0  0  0
   10.0218  -12.7895   27.4642 C   0  0  0  0  0  0  0  0  0  0  0  0
    9.5512  -13.9801   26.9573 C   0  0  0  0  0  0  0  0  0  0  0  0
    8.1933  -14.1841   26.7656 C   0  0  0  0  0  0  0  0  0  0  0  0
    7.5900  -17.3085   23.5824 C   0  0  0  0  0  0  0  0  0  0  0  0
    8.2007  -18.3429   23.1893 O   0  0  0  0  0  0  0  0  0  0  0  0
    7.5078  -16.1891   22.7489 N   0  0  0  0  0  0  0  0  0  0  0  0
    8.1258  -16.0164   21.4818 C   0  0  1  0  0  0  0  0  0  0  0  0
    7.7752  -14.7527   20.7286 C   0  0  0  0  0  0  0  0  0  0  0  0
    8.3421  -14.8138   19.3586 C   0  0  0  0  0  0  0  0  0  0  0  0
    7.9019  -13.5906   18.5585 C   0  0  0  0  0  0  0  0  0  0  0  0
    8.3791  -13.6716   17.1313 C   0  0  0  0  0  0  0  0  0  0  0  0
    7.8582  -12.4957   16.4525 N   0  0  0  0  0  0  0  0  0  0  0  0
    9.5241  -16.3946   21.4797 C   0  0  0  0  0  0  0  0  0  0  0  0
    9.9133  -17.2410   20.6176 O   0  0  0  0  0  0  0  0  0  0  0  0
   10.5103  -15.9041   22.3579 N   0  0  0  0  0  0  0  0  0  0  0  0
   11.9122  -16.3556   22.3525 C   0  0  1  0  0  0  0  0  0  0  0  0
   12.8171  -15.2184   22.0123 C   0  0  0  0  0  0  0  0  0  0  0  0
   13.0300  -15.1051   20.5677 C   0  0  0  0  0  0  0  0  0  0  0  0
   12.5099  -15.8580   19.7340 O   0  0  0  0  0  0  0  0  0  0  0  0
   12.1878  -16.8013   23.7396 C   0  0  0  0  0  0  0  0  0  0  0  0
   13.4440  -17.3017   24.0690 O   0  0  0  0  0  0  0  0  0  0  0  0
   13.8651  -14.1012   20.0201 O   0  0  0  0  0  0  0  0  0  0  0  0
   11.3474  -16.7516   24.6356 O   0  0  0  0  0  0  0  0  0  0  0  0
  2  1  1  1
  2 13  1  0
  2  3  1  0
  4  5  2  0
  4  3  1  0
  6  5  1  0
  7 12  2  0
  7  6  1  0
  8  7  1  0
  9 10  1  0
  9  8  2  0
 10 11  2  0
 11 12  1  0
 12  4  1  0
 13 14  2  0
 15 16  1  0
 15 13  1  0
 16 22  1  0
 16 17  1  1
 18 17  1  0
 19 18  1  0
 20 19  1  0
 21 20  1  0
 22 23  2  0
 22 24  1  0
 24 25  1  0
 25 29  1  0
 25 26  1  1
 27 26  1  0
 28 27  2  0
 29 32  2  0
 29 30  1  0
 31 27  1  0
M  END
$$$$
