WKD.pdb
     RDKit          3D

 32 33  0  0  1  0  0  0  0  0999 V2000
    7.3609  -17.2604   25.8200 N   0  0  0  0  0  0  0  0  0  0  0  0
    7.5644  -16.2403   24.8299 C   0  0  1  0  0  0  0  0  0  0  0  0
    8.5969  -15.2282   25.1904 C   0  0  0  0  0  0  0  0  0  0  0  0
    8.2982  -14.3727   26.3350 C   0  0  0  0  0  0  0  0  0  0  0  0
    8.8463  -14.5157   27.6155 C   0  0  0  0  0  0  0  0  0  0  0  0
    8.3516  -13.5348   28.3816 N   0  0  0  0  0  0  0  0  0  0  0  0
    7.5162  -12.7800   27.6422 C   0  0  0  0  0  0  0  0  0  0  0  0
    6.7729  -11.6716   27.9861 C   0  0  0  0  0  0  0  0  0  0  0  0
    5.9805  -11.0699   27.0466 C   0  0  0  0  0  0  0  0  0  0  0  0
    5.9029  -11.5415   25.7608 C   0  0  0  0  0  0  0  0  0  0  0  0
    6.6435  -12.6486   25.4116 C   0  0  0  0  0  0  0  0  0  0  0  0
    7.4569  -13.2813   26.3391 C   0  0  0  0  0  0  0  0  0  0  0  0
    8.0018  -16.8888   23.5514 C   0  0  0  0  0  0  0  0  0  0  0  0
    8.4591  -18.0671   23.5557 O   0  0  0  0  0  0  0  0  0  0  0  0
    7.9041  -16.1840   22.3479 N   0  0  0  0  0  0  0  0  0  0  0  0
    8.2968  -16.6310   21.0582 C   0  0  1  0  0  0  0  0  0  0  0  0
    7.7221  -15.8761   19.8805 C   0  0  0  0  0  0  0  0  0  0  0  0
    8.5022  -14.6343   19.6541 C   0  0  0  0  0  0  0  0  0  0  0  0
    7.8985  -13.8446   18.4955 C   0  0  0  0  0  0  0  0  0  0  0  0
    8.5978  -12.5222   18.3136 C   0  0  0  0  0  0  0  0  0  0  0  0
    7.8866  -11.8188   17.2580 N   0  0  0  0  0  0  0  0  0  0  0  0
    9.7049  -16.9615   20.9801 C   0  0  0  0  0  0  0  0  0  0  0  0
   10.0541  -17.9138   20.2169 O   0  0  0  0  0  0  0  0  0  0  0  0
   10.7417  -16.3158   21.6819 N   0  0  0  0  0  0  0  0  0  0  0  0
   12.1688  -16.6431   21.5225 C   0  0  1  0  0  0  0  0  0  0  0  0
   12.9758  -15.3910   21.4285 C   0  0  0  0  0  0  0  0  0  0  0  0
   13.1720  -14.9725   20.0388 C   0  0  0  0  0  0  0  0  0  0  0  0
   12.7466  -15.6042   19.0629 O   0  0  0  0  0  0  0  0  0  0  0  0
   12.5450  -17.3755   22.7556 C   0  0  0  0  0  0  0  0  0  0  0  0
   12.1002  -16.9210   23.9935 O   0  0  0  0  0  0  0  0  0  0  0  0
   13.8779  -13.7882   19.7161 O   0  0  0  0  0  0  0  0  0  0  0  0
   13.2449  -18.3863   22.7438 O   0  0  0  0  0  0  0  0  0  0  0  0
  2  1  1  1
  2 13  1  0
  2  3  1  0
  4  5  2  0
  4  3  1  0
  6  5  1  0
  7 12  2  0
  7  6  1  0
  8  7  1  0
  9 10  1  0
  9  8  2  0
 10 11  2  0
 11 12  1  0
 12  4  1  0
 13 14  2  0
 15 16  1  0
 15 13  1  0
 16 22  1  0
 16 17  1  6
 18 17  1  0
 19 18  1  0
 20 19  1  0
 21 20  1  0
 22 23  2  0
 22 24  1  0
 24 25  1  0
 25 29  1  0
 25 26  1  1
 27 26  1  0
 28 27  2  0
 29 32  2  0
 29 30  1  0
 31 27  1  0
M  END
$$$$
