WKD.pdb
     RDKit          3D

 32 33  0  0  1  0  0  0  0  0999 V2000
    6.2861  -17.8674   24.1716 N   0  0  0  0  0  0  0  0  0  0  0  0
    6.8292  -16.5579   23.9422 C   0  0  1  0  0  0  0  0  0  0  0  0
    7.5213  -15.9623   25.1198 C   0  0  0  0  0  0  0  0  0  0  0  0
    6.8136  -14.8939   25.8191 C   0  0  0  0  0  0  0  0  0  0  0  0
    5.6226  -15.0497   26.5386 C   0  0  0  0  0  0  0  0  0  0  0  0
    5.2990  -13.8562   27.0531 N   0  0  0  0  0  0  0  0  0  0  0  0
    6.2321  -12.9549   26.6904 C   0  0  0  0  0  0  0  0  0  0  0  0
    6.3302  -11.6090   26.9698 C   0  0  0  0  0  0  0  0  0  0  0  0
    7.3850  -10.8904   26.4761 C   0  0  0  0  0  0  0  0  0  0  0  0
    8.3564  -11.4750   25.7039 C   0  0  0  0  0  0  0  0  0  0  0  0
    8.2634  -12.8194   25.4216 C   0  0  0  0  0  0  0  0  0  0  0  0
    7.2081  -13.5765   25.9068 C   0  0  0  0  0  0  0  0  0  0  0  0
    7.8302  -16.6385   22.8295 C   0  0  0  0  0  0  0  0  0  0  0  0
    8.2567  -17.7603   22.4329 O   0  0  0  0  0  0  0  0  0  0  0  0
    8.2948  -15.4647   22.2289 N   0  0  0  0  0  0  0  0  0  0  0  0
    9.1343  -15.3596   21.0880 C   0  0  1  0  0  0  0  0  0  0  0  0
    8.8521  -14.2086   20.1485 C   0  0  0  0  0  0  0  0  0  0  0  0
    8.2371  -14.7222   18.8995 C   0  0  0  0  0  0  0  0  0  0  0  0
    8.5657  -13.7898   17.7363 C   0  0  0  0  0  0  0  0  0  0  0  0
    7.8162  -14.1867   16.4905 C   0  0  0  0  0  0  0  0  0  0  0  0
    8.1866  -13.2289   15.4609 N   0  0  0  0  0  0  0  0  0  0  0  0
   10.5286  -15.6125   21.3882 C   0  0  0  0  0  0  0  0  0  0  0  0
   11.3606  -15.5879   20.4299 O   0  0  0  0  0  0  0  0  0  0  0  0
   11.0586  -15.8877   22.6640 N   0  0  0  0  0  0  0  0  0  0  0  0
   12.0872  -16.9096   22.9227 C   0  0  1  0  0  0  0  0  0  0  0  0
   11.6566  -18.2251   22.3643 C   0  0  0  0  0  0  0  0  0  0  0  0
   12.6984  -19.2446   22.5066 C   0  0  0  0  0  0  0  0  0  0  0  0
   13.8291  -19.0155   22.9557 O   0  0  0  0  0  0  0  0  0  0  0  0
   13.2955  -16.4440   22.2001 C   0  0  0  0  0  0  0  0  0  0  0  0
   13.2353  -15.2917   21.4220 O   0  0  0  0  0  0  0  0  0  0  0  0
   12.4717  -20.5907   22.1305 O   0  0  0  0  0  0  0  0  0  0  0  0
   14.3727  -17.0342   22.2523 O   0  0  0  0  0  0  0  0  0  0  0  0
  2  1  1  1
  2 13  1  0
  2  3  1  0
  4  5  2  0
  4  3  1  0
  6  5  1  0
  7 12  2  0
  7  6  1  0
  8  7  1  0
  9 10  1  0
  9  8  2  0
 10 11  2  0
 11 12  1  0
 12  4  1  0
 13 14  2  0
 15 16  1  0
 15 13  1  0
 16 22  1  0
 16 17  1  1
 18 17  1  0
 19 18  1  0
 20 19  1  0
 21 20  1  0
 22 23  2  0
 22 24  1  0
 24 25  1  0
 25 29  1  0
 25 26  1  6
 27 26  1  0
 28 27  2  0
 29 32  2  0
 29 30  1  0
 31 27  1  0
M  END
$$$$
