WKD.pdb
     RDKit          3D

 32 33  0  0  1  0  0  0  0  0999 V2000
    7.3495  -18.5212   25.0843 N   0  0  0  0  0  0  0  0  0  0  0  0
    7.2937  -17.1748   24.5878 C   0  0  1  0  0  0  0  0  0  0  0  0
    7.9906  -16.1729   25.4427 C   0  0  0  0  0  0  0  0  0  0  0  0
    7.1536  -15.1459   26.0560 C   0  0  0  0  0  0  0  0  0  0  0  0
    5.8898  -15.3630   26.6182 C   0  0  0  0  0  0  0  0  0  0  0  0
    5.4511  -14.1919   27.0976 N   0  0  0  0  0  0  0  0  0  0  0  0
    6.3811  -13.2461   26.8629 C   0  0  0  0  0  0  0  0  0  0  0  0
    6.3832  -11.9012   27.1635 C   0  0  0  0  0  0  0  0  0  0  0  0
    7.4584  -11.1309   26.8128 C   0  0  0  0  0  0  0  0  0  0  0  0
    8.5443  -11.6621   26.1644 C   0  0  0  0  0  0  0  0  0  0  0  0
    8.5477  -13.0053   25.8616 C   0  0  0  0  0  0  0  0  0  0  0  0
    7.4747  -13.8140   26.2036 C   0  0  0  0  0  0  0  0  0  0  0  0
    7.9372  -17.1321   23.2348 C   0  0  0  0  0  0  0  0  0  0  0  0
    8.4024  -18.1858   22.7142 O   0  0  0  0  0  0  0  0  0  0  0  0
    8.0238  -15.9183   22.5465 N   0  0  0  0  0  0  0  0  0  0  0  0
    8.5294  -15.7102   21.2356 C   0  0  1  0  0  0  0  0  0  0  0  0
    8.1289  -14.4194   20.5570 C   0  0  0  0  0  0  0  0  0  0  0  0
    8.6022  -14.4264   19.1505 C   0  0  0  0  0  0  0  0  0  0  0  0
    7.8898  -13.3346   18.3564 C   0  0  0  0  0  0  0  0  0  0  0  0
    8.1085  -13.5064   16.8753 C   0  0  0  0  0  0  0  0  0  0  0  0
    7.3260  -12.4718   16.2179 N   0  0  0  0  0  0  0  0  0  0  0  0
    9.9173  -16.1011   21.0974 C   0  0  0  0  0  0  0  0  0  0  0  0
   10.4481  -16.0257   19.9469 O   0  0  0  0  0  0  0  0  0  0  0  0
   10.7487  -16.5647   22.1359 N   0  0  0  0  0  0  0  0  0  0  0  0
   12.1297  -17.0351   21.9338 C   0  0  1  0  0  0  0  0  0  0  0  0
   12.8617  -17.0539   23.2344 C   0  0  0  0  0  0  0  0  0  0  0  0
   13.2916  -15.7129   23.6370 C   0  0  0  0  0  0  0  0  0  0  0  0
   13.6827  -14.8479   22.8425 O   0  0  0  0  0  0  0  0  0  0  0  0
   12.0029  -18.4218   21.4243 C   0  0  0  0  0  0  0  0  0  0  0  0
   10.7520  -19.0301   21.3773 O   0  0  0  0  0  0  0  0  0  0  0  0
   13.2859  -15.3114   24.9948 O   0  0  0  0  0  0  0  0  0  0  0  0
   12.9651  -19.0788   21.0319 O   0  0  0  0  0  0  0  0  0  0  0  0
  2  1  1  1
  2 13  1  0
  2  3  1  0
  4  5  2  0
  4  3  1  0
  6  5  1  0
  7 12  2  0
  7  6  1  0
  8  7  1  0
  9 10  1  0
  9  8  2  0
 10 11  2  0
 11 12  1  0
 12  4  1  0
 13 14  2  0
 15 16  1  0
 15 13  1  0
 16 22  1  0
 16 17  1  1
 18 17  1  0
 19 18  1  0
 20 19  1  0
 21 20  1  0
 22 23  2  0
 22 24  1  0
 24 25  1  0
 25 29  1  0
 25 26  1  1
 27 26  1  0
 28 27  2  0
 29 32  2  0
 29 30  1  0
 31 27  1  0
M  END
$$$$
