WKD.pdb
     RDKit          3D

 32 33  0  0  1  0  0  0  0  0999 V2000
    6.3419  -17.5823   24.2029 N   0  0  0  0  0  0  0  0  0  0  0  0
    6.8519  -16.2635   23.9517 C   0  0  1  0  0  0  0  0  0  0  0  0
    7.9335  -15.8331   24.8819 C   0  0  0  0  0  0  0  0  0  0  0  0
    7.5137  -15.1068   26.0767 C   0  0  0  0  0  0  0  0  0  0  0  0
    7.3092  -15.6772   27.3390 C   0  0  0  0  0  0  0  0  0  0  0  0
    6.9558  -14.6942   28.1772 N   0  0  0  0  0  0  0  0  0  0  0  0
    6.9279  -13.5299   27.5006 C   0  0  0  0  0  0  0  0  0  0  0  0
    6.6198  -12.2561   27.9269 C   0  0  0  0  0  0  0  0  0  0  0  0
    6.6566  -11.2171   27.0372 C   0  0  0  0  0  0  0  0  0  0  0  0
    6.9938  -11.4073   25.7212 C   0  0  0  0  0  0  0  0  0  0  0  0
    7.3026  -12.6779   25.2898 C   0  0  0  0  0  0  0  0  0  0  0  0
    7.2757  -13.7523   26.1655 C   0  0  0  0  0  0  0  0  0  0  0  0
    7.4137  -16.2196   22.5628 C   0  0  0  0  0  0  0  0  0  0  0  0
    7.7107  -17.2895   21.9589 O   0  0  0  0  0  0  0  0  0  0  0  0
    7.6110  -14.9868   21.9336 N   0  0  0  0  0  0  0  0  0  0  0  0
    8.0711  -14.7645   20.6084 C   0  0  1  0  0  0  0  0  0  0  0  0
    8.0493  -13.3335   20.1197 C   0  0  0  0  0  0  0  0  0  0  0  0
    8.5535  -13.2739   18.7253 C   0  0  0  0  0  0  0  0  0  0  0  0
    7.4074  -13.5174   17.7468 C   0  0  0  0  0  0  0  0  0  0  0  0
    7.8933  -13.4937   16.3205 C   0  0  0  0  0  0  0  0  0  0  0  0
    6.7319  -13.7460   15.4825 N   0  0  0  0  0  0  0  0  0  0  0  0
    9.2568  -15.5318   20.2866 C   0  0  0  0  0  0  0  0  0  0  0  0
    9.3772  -15.9787   19.1047 O   0  0  0  0  0  0  0  0  0  0  0  0
   10.3072  -15.8344   21.1752 N   0  0  0  0  0  0  0  0  0  0  0  0
   11.6687  -16.1948   20.7444 C   0  0  1  0  0  0  0  0  0  0  0  0
   12.3482  -15.0096   20.1434 C   0  0  0  0  0  0  0  0  0  0  0  0
   13.7097  -15.3260   19.7060 C   0  0  0  0  0  0  0  0  0  0  0  0
   14.2434  -16.4319   19.8620 O   0  0  0  0  0  0  0  0  0  0  0  0
   12.3817  -16.5911   21.9826 C   0  0  0  0  0  0  0  0  0  0  0  0
   11.6900  -16.6566   23.1886 O   0  0  0  0  0  0  0  0  0  0  0  0
   14.5212  -14.3621   19.0599 O   0  0  0  0  0  0  0  0  0  0  0  0
   13.5785  -16.8716   22.0025 O   0  0  0  0  0  0  0  0  0  0  0  0
  2  1  1  1
  2 13  1  0
  2  3  1  0
  4  5  2  0
  4  3  1  0
  6  5  1  0
  7 12  2  0
  7  6  1  0
  8  7  1  0
  9 10  1  0
  9  8  2  0
 10 11  2  0
 11 12  1  0
 12  4  1  0
 13 14  2  0
 15 16  1  0
 15 13  1  0
 16 22  1  0
 16 17  1  1
 18 17  1  0
 19 18  1  0
 20 19  1  0
 21 20  1  0
 22 23  2  0
 22 24  1  0
 24 25  1  0
 25 29  1  0
 25 26  1  1
 27 26  1  0
 28 27  2  0
 29 32  2  0
 29 30  1  0
 31 27  1  0
M  END
$$$$
