QEI.pdb
     RDKit          3D

 27 26  0  0  1  0  0  0  0  0999 V2000
    8.9825  -12.3019   18.3988 N   0  0  0  0  0  0  0  0  0  0  0  0
    8.2338  -13.1406   17.5318 C   0  0  0  0  0  0  0  0  0  0  0  0
    8.6691  -13.3081   16.3654 O   0  0  0  0  0  0  0  0  0  0  0  0
    6.9682  -13.7880   18.0303 C   0  0  0  0  0  0  0  0  0  0  0  0
    7.1308  -14.2335   19.4612 C   0  0  0  0  0  0  0  0  0  0  0  0
    8.3847  -14.9494   19.7665 C   0  0  2  0  0  0  0  0  0  0  0  0
    8.6260  -15.9596   18.7123 N   0  0  0  0  0  0  0  0  0  0  0  0
    8.4974  -15.5765   21.0919 C   0  0  0  0  0  0  0  0  0  0  0  0
    7.4828  -15.5735   21.8762 O   0  0  0  0  0  0  0  0  0  0  0  0
    9.6481  -16.2077   21.6293 N   0  0  0  0  0  0  0  0  0  0  0  0
    9.6210  -16.8537   22.9471 C   0  0  1  0  0  0  0  0  0  0  0  0
   10.7898  -17.7251   23.2207 C   0  0  0  0  0  0  0  0  0  0  0  0
   10.9398  -18.9169   22.3202 C   0  0  0  0  0  0  0  0  0  0  0  0
   12.3169  -19.1099   21.8434 C   0  0  0  0  0  0  0  0  0  0  0  0
   13.2193  -19.5424   22.5923 O   0  0  0  0  0  0  0  0  0  0  0  0
    9.6252  -15.7382   23.9427 C   0  0  0  0  0  0  0  0  0  0  0  0
   10.4903  -14.8429   23.8083 O   0  0  0  0  0  0  0  0  0  0  0  0
   12.7036  -18.8229   20.5258 O   0  0  0  0  0  0  0  0  0  0  0  0
    6.3436  -11.5801   26.5964 C   0  0  0  0  0  0  0  0  0  0  0  0
    7.5004  -12.5240   26.7891 C   0  0  0  0  0  0  0  0  0  0  0  0
    7.5087  -13.6529   25.8118 C   0  0  2  0  0  0  0  0  0  0  0  0
    6.3272  -14.5438   26.0773 C   0  0  0  0  0  0  0  0  0  0  0  0
    8.7624  -14.4965   25.9086 C   0  0  2  0  0  0  0  0  0  0  0  0
    8.7149  -15.6354   25.0210 N   0  0  0  0  0  0  0  0  0  0  0  0
    8.9360  -14.9905   27.2916 C   0  0  0  0  0  0  0  0  0  0  0  0
    8.6721  -16.1855   27.5751 O   0  0  0  0  0  0  0  0  0  0  0  0
    9.3894  -14.1796   28.3276 O   0  0  0  0  0  0  0  0  0  0  0  0
  2  1  1  0
  2  4  1  0
  3  2  2  0
  4  5  1  0
  5  6  1  0
  6  7  1  6
  6  8  1  0
  8  9  2  0
 10  8  1  0
 10 11  1  0
 11 12  1  1
 12 13  1  0
 13 14  1  0
 14 18  1  0
 14 15  2  0
 16 11  1  0
 16 17  2  0
 19 20  1  0
 20 21  1  0
 21 23  1  0
 21 22  1  1
 23 24  1  6
 24 16  1  0
 25 27  1  0
 25 23  1  0
 26 25  2  0
M  END
$$$$
