QEI.pdb
     RDKit          3D

 27 26  0  0  1  0  0  0  0  0999 V2000
    7.3300  -15.1543   16.3161 N   0  0  0  0  0  0  0  0  0  0  0  0
    7.9747  -13.9043   16.5098 C   0  0  0  0  0  0  0  0  0  0  0  0
    8.9515  -13.6325   15.7683 O   0  0  0  0  0  0  0  0  0  0  0  0
    7.4751  -12.9654   17.5766 C   0  0  0  0  0  0  0  0  0  0  0  0
    7.2242  -13.7117   18.8621 C   0  0  0  0  0  0  0  0  0  0  0  0
    8.3570  -13.7506   19.8071 C   0  0  2  0  0  0  0  0  0  0  0  0
    9.5811  -14.1337   19.0689 N   0  0  0  0  0  0  0  0  0  0  0  0
    8.2104  -14.5969   21.0009 C   0  0  0  0  0  0  0  0  0  0  0  0
    7.2080  -14.4152   21.7799 O   0  0  0  0  0  0  0  0  0  0  0  0
    9.0881  -15.6323   21.4116 N   0  0  0  0  0  0  0  0  0  0  0  0
    8.8147  -16.4369   22.6085 C   0  0  1  0  0  0  0  0  0  0  0  0
    9.6050  -17.6893   22.6921 C   0  0  0  0  0  0  0  0  0  0  0  0
    9.4058  -18.5045   23.9370 C   0  0  0  0  0  0  0  0  0  0  0  0
   10.2776  -19.6866   23.9982 C   0  0  0  0  0  0  0  0  0  0  0  0
   11.5099  -19.5880   24.1820 O   0  0  0  0  0  0  0  0  0  0  0  0
    9.1856  -15.5707   23.7695 C   0  0  0  0  0  0  0  0  0  0  0  0
   10.2841  -14.9719   23.7199 O   0  0  0  0  0  0  0  0  0  0  0  0
    9.7851  -20.9923   23.8550 O   0  0  0  0  0  0  0  0  0  0  0  0
    6.1681  -11.7965   25.8071 C   0  0  0  0  0  0  0  0  0  0  0  0
    7.3401  -12.6538   25.4096 C   0  0  0  0  0  0  0  0  0  0  0  0
    7.7643  -13.6044   26.4802 C   0  0  2  0  0  0  0  0  0  0  0  0
    8.3187  -12.8253   27.6403 C   0  0  0  0  0  0  0  0  0  0  0  0
    8.8327  -14.5693   26.0108 C   0  0  2  0  0  0  0  0  0  0  0  0
    8.3732  -15.3892   24.9136 N   0  0  0  0  0  0  0  0  0  0  0  0
    9.2356  -15.4595   27.1209 C   0  0  0  0  0  0  0  0  0  0  0  0
   10.0412  -15.0556   27.9960 O   0  0  0  0  0  0  0  0  0  0  0  0
    8.7567  -16.7593   27.2530 O   0  0  0  0  0  0  0  0  0  0  0  0
  2  1  1  0
  2  4  1  0
  3  2  2  0
  4  5  1  0
  5  6  1  0
  6  7  1  6
  6  8  1  0
  8  9  2  0
 10  8  1  0
 10 11  1  0
 11 12  1  6
 12 13  1  0
 13 14  1  0
 14 18  1  0
 14 15  2  0
 16 11  1  0
 16 17  2  0
 19 20  1  0
 20 21  1  0
 21 23  1  0
 21 22  1  1
 23 24  1  6
 24 16  1  0
 25 27  1  0
 25 23  1  0
 26 25  2  0
M  END
$$$$
