QEI.pdb
     RDKit          3D

 27 26  0  0  1  0  0  0  0  0999 V2000
    9.1692  -13.9215   16.4159 N   0  0  0  0  0  0  0  0  0  0  0  0
    7.9243  -14.5973   16.5113 C   0  0  0  0  0  0  0  0  0  0  0  0
    7.6420  -15.4266   15.6109 O   0  0  0  0  0  0  0  0  0  0  0  0
    7.0028  -14.3028   17.6660 C   0  0  0  0  0  0  0  0  0  0  0  0
    7.5473  -13.1723   18.5015 C   0  0  0  0  0  0  0  0  0  0  0  0
    8.7241  -13.5016   19.3289 C   0  0  2  0  0  0  0  0  0  0  0  0
    9.7644  -14.0990   18.4623 N   0  0  0  0  0  0  0  0  0  0  0  0
    8.5035  -14.3576   20.5042 C   0  0  0  0  0  0  0  0  0  0  0  0
    7.4452  -14.1947   21.2098 O   0  0  0  0  0  0  0  0  0  0  0  0
    9.3637  -15.3838   20.9714 N   0  0  0  0  0  0  0  0  0  0  0  0
    9.0076  -16.2120   22.1298 C   0  0  1  0  0  0  0  0  0  0  0  0
    9.8173  -17.4473   22.2654 C   0  0  0  0  0  0  0  0  0  0  0  0
    9.6556  -18.4571   21.1663 C   0  0  0  0  0  0  0  0  0  0  0  0
   10.8767  -19.2361   20.9144 C   0  0  0  0  0  0  0  0  0  0  0  0
   11.2424  -19.5325   19.7565 O   0  0  0  0  0  0  0  0  0  0  0  0
    9.2562  -15.3550   23.3295 C   0  0  0  0  0  0  0  0  0  0  0  0
   10.2425  -14.5841   23.2983 O   0  0  0  0  0  0  0  0  0  0  0  0
   11.7040  -19.6936   21.9508 O   0  0  0  0  0  0  0  0  0  0  0  0
    6.8864  -11.1958   26.6582 C   0  0  0  0  0  0  0  0  0  0  0  0
    7.8512  -12.3509   26.6942 C   0  0  0  0  0  0  0  0  0  0  0  0
    7.6026  -13.3596   25.6216 C   0  0  2  0  0  0  0  0  0  0  0  0
    6.2962  -14.0534   25.8902 C   0  0  0  0  0  0  0  0  0  0  0  0
    8.6872  -14.4139   25.5525 C   0  0  2  0  0  0  0  0  0  0  0  0
    8.4478  -15.3638   24.4906 N   0  0  0  0  0  0  0  0  0  0  0  0
    8.7588  -15.1529   26.8314 C   0  0  0  0  0  0  0  0  0  0  0  0
    8.3119  -16.3241   26.9119 O   0  0  0  0  0  0  0  0  0  0  0  0
    9.3108  -14.6054   27.9854 O   0  0  0  0  0  0  0  0  0  0  0  0
  2  1  1  0
  2  4  1  0
  3  2  2  0
  4  5  1  0
  5  6  1  0
  6  7  1  6
  6  8  1  0
  8  9  2  0
 10  8  1  0
 10 11  1  0
 11 12  1  1
 12 13  1  0
 13 14  1  0
 14 18  1  0
 14 15  2  0
 16 11  1  0
 16 17  2  0
 19 20  1  0
 20 21  1  0
 21 23  1  0
 21 22  1  1
 23 24  1  6
 24 16  1  0
 25 27  1  0
 25 23  1  0
 26 25  2  0
M  END
$$$$
