QEI.pdb
     RDKit          3D

 27 26  0  0  1  0  0  0  0  0999 V2000
   10.7855  -12.8994   18.7375 N   0  0  0  0  0  0  0  0  0  0  0  0
    9.6444  -13.0478   17.9059 C   0  0  0  0  0  0  0  0  0  0  0  0
    9.8165  -13.5458   16.7656 O   0  0  0  0  0  0  0  0  0  0  0  0
    8.2933  -12.6118   18.4094 C   0  0  0  0  0  0  0  0  0  0  0  0
    7.9640  -13.3049   19.7069 C   0  0  0  0  0  0  0  0  0  0  0  0
    8.2078  -14.7602   19.7310 C   0  0  2  0  0  0  0  0  0  0  0  0
    7.2695  -15.4166   18.7935 N   0  0  0  0  0  0  0  0  0  0  0  0
    8.1555  -15.4309   21.0387 C   0  0  0  0  0  0  0  0  0  0  0  0
    7.0210  -15.6026   21.6113 O   0  0  0  0  0  0  0  0  0  0  0  0
    9.2614  -15.9278   21.7745 N   0  0  0  0  0  0  0  0  0  0  0  0
    9.0750  -16.6751   23.0242 C   0  0  1  0  0  0  0  0  0  0  0  0
   10.0059  -17.8174   23.1935 C   0  0  0  0  0  0  0  0  0  0  0  0
    9.8720  -18.5832   24.4779 C   0  0  0  0  0  0  0  0  0  0  0  0
   10.7989  -19.7204   24.5708 C   0  0  0  0  0  0  0  0  0  0  0  0
   11.9926  -19.6289   24.2118 O   0  0  0  0  0  0  0  0  0  0  0  0
    9.3328  -15.6940   24.1226 C   0  0  0  0  0  0  0  0  0  0  0  0
   10.3060  -14.9172   23.9909 O   0  0  0  0  0  0  0  0  0  0  0  0
   10.4053  -20.9729   25.0651 O   0  0  0  0  0  0  0  0  0  0  0  0
    5.8354  -12.2867   25.8616 C   0  0  0  0  0  0  0  0  0  0  0  0
    7.1376  -12.9747   25.5502 C   0  0  0  0  0  0  0  0  0  0  0  0
    7.6658  -13.7802   26.6912 C   0  0  2  0  0  0  0  0  0  0  0  0
    8.0771  -12.8530   27.8008 C   0  0  0  0  0  0  0  0  0  0  0  0
    8.8702  -14.6132   26.3064 C   0  0  2  0  0  0  0  0  0  0  0  0
    8.5467  -15.5924   25.2946 N   0  0  0  0  0  0  0  0  0  0  0  0
    9.3952  -15.3244   27.4920 C   0  0  0  0  0  0  0  0  0  0  0  0
    9.0399  -16.5053   27.7309 O   0  0  0  0  0  0  0  0  0  0  0  0
   10.2882  -14.7393   28.3844 O   0  0  0  0  0  0  0  0  0  0  0  0
  2  1  1  0
  2  4  1  0
  3  2  2  0
  4  5  1  0
  5  6  1  0
  6  7  1  6
  6  8  1  0
  8  9  2  0
 10  8  1  0
 10 11  1  0
 11 12  1  6
 12 13  1  0
 13 14  1  0
 14 18  1  0
 14 15  2  0
 16 11  1  0
 16 17  2  0
 19 20  1  0
 20 21  1  0
 21 23  1  0
 21 22  1  1
 23 24  1  6
 24 16  1  0
 25 27  1  0
 25 23  1  0
 26 25  2  0
M  END
$$$$
