QEI.pdb
     RDKit          3D

 27 26  0  0  1  0  0  0  0  0999 V2000
    9.8639  -14.3869   17.9103 N   0  0  0  0  0  0  0  0  0  0  0  0
    8.5100  -14.0381   17.6633 C   0  0  0  0  0  0  0  0  0  0  0  0
    8.2764  -12.8805   17.2350 O   0  0  0  0  0  0  0  0  0  0  0  0
    7.4218  -15.0479   17.9182 C   0  0  0  0  0  0  0  0  0  0  0  0
    6.9664  -14.9830   19.3538 C   0  0  0  0  0  0  0  0  0  0  0  0
    7.8976  -15.5584   20.3437 C   0  0  2  0  0  0  0  0  0  0  0  0
    8.4053  -16.8489   19.8271 N   0  0  0  0  0  0  0  0  0  0  0  0
    7.3990  -15.7332   21.7161 C   0  0  0  0  0  0  0  0  0  0  0  0
    6.7405  -14.7827   22.2706 O   0  0  0  0  0  0  0  0  0  0  0  0
    7.5727  -16.8778   22.5353 N   0  0  0  0  0  0  0  0  0  0  0  0
    6.9842  -16.9538   23.8779 C   0  0  1  0  0  0  0  0  0  0  0  0
    6.9251  -18.3258   24.4385 C   0  0  0  0  0  0  0  0  0  0  0  0
    6.1292  -19.3210   23.6447 C   0  0  0  0  0  0  0  0  0  0  0  0
    6.2498  -20.6945   24.1549 C   0  0  0  0  0  0  0  0  0  0  0  0
    6.2874  -21.6813   23.3888 O   0  0  0  0  0  0  0  0  0  0  0  0
    7.8708  -16.1278   24.7538 C   0  0  0  0  0  0  0  0  0  0  0  0
    9.1058  -16.1947   24.5583 O   0  0  0  0  0  0  0  0  0  0  0  0
    6.3297  -20.9833   25.5253 O   0  0  0  0  0  0  0  0  0  0  0  0
    6.2359  -11.1817   26.2342 C   0  0  0  0  0  0  0  0  0  0  0  0
    7.0479  -12.3707   25.7948 C   0  0  0  0  0  0  0  0  0  0  0  0
    7.6457  -13.1291   26.9338 C   0  0  2  0  0  0  0  0  0  0  0  0
    8.6829  -12.2732   27.6060 C   0  0  0  0  0  0  0  0  0  0  0  0
    8.3141  -14.4132   26.4901 C   0  0  2  0  0  0  0  0  0  0  0  0
    7.3993  -15.2803   25.7841 N   0  0  0  0  0  0  0  0  0  0  0  0
    8.8373  -15.1448   27.6640 C   0  0  0  0  0  0  0  0  0  0  0  0
    8.1494  -16.0441   28.2080 O   0  0  0  0  0  0  0  0  0  0  0  0
   10.0879  -14.8838   28.2155 O   0  0  0  0  0  0  0  0  0  0  0  0
  2  1  1  0
  2  4  1  0
  3  2  2  0
  4  5  1  0
  5  6  1  0
  6  7  1  6
  6  8  1  0
  8  9  2  0
 10  8  1  0
 10 11  1  0
 11 12  1  1
 12 13  1  0
 13 14  1  0
 14 18  1  0
 14 15  2  0
 16 11  1  0
 16 17  2  0
 19 20  1  0
 20 21  1  0
 21 23  1  0
 21 22  1  6
 23 24  1  1
 24 16  1  0
 25 27  1  0
 25 23  1  0
 26 25  2  0
M  END
$$$$
