QEI.pdb
     RDKit          3D

 27 26  0  0  1  0  0  0  0  0999 V2000
    7.2333  -12.4735   17.3398 N   0  0  0  0  0  0  0  0  0  0  0  0
    7.5826  -13.6868   16.6904 C   0  0  0  0  0  0  0  0  0  0  0  0
    7.6174  -13.6854   15.4348 O   0  0  0  0  0  0  0  0  0  0  0  0
    7.8932  -14.9099   17.5131 C   0  0  0  0  0  0  0  0  0  0  0  0
    7.6612  -14.6349   18.9770 C   0  0  0  0  0  0  0  0  0  0  0  0
    8.8337  -14.8220   19.8534 C   0  0  2  0  0  0  0  0  0  0  0  0
    9.8797  -15.5506   19.1017 N   0  0  0  0  0  0  0  0  0  0  0  0
    8.6077  -15.4748   21.1517 C   0  0  0  0  0  0  0  0  0  0  0  0
    7.5565  -15.1839   21.8261 O   0  0  0  0  0  0  0  0  0  0  0  0
    9.4551  -16.4265   21.7741 N   0  0  0  0  0  0  0  0  0  0  0  0
    9.1338  -16.9917   23.0901 C   0  0  1  0  0  0  0  0  0  0  0  0
    9.9571  -18.1676   23.4637 C   0  0  0  0  0  0  0  0  0  0  0  0
    9.6794  -18.7549   24.8171 C   0  0  0  0  0  0  0  0  0  0  0  0
   10.5846  -19.8604   25.1631 C   0  0  0  0  0  0  0  0  0  0  0  0
   10.2937  -20.7003   26.0418 O   0  0  0  0  0  0  0  0  0  0  0  0
    9.4036  -15.8992   24.0746 C   0  0  0  0  0  0  0  0  0  0  0  0
   10.4588  -15.2395   23.9355 O   0  0  0  0  0  0  0  0  0  0  0  0
   11.8248  -20.0419   24.5332 O   0  0  0  0  0  0  0  0  0  0  0  0
    5.7291  -12.3568   25.5715 C   0  0  0  0  0  0  0  0  0  0  0  0
    7.0411  -13.0206   25.2484 C   0  0  0  0  0  0  0  0  0  0  0  0
    7.6815  -13.6671   26.4324 C   0  0  2  0  0  0  0  0  0  0  0  0
    8.1334  -12.6014   27.3919 C   0  0  0  0  0  0  0  0  0  0  0  0
    8.8878  -14.5017   26.0575 C   0  0  2  0  0  0  0  0  0  0  0  0
    8.5422  -15.5692   25.1474 N   0  0  0  0  0  0  0  0  0  0  0  0
    9.4883  -15.0990   27.2697 C   0  0  0  0  0  0  0  0  0  0  0  0
   10.3212  -14.4496   27.9497 O   0  0  0  0  0  0  0  0  0  0  0  0
    9.1715  -16.3798   27.7118 O   0  0  0  0  0  0  0  0  0  0  0  0
  2  1  1  0
  2  4  1  0
  3  2  2  0
  4  5  1  0
  5  6  1  0
  6  7  1  6
  6  8  1  0
  8  9  2  0
 10  8  1  0
 10 11  1  0
 11 12  1  1
 12 13  1  0
 13 14  1  0
 14 18  1  0
 14 15  2  0
 16 11  1  0
 16 17  2  0
 19 20  1  0
 20 21  1  0
 21 23  1  0
 21 22  1  1
 23 24  1  6
 24 16  1  0
 25 27  1  0
 25 23  1  0
 26 25  2  0
M  END
$$$$
