QEI.pdb
     RDKit          3D

 27 26  0  0  1  0  0  0  0  0999 V2000
    9.9013  -12.4569   18.9642 N   0  0  0  0  0  0  0  0  0  0  0  0
    8.6008  -12.3368   19.5213 C   0  0  0  0  0  0  0  0  0  0  0  0
    8.1506  -11.1783   19.7031 O   0  0  0  0  0  0  0  0  0  0  0  0
    7.8210  -13.5780   19.8681 C   0  0  0  0  0  0  0  0  0  0  0  0
    8.6338  -14.8127   19.5722 C   0  0  0  0  0  0  0  0  0  0  0  0
    8.0089  -16.0933   19.9560 C   0  0  2  0  0  0  0  0  0  0  0  0
    6.6221  -16.1209   19.4402 N   0  0  0  0  0  0  0  0  0  0  0  0
    8.0161  -16.4458   21.3837 C   0  0  0  0  0  0  0  0  0  0  0  0
    6.9303  -16.3507   22.0593 O   0  0  0  0  0  0  0  0  0  0  0  0
    9.1328  -16.8938   22.1344 N   0  0  0  0  0  0  0  0  0  0  0  0
    8.9957  -17.3085   23.5358 C   0  0  1  0  0  0  0  0  0  0  0  0
    9.8907  -18.4238   23.9297 C   0  0  0  0  0  0  0  0  0  0  0  0
    9.7794  -18.8767   25.3567 C   0  0  0  0  0  0  0  0  0  0  0  0
   10.7653  -19.9072   25.7135 C   0  0  0  0  0  0  0  0  0  0  0  0
   10.8241  -20.3933   26.8635 O   0  0  0  0  0  0  0  0  0  0  0  0
    9.3587  -16.1072   24.3488 C   0  0  0  0  0  0  0  0  0  0  0  0
   10.3755  -15.4608   24.0079 O   0  0  0  0  0  0  0  0  0  0  0  0
   11.6971  -20.4075   24.7919 O   0  0  0  0  0  0  0  0  0  0  0  0
    6.0236  -12.2444   25.6355 C   0  0  0  0  0  0  0  0  0  0  0  0
    7.2706  -13.0318   25.3333 C   0  0  0  0  0  0  0  0  0  0  0  0
    7.9371  -13.5715   26.5557 C   0  0  2  0  0  0  0  0  0  0  0  0
    8.4953  -12.4293   27.3583 C   0  0  0  0  0  0  0  0  0  0  0  0
    9.0757  -14.5145   26.2287 C   0  0  2  0  0  0  0  0  0  0  0  0
    8.6255  -15.6609   25.4735 N   0  0  0  0  0  0  0  0  0  0  0  0
    9.7088  -14.9971   27.4750 C   0  0  0  0  0  0  0  0  0  0  0  0
    9.3569  -16.0914   27.9815 O   0  0  0  0  0  0  0  0  0  0  0  0
   10.7031  -14.2837   28.1374 O   0  0  0  0  0  0  0  0  0  0  0  0
  2  1  1  0
  2  4  1  0
  3  2  2  0
  4  5  1  0
  5  6  1  0
  6  7  1  1
  6  8  1  0
  8  9  2  0
 10  8  1  0
 10 11  1  0
 11 12  1  1
 12 13  1  0
 13 14  1  0
 14 18  1  0
 14 15  2  0
 16 11  1  0
 16 17  2  0
 19 20  1  0
 20 21  1  0
 21 23  1  0
 21 22  1  6
 23 24  1  1
 24 16  1  0
 25 27  1  0
 25 23  1  0
 26 25  2  0
M  END
$$$$
