QEI.pdb
     RDKit          3D

 27 26  0  0  1  0  0  0  0  0999 V2000
    8.5915  -12.3487   18.1527 N   0  0  0  0  0  0  0  0  0  0  0  0
    8.0461  -13.3020   17.2529 C   0  0  0  0  0  0  0  0  0  0  0  0
    8.5152  -13.3374   16.0882 O   0  0  0  0  0  0  0  0  0  0  0  0
    6.9455  -14.2200   17.7166 C   0  0  0  0  0  0  0  0  0  0  0  0
    7.0423  -14.4525   19.2029 C   0  0  0  0  0  0  0  0  0  0  0  0
    8.3827  -14.8121   19.7049 C   0  0  2  0  0  0  0  0  0  0  0  0
    9.0530  -15.6703   18.7028 N   0  0  0  0  0  0  0  0  0  0  0  0
    8.4589  -15.4430   21.0312 C   0  0  0  0  0  0  0  0  0  0  0  0
    7.4740  -15.3189   21.8429 O   0  0  0  0  0  0  0  0  0  0  0  0
    9.5431  -16.2018   21.5412 N   0  0  0  0  0  0  0  0  0  0  0  0
    9.4683  -16.8565   22.8529 C   0  0  1  0  0  0  0  0  0  0  0  0
   10.5872  -17.7898   23.1307 C   0  0  0  0  0  0  0  0  0  0  0  0
   10.6180  -18.3786   24.5114 C   0  0  0  0  0  0  0  0  0  0  0  0
   11.7653  -19.2707   24.7326 C   0  0  0  0  0  0  0  0  0  0  0  0
   11.8726  -20.3659   24.1400 O   0  0  0  0  0  0  0  0  0  0  0  0
    9.5198  -15.7510   23.8584 C   0  0  0  0  0  0  0  0  0  0  0  0
   10.4334  -14.9026   23.7426 O   0  0  0  0  0  0  0  0  0  0  0  0
   12.8062  -18.9517   25.6172 O   0  0  0  0  0  0  0  0  0  0  0  0
    6.6177  -11.4697   26.7884 C   0  0  0  0  0  0  0  0  0  0  0  0
    7.7400  -12.4712   26.8509 C   0  0  0  0  0  0  0  0  0  0  0  0
    7.5743  -13.6023   25.8902 C   0  0  2  0  0  0  0  0  0  0  0  0
    6.3557  -14.3969   26.2693 C   0  0  0  0  0  0  0  0  0  0  0  0
    8.7626  -14.5406   25.8863 C   0  0  2  0  0  0  0  0  0  0  0  0
    8.6026  -15.6082   24.9262 N   0  0  0  0  0  0  0  0  0  0  0  0
    8.9393  -15.1413   27.2260 C   0  0  0  0  0  0  0  0  0  0  0  0
    8.6363  -16.3439   27.4258 O   0  0  0  0  0  0  0  0  0  0  0  0
    9.4378  -14.4257   28.3103 O   0  0  0  0  0  0  0  0  0  0  0  0
  2  1  1  0
  2  4  1  0
  3  2  2  0
  4  5  1  0
  5  6  1  0
  6  7  1  6
  6  8  1  0
  8  9  2  0
 10  8  1  0
 10 11  1  0
 11 12  1  1
 12 13  1  0
 13 14  1  0
 14 18  1  0
 14 15  2  0
 16 11  1  0
 16 17  2  0
 19 20  1  0
 20 21  1  0
 21 23  1  0
 21 22  1  1
 23 24  1  6
 24 16  1  0
 25 27  1  0
 25 23  1  0
 26 25  2  0
M  END
$$$$
