QEI.pdb
     RDKit          3D

 27 26  0  0  1  0  0  0  0  0999 V2000
    7.5036  -15.5295   16.8596 N   0  0  0  0  0  0  0  0  0  0  0  0
    7.5651  -14.1495   16.5316 C   0  0  0  0  0  0  0  0  0  0  0  0
    7.6592  -13.8440   15.3168 O   0  0  0  0  0  0  0  0  0  0  0  0
    7.5163  -13.1195   17.6297 C   0  0  0  0  0  0  0  0  0  0  0  0
    7.2740  -13.7797   18.9631 C   0  0  0  0  0  0  0  0  0  0  0  0
    8.3749  -13.6656   19.9393 C   0  0  2  0  0  0  0  0  0  0  0  0
    9.6637  -13.7573   19.2178 N   0  0  0  0  0  0  0  0  0  0  0  0
    8.3710  -14.6031   21.0724 C   0  0  0  0  0  0  0  0  0  0  0  0
    7.2954  -14.7613   21.7526 O   0  0  0  0  0  0  0  0  0  0  0  0
    9.4662  -15.3832   21.5232 N   0  0  0  0  0  0  0  0  0  0  0  0
    9.3271  -16.3216   22.6433 C   0  0  1  0  0  0  0  0  0  0  0  0
   10.2848  -17.4538   22.6097 C   0  0  0  0  0  0  0  0  0  0  0  0
   10.2091  -18.4068   23.7672 C   0  0  0  0  0  0  0  0  0  0  0  0
   11.2660  -19.4284   23.7435 C   0  0  0  0  0  0  0  0  0  0  0  0
   11.0023  -20.6501   23.7547 O   0  0  0  0  0  0  0  0  0  0  0  0
    9.5935  -15.5193   23.8765 C   0  0  0  0  0  0  0  0  0  0  0  0
   10.6361  -14.8265   23.9048 O   0  0  0  0  0  0  0  0  0  0  0  0
   12.6292  -19.0993   23.7070 O   0  0  0  0  0  0  0  0  0  0  0  0
    6.3441  -11.9692   25.5334 C   0  0  0  0  0  0  0  0  0  0  0  0
    7.5658  -12.8147   25.2906 C   0  0  0  0  0  0  0  0  0  0  0  0
    7.9122  -13.6947   26.4462 C   0  0  2  0  0  0  0  0  0  0  0  0
    8.3300  -12.8392   27.6098 C   0  0  0  0  0  0  0  0  0  0  0  0
    9.0479  -14.6457   26.1327 C   0  0  2  0  0  0  0  0  0  0  0  0
    8.7420  -15.4970   25.0063 N   0  0  0  0  0  0  0  0  0  0  0  0
    9.3284  -15.5047   27.3033 C   0  0  0  0  0  0  0  0  0  0  0  0
    8.8257  -16.6533   27.3810 O   0  0  0  0  0  0  0  0  0  0  0  0
   10.1433  -15.0980   28.3554 O   0  0  0  0  0  0  0  0  0  0  0  0
  2  1  1  0
  2  4  1  0
  3  2  2  0
  4  5  1  0
  5  6  1  0
  6  7  1  6
  6  8  1  0
  8  9  2  0
 10  8  1  0
 10 11  1  0
 11 12  1  6
 12 13  1  0
 13 14  1  0
 14 18  1  0
 14 15  2  0
 16 11  1  0
 16 17  2  0
 19 20  1  0
 20 21  1  0
 21 23  1  0
 21 22  1  1
 23 24  1  6
 24 16  1  0
 25 27  1  0
 25 23  1  0
 26 25  2  0
M  END
$$$$
