QEI.pdb
     RDKit          3D

 27 26  0  0  1  0  0  0  0  0999 V2000
   10.1744  -13.2584   18.8133 N   0  0  0  0  0  0  0  0  0  0  0  0
    8.9077  -13.3508   18.1788 C   0  0  0  0  0  0  0  0  0  0  0  0
    8.5845  -12.4296   17.3883 O   0  0  0  0  0  0  0  0  0  0  0  0
    8.0124  -14.5268   18.4695 C   0  0  0  0  0  0  0  0  0  0  0  0
    8.6333  -15.4179   19.5150 C   0  0  0  0  0  0  0  0  0  0  0  0
    7.8568  -16.6223   19.8675 C   0  0  2  0  0  0  0  0  0  0  0  0
    6.7378  -16.7657   18.9098 N   0  0  0  0  0  0  0  0  0  0  0  0
    7.3489  -16.7180   21.2443 C   0  0  0  0  0  0  0  0  0  0  0  0
    6.1385  -16.3747   21.4922 O   0  0  0  0  0  0  0  0  0  0  0  0
    8.0739  -17.1604   22.3801 N   0  0  0  0  0  0  0  0  0  0  0  0
    7.4625  -17.1894   23.7142 C   0  0  1  0  0  0  0  0  0  0  0  0
    7.8441  -18.3666   24.5320 C   0  0  0  0  0  0  0  0  0  0  0  0
    7.3176  -18.3826   25.9378 C   0  0  0  0  0  0  0  0  0  0  0  0
    7.7529  -19.5597   26.7034 C   0  0  0  0  0  0  0  0  0  0  0  0
    7.4097  -20.7182   26.3833 O   0  0  0  0  0  0  0  0  0  0  0  0
    7.9514  -15.9586   24.4083 C   0  0  0  0  0  0  0  0  0  0  0  0
    9.1285  -15.5947   24.1850 O   0  0  0  0  0  0  0  0  0  0  0  0
    8.5760  -19.4585   27.8349 O   0  0  0  0  0  0  0  0  0  0  0  0
    6.3541  -10.3701   26.1146 C   0  0  0  0  0  0  0  0  0  0  0  0
    7.2860  -11.5401   26.2848 C   0  0  0  0  0  0  0  0  0  0  0  0
    6.7169  -12.8248   25.7793 C   0  0  2  0  0  0  0  0  0  0  0  0
    5.5058  -13.1826   26.5951 C   0  0  0  0  0  0  0  0  0  0  0  0
    7.6999  -13.9726   25.8724 C   0  0  2  0  0  0  0  0  0  0  0  0
    7.1670  -15.1859   25.2969 N   0  0  0  0  0  0  0  0  0  0  0  0
    8.0382  -14.2376   27.2874 C   0  0  0  0  0  0  0  0  0  0  0  0
    8.6601  -13.3791   27.9613 O   0  0  0  0  0  0  0  0  0  0  0  0
    7.6950  -15.4216   27.9328 O   0  0  0  0  0  0  0  0  0  0  0  0
  2  1  1  0
  2  4  1  0
  3  2  2  0
  4  5  1  0
  5  6  1  0
  6  7  1  6
  6  8  1  0
  8  9  2  0
 10  8  1  0
 10 11  1  0
 11 12  1  1
 12 13  1  0
 13 14  1  0
 14 18  1  0
 14 15  2  0
 16 11  1  0
 16 17  2  0
 19 20  1  0
 20 21  1  0
 21 23  1  0
 21 22  1  1
 23 24  1  1
 24 16  1  0
 25 27  1  0
 25 23  1  0
 26 25  2  0
M  END
$$$$
