QEI.pdb
     RDKit          3D

 27 26  0  0  1  0  0  0  0  0999 V2000
    8.7272  -12.2236   18.4259 N   0  0  0  0  0  0  0  0  0  0  0  0
    7.6812  -13.1434   18.7006 C   0  0  0  0  0  0  0  0  0  0  0  0
    6.5017  -12.7592   18.5026 O   0  0  0  0  0  0  0  0  0  0  0  0
    8.0149  -14.5212   19.2101 C   0  0  0  0  0  0  0  0  0  0  0  0
    9.5087  -14.7099   19.2837 C   0  0  0  0  0  0  0  0  0  0  0  0
    9.9607  -16.0338   19.7537 C   0  0  2  0  0  0  0  0  0  0  0  0
    9.5817  -17.0517   18.7485 N   0  0  0  0  0  0  0  0  0  0  0  0
    9.5169  -16.4630   21.0884 C   0  0  0  0  0  0  0  0  0  0  0  0
    8.5412  -17.2890   21.1901 O   0  0  0  0  0  0  0  0  0  0  0  0
   10.0625  -16.0490   22.3303 N   0  0  0  0  0  0  0  0  0  0  0  0
    9.8218  -16.8091   23.5628 C   0  0  1  0  0  0  0  0  0  0  0  0
   10.7534  -17.9450   23.7678 C   0  0  0  0  0  0  0  0  0  0  0  0
   10.5948  -18.6938   25.0593 C   0  0  0  0  0  0  0  0  0  0  0  0
   11.5237  -19.8260   25.1875 C   0  0  0  0  0  0  0  0  0  0  0  0
   12.4439  -19.8312   26.0332 O   0  0  0  0  0  0  0  0  0  0  0  0
   10.0169  -15.8357   24.6809 C   0  0  0  0  0  0  0  0  0  0  0  0
   11.0674  -15.1543   24.6811 O   0  0  0  0  0  0  0  0  0  0  0  0
   11.4369  -20.9656   24.3739 O   0  0  0  0  0  0  0  0  0  0  0  0
    6.2370  -12.4534   25.9895 C   0  0  0  0  0  0  0  0  0  0  0  0
    7.5532  -13.1503   25.7702 C   0  0  0  0  0  0  0  0  0  0  0  0
    8.0887  -13.7994   27.0038 C   0  0  2  0  0  0  0  0  0  0  0  0
    8.4487  -12.7362   28.0039 C   0  0  0  0  0  0  0  0  0  0  0  0
    9.3274  -14.6273   26.7341 C   0  0  2  0  0  0  0  0  0  0  0  0
    9.0901  -15.6407   25.7321 N   0  0  0  0  0  0  0  0  0  0  0  0
    9.7717  -15.2954   27.9763 C   0  0  0  0  0  0  0  0  0  0  0  0
    9.3898  -16.4629   28.2390 O   0  0  0  0  0  0  0  0  0  0  0  0
   10.6151  -14.6829   28.8982 O   0  0  0  0  0  0  0  0  0  0  0  0
  2  1  1  0
  2  4  1  0
  3  2  2  0
  4  5  1  0
  5  6  1  0
  6  7  1  6
  6  8  1  0
  8  9  2  0
 10  8  1  0
 10 11  1  0
 11 12  1  1
 12 13  1  0
 13 14  1  0
 14 18  1  0
 14 15  2  0
 16 11  1  0
 16 17  2  0
 19 20  1  0
 20 21  1  0
 21 23  1  0
 21 22  1  1
 23 24  1  6
 24 16  1  0
 25 27  1  0
 25 23  1  0
 26 25  2  0
M  END
$$$$
