QEI.pdb
     RDKit          3D

 27 26  0  0  1  0  0  0  0  0999 V2000
    8.7818  -13.5291   15.9062 N   0  0  0  0  0  0  0  0  0  0  0  0
    7.7351  -14.0950   16.6807 C   0  0  0  0  0  0  0  0  0  0  0  0
    7.5172  -15.3255   16.5534 O   0  0  0  0  0  0  0  0  0  0  0  0
    6.9376  -13.2178   17.6100 C   0  0  0  0  0  0  0  0  0  0  0  0
    6.8526  -13.8398   18.9806 C   0  0  0  0  0  0  0  0  0  0  0  0
    8.0622  -13.7075   19.8158 C   0  0  2  0  0  0  0  0  0  0  0  0
    9.2541  -13.9324   18.9680 N   0  0  0  0  0  0  0  0  0  0  0  0
    8.1437  -14.5453   21.0216 C   0  0  0  0  0  0  0  0  0  0  0  0
    7.1665  -14.5473   21.8520 O   0  0  0  0  0  0  0  0  0  0  0  0
    9.2255  -15.3843   21.3920 N   0  0  0  0  0  0  0  0  0  0  0  0
    9.1305  -16.2922   22.5416 C   0  0  1  0  0  0  0  0  0  0  0  0
   10.1193  -17.3977   22.5259 C   0  0  0  0  0  0  0  0  0  0  0  0
   10.0875  -18.3181   23.7115 C   0  0  0  0  0  0  0  0  0  0  0  0
   11.0499  -19.4247   23.6088 C   0  0  0  0  0  0  0  0  0  0  0  0
   11.1293  -20.3127   24.4847 O   0  0  0  0  0  0  0  0  0  0  0  0
    9.3930  -15.4460   23.7460 C   0  0  0  0  0  0  0  0  0  0  0  0
   10.3809  -14.6773   23.7116 O   0  0  0  0  0  0  0  0  0  0  0  0
   11.9349  -19.5536   22.5280 O   0  0  0  0  0  0  0  0  0  0  0  0
    5.8515  -12.2481   25.6367 C   0  0  0  0  0  0  0  0  0  0  0  0
    7.1565  -12.9217   25.3052 C   0  0  0  0  0  0  0  0  0  0  0  0
    7.6894  -13.7559   26.4232 C   0  0  2  0  0  0  0  0  0  0  0  0
    8.0999  -12.8575   27.5567 C   0  0  0  0  0  0  0  0  0  0  0  0
    8.8957  -14.5744   26.0140 C   0  0  2  0  0  0  0  0  0  0  0  0
    8.5959  -15.4627   24.9148 N   0  0  0  0  0  0  0  0  0  0  0  0
    9.3678  -15.3879   27.1551 C   0  0  0  0  0  0  0  0  0  0  0  0
    8.9448  -16.5598   27.3153 O   0  0  0  0  0  0  0  0  0  0  0  0
   10.2826  -14.9119   28.0894 O   0  0  0  0  0  0  0  0  0  0  0  0
  2  1  1  0
  2  4  1  0
  3  2  2  0
  4  5  1  0
  5  6  1  0
  6  7  1  6
  6  8  1  0
  8  9  2  0
 10  8  1  0
 10 11  1  0
 11 12  1  6
 12 13  1  0
 13 14  1  0
 14 18  1  0
 14 15  2  0
 16 11  1  0
 16 17  2  0
 19 20  1  0
 20 21  1  0
 21 23  1  0
 21 22  1  1
 23 24  1  6
 24 16  1  0
 25 27  1  0
 25 23  1  0
 26 25  2  0
M  END
$$$$
