QEI.pdb
     RDKit          3D

 27 26  0  0  1  0  0  0  0  0999 V2000
    8.8445  -13.5548   15.9265 N   0  0  0  0  0  0  0  0  0  0  0  0
    7.6499  -13.7067   16.6786 C   0  0  0  0  0  0  0  0  0  0  0  0
    6.7867  -14.5090   16.2436 O   0  0  0  0  0  0  0  0  0  0  0  0
    7.4623  -12.9164   17.9472 C   0  0  0  0  0  0  0  0  0  0  0  0
    7.3626  -13.8394   19.1349 C   0  0  0  0  0  0  0  0  0  0  0  0
    8.5836  -13.9548   19.9557 C   0  0  2  0  0  0  0  0  0  0  0  0
    9.6751  -14.4934   19.1139 N   0  0  0  0  0  0  0  0  0  0  0  0
    8.4875  -14.7297   21.2019 C   0  0  0  0  0  0  0  0  0  0  0  0
    7.5902  -14.4220   22.0648 O   0  0  0  0  0  0  0  0  0  0  0  0
    9.3095  -15.8220   21.5794 N   0  0  0  0  0  0  0  0  0  0  0  0
    9.0536  -16.5829   22.8083 C   0  0  1  0  0  0  0  0  0  0  0  0
    9.8970  -17.7937   22.9598 C   0  0  0  0  0  0  0  0  0  0  0  0
    9.6802  -18.5866   24.2160 C   0  0  0  0  0  0  0  0  0  0  0  0
   10.5978  -19.7281   24.3433 C   0  0  0  0  0  0  0  0  0  0  0  0
   11.3167  -19.8866   25.3533 O   0  0  0  0  0  0  0  0  0  0  0  0
    9.3681  -15.6493   23.9330 C   0  0  0  0  0  0  0  0  0  0  0  0
   10.4694  -15.0543   23.9034 O   0  0  0  0  0  0  0  0  0  0  0  0
   10.7241  -20.7061   23.3455 O   0  0  0  0  0  0  0  0  0  0  0  0
    6.2116  -11.8320   25.7540 C   0  0  0  0  0  0  0  0  0  0  0  0
    7.3962  -12.6925   25.4038 C   0  0  0  0  0  0  0  0  0  0  0  0
    7.8300  -13.5811   26.5227 C   0  0  2  0  0  0  0  0  0  0  0  0
    8.3599  -12.7353   27.6472 C   0  0  0  0  0  0  0  0  0  0  0  0
    8.9205  -14.5466   26.1090 C   0  0  2  0  0  0  0  0  0  0  0  0
    8.4998  -15.4003   25.0221 N   0  0  0  0  0  0  0  0  0  0  0  0
    9.3014  -15.4025   27.2532 C   0  0  0  0  0  0  0  0  0  0  0  0
    8.7696  -16.5304   27.4050 O   0  0  0  0  0  0  0  0  0  0  0  0
   10.2452  -15.0152   28.1995 O   0  0  0  0  0  0  0  0  0  0  0  0
  2  1  1  0
  2  4  1  0
  3  2  2  0
  4  5  1  0
  5  6  1  0
  6  7  1  6
  6  8  1  0
  8  9  2  0
 10  8  1  0
 10 11  1  0
 11 12  1  6
 12 13  1  0
 13 14  1  0
 14 18  1  0
 14 15  2  0
 16 11  1  0
 16 17  2  0
 19 20  1  0
 20 21  1  0
 21 23  1  0
 21 22  1  1
 23 24  1  6
 24 16  1  0
 25 27  1  0
 25 23  1  0
 26 25  2  0
M  END
$$$$
