QEI.pdb
     RDKit          3D

 27 26  0  0  1  0  0  0  0  0999 V2000
    8.2012  -12.7803   17.7345 N   0  0  0  0  0  0  0  0  0  0  0  0
    8.7706  -12.5784   19.0193 C   0  0  0  0  0  0  0  0  0  0  0  0
    9.6313  -11.6712   19.1381 O   0  0  0  0  0  0  0  0  0  0  0  0
    8.3319  -13.4418   20.1731 C   0  0  0  0  0  0  0  0  0  0  0  0
    7.2823  -14.4273   19.7264 C   0  0  0  0  0  0  0  0  0  0  0  0
    7.5545  -15.8400   20.0554 C   0  0  2  0  0  0  0  0  0  0  0  0
    6.4528  -16.6740   19.5255 N   0  0  0  0  0  0  0  0  0  0  0  0
    7.7926  -16.1692   21.4687 C   0  0  0  0  0  0  0  0  0  0  0  0
    6.7932  -16.2794   22.2647 O   0  0  0  0  0  0  0  0  0  0  0  0
    9.0531  -16.3842   22.0821 N   0  0  0  0  0  0  0  0  0  0  0  0
    9.1598  -16.9395   23.4367 C   0  0  1  0  0  0  0  0  0  0  0  0
   10.3357  -17.8203   23.6413 C   0  0  0  0  0  0  0  0  0  0  0  0
   10.4578  -18.4392   25.0036 C   0  0  0  0  0  0  0  0  0  0  0  0
   11.6101  -19.3440   25.1249 C   0  0  0  0  0  0  0  0  0  0  0  0
   11.8444  -19.9757   26.1777 O   0  0  0  0  0  0  0  0  0  0  0  0
    9.2941  -15.7603   24.3461 C   0  0  0  0  0  0  0  0  0  0  0  0
   10.0605  -14.8363   23.9898 O   0  0  0  0  0  0  0  0  0  0  0  0
   12.5145  -19.5549   24.0734 O   0  0  0  0  0  0  0  0  0  0  0  0
    5.3861  -12.8307   26.2721 C   0  0  0  0  0  0  0  0  0  0  0  0
    6.7296  -13.3306   25.8123 C   0  0  0  0  0  0  0  0  0  0  0  0
    7.5726  -13.8617   26.9246 C   0  0  2  0  0  0  0  0  0  0  0  0
    7.9310  -12.7350   27.8532 C   0  0  0  0  0  0  0  0  0  0  0  0
    8.8593  -14.4886   26.4305 C   0  0  2  0  0  0  0  0  0  0  0  0
    8.6104  -15.6279   25.5777 N   0  0  0  0  0  0  0  0  0  0  0  0
    9.6792  -14.9352   27.5773 C   0  0  0  0  0  0  0  0  0  0  0  0
   10.5078  -14.1531   28.1062 O   0  0  0  0  0  0  0  0  0  0  0  0
    9.5803  -16.2132   28.1189 O   0  0  0  0  0  0  0  0  0  0  0  0
  2  1  1  0
  2  4  1  0
  3  2  2  0
  4  5  1  0
  5  6  1  0
  6  7  1  1
  6  8  1  0
  8  9  2  0
 10  8  1  0
 10 11  1  0
 11 12  1  6
 12 13  1  0
 13 14  1  0
 14 18  1  0
 14 15  2  0
 16 11  1  0
 16 17  2  0
 19 20  1  0
 20 21  1  0
 21 23  1  0
 21 22  1  1
 23 24  1  6
 24 16  1  0
 25 27  1  0
 25 23  1  0
 26 25  2  0
M  END
$$$$
