QEI.pdb
     RDKit          3D

 27 26  0  0  1  0  0  0  0  0999 V2000
    8.9656  -14.5906   15.6110 N   0  0  0  0  0  0  0  0  0  0  0  0
    7.8020  -14.4977   16.4193 C   0  0  0  0  0  0  0  0  0  0  0  0
    7.0314  -15.4894   16.4457 O   0  0  0  0  0  0  0  0  0  0  0  0
    7.5366  -13.2382   17.2018 C   0  0  0  0  0  0  0  0  0  0  0  0
    7.2864  -13.5606   18.6530 C   0  0  0  0  0  0  0  0  0  0  0  0
    8.4674  -13.4848   19.5347 C   0  0  2  0  0  0  0  0  0  0  0  0
    9.6806  -13.7538   18.7311 N   0  0  0  0  0  0  0  0  0  0  0  0
    8.4676  -14.3335   20.7357 C   0  0  0  0  0  0  0  0  0  0  0  0
    7.4597  -14.3005   21.5279 O   0  0  0  0  0  0  0  0  0  0  0  0
    9.4986  -15.2194   21.1402 N   0  0  0  0  0  0  0  0  0  0  0  0
    9.3371  -16.1011   22.3026 C   0  0  1  0  0  0  0  0  0  0  0  0
   10.3960  -17.1313   22.4354 C   0  0  0  0  0  0  0  0  0  0  0  0
   10.3408  -17.9664   23.6818 C   0  0  0  0  0  0  0  0  0  0  0  0
   11.4097  -18.9736   23.7490 C   0  0  0  0  0  0  0  0  0  0  0  0
   12.2507  -19.1043   22.8338 O   0  0  0  0  0  0  0  0  0  0  0  0
    9.4013  -15.2064   23.4989 C   0  0  0  0  0  0  0  0  0  0  0  0
   10.2549  -14.2903   23.4939 O   0  0  0  0  0  0  0  0  0  0  0  0
   11.5529  -19.8464   24.8378 O   0  0  0  0  0  0  0  0  0  0  0  0
    6.5498  -11.4183   26.9065 C   0  0  0  0  0  0  0  0  0  0  0  0
    7.6301  -12.4668   26.9111 C   0  0  0  0  0  0  0  0  0  0  0  0
    7.5417  -13.4087   25.7557 C   0  0  2  0  0  0  0  0  0  0  0  0
    6.2502  -14.1735   25.8406 C   0  0  0  0  0  0  0  0  0  0  0  0
    8.6779  -14.4093   25.7332 C   0  0  2  0  0  0  0  0  0  0  0  0
    8.5596  -15.3335   24.6291 N   0  0  0  0  0  0  0  0  0  0  0  0
    8.6949  -15.1862   26.9913 C   0  0  0  0  0  0  0  0  0  0  0  0
    8.9091  -14.6116   28.0876 O   0  0  0  0  0  0  0  0  0  0  0  0
    8.4801  -16.5605   27.0284 O   0  0  0  0  0  0  0  0  0  0  0  0
  2  1  1  0
  2  4  1  0
  3  2  2  0
  4  5  1  0
  5  6  1  0
  6  7  1  6
  6  8  1  0
  8  9  2  0
 10  8  1  0
 10 11  1  0
 11 12  1  1
 12 13  1  0
 13 14  1  0
 14 18  1  0
 14 15  2  0
 16 11  1  0
 16 17  2  0
 19 20  1  0
 20 21  1  0
 21 23  1  0
 21 22  1  1
 23 24  1  6
 24 16  1  0
 25 27  1  0
 25 23  1  0
 26 25  2  0
M  END
$$$$
