DIV.pdb
     RDKit          3D

 24 23  0  0  1  0  0  0  0  0999 V2000
    8.2107  -15.2593   20.6649 N   0  0  0  0  0  0  0  0  0  0  0  0
    7.6669  -15.7478   21.8959 C   0  0  1  0  0  0  0  0  0  0  0  0
    7.7554  -17.2708   21.9033 C   0  0  0  0  0  0  0  0  0  0  0  0
    6.8523  -17.8182   20.8523 C   0  0  0  0  0  0  0  0  0  0  0  0
    6.2221  -17.0608   20.0657 O   0  0  0  0  0  0  0  0  0  0  0  0
    8.4425  -15.2773   23.0818 C   0  0  0  0  0  0  0  0  0  0  0  0
    9.6883  -15.1551   22.9673 O   0  0  0  0  0  0  0  0  0  0  0  0
    6.7185  -19.1958   20.7572 O   0  0  0  0  0  0  0  0  0  0  0  0
    5.9265  -11.7939   26.1648 C   0  0  0  0  0  0  0  0  0  0  0  0
    7.0373  -12.5191   25.4431 C   0  0  0  0  0  0  0  0  0  0  0  0
    7.5308  -13.7046   26.2768 C   0  0  2  0  0  0  0  0  0  0  0  0
    8.2293  -13.2251   27.5018 C   0  0  0  0  0  0  0  0  0  0  0  0
    8.5579  -14.4419   25.3964 C   0  0  2  0  0  0  0  0  0  0  0  0
    7.7752  -14.9873   24.2757 N   0  0  0  0  0  0  0  0  0  0  0  0
    9.1074  -15.5958   26.1435 C   0  0  0  0  0  0  0  0  0  0  0  0
    8.2597  -16.4693   26.5624 O   0  0  0  0  0  0  0  0  0  0  0  0
   12.6104  -18.7796   27.3519 C   0  0  0  0  0  0  0  0  0  0  0  0
   12.2673  -17.4713   26.6712 C   0  0  1  0  0  0  0  0  0  0  0  0
   12.3084  -17.7096   25.1779 C   0  0  0  0  0  0  0  0  0  0  0  0
   10.8744  -17.0346   27.0720 C   0  0  2  0  0  0  0  0  0  0  0  0
   10.4871  -15.8066   26.4246 N   0  0  0  0  0  0  0  0  0  0  0  0
   10.8241  -16.8496   28.5543 C   0  0  0  0  0  0  0  0  0  0  0  0
   10.8552  -15.7211   29.1064 O   0  0  0  0  0  0  0  0  0  0  0  0
   10.7391  -17.9494   29.3870 O   0  0  0  0  0  0  0  0  0  0  0  0
  2  1  1  6
  2  3  1  0
  4  3  1  0
  4  8  1  0
  5  4  2  0
  6  2  1  0
  7  6  2  0
  9 10  1  0
 10 11  1  0
 11 13  1  0
 11 12  1  1
 13 14  1  6
 14  6  1  0
 15 13  1  0
 15 21  1  0
 16 15  2  0
 18 17  1  1
 18 20  1  0
 19 18  1  0
 20 21  1  6
 20 22  1  0
 22 23  2  0
 22 24  1  0
M  END
$$$$
