DIV.pdb
     RDKit          3D

 24 23  0  0  1  0  0  0  0  0999 V2000
    7.3718  -12.4639   19.9724 N   0  0  0  0  0  0  0  0  0  0  0  0
    7.2013  -13.7609   20.5542 C   0  0  1  0  0  0  0  0  0  0  0  0
    7.7478  -14.8090   19.5895 C   0  0  0  0  0  0  0  0  0  0  0  0
    7.4322  -16.1675   20.1134 C   0  0  0  0  0  0  0  0  0  0  0  0
    6.7901  -16.3267   21.1867 O   0  0  0  0  0  0  0  0  0  0  0  0
    7.9729  -13.9165   21.8229 C   0  0  0  0  0  0  0  0  0  0  0  0
    9.2244  -13.8082   21.7750 O   0  0  0  0  0  0  0  0  0  0  0  0
    7.8655  -17.2663   19.3857 O   0  0  0  0  0  0  0  0  0  0  0  0
    5.9181  -11.5563   26.0511 C   0  0  0  0  0  0  0  0  0  0  0  0
    6.8596  -12.1658   25.0396 C   0  0  0  0  0  0  0  0  0  0  0  0
    7.0762  -13.6515   25.3395 C   0  0  2  0  0  0  0  0  0  0  0  0
    7.7067  -13.8264   26.6774 C   0  0  0  0  0  0  0  0  0  0  0  0
    8.0658  -14.1579   24.2727 C   0  0  2  0  0  0  0  0  0  0  0  0
    7.2960  -14.1753   23.0185 N   0  0  0  0  0  0  0  0  0  0  0  0
    8.4373  -15.5591   24.5728 C   0  0  0  0  0  0  0  0  0  0  0  0
    7.4688  -16.3897   24.7438 O   0  0  0  0  0  0  0  0  0  0  0  0
   10.7824  -17.8939   22.6595 C   0  0  0  0  0  0  0  0  0  0  0  0
   11.0956  -18.0336   24.1344 C   0  0  1  0  0  0  0  0  0  0  0  0
   12.3675  -17.2609   24.4057 C   0  0  0  0  0  0  0  0  0  0  0  0
    9.9671  -17.4479   24.9559 C   0  0  2  0  0  0  0  0  0  0  0  0
    9.7706  -16.0470   24.6807 N   0  0  0  0  0  0  0  0  0  0  0  0
   10.2704  -17.6289   26.4083 C   0  0  0  0  0  0  0  0  0  0  0  0
   10.4870  -16.6683   27.1890 O   0  0  0  0  0  0  0  0  0  0  0  0
   10.3229  -18.8986   26.9518 O   0  0  0  0  0  0  0  0  0  0  0  0
  2  1  1  6
  2  3  1  0
  4  3  1  0
  4  8  1  0
  5  4  2  0
  6  2  1  0
  7  6  2  0
  9 10  1  0
 10 11  1  0
 11 13  1  0
 11 12  1  1
 13 14  1  6
 14  6  1  0
 15 13  1  0
 15 21  1  0
 16 15  2  0
 18 17  1  6
 18 20  1  0
 19 18  1  0
 20 21  1  1
 20 22  1  0
 22 23  2  0
 22 24  1  0
M  END
$$$$
