DIV.pdb
     RDKit          3D

 24 23  0  0  1  0  0  0  0  0999 V2000
   12.8479  -17.2833   20.6434 N   0  0  0  0  0  0  0  0  0  0  0  0
   11.6093  -17.5586   21.3066 C   0  0  1  0  0  0  0  0  0  0  0  0
   11.8489  -18.6197   22.3764 C   0  0  0  0  0  0  0  0  0  0  0  0
   12.0565  -19.9398   21.7177 C   0  0  0  0  0  0  0  0  0  0  0  0
   13.0050  -20.7004   22.0514 O   0  0  0  0  0  0  0  0  0  0  0  0
   11.0712  -16.3610   22.0176 C   0  0  0  0  0  0  0  0  0  0  0  0
   11.8871  -15.5827   22.5732 O   0  0  0  0  0  0  0  0  0  0  0  0
   11.1728  -20.3181   20.7174 O   0  0  0  0  0  0  0  0  0  0  0  0
    7.1304  -13.6281   19.8443 C   0  0  0  0  0  0  0  0  0  0  0  0
    8.3363  -14.0003   20.6738 C   0  0  0  0  0  0  0  0  0  0  0  0
    7.8992  -14.5554   22.0321 C   0  0  2  0  0  0  0  0  0  0  0  0
    7.2169  -13.4999   22.8311 C   0  0  0  0  0  0  0  0  0  0  0  0
    9.1961  -14.9489   22.7648 C   0  0  2  0  0  0  0  0  0  0  0  0
    9.6918  -16.1353   22.0489 N   0  0  0  0  0  0  0  0  0  0  0  0
    8.8706  -15.3791   24.1434 C   0  0  0  0  0  0  0  0  0  0  0  0
    8.4346  -16.5819   24.2854 O   0  0  0  0  0  0  0  0  0  0  0  0
   10.3814  -13.7972   27.7435 C   0  0  0  0  0  0  0  0  0  0  0  0
    8.9165  -14.1801   27.7236 C   0  0  1  0  0  0  0  0  0  0  0  0
    8.1170  -12.9138   27.5101 C   0  0  0  0  0  0  0  0  0  0  0  0
    8.6526  -15.1392   26.5826 C   0  0  2  0  0  0  0  0  0  0  0  0
    9.0067  -14.5698   25.3069 N   0  0  0  0  0  0  0  0  0  0  0  0
    7.2042  -15.5081   26.5748 C   0  0  0  0  0  0  0  0  0  0  0  0
    6.3530  -14.9311   25.8524 O   0  0  0  0  0  0  0  0  0  0  0  0
    6.7447  -16.5271   27.3877 O   0  0  0  0  0  0  0  0  0  0  0  0
  2  1  1  1
  2  3  1  0
  4  3  1  0
  4  8  1  0
  5  4  2  0
  6  2  1  0
  7  6  2  0
  9 10  1  0
 10 11  1  0
 11 13  1  0
 11 12  1  1
 13 14  1  6
 14  6  1  0
 15 13  1  0
 15 21  1  0
 16 15  2  0
 18 17  1  6
 18 20  1  0
 19 18  1  0
 20 21  1  6
 20 22  1  0
 22 23  2  0
 22 24  1  0
M  END
$$$$
