DIV.pdb
     RDKit          3D

 24 23  0  0  1  0  0  0  0  0999 V2000
    7.8353  -14.6116   20.0195 N   0  0  0  0  0  0  0  0  0  0  0  0
    7.4082  -15.3260   21.1844 C   0  0  1  0  0  0  0  0  0  0  0  0
    7.6164  -16.8192   20.9502 C   0  0  0  0  0  0  0  0  0  0  0  0
    6.7233  -17.2701   19.8462 C   0  0  0  0  0  0  0  0  0  0  0  0
    7.1409  -17.3712   18.6609 O   0  0  0  0  0  0  0  0  0  0  0  0
    8.2158  -14.9744   22.3900 C   0  0  0  0  0  0  0  0  0  0  0  0
    9.4522  -14.7986   22.2470 O   0  0  0  0  0  0  0  0  0  0  0  0
    5.4067  -17.5798   20.1548 O   0  0  0  0  0  0  0  0  0  0  0  0
    6.1197  -11.8124   26.0954 C   0  0  0  0  0  0  0  0  0  0  0  0
    7.1695  -12.5032   25.2578 C   0  0  0  0  0  0  0  0  0  0  0  0
    7.4699  -13.8953   25.8199 C   0  0  2  0  0  0  0  0  0  0  0  0
    8.1787  -13.7881   27.1255 C   0  0  0  0  0  0  0  0  0  0  0  0
    8.4230  -14.5622   24.8098 C   0  0  2  0  0  0  0  0  0  0  0  0
    7.5877  -14.8504   23.6329 N   0  0  0  0  0  0  0  0  0  0  0  0
    8.8772  -15.8643   25.3483 C   0  0  0  0  0  0  0  0  0  0  0  0
    7.9601  -16.7120   25.6602 O   0  0  0  0  0  0  0  0  0  0  0  0
   12.9220  -17.2350   25.3645 C   0  0  0  0  0  0  0  0  0  0  0  0
   11.7305  -18.1362   25.1172 C   0  0  1  0  0  0  0  0  0  0  0  0
   12.0860  -19.5136   25.6316 C   0  0  0  0  0  0  0  0  0  0  0  0
   10.5268  -17.6133   25.8717 C   0  0  2  0  0  0  0  0  0  0  0  0
   10.2368  -16.2412   25.5398 N   0  0  0  0  0  0  0  0  0  0  0  0
   10.7807  -17.7239   27.3406 C   0  0  0  0  0  0  0  0  0  0  0  0
   10.9613  -16.7260   28.0827 O   0  0  0  0  0  0  0  0  0  0  0  0
   10.8255  -18.9665   27.9440 O   0  0  0  0  0  0  0  0  0  0  0  0
  2  1  1  6
  2  3  1  0
  4  3  1  0
  4  8  1  0
  5  4  2  0
  6  2  1  0
  7  6  2  0
  9 10  1  0
 10 11  1  0
 11 13  1  0
 11 12  1  1
 13 14  1  6
 14  6  1  0
 15 13  1  0
 15 21  1  0
 16 15  2  0
 18 17  1  1
 18 20  1  0
 19 18  1  0
 20 21  1  1
 20 22  1  0
 22 23  2  0
 22 24  1  0
M  END
$$$$
