DIV.pdb
     RDKit          3D

 24 23  0  0  1  0  0  0  0  0999 V2000
    8.5815  -14.9311   20.3122 N   0  0  0  0  0  0  0  0  0  0  0  0
    7.9408  -15.5429   21.4370 C   0  0  1  0  0  0  0  0  0  0  0  0
    8.0725  -17.0579   21.3147 C   0  0  0  0  0  0  0  0  0  0  0  0
    7.3641  -17.5126   20.0855 C   0  0  0  0  0  0  0  0  0  0  0  0
    6.3787  -16.8784   19.6204 O   0  0  0  0  0  0  0  0  0  0  0  0
    8.5896  -15.1688   22.7287 C   0  0  0  0  0  0  0  0  0  0  0  0
    9.8432  -15.0839   22.7619 O   0  0  0  0  0  0  0  0  0  0  0  0
    7.8180  -18.6628   19.4564 O   0  0  0  0  0  0  0  0  0  0  0  0
    5.9664  -11.6910   25.6187 C   0  0  0  0  0  0  0  0  0  0  0  0
    7.0427  -12.5313   24.9734 C   0  0  0  0  0  0  0  0  0  0  0  0
    7.4132  -13.7102   25.8772 C   0  0  2  0  0  0  0  0  0  0  0  0
    8.0361  -13.2233   27.1394 C   0  0  0  0  0  0  0  0  0  0  0  0
    8.4697  -14.5208   25.1023 C   0  0  2  0  0  0  0  0  0  0  0  0
    7.7994  -14.9248   23.8560 N   0  0  0  0  0  0  0  0  0  0  0  0
    8.7820  -15.7609   25.8481 C   0  0  0  0  0  0  0  0  0  0  0  0
    7.7848  -16.5095   26.1676 O   0  0  0  0  0  0  0  0  0  0  0  0
   11.1161  -18.5114   24.8205 C   0  0  0  0  0  0  0  0  0  0  0  0
   11.3707  -18.2663   26.2929 C   0  0  1  0  0  0  0  0  0  0  0  0
   12.6593  -17.4824   26.4086 C   0  0  0  0  0  0  0  0  0  0  0  0
   10.2354  -17.4563   26.8816 C   0  0  2  0  0  0  0  0  0  0  0  0
   10.0885  -16.1800   26.2286 N   0  0  0  0  0  0  0  0  0  0  0  0
   10.4890  -17.2402   28.3387 C   0  0  0  0  0  0  0  0  0  0  0  0
   10.5788  -18.1814   29.1666 O   0  0  0  0  0  0  0  0  0  0  0  0
   10.6369  -15.9581   28.8332 O   0  0  0  0  0  0  0  0  0  0  0  0
  2  1  1  6
  2  3  1  0
  4  3  1  0
  4  8  1  0
  5  4  2  0
  6  2  1  0
  7  6  2  0
  9 10  1  0
 10 11  1  0
 11 13  1  0
 11 12  1  1
 13 14  1  6
 14  6  1  0
 15 13  1  0
 15 21  1  0
 16 15  2  0
 18 17  1  6
 18 20  1  0
 19 18  1  0
 20 21  1  6
 20 22  1  0
 22 23  2  0
 22 24  1  0
M  END
$$$$
