DIV.pdb
     RDKit          3D

 24 23  0  0  1  0  0  0  0  0999 V2000
    6.3194  -15.1277   21.2779 N   0  0  0  0  0  0  0  0  0  0  0  0
    7.5562  -15.8303   21.4400 C   0  0  1  0  0  0  0  0  0  0  0  0
    8.4333  -15.5714   20.2188 C   0  0  0  0  0  0  0  0  0  0  0  0
    7.8402  -16.2572   19.0366 C   0  0  0  0  0  0  0  0  0  0  0  0
    6.7354  -16.8601   19.1106 O   0  0  0  0  0  0  0  0  0  0  0  0
    8.3299  -15.3462   22.6217 C   0  0  0  0  0  0  0  0  0  0  0  0
    9.5582  -15.1215   22.4769 O   0  0  0  0  0  0  0  0  0  0  0  0
    8.5385  -16.2173   17.8385 O   0  0  0  0  0  0  0  0  0  0  0  0
    6.0848  -11.9330   25.9321 C   0  0  0  0  0  0  0  0  0  0  0  0
    7.1667  -12.6843   25.1932 C   0  0  0  0  0  0  0  0  0  0  0  0
    7.5043  -13.9879   25.9218 C   0  0  2  0  0  0  0  0  0  0  0  0
    8.1982  -13.7011   27.2081 C   0  0  0  0  0  0  0  0  0  0  0  0
    8.4859  -14.7424   25.0049 C   0  0  2  0  0  0  0  0  0  0  0  0
    7.6801  -15.1564   23.8450 N   0  0  0  0  0  0  0  0  0  0  0  0
    8.9391  -15.9787   25.6814 C   0  0  0  0  0  0  0  0  0  0  0  0
    8.0212  -16.7853   26.0862 O   0  0  0  0  0  0  0  0  0  0  0  0
   12.1538  -19.5158   26.7156 C   0  0  0  0  0  0  0  0  0  0  0  0
   11.8989  -18.1853   26.0391 C   0  0  1  0  0  0  0  0  0  0  0  0
   11.8320  -18.4367   24.5489 C   0  0  0  0  0  0  0  0  0  0  0  0
   10.5791  -17.6142   26.5119 C   0  0  2  0  0  0  0  0  0  0  0  0
   10.2984  -16.3353   25.9098 N   0  0  0  0  0  0  0  0  0  0  0  0
   10.6122  -17.4644   27.9987 C   0  0  0  0  0  0  0  0  0  0  0  0
   10.9164  -16.3891   28.5735 O   0  0  0  0  0  0  0  0  0  0  0  0
   10.2990  -18.5386   28.8101 O   0  0  0  0  0  0  0  0  0  0  0  0
  2  1  1  6
  2  3  1  0
  4  3  1  0
  4  8  1  0
  5  4  2  0
  6  2  1  0
  7  6  2  0
  9 10  1  0
 10 11  1  0
 11 13  1  0
 11 12  1  1
 13 14  1  6
 14  6  1  0
 15 13  1  0
 15 21  1  0
 16 15  2  0
 18 17  1  1
 18 20  1  0
 19 18  1  0
 20 21  1  6
 20 22  1  0
 22 23  2  0
 22 24  1  0
M  END
$$$$
