DIV.pdb
     RDKit          3D

 24 23  0  0  1  0  0  0  0  0999 V2000
    7.7999  -14.6265   20.2995 N   0  0  0  0  0  0  0  0  0  0  0  0
    7.3628  -15.3481   21.4561 C   0  0  1  0  0  0  0  0  0  0  0  0
    7.5632  -16.8404   21.2103 C   0  0  0  0  0  0  0  0  0  0  0  0
    6.6692  -17.2776   20.1015 C   0  0  0  0  0  0  0  0  0  0  0  0
    7.1224  -17.8682   19.0840 O   0  0  0  0  0  0  0  0  0  0  0  0
    8.1666  -15.0116   22.6686 C   0  0  0  0  0  0  0  0  0  0  0  0
    9.4095  -14.8758   22.5394 O   0  0  0  0  0  0  0  0  0  0  0  0
    5.3112  -17.0175   20.2147 O   0  0  0  0  0  0  0  0  0  0  0  0
    6.0964  -11.5302   25.9298 C   0  0  0  0  0  0  0  0  0  0  0  0
    7.0574  -12.4026   25.1576 C   0  0  0  0  0  0  0  0  0  0  0  0
    7.4071  -13.6559   25.9646 C   0  0  2  0  0  0  0  0  0  0  0  0
    8.1513  -13.2884   27.2012 C   0  0  0  0  0  0  0  0  0  0  0  0
    8.3456  -14.4869   25.0689 C   0  0  2  0  0  0  0  0  0  0  0  0
    7.5278  -14.8574   23.9027 N   0  0  0  0  0  0  0  0  0  0  0  0
    8.7033  -15.7438   25.7644 C   0  0  0  0  0  0  0  0  0  0  0  0
    7.7289  -16.4410   26.2350 O   0  0  0  0  0  0  0  0  0  0  0  0
   11.0409  -18.5291   24.5073 C   0  0  0  0  0  0  0  0  0  0  0  0
   11.3269  -18.3082   25.9777 C   0  0  1  0  0  0  0  0  0  0  0  0
   12.6226  -17.5340   26.0790 C   0  0  0  0  0  0  0  0  0  0  0  0
   10.2091  -17.5005   26.6019 C   0  0  2  0  0  0  0  0  0  0  0  0
   10.0291  -16.2309   25.9441 N   0  0  0  0  0  0  0  0  0  0  0  0
   10.5157  -17.2701   28.0465 C   0  0  0  0  0  0  0  0  0  0  0  0
   10.7382  -16.1306   28.5275 O   0  0  0  0  0  0  0  0  0  0  0  0
   10.5648  -18.3377   28.9228 O   0  0  0  0  0  0  0  0  0  0  0  0
  2  1  1  6
  2  3  1  0
  4  3  1  0
  4  8  1  0
  5  4  2  0
  6  2  1  0
  7  6  2  0
  9 10  1  0
 10 11  1  0
 11 13  1  0
 11 12  1  1
 13 14  1  6
 14  6  1  0
 15 13  1  0
 15 21  1  0
 16 15  2  0
 18 17  1  6
 18 20  1  0
 19 18  1  0
 20 21  1  6
 20 22  1  0
 22 23  2  0
 22 24  1  0
M  END
$$$$
