DIV.pdb
     RDKit          3D

 24 23  0  0  1  0  0  0  0  0999 V2000
   10.7225  -17.3840   16.2235 N   0  0  0  0  0  0  0  0  0  0  0  0
    9.6780  -17.5254   17.1923 C   0  0  1  0  0  0  0  0  0  0  0  0
    9.5482  -18.9992   17.5649 C   0  0  0  0  0  0  0  0  0  0  0  0
    8.9771  -19.7471   16.4099 C   0  0  0  0  0  0  0  0  0  0  0  0
    9.6784  -20.5437   15.7294 O   0  0  0  0  0  0  0  0  0  0  0  0
    9.9817  -16.7978   18.4603 C   0  0  0  0  0  0  0  0  0  0  0  0
   11.1847  -16.6815   18.8057 O   0  0  0  0  0  0  0  0  0  0  0  0
    7.6409  -19.5452   16.0959 O   0  0  0  0  0  0  0  0  0  0  0  0
    6.6639  -12.7419   19.6207 C   0  0  0  0  0  0  0  0  0  0  0  0
    7.9125  -13.5811   19.4877 C   0  0  0  0  0  0  0  0  0  0  0  0
    8.0062  -14.5850   20.6400 C   0  0  2  0  0  0  0  0  0  0  0  0
    8.1807  -13.8743   21.9372 C   0  0  0  0  0  0  0  0  0  0  0  0
    9.2756  -15.4164   20.3738 C   0  0  2  0  0  0  0  0  0  0  0  0
    8.9362  -16.2699   19.2238 N   0  0  0  0  0  0  0  0  0  0  0  0
    9.5239  -16.3161   21.5229 C   0  0  0  0  0  0  0  0  0  0  0  0
    8.5951  -17.1611   21.8062 O   0  0  0  0  0  0  0  0  0  0  0  0
   12.2399  -18.8094   22.1869 C   0  0  0  0  0  0  0  0  0  0  0  0
   12.0969  -17.9846   23.4487 C   0  0  1  0  0  0  0  0  0  0  0  0
   13.2367  -16.9903   23.4752 C   0  0  0  0  0  0  0  0  0  0  0  0
   10.7799  -17.2386   23.4271 C   0  0  2  0  0  0  0  0  0  0  0  0
   10.7014  -16.3152   22.3234 N   0  0  0  0  0  0  0  0  0  0  0  0
   10.6171  -16.4902   24.7107 C   0  0  0  0  0  0  0  0  0  0  0  0
   10.5558  -15.2365   24.7710 O   0  0  0  0  0  0  0  0  0  0  0  0
   10.5264  -17.1775   25.9063 O   0  0  0  0  0  0  0  0  0  0  0  0
  2  1  1  6
  2  3  1  0
  4  3  1  0
  4  8  1  0
  5  4  2  0
  6  2  1  0
  7  6  2  0
  9 10  1  0
 10 11  1  0
 11 13  1  0
 11 12  1  1
 13 14  1  6
 14  6  1  0
 15 13  1  0
 15 21  1  0
 16 15  2  0
 18 17  1  6
 18 20  1  0
 19 18  1  0
 20 21  1  6
 20 22  1  0
 22 23  2  0
 22 24  1  0
M  END
$$$$
