DIV.pdb
     RDKit          3D

 24 23  0  0  1  0  0  0  0  0999 V2000
    8.7281  -15.4824   20.8225 N   0  0  0  0  0  0  0  0  0  0  0  0
    8.0892  -15.9036   22.0325 C   0  0  1  0  0  0  0  0  0  0  0  0
    8.2195  -17.4187   22.1565 C   0  0  0  0  0  0  0  0  0  0  0  0
    7.4649  -18.0667   21.0473 C   0  0  0  0  0  0  0  0  0  0  0  0
    6.9975  -17.3950   20.0881 O   0  0  0  0  0  0  0  0  0  0  0  0
    8.7408  -15.3264   23.2455 C   0  0  0  0  0  0  0  0  0  0  0  0
    9.9920  -15.2062   23.2483 O   0  0  0  0  0  0  0  0  0  0  0  0
    7.2857  -19.4416   21.0937 O   0  0  0  0  0  0  0  0  0  0  0  0
    5.9676  -11.7079   25.9449 C   0  0  0  0  0  0  0  0  0  0  0  0
    7.1147  -12.4842   25.3429 C   0  0  0  0  0  0  0  0  0  0  0  0
    7.5456  -13.6142   26.2818 C   0  0  2  0  0  0  0  0  0  0  0  0
    8.1529  -13.0575   27.5225 C   0  0  0  0  0  0  0  0  0  0  0  0
    8.6339  -14.4000   25.5256 C   0  0  2  0  0  0  0  0  0  0  0  0
    7.9558  -14.9382   24.3354 N   0  0  0  0  0  0  0  0  0  0  0  0
    9.0607  -15.5586   26.3423 C   0  0  0  0  0  0  0  0  0  0  0  0
    8.1461  -16.4036   26.6687 O   0  0  0  0  0  0  0  0  0  0  0  0
   11.8018  -18.0902   25.6666 C   0  0  0  0  0  0  0  0  0  0  0  0
   11.9159  -17.6907   27.1227 C   0  0  1  0  0  0  0  0  0  0  0  0
   13.0859  -16.7395   27.2443 C   0  0  0  0  0  0  0  0  0  0  0  0
   10.6494  -16.9877   27.5623 C   0  0  2  0  0  0  0  0  0  0  0  0
   10.3923  -15.8028   26.7833 N   0  0  0  0  0  0  0  0  0  0  0  0
   10.7686  -16.6152   29.0048 C   0  0  0  0  0  0  0  0  0  0  0  0
   10.7750  -15.4249   29.4079 O   0  0  0  0  0  0  0  0  0  0  0  0
   10.8788  -17.6005   29.9677 O   0  0  0  0  0  0  0  0  0  0  0  0
  2  1  1  6
  2  3  1  0
  4  3  1  0
  4  8  1  0
  5  4  2  0
  6  2  1  0
  7  6  2  0
  9 10  1  0
 10 11  1  0
 11 13  1  0
 11 12  1  1
 13 14  1  6
 14  6  1  0
 15 13  1  0
 15 21  1  0
 16 15  2  0
 18 17  1  6
 18 20  1  0
 19 18  1  0
 20 21  1  6
 20 22  1  0
 22 23  2  0
 22 24  1  0
M  END
$$$$
