DIV.pdb
     RDKit          3D

 24 23  0  0  1  0  0  0  0  0999 V2000
    8.6059  -14.8243   20.2767 N   0  0  0  0  0  0  0  0  0  0  0  0
    7.8645  -15.3547   21.3806 C   0  0  1  0  0  0  0  0  0  0  0  0
    7.8297  -16.8756   21.2650 C   0  0  0  0  0  0  0  0  0  0  0  0
    7.0203  -17.2570   20.0738 C   0  0  0  0  0  0  0  0  0  0  0  0
    6.7443  -16.4222   19.1702 O   0  0  0  0  0  0  0  0  0  0  0  0
    8.5085  -15.0489   22.6925 C   0  0  0  0  0  0  0  0  0  0  0  0
    9.7633  -14.9905   22.7397 O   0  0  0  0  0  0  0  0  0  0  0  0
    6.5715  -18.5664   19.9797 O   0  0  0  0  0  0  0  0  0  0  0  0
    5.9153  -11.6911   25.8742 C   0  0  0  0  0  0  0  0  0  0  0  0
    7.0244  -12.4516   25.1868 C   0  0  0  0  0  0  0  0  0  0  0  0
    7.3034  -13.7668   25.9191 C   0  0  2  0  0  0  0  0  0  0  0  0
    7.8638  -13.5005   27.2731 C   0  0  0  0  0  0  0  0  0  0  0  0
    8.3791  -14.4927   25.0888 C   0  0  2  0  0  0  0  0  0  0  0  0
    7.7130  -14.8374   23.8225 N   0  0  0  0  0  0  0  0  0  0  0  0
    8.7351  -15.7674   25.7523 C   0  0  0  0  0  0  0  0  0  0  0  0
    7.7658  -16.5737   26.0121 O   0  0  0  0  0  0  0  0  0  0  0  0
   10.9705  -18.4850   24.5968 C   0  0  0  0  0  0  0  0  0  0  0  0
   11.3342  -18.2483   26.0476 C   0  0  1  0  0  0  0  0  0  0  0  0
   12.6217  -17.4546   26.0713 C   0  0  0  0  0  0  0  0  0  0  0  0
   10.2406  -17.4520   26.7270 C   0  0  2  0  0  0  0  0  0  0  0  0
   10.0546  -16.1605   26.1150 N   0  0  0  0  0  0  0  0  0  0  0  0
   10.5877  -17.2705   28.1694 C   0  0  0  0  0  0  0  0  0  0  0  0
   10.6728  -18.2268   28.9803 O   0  0  0  0  0  0  0  0  0  0  0  0
   10.8329  -16.0054   28.6688 O   0  0  0  0  0  0  0  0  0  0  0  0
  2  1  1  6
  2  3  1  0
  4  3  1  0
  4  8  1  0
  5  4  2  0
  6  2  1  0
  7  6  2  0
  9 10  1  0
 10 11  1  0
 11 13  1  0
 11 12  1  1
 13 14  1  6
 14  6  1  0
 15 13  1  0
 15 21  1  0
 16 15  2  0
 18 17  1  6
 18 20  1  0
 19 18  1  0
 20 21  1  6
 20 22  1  0
 22 23  2  0
 22 24  1  0
M  END
$$$$
