EDV.pdb
     RDKit          3D

 25 24  0  0  1  0  0  0  0  0999 V2000
   18.4608  -13.1717  -15.9662 N   0  0  0  0  0  0  0  0  0  0  0  0
   17.4901  -12.0739  -15.8888 C   0  0  1  0  0  0  0  0  0  0  0  0
   16.2154  -12.6572  -15.3209 C   0  0  0  0  0  0  0  0  0  0  0  0
   15.6363  -13.7783  -16.1205 C   0  0  0  0  0  0  0  0  0  0  0  0
   15.5034  -15.0366  -15.3868 C   0  0  0  0  0  0  0  0  0  0  0  0
   15.0562  -15.0122  -14.2189 O   0  0  0  0  0  0  0  0  0  0  0  0
   17.9446  -11.0486  -14.9091 C   0  0  0  0  0  0  0  0  0  0  0  0
   18.4799  -11.3956  -13.8252 O   0  0  0  0  0  0  0  0  0  0  0  0
   15.8570  -16.2379  -15.9465 O   0  0  0  0  0  0  0  0  0  0  0  0
   17.8057   -9.6511  -15.1318 N   0  0  0  0  0  0  0  0  0  0  0  0
   18.3019   -8.6353  -14.2399 C   0  0  1  0  0  0  0  0  0  0  0  0
   19.0463   -7.6103  -15.0813 C   0  0  0  0  0  0  0  0  0  0  0  0
   19.6000   -6.5783  -14.1743 C   0  0  0  0  0  0  0  0  0  0  0  0
   19.4528   -5.3755  -14.4803 O   0  0  0  0  0  0  0  0  0  0  0  0
   17.2060   -7.9865  -13.4653 C   0  0  0  0  0  0  0  0  0  0  0  0
   16.2370   -7.4532  -14.0630 O   0  0  0  0  0  0  0  0  0  0  0  0
   20.2583   -6.9523  -13.0327 O   0  0  0  0  0  0  0  0  0  0  0  0
   15.0453   -6.7559   -9.1729 C   0  0  0  0  0  0  0  0  0  0  0  0
   16.1915   -7.5543   -9.8256 C   0  0  2  0  0  0  0  0  0  0  0  0
   17.4710   -6.9552   -9.2583 C   0  0  0  0  0  0  0  0  0  0  0  0
   16.1509   -7.2574  -11.2868 C   0  0  2  0  0  0  0  0  0  0  0  0
   17.1787   -7.9263  -12.0504 N   0  0  0  0  0  0  0  0  0  0  0  0
   16.2297   -5.7762  -11.5077 C   0  0  0  0  0  0  0  0  0  0  0  0
   17.3640   -5.1286  -11.9537 O   0  0  0  0  0  0  0  0  0  0  0  0
   15.2090   -5.0867  -11.2729 O   0  0  0  0  0  0  0  0  0  0  0  0
  2  1  1  1
  3  2  1  0
  4  3  1  0
  5  4  1  0
  5  6  2  0
  7  2  1  0
  7  8  2  0
  9  5  1  0
 10  7  1  0
 11 10  1  0
 11 12  1  6
 12 13  1  0
 13 17  1  0
 14 13  2  0
 15 11  1  0
 16 15  2  0
 19 18  1  1
 19 20  1  0
 19 21  1  0
 21 23  1  0
 21 22  1  6
 22 15  1  0
 23 24  1  0
 25 23  2  0
M  END
$$$$
