EDV.pdb
     RDKit          3D

 25 24  0  0  1  0  0  0  0  0999 V2000
   16.0744  -11.6534  -17.0758 N   0  0  0  0  0  0  0  0  0  0  0  0
   16.3016  -10.9322  -15.8182 C   0  0  1  0  0  0  0  0  0  0  0  0
   17.0689  -11.8677  -14.9107 C   0  0  0  0  0  0  0  0  0  0  0  0
   16.2566  -12.9849  -14.3418 C   0  0  0  0  0  0  0  0  0  0  0  0
   16.5548  -14.2983  -14.9120 C   0  0  0  0  0  0  0  0  0  0  0  0
   17.6098  -14.8795  -14.5749 O   0  0  0  0  0  0  0  0  0  0  0  0
   17.1913   -9.7601  -16.0466 C   0  0  0  0  0  0  0  0  0  0  0  0
   18.1383   -9.8296  -16.8712 O   0  0  0  0  0  0  0  0  0  0  0  0
   15.7085  -14.9052  -15.8049 O   0  0  0  0  0  0  0  0  0  0  0  0
   17.0300   -8.5224  -15.3652 N   0  0  0  0  0  0  0  0  0  0  0  0
   17.8375   -7.3545  -15.6047 C   0  0  1  0  0  0  0  0  0  0  0  0
   16.9216   -6.1423  -15.5378 C   0  0  0  0  0  0  0  0  0  0  0  0
   16.0807   -6.1275  -16.7571 C   0  0  0  0  0  0  0  0  0  0  0  0
   14.8632   -6.3867  -16.6442 O   0  0  0  0  0  0  0  0  0  0  0  0
   18.9493   -7.2309  -14.6195 C   0  0  0  0  0  0  0  0  0  0  0  0
   18.7116   -7.2804  -13.3859 O   0  0  0  0  0  0  0  0  0  0  0  0
   16.6423   -5.8377  -17.9725 O   0  0  0  0  0  0  0  0  0  0  0  0
   22.9480   -7.3474  -15.9399 C   0  0  0  0  0  0  0  0  0  0  0  0
   22.5748   -7.9032  -14.5510 C   0  0  2  0  0  0  0  0  0  0  0  0
   22.0984   -9.3269  -14.8040 C   0  0  0  0  0  0  0  0  0  0  0  0
   21.4119   -7.1071  -14.0623 C   0  0  2  0  0  0  0  0  0  0  0  0
   20.3052   -7.0549  -14.9892 N   0  0  0  0  0  0  0  0  0  0  0  0
   21.8562   -5.7175  -13.7151 C   0  0  0  0  0  0  0  0  0  0  0  0
   22.6525   -5.4182  -12.6282 O   0  0  0  0  0  0  0  0  0  0  0  0
   21.4829   -4.7741  -14.4521 O   0  0  0  0  0  0  0  0  0  0  0  0
  2  1  1  6
  3  2  1  0
  4  3  1  0
  5  4  1  0
  5  6  2  0
  7  2  1  0
  7  8  2  0
  9  5  1  0
 10  7  1  0
 11 10  1  0
 11 12  1  1
 12 13  1  0
 13 17  1  0
 14 13  2  0
 15 11  1  0
 16 15  2  0
 19 18  1  6
 19 20  1  0
 19 21  1  0
 21 23  1  0
 21 22  1  6
 22 15  1  0
 23 24  1  0
 25 23  2  0
M  END
$$$$
