EDV.pdb
     RDKit          3D

 25 24  0  0  1  0  0  0  0  0999 V2000
   18.5904  -15.9846  -17.4069 N   0  0  0  0  0  0  0  0  0  0  0  0
   18.1912  -14.6115  -17.7365 C   0  0  1  0  0  0  0  0  0  0  0  0
   17.1503  -14.2030  -16.7181 C   0  0  0  0  0  0  0  0  0  0  0  0
   15.8329  -14.8914  -16.8672 C   0  0  0  0  0  0  0  0  0  0  0  0
   14.8291  -14.4928  -15.8810 C   0  0  0  0  0  0  0  0  0  0  0  0
   13.7051  -15.0410  -15.9054 O   0  0  0  0  0  0  0  0  0  0  0  0
   19.3374  -13.6795  -17.5488 C   0  0  0  0  0  0  0  0  0  0  0  0
   20.2853  -13.9816  -16.7796 O   0  0  0  0  0  0  0  0  0  0  0  0
   15.0898  -13.5351  -14.9342 O   0  0  0  0  0  0  0  0  0  0  0  0
   19.4292  -12.4238  -18.2097 N   0  0  0  0  0  0  0  0  0  0  0  0
   20.5484  -11.5255  -18.0907 C   0  0  1  0  0  0  0  0  0  0  0  0
   20.8594  -10.9940  -19.4811 C   0  0  0  0  0  0  0  0  0  0  0  0
   22.0354  -10.0986  -19.3840 C   0  0  0  0  0  0  0  0  0  0  0  0
   21.8781   -8.8811  -19.6189 O   0  0  0  0  0  0  0  0  0  0  0  0
   20.2693  -10.4054  -17.1477 C   0  0  0  0  0  0  0  0  0  0  0  0
   19.1912   -9.7636  -17.2270 O   0  0  0  0  0  0  0  0  0  0  0  0
   23.2601  -10.6112  -19.0467 O   0  0  0  0  0  0  0  0  0  0  0  0
   21.3015   -7.8530  -13.0379 C   0  0  0  0  0  0  0  0  0  0  0  0
   21.5987   -9.1144  -13.8732 C   0  0  2  0  0  0  0  0  0  0  0  0
   23.0962   -9.0715  -14.1447 C   0  0  0  0  0  0  0  0  0  0  0  0
   20.8887   -8.9512  -15.1748 C   0  0  2  0  0  0  0  0  0  0  0  0
   21.1670   -9.9980  -16.1305 N   0  0  0  0  0  0  0  0  0  0  0  0
   21.2161   -7.6138  -15.7690 C   0  0  0  0  0  0  0  0  0  0  0  0
   20.5650   -6.4454  -15.4284 O   0  0  0  0  0  0  0  0  0  0  0  0
   22.1314   -7.5529  -16.6240 O   0  0  0  0  0  0  0  0  0  0  0  0
  2  1  1  1
  3  2  1  0
  4  3  1  0
  5  4  1  0
  5  6  2  0
  7  2  1  0
  7  8  2  0
  9  5  1  0
 10  7  1  0
 11 10  1  0
 11 12  1  6
 12 13  1  0
 13 17  1  0
 14 13  2  0
 15 11  1  0
 16 15  2  0
 19 18  1  1
 19 20  1  0
 19 21  1  0
 21 23  1  0
 21 22  1  6
 22 15  1  0
 23 24  1  0
 25 23  2  0
M  END
$$$$
