EDV.pdb
     RDKit          3D

 25 24  0  0  1  0  0  0  0  0999 V2000
   16.6431  -12.3717  -16.9412 N   0  0  0  0  0  0  0  0  0  0  0  0
   16.6450  -11.0187  -17.5094 C   0  0  1  0  0  0  0  0  0  0  0  0
   15.5743  -10.2375  -16.7807 C   0  0  0  0  0  0  0  0  0  0  0  0
   15.7157  -10.2301  -15.2935 C   0  0  0  0  0  0  0  0  0  0  0  0
   16.1331   -8.9449  -14.7339 C   0  0  0  0  0  0  0  0  0  0  0  0
   16.9089   -8.9350  -13.7528 O   0  0  0  0  0  0  0  0  0  0  0  0
   17.9314  -10.3319  -17.2077 C   0  0  0  0  0  0  0  0  0  0  0  0
   18.6858  -10.7622  -16.2981 O   0  0  0  0  0  0  0  0  0  0  0  0
   15.6951   -7.7549  -15.2569 O   0  0  0  0  0  0  0  0  0  0  0  0
   18.3753   -9.1780  -17.9102 N   0  0  0  0  0  0  0  0  0  0  0  0
   19.6619   -8.5595  -17.7213 C   0  0  1  0  0  0  0  0  0  0  0  0
   19.7930   -7.4499  -18.7529 C   0  0  0  0  0  0  0  0  0  0  0  0
   21.1585   -6.8840  -18.6557 C   0  0  0  0  0  0  0  0  0  0  0  0
   21.2818   -5.6526  -18.4811 O   0  0  0  0  0  0  0  0  0  0  0  0
   19.8264   -8.0196  -16.3417 C   0  0  0  0  0  0  0  0  0  0  0  0
   18.8911   -7.3817  -15.7949 O   0  0  0  0  0  0  0  0  0  0  0  0
   22.2493   -7.7060  -18.7608 O   0  0  0  0  0  0  0  0  0  0  0  0
   23.1146   -9.1198  -13.9912 C   0  0  0  0  0  0  0  0  0  0  0  0
   21.8423   -8.5950  -13.2962 C   0  0  2  0  0  0  0  0  0  0  0  0
   20.9379   -9.8104  -13.1453 C   0  0  0  0  0  0  0  0  0  0  0  0
   21.1882   -7.6476  -14.2446 C   0  0  2  0  0  0  0  0  0  0  0  0
   21.0063   -8.1807  -15.5749 N   0  0  0  0  0  0  0  0  0  0  0  0
   21.9693   -6.3690  -14.3067 C   0  0  0  0  0  0  0  0  0  0  0  0
   22.6109   -5.9190  -15.4429 O   0  0  0  0  0  0  0  0  0  0  0  0
   22.0454   -5.6697  -13.2686 O   0  0  0  0  0  0  0  0  0  0  0  0
  2  1  1  1
  3  2  1  0
  4  3  1  0
  5  4  1  0
  5  6  2  0
  7  2  1  0
  7  8  2  0
  9  5  1  0
 10  7  1  0
 11 10  1  0
 11 12  1  6
 12 13  1  0
 13 17  1  0
 14 13  2  0
 15 11  1  0
 16 15  2  0
 19 18  1  6
 19 20  1  0
 19 21  1  0
 21 23  1  0
 21 22  1  6
 22 15  1  0
 23 24  1  0
 25 23  2  0
M  END
$$$$
