EDV.pdb
     RDKit          3D

 25 24  0  0  1  0  0  0  0  0999 V2000
   17.9960   -6.2725  -15.0656 N   0  0  0  0  0  0  0  0  0  0  0  0
   19.4272   -6.2436  -15.3886 C   0  0  1  0  0  0  0  0  0  0  0  0
   20.0726   -5.2717  -14.4260 C   0  0  0  0  0  0  0  0  0  0  0  0
   20.6057   -4.0299  -15.0627 C   0  0  0  0  0  0  0  0  0  0  0  0
   21.0104   -2.9922  -14.1149 C   0  0  0  0  0  0  0  0  0  0  0  0
   20.1367   -2.2371  -13.6341 O   0  0  0  0  0  0  0  0  0  0  0  0
   20.0477   -7.5688  -15.1118 C   0  0  0  0  0  0  0  0  0  0  0  0
   19.4186   -8.4445  -14.4645 O   0  0  0  0  0  0  0  0  0  0  0  0
   22.3204   -2.8275  -13.7427 O   0  0  0  0  0  0  0  0  0  0  0  0
   21.3546   -7.9174  -15.5503 N   0  0  0  0  0  0  0  0  0  0  0  0
   21.8311   -9.2699  -15.6821 C   0  0  1  0  0  0  0  0  0  0  0  0
   20.8193  -10.0323  -16.5234 C   0  0  0  0  0  0  0  0  0  0  0  0
   21.1982  -11.4643  -16.5214 C   0  0  0  0  0  0  0  0  0  0  0  0
   21.3537  -12.0409  -17.6194 O   0  0  0  0  0  0  0  0  0  0  0  0
   23.1849   -9.3286  -16.3032 C   0  0  0  0  0  0  0  0  0  0  0  0
   23.3749   -8.8609  -17.4546 O   0  0  0  0  0  0  0  0  0  0  0  0
   21.3665  -12.1263  -15.3339 O   0  0  0  0  0  0  0  0  0  0  0  0
   27.9850  -10.5902  -16.1546 C   0  0  0  0  0  0  0  0  0  0  0  0
   26.6720  -10.5318  -15.3485 C   0  0  2  0  0  0  0  0  0  0  0  0
   26.3112  -11.9834  -15.0646 C   0  0  0  0  0  0  0  0  0  0  0  0
   25.6307   -9.9659  -16.2543 C   0  0  2  0  0  0  0  0  0  0  0  0
   24.3143   -9.8953  -15.6634 N   0  0  0  0  0  0  0  0  0  0  0  0
   25.5796  -10.7562  -17.5277 C   0  0  0  0  0  0  0  0  0  0  0  0
   26.4142  -10.5286  -18.6032 O   0  0  0  0  0  0  0  0  0  0  0  0
   24.7309  -11.6745  -17.6219 O   0  0  0  0  0  0  0  0  0  0  0  0
  2  1  1  1
  3  2  1  0
  4  3  1  0
  5  4  1  0
  5  6  2  0
  7  2  1  0
  7  8  2  0
  9  5  1  0
 10  7  1  0
 11 10  1  0
 11 12  1  6
 12 13  1  0
 13 17  1  0
 14 13  2  0
 15 11  1  0
 16 15  2  0
 19 18  1  6
 19 20  1  0
 19 21  1  0
 21 23  1  0
 21 22  1  1
 22 15  1  0
 23 24  1  0
 25 23  2  0
M  END
$$$$
