EDV.pdb
     RDKit          3D

 25 24  0  0  1  0  0  0  0  0999 V2000
   14.9531  -11.7762  -14.3683 N   0  0  0  0  0  0  0  0  0  0  0  0
   16.3945  -11.7508  -14.6424 C   0  0  1  0  0  0  0  0  0  0  0  0
   16.6441  -12.7388  -15.7600 C   0  0  0  0  0  0  0  0  0  0  0  0
   16.5313  -14.1728  -15.3568 C   0  0  0  0  0  0  0  0  0  0  0  0
   16.5841  -15.1186  -16.4712 C   0  0  0  0  0  0  0  0  0  0  0  0
   15.5192  -15.6300  -16.8823 O   0  0  0  0  0  0  0  0  0  0  0  0
   16.7974  -10.4193  -15.1739 C   0  0  0  0  0  0  0  0  0  0  0  0
   16.3026   -9.9841  -16.2451 O   0  0  0  0  0  0  0  0  0  0  0  0
   17.7691  -15.4573  -17.0733 O   0  0  0  0  0  0  0  0  0  0  0  0
   17.7411   -9.5794  -14.5211 N   0  0  0  0  0  0  0  0  0  0  0  0
   18.0814   -8.2502  -14.9583 C   0  0  1  0  0  0  0  0  0  0  0  0
   16.8112   -7.4149  -14.9169 C   0  0  0  0  0  0  0  0  0  0  0  0
   17.1504   -6.0329  -15.3282 C   0  0  0  0  0  0  0  0  0  0  0  0
   17.9024   -5.8723  -16.3135 O   0  0  0  0  0  0  0  0  0  0  0  0
   19.1440   -7.6373  -14.1116 C   0  0  0  0  0  0  0  0  0  0  0  0
   18.9758   -7.5172  -12.8714 O   0  0  0  0  0  0  0  0  0  0  0  0
   16.6453   -4.9676  -14.6307 O   0  0  0  0  0  0  0  0  0  0  0  0
   22.9845   -7.2420  -15.6894 C   0  0  0  0  0  0  0  0  0  0  0  0
   22.7778   -7.4694  -14.1785 C   0  0  2  0  0  0  0  0  0  0  0  0
   22.5705   -8.9698  -14.0238 C   0  0  0  0  0  0  0  0  0  0  0  0
   21.5049   -6.7867  -13.8063 C   0  0  2  0  0  0  0  0  0  0  0  0
   20.3758   -7.1629  -14.6251 N   0  0  0  0  0  0  0  0  0  0  0  0
   21.6945   -5.2996  -13.8459 C   0  0  0  0  0  0  0  0  0  0  0  0
   21.0333   -4.4673  -14.7263 O   0  0  0  0  0  0  0  0  0  0  0  0
   22.4994   -4.7828  -13.0350 O   0  0  0  0  0  0  0  0  0  0  0  0
  2  1  1  6
  3  2  1  0
  4  3  1  0
  5  4  1  0
  5  6  2  0
  7  2  1  0
  7  8  2  0
  9  5  1  0
 10  7  1  0
 11 10  1  0
 11 12  1  1
 12 13  1  0
 13 17  1  0
 14 13  2  0
 15 11  1  0
 16 15  2  0
 19 18  1  6
 19 20  1  0
 19 21  1  0
 21 23  1  0
 21 22  1  6
 22 15  1  0
 23 24  1  0
 25 23  2  0
M  END
$$$$
