EDV.pdb
     RDKit          3D

 25 24  0  0  1  0  0  0  0  0999 V2000
   15.9017  -11.4232  -18.2136 N   0  0  0  0  0  0  0  0  0  0  0  0
   15.9383  -10.6161  -16.9885 C   0  0  1  0  0  0  0  0  0  0  0  0
   16.2284  -11.5663  -15.8480 C   0  0  0  0  0  0  0  0  0  0  0  0
   15.1163  -12.5117  -15.5303 C   0  0  0  0  0  0  0  0  0  0  0  0
   15.4489  -13.5166  -14.5210 C   0  0  0  0  0  0  0  0  0  0  0  0
   15.8994  -14.6226  -14.8930 O   0  0  0  0  0  0  0  0  0  0  0  0
   17.0818   -9.6631  -17.0299 C   0  0  0  0  0  0  0  0  0  0  0  0
   18.1641   -9.9895  -17.5811 O   0  0  0  0  0  0  0  0  0  0  0  0
   15.2784  -13.2762  -13.1813 O   0  0  0  0  0  0  0  0  0  0  0  0
   17.0231   -8.3598  -16.4643 N   0  0  0  0  0  0  0  0  0  0  0  0
   18.0821   -7.3883  -16.5560 C   0  0  1  0  0  0  0  0  0  0  0  0
   17.4434   -6.0088  -16.5162 C   0  0  0  0  0  0  0  0  0  0  0  0
   16.7283   -5.7907  -17.7949 C   0  0  0  0  0  0  0  0  0  0  0  0
   15.5091   -5.5182  -17.7567 O   0  0  0  0  0  0  0  0  0  0  0  0
   19.0782   -7.5407  -15.4576 C   0  0  0  0  0  0  0  0  0  0  0  0
   18.6992   -7.5825  -14.2595 O   0  0  0  0  0  0  0  0  0  0  0  0
   17.4031   -5.8930  -18.9827 O   0  0  0  0  0  0  0  0  0  0  0  0
   21.9583  -10.1196  -15.4101 C   0  0  0  0  0  0  0  0  0  0  0  0
   22.5729   -8.7576  -15.0300 C   0  0  2  0  0  0  0  0  0  0  0  0
   23.4183   -9.0307  -13.7935 C   0  0  0  0  0  0  0  0  0  0  0  0
   21.4445   -7.8677  -14.6306 C   0  0  2  0  0  0  0  0  0  0  0  0
   20.4736   -7.6455  -15.6769 N   0  0  0  0  0  0  0  0  0  0  0  0
   21.9801   -6.5554  -14.1406 C   0  0  0  0  0  0  0  0  0  0  0  0
   22.5068   -6.3673  -12.8788 O   0  0  0  0  0  0  0  0  0  0  0  0
   21.9467   -5.5733  -14.9197 O   0  0  0  0  0  0  0  0  0  0  0  0
  2  1  1  6
  3  2  1  0
  4  3  1  0
  5  4  1  0
  5  6  2  0
  7  2  1  0
  7  8  2  0
  9  5  1  0
 10  7  1  0
 11 10  1  0
 11 12  1  1
 12 13  1  0
 13 17  1  0
 14 13  2  0
 15 11  1  0
 16 15  2  0
 19 18  1  1
 19 20  1  0
 19 21  1  0
 21 23  1  0
 21 22  1  6
 22 15  1  0
 23 24  1  0
 25 23  2  0
M  END
$$$$
