EDV.pdb
     RDKit          3D

 25 24  0  0  1  0  0  0  0  0999 V2000
   19.1105   -8.5447  -14.3250 N   0  0  0  0  0  0  0  0  0  0  0  0
   19.1480   -8.6997  -12.8662 C   0  0  1  0  0  0  0  0  0  0  0  0
   20.2324   -7.7765  -12.3567 C   0  0  0  0  0  0  0  0  0  0  0  0
   20.1898   -6.3960  -12.9260 C   0  0  0  0  0  0  0  0  0  0  0  0
   21.2370   -5.5053  -12.4269 C   0  0  0  0  0  0  0  0  0  0  0  0
   22.0947   -5.9611  -11.6388 O   0  0  0  0  0  0  0  0  0  0  0  0
   17.8772   -8.2139  -12.2607 C   0  0  0  0  0  0  0  0  0  0  0  0
   17.1917   -7.3322  -12.8389 O   0  0  0  0  0  0  0  0  0  0  0  0
   21.3000   -4.1870  -12.8005 O   0  0  0  0  0  0  0  0  0  0  0  0
   17.3730   -8.7033  -11.0244 N   0  0  0  0  0  0  0  0  0  0  0  0
   16.1142   -8.3064  -10.4488 C   0  0  1  0  0  0  0  0  0  0  0  0
   15.6483   -9.4353   -9.5426 C   0  0  0  0  0  0  0  0  0  0  0  0
   15.1361  -10.5336  -10.3944 C   0  0  0  0  0  0  0  0  0  0  0  0
   15.7600  -11.6165  -10.4091 O   0  0  0  0  0  0  0  0  0  0  0  0
   16.2245   -7.0297   -9.6873 C   0  0  0  0  0  0  0  0  0  0  0  0
   17.1250   -6.8834   -8.8223 O   0  0  0  0  0  0  0  0  0  0  0  0
   14.0052  -10.3476  -11.1448 O   0  0  0  0  0  0  0  0  0  0  0  0
   13.9531   -3.6353  -10.7469 C   0  0  0  0  0  0  0  0  0  0  0  0
   15.2593   -3.4694   -9.9448 C   0  0  2  0  0  0  0  0  0  0  0  0
   16.3695   -3.4504  -10.9865 C   0  0  0  0  0  0  0  0  0  0  0  0
   15.4219   -4.7009   -9.1191 C   0  0  2  0  0  0  0  0  0  0  0  0
   15.3537   -5.9289   -9.8769 N   0  0  0  0  0  0  0  0  0  0  0  0
   14.3991   -4.7173   -8.0225 C   0  0  0  0  0  0  0  0  0  0  0  0
   14.3901   -3.8228   -6.9714 O   0  0  0  0  0  0  0  0  0  0  0  0
   13.5023   -5.5929   -8.0613 O   0  0  0  0  0  0  0  0  0  0  0  0
  2  1  1  6
  3  2  1  0
  4  3  1  0
  5  4  1  0
  5  6  2  0
  7  2  1  0
  7  8  2  0
  9  5  1  0
 10  7  1  0
 11 10  1  0
 11 12  1  1
 12 13  1  0
 13 17  1  0
 14 13  2  0
 15 11  1  0
 16 15  2  0
 19 18  1  6
 19 20  1  0
 19 21  1  0
 21 23  1  0
 21 22  1  6
 22 15  1  0
 23 24  1  0
 25 23  2  0
M  END
$$$$
