EDV.pdb
     RDKit          3D

 25 24  0  0  1  0  0  0  0  0999 V2000
   17.0265  -12.6894  -15.1144 N   0  0  0  0  0  0  0  0  0  0  0  0
   16.1647  -11.5945  -14.6542 C   0  0  1  0  0  0  0  0  0  0  0  0
   14.9765  -12.2322  -13.9693 C   0  0  0  0  0  0  0  0  0  0  0  0
   14.3465  -13.3504  -14.7338 C   0  0  0  0  0  0  0  0  0  0  0  0
   13.2875  -14.0538  -14.0107 C   0  0  0  0  0  0  0  0  0  0  0  0
   12.1910  -13.4790  -13.8327 O   0  0  0  0  0  0  0  0  0  0  0  0
   16.8593  -10.7926  -13.6092 C   0  0  0  0  0  0  0  0  0  0  0  0
   18.0596  -11.0286  -13.3175 O   0  0  0  0  0  0  0  0  0  0  0  0
   13.4680  -15.3237  -13.5243 O   0  0  0  0  0  0  0  0  0  0  0  0
   16.2261   -9.7383  -12.8953 N   0  0  0  0  0  0  0  0  0  0  0  0
   16.9128   -8.5827  -12.3789 C   0  0  1  0  0  0  0  0  0  0  0  0
   17.6925   -7.9617  -13.5275 C   0  0  0  0  0  0  0  0  0  0  0  0
   18.4570   -6.8079  -12.9998 C   0  0  0  0  0  0  0  0  0  0  0  0
   18.2041   -5.6697  -13.4502 O   0  0  0  0  0  0  0  0  0  0  0  0
   15.9716   -7.5920  -11.7834 C   0  0  0  0  0  0  0  0  0  0  0  0
   15.1760   -6.9527  -12.5175 O   0  0  0  0  0  0  0  0  0  0  0  0
   19.4178   -7.0031  -12.0431 O   0  0  0  0  0  0  0  0  0  0  0  0
   15.4638   -7.1542   -7.5451 C   0  0  0  0  0  0  0  0  0  0  0  0
   14.3378   -6.8565   -8.5555 C   0  0  2  0  0  0  0  0  0  0  0  0
   13.7030   -8.2070   -8.8573 C   0  0  0  0  0  0  0  0  0  0  0  0
   14.9917   -6.3645   -9.8026 C   0  0  2  0  0  0  0  0  0  0  0  0
   15.9084   -7.3097  -10.3968 N   0  0  0  0  0  0  0  0  0  0  0  0
   15.6956   -5.0685   -9.5311 C   0  0  0  0  0  0  0  0  0  0  0  0
   17.0657   -4.9143   -9.5941 O   0  0  0  0  0  0  0  0  0  0  0  0
   15.0015   -4.0688   -9.2287 O   0  0  0  0  0  0  0  0  0  0  0  0
  2  1  1  1
  3  2  1  0
  4  3  1  0
  5  4  1  0
  5  6  2  0
  7  2  1  0
  7  8  2  0
  9  5  1  0
 10  7  1  0
 11 10  1  0
 11 12  1  6
 12 13  1  0
 13 17  1  0
 14 13  2  0
 15 11  1  0
 16 15  2  0
 19 18  1  1
 19 20  1  0
 19 21  1  0
 21 23  1  0
 21 22  1  1
 22 15  1  0
 23 24  1  0
 25 23  2  0
M  END
$$$$
