CQK.pdb
     RDKit          3D

 25 24  0  0  1  0  0  0  0  0999 V2000
   13.8233  -12.6097  -12.5828 N   0  0  0  0  0  0  0  0  0  0  0  0
   14.2319  -11.4526  -13.3411 C   0  0  1  0  0  0  0  0  0  0  0  0
   13.0076  -10.7627  -13.8802 C   0  0  0  0  0  0  0  0  0  0  0  0
   12.2874  -11.7897  -15.1757 S   0  0  0  0  0  0  0  0  0  0  0  0
   15.0855  -10.5160  -12.5485 C   0  0  0  0  0  0  0  0  0  0  0  0
   14.9723  -10.4839  -11.3010 O   0  0  0  0  0  0  0  0  0  0  0  0
   20.8106   -8.0484  -14.0906 N   0  0  0  0  0  0  0  0  0  0  0  0
   20.3665   -7.3676  -12.9359 C   0  0  0  0  0  0  0  0  0  0  0  0
   21.1587   -6.5914  -12.3528 O   0  0  0  0  0  0  0  0  0  0  0  0
   19.0025   -7.5272  -12.3774 C   0  0  0  0  0  0  0  0  0  0  0  0
   18.2235   -8.5731  -13.1498 C   0  0  0  0  0  0  0  0  0  0  0  0
   16.8710   -8.6912  -12.5484 C   0  0  2  0  0  0  0  0  0  0  0  0
   16.0266   -9.6555  -13.1643 N   0  0  0  0  0  0  0  0  0  0  0  0
   16.2084   -7.3806  -12.2409 C   0  0  0  0  0  0  0  0  0  0  0  0
   15.6638   -6.6677  -13.1224 O   0  0  0  0  0  0  0  0  0  0  0  0
   16.1723   -6.8854  -10.8971 N   0  0  0  0  0  0  0  0  0  0  0  0
   15.4592   -5.6400  -10.5844 C   0  0  1  0  0  0  0  0  0  0  0  0
   14.9880   -5.6962   -9.1477 C   0  0  0  0  0  0  0  0  0  0  0  0
   14.2732   -4.4311   -8.7361 C   0  0  0  0  0  0  0  0  0  0  0  0
   13.8776   -4.6108   -7.2850 C   0  0  0  0  0  0  0  0  0  0  0  0
   12.9804   -3.5009   -6.7960 C   0  0  0  0  0  0  0  0  0  0  0  0
   12.6313   -3.8105   -5.4200 N   0  0  0  0  0  0  0  0  0  0  0  0
   16.3339   -4.4666  -10.8268 C   0  0  0  0  0  0  0  0  0  0  0  0
   15.8163   -3.2185  -11.1239 O   0  0  0  0  0  0  0  0  0  0  0  0
   17.5810   -4.5889  -10.7652 O   0  0  0  0  0  0  0  0  0  0  0  0
  2  1  1  1
  2  5  1  0
  3  2  1  0
  4  3  1  0
  5  6  2  0
  7  8  1  0
  8  9  2  0
  8 10  1  0
 10 11  1  0
 12 11  1  6
 13  5  1  0
 13 12  1  0
 14 12  1  0
 14 15  2  0
 16 14  1  0
 17 16  1  0
 17 23  1  0
 17 18  1  1
 19 18  1  0
 20 19  1  0
 21 20  1  0
 21 22  1  0
 23 24  1  0
 25 23  2  0
M  END
$$$$
