CQK.pdb
     RDKit          3D

 25 24  0  0  1  0  0  0  0  0999 V2000
   20.5225  -11.5128  -15.2963 N   0  0  0  0  0  0  0  0  0  0  0  0
   20.9550  -10.2387  -14.7761 C   0  0  1  0  0  0  0  0  0  0  0  0
   22.1799   -9.7925  -15.5285 C   0  0  0  0  0  0  0  0  0  0  0  0
   23.5214  -10.9486  -15.1884 S   0  0  0  0  0  0  0  0  0  0  0  0
   19.8778   -9.2033  -14.8180 C   0  0  0  0  0  0  0  0  0  0  0  0
   19.1309   -9.1303  -15.8214 O   0  0  0  0  0  0  0  0  0  0  0  0
   17.3615   -6.0342   -9.8376 N   0  0  0  0  0  0  0  0  0  0  0  0
   17.0608   -7.3101  -10.3626 C   0  0  0  0  0  0  0  0  0  0  0  0
   16.3628   -8.0936   -9.6777 O   0  0  0  0  0  0  0  0  0  0  0  0
   17.5327   -7.7698  -11.6907 C   0  0  0  0  0  0  0  0  0  0  0  0
   18.4301   -6.7305  -12.3325 C   0  0  0  0  0  0  0  0  0  0  0  0
   18.7759   -7.1889  -13.7018 C   0  0  2  0  0  0  0  0  0  0  0  0
   19.6701   -8.2935  -13.7529 N   0  0  0  0  0  0  0  0  0  0  0  0
   19.0849   -6.0850  -14.6699 C   0  0  0  0  0  0  0  0  0  0  0  0
   20.2474   -5.6393  -14.8486 O   0  0  0  0  0  0  0  0  0  0  0  0
   18.0383   -5.4869  -15.4441 N   0  0  0  0  0  0  0  0  0  0  0  0
   18.3434   -4.4163  -16.4021 C   0  0  1  0  0  0  0  0  0  0  0  0
   17.3636   -4.4982  -17.5522 C   0  0  0  0  0  0  0  0  0  0  0  0
   17.6045   -3.4178  -18.5796 C   0  0  0  0  0  0  0  0  0  0  0  0
   16.5851   -3.6321  -19.6793 C   0  0  0  0  0  0  0  0  0  0  0  0
   16.7042   -2.6039  -20.7768 C   0  0  0  0  0  0  0  0  0  0  0  0
   15.5961   -2.8255  -21.6901 N   0  0  0  0  0  0  0  0  0  0  0  0
   18.2924   -3.0926  -15.7344 C   0  0  0  0  0  0  0  0  0  0  0  0
   19.1508   -2.0651  -16.0826 O   0  0  0  0  0  0  0  0  0  0  0  0
   17.4541   -2.8789  -14.8257 O   0  0  0  0  0  0  0  0  0  0  0  0
  2  1  1  6
  2  5  1  0
  3  2  1  0
  4  3  1  0
  5  6  2  0
  7  8  1  0
  8  9  2  0
  8 10  1  0
 10 11  1  0
 12 11  1  1
 13  5  1  0
 13 12  1  0
 14 12  1  0
 14 15  2  0
 16 14  1  0
 17 16  1  0
 17 23  1  0
 17 18  1  6
 19 18  1  0
 20 19  1  0
 21 20  1  0
 21 22  1  0
 23 24  1  0
 25 23  2  0
M  END
$$$$
