CQK.pdb
     RDKit          3D

 25 24  0  0  1  0  0  0  0  0999 V2000
   27.0492  -20.8819   -9.1878 N   0  0  0  0  0  0  0  0  0  0  0  0
   25.7389  -21.1331   -9.7364 C   0  0  1  0  0  0  0  0  0  0  0  0
   24.7023  -20.5385   -8.8214 C   0  0  0  0  0  0  0  0  0  0  0  0
   24.6717  -21.4864   -7.2876 S   0  0  0  0  0  0  0  0  0  0  0  0
   25.5925  -20.6258  -11.1347 C   0  0  0  0  0  0  0  0  0  0  0  0
   26.0963  -19.5217  -11.4464 O   0  0  0  0  0  0  0  0  0  0  0  0
   27.4921  -20.6639  -15.5683 N   0  0  0  0  0  0  0  0  0  0  0  0
   26.3148  -20.7281  -16.3451 C   0  0  0  0  0  0  0  0  0  0  0  0
   26.3241  -20.2291  -17.4945 O   0  0  0  0  0  0  0  0  0  0  0  0
   25.0625  -21.3600  -15.8650 C   0  0  0  0  0  0  0  0  0  0  0  0
   25.2516  -21.9452  -14.4797 C   0  0  0  0  0  0  0  0  0  0  0  0
   24.6767  -21.0014  -13.4881 C   0  0  2  0  0  0  0  0  0  0  0  0
   24.8976  -21.3566  -12.1289 N   0  0  0  0  0  0  0  0  0  0  0  0
   23.2824  -20.5425  -13.7990 C   0  0  0  0  0  0  0  0  0  0  0  0
   22.2712  -21.2724  -13.6356 O   0  0  0  0  0  0  0  0  0  0  0  0
   23.0506  -19.2223  -14.3047 N   0  0  0  0  0  0  0  0  0  0  0  0
   21.6984  -18.8056  -14.6985 C   0  0  1  0  0  0  0  0  0  0  0  0
   21.6822  -18.5510  -16.1899 C   0  0  0  0  0  0  0  0  0  0  0  0
   20.3376  -18.0540  -16.6651 C   0  0  0  0  0  0  0  0  0  0  0  0
   20.4824  -17.7637  -18.1448 C   0  0  0  0  0  0  0  0  0  0  0  0
   19.2056  -17.2365  -18.7510 C   0  0  0  0  0  0  0  0  0  0  0  0
   19.4946  -16.9122  -20.1375 N   0  0  0  0  0  0  0  0  0  0  0  0
   20.7042  -19.8356  -14.3095 C   0  0  0  0  0  0  0  0  0  0  0  0
   20.5853  -21.0317  -14.9943 O   0  0  0  0  0  0  0  0  0  0  0  0
   19.9403  -19.6353  -13.3345 O   0  0  0  0  0  0  0  0  0  0  0  0
  2  1  1  1
  2  5  1  0
  3  2  1  0
  4  3  1  0
  5  6  2  0
  7  8  1  0
  8  9  2  0
  8 10  1  0
 10 11  1  0
 12 11  1  6
 13  5  1  0
 13 12  1  0
 14 12  1  0
 14 15  2  0
 16 14  1  0
 17 16  1  0
 17 23  1  0
 17 18  1  6
 19 18  1  0
 20 19  1  0
 21 20  1  0
 21 22  1  0
 23 24  1  0
 25 23  2  0
M  END
$$$$
