CQK.pdb
     RDKit          3D

 25 24  0  0  1  0  0  0  0  0999 V2000
   24.6015  -11.7844  -16.5737 N   0  0  0  0  0  0  0  0  0  0  0  0
   23.5008  -11.2612  -15.8020 C   0  0  1  0  0  0  0  0  0  0  0  0
   23.7827  -11.4749  -14.3389 C   0  0  0  0  0  0  0  0  0  0  0  0
   24.0743  -13.2318  -14.0561 S   0  0  0  0  0  0  0  0  0  0  0  0
   23.2177   -9.8245  -16.1021 C   0  0  0  0  0  0  0  0  0  0  0  0
   24.1517   -9.0762  -16.4732 O   0  0  0  0  0  0  0  0  0  0  0  0
   21.6806   -4.8790  -18.6203 N   0  0  0  0  0  0  0  0  0  0  0  0
   22.8947   -5.2185  -17.9843 C   0  0  0  0  0  0  0  0  0  0  0  0
   23.7981   -4.3533  -17.9106 O   0  0  0  0  0  0  0  0  0  0  0  0
   23.1538   -6.5548  -17.3967 C   0  0  0  0  0  0  0  0  0  0  0  0
   21.9923   -7.4926  -17.6590 C   0  0  0  0  0  0  0  0  0  0  0  0
   21.4746   -7.9763  -16.3541 C   0  0  2  0  0  0  0  0  0  0  0  0
   21.9184   -9.2746  -15.9806 N   0  0  0  0  0  0  0  0  0  0  0  0
   20.0126   -7.7235  -16.1306 C   0  0  0  0  0  0  0  0  0  0  0  0
   19.4816   -6.5956  -16.2975 O   0  0  0  0  0  0  0  0  0  0  0  0
   19.1501   -8.7870  -15.7095 N   0  0  0  0  0  0  0  0  0  0  0  0
   17.7273   -8.5301  -15.4509 C   0  0  1  0  0  0  0  0  0  0  0  0
   17.0214   -9.8538  -15.2537 C   0  0  0  0  0  0  0  0  0  0  0  0
   15.5318   -9.6803  -15.0757 C   0  0  0  0  0  0  0  0  0  0  0  0
   14.9483  -11.0711  -14.9357 C   0  0  0  0  0  0  0  0  0  0  0  0
   13.4399  -11.0626  -14.9571 C   0  0  0  0  0  0  0  0  0  0  0  0
   13.0038  -12.4386  -14.7916 N   0  0  0  0  0  0  0  0  0  0  0  0
   17.5661   -7.6442  -14.2720 C   0  0  0  0  0  0  0  0  0  0  0  0
   16.5601   -6.6970  -14.2021 O   0  0  0  0  0  0  0  0  0  0  0  0
   18.3541   -7.7410  -13.3005 O   0  0  0  0  0  0  0  0  0  0  0  0
  2  1  1  6
  2  5  1  0
  3  2  1  0
  4  3  1  0
  5  6  2  0
  7  8  1  0
  8  9  2  0
  8 10  1  0
 10 11  1  0
 12 11  1  6
 13  5  1  0
 13 12  1  0
 14 12  1  0
 14 15  2  0
 16 14  1  0
 17 16  1  0
 17 23  1  0
 17 18  1  1
 19 18  1  0
 20 19  1  0
 21 20  1  0
 21 22  1  0
 23 24  1  0
 25 23  2  0
M  END
$$$$
