CQK.pdb
     RDKit          3D

 25 24  0  0  1  0  0  0  0  0999 V2000
   18.1190  -10.3954  -16.7688 N   0  0  0  0  0  0  0  0  0  0  0  0
   17.6712  -10.8084  -15.4613 C   0  0  1  0  0  0  0  0  0  0  0  0
   18.3083  -12.1286  -15.1195 C   0  0  0  0  0  0  0  0  0  0  0  0
   17.5685  -13.4120  -16.1478 S   0  0  0  0  0  0  0  0  0  0  0  0
   17.9390   -9.7811  -14.4091 C   0  0  0  0  0  0  0  0  0  0  0  0
   17.5098   -9.9629  -13.2460 O   0  0  0  0  0  0  0  0  0  0  0  0
   22.4183   -6.8061  -13.3538 N   0  0  0  0  0  0  0  0  0  0  0  0
   21.6205   -5.7685  -12.8240 C   0  0  0  0  0  0  0  0  0  0  0  0
   22.1089   -5.0239  -11.9424 O   0  0  0  0  0  0  0  0  0  0  0  0
   20.2268   -5.5160  -13.2620 C   0  0  0  0  0  0  0  0  0  0  0  0
   19.8318   -6.4658  -14.3752 C   0  0  0  0  0  0  0  0  0  0  0  0
   18.9470   -7.5141  -13.8070 C   0  0  2  0  0  0  0  0  0  0  0  0
   18.6676   -8.5983  -14.6837 N   0  0  0  0  0  0  0  0  0  0  0  0
   17.7572   -6.9882  -13.0591 C   0  0  0  0  0  0  0  0  0  0  0  0
   16.7923   -6.4155  -13.6274 O   0  0  0  0  0  0  0  0  0  0  0  0
   17.6785   -7.1255  -11.6353 N   0  0  0  0  0  0  0  0  0  0  0  0
   16.5335   -6.5740  -10.8990 C   0  0  1  0  0  0  0  0  0  0  0  0
   15.7661   -7.7145  -10.2668 C   0  0  0  0  0  0  0  0  0  0  0  0
   14.5308   -7.2335   -9.5431 C   0  0  0  0  0  0  0  0  0  0  0  0
   13.8433   -8.4669   -8.9949 C   0  0  0  0  0  0  0  0  0  0  0  0
   12.5292   -8.1403   -8.3300 C   0  0  0  0  0  0  0  0  0  0  0  0
   11.9064   -9.4038   -7.9740 N   0  0  0  0  0  0  0  0  0  0  0  0
   16.9928   -5.5953   -9.8832 C   0  0  0  0  0  0  0  0  0  0  0  0
   16.1587   -4.6072   -9.3912 O   0  0  0  0  0  0  0  0  0  0  0  0
   18.1673   -5.6483   -9.4452 O   0  0  0  0  0  0  0  0  0  0  0  0
  2  1  1  6
  2  5  1  0
  3  2  1  0
  4  3  1  0
  5  6  2  0
  7  8  1  0
  8  9  2  0
  8 10  1  0
 10 11  1  0
 12 11  1  6
 13  5  1  0
 13 12  1  0
 14 12  1  0
 14 15  2  0
 16 14  1  0
 17 16  1  0
 17 23  1  0
 17 18  1  1
 19 18  1  0
 20 19  1  0
 21 20  1  0
 21 22  1  0
 23 24  1  0
 25 23  2  0
M  END
$$$$
