CQK.pdb
     RDKit          3D

 25 24  0  0  1  0  0  0  0  0999 V2000
   25.5399  -16.3314  -17.1839 N   0  0  0  0  0  0  0  0  0  0  0  0
   24.8156  -15.8171  -16.0474 C   0  0  1  0  0  0  0  0  0  0  0  0
   25.7021  -14.8637  -15.2918 C   0  0  0  0  0  0  0  0  0  0  0  0
   27.1564  -15.7598  -14.7141 S   0  0  0  0  0  0  0  0  0  0  0  0
   23.5211  -15.1758  -16.4310 C   0  0  0  0  0  0  0  0  0  0  0  0
   23.4924  -14.3690  -17.3893 O   0  0  0  0  0  0  0  0  0  0  0  0
   19.6999  -17.9393  -13.7080 N   0  0  0  0  0  0  0  0  0  0  0  0
   19.7270  -18.1808  -15.0989 C   0  0  0  0  0  0  0  0  0  0  0  0
   19.5982  -19.3581  -15.5081 O   0  0  0  0  0  0  0  0  0  0  0  0
   19.9013  -17.1044  -16.1034 C   0  0  0  0  0  0  0  0  0  0  0  0
   19.9020  -15.7424  -15.4383 C   0  0  0  0  0  0  0  0  0  0  0  0
   21.0142  -14.9410  -16.0090 C   0  0  2  0  0  0  0  0  0  0  0  0
   22.3146  -15.4510  -15.7425 N   0  0  0  0  0  0  0  0  0  0  0  0
   20.8714  -13.4584  -15.8284 C   0  0  0  0  0  0  0  0  0  0  0  0
   21.4952  -12.8150  -14.9458 O   0  0  0  0  0  0  0  0  0  0  0  0
   19.9974  -12.7063  -16.6787 N   0  0  0  0  0  0  0  0  0  0  0  0
   19.8810  -11.2506  -16.5214 C   0  0  1  0  0  0  0  0  0  0  0  0
   20.1293  -10.5946  -17.8621 C   0  0  0  0  0  0  0  0  0  0  0  0
   20.0575   -9.0885  -17.7777 C   0  0  0  0  0  0  0  0  0  0  0  0
   20.4374   -8.5603  -19.1456 C   0  0  0  0  0  0  0  0  0  0  0  0
   20.5738   -7.0580  -19.1601 C   0  0  0  0  0  0  0  0  0  0  0  0
   21.0153   -6.6833  -20.4927 N   0  0  0  0  0  0  0  0  0  0  0  0
   18.5486  -10.8926  -15.9766 C   0  0  0  0  0  0  0  0  0  0  0  0
   18.3632   -9.7852  -15.1684 O   0  0  0  0  0  0  0  0  0  0  0  0
   17.5487  -11.6015  -16.2447 O   0  0  0  0  0  0  0  0  0  0  0  0
  2  1  1  6
  2  5  1  0
  3  2  1  0
  4  3  1  0
  5  6  2  0
  7  8  1  0
  8  9  2  0
  8 10  1  0
 10 11  1  0
 12 11  1  1
 13  5  1  0
 13 12  1  0
 14 12  1  0
 14 15  2  0
 16 14  1  0
 17 16  1  0
 17 23  1  0
 17 18  1  6
 19 18  1  0
 20 19  1  0
 21 20  1  0
 21 22  1  0
 23 24  1  0
 25 23  2  0
M  END
$$$$
