CQK.pdb
     RDKit          3D

 25 24  0  0  1  0  0  0  0  0999 V2000
   28.2435  -20.8845  -16.8961 N   0  0  0  0  0  0  0  0  0  0  0  0
   27.6857  -19.9320  -15.9675 C   0  0  1  0  0  0  0  0  0  0  0  0
   27.2739  -18.6960  -16.7214 C   0  0  0  0  0  0  0  0  0  0  0  0
   28.7565  -17.7814  -17.1878 S   0  0  0  0  0  0  0  0  0  0  0  0
   26.5500  -20.4957  -15.1758 C   0  0  0  0  0  0  0  0  0  0  0  0
   25.7111  -21.2352  -15.7410 O   0  0  0  0  0  0  0  0  0  0  0  0
   25.9355  -20.5884   -8.6964 N   0  0  0  0  0  0  0  0  0  0  0  0
   24.7976  -21.2060   -9.2599 C   0  0  0  0  0  0  0  0  0  0  0  0
   23.9901  -21.7884   -8.4991 O   0  0  0  0  0  0  0  0  0  0  0  0
   24.5105  -21.1990  -10.7144 C   0  0  0  0  0  0  0  0  0  0  0  0
   25.6551  -20.5730  -11.4860 C   0  0  0  0  0  0  0  0  0  0  0  0
   25.3354  -20.6356  -12.9346 C   0  0  2  0  0  0  0  0  0  0  0  0
   26.3878  -20.2206  -13.7962 N   0  0  0  0  0  0  0  0  0  0  0  0
   23.9798  -20.1048  -13.2978 C   0  0  0  0  0  0  0  0  0  0  0  0
   23.7416  -18.8775  -13.4351 O   0  0  0  0  0  0  0  0  0  0  0  0
   22.8830  -21.0025  -13.5069 N   0  0  0  0  0  0  0  0  0  0  0  0
   21.5532  -20.4818  -13.8500 C   0  0  1  0  0  0  0  0  0  0  0  0
   21.1112  -21.0993  -15.1586 C   0  0  0  0  0  0  0  0  0  0  0  0
   19.7843  -20.5492  -15.6250 C   0  0  0  0  0  0  0  0  0  0  0  0
   18.8640  -21.7382  -15.8088 C   0  0  0  0  0  0  0  0  0  0  0  0
   17.5160  -21.3379  -16.3552 C   0  0  0  0  0  0  0  0  0  0  0  0
   16.7686  -22.5627  -16.5845 N   0  0  0  0  0  0  0  0  0  0  0  0
   20.5882  -20.7642  -12.7593 C   0  0  0  0  0  0  0  0  0  0  0  0
   19.6185  -19.8505  -12.3868 O   0  0  0  0  0  0  0  0  0  0  0  0
   20.6364  -21.8571  -12.1448 O   0  0  0  0  0  0  0  0  0  0  0  0
  2  1  1  6
  2  5  1  0
  3  2  1  0
  4  3  1  0
  5  6  2  0
  7  8  1  0
  8  9  2  0
  8 10  1  0
 10 11  1  0
 12 11  1  1
 13  5  1  0
 13 12  1  0
 14 12  1  0
 14 15  2  0
 16 14  1  0
 17 16  1  0
 17 23  1  0
 17 18  1  6
 19 18  1  0
 20 19  1  0
 21 20  1  0
 21 22  1  0
 23 24  1  0
 25 23  2  0
M  END
$$$$
