CQK.pdb
     RDKit          3D

 25 24  0  0  1  0  0  0  0  0999 V2000
   21.8988  -13.2021  -18.7588 N   0  0  0  0  0  0  0  0  0  0  0  0
   21.4993  -11.9179  -19.2805 C   0  0  1  0  0  0  0  0  0  0  0  0
   20.6733  -12.1284  -20.5210 C   0  0  0  0  0  0  0  0  0  0  0  0
   20.2642  -10.5190  -21.2242 S   0  0  0  0  0  0  0  0  0  0  0  0
   20.7735  -11.0866  -18.2724 C   0  0  0  0  0  0  0  0  0  0  0  0
   19.6311  -11.4346  -17.8932 O   0  0  0  0  0  0  0  0  0  0  0  0
   22.2650   -9.0677  -12.7512 N   0  0  0  0  0  0  0  0  0  0  0  0
   21.1642   -8.2569  -13.1041 C   0  0  0  0  0  0  0  0  0  0  0  0
   20.6308   -7.5477  -12.2193 O   0  0  0  0  0  0  0  0  0  0  0  0
   20.6061   -8.2035  -14.4765 C   0  0  0  0  0  0  0  0  0  0  0  0
   21.3629   -9.1351  -15.4021 C   0  0  0  0  0  0  0  0  0  0  0  0
   20.7735   -9.0292  -16.7607 C   0  0  2  0  0  0  0  0  0  0  0  0
   21.3376   -9.9083  -17.7258 N   0  0  0  0  0  0  0  0  0  0  0  0
   20.5596   -7.6236  -17.2402 C   0  0  0  0  0  0  0  0  0  0  0  0
   21.4497   -6.9619  -17.8332 O   0  0  0  0  0  0  0  0  0  0  0  0
   19.3006   -6.9720  -17.0336 N   0  0  0  0  0  0  0  0  0  0  0  0
   19.0938   -5.5938  -17.4974 C   0  0  1  0  0  0  0  0  0  0  0  0
   17.6816   -5.4642  -18.0249 C   0  0  0  0  0  0  0  0  0  0  0  0
   17.4159   -4.0940  -18.6018 C   0  0  0  0  0  0  0  0  0  0  0  0
   16.0246   -4.1389  -19.1991 C   0  0  0  0  0  0  0  0  0  0  0  0
   15.6413   -2.8343  -19.8525 C   0  0  0  0  0  0  0  0  0  0  0  0
   15.7661   -1.7986  -18.8412 N   0  0  0  0  0  0  0  0  0  0  0  0
   19.3570   -4.6319  -16.3991 C   0  0  0  0  0  0  0  0  0  0  0  0
   20.3251   -3.6493  -16.5047 O   0  0  0  0  0  0  0  0  0  0  0  0
   18.6934   -4.6947  -15.3361 O   0  0  0  0  0  0  0  0  0  0  0  0
  2  1  1  1
  2  5  1  0
  3  2  1  0
  4  3  1  0
  5  6  2  0
  7  8  1  0
  8  9  2  0
  8 10  1  0
 10 11  1  0
 12 11  1  1
 13  5  1  0
 13 12  1  0
 14 12  1  0
 14 15  2  0
 16 14  1  0
 17 16  1  0
 17 23  1  0
 17 18  1  1
 19 18  1  0
 20 19  1  0
 21 20  1  0
 21 22  1  0
 23 24  1  0
 25 23  2  0
M  END
$$$$
