CQK.pdb
     RDKit          3D

 25 24  0  0  1  0  0  0  0  0999 V2000
   27.9146  -20.4177  -17.2095 N   0  0  0  0  0  0  0  0  0  0  0  0
   27.4558  -19.5957  -16.1165 C   0  0  1  0  0  0  0  0  0  0  0  0
   26.9599  -18.2843  -16.6642 C   0  0  0  0  0  0  0  0  0  0  0  0
   28.3799  -17.2911  -17.1631 S   0  0  0  0  0  0  0  0  0  0  0  0
   26.4144  -20.2718  -15.2843 C   0  0  0  0  0  0  0  0  0  0  0  0
   25.5408  -20.9762  -15.8417 O   0  0  0  0  0  0  0  0  0  0  0  0
   26.0773  -20.4722   -8.7634 N   0  0  0  0  0  0  0  0  0  0  0  0
   24.8727  -20.9975   -9.2801 C   0  0  0  0  0  0  0  0  0  0  0  0
   24.0281  -21.4646   -8.4810 O   0  0  0  0  0  0  0  0  0  0  0  0
   24.5572  -21.0234  -10.7284 C   0  0  0  0  0  0  0  0  0  0  0  0
   25.7179  -20.4864  -11.5419 C   0  0  0  0  0  0  0  0  0  0  0  0
   25.3504  -20.5425  -12.9794 C   0  0  2  0  0  0  0  0  0  0  0  0
   26.3805  -20.1426  -13.8745 N   0  0  0  0  0  0  0  0  0  0  0  0
   23.9919  -19.9907  -13.2980 C   0  0  0  0  0  0  0  0  0  0  0  0
   23.7479  -18.7575  -13.3362 O   0  0  0  0  0  0  0  0  0  0  0  0
   22.8991  -20.8739  -13.5777 N   0  0  0  0  0  0  0  0  0  0  0  0
   21.5555  -20.3356  -13.8273 C   0  0  1  0  0  0  0  0  0  0  0  0
   21.1955  -20.5781  -15.2768 C   0  0  0  0  0  0  0  0  0  0  0  0
   21.2904  -19.3171  -16.1026 C   0  0  0  0  0  0  0  0  0  0  0  0
   20.3202  -19.4806  -17.2543 C   0  0  0  0  0  0  0  0  0  0  0  0
   20.3972  -18.3352  -18.2330 C   0  0  0  0  0  0  0  0  0  0  0  0
   19.3653  -18.5579  -19.2313 N   0  0  0  0  0  0  0  0  0  0  0  0
   20.5695  -20.9554  -12.9086 C   0  0  0  0  0  0  0  0  0  0  0  0
   19.3451  -20.3672  -12.6462 O   0  0  0  0  0  0  0  0  0  0  0  0
   20.8344  -22.0439  -12.3436 O   0  0  0  0  0  0  0  0  0  0  0  0
  2  1  1  6
  2  5  1  0
  3  2  1  0
  4  3  1  0
  5  6  2  0
  7  8  1  0
  8  9  2  0
  8 10  1  0
 10 11  1  0
 12 11  1  1
 13  5  1  0
 13 12  1  0
 14 12  1  0
 14 15  2  0
 16 14  1  0
 17 16  1  0
 17 23  1  0
 17 18  1  6
 19 18  1  0
 20 19  1  0
 21 20  1  0
 21 22  1  0
 23 24  1  0
 25 23  2  0
M  END
$$$$
