CQK.pdb
     RDKit          3D

 25 24  0  0  1  0  0  0  0  0999 V2000
   25.0941  -14.2018  -17.9177 N   0  0  0  0  0  0  0  0  0  0  0  0
   24.8312  -13.4474  -16.7167 C   0  0  1  0  0  0  0  0  0  0  0  0
   26.1377  -12.9672  -16.1438 C   0  0  0  0  0  0  0  0  0  0  0  0
   27.1306  -14.4009  -15.6850 S   0  0  0  0  0  0  0  0  0  0  0  0
   23.8821  -12.3151  -16.9432 C   0  0  0  0  0  0  0  0  0  0  0  0
   24.0188  -11.5885  -17.9548 O   0  0  0  0  0  0  0  0  0  0  0  0
   17.9461  -12.3414  -15.0435 N   0  0  0  0  0  0  0  0  0  0  0  0
   18.6154  -12.8864  -16.1609 C   0  0  0  0  0  0  0  0  0  0  0  0
   18.0327  -13.7601  -16.8445 O   0  0  0  0  0  0  0  0  0  0  0  0
   19.9803  -12.4734  -16.5667 C   0  0  0  0  0  0  0  0  0  0  0  0
   20.4972  -11.3670  -15.6689 C   0  0  0  0  0  0  0  0  0  0  0  0
   21.8595  -10.9902  -16.1238 C   0  0  2  0  0  0  0  0  0  0  0  0
   22.8238  -12.0324  -16.0457 N   0  0  0  0  0  0  0  0  0  0  0  0
   22.3352   -9.6556  -15.6300 C   0  0  0  0  0  0  0  0  0  0  0  0
   22.9779   -9.5139  -14.5582 O   0  0  0  0  0  0  0  0  0  0  0  0
   22.0669   -8.4672  -16.3837 N   0  0  0  0  0  0  0  0  0  0  0  0
   22.5027   -7.1570  -15.8830 C   0  0  1  0  0  0  0  0  0  0  0  0
   22.4115   -6.1505  -17.0090 C   0  0  0  0  0  0  0  0  0  0  0  0
   22.7318   -4.7497  -16.5440 C   0  0  0  0  0  0  0  0  0  0  0  0
   22.4891   -3.8355  -17.7270 C   0  0  0  0  0  0  0  0  0  0  0  0
   22.7771   -2.3910  -17.4010 C   0  0  0  0  0  0  0  0  0  0  0  0
   22.3597   -1.6039  -18.5489 N   0  0  0  0  0  0  0  0  0  0  0  0
   21.6818   -6.7480  -14.7170 C   0  0  0  0  0  0  0  0  0  0  0  0
   20.3634   -7.1434  -14.5770 O   0  0  0  0  0  0  0  0  0  0  0  0
   22.1788   -6.0231  -13.8217 O   0  0  0  0  0  0  0  0  0  0  0  0
  2  1  1  6
  2  5  1  0
  3  2  1  0
  4  3  1  0
  5  6  2  0
  7  8  1  0
  8  9  2  0
  8 10  1  0
 10 11  1  0
 12 11  1  1
 13  5  1  0
 13 12  1  0
 14 12  1  0
 14 15  2  0
 16 14  1  0
 17 16  1  0
 17 23  1  0
 17 18  1  6
 19 18  1  0
 20 19  1  0
 21 20  1  0
 21 22  1  0
 23 24  1  0
 25 23  2  0
M  END
$$$$
