LQI.pdb
     RDKit          3D

 26 25  0  0  1  0  0  0  0  0999 V2000
    9.4015  -13.4449   18.9440 C   0  0  0  0  0  0  0  0  0  0  0  0
    7.8797  -13.3964   19.1141 C   0  0  2  0  0  0  0  0  0  0  0  0
    7.4277  -11.9398   19.0816 C   0  0  0  0  0  0  0  0  0  0  0  0
    7.4671  -14.0874   20.3864 C   0  0  0  0  0  0  0  0  0  0  0  0
    7.8711  -15.5189   20.3453 C   0  0  2  0  0  0  0  0  0  0  0  0
    6.9984  -16.3016   19.5118 N   0  0  0  0  0  0  0  0  0  0  0  0
    7.9130  -16.0806   21.7387 C   0  0  0  0  0  0  0  0  0  0  0  0
    6.8722  -16.1293   22.4174 O   0  0  0  0  0  0  0  0  0  0  0  0
   12.0769  -20.1356   23.9596 N   0  0  0  0  0  0  0  0  0  0  0  0
   11.4314  -19.7328   25.1634 C   0  0  0  0  0  0  0  0  0  0  0  0
   11.7119  -20.3237   26.2277 O   0  0  0  0  0  0  0  0  0  0  0  0
   10.4384  -18.6122   25.1034 C   0  0  0  0  0  0  0  0  0  0  0  0
   10.3294  -18.1092   23.6793 C   0  0  0  0  0  0  0  0  0  0  0  0
    9.2721  -17.0275   23.6162 C   0  0  2  0  0  0  0  0  0  0  0  0
    9.1466  -16.5498   22.2627 N   0  0  0  0  0  0  0  0  0  0  0  0
    9.6694  -15.9177   24.5461 C   0  0  0  0  0  0  0  0  0  0  0  0
   10.7014  -15.2403   24.3124 O   0  0  0  0  0  0  0  0  0  0  0  0
    6.6704  -11.9329   25.5558 C   0  0  0  0  0  0  0  0  0  0  0  0
    7.8368  -12.8875   25.4498 C   0  0  0  0  0  0  0  0  0  0  0  0
    8.1884  -13.5403   26.7452 C   0  0  2  0  0  0  0  0  0  0  0  0
    8.4912  -12.4599   27.7578 C   0  0  0  0  0  0  0  0  0  0  0  0
    9.2413  -14.5873   26.6647 C   0  0  2  0  0  0  0  0  0  0  0  0
    8.8831  -15.6282   25.6917 N   0  0  0  0  0  0  0  0  0  0  0  0
    9.6632  -15.1971   27.9173 C   0  0  0  0  0  0  0  0  0  0  0  0
   10.3722  -14.5793   28.7402 O   0  0  0  0  0  0  0  0  0  0  0  0
    9.2808  -16.4917   28.2244 O   0  0  0  0  0  0  0  0  0  0  0  0
  2  1  1  1
  2  4  1  0
  2  3  1  0
  5  7  1  0
  5  6  1  6
  5  4  1  0
  7  8  2  0
  9 10  1  0
 10 11  2  0
 10 12  1  0
 12 13  1  0
 14 13  1  6
 14 16  1  0
 15 14  1  0
 15  7  1  0
 16 17  2  0
 18 19  1  0
 19 20  1  0
 20 22  1  0
 20 21  1  1
 22 24  1  0
 23 16  1  0
 22 23  1  6
 24 25  2  0
 24 26  1  0
M  END
$$$$
