LQI.pdb
     RDKit          3D

 26 25  0  0  1  0  0  0  0  0999 V2000
    9.6928  -13.4565   19.0120 C   0  0  0  0  0  0  0  0  0  0  0  0
    8.1627  -13.4386   19.0868 C   0  0  2  0  0  0  0  0  0  0  0  0
    7.6837  -11.9923   19.0106 C   0  0  0  0  0  0  0  0  0  0  0  0
    7.6860  -14.1260   20.3386 C   0  0  0  0  0  0  0  0  0  0  0  0
    8.2666  -15.4934   20.4240 C   0  0  2  0  0  0  0  0  0  0  0  0
    7.5399  -16.4388   19.6197 N   0  0  0  0  0  0  0  0  0  0  0  0
    8.3101  -15.9439   21.8571 C   0  0  0  0  0  0  0  0  0  0  0  0
    7.2566  -16.0217   22.5133 O   0  0  0  0  0  0  0  0  0  0  0  0
   12.6425  -19.7781   24.0445 N   0  0  0  0  0  0  0  0  0  0  0  0
   11.9538  -19.4636   25.2507 C   0  0  0  0  0  0  0  0  0  0  0  0
   12.2513  -20.0798   26.2959 O   0  0  0  0  0  0  0  0  0  0  0  0
   10.8966  -18.4024   25.2160 C   0  0  0  0  0  0  0  0  0  0  0  0
   10.7877  -17.8430   23.8131 C   0  0  0  0  0  0  0  0  0  0  0  0
    9.6599  -16.8339   23.7689 C   0  0  2  0  0  0  0  0  0  0  0  0
    9.5597  -16.2758   22.4444 N   0  0  0  0  0  0  0  0  0  0  0  0
    9.9365  -15.7649   24.7861 C   0  0  0  0  0  0  0  0  0  0  0  0
   10.8803  -14.9551   24.6069 O   0  0  0  0  0  0  0  0  0  0  0  0
    6.3259  -12.3997   26.3002 C   0  0  0  0  0  0  0  0  0  0  0  0
    7.6056  -13.1560   26.0292 C   0  0  0  0  0  0  0  0  0  0  0  0
    8.1625  -13.8317   27.2380 C   0  0  2  0  0  0  0  0  0  0  0  0
    8.3466  -12.7951   28.3223 C   0  0  0  0  0  0  0  0  0  0  0  0
    9.3733  -14.6618   27.0015 C   0  0  2  0  0  0  0  0  0  0  0  0
    9.1353  -15.6634   25.9532 N   0  0  0  0  0  0  0  0  0  0  0  0
    9.9805  -15.2904   28.1655 C   0  0  0  0  0  0  0  0  0  0  0  0
   10.7663  -14.6672   28.9110 O   0  0  0  0  0  0  0  0  0  0  0  0
    9.6943  -16.6096   28.4726 O   0  0  0  0  0  0  0  0  0  0  0  0
  2  1  1  1
  2  4  1  0
  2  3  1  0
  5  7  1  0
  5  6  1  6
  5  4  1  0
  7  8  2  0
  9 10  1  0
 10 11  2  0
 10 12  1  0
 12 13  1  0
 14 13  1  6
 14 16  1  0
 15 14  1  0
 15  7  1  0
 16 17  2  0
 18 19  1  0
 19 20  1  0
 20 22  1  0
 20 21  1  1
 22 24  1  0
 23 16  1  0
 22 23  1  6
 24 25  2  0
 24 26  1  0
M  END
$$$$
