LQI.pdb
     RDKit          3D

 26 25  0  0  1  0  0  0  0  0999 V2000
    9.5967  -13.5008   19.0734 C   0  0  0  0  0  0  0  0  0  0  0  0
    8.0673  -13.4177   19.1061 C   0  0  2  0  0  0  0  0  0  0  0  0
    7.6529  -11.9517   19.0290 C   0  0  0  0  0  0  0  0  0  0  0  0
    7.5269  -14.0932   20.3383 C   0  0  0  0  0  0  0  0  0  0  0  0
    7.9762  -15.5111   20.3832 C   0  0  2  0  0  0  0  0  0  0  0  0
    7.1388  -16.3673   19.5867 N   0  0  0  0  0  0  0  0  0  0  0  0
    8.0187  -15.9911   21.8067 C   0  0  0  0  0  0  0  0  0  0  0  0
    6.9721  -16.0330   22.4769 O   0  0  0  0  0  0  0  0  0  0  0  0
   12.2692  -19.9700   23.9575 N   0  0  0  0  0  0  0  0  0  0  0  0
   11.4389  -19.7917   25.1007 C   0  0  0  0  0  0  0  0  0  0  0  0
   11.5994  -20.5400   26.0880 O   0  0  0  0  0  0  0  0  0  0  0  0
   10.4031  -18.7093   25.0718 C   0  0  0  0  0  0  0  0  0  0  0  0
   10.3804  -18.0679   23.7003 C   0  0  0  0  0  0  0  0  0  0  0  0
    9.3558  -16.9534   23.6922 C   0  0  2  0  0  0  0  0  0  0  0  0
    9.2597  -16.3920   22.3688 N   0  0  0  0  0  0  0  0  0  0  0  0
    9.7746  -15.9135   24.6910 C   0  0  0  0  0  0  0  0  0  0  0  0
   10.8357  -15.2640   24.5154 O   0  0  0  0  0  0  0  0  0  0  0  0
    6.5974  -12.0943   26.2564 C   0  0  0  0  0  0  0  0  0  0  0  0
    7.7629  -13.0065   25.9527 C   0  0  0  0  0  0  0  0  0  0  0  0
    8.2811  -13.7264   27.1532 C   0  0  2  0  0  0  0  0  0  0  0  0
    8.6420  -12.7028   28.2049 C   0  0  0  0  0  0  0  0  0  0  0  0
    9.3653  -14.7086   26.8870 C   0  0  2  0  0  0  0  0  0  0  0  0
    8.9760  -15.6590   25.8364 N   0  0  0  0  0  0  0  0  0  0  0  0
    9.9042  -15.4242   28.0344 C   0  0  0  0  0  0  0  0  0  0  0  0
    9.4282  -16.5181   28.4065 O   0  0  0  0  0  0  0  0  0  0  0  0
   10.9697  -14.8982   28.7447 O   0  0  0  0  0  0  0  0  0  0  0  0
  2  1  1  1
  2  4  1  0
  2  3  1  0
  5  7  1  0
  5  6  1  6
  5  4  1  0
  7  8  2  0
  9 10  1  0
 10 11  2  0
 10 12  1  0
 12 13  1  0
 14 13  1  6
 14 16  1  0
 15 14  1  0
 15  7  1  0
 16 17  2  0
 18 19  1  0
 19 20  1  0
 20 22  1  0
 20 21  1  1
 22 24  1  0
 23 16  1  0
 22 23  1  6
 24 25  2  0
 24 26  1  0
M  END
$$$$
