LQI.pdb
     RDKit          3D

 26 25  0  0  1  0  0  0  0  0999 V2000
    9.4467  -14.3180   19.5220 C   0  0  0  0  0  0  0  0  0  0  0  0
    8.1552  -14.0970   18.7280 C   0  0  2  0  0  0  0  0  0  0  0  0
    8.0170  -12.6097   18.4182 C   0  0  0  0  0  0  0  0  0  0  0  0
    6.9692  -14.6280   19.4883 C   0  0  0  0  0  0  0  0  0  0  0  0
    7.2400  -16.0146   19.9554 C   0  0  2  0  0  0  0  0  0  0  0  0
    6.6382  -16.9997   19.0973 N   0  0  0  0  0  0  0  0  0  0  0  0
    6.7596  -16.1828   21.3694 C   0  0  0  0  0  0  0  0  0  0  0  0
    5.5741  -15.9373   21.6532 O   0  0  0  0  0  0  0  0  0  0  0  0
    7.8322  -20.7343   25.0964 N   0  0  0  0  0  0  0  0  0  0  0  0
    7.1440  -19.8536   25.9789 C   0  0  0  0  0  0  0  0  0  0  0  0
    6.7213  -20.2963   27.0679 O   0  0  0  0  0  0  0  0  0  0  0  0
    6.9547  -18.4265   25.5630 C   0  0  0  0  0  0  0  0  0  0  0  0
    7.4175  -18.2514   24.1319 C   0  0  0  0  0  0  0  0  0  0  0  0
    7.2774  -16.7955   23.7412 C   0  0  2  0  0  0  0  0  0  0  0  0
    7.6708  -16.6219   22.3661 N   0  0  0  0  0  0  0  0  0  0  0  0
    8.1357  -15.9714   24.6568 C   0  0  0  0  0  0  0  0  0  0  0  0
    9.3869  -16.0769   24.6104 O   0  0  0  0  0  0  0  0  0  0  0  0
    5.9398  -11.2253   27.2357 C   0  0  0  0  0  0  0  0  0  0  0  0
    6.4576  -12.6439   27.1875 C   0  0  0  0  0  0  0  0  0  0  0  0
    7.7260  -12.7862   26.4138 C   0  0  2  0  0  0  0  0  0  0  0  0
    7.5052  -12.2263   25.0275 C   0  0  0  0  0  0  0  0  0  0  0  0
    8.3214  -14.1489   26.4134 C   0  0  2  0  0  0  0  0  0  0  0  0
    7.5400  -15.0706   25.5777 N   0  0  0  0  0  0  0  0  0  0  0  0
    8.5880  -14.7533   27.7105 C   0  0  0  0  0  0  0  0  0  0  0  0
    9.3748  -14.2292   28.5279 O   0  0  0  0  0  0  0  0  0  0  0  0
    7.9655  -15.9371   28.0677 O   0  0  0  0  0  0  0  0  0  0  0  0
  2  1  1  1
  2  4  1  0
  2  3  1  0
  5  7  1  0
  5  6  1  6
  5  4  1  0
  7  8  2  0
  9 10  1  0
 10 11  2  0
 10 12  1  0
 12 13  1  0
 14 13  1  1
 14 16  1  0
 15 14  1  0
 15  7  1  0
 16 17  2  0
 18 19  1  0
 19 20  1  0
 20 22  1  0
 20 21  1  6
 22 24  1  0
 23 16  1  0
 22 23  1  1
 24 25  2  0
 24 26  1  0
M  END
$$$$
