LQI.pdb
     RDKit          3D

 26 25  0  0  1  0  0  0  0  0999 V2000
    9.0593  -12.3298   18.6246 C   0  0  0  0  0  0  0  0  0  0  0  0
    7.9976  -13.4225   18.4623 C   0  0  2  0  0  0  0  0  0  0  0  0
    6.7421  -12.8020   17.8576 C   0  0  0  0  0  0  0  0  0  0  0  0
    7.7182  -14.0891   19.7830 C   0  0  0  0  0  0  0  0  0  0  0  0
    8.9853  -14.5892   20.3819 C   0  0  2  0  0  0  0  0  0  0  0  0
    9.6712  -15.5022   19.5074 N   0  0  0  0  0  0  0  0  0  0  0  0
    8.7049  -15.2390   21.7077 C   0  0  0  0  0  0  0  0  0  0  0  0
    7.7420  -14.8539   22.3939 O   0  0  0  0  0  0  0  0  0  0  0  0
   11.7139  -20.4055   23.3089 N   0  0  0  0  0  0  0  0  0  0  0  0
   10.6966  -20.3022   22.3177 C   0  0  0  0  0  0  0  0  0  0  0  0
   10.5673  -21.2240   21.4845 O   0  0  0  0  0  0  0  0  0  0  0  0
    9.8199  -19.0870   22.3151 C   0  0  0  0  0  0  0  0  0  0  0  0
   10.1769  -18.2036   23.4920 C   0  0  0  0  0  0  0  0  0  0  0  0
    9.3479  -16.9384   23.4304 C   0  0  2  0  0  0  0  0  0  0  0  0
    9.5478  -16.2885   22.1601 N   0  0  0  0  0  0  0  0  0  0  0  0
    9.7572  -16.0444   24.5649 C   0  0  0  0  0  0  0  0  0  0  0  0
   10.9262  -15.5867   24.6149 O   0  0  0  0  0  0  0  0  0  0  0  0
    6.0928  -12.4589   25.9816 C   0  0  0  0  0  0  0  0  0  0  0  0
    7.3835  -13.1934   25.7034 C   0  0  0  0  0  0  0  0  0  0  0  0
    7.9607  -13.8561   26.9099 C   0  0  2  0  0  0  0  0  0  0  0  0
    8.2342  -12.7962   27.9520 C   0  0  0  0  0  0  0  0  0  0  0  0
    9.1237  -14.7459   26.6517 C   0  0  2  0  0  0  0  0  0  0  0  0
    8.8280  -15.7120   25.5851 N   0  0  0  0  0  0  0  0  0  0  0  0
    9.6999  -15.4295   27.8004 C   0  0  0  0  0  0  0  0  0  0  0  0
   10.4037  -14.8244   28.6373 O   0  0  0  0  0  0  0  0  0  0  0  0
    9.4754  -16.7824   27.9897 O   0  0  0  0  0  0  0  0  0  0  0  0
  2  1  1  1
  2  4  1  0
  2  3  1  0
  5  7  1  0
  5  6  1  6
  5  4  1  0
  7  8  2  0
  9 10  1  0
 10 11  2  0
 10 12  1  0
 12 13  1  0
 14 13  1  6
 14 16  1  0
 15 14  1  0
 15  7  1  0
 16 17  2  0
 18 19  1  0
 19 20  1  0
 20 22  1  0
 20 21  1  1
 22 24  1  0
 23 16  1  0
 22 23  1  6
 24 25  2  0
 24 26  1  0
M  END
$$$$
