LQI.pdb
     RDKit          3D

 26 25  0  0  1  0  0  0  0  0999 V2000
    9.4708  -13.8312   19.1452 C   0  0  0  0  0  0  0  0  0  0  0  0
    7.9675  -13.5445   19.2166 C   0  0  2  0  0  0  0  0  0  0  0  0
    7.7516  -12.0355   19.1602 C   0  0  0  0  0  0  0  0  0  0  0  0
    7.3708  -14.1544   20.4571 C   0  0  0  0  0  0  0  0  0  0  0  0
    7.6878  -15.6070   20.5163 C   0  0  2  0  0  0  0  0  0  0  0  0
    6.6987  -16.4026   19.8400 N   0  0  0  0  0  0  0  0  0  0  0  0
    7.8274  -16.0439   21.9475 C   0  0  0  0  0  0  0  0  0  0  0  0
    6.8726  -15.9063   22.7321 O   0  0  0  0  0  0  0  0  0  0  0  0
   10.9025  -20.7992   23.8355 N   0  0  0  0  0  0  0  0  0  0  0  0
   10.7788  -20.1682   25.1061 C   0  0  0  0  0  0  0  0  0  0  0  0
   10.9495  -20.8491   26.1394 O   0  0  0  0  0  0  0  0  0  0  0  0
   10.4476  -18.7075   25.1512 C   0  0  0  0  0  0  0  0  0  0  0  0
   10.2937  -18.1803   23.7400 C   0  0  0  0  0  0  0  0  0  0  0  0
    9.2367  -17.0966   23.7293 C   0  0  2  0  0  0  0  0  0  0  0  0
    9.0538  -16.6103   22.3855 N   0  0  0  0  0  0  0  0  0  0  0  0
    9.6756  -15.9933   24.6480 C   0  0  0  0  0  0  0  0  0  0  0  0
   10.6758  -15.2915   24.3553 O   0  0  0  0  0  0  0  0  0  0  0  0
    6.4236  -12.2706   26.2354 C   0  0  0  0  0  0  0  0  0  0  0  0
    7.5983  -13.1589   25.8981 C   0  0  0  0  0  0  0  0  0  0  0  0
    8.2442  -13.7688   27.0976 C   0  0  2  0  0  0  0  0  0  0  0  0
    8.6136  -12.6606   28.0565 C   0  0  0  0  0  0  0  0  0  0  0  0
    9.3664  -14.7013   26.8107 C   0  0  2  0  0  0  0  0  0  0  0  0
    8.9647  -15.7374   25.8496 N   0  0  0  0  0  0  0  0  0  0  0  0
   10.0281  -15.3102   27.9554 C   0  0  0  0  0  0  0  0  0  0  0  0
    9.5536  -16.3145   28.5281 O   0  0  0  0  0  0  0  0  0  0  0  0
   11.2125  -14.7800   28.4377 O   0  0  0  0  0  0  0  0  0  0  0  0
  2  1  1  1
  2  4  1  0
  2  3  1  0
  5  7  1  0
  5  6  1  1
  5  4  1  0
  7  8  2  0
  9 10  1  0
 10 11  2  0
 10 12  1  0
 12 13  1  0
 14 13  1  6
 14 16  1  0
 15 14  1  0
 15  7  1  0
 16 17  2  0
 18 19  1  0
 19 20  1  0
 20 22  1  0
 20 21  1  1
 22 24  1  0
 23 16  1  0
 22 23  1  6
 24 25  2  0
 24 26  1  0
M  END
$$$$
