LQI.pdb
     RDKit          3D

 26 25  0  0  1  0  0  0  0  0999 V2000
    9.0218  -12.6657   18.8496 C   0  0  0  0  0  0  0  0  0  0  0  0
    7.6894  -13.4196   18.9106 C   0  0  2  0  0  0  0  0  0  0  0  0
    6.5636  -12.4587   18.5416 C   0  0  0  0  0  0  0  0  0  0  0  0
    7.4881  -14.0290   20.2725 C   0  0  0  0  0  0  0  0  0  0  0  0
    8.6675  -14.8579   20.6415 C   0  0  2  0  0  0  0  0  0  0  0  0
    8.9250  -15.8901   19.6735 N   0  0  0  0  0  0  0  0  0  0  0  0
    8.4693  -15.4532   22.0071 C   0  0  0  0  0  0  0  0  0  0  0  0
    7.6842  -14.9162   22.8080 O   0  0  0  0  0  0  0  0  0  0  0  0
   11.2824  -20.7791   24.0051 N   0  0  0  0  0  0  0  0  0  0  0  0
   10.5946  -20.3516   25.1766 C   0  0  0  0  0  0  0  0  0  0  0  0
   10.6777  -21.0432   26.2136 O   0  0  0  0  0  0  0  0  0  0  0  0
    9.7965  -19.0849   25.1166 C   0  0  0  0  0  0  0  0  0  0  0  0
    9.9291  -18.4687   23.7398 C   0  0  0  0  0  0  0  0  0  0  0  0
    9.1117  -17.1955   23.6867 C   0  0  2  0  0  0  0  0  0  0  0  0
    9.1851  -16.6263   22.3652 N   0  0  0  0  0  0  0  0  0  0  0  0
    9.6466  -16.2422   24.7159 C   0  0  0  0  0  0  0  0  0  0  0  0
   10.7917  -15.7440   24.5770 O   0  0  0  0  0  0  0  0  0  0  0  0
    6.6878  -12.2579   26.4797 C   0  0  0  0  0  0  0  0  0  0  0  0
    7.7856  -13.2233   26.0980 C   0  0  0  0  0  0  0  0  0  0  0  0
    8.3416  -13.9783   27.2594 C   0  0  2  0  0  0  0  0  0  0  0  0
    8.8282  -12.9829   28.2873 C   0  0  0  0  0  0  0  0  0  0  0  0
    9.3494  -15.0174   26.9189 C   0  0  2  0  0  0  0  0  0  0  0  0
    8.8636  -15.8992   25.8489 N   0  0  0  0  0  0  0  0  0  0  0  0
    9.8780  -15.8102   28.0194 C   0  0  0  0  0  0  0  0  0  0  0  0
    9.4252  -16.9440   28.2862 O   0  0  0  0  0  0  0  0  0  0  0  0
   10.9072  -15.3153   28.8019 O   0  0  0  0  0  0  0  0  0  0  0  0
  2  1  1  1
  2  4  1  0
  2  3  1  0
  5  7  1  0
  5  6  1  6
  5  4  1  0
  7  8  2  0
  9 10  1  0
 10 11  2  0
 10 12  1  0
 12 13  1  0
 14 13  1  6
 14 16  1  0
 15 14  1  0
 15  7  1  0
 16 17  2  0
 18 19  1  0
 19 20  1  0
 20 22  1  0
 20 21  1  1
 22 24  1  0
 23 16  1  0
 22 23  1  6
 24 25  2  0
 24 26  1  0
M  END
$$$$
