LQI.pdb
     RDKit          3D

 26 25  0  0  1  0  0  0  0  0999 V2000
    9.1962  -12.6252   18.8537 C   0  0  0  0  0  0  0  0  0  0  0  0
    7.9120  -13.4528   18.7401 C   0  0  2  0  0  0  0  0  0  0  0  0
    6.7693  -12.5324   18.3228 C   0  0  0  0  0  0  0  0  0  0  0  0
    7.6221  -14.1606   20.0369 C   0  0  0  0  0  0  0  0  0  0  0  0
    8.8105  -14.9452   20.4683 C   0  0  2  0  0  0  0  0  0  0  0  0
    9.1403  -15.9840   19.5296 N   0  0  0  0  0  0  0  0  0  0  0  0
    8.5745  -15.5247   21.8347 C   0  0  0  0  0  0  0  0  0  0  0  0
    7.6264  -15.1128   22.5259 O   0  0  0  0  0  0  0  0  0  0  0  0
   11.5810  -20.5848   24.1630 N   0  0  0  0  0  0  0  0  0  0  0  0
   10.8342  -20.1440   25.2926 C   0  0  0  0  0  0  0  0  0  0  0  0
   10.9006  -20.7981   26.3549 O   0  0  0  0  0  0  0  0  0  0  0  0
    9.9962  -18.9090   25.1598 C   0  0  0  0  0  0  0  0  0  0  0  0
   10.1599  -18.3343   23.7684 C   0  0  0  0  0  0  0  0  0  0  0  0
    9.3217  -17.0792   23.6497 C   0  0  2  0  0  0  0  0  0  0  0  0
    9.4418  -16.5394   22.3193 N   0  0  0  0  0  0  0  0  0  0  0  0
    9.7932  -16.0920   24.6779 C   0  0  0  0  0  0  0  0  0  0  0  0
   10.9822  -15.6862   24.6616 O   0  0  0  0  0  0  0  0  0  0  0  0
    6.6801  -11.9451   25.8440 C   0  0  0  0  0  0  0  0  0  0  0  0
    7.8370  -12.8944   25.6362 C   0  0  0  0  0  0  0  0  0  0  0  0
    8.2611  -13.5945   26.8844 C   0  0  2  0  0  0  0  0  0  0  0  0
    8.6345  -12.5523   27.9132 C   0  0  0  0  0  0  0  0  0  0  0  0
    9.2978  -14.6451   26.7035 C   0  0  2  0  0  0  0  0  0  0  0  0
    8.9004  -15.6126   25.6717 N   0  0  0  0  0  0  0  0  0  0  0  0
    9.7451  -15.3442   27.8994 C   0  0  0  0  0  0  0  0  0  0  0  0
   10.6072  -14.8547   28.6602 O   0  0  0  0  0  0  0  0  0  0  0  0
    9.2156  -16.5824   28.2205 O   0  0  0  0  0  0  0  0  0  0  0  0
  2  1  1  1
  2  4  1  0
  2  3  1  0
  5  7  1  0
  5  6  1  6
  5  4  1  0
  7  8  2  0
  9 10  1  0
 10 11  2  0
 10 12  1  0
 12 13  1  0
 14 13  1  6
 14 16  1  0
 15 14  1  0
 15  7  1  0
 16 17  2  0
 18 19  1  0
 19 20  1  0
 20 22  1  0
 20 21  1  1
 22 24  1  0
 23 16  1  0
 22 23  1  6
 24 25  2  0
 24 26  1  0
M  END
$$$$
