LQI.pdb
     RDKit          3D

 26 25  0  0  1  0  0  0  0  0999 V2000
    6.9688  -12.6024   24.2099 C   0  0  0  0  0  0  0  0  0  0  0  0
    5.7324  -13.0382   25.0027 C   0  0  2  0  0  0  0  0  0  0  0  0
    5.4754  -12.0216   26.1106 C   0  0  0  0  0  0  0  0  0  0  0  0
    5.9154  -14.4306   25.5453 C   0  0  0  0  0  0  0  0  0  0  0  0
    6.1311  -15.3905   24.4289 C   0  0  2  0  0  0  0  0  0  0  0  0
    5.0973  -16.3887   24.3691 N   0  0  0  0  0  0  0  0  0  0  0  0
    7.4813  -16.0369   24.5615 C   0  0  0  0  0  0  0  0  0  0  0  0
    7.7567  -16.6902   25.5831 O   0  0  0  0  0  0  0  0  0  0  0  0
   12.3016  -19.4686   21.8921 N   0  0  0  0  0  0  0  0  0  0  0  0
   11.7346  -18.2668   21.3803 C   0  0  0  0  0  0  0  0  0  0  0  0
   11.2422  -18.2708   20.2322 O   0  0  0  0  0  0  0  0  0  0  0  0
   11.7521  -17.0421   22.2435 C   0  0  0  0  0  0  0  0  0  0  0  0
   10.3959  -16.3704   22.1956 C   0  0  0  0  0  0  0  0  0  0  0  0
    9.6867  -16.5928   23.5145 C   0  0  2  0  0  0  0  0  0  0  0  0
    8.4281  -15.8917   23.5131 N   0  0  0  0  0  0  0  0  0  0  0  0
   10.5755  -16.1052   24.6219 C   0  0  0  0  0  0  0  0  0  0  0  0
   11.4860  -15.2745   24.3782 O   0  0  0  0  0  0  0  0  0  0  0  0
   10.4699  -12.7145   28.0410 C   0  0  0  0  0  0  0  0  0  0  0  0
   11.0087  -13.8422   27.1919 C   0  0  0  0  0  0  0  0  0  0  0  0
   10.9440  -15.1735   27.8638 C   0  0  2  0  0  0  0  0  0  0  0  0
   11.6898  -15.0834   29.1752 C   0  0  0  0  0  0  0  0  0  0  0  0
   11.3587  -16.3297   27.0257 C   0  0  2  0  0  0  0  0  0  0  0  0
   10.3925  -16.5788   25.9473 N   0  0  0  0  0  0  0  0  0  0  0  0
   11.6653  -17.5720   27.7197 C   0  0  0  0  0  0  0  0  0  0  0  0
   12.7712  -17.7583   28.2711 O   0  0  0  0  0  0  0  0  0  0  0  0
   10.7234  -18.5846   27.7826 O   0  0  0  0  0  0  0  0  0  0  0  0
  2  1  1  1
  2  4  1  0
  2  3  1  0
  5  7  1  0
  5  6  1  1
  5  4  1  0
  7  8  2  0
  9 10  1  0
 10 11  2  0
 10 12  1  0
 12 13  1  0
 14 13  1  6
 14 16  1  0
 15 14  1  0
 15  7  1  0
 16 17  2  0
 18 19  1  0
 19 20  1  0
 20 22  1  0
 20 21  1  1
 22 24  1  0
 23 16  1  0
 22 23  1  6
 24 25  2  0
 24 26  1  0
M  END
$$$$
