LQI.pdb
     RDKit          3D

 26 25  0  0  1  0  0  0  0  0999 V2000
    8.9943  -13.2603   19.3095 C   0  0  0  0  0  0  0  0  0  0  0  0
    7.5137  -13.6249   19.4578 C   0  0  2  0  0  0  0  0  0  0  0  0
    6.6679  -12.4299   19.0296 C   0  0  0  0  0  0  0  0  0  0  0  0
    7.2129  -14.0526   20.8697 C   0  0  0  0  0  0  0  0  0  0  0  0
    8.1178  -15.1635   21.2715 C   0  0  2  0  0  0  0  0  0  0  0  0
    7.9436  -16.3268   20.4438 N   0  0  0  0  0  0  0  0  0  0  0  0
    7.8973  -15.5074   22.7177 C   0  0  0  0  0  0  0  0  0  0  0  0
    7.7559  -14.5989   23.5550 O   0  0  0  0  0  0  0  0  0  0  0  0
    6.3895  -21.2604   24.8264 N   0  0  0  0  0  0  0  0  0  0  0  0
    6.5532  -20.5414   26.0448 C   0  0  0  0  0  0  0  0  0  0  0  0
    6.2810  -21.1089   27.1238 O   0  0  0  0  0  0  0  0  0  0  0  0
    7.0472  -19.1281   25.9816 C   0  0  0  0  0  0  0  0  0  0  0  0
    7.2126  -18.7147   24.5343 C   0  0  0  0  0  0  0  0  0  0  0  0
    7.6603  -17.2695   24.4807 C   0  0  2  0  0  0  0  0  0  0  0  0
    7.8532  -16.8717   23.1095 N   0  0  0  0  0  0  0  0  0  0  0  0
    8.9325  -17.1349   25.2664 C   0  0  0  0  0  0  0  0  0  0  0  0
   10.0022  -17.6191   24.8191 O   0  0  0  0  0  0  0  0  0  0  0  0
   10.0227  -12.7783   28.8651 C   0  0  0  0  0  0  0  0  0  0  0  0
    9.6053  -14.2056   28.5978 C   0  0  0  0  0  0  0  0  0  0  0  0
   10.4650  -14.8965   27.5921 C   0  0  2  0  0  0  0  0  0  0  0  0
   10.4897  -14.0629   26.3317 C   0  0  0  0  0  0  0  0  0  0  0  0
   10.1364  -16.3263   27.3494 C   0  0  2  0  0  0  0  0  0  0  0  0
    8.9341  -16.4617   26.5159 N   0  0  0  0  0  0  0  0  0  0  0  0
   10.0347  -17.1881   28.5181 C   0  0  0  0  0  0  0  0  0  0  0  0
    8.9505  -17.7110   28.8537 O   0  0  0  0  0  0  0  0  0  0  0  0
   11.1539  -17.4480   29.2904 O   0  0  0  0  0  0  0  0  0  0  0  0
  2  1  1  1
  2  4  1  0
  2  3  1  0
  5  7  1  0
  5  6  1  6
  5  4  1  0
  7  8  2  0
  9 10  1  0
 10 11  2  0
 10 12  1  0
 12 13  1  0
 14 13  1  6
 14 16  1  0
 15 14  1  0
 15  7  1  0
 16 17  2  0
 18 19  1  0
 19 20  1  0
 20 22  1  0
 20 21  1  6
 22 24  1  0
 23 16  1  0
 22 23  1  1
 24 25  2  0
 24 26  1  0
M  END
$$$$
