LQI.pdb
     RDKit          3D

 26 25  0  0  1  0  0  0  0  0999 V2000
    9.6459  -13.2721   19.3803 C   0  0  0  0  0  0  0  0  0  0  0  0
    8.1388  -13.4265   19.1519 C   0  0  2  0  0  0  0  0  0  0  0  0
    7.5106  -12.0393   19.0624 C   0  0  0  0  0  0  0  0  0  0  0  0
    7.5203  -14.2571   20.2447 C   0  0  0  0  0  0  0  0  0  0  0  0
    8.2644  -15.5365   20.3983 C   0  0  2  0  0  0  0  0  0  0  0  0
    7.7326  -16.5739   19.5558 N   0  0  0  0  0  0  0  0  0  0  0  0
    8.2518  -15.9679   21.8378 C   0  0  0  0  0  0  0  0  0  0  0  0
    7.2314  -15.7935   22.5268 O   0  0  0  0  0  0  0  0  0  0  0  0
   12.1943  -20.1997   24.2415 N   0  0  0  0  0  0  0  0  0  0  0  0
   11.3990  -19.8717   25.3764 C   0  0  0  0  0  0  0  0  0  0  0  0
   11.5232  -20.5488   26.4188 O   0  0  0  0  0  0  0  0  0  0  0  0
   10.4421  -18.7232   25.2727 C   0  0  0  0  0  0  0  0  0  0  0  0
   10.4789  -18.1600   23.8676 C   0  0  0  0  0  0  0  0  0  0  0  0
    9.4462  -17.0594   23.7485 C   0  0  2  0  0  0  0  0  0  0  0  0
    9.4109  -16.5715   22.3934 N   0  0  0  0  0  0  0  0  0  0  0  0
    9.8057  -15.9624   24.7085 C   0  0  0  0  0  0  0  0  0  0  0  0
   10.8504  -15.2877   24.5300 O   0  0  0  0  0  0  0  0  0  0  0  0
    6.4984  -12.1623   25.9474 C   0  0  0  0  0  0  0  0  0  0  0  0
    7.7290  -13.0171   25.7534 C   0  0  0  0  0  0  0  0  0  0  0  0
    8.1805  -13.6988   27.0021 C   0  0  2  0  0  0  0  0  0  0  0  0
    8.4550  -12.6442   28.0494 C   0  0  0  0  0  0  0  0  0  0  0  0
    9.2962  -14.6667   26.8307 C   0  0  2  0  0  0  0  0  0  0  0  0
    8.9692  -15.6820   25.8203 N   0  0  0  0  0  0  0  0  0  0  0  0
    9.8072  -15.3054   28.0348 C   0  0  0  0  0  0  0  0  0  0  0  0
    9.4297  -16.4450   28.3821 O   0  0  0  0  0  0  0  0  0  0  0  0
   10.7344  -14.6525   28.8288 O   0  0  0  0  0  0  0  0  0  0  0  0
  2  1  1  1
  2  4  1  0
  2  3  1  0
  5  7  1  0
  5  6  1  6
  5  4  1  0
  7  8  2  0
  9 10  1  0
 10 11  2  0
 10 12  1  0
 12 13  1  0
 14 13  1  6
 14 16  1  0
 15 14  1  0
 15  7  1  0
 16 17  2  0
 18 19  1  0
 19 20  1  0
 20 22  1  0
 20 21  1  1
 22 24  1  0
 23 16  1  0
 22 23  1  6
 24 25  2  0
 24 26  1  0
M  END
$$$$
