GGH.pdb
     RDKit          3D

 19 19  0  0  1  0  0  0  0  0999 V2000
   16.7767   -8.6267  -19.8208 N   0  0  0  0  0  0  0  0  0  0  0  0
   17.3600   -9.8364  -19.2976 C   0  0  0  0  0  0  0  0  0  0  0  0
   17.1084   -9.9253  -17.8315 C   0  0  0  0  0  0  0  0  0  0  0  0
   16.2004  -10.6643  -17.4007 O   0  0  0  0  0  0  0  0  0  0  0  0
   17.9234   -9.1548  -16.9726 N   0  0  0  0  0  0  0  0  0  0  0  0
   17.7367   -9.2443  -15.5373 C   0  0  0  0  0  0  0  0  0  0  0  0
   18.7149   -8.3402  -14.8741 C   0  0  0  0  0  0  0  0  0  0  0  0
   18.7896   -8.2639  -13.6156 O   0  0  0  0  0  0  0  0  0  0  0  0
   19.5991   -7.5309  -15.6342 N   0  0  0  0  0  0  0  0  0  0  0  0
   20.5662   -6.6393  -15.0557 C   0  0  1  0  0  0  0  0  0  0  0  0
   21.9812   -6.9782  -15.4237 C   0  0  0  0  0  0  0  0  0  0  0  0
   22.3633   -8.3595  -15.1504 C   0  0  0  0  0  0  0  0  0  0  0  0
   22.6343   -8.9171  -13.9379 C   0  0  0  0  0  0  0  0  0  0  0  0
   22.9422  -10.2017  -14.1335 N   0  0  0  0  0  0  0  0  0  0  0  0
   22.8761  -10.4869  -15.4488 C   0  0  0  0  0  0  0  0  0  0  0  0
   22.5165   -9.3330  -16.0568 N   0  0  0  0  0  0  0  0  0  0  0  0
   20.2342   -5.2086  -15.2862 C   0  0  0  0  0  0  0  0  0  0  0  0
   19.1490   -4.8337  -16.0686 O   0  0  0  0  0  0  0  0  0  0  0  0
   20.9030   -4.2624  -14.7964 O   0  0  0  0  0  0  0  0  0  0  0  0
  2  1  1  0
  3  2  1  0
  4  3  2  0
  5  3  1  0
  6  5  1  0
  7  6  1  0
  7  8  2  0
  9 10  1  0
  9  7  1  0
 11 12  1  0
 10 11  1  6
 12 16  1  0
 13 14  1  0
 13 12  2  0
 14 15  1  0
 15 16  2  0
 17 10  1  0
 17 18  1  0
 19 17  2  0
M  END
$$$$
