GGH.pdb
     RDKit          3D

 19 19  0  0  1  0  0  0  0  0999 V2000
   23.8590  -17.8502  -17.3582 N   0  0  0  0  0  0  0  0  0  0  0  0
   24.4883  -18.0227  -16.0730 C   0  0  0  0  0  0  0  0  0  0  0  0
   24.8072  -19.4621  -15.8561 C   0  0  0  0  0  0  0  0  0  0  0  0
   23.9136  -20.3228  -15.9859 O   0  0  0  0  0  0  0  0  0  0  0  0
   26.1333  -19.8003  -15.5055 N   0  0  0  0  0  0  0  0  0  0  0  0
   26.4835  -21.1900  -15.2848 C   0  0  0  0  0  0  0  0  0  0  0  0
   26.1238  -21.5540  -13.8875 C   0  0  0  0  0  0  0  0  0  0  0  0
   26.3007  -22.7248  -13.4479 O   0  0  0  0  0  0  0  0  0  0  0  0
   25.5684  -20.5964  -12.9992 N   0  0  0  0  0  0  0  0  0  0  0  0
   25.1390  -20.8989  -11.6616 C   0  0  1  0  0  0  0  0  0  0  0  0
   26.0194  -20.2979  -10.6051 C   0  0  0  0  0  0  0  0  0  0  0  0
   27.4232  -20.6852  -10.6949 C   0  0  0  0  0  0  0  0  0  0  0  0
   27.9257  -21.9430  -10.8356 C   0  0  0  0  0  0  0  0  0  0  0  0
   29.2574  -21.8536  -10.8762 N   0  0  0  0  0  0  0  0  0  0  0  0
   29.6273  -20.5628  -10.7645 C   0  0  0  0  0  0  0  0  0  0  0  0
   28.4765  -19.8597  -10.6537 N   0  0  0  0  0  0  0  0  0  0  0  0
   23.6963  -20.6122  -11.4459 C   0  0  0  0  0  0  0  0  0  0  0  0
   22.9064  -20.0726  -12.4536 O   0  0  0  0  0  0  0  0  0  0  0  0
   23.1086  -20.8357  -10.3564 O   0  0  0  0  0  0  0  0  0  0  0  0
  2  1  1  0
  3  2  1  0
  4  3  2  0
  5  3  1  0
  6  5  1  0
  7  6  1  0
  7  8  2  0
  9 10  1  0
  9  7  1  0
 11 12  1  0
 10 11  1  1
 12 16  1  0
 13 14  1  0
 13 12  2  0
 14 15  1  0
 15 16  2  0
 17 10  1  0
 17 18  1  0
 19 17  2  0
M  END
$$$$
