GGH.pdb
     RDKit          3D

 19 19  0  0  1  0  0  0  0  0999 V2000
   12.4906  -10.5285   -9.8947 N   0  0  0  0  0  0  0  0  0  0  0  0
   13.7005   -9.9821  -10.4560 C   0  0  0  0  0  0  0  0  0  0  0  0
   14.2026   -8.8756   -9.5933 C   0  0  0  0  0  0  0  0  0  0  0  0
   13.4395   -8.3376   -8.7661 O   0  0  0  0  0  0  0  0  0  0  0  0
   15.5477   -8.4730   -9.7500 N   0  0  0  0  0  0  0  0  0  0  0  0
   16.1100   -7.4876   -8.8469 C   0  0  0  0  0  0  0  0  0  0  0  0
   16.9548   -6.5493   -9.6344 C   0  0  0  0  0  0  0  0  0  0  0  0
   18.0212   -6.0686   -9.1581 O   0  0  0  0  0  0  0  0  0  0  0  0
   16.5905   -6.1615  -10.9503 N   0  0  0  0  0  0  0  0  0  0  0  0
   17.3724   -5.2777  -11.7704 C   0  0  1  0  0  0  0  0  0  0  0  0
   17.9400   -5.9451  -12.9890 C   0  0  0  0  0  0  0  0  0  0  0  0
   18.8241   -7.0706  -12.7061 C   0  0  0  0  0  0  0  0  0  0  0  0
   18.5705   -8.3925  -12.9129 C   0  0  0  0  0  0  0  0  0  0  0  0
   19.6418   -9.0853  -12.5185 N   0  0  0  0  0  0  0  0  0  0  0  0
   20.5842   -8.2382  -12.0604 C   0  0  0  0  0  0  0  0  0  0  0  0
   20.0559   -6.9989  -12.1863 N   0  0  0  0  0  0  0  0  0  0  0  0
   16.6623   -4.0093  -12.0819 C   0  0  0  0  0  0  0  0  0  0  0  0
   17.3085   -2.9535  -12.7129 O   0  0  0  0  0  0  0  0  0  0  0  0
   15.4521   -3.8141  -11.7992 O   0  0  0  0  0  0  0  0  0  0  0  0
  2  1  1  0
  3  2  1  0
  4  3  2  0
  5  3  1  0
  6  5  1  0
  7  6  1  0
  7  8  2  0
  9 10  1  0
  9  7  1  0
 11 12  1  0
 10 11  1  6
 12 16  1  0
 13 14  1  0
 13 12  2  0
 14 15  1  0
 15 16  2  0
 17 10  1  0
 17 18  1  0
 19 17  2  0
M  END
$$$$
