GGH.pdb
     RDKit          3D

 19 19  0  0  1  0  0  0  0  0999 V2000
   17.3604  -12.5654  -17.2422 N   0  0  0  0  0  0  0  0  0  0  0  0
   17.0519  -11.3301  -16.5665 C   0  0  0  0  0  0  0  0  0  0  0  0
   17.7913  -10.2059  -17.2070 C   0  0  0  0  0  0  0  0  0  0  0  0
   17.9037  -10.1637  -18.4486 O   0  0  0  0  0  0  0  0  0  0  0  0
   18.3455   -9.2148  -16.3665 N   0  0  0  0  0  0  0  0  0  0  0  0
   18.8528   -7.9862  -16.9461 C   0  0  0  0  0  0  0  0  0  0  0  0
   19.4452   -7.1585  -15.8607 C   0  0  0  0  0  0  0  0  0  0  0  0
   18.9028   -7.0829  -14.7226 O   0  0  0  0  0  0  0  0  0  0  0  0
   20.6420   -6.4241  -16.0675 N   0  0  0  0  0  0  0  0  0  0  0  0
   21.2949   -5.6524  -15.0461 C   0  0  1  0  0  0  0  0  0  0  0  0
   22.6456   -6.1877  -14.6697 C   0  0  0  0  0  0  0  0  0  0  0  0
   22.6905   -7.6326  -14.4723 C   0  0  0  0  0  0  0  0  0  0  0  0
   22.1460   -8.3433  -13.4462 C   0  0  0  0  0  0  0  0  0  0  0  0
   22.4176   -9.6350  -13.6487 N   0  0  0  0  0  0  0  0  0  0  0  0
   23.1272   -9.7747  -14.7856 C   0  0  0  0  0  0  0  0  0  0  0  0
   23.2834   -8.5237  -15.2766 N   0  0  0  0  0  0  0  0  0  0  0  0
   21.3127   -4.1977  -15.3522 C   0  0  0  0  0  0  0  0  0  0  0  0
   21.6673   -3.2594  -14.3909 O   0  0  0  0  0  0  0  0  0  0  0  0
   21.0130   -3.7314  -16.4815 O   0  0  0  0  0  0  0  0  0  0  0  0
  2  1  1  0
  3  2  1  0
  4  3  2  0
  5  3  1  0
  6  5  1  0
  7  6  1  0
  7  8  2  0
  9 10  1  0
  9  7  1  0
 11 12  1  0
 10 11  1  6
 12 16  1  0
 13 14  1  0
 13 12  2  0
 14 15  1  0
 15 16  2  0
 17 10  1  0
 17 18  1  0
 19 17  2  0
M  END
$$$$
