GGH.pdb
     RDKit          3D

 19 19  0  0  1  0  0  0  0  0999 V2000
   19.7315   -3.3417  -22.8028 N   0  0  0  0  0  0  0  0  0  0  0  0
   18.9261   -3.1771  -21.6189 C   0  0  0  0  0  0  0  0  0  0  0  0
   19.8065   -2.9903  -20.4312 C   0  0  0  0  0  0  0  0  0  0  0  0
   20.4682   -1.9401  -20.3073 O   0  0  0  0  0  0  0  0  0  0  0  0
   19.8573   -4.0296  -19.4755 N   0  0  0  0  0  0  0  0  0  0  0  0
   20.6175   -3.8434  -18.2548 C   0  0  0  0  0  0  0  0  0  0  0  0
   20.4709   -5.0621  -17.4137 C   0  0  0  0  0  0  0  0  0  0  0  0
   19.3328   -5.5283  -17.1264 O   0  0  0  0  0  0  0  0  0  0  0  0
   21.6070   -5.7436  -16.9044 N   0  0  0  0  0  0  0  0  0  0  0  0
   21.5339   -6.9275  -16.0932 C   0  0  1  0  0  0  0  0  0  0  0  0
   22.6953   -7.8569  -16.2931 C   0  0  0  0  0  0  0  0  0  0  0  0
   22.6383   -9.0770  -15.4950 C   0  0  0  0  0  0  0  0  0  0  0  0
   21.5272   -9.6885  -14.9991 C   0  0  0  0  0  0  0  0  0  0  0  0
   21.9183  -10.7744  -14.3275 N   0  0  0  0  0  0  0  0  0  0  0  0
   23.2608  -10.8782  -14.3787 C   0  0  0  0  0  0  0  0  0  0  0  0
   23.6832   -9.8179  -15.1055 N   0  0  0  0  0  0  0  0  0  0  0  0
   21.2742   -6.6241  -14.6612 C   0  0  0  0  0  0  0  0  0  0  0  0
   21.7231   -5.4459  -14.0774 O   0  0  0  0  0  0  0  0  0  0  0  0
   20.6425   -7.4009  -13.8997 O   0  0  0  0  0  0  0  0  0  0  0  0
  2  1  1  0
  3  2  1  0
  4  3  2  0
  5  3  1  0
  6  5  1  0
  7  6  1  0
  7  8  2  0
  9 10  1  0
  9  7  1  0
 11 12  1  0
 10 11  1  1
 12 16  1  0
 13 14  1  0
 13 12  2  0
 14 15  1  0
 15 16  2  0
 17 10  1  0
 17 18  1  0
 19 17  2  0
M  END
$$$$
