GGH.pdb
     RDKit          3D

 19 19  0  0  1  0  0  0  0  0999 V2000
   31.8763  -35.6319   -0.3752 N   0  0  0  0  0  0  0  0  0  0  0  0
   31.6954  -34.5381    0.5457 C   0  0  0  0  0  0  0  0  0  0  0  0
   31.1084  -35.0421    1.8193 C   0  0  0  0  0  0  0  0  0  0  0  0
   31.1134  -36.2651    2.0646 O   0  0  0  0  0  0  0  0  0  0  0  0
   30.5595  -34.0967    2.7143 N   0  0  0  0  0  0  0  0  0  0  0  0
   30.0508  -34.5379    3.9987 C   0  0  0  0  0  0  0  0  0  0  0  0
   29.5295  -33.3544    4.7347 C   0  0  0  0  0  0  0  0  0  0  0  0
   30.2403  -32.3252    4.9103 O   0  0  0  0  0  0  0  0  0  0  0  0
   28.2133  -33.3413    5.2656 N   0  0  0  0  0  0  0  0  0  0  0  0
   27.6891  -32.2809    6.0815 C   0  0  1  0  0  0  0  0  0  0  0  0
   26.2047  -32.1055    5.9458 C   0  0  0  0  0  0  0  0  0  0  0  0
   25.7667  -31.6526    4.6299 C   0  0  0  0  0  0  0  0  0  0  0  0
   25.7732  -32.3623    3.4677 C   0  0  0  0  0  0  0  0  0  0  0  0
   25.2912  -31.5767    2.5013 N   0  0  0  0  0  0  0  0  0  0  0  0
   24.9727  -30.3724    3.0148 C   0  0  0  0  0  0  0  0  0  0  0  0
   25.2754  -30.4433    4.3317 N   0  0  0  0  0  0  0  0  0  0  0  0
   28.1346  -32.3750    7.4968 C   0  0  0  0  0  0  0  0  0  0  0  0
   28.8432  -33.4762    7.9614 O   0  0  0  0  0  0  0  0  0  0  0  0
   27.9027  -31.4795    8.3492 O   0  0  0  0  0  0  0  0  0  0  0  0
  2  1  1  0
  3  2  1  0
  4  3  2  0
  5  3  1  0
  6  5  1  0
  7  6  1  0
  7  8  2  0
  9 10  1  0
  9  7  1  0
 11 12  1  0
 10 11  1  1
 12 16  1  0
 13 14  1  0
 13 12  2  0
 14 15  1  0
 15 16  2  0
 17 10  1  0
 17 18  1  0
 19 17  2  0
M  END
$$$$
