GGH.pdb
     RDKit          3D

 19 19  0  0  1  0  0  0  0  0999 V2000
   17.1824   -6.2263  -21.4351 N   0  0  0  0  0  0  0  0  0  0  0  0
   16.5687   -5.1517  -20.6962 C   0  0  0  0  0  0  0  0  0  0  0  0
   17.2405   -4.9992  -19.3748 C   0  0  0  0  0  0  0  0  0  0  0  0
   16.5560   -4.8345  -18.3451 O   0  0  0  0  0  0  0  0  0  0  0  0
   18.6520   -5.0484  -19.3409 N   0  0  0  0  0  0  0  0  0  0  0  0
   19.3463   -4.8293  -18.0867 C   0  0  0  0  0  0  0  0  0  0  0  0
   19.7356   -6.1500  -17.5226 C   0  0  0  0  0  0  0  0  0  0  0  0
   19.6032   -7.2138  -18.1905 O   0  0  0  0  0  0  0  0  0  0  0  0
   20.2702   -6.2599  -16.2124 N   0  0  0  0  0  0  0  0  0  0  0  0
   20.7416   -7.4910  -15.6402 C   0  0  1  0  0  0  0  0  0  0  0  0
   21.8833   -8.1002  -16.4004 C   0  0  0  0  0  0  0  0  0  0  0  0
   22.3899   -9.3464  -15.8356 C   0  0  0  0  0  0  0  0  0  0  0  0
   21.6621  -10.4111  -15.3983 C   0  0  0  0  0  0  0  0  0  0  0  0
   22.5137  -11.3407  -14.9581 N   0  0  0  0  0  0  0  0  0  0  0  0
   23.7786  -10.8990  -15.1016 C   0  0  0  0  0  0  0  0  0  0  0  0
   23.6765   -9.6645  -15.6458 N   0  0  0  0  0  0  0  0  0  0  0  0
   21.0107   -7.3776  -14.1825 C   0  0  0  0  0  0  0  0  0  0  0  0
   20.7833   -8.4420  -13.3189 O   0  0  0  0  0  0  0  0  0  0  0  0
   21.4538   -6.3291  -13.6470 O   0  0  0  0  0  0  0  0  0  0  0  0
  2  1  1  0
  3  2  1  0
  4  3  2  0
  5  3  1  0
  6  5  1  0
  7  6  1  0
  7  8  2  0
  9 10  1  0
  9  7  1  0
 11 12  1  0
 10 11  1  6
 12 16  1  0
 13 14  1  0
 13 12  2  0
 14 15  1  0
 15 16  2  0
 17 10  1  0
 17 18  1  0
 19 17  2  0
M  END
$$$$
