GGH.pdb
     RDKit          3D

 19 19  0  0  1  0  0  0  0  0999 V2000
   24.6712  -21.5993  -16.5182 N   0  0  0  0  0  0  0  0  0  0  0  0
   25.7177  -20.6127  -16.6110 C   0  0  0  0  0  0  0  0  0  0  0  0
   26.1472  -20.2020  -15.2444 C   0  0  0  0  0  0  0  0  0  0  0  0
   25.4927  -19.3436  -14.6193 O   0  0  0  0  0  0  0  0  0  0  0  0
   27.2998  -20.8127  -14.7019 N   0  0  0  0  0  0  0  0  0  0  0  0
   27.7588  -20.4293  -13.3808 C   0  0  0  0  0  0  0  0  0  0  0  0
   26.8219  -20.9919  -12.3710 C   0  0  0  0  0  0  0  0  0  0  0  0
   26.8107  -22.2258  -12.1016 O   0  0  0  0  0  0  0  0  0  0  0  0
   25.9070  -20.1598  -11.6745 N   0  0  0  0  0  0  0  0  0  0  0  0
   25.0127  -20.6314  -10.6533 C   0  0  1  0  0  0  0  0  0  0  0  0
   25.0774  -19.8256   -9.3888 C   0  0  0  0  0  0  0  0  0  0  0  0
   26.3159  -19.9827   -8.6338 C   0  0  0  0  0  0  0  0  0  0  0  0
   27.2667  -20.9438   -8.7972 C   0  0  0  0  0  0  0  0  0  0  0  0
   28.2344  -20.7238   -7.9037 N   0  0  0  0  0  0  0  0  0  0  0  0
   27.9290  -19.6391   -7.1649 C   0  0  0  0  0  0  0  0  0  0  0  0
   26.7391  -19.1985   -7.6345 N   0  0  0  0  0  0  0  0  0  0  0  0
   23.6244  -20.8183  -11.1511 C   0  0  0  0  0  0  0  0  0  0  0  0
   22.7081  -21.6047  -10.4639 O   0  0  0  0  0  0  0  0  0  0  0  0
   23.1978  -20.2857  -12.2079 O   0  0  0  0  0  0  0  0  0  0  0  0
  2  1  1  0
  3  2  1  0
  4  3  2  0
  5  3  1  0
  6  5  1  0
  7  6  1  0
  7  8  2  0
  9 10  1  0
  9  7  1  0
 11 12  1  0
 10 11  1  1
 12 16  1  0
 13 14  1  0
 13 12  2  0
 14 15  1  0
 15 16  2  0
 17 10  1  0
 17 18  1  0
 19 17  2  0
M  END
$$$$
