GGH.pdb
     RDKit          3D

 19 19  0  0  1  0  0  0  0  0999 V2000
   43.7695   -9.3661   -7.3757 N   0  0  0  0  0  0  0  0  0  0  0  0
   42.3532   -9.1703   -7.1937 C   0  0  0  0  0  0  0  0  0  0  0  0
   41.6415   -9.4038   -8.4820 C   0  0  0  0  0  0  0  0  0  0  0  0
   40.8171  -10.3352   -8.5764 O   0  0  0  0  0  0  0  0  0  0  0  0
   41.9346   -8.5449   -9.5647 N   0  0  0  0  0  0  0  0  0  0  0  0
   41.2255   -8.7064  -10.8193 C   0  0  0  0  0  0  0  0  0  0  0  0
   39.8218   -8.2489  -10.6335 C   0  0  0  0  0  0  0  0  0  0  0  0
   38.8717   -8.7639  -11.2871 O   0  0  0  0  0  0  0  0  0  0  0  0
   39.5019   -7.2162   -9.7139 N   0  0  0  0  0  0  0  0  0  0  0  0
   38.1592   -6.8490   -9.3571 C   0  0  1  0  0  0  0  0  0  0  0  0
   37.8667   -7.0157   -7.8945 C   0  0  0  0  0  0  0  0  0  0  0  0
   37.9863   -8.3851   -7.4057 C   0  0  0  0  0  0  0  0  0  0  0  0
   38.2664   -9.5008   -8.1346 C   0  0  0  0  0  0  0  0  0  0  0  0
   38.2827  -10.5447   -7.3021 N   0  0  0  0  0  0  0  0  0  0  0  0
   38.0186  -10.1272   -6.0485 C   0  0  0  0  0  0  0  0  0  0  0  0
   37.8390   -8.7891   -6.1378 N   0  0  0  0  0  0  0  0  0  0  0  0
   37.7760   -5.5094   -9.8758 C   0  0  0  0  0  0  0  0  0  0  0  0
   36.4715   -5.0411   -9.7790 O   0  0  0  0  0  0  0  0  0  0  0  0
   38.5940   -4.7279  -10.4259 O   0  0  0  0  0  0  0  0  0  0  0  0
  2  1  1  0
  3  2  1  0
  4  3  2  0
  5  3  1  0
  6  5  1  0
  7  6  1  0
  7  8  2  0
  9 10  1  0
  9  7  1  0
 11 12  1  0
 10 11  1  1
 12 16  1  0
 13 14  1  0
 13 12  2  0
 14 15  1  0
 15 16  2  0
 17 10  1  0
 17 18  1  0
 19 17  2  0
M  END
$$$$
