GGH.pdb
     RDKit          3D

 19 19  0  0  1  0  0  0  0  0999 V2000
   23.5173  -10.0589  -22.4403 N   0  0  0  0  0  0  0  0  0  0  0  0
   22.4922   -9.0710  -22.2152 C   0  0  0  0  0  0  0  0  0  0  0  0
   22.9965   -8.0234  -21.2830 C   0  0  0  0  0  0  0  0  0  0  0  0
   23.4210   -6.9413  -21.7356 O   0  0  0  0  0  0  0  0  0  0  0  0
   22.9731   -8.3033  -19.8984 N   0  0  0  0  0  0  0  0  0  0  0  0
   23.4724   -7.3170  -18.9599 C   0  0  0  0  0  0  0  0  0  0  0  0
   22.3289   -6.8027  -18.1586 C   0  0  0  0  0  0  0  0  0  0  0  0
   21.3867   -6.1576  -18.6982 O   0  0  0  0  0  0  0  0  0  0  0  0
   22.2576   -7.0199  -16.7577 N   0  0  0  0  0  0  0  0  0  0  0  0
   21.1525   -6.6053  -15.9381 C   0  0  1  0  0  0  0  0  0  0  0  0
   19.8628   -7.2868  -16.2911 C   0  0  0  0  0  0  0  0  0  0  0  0
   19.8622   -8.7299  -16.0759 C   0  0  0  0  0  0  0  0  0  0  0  0
   20.8908   -9.4975  -15.6207 C   0  0  0  0  0  0  0  0  0  0  0  0
   20.4705  -10.7640  -15.5711 N   0  0  0  0  0  0  0  0  0  0  0  0
   19.1900  -10.8317  -15.9851 C   0  0  0  0  0  0  0  0  0  0  0  0
   18.8360   -9.5623  -16.2917 N   0  0  0  0  0  0  0  0  0  0  0  0
   21.4629   -6.6686  -14.4855 C   0  0  0  0  0  0  0  0  0  0  0  0
   20.5912   -6.1513  -13.5353 O   0  0  0  0  0  0  0  0  0  0  0  0
   22.5161   -7.1856  -14.0317 O   0  0  0  0  0  0  0  0  0  0  0  0
  2  1  1  0
  3  2  1  0
  4  3  2  0
  5  3  1  0
  6  5  1  0
  7  6  1  0
  7  8  2  0
  9 10  1  0
  9  7  1  0
 11 12  1  0
 10 11  1  1
 12 16  1  0
 13 14  1  0
 13 12  2  0
 14 15  1  0
 15 16  2  0
 17 10  1  0
 17 18  1  0
 19 17  2  0
M  END
$$$$
