GGH.pdb
     RDKit          3D

 19 19  0  0  1  0  0  0  0  0999 V2000
   25.3522  -12.8000  -16.1387 N   0  0  0  0  0  0  0  0  0  0  0  0
   25.4336  -11.3656  -16.2543 C   0  0  0  0  0  0  0  0  0  0  0  0
   24.4294  -10.8808  -17.2428 C   0  0  0  0  0  0  0  0  0  0  0  0
   23.7184  -11.7001  -17.8589 O   0  0  0  0  0  0  0  0  0  0  0  0
   24.3210   -9.4870  -17.4462 N   0  0  0  0  0  0  0  0  0  0  0  0
   23.3211   -8.9726  -18.3619 C   0  0  0  0  0  0  0  0  0  0  0  0
   22.1581   -8.4869  -17.5709 C   0  0  0  0  0  0  0  0  0  0  0  0
   21.1654   -7.9419  -18.1303 O   0  0  0  0  0  0  0  0  0  0  0  0
   22.1243   -8.6194  -16.1582 N   0  0  0  0  0  0  0  0  0  0  0  0
   20.9824   -8.2912  -15.3499 C   0  0  1  0  0  0  0  0  0  0  0  0
   20.6103   -9.3744  -14.3801 C   0  0  0  0  0  0  0  0  0  0  0  0
   19.9885  -10.5451  -14.9897 C   0  0  0  0  0  0  0  0  0  0  0  0
   19.7331  -10.7506  -16.3114 C   0  0  0  0  0  0  0  0  0  0  0  0
   19.1564  -11.9482  -16.4393 N   0  0  0  0  0  0  0  0  0  0  0  0
   19.0334  -12.5224  -15.2266 C   0  0  0  0  0  0  0  0  0  0  0  0
   19.5546  -11.6364  -14.3467 N   0  0  0  0  0  0  0  0  0  0  0  0
   21.1009   -6.9550  -14.7090 C   0  0  0  0  0  0  0  0  0  0  0  0
   20.0746   -6.4300  -13.9333 O   0  0  0  0  0  0  0  0  0  0  0  0
   22.1200   -6.2269  -14.8258 O   0  0  0  0  0  0  0  0  0  0  0  0
  2  1  1  0
  3  2  1  0
  4  3  2  0
  5  3  1  0
  6  5  1  0
  7  6  1  0
  7  8  2  0
  9 10  1  0
  9  7  1  0
 11 12  1  0
 10 11  1  1
 12 16  1  0
 13 14  1  0
 13 12  2  0
 14 15  1  0
 15 16  2  0
 17 10  1  0
 17 18  1  0
 19 17  2  0
M  END
$$$$
