GGH.pdb
     RDKit          3D

 19 19  0  0  1  0  0  0  0  0999 V2000
   17.4615  -14.0712  -19.1908 N   0  0  0  0  0  0  0  0  0  0  0  0
   17.2763  -13.9756  -17.7647 C   0  0  0  0  0  0  0  0  0  0  0  0
   17.1690  -12.5442  -17.3643 C   0  0  0  0  0  0  0  0  0  0  0  0
   17.8063  -11.6742  -17.9913 O   0  0  0  0  0  0  0  0  0  0  0  0
   16.3344  -12.2242  -16.2702 N   0  0  0  0  0  0  0  0  0  0  0  0
   16.1838  -10.8399  -15.8654 C   0  0  0  0  0  0  0  0  0  0  0  0
   16.9453  -10.6284  -14.6046 C   0  0  0  0  0  0  0  0  0  0  0  0
   16.8476  -11.4331  -13.6360 O   0  0  0  0  0  0  0  0  0  0  0  0
   17.8090   -9.5132  -14.4468 N   0  0  0  0  0  0  0  0  0  0  0  0
   18.5863   -9.2630  -13.2644 C   0  0  1  0  0  0  0  0  0  0  0  0
   20.0589   -9.4701  -13.4669 C   0  0  0  0  0  0  0  0  0  0  0  0
   20.6958   -8.4818  -14.3308 C   0  0  0  0  0  0  0  0  0  0  0  0
   20.9777   -8.6038  -15.6575 C   0  0  0  0  0  0  0  0  0  0  0  0
   21.5602   -7.4723  -16.0618 N   0  0  0  0  0  0  0  0  0  0  0  0
   21.6611   -6.6199  -15.0231 C   0  0  0  0  0  0  0  0  0  0  0  0
   21.1203   -7.2660  -13.9644 N   0  0  0  0  0  0  0  0  0  0  0  0
   18.2660   -7.9542  -12.6362 C   0  0  0  0  0  0  0  0  0  0  0  0
   18.5728   -7.6946  -11.3062 O   0  0  0  0  0  0  0  0  0  0  0  0
   17.7065   -7.0144  -13.2577 O   0  0  0  0  0  0  0  0  0  0  0  0
  2  1  1  0
  3  2  1  0
  4  3  2  0
  5  3  1  0
  6  5  1  0
  7  6  1  0
  7  8  2  0
  9 10  1  0
  9  7  1  0
 11 12  1  0
 10 11  1  6
 12 16  1  0
 13 14  1  0
 13 12  2  0
 14 15  1  0
 15 16  2  0
 17 10  1  0
 17 18  1  0
 19 17  2  0
M  END
$$$$
