WRS.pdb
     RDKit          3D

 32 33  0  0  1  0  0  0  0  0999 V2000
   23.8543  -17.8784  -18.0560 N   0  0  0  0  0  0  0  0  0  0  0  0
   22.6430  -17.6460  -17.2922 C   0  0  1  0  0  0  0  0  0  0  0  0
   21.5806  -17.2774  -18.2836 C   0  0  0  0  0  0  0  0  0  0  0  0
   21.9003  -15.9265  -18.8191 C   0  0  0  0  0  0  0  0  0  0  0  0
   22.8132  -15.5930  -19.8113 C   0  0  0  0  0  0  0  0  0  0  0  0
   22.7526  -14.2631  -19.9457 N   0  0  0  0  0  0  0  0  0  0  0  0
   21.8559  -13.7383  -19.0976 C   0  0  0  0  0  0  0  0  0  0  0  0
   21.4120  -12.4455  -18.8345 C   0  0  0  0  0  0  0  0  0  0  0  0
   20.4592  -12.1957  -17.8911 C   0  0  0  0  0  0  0  0  0  0  0  0
   19.8982  -13.2320  -17.1582 C   0  0  0  0  0  0  0  0  0  0  0  0
   20.3250  -14.5097  -17.4059 C   0  0  0  0  0  0  0  0  0  0  0  0
   21.2871  -14.7797  -18.3558 C   0  0  0  0  0  0  0  0  0  0  0  0
   22.3412  -18.8564  -16.5133 C   0  0  0  0  0  0  0  0  0  0  0  0
   23.0747  -19.8606  -16.6844 O   0  0  0  0  0  0  0  0  0  0  0  0
   23.3085  -24.5360  -13.3760 N   0  0  0  0  0  0  0  0  0  0  0  0
   24.3974  -23.6289  -13.6393 C   0  0  0  0  0  0  0  0  0  0  0  0
   25.3481  -24.0294  -14.4030 N   0  0  0  0  0  0  0  0  0  0  0  0
   24.4236  -22.3283  -13.0733 N   0  0  0  0  0  0  0  0  0  0  0  0
   23.3652  -21.9219  -12.1715 C   0  0  0  0  0  0  0  0  0  0  0  0
   22.0909  -21.6047  -12.9571 C   0  0  0  0  0  0  0  0  0  0  0  0
   22.2462  -20.4635  -13.8777 C   0  0  0  0  0  0  0  0  0  0  0  0
   21.0994  -20.1763  -14.8038 C   0  0  2  0  0  0  0  0  0  0  0  0
   21.2907  -18.9795  -15.5856 N   0  0  0  0  0  0  0  0  0  0  0  0
   19.8452  -20.0999  -13.9965 C   0  0  0  0  0  0  0  0  0  0  0  0
   19.7044  -19.2736  -13.0878 O   0  0  0  0  0  0  0  0  0  0  0  0
   26.1260  -23.4159  -14.7113 O   0  0  0  0  0  0  0  0  0  0  0  0
   17.1460  -23.1493  -14.4988 C   0  0  0  0  0  0  0  0  0  0  0  0
   16.5255  -21.9134  -14.3030 C   0  0  1  0  0  0  0  0  0  0  0  0
   17.5325  -21.0327  -13.6017 N   0  0  0  0  0  0  0  0  0  0  0  0
   18.8077  -20.9940  -14.2866 C   0  0  0  0  0  0  0  0  0  0  0  0
   17.6771  -21.3663  -12.1743 O   0  0  0  0  0  0  0  0  0  0  0  0
   18.7591  -21.7829  -11.7062 O   0  0  0  0  0  0  0  0  0  0  0  0
  2  1  1  6
  2  3  1  0
  4  5  2  0
  4  3  1  0
  6  5  1  0
  7 12  2  0
  7  6  1  0
  8  7  1  0
  9 10  1  0
  9  8  2  0
 10 11  2  0
 11 12  1  0
 12  4  1  0
 13  2  1  0
 13 14  2  0
 16 17  2  0
 16 15  1  0
 18 16  1  0
 19 18  1  0
 20 21  1  0
 20 19  1  0
 22 21  1  1
 22 23  1  0
 23 13  1  0
 24 22  1  0
 25 24  2  0
 26 27  1  0
 28 27  1  6
 28 29  1  0
 28 30  1  0
 29 24  1  0
 30 32  1  0
 31 30  2  0
M  END
$$$$
