WRS.pdb
     RDKit          3D

 32 33  0  0  1  0  0  0  0  0999 V2000
   15.2648  -14.2939    6.2875 N   0  0  0  0  0  0  0  0  0  0  0  0
   16.4655  -15.0178    5.9147 C   0  0  1  0  0  0  0  0  0  0  0  0
   17.5448  -14.5584    6.8482 C   0  0  0  0  0  0  0  0  0  0  0  0
   18.1771  -13.3471    6.2593 C   0  0  0  0  0  0  0  0  0  0  0  0
   17.6171  -12.4325    5.3766 C   0  0  0  0  0  0  0  0  0  0  0  0
   18.5652  -11.5216    5.1283 N   0  0  0  0  0  0  0  0  0  0  0  0
   19.6893  -11.8072    5.8018 C   0  0  0  0  0  0  0  0  0  0  0  0
   20.9396  -11.2033    5.9008 C   0  0  0  0  0  0  0  0  0  0  0  0
   21.9246  -11.7254    6.6866 C   0  0  0  0  0  0  0  0  0  0  0  0
   21.7086  -12.8848    7.4178 C   0  0  0  0  0  0  0  0  0  0  0  0
   20.4832  -13.4905    7.3304 C   0  0  0  0  0  0  0  0  0  0  0  0
   19.4767  -12.9762    6.5410 C   0  0  0  0  0  0  0  0  0  0  0  0
   16.1844  -16.4596    5.9875 C   0  0  0  0  0  0  0  0  0  0  0  0
   15.6902  -16.9066    7.0512 O   0  0  0  0  0  0  0  0  0  0  0  0
   14.9927  -23.8139    1.0238 N   0  0  0  0  0  0  0  0  0  0  0  0
   15.3917  -24.2590    2.3355 C   0  0  0  0  0  0  0  0  0  0  0  0
   15.4322  -25.5221    2.5601 N   0  0  0  0  0  0  0  0  0  0  0  0
   15.7316  -23.3319    3.3542 N   0  0  0  0  0  0  0  0  0  0  0  0
   15.7424  -21.9148    3.0536 C   0  0  0  0  0  0  0  0  0  0  0  0
   16.2066  -21.1167    4.2739 C   0  0  0  0  0  0  0  0  0  0  0  0
   16.1360  -19.6576    4.0735 C   0  0  0  0  0  0  0  0  0  0  0  0
   16.5916  -18.7922    5.2131 C   0  0  2  0  0  0  0  0  0  0  0  0
   16.4254  -17.3831    4.9539 N   0  0  0  0  0  0  0  0  0  0  0  0
   18.0160  -19.1212    5.5187 C   0  0  0  0  0  0  0  0  0  0  0  0
   18.9470  -18.4013    5.1402 O   0  0  0  0  0  0  0  0  0  0  0  0
   15.7325  -25.9285    3.4663 O   0  0  0  0  0  0  0  0  0  0  0  0
   20.5443  -19.5580    9.0180 C   0  0  0  0  0  0  0  0  0  0  0  0
   19.4448  -19.3012    8.1959 C   0  0  2  0  0  0  0  0  0  0  0  0
   19.3887  -20.4256    7.1888 N   0  0  0  0  0  0  0  0  0  0  0  0
   18.2915  -20.2797    6.2552 C   0  0  0  0  0  0  0  0  0  0  0  0
   19.4059  -21.7542    7.8243 O   0  0  0  0  0  0  0  0  0  0  0  0
   18.3760  -22.2509    8.3302 O   0  0  0  0  0  0  0  0  0  0  0  0
  2  1  1  1
  2  3  1  0
  4  5  2  0
  4  3  1  0
  6  5  1  0
  7 12  2  0
  7  6  1  0
  8  7  1  0
  9 10  1  0
  9  8  2  0
 10 11  2  0
 11 12  1  0
 12  4  1  0
 13  2  1  0
 13 14  2  0
 16 17  2  0
 16 15  1  0
 18 16  1  0
 19 18  1  0
 20 21  1  0
 20 19  1  0
 22 21  1  6
 22 23  1  0
 23 13  1  0
 24 22  1  0
 25 24  2  0
 26 27  1  0
 28 27  1  6
 28 29  1  0
 28 30  1  0
 29 24  1  0
 30 32  1  0
 31 30  2  0
M  END
$$$$
