WRS.pdb
     RDKit          3D

 32 33  0  0  1  0  0  0  0  0999 V2000
   27.0530  -20.3952  -16.3738 N   0  0  0  0  0  0  0  0  0  0  0  0
   25.9196  -19.6395  -15.8750 C   0  0  1  0  0  0  0  0  0  0  0  0
   25.4297  -18.8044  -17.0196 C   0  0  0  0  0  0  0  0  0  0  0  0
   26.4599  -17.7702  -17.3079 C   0  0  0  0  0  0  0  0  0  0  0  0
   27.2267  -17.6227  -18.4565 C   0  0  0  0  0  0  0  0  0  0  0  0
   28.0109  -16.5584  -18.2502 N   0  0  0  0  0  0  0  0  0  0  0  0
   27.7842  -16.0260  -17.0403 C   0  0  0  0  0  0  0  0  0  0  0  0
   28.3096  -14.9404  -16.3453 C   0  0  0  0  0  0  0  0  0  0  0  0
   27.8781  -14.6180  -15.0923 C   0  0  0  0  0  0  0  0  0  0  0  0
   26.8933  -15.3690  -14.4664 C   0  0  0  0  0  0  0  0  0  0  0  0
   26.3667  -16.4405  -15.1378 C   0  0  0  0  0  0  0  0  0  0  0  0
   26.7915  -16.7802  -16.4046 C   0  0  0  0  0  0  0  0  0  0  0  0
   24.9207  -20.5841  -15.3525 C   0  0  0  0  0  0  0  0  0  0  0  0
   24.9625  -21.7685  -15.7660 O   0  0  0  0  0  0  0  0  0  0  0  0
   18.2078  -21.0824  -10.8560 N   0  0  0  0  0  0  0  0  0  0  0  0
   19.4082  -21.5073  -10.1805 C   0  0  0  0  0  0  0  0  0  0  0  0
   19.3302  -22.5054   -9.3772 N   0  0  0  0  0  0  0  0  0  0  0  0
   20.6447  -20.8450  -10.3933 N   0  0  0  0  0  0  0  0  0  0  0  0
   20.6852  -19.6623  -11.2289 C   0  0  0  0  0  0  0  0  0  0  0  0
   21.1970  -20.0171  -12.6267 C   0  0  0  0  0  0  0  0  0  0  0  0
   22.3849  -20.8904  -12.6049 C   0  0  0  0  0  0  0  0  0  0  0  0
   22.9861  -21.2531  -13.9324 C   0  0  2  0  0  0  0  0  0  0  0  0
   23.9168  -20.2649  -14.4199 N   0  0  0  0  0  0  0  0  0  0  0  0
   21.8788  -21.4807  -14.9085 C   0  0  0  0  0  0  0  0  0  0  0  0
   21.4702  -20.5815  -15.6520 O   0  0  0  0  0  0  0  0  0  0  0  0
   20.1431  -22.8733   -8.8478 O   0  0  0  0  0  0  0  0  0  0  0  0
   19.4184  -24.6730  -17.4223 C   0  0  0  0  0  0  0  0  0  0  0  0
   20.4332  -24.4968  -16.4789 C   0  0  2  0  0  0  0  0  0  0  0  0
   20.2273  -23.1272  -15.8761 N   0  0  0  0  0  0  0  0  0  0  0  0
   21.2958  -22.7520  -14.9738 C   0  0  0  0  0  0  0  0  0  0  0  0
   18.8985  -22.9759  -15.2589 O   0  0  0  0  0  0  0  0  0  0  0  0
   18.7389  -23.0573  -14.0215 O   0  0  0  0  0  0  0  0  0  0  0  0
  2  1  1  6
  2  3  1  0
  4  5  2  0
  4  3  1  0
  6  5  1  0
  7 12  2  0
  7  6  1  0
  8  7  1  0
  9 10  1  0
  9  8  2  0
 10 11  2  0
 11 12  1  0
 12  4  1  0
 13  2  1  0
 13 14  2  0
 16 17  2  0
 16 15  1  0
 18 16  1  0
 19 18  1  0
 20 21  1  0
 20 19  1  0
 22 21  1  1
 22 23  1  0
 23 13  1  0
 24 22  1  0
 25 24  2  0
 26 27  1  0
 28 27  1  6
 28 29  1  0
 28 30  1  0
 29 24  1  0
 30 32  1  0
 31 30  2  0
M  END
$$$$
