WRS.pdb
     RDKit          3D

 32 33  0  0  1  0  0  0  0  0999 V2000
   25.7360  -19.5810  -11.5596 N   0  0  0  0  0  0  0  0  0  0  0  0
   26.1678  -20.9469  -11.7884 C   0  0  1  0  0  0  0  0  0  0  0  0
   25.7800  -21.7246  -10.5667 C   0  0  0  0  0  0  0  0  0  0  0  0
   26.3695  -21.0438   -9.3823 C   0  0  0  0  0  0  0  0  0  0  0  0
   25.7066  -20.3722   -8.3631 C   0  0  0  0  0  0  0  0  0  0  0  0
   26.6534  -19.9272   -7.5289 N   0  0  0  0  0  0  0  0  0  0  0  0
   27.8735  -20.2782   -7.9612 C   0  0  0  0  0  0  0  0  0  0  0  0
   29.1655  -20.0787   -7.4831 C   0  0  0  0  0  0  0  0  0  0  0  0
   30.2548  -20.5641   -8.1450 C   0  0  0  0  0  0  0  0  0  0  0  0
   30.1070  -21.2779   -9.3258 C   0  0  0  0  0  0  0  0  0  0  0  0
   28.8417  -21.4821   -9.8088 C   0  0  0  0  0  0  0  0  0  0  0  0
   27.7300  -20.9985   -9.1524 C   0  0  0  0  0  0  0  0  0  0  0  0
   25.5463  -21.4327  -13.0296 C   0  0  0  0  0  0  0  0  0  0  0  0
   24.4711  -20.8975  -13.3943 O   0  0  0  0  0  0  0  0  0  0  0  0
   30.1416  -25.7724  -15.9032 N   0  0  0  0  0  0  0  0  0  0  0  0
   28.8885  -26.2380  -16.4425 C   0  0  0  0  0  0  0  0  0  0  0  0
   28.5672  -27.4664  -16.2545 N   0  0  0  0  0  0  0  0  0  0  0  0
   28.0296  -25.3678  -17.1620 N   0  0  0  0  0  0  0  0  0  0  0  0
   28.3895  -23.9723  -17.3093 C   0  0  0  0  0  0  0  0  0  0  0  0
   27.6090  -23.1143  -16.3113 C   0  0  0  0  0  0  0  0  0  0  0  0
   26.2952  -23.6840  -15.9600 C   0  0  0  0  0  0  0  0  0  0  0  0
   25.4128  -22.8582  -15.0685 C   0  0  2  0  0  0  0  0  0  0  0  0
   26.0639  -22.4546  -13.8464 N   0  0  0  0  0  0  0  0  0  0  0  0
   24.1663  -23.6311  -14.7870 C   0  0  0  0  0  0  0  0  0  0  0  0
   24.1969  -24.7452  -14.2520 O   0  0  0  0  0  0  0  0  0  0  0  0
   27.6562  -27.8667  -16.5482 O   0  0  0  0  0  0  0  0  0  0  0  0
   20.6532  -21.7735  -15.8115 C   0  0  0  0  0  0  0  0  0  0  0  0
   20.5469  -22.6472  -14.7271 C   0  0  1  0  0  0  0  0  0  0  0  0
   21.6440  -23.6725  -14.8917 N   0  0  0  0  0  0  0  0  0  0  0  0
   22.9352  -23.0675  -15.1435 C   0  0  0  0  0  0  0  0  0  0  0  0
   21.3083  -24.7035  -15.8885 O   0  0  0  0  0  0  0  0  0  0  0  0
   20.3169  -25.4523  -15.7470 O   0  0  0  0  0  0  0  0  0  0  0  0
  2  1  1  1
  2  3  1  0
  4  5  2  0
  4  3  1  0
  6  5  1  0
  7 12  2  0
  7  6  1  0
  8  7  1  0
  9 10  1  0
  9  8  2  0
 10 11  2  0
 11 12  1  0
 12  4  1  0
 13  2  1  0
 13 14  2  0
 16 17  2  0
 16 15  1  0
 18 16  1  0
 19 18  1  0
 20 21  1  0
 20 19  1  0
 22 21  1  6
 22 23  1  0
 23 13  1  0
 24 22  1  0
 25 24  2  0
 26 27  1  0
 28 27  1  1
 28 29  1  0
 28 30  1  0
 29 24  1  0
 30 32  1  0
 31 30  2  0
M  END
$$$$
