WRS.pdb
     RDKit          3D

 32 33  0  0  1  0  0  0  0  0999 V2000
   19.4227  -12.7333  -15.3499 N   0  0  0  0  0  0  0  0  0  0  0  0
   19.4862  -11.4983  -16.1083 C   0  0  1  0  0  0  0  0  0  0  0  0
   18.0873  -10.9621  -16.1636 C   0  0  0  0  0  0  0  0  0  0  0  0
   17.2888  -11.8515  -17.0497 C   0  0  0  0  0  0  0  0  0  0  0  0
   16.6141  -13.0169  -16.7094 C   0  0  0  0  0  0  0  0  0  0  0  0
   16.0480  -13.4655  -17.8357 N   0  0  0  0  0  0  0  0  0  0  0  0
   16.3254  -12.6525  -18.8657 C   0  0  0  0  0  0  0  0  0  0  0  0
   15.9927  -12.6528  -20.2173 C   0  0  0  0  0  0  0  0  0  0  0  0
   16.4235  -11.6699  -21.0591 C   0  0  0  0  0  0  0  0  0  0  0  0
   17.2137  -10.6303  -20.5896 C   0  0  0  0  0  0  0  0  0  0  0  0
   17.5494  -10.6165  -19.2617 C   0  0  0  0  0  0  0  0  0  0  0  0
   17.1225  -11.6021  -18.3973 C   0  0  0  0  0  0  0  0  0  0  0  0
   20.4476  -10.5969  -15.4555 C   0  0  0  0  0  0  0  0  0  0  0  0
   20.2918  -10.3614  -14.2324 O   0  0  0  0  0  0  0  0  0  0  0  0
   28.5070  -11.4167  -16.6661 N   0  0  0  0  0  0  0  0  0  0  0  0
   27.2698  -11.4824  -17.4029 C   0  0  0  0  0  0  0  0  0  0  0  0
   27.3059  -11.9188  -18.6095 N   0  0  0  0  0  0  0  0  0  0  0  0
   26.0429  -11.0778  -16.8166 N   0  0  0  0  0  0  0  0  0  0  0  0
   26.0085  -10.7144  -15.4147 C   0  0  0  0  0  0  0  0  0  0  0  0
   24.5663  -10.4726  -14.9640 C   0  0  0  0  0  0  0  0  0  0  0  0
   23.8938   -9.4015  -15.7220 C   0  0  0  0  0  0  0  0  0  0  0  0
   22.4574   -9.1265  -15.3811 C   0  0  2  0  0  0  0  0  0  0  0  0
   21.5349   -9.9746  -16.0955 N   0  0  0  0  0  0  0  0  0  0  0  0
   22.1761   -7.6828  -15.6403 C   0  0  0  0  0  0  0  0  0  0  0  0
   22.2608   -7.1955  -16.7733 O   0  0  0  0  0  0  0  0  0  0  0  0
   26.4650  -11.9905  -19.2130 O   0  0  0  0  0  0  0  0  0  0  0  0
   19.6237   -5.7008  -13.2942 C   0  0  0  0  0  0  0  0  0  0  0  0
   20.0200   -5.1786  -14.5275 C   0  0  1  0  0  0  0  0  0  0  0  0
   21.4987   -5.4578  -14.6578 N   0  0  0  0  0  0  0  0  0  0  0  0
   21.8071   -6.8694  -14.5622 C   0  0  0  0  0  0  0  0  0  0  0  0
   22.3100   -4.6469  -13.7339 O   0  0  0  0  0  0  0  0  0  0  0  0
   23.0923   -5.1754  -12.9140 O   0  0  0  0  0  0  0  0  0  0  0  0
  2  1  1  1
  2  3  1  0
  4  5  2  0
  4  3  1  0
  6  5  1  0
  7 12  2  0
  7  6  1  0
  8  7  1  0
  9 10  1  0
  9  8  2  0
 10 11  2  0
 11 12  1  0
 12  4  1  0
 13  2  1  0
 13 14  2  0
 16 17  2  0
 16 15  1  0
 18 16  1  0
 19 18  1  0
 20 21  1  0
 20 19  1  0
 22 21  1  6
 22 23  1  0
 23 13  1  0
 24 22  1  0
 25 24  2  0
 26 27  1  0
 28 27  1  6
 28 29  1  0
 28 30  1  0
 29 24  1  0
 30 32  1  0
 31 30  2  0
M  END
$$$$
