WRS.pdb
     RDKit          3D

 32 33  0  0  1  0  0  0  0  0999 V2000
   24.5016  -31.6609  -15.8897 N   0  0  0  0  0  0  0  0  0  0  0  0
   23.4414  -31.9221  -14.9344 C   0  0  1  0  0  0  0  0  0  0  0  0
   22.3259  -32.5635  -15.7037 C   0  0  0  0  0  0  0  0  0  0  0  0
   21.7769  -31.5519  -16.6466 C   0  0  0  0  0  0  0  0  0  0  0  0
   21.2105  -30.3199  -16.3460 C   0  0  0  0  0  0  0  0  0  0  0  0
   20.8620  -29.7714  -17.5156 N   0  0  0  0  0  0  0  0  0  0  0  0
   21.1750  -30.5839  -18.5356 C   0  0  0  0  0  0  0  0  0  0  0  0
   21.0362  -30.5011  -19.9182 C   0  0  0  0  0  0  0  0  0  0  0  0
   21.4578  -31.5049  -20.7396 C   0  0  0  0  0  0  0  0  0  0  0  0
   22.0433  -32.6496  -20.2176 C   0  0  0  0  0  0  0  0  0  0  0  0
   22.1867  -32.7455  -18.8587 C   0  0  0  0  0  0  0  0  0  0  0  0
   21.7660  -31.7403  -18.0142 C   0  0  0  0  0  0  0  0  0  0  0  0
   23.9817  -32.7594  -13.8528 C   0  0  0  0  0  0  0  0  0  0  0  0
   24.9995  -33.4509  -14.1005 O   0  0  0  0  0  0  0  0  0  0  0  0
   27.7179  -32.5587   -6.4206 N   0  0  0  0  0  0  0  0  0  0  0  0
   26.2787  -32.4937   -6.4682 C   0  0  0  0  0  0  0  0  0  0  0  0
   25.6323  -32.5640   -5.3615 N   0  0  0  0  0  0  0  0  0  0  0  0
   25.5897  -32.3556   -7.7007 N   0  0  0  0  0  0  0  0  0  0  0  0
   26.3230  -32.4742   -8.9443 C   0  0  0  0  0  0  0  0  0  0  0  0
   25.4194  -32.1254  -10.1290 C   0  0  0  0  0  0  0  0  0  0  0  0
   24.2380  -33.0012  -10.2347 C   0  0  0  0  0  0  0  0  0  0  0  0
   24.0258  -33.7008  -11.5466 C   0  0  2  0  0  0  0  0  0  0  0  0
   23.4465  -32.8472  -12.5546 N   0  0  0  0  0  0  0  0  0  0  0  0
   23.1794  -34.9081  -11.3091 C   0  0  0  0  0  0  0  0  0  0  0  0
   21.9533  -34.8857  -11.4663 O   0  0  0  0  0  0  0  0  0  0  0  0
   24.5962  -32.5721   -5.3083 O   0  0  0  0  0  0  0  0  0  0  0  0
   21.5762  -38.5061   -9.3434 C   0  0  0  0  0  0  0  0  0  0  0  0
   22.0403  -37.2137   -9.5988 C   0  0  2  0  0  0  0  0  0  0  0  0
   23.1204  -37.3437  -10.6467 N   0  0  0  0  0  0  0  0  0  0  0  0
   23.8034  -36.0918  -10.8974 C   0  0  0  0  0  0  0  0  0  0  0  0
   22.6313  -37.9692  -11.8872 O   0  0  0  0  0  0  0  0  0  0  0  0
   22.8493  -37.4585  -13.0074 O   0  0  0  0  0  0  0  0  0  0  0  0
  2  1  1  6
  2  3  1  0
  4  5  2  0
  4  3  1  0
  6  5  1  0
  7 12  2  0
  7  6  1  0
  8  7  1  0
  9 10  1  0
  9  8  2  0
 10 11  2  0
 11 12  1  0
 12  4  1  0
 13  2  1  0
 13 14  2  0
 16 17  2  0
 16 15  1  0
 18 16  1  0
 19 18  1  0
 20 21  1  0
 20 19  1  0
 22 21  1  1
 22 23  1  0
 23 13  1  0
 24 22  1  0
 25 24  2  0
 26 27  1  0
 28 27  1  1
 28 29  1  0
 28 30  1  0
 29 24  1  0
 30 32  1  0
 31 30  2  0
M  END
$$$$
