WRS.pdb
     RDKit          3D

 32 33  0  0  1  0  0  0  0  0999 V2000
   33.9821   -7.5928  -18.0260 N   0  0  0  0  0  0  0  0  0  0  0  0
   32.8916   -8.2729  -17.3530 C   0  0  1  0  0  0  0  0  0  0  0  0
   32.7005   -7.5731  -16.0410 C   0  0  0  0  0  0  0  0  0  0  0  0
   33.8749   -7.8806  -15.1808 C   0  0  0  0  0  0  0  0  0  0  0  0
   34.6924   -6.9894  -14.4976 C   0  0  0  0  0  0  0  0  0  0  0  0
   35.6113   -7.7302  -13.8675 N   0  0  0  0  0  0  0  0  0  0  0  0
   35.4219   -9.0352  -14.1124 C   0  0  0  0  0  0  0  0  0  0  0  0
   36.0716  -10.2001  -13.7143 C   0  0  0  0  0  0  0  0  0  0  0  0
   35.6486  -11.4298  -14.1254 C   0  0  0  0  0  0  0  0  0  0  0  0
   34.5478  -11.5584  -14.9606 C   0  0  0  0  0  0  0  0  0  0  0  0
   33.8982  -10.4209  -15.3608 C   0  0  0  0  0  0  0  0  0  0  0  0
   34.3125   -9.1703  -14.9546 C   0  0  0  0  0  0  0  0  0  0  0  0
   31.7092   -8.2402  -18.2270 C   0  0  0  0  0  0  0  0  0  0  0  0
   31.5513   -7.2342  -18.9608 O   0  0  0  0  0  0  0  0  0  0  0  0
   28.7696  -15.3018  -21.6923 N   0  0  0  0  0  0  0  0  0  0  0  0
   28.2659  -15.1538  -20.3498 C   0  0  0  0  0  0  0  0  0  0  0  0
   27.6525  -16.1491  -19.8198 N   0  0  0  0  0  0  0  0  0  0  0  0
   28.4401  -13.9445  -19.6287 N   0  0  0  0  0  0  0  0  0  0  0  0
   28.8197  -12.7399  -20.3383 C   0  0  0  0  0  0  0  0  0  0  0  0
   29.0082  -11.5820  -19.3558 C   0  0  0  0  0  0  0  0  0  0  0  0
   29.3229  -10.3036  -20.0198 C   0  0  0  0  0  0  0  0  0  0  0  0
   29.5594   -9.1164  -19.1311 C   0  0  2  0  0  0  0  0  0  0  0  0
   30.7357   -9.2527  -18.3076 N   0  0  0  0  0  0  0  0  0  0  0  0
   28.3392   -8.8963  -18.2985 C   0  0  0  0  0  0  0  0  0  0  0  0
   28.3359   -9.1027  -17.0796 O   0  0  0  0  0  0  0  0  0  0  0  0
   27.2202  -16.1135  -18.8773 O   0  0  0  0  0  0  0  0  0  0  0  0
   24.6307   -8.3613  -16.3337 C   0  0  0  0  0  0  0  0  0  0  0  0
   25.9212   -8.5938  -16.8147 C   0  0  2  0  0  0  0  0  0  0  0  0
   25.9417   -8.1067  -18.2444 N   0  0  0  0  0  0  0  0  0  0  0  0
   27.1732   -8.4435  -18.9274 C   0  0  0  0  0  0  0  0  0  0  0  0
   25.6157   -6.6749  -18.3579 O   0  0  0  0  0  0  0  0  0  0  0  0
   26.3603   -5.8811  -18.9735 O   0  0  0  0  0  0  0  0  0  0  0  0
  2  1  1  6
  2  3  1  0
  4  5  2  0
  4  3  1  0
  6  5  1  0
  7 12  2  0
  7  6  1  0
  8  7  1  0
  9 10  1  0
  9  8  2  0
 10 11  2  0
 11 12  1  0
 12  4  1  0
 13  2  1  0
 13 14  2  0
 16 17  2  0
 16 15  1  0
 18 16  1  0
 19 18  1  0
 20 21  1  0
 20 19  1  0
 22 21  1  1
 22 23  1  0
 23 13  1  0
 24 22  1  0
 25 24  2  0
 26 27  1  0
 28 27  1  6
 28 29  1  0
 28 30  1  0
 29 24  1  0
 30 32  1  0
 31 30  2  0
M  END
$$$$
