WRS.pdb
     RDKit          3D

 32 33  0  0  1  0  0  0  0  0999 V2000
   24.5515  -18.1723  -19.4895 N   0  0  0  0  0  0  0  0  0  0  0  0
   23.4044  -17.6833  -18.7482 C   0  0  1  0  0  0  0  0  0  0  0  0
   22.3393  -17.3881  -19.7611 C   0  0  0  0  0  0  0  0  0  0  0  0
   22.7080  -16.1285  -20.4620 C   0  0  0  0  0  0  0  0  0  0  0  0
   23.3656  -15.9859  -21.6770 C   0  0  0  0  0  0  0  0  0  0  0  0
   23.4750  -14.6699  -21.8925 N   0  0  0  0  0  0  0  0  0  0  0  0
   22.9255  -13.9743  -20.8861 C   0  0  0  0  0  0  0  0  0  0  0  0
   22.7696  -12.6174  -20.6177 C   0  0  0  0  0  0  0  0  0  0  0  0
   22.1500  -12.1802  -19.4841 C   0  0  0  0  0  0  0  0  0  0  0  0
   21.6517  -13.0828  -18.5553 C   0  0  0  0  0  0  0  0  0  0  0  0
   21.7978  -14.4215  -18.8056 C   0  0  0  0  0  0  0  0  0  0  0  0
   22.4214  -14.8804  -19.9463 C   0  0  0  0  0  0  0  0  0  0  0  0
   23.0215  -18.6983  -17.7551 C   0  0  0  0  0  0  0  0  0  0  0  0
   23.2079  -19.9043  -18.0490 O   0  0  0  0  0  0  0  0  0  0  0  0
   25.8818  -22.5850  -11.5922 N   0  0  0  0  0  0  0  0  0  0  0  0
   24.7971  -23.2283  -12.2904 C   0  0  0  0  0  0  0  0  0  0  0  0
   24.8494  -24.5009  -12.4496 N   0  0  0  0  0  0  0  0  0  0  0  0
   23.6992  -22.4815  -12.7900 N   0  0  0  0  0  0  0  0  0  0  0  0
   23.6939  -21.0399  -12.6473 C   0  0  0  0  0  0  0  0  0  0  0  0
   22.4310  -20.4485  -13.2775 C   0  0  0  0  0  0  0  0  0  0  0  0
   22.7148  -19.3700  -14.2420 C   0  0  0  0  0  0  0  0  0  0  0  0
   22.0632  -19.4759  -15.5909 C   0  0  2  0  0  0  0  0  0  0  0  0
   22.4607  -18.4241  -16.4943 N   0  0  0  0  0  0  0  0  0  0  0  0
   20.5818  -19.4951  -15.4021 C   0  0  0  0  0  0  0  0  0  0  0  0
   19.9564  -18.4883  -15.0506 O   0  0  0  0  0  0  0  0  0  0  0  0
   24.1047  -25.0450  -12.9249 O   0  0  0  0  0  0  0  0  0  0  0  0
   18.3232  -21.8164  -17.6313 C   0  0  0  0  0  0  0  0  0  0  0  0
   17.9460  -22.0373  -16.3047 C   0  0  2  0  0  0  0  0  0  0  0  0
   18.4609  -20.8607  -15.5095 N   0  0  0  0  0  0  0  0  0  0  0  0
   19.8938  -20.6924  -15.6329 C   0  0  0  0  0  0  0  0  0  0  0  0
   18.0233  -20.8946  -14.1036 O   0  0  0  0  0  0  0  0  0  0  0  0
   18.8446  -20.9801  -13.1646 O   0  0  0  0  0  0  0  0  0  0  0  0
  2  1  1  6
  2  3  1  0
  4  5  2  0
  4  3  1  0
  6  5  1  0
  7 12  2  0
  7  6  1  0
  8  7  1  0
  9 10  1  0
  9  8  2  0
 10 11  2  0
 11 12  1  0
 12  4  1  0
 13  2  1  0
 13 14  2  0
 16 17  2  0
 16 15  1  0
 18 16  1  0
 19 18  1  0
 20 21  1  0
 20 19  1  0
 22 21  1  1
 22 23  1  0
 23 13  1  0
 24 22  1  0
 25 24  2  0
 26 27  1  0
 28 27  1  6
 28 29  1  0
 28 30  1  0
 29 24  1  0
 30 32  1  0
 31 30  2  0
M  END
$$$$
