WRS.pdb
     RDKit          3D

 32 33  0  0  1  0  0  0  0  0999 V2000
   25.3941  -18.9794   -8.7182 N   0  0  0  0  0  0  0  0  0  0  0  0
   26.2448  -19.9593   -9.3667 C   0  0  1  0  0  0  0  0  0  0  0  0
   26.1626  -21.2065   -8.5388 C   0  0  0  0  0  0  0  0  0  0  0  0
   26.5081  -20.8505   -7.1360 C   0  0  0  0  0  0  0  0  0  0  0  0
   25.6457  -20.6584   -6.0644 C   0  0  0  0  0  0  0  0  0  0  0  0
   26.4151  -20.3516   -5.0136 N   0  0  0  0  0  0  0  0  0  0  0  0
   27.7110  -20.3391   -5.3587 C   0  0  0  0  0  0  0  0  0  0  0  0
   28.8949  -20.0909   -4.6699 C   0  0  0  0  0  0  0  0  0  0  0  0
   30.1082  -20.1523   -5.2899 C   0  0  0  0  0  0  0  0  0  0  0  0
   30.2003  -20.4669   -6.6383 C   0  0  0  0  0  0  0  0  0  0  0  0
   29.0438  -20.7136   -7.3294 C   0  0  0  0  0  0  0  0  0  0  0  0
   27.8094  -20.6558   -6.7182 C   0  0  0  0  0  0  0  0  0  0  0  0
   25.7881  -20.1305  -10.7542 C   0  0  0  0  0  0  0  0  0  0  0  0
   24.6002  -19.8255  -11.0214 O   0  0  0  0  0  0  0  0  0  0  0  0
   28.9266  -22.5763  -16.8772 N   0  0  0  0  0  0  0  0  0  0  0  0
   29.8794  -22.4056  -15.8090 C   0  0  0  0  0  0  0  0  0  0  0  0
   30.6534  -23.3893  -15.5249 N   0  0  0  0  0  0  0  0  0  0  0  0
   29.9645  -21.1867  -15.0881 N   0  0  0  0  0  0  0  0  0  0  0  0
   29.1453  -20.0618  -15.4906 C   0  0  0  0  0  0  0  0  0  0  0  0
   28.0918  -19.7627  -14.4219 C   0  0  0  0  0  0  0  0  0  0  0  0
   27.1754  -20.8919  -14.1789 C   0  0  0  0  0  0  0  0  0  0  0  0
   26.0874  -20.6785  -13.1660 C   0  0  2  0  0  0  0  0  0  0  0  0
   26.5811  -20.6105  -11.8125 N   0  0  0  0  0  0  0  0  0  0  0  0
   25.0767  -21.7674  -13.3187 C   0  0  0  0  0  0  0  0  0  0  0  0
   25.1695  -22.8341  -12.7009 O   0  0  0  0  0  0  0  0  0  0  0  0
   31.2882  -23.3940  -14.7042 O   0  0  0  0  0  0  0  0  0  0  0  0
   20.8407  -21.6945  -12.3924 C   0  0  0  0  0  0  0  0  0  0  0  0
   22.1330  -21.2170  -12.6220 C   0  0  2  0  0  0  0  0  0  0  0  0
   22.6195  -21.8836  -13.8872 N   0  0  0  0  0  0  0  0  0  0  0  0
   23.9988  -21.5621  -14.1883 C   0  0  0  0  0  0  0  0  0  0  0  0
   21.7276  -21.6383  -15.0335 O   0  0  0  0  0  0  0  0  0  0  0  0
   21.9564  -20.7255  -15.8568 O   0  0  0  0  0  0  0  0  0  0  0  0
  2  1  1  1
  2  3  1  0
  4  5  2  0
  4  3  1  0
  6  5  1  0
  7 12  2  0
  7  6  1  0
  8  7  1  0
  9 10  1  0
  9  8  2  0
 10 11  2  0
 11 12  1  0
 12  4  1  0
 13  2  1  0
 13 14  2  0
 16 17  2  0
 16 15  1  0
 18 16  1  0
 19 18  1  0
 20 21  1  0
 20 19  1  0
 22 21  1  6
 22 23  1  0
 23 13  1  0
 24 22  1  0
 25 24  2  0
 26 27  1  0
 28 27  1  1
 28 29  1  0
 28 30  1  0
 29 24  1  0
 30 32  1  0
 31 30  2  0
M  END
$$$$
