WRS.pdb
     RDKit          3D

 32 33  0  0  1  0  0  0  0  0999 V2000
   24.7830  -17.5144  -17.7713 N   0  0  0  0  0  0  0  0  0  0  0  0
   23.9295  -18.4594  -17.0762 C   0  0  1  0  0  0  0  0  0  0  0  0
   22.7003  -18.6204  -17.9192 C   0  0  0  0  0  0  0  0  0  0  0  0
   21.9385  -17.3432  -17.8698 C   0  0  0  0  0  0  0  0  0  0  0  0
   21.8397  -16.3668  -18.8526 C   0  0  0  0  0  0  0  0  0  0  0  0
   21.0526  -15.4079  -18.3514 N   0  0  0  0  0  0  0  0  0  0  0  0
   20.6492  -15.7214  -17.1113 C   0  0  0  0  0  0  0  0  0  0  0  0
   19.8413  -15.0939  -16.1674 C   0  0  0  0  0  0  0  0  0  0  0  0
   19.5915  -15.6598  -14.9519 C   0  0  0  0  0  0  0  0  0  0  0  0
   20.1401  -16.8894  -14.6160 C   0  0  0  0  0  0  0  0  0  0  0  0
   20.9375  -17.5190  -15.5346 C   0  0  0  0  0  0  0  0  0  0  0  0
   21.2002  -16.9611  -16.7677 C   0  0  0  0  0  0  0  0  0  0  0  0
   24.6819  -19.7061  -16.8703 C   0  0  0  0  0  0  0  0  0  0  0  0
   25.2294  -20.2314  -17.8702 O   0  0  0  0  0  0  0  0  0  0  0  0
   25.5406  -19.5753   -9.8377 N   0  0  0  0  0  0  0  0  0  0  0  0
   24.5491  -20.5773  -10.1389 C   0  0  0  0  0  0  0  0  0  0  0  0
   23.3119  -20.2683   -9.9929 N   0  0  0  0  0  0  0  0  0  0  0  0
   24.9237  -21.8710  -10.5848 N   0  0  0  0  0  0  0  0  0  0  0  0
   25.8791  -22.0034  -11.6656 C   0  0  0  0  0  0  0  0  0  0  0  0
   25.2114  -21.6891  -13.0062 C   0  0  0  0  0  0  0  0  0  0  0  0
   26.1191  -21.8472  -14.1573 C   0  0  0  0  0  0  0  0  0  0  0  0
   25.5331  -21.6198  -15.5211 C   0  0  2  0  0  0  0  0  0  0  0  0
   24.8389  -20.3606  -15.6348 N   0  0  0  0  0  0  0  0  0  0  0  0
   24.6319  -22.7652  -15.8474 C   0  0  0  0  0  0  0  0  0  0  0  0
   23.4676  -22.8165  -15.4350 O   0  0  0  0  0  0  0  0  0  0  0  0
   22.5355  -20.9333  -10.1704 O   0  0  0  0  0  0  0  0  0  0  0  0
   26.3598  -26.0723  -17.6146 C   0  0  0  0  0  0  0  0  0  0  0  0
   25.0841  -25.7826  -18.1039 C   0  0  1  0  0  0  0  0  0  0  0  0
   24.3840  -24.9810  -17.0320 N   0  0  0  0  0  0  0  0  0  0  0  0
   25.1312  -23.8032  -16.6433 C   0  0  0  0  0  0  0  0  0  0  0  0
   23.9989  -25.8038  -15.8726 O   0  0  0  0  0  0  0  0  0  0  0  0
   24.4598  -25.5827  -14.7315 O   0  0  0  0  0  0  0  0  0  0  0  0
  2  1  1  6
  2  3  1  0
  4  5  2  0
  4  3  1  0
  6  5  1  0
  7 12  2  0
  7  6  1  0
  8  7  1  0
  9 10  1  0
  9  8  2  0
 10 11  2  0
 11 12  1  0
 12  4  1  0
 13  2  1  0
 13 14  2  0
 16 17  2  0
 16 15  1  0
 18 16  1  0
 19 18  1  0
 20 21  1  0
 20 19  1  0
 22 21  1  1
 22 23  1  0
 23 13  1  0
 24 22  1  0
 25 24  2  0
 26 27  1  0
 28 27  1  6
 28 29  1  0
 28 30  1  0
 29 24  1  0
 30 32  1  0
 31 30  2  0
M  END
$$$$
