WRS.pdb
     RDKit          3D

 32 33  0  0  1  0  0  0  0  0999 V2000
   26.8453  -22.8956  -11.8708 N   0  0  0  0  0  0  0  0  0  0  0  0
   26.2074  -21.8347  -11.1145 C   0  0  1  0  0  0  0  0  0  0  0  0
   27.0493  -20.6096  -11.3094 C   0  0  0  0  0  0  0  0  0  0  0  0
   28.2147  -20.7016  -10.3889 C   0  0  0  0  0  0  0  0  0  0  0  0
   29.5099  -21.1059  -10.6855 C   0  0  0  0  0  0  0  0  0  0  0  0
   30.1991  -21.0271   -9.5413 N   0  0  0  0  0  0  0  0  0  0  0  0
   29.4157  -20.5972   -8.5411 C   0  0  0  0  0  0  0  0  0  0  0  0
   29.6232  -20.3433   -7.1883 C   0  0  0  0  0  0  0  0  0  0  0  0
   28.6171  -19.8969   -6.3830 C   0  0  0  0  0  0  0  0  0  0  0  0
   27.3445  -19.6803   -6.8922 C   0  0  0  0  0  0  0  0  0  0  0  0
   27.1250  -19.9259   -8.2217 C   0  0  0  0  0  0  0  0  0  0  0  0
   28.1307  -20.3774   -9.0496 C   0  0  0  0  0  0  0  0  0  0  0  0
   24.8222  -21.6906  -11.5871 C   0  0  0  0  0  0  0  0  0  0  0  0
   24.5521  -22.1007  -12.7423 O   0  0  0  0  0  0  0  0  0  0  0  0
   16.6847  -23.5582   -9.1155 N   0  0  0  0  0  0  0  0  0  0  0  0
   17.5470  -24.1640  -10.0990 C   0  0  0  0  0  0  0  0  0  0  0  0
   17.0222  -24.9657  -10.9531 N   0  0  0  0  0  0  0  0  0  0  0  0
   18.9379  -23.8859  -10.1277 N   0  0  0  0  0  0  0  0  0  0  0  0
   19.4663  -22.8086   -9.3161 C   0  0  0  0  0  0  0  0  0  0  0  0
   20.0680  -21.7190  -10.2063 C   0  0  0  0  0  0  0  0  0  0  0  0
   21.5062  -21.5015   -9.9647 C   0  0  0  0  0  0  0  0  0  0  0  0
   22.3862  -21.3700  -11.1745 C   0  0  2  0  0  0  0  0  0  0  0  0
   23.7690  -21.1276  -10.8434 N   0  0  0  0  0  0  0  0  0  0  0  0
   21.8401  -20.2846  -12.0428 C   0  0  0  0  0  0  0  0  0  0  0  0
   21.7327  -19.1204  -11.6411 O   0  0  0  0  0  0  0  0  0  0  0  0
   17.5729  -25.4631  -11.6782 O   0  0  0  0  0  0  0  0  0  0  0  0
   22.3320  -20.1754  -15.9661 C   0  0  0  0  0  0  0  0  0  0  0  0
   20.9603  -20.1205  -15.7090 C   0  0  2  0  0  0  0  0  0  0  0  0
   20.8093  -19.6889  -14.2694 N   0  0  0  0  0  0  0  0  0  0  0  0
   21.4423  -20.6072  -13.3459 C   0  0  0  0  0  0  0  0  0  0  0  0
   19.4088  -19.4118  -13.9069 O   0  0  0  0  0  0  0  0  0  0  0  0
   18.6803  -20.2886  -13.3931 O   0  0  0  0  0  0  0  0  0  0  0  0
  2  1  1  6
  2  3  1  0
  4  5  2  0
  4  3  1  0
  6  5  1  0
  7 12  2  0
  7  6  1  0
  8  7  1  0
  9 10  1  0
  9  8  2  0
 10 11  2  0
 11 12  1  0
 12  4  1  0
 13  2  1  0
 13 14  2  0
 16 17  2  0
 16 15  1  0
 18 16  1  0
 19 18  1  0
 20 21  1  0
 20 19  1  0
 22 21  1  1
 22 23  1  0
 23 13  1  0
 24 22  1  0
 25 24  2  0
 26 27  1  0
 28 27  1  6
 28 29  1  0
 28 30  1  0
 29 24  1  0
 30 32  1  0
 31 30  2  0
M  END
$$$$
