WRS.pdb
     RDKit          3D

 32 33  0  0  1  0  0  0  0  0999 V2000
   25.2041  -18.0689  -18.0168 N   0  0  0  0  0  0  0  0  0  0  0  0
   24.8389  -17.5615  -16.7076 C   0  0  1  0  0  0  0  0  0  0  0  0
   24.1759  -16.2365  -16.9361 C   0  0  0  0  0  0  0  0  0  0  0  0
   25.2146  -15.2762  -17.3972 C   0  0  0  0  0  0  0  0  0  0  0  0
   25.3176  -14.6560  -18.6357 C   0  0  0  0  0  0  0  0  0  0  0  0
   26.4116  -13.8875  -18.5810 N   0  0  0  0  0  0  0  0  0  0  0  0
   27.0043  -13.9860  -17.3819 C   0  0  0  0  0  0  0  0  0  0  0  0
   28.1373  -13.4133  -16.8110 C   0  0  0  0  0  0  0  0  0  0  0  0
   28.5150  -13.6996  -15.5322 C   0  0  0  0  0  0  0  0  0  0  0  0
   27.7748  -14.5786  -14.7541 C   0  0  0  0  0  0  0  0  0  0  0  0
   26.6573  -15.1502  -15.3023 C   0  0  0  0  0  0  0  0  0  0  0  0
   26.2614  -14.8717  -16.5932 C   0  0  0  0  0  0  0  0  0  0  0  0
   23.9805  -18.5541  -16.0437 C   0  0  0  0  0  0  0  0  0  0  0  0
   23.2481  -19.2721  -16.7673 O   0  0  0  0  0  0  0  0  0  0  0  0
   24.6309  -24.2573  -13.7685 N   0  0  0  0  0  0  0  0  0  0  0  0
   25.6657  -23.3323  -14.1577 C   0  0  0  0  0  0  0  0  0  0  0  0
   26.3485  -23.5960  -15.2122 N   0  0  0  0  0  0  0  0  0  0  0  0
   25.9272  -22.1612  -13.4009 N   0  0  0  0  0  0  0  0  0  0  0  0
   25.1745  -21.9134  -12.1881 C   0  0  0  0  0  0  0  0  0  0  0  0
   23.7115  -21.6147  -12.5228 C   0  0  0  0  0  0  0  0  0  0  0  0
   23.4396  -20.1765  -12.7011 C   0  0  0  0  0  0  0  0  0  0  0  0
   23.0152  -19.7298  -14.0707 C   0  0  2  0  0  0  0  0  0  0  0  0
   23.9149  -18.7653  -14.6543 N   0  0  0  0  0  0  0  0  0  0  0  0
   21.6255  -19.1895  -13.9842 C   0  0  0  0  0  0  0  0  0  0  0  0
   21.3883  -18.0743  -13.5063 O   0  0  0  0  0  0  0  0  0  0  0  0
   27.0966  -22.9750  -15.5745 O   0  0  0  0  0  0  0  0  0  0  0  0
   18.8601  -20.8827  -16.3769 C   0  0  0  0  0  0  0  0  0  0  0  0
   18.5756  -19.6187  -15.8552 C   0  0  1  0  0  0  0  0  0  0  0  0
   19.1789  -19.5789  -14.4710 N   0  0  0  0  0  0  0  0  0  0  0  0
   20.5709  -19.9773  -14.4610 C   0  0  0  0  0  0  0  0  0  0  0  0
   18.3791  -20.3253  -13.4848 O   0  0  0  0  0  0  0  0  0  0  0  0
   18.8697  -21.2639  -12.8202 O   0  0  0  0  0  0  0  0  0  0  0  0
  2  1  1  6
  2  3  1  0
  4  5  2  0
  4  3  1  0
  6  5  1  0
  7 12  2  0
  7  6  1  0
  8  7  1  0
  9 10  1  0
  9  8  2  0
 10 11  2  0
 11 12  1  0
 12  4  1  0
 13  2  1  0
 13 14  2  0
 16 17  2  0
 16 15  1  0
 18 16  1  0
 19 18  1  0
 20 21  1  0
 20 19  1  0
 22 21  1  1
 22 23  1  0
 23 13  1  0
 24 22  1  0
 25 24  2  0
 26 27  1  0
 28 27  1  6
 28 29  1  0
 28 30  1  0
 29 24  1  0
 30 32  1  0
 31 30  2  0
M  END
$$$$
