WRS.pdb
     RDKit          3D

 32 33  0  0  1  0  0  0  0  0999 V2000
   24.7909  -20.6048   -9.1667 N   0  0  0  0  0  0  0  0  0  0  0  0
   26.1173  -20.4198   -9.7245 C   0  0  1  0  0  0  0  0  0  0  0  0
   27.0355  -21.3065   -8.9383 C   0  0  0  0  0  0  0  0  0  0  0  0
   26.9316  -20.9203   -7.5051 C   0  0  0  0  0  0  0  0  0  0  0  0
   25.8415  -21.0642   -6.6566 C   0  0  0  0  0  0  0  0  0  0  0  0
   26.2206  -20.5723   -5.4715 N   0  0  0  0  0  0  0  0  0  0  0  0
   27.4847  -20.1270   -5.5221 C   0  0  0  0  0  0  0  0  0  0  0  0
   28.3433  -19.5407   -4.5966 C   0  0  0  0  0  0  0  0  0  0  0  0
   29.6154  -19.1799   -4.9312 C   0  0  0  0  0  0  0  0  0  0  0  0
   30.0967  -19.3882   -6.2160 C   0  0  0  0  0  0  0  0  0  0  0  0
   29.2633  -19.9642   -7.1378 C   0  0  0  0  0  0  0  0  0  0  0  0
   27.9749  -20.3347   -6.8163 C   0  0  0  0  0  0  0  0  0  0  0  0
   26.0686  -20.7315  -11.1610 C   0  0  0  0  0  0  0  0  0  0  0  0
   25.8993  -21.9297  -11.4946 O   0  0  0  0  0  0  0  0  0  0  0  0
   21.2136  -16.4949  -16.4722 N   0  0  0  0  0  0  0  0  0  0  0  0
   20.7167  -17.5344  -15.6060 C   0  0  0  0  0  0  0  0  0  0  0  0
   19.4460  -17.6937  -15.5182 N   0  0  0  0  0  0  0  0  0  0  0  0
   21.6020  -18.3621  -14.8685 N   0  0  0  0  0  0  0  0  0  0  0  0
   23.0322  -18.2037  -15.0366 C   0  0  0  0  0  0  0  0  0  0  0  0
   23.7834  -19.2380  -14.1954 C   0  0  0  0  0  0  0  0  0  0  0  0
   25.2454  -19.1836  -14.3794 C   0  0  0  0  0  0  0  0  0  0  0  0
   26.0670  -20.1582  -13.5855 C   0  0  2  0  0  0  0  0  0  0  0  0
   26.1964  -19.7886  -12.1973 N   0  0  0  0  0  0  0  0  0  0  0  0
   27.4046  -20.2920  -14.2363 C   0  0  0  0  0  0  0  0  0  0  0  0
   28.2616  -19.4049  -14.1528 O   0  0  0  0  0  0  0  0  0  0  0  0
   19.0034  -18.3999  -14.9002 O   0  0  0  0  0  0  0  0  0  0  0  0
   30.8206  -23.0953  -15.7998 C   0  0  0  0  0  0  0  0  0  0  0  0
   29.6573  -22.9252  -15.0458 C   0  0  1  0  0  0  0  0  0  0  0  0
   28.9343  -21.7358  -15.6326 N   0  0  0  0  0  0  0  0  0  0  0  0
   27.6834  -21.4589  -14.9578 C   0  0  0  0  0  0  0  0  0  0  0  0
   28.7682  -21.8399  -17.0924 O   0  0  0  0  0  0  0  0  0  0  0  0
   27.6408  -21.7735  -17.6290 O   0  0  0  0  0  0  0  0  0  0  0  0
  2  1  1  1
  2  3  1  0
  4  5  2  0
  4  3  1  0
  6  5  1  0
  7 12  2  0
  7  6  1  0
  8  7  1  0
  9 10  1  0
  9  8  2  0
 10 11  2  0
 11 12  1  0
 12  4  1  0
 13  2  1  0
 13 14  2  0
 16 17  2  0
 16 15  1  0
 18 16  1  0
 19 18  1  0
 20 21  1  0
 20 19  1  0
 22 21  1  6
 22 23  1  0
 23 13  1  0
 24 22  1  0
 25 24  2  0
 26 27  1  0
 28 27  1  1
 28 29  1  0
 28 30  1  0
 29 24  1  0
 30 32  1  0
 31 30  2  0
M  END
$$$$
