RMP.pdb
     RDKit          3D

 27 27  0  0  1  0  0  0  0  0999 V2000
   19.0442  -23.5553  -18.4319 N   0  0  0  0  0  0  0  0  0  0  0  0
   19.5384  -24.4684  -17.4663 C   0  0  0  0  0  0  0  0  0  0  0  0
   19.4963  -25.7336  -17.7171 N   0  0  0  0  0  0  0  0  0  0  0  0
   20.0819  -24.0515  -16.2228 N   0  0  0  0  0  0  0  0  0  0  0  0
   20.2104  -22.6522  -15.8801 C   0  0  0  0  0  0  0  0  0  0  0  0
   21.4026  -21.9912  -16.5250 C   0  0  0  0  0  0  0  0  0  0  0  0
   21.4685  -20.5134  -16.1585 C   0  0  0  0  0  0  0  0  0  0  0  0
   21.3741  -20.4241  -14.6400 C   0  0  2  0  0  0  0  0  0  0  0  0
   20.3656  -19.4072  -14.3861 N   0  0  0  0  0  0  0  0  0  0  0  0
   22.6956  -20.0149  -14.0676 C   0  0  0  0  0  0  0  0  0  0  0  0
   23.1143  -18.8464  -14.2545 O   0  0  0  0  0  0  0  0  0  0  0  0
   19.8800  -26.4373  -17.0199 C   0  0  0  0  0  0  0  0  0  0  0  0
   25.1814  -19.7970   -8.7085 S   0  0  0  0  0  0  0  0  0  0  0  0
   26.5328  -20.8565   -9.2828 C   0  0  0  0  0  0  0  0  0  0  0  0
   26.5724  -20.9305  -11.1062 C   0  0  0  0  0  0  0  0  0  0  0  0
   25.2190  -21.2979  -11.5978 C   0  0  2  0  0  0  0  0  0  0  0  0
   24.8499  -20.6041  -12.9067 N   0  0  0  0  0  0  0  0  0  0  0  0
   23.5118  -20.9257  -13.2992 C   0  0  0  0  0  0  0  0  0  0  0  0
   25.8633  -20.7917  -13.9384 O   0  0  0  0  0  0  0  0  0  0  0  0
   26.2141  -22.0206  -14.0843 N   0  0  0  0  0  0  0  0  0  0  0  0
   26.4807  -19.8620  -14.7598 C   0  0  0  0  0  0  0  0  0  0  0  0
   26.1055  -18.4569  -15.0442 C   0  0  0  0  0  0  0  0  0  0  0  0
   27.4674  -17.7725  -14.8570 C   0  0  0  0  0  0  0  0  0  0  0  0
   28.5125  -18.8951  -14.9574 C   0  0  2  0  0  0  0  0  0  0  0  0
   27.6388  -19.9881  -15.6048 C   0  0  0  0  0  0  0  0  0  0  0  0
   28.2957  -21.2318  -15.8386 O   0  0  0  0  0  0  0  0  0  0  0  0
   28.6475  -21.4697  -17.2172 O   0  0  0  0  0  0  0  0  0  0  0  0
  1  2  1  0
  2  3  2  0
  4  2  1  0
  5  4  1  0
  6  5  1  0
  7  6  1  0
  8  7  1  0
  8  9  1  6
 10  8  1  0
 10 11  2  0
 13 12  1  0
 14 13  1  0
 14 15  1  0
 16 17  1  0
 16 15  1  1
 17 10  1  0
 18 16  1  0
 19 18  2  0
 20 18  1  0
 20 21  1  0
 22 21  1  0
 23 22  1  0
 24 23  1  0
 24 20  1  0
 24 25  1  1
 25 26  1  0
 27 25  2  0
M  END
$$$$
