RMP.pdb
     RDKit          3D

 27 27  0  0  1  0  0  0  0  0999 V2000
   17.5904  -23.6069  -10.0995 N   0  0  0  0  0  0  0  0  0  0  0  0
   18.1437  -24.4938  -11.0575 C   0  0  0  0  0  0  0  0  0  0  0  0
   18.1721  -25.7584  -10.8018 N   0  0  0  0  0  0  0  0  0  0  0  0
   18.6747  -24.0507  -12.2973 N   0  0  0  0  0  0  0  0  0  0  0  0
   19.1881  -22.7095  -12.4687 C   0  0  0  0  0  0  0  0  0  0  0  0
   19.5796  -22.4022  -13.8923 C   0  0  0  0  0  0  0  0  0  0  0  0
   20.9976  -21.8475  -13.9579 C   0  0  0  0  0  0  0  0  0  0  0  0
   20.9884  -20.5083  -13.2304 C   0  0  2  0  0  0  0  0  0  0  0  0
   20.3004  -19.5968  -14.1314 N   0  0  0  0  0  0  0  0  0  0  0  0
   22.3920  -20.0501  -12.9826 C   0  0  0  0  0  0  0  0  0  0  0  0
   22.7895  -18.9743  -13.4929 O   0  0  0  0  0  0  0  0  0  0  0  0
   18.4871  -26.4536  -11.5406 C   0  0  0  0  0  0  0  0  0  0  0  0
   25.8129  -19.6988   -7.5599 S   0  0  0  0  0  0  0  0  0  0  0  0
   26.9637  -20.6480   -8.5862 C   0  0  0  0  0  0  0  0  0  0  0  0
   26.5928  -20.4229  -10.3592 C   0  0  0  0  0  0  0  0  0  0  0  0
   25.1866  -20.8343  -10.6079 C   0  0  2  0  0  0  0  0  0  0  0  0
   24.6733  -20.4084  -11.9812 N   0  0  0  0  0  0  0  0  0  0  0  0
   23.3120  -20.8087  -12.1678 C   0  0  0  0  0  0  0  0  0  0  0  0
   25.5855  -20.7845  -13.0549 O   0  0  0  0  0  0  0  0  0  0  0  0
   25.9073  -22.0296  -13.0314 N   0  0  0  0  0  0  0  0  0  0  0  0
   26.1354  -20.0142  -14.0670 C   0  0  0  0  0  0  0  0  0  0  0  0
   25.7938  -18.6380  -14.4978 C   0  0  0  0  0  0  0  0  0  0  0  0
   27.1993  -18.0242  -14.5745 C   0  0  0  0  0  0  0  0  0  0  0  0
   28.1685  -19.2154  -14.6423 C   0  0  2  0  0  0  0  0  0  0  0  0
   27.1679  -20.3260  -15.0198 C   0  0  0  0  0  0  0  0  0  0  0  0
   27.7295  -21.6296  -15.1550 O   0  0  0  0  0  0  0  0  0  0  0  0
   28.0159  -22.0168  -16.5147 O   0  0  0  0  0  0  0  0  0  0  0  0
  1  2  1  0
  2  3  2  0
  4  2  1  0
  5  4  1  0
  6  5  1  0
  7  6  1  0
  8  7  1  0
  8  9  1  6
 10  8  1  0
 10 11  2  0
 13 12  1  0
 14 13  1  0
 14 15  1  0
 16 17  1  0
 16 15  1  1
 17 10  1  0
 18 16  1  0
 19 18  2  0
 20 18  1  0
 20 21  1  0
 22 21  1  0
 23 22  1  0
 24 23  1  0
 24 20  1  0
 24 25  1  1
 25 26  1  0
 27 25  2  0
M  END
$$$$
