RMP.pdb
     RDKit          3D

 27 27  0  0  1  0  0  0  0  0999 V2000
    5.8732  -21.9094   -8.2546 N   0  0  0  0  0  0  0  0  0  0  0  0
    6.9954  -22.1875   -9.0753 C   0  0  0  0  0  0  0  0  0  0  0  0
    6.8299  -22.8708  -10.1574 N   0  0  0  0  0  0  0  0  0  0  0  0
    8.3069  -21.7458   -8.7581 N   0  0  0  0  0  0  0  0  0  0  0  0
    8.5586  -20.8373   -7.6611 C   0  0  0  0  0  0  0  0  0  0  0  0
   10.0183  -20.4956   -7.4977 C   0  0  0  0  0  0  0  0  0  0  0  0
   10.4920  -20.7998   -6.0815 C   0  0  0  0  0  0  0  0  0  0  0  0
   11.4967  -19.7179   -5.7035 C   0  0  2  0  0  0  0  0  0  0  0  0
   12.7395  -20.1203   -6.3433 N   0  0  0  0  0  0  0  0  0  0  0  0
   11.6587  -19.6660   -4.2160 C   0  0  0  0  0  0  0  0  0  0  0  0
   12.6574  -20.2097   -3.6843 O   0  0  0  0  0  0  0  0  0  0  0  0
    7.6336  -23.0115  -10.8377 C   0  0  0  0  0  0  0  0  0  0  0  0
   10.1181  -15.1294    2.0657 S   0  0  0  0  0  0  0  0  0  0  0  0
    9.8039  -15.5672    0.3370 C   0  0  0  0  0  0  0  0  0  0  0  0
   10.5526  -17.1808   -0.0726 C   0  0  0  0  0  0  0  0  0  0  0  0
   10.3503  -17.4463   -1.5206 C   0  0  1  0  0  0  0  0  0  0  0  0
   10.9414  -18.7796   -1.9720 N   0  0  0  0  0  0  0  0  0  0  0  0
   10.6980  -19.0045   -3.3643 C   0  0  0  0  0  0  0  0  0  0  0  0
   10.5680  -19.8785   -1.0894 O   0  0  0  0  0  0  0  0  0  0  0  0
    9.3062  -20.1281   -1.0993 N   0  0  0  0  0  0  0  0  0  0  0  0
   11.3566  -20.6691   -0.2687 C   0  0  0  0  0  0  0  0  0  0  0  0
   12.8191  -20.9048   -0.3070 C   0  0  0  0  0  0  0  0  0  0  0  0
   13.1633  -20.6970    1.1750 C   0  0  0  0  0  0  0  0  0  0  0  0
   11.8333  -20.8374    1.9328 C   0  0  2  0  0  0  0  0  0  0  0  0
   10.9945  -21.5199    0.8339 C   0  0  0  0  0  0  0  0  0  0  0  0
    9.6411  -21.7971    1.1868 O   0  0  0  0  0  0  0  0  0  0  0  0
    8.7092  -20.7518    0.8409 O   0  0  0  0  0  0  0  0  0  0  0  0
  1  2  1  0
  2  3  2  0
  4  2  1  0
  5  4  1  0
  6  5  1  0
  7  6  1  0
  8  7  1  0
  8  9  1  6
 10  8  1  0
 10 11  2  0
 13 12  1  0
 14 13  1  0
 14 15  1  0
 16 17  1  0
 16 15  1  6
 17 10  1  0
 18 16  1  0
 19 18  2  0
 20 18  1  0
 20 21  1  0
 22 21  1  0
 23 22  1  0
 24 23  1  0
 24 20  1  0
 24 25  1  1
 25 26  1  0
 27 25  2  0
M  END
$$$$
