RMP.pdb
     RDKit          3D

 27 27  0  0  1  0  0  0  0  0999 V2000
   21.9536  -25.6493  -16.9439 N   0  0  0  0  0  0  0  0  0  0  0  0
   21.0141  -24.8888  -17.6850 C   0  0  0  0  0  0  0  0  0  0  0  0
   20.1563  -25.5010  -18.4298 N   0  0  0  0  0  0  0  0  0  0  0  0
   20.9735  -23.4702  -17.6466 N   0  0  0  0  0  0  0  0  0  0  0  0
   21.7979  -22.7105  -16.7328 C   0  0  0  0  0  0  0  0  0  0  0  0
   21.2726  -22.7126  -15.3192 C   0  0  0  0  0  0  0  0  0  0  0  0
   21.1848  -21.2935  -14.7704 C   0  0  0  0  0  0  0  0  0  0  0  0
   21.4238  -21.3792  -13.2676 C   0  0  2  0  0  0  0  0  0  0  0  0
   20.3463  -20.6047  -12.6717 N   0  0  0  0  0  0  0  0  0  0  0  0
   22.7552  -20.7859  -12.9258 C   0  0  0  0  0  0  0  0  0  0  0  0
   22.9402  -19.5539  -13.0803 O   0  0  0  0  0  0  0  0  0  0  0  0
   19.4286  -24.9556  -18.9788 C   0  0  0  0  0  0  0  0  0  0  0  0
   26.3884  -19.0655   -8.3747 S   0  0  0  0  0  0  0  0  0  0  0  0
   26.9148  -20.7586   -8.7423 C   0  0  0  0  0  0  0  0  0  0  0  0
   27.0464  -21.0230  -10.5436 C   0  0  0  0  0  0  0  0  0  0  0  0
   25.8295  -21.7367  -11.0108 C   0  0  2  0  0  0  0  0  0  0  0  0
   25.1482  -21.0472  -12.1902 N   0  0  0  0  0  0  0  0  0  0  0  0
   23.8432  -21.5887  -12.4180 C   0  0  0  0  0  0  0  0  0  0  0  0
   26.0084  -20.9809  -13.3658 O   0  0  0  0  0  0  0  0  0  0  0  0
   26.5158  -22.1189  -13.6853 N   0  0  0  0  0  0  0  0  0  0  0  0
   26.3441  -19.8990  -14.1639 C   0  0  0  0  0  0  0  0  0  0  0  0
   25.7536  -18.5406  -14.2099 C   0  0  0  0  0  0  0  0  0  0  0  0
   27.0324  -17.6909  -14.1785 C   0  0  0  0  0  0  0  0  0  0  0  0
   28.1701  -18.6393  -14.5897 C   0  0  2  0  0  0  0  0  0  0  0  0
   27.3316  -19.7782  -15.2037 C   0  0  0  0  0  0  0  0  0  0  0  0
   28.0808  -20.8882  -15.6934 O   0  0  0  0  0  0  0  0  0  0  0  0
   28.3493  -20.8471  -17.1101 O   0  0  0  0  0  0  0  0  0  0  0  0
  1  2  1  0
  2  3  2  0
  4  2  1  0
  5  4  1  0
  6  5  1  0
  7  6  1  0
  8  7  1  0
  8  9  1  1
 10  8  1  0
 10 11  2  0
 13 12  1  0
 14 13  1  0
 14 15  1  0
 16 17  1  0
 16 15  1  1
 17 10  1  0
 18 16  1  0
 19 18  2  0
 20 18  1  0
 20 21  1  0
 22 21  1  0
 23 22  1  0
 24 23  1  0
 24 20  1  0
 24 25  1  1
 25 26  1  0
 27 25  2  0
M  END
$$$$
