RMP.pdb
     RDKit          3D

 27 27  0  0  1  0  0  0  0  0999 V2000
   30.2479  -23.2554  -15.7976 N   0  0  0  0  0  0  0  0  0  0  0  0
   30.7513  -22.9906  -17.0964 C   0  0  0  0  0  0  0  0  0  0  0  0
   31.3081  -23.9455  -17.7624 N   0  0  0  0  0  0  0  0  0  0  0  0
   30.6717  -21.7101  -17.7043 N   0  0  0  0  0  0  0  0  0  0  0  0
   29.7269  -20.7120  -17.2537 C   0  0  0  0  0  0  0  0  0  0  0  0
   28.3717  -20.8435  -17.9021 C   0  0  0  0  0  0  0  0  0  0  0  0
   27.2595  -20.6961  -16.8706 C   0  0  0  0  0  0  0  0  0  0  0  0
   27.3916  -21.8638  -15.9001 C   0  0  2  0  0  0  0  0  0  0  0  0
   27.3607  -23.0528  -16.7376 N   0  0  0  0  0  0  0  0  0  0  0  0
   26.2444  -21.8630  -14.9381 C   0  0  0  0  0  0  0  0  0  0  0  0
   25.0850  -22.0954  -15.3594 O   0  0  0  0  0  0  0  0  0  0  0  0
   31.8160  -23.7459  -18.6737 C   0  0  0  0  0  0  0  0  0  0  0  0
   26.8339  -19.8352   -8.4900 S   0  0  0  0  0  0  0  0  0  0  0  0
   25.4007  -20.9361   -8.6040 C   0  0  0  0  0  0  0  0  0  0  0  0
   24.6717  -20.8849  -10.2766 C   0  0  0  0  0  0  0  0  0  0  0  0
   25.7694  -20.9388  -11.2768 C   0  0  2  0  0  0  0  0  0  0  0  0
   25.3244  -21.5062  -12.6225 N   0  0  0  0  0  0  0  0  0  0  0  0
   26.4275  -21.6036  -13.5291 C   0  0  0  0  0  0  0  0  0  0  0  0
   24.1453  -20.8278  -13.1474 O   0  0  0  0  0  0  0  0  0  0  0  0
   24.2551  -19.5462  -13.1410 N   0  0  0  0  0  0  0  0  0  0  0  0
   22.9608  -21.3527  -13.6392 C   0  0  0  0  0  0  0  0  0  0  0  0
   22.7434  -22.5026  -14.5484 C   0  0  0  0  0  0  0  0  0  0  0  0
   21.6370  -23.2437  -13.7837 C   0  0  0  0  0  0  0  0  0  0  0  0
   21.0429  -22.2120  -12.8114 C   0  0  2  0  0  0  0  0  0  0  0  0
   21.6006  -20.9234  -13.4484 C   0  0  0  0  0  0  0  0  0  0  0  0
   21.2568  -19.7146  -12.7749 O   0  0  0  0  0  0  0  0  0  0  0  0
   19.8687  -19.3407  -12.8934 O   0  0  0  0  0  0  0  0  0  0  0  0
  1  2  1  0
  2  3  2  0
  4  2  1  0
  5  4  1  0
  6  5  1  0
  7  6  1  0
  8  7  1  0
  8  9  1  6
 10  8  1  0
 10 11  2  0
 13 12  1  0
 14 13  1  0
 14 15  1  0
 16 17  1  0
 16 15  1  1
 17 10  1  0
 18 16  1  0
 19 18  2  0
 20 18  1  0
 20 21  1  0
 22 21  1  0
 23 22  1  0
 24 23  1  0
 24 20  1  0
 24 25  1  1
 25 26  1  0
 27 25  2  0
M  END
$$$$
