RMP.pdb
     RDKit          3D

 27 27  0  0  1  0  0  0  0  0999 V2000
   23.8623  -16.9945  -17.7075 N   0  0  0  0  0  0  0  0  0  0  0  0
   24.3058  -17.0197  -19.0540 C   0  0  0  0  0  0  0  0  0  0  0  0
   23.4598  -17.2901  -19.9902 N   0  0  0  0  0  0  0  0  0  0  0  0
   25.6515  -16.7599  -19.4240 N   0  0  0  0  0  0  0  0  0  0  0  0
   26.7635  -17.2333  -18.6295 C   0  0  0  0  0  0  0  0  0  0  0  0
   27.6080  -18.2587  -19.3436 C   0  0  0  0  0  0  0  0  0  0  0  0
   27.5441  -19.6052  -18.6326 C   0  0  0  0  0  0  0  0  0  0  0  0
   28.3083  -19.4563  -17.3224 C   0  0  2  0  0  0  0  0  0  0  0  0
   29.6412  -19.9650  -17.6059 N   0  0  0  0  0  0  0  0  0  0  0  0
   27.6487  -20.2659  -16.2496 C   0  0  0  0  0  0  0  0  0  0  0  0
   27.6037  -21.5156  -16.3586 O   0  0  0  0  0  0  0  0  0  0  0  0
   23.7483  -17.2426  -21.0115 C   0  0  0  0  0  0  0  0  0  0  0  0
   25.4112  -20.5042   -8.6470 S   0  0  0  0  0  0  0  0  0  0  0  0
   26.1323  -19.5957  -10.0375 C   0  0  0  0  0  0  0  0  0  0  0  0
   25.9120  -20.5138  -11.5997 C   0  0  0  0  0  0  0  0  0  0  0  0
   26.5787  -19.7604  -12.6934 C   0  0  1  0  0  0  0  0  0  0  0  0
   26.4178  -20.4226  -14.0596 N   0  0  0  0  0  0  0  0  0  0  0  0
   27.0589  -19.6534  -15.0821 C   0  0  0  0  0  0  0  0  0  0  0  0
   25.0353  -20.7952  -14.3355 O   0  0  0  0  0  0  0  0  0  0  0  0
   24.2217  -19.8010  -14.2712 N   0  0  0  0  0  0  0  0  0  0  0  0
   24.4917  -22.0305  -14.6499 C   0  0  0  0  0  0  0  0  0  0  0  0
   25.1244  -23.2028  -15.2991 C   0  0  0  0  0  0  0  0  0  0  0  0
   24.6685  -24.3163  -14.3449 C   0  0  0  0  0  0  0  0  0  0  0  0
   23.4770  -23.7339  -13.5678 C   0  0  2  0  0  0  0  0  0  0  0  0
   23.1537  -22.5315  -14.4771 C   0  0  0  0  0  0  0  0  0  0  0  0
   22.0704  -21.7136  -14.0407 O   0  0  0  0  0  0  0  0  0  0  0  0
   20.7771  -22.1295  -14.5255 O   0  0  0  0  0  0  0  0  0  0  0  0
  1  2  1  0
  2  3  2  0
  4  2  1  0
  5  4  1  0
  6  5  1  0
  7  6  1  0
  8  7  1  0
  8  9  1  6
 10  8  1  0
 10 11  2  0
 13 12  1  0
 14 13  1  0
 14 15  1  0
 16 17  1  0
 16 15  1  1
 17 10  1  0
 18 16  1  0
 19 18  2  0
 20 18  1  0
 20 21  1  0
 22 21  1  0
 23 22  1  0
 24 23  1  0
 24 20  1  0
 24 25  1  1
 25 26  1  0
 27 25  2  0
M  END
$$$$
