RMP.pdb
     RDKit          3D

 27 27  0  0  1  0  0  0  0  0999 V2000
   29.0767  -16.5808  -21.0657 N   0  0  0  0  0  0  0  0  0  0  0  0
   29.2796  -16.4971  -19.6650 C   0  0  0  0  0  0  0  0  0  0  0  0
   30.4198  -16.0909  -19.2173 N   0  0  0  0  0  0  0  0  0  0  0  0
   28.2768  -16.8444  -18.7219 N   0  0  0  0  0  0  0  0  0  0  0  0
   28.5216  -16.7908  -17.2974 C   0  0  0  0  0  0  0  0  0  0  0  0
   29.0031  -18.1021  -16.7291 C   0  0  0  0  0  0  0  0  0  0  0  0
   27.9419  -19.1846  -16.8866 C   0  0  0  0  0  0  0  0  0  0  0  0
   26.9250  -18.9805  -15.7699 C   0  0  2  0  0  0  0  0  0  0  0  0
   27.3409  -17.7563  -15.1033 N   0  0  0  0  0  0  0  0  0  0  0  0
   26.9641  -20.1394  -14.8230 C   0  0  0  0  0  0  0  0  0  0  0  0
   26.9480  -21.3093  -15.2778 O   0  0  0  0  0  0  0  0  0  0  0  0
   30.5891  -15.9957  -18.1730 C   0  0  0  0  0  0  0  0  0  0  0  0
   27.4873  -20.8567   -7.7238 S   0  0  0  0  0  0  0  0  0  0  0  0
   25.9001  -20.3113   -8.4037 C   0  0  0  0  0  0  0  0  0  0  0  0
   25.6274  -21.0150  -10.0657 C   0  0  0  0  0  0  0  0  0  0  0  0
   26.3211  -20.1611  -11.0646 C   0  0  2  0  0  0  0  0  0  0  0  0
   26.1576  -20.6636  -12.4969 N   0  0  0  0  0  0  0  0  0  0  0  0
   27.0223  -19.9564  -13.3915 C   0  0  0  0  0  0  0  0  0  0  0  0
   24.7592  -20.7293  -12.9049 O   0  0  0  0  0  0  0  0  0  0  0  0
   24.0936  -19.6718  -12.5996 N   0  0  0  0  0  0  0  0  0  0  0  0
   24.0682  -21.7380  -13.5571 C   0  0  0  0  0  0  0  0  0  0  0  0
   24.5433  -22.6989  -14.5803 C   0  0  0  0  0  0  0  0  0  0  0  0
   23.9882  -24.0070  -13.9981 C   0  0  0  0  0  0  0  0  0  0  0  0
   22.8936  -23.5865  -13.0043 C   0  0  2  0  0  0  0  0  0  0  0  0
   22.6866  -22.1305  -13.4672 C   0  0  0  0  0  0  0  0  0  0  0  0
   21.7172  -21.3901  -12.7287 O   0  0  0  0  0  0  0  0  0  0  0  0
   20.3495  -21.6776  -13.0857 O   0  0  0  0  0  0  0  0  0  0  0  0
  1  2  1  0
  2  3  2  0
  4  2  1  0
  5  4  1  0
  6  5  1  0
  7  6  1  0
  8  7  1  0
  8  9  1  1
 10  8  1  0
 10 11  2  0
 13 12  1  0
 14 13  1  0
 14 15  1  0
 16 17  1  0
 16 15  1  1
 17 10  1  0
 18 16  1  0
 19 18  2  0
 20 18  1  0
 20 21  1  0
 22 21  1  0
 23 22  1  0
 24 23  1  0
 24 20  1  0
 24 25  1  1
 25 26  1  0
 27 25  2  0
M  END
$$$$
