RMP.pdb
     RDKit          3D

 27 27  0  0  1  0  0  0  0  0999 V2000
   24.3502  -25.7319  -14.8817 N   0  0  0  0  0  0  0  0  0  0  0  0
   23.0986  -26.2208  -15.3341 C   0  0  0  0  0  0  0  0  0  0  0  0
   22.8144  -27.4691  -15.1714 N   0  0  0  0  0  0  0  0  0  0  0  0
   22.1336  -25.3927  -15.9655 N   0  0  0  0  0  0  0  0  0  0  0  0
   22.1928  -23.9505  -15.8739 C   0  0  0  0  0  0  0  0  0  0  0  0
   22.0059  -23.4378  -14.4680 C   0  0  0  0  0  0  0  0  0  0  0  0
   21.9126  -21.9167  -14.4525 C   0  0  0  0  0  0  0  0  0  0  0  0
   22.2275  -21.4634  -13.0319 C   0  0  2  0  0  0  0  0  0  0  0  0
   21.0803  -20.6644  -12.6302 N   0  0  0  0  0  0  0  0  0  0  0  0
   23.4773  -20.6392  -13.0222 C   0  0  0  0  0  0  0  0  0  0  0  0
   23.3911  -19.3869  -13.0196 O   0  0  0  0  0  0  0  0  0  0  0  0
   21.9009  -27.8690  -15.5374 C   0  0  0  0  0  0  0  0  0  0  0  0
   28.7029  -22.1735   -9.9167 S   0  0  0  0  0  0  0  0  0  0  0  0
   29.5352  -21.0583  -11.0753 C   0  0  0  0  0  0  0  0  0  0  0  0
   28.3297  -20.2552  -12.1860 C   0  0  0  0  0  0  0  0  0  0  0  0
   27.0521  -21.0120  -12.1298 C   0  0  1  0  0  0  0  0  0  0  0  0
   25.9874  -20.4581  -13.0734 N   0  0  0  0  0  0  0  0  0  0  0  0
   24.7905  -21.2405  -13.0136 C   0  0  0  0  0  0  0  0  0  0  0  0
   26.5068  -20.2167  -14.4144 O   0  0  0  0  0  0  0  0  0  0  0  0
   26.9786  -21.2756  -14.9717 N   0  0  0  0  0  0  0  0  0  0  0  0
   26.5599  -19.0442  -15.1512 C   0  0  0  0  0  0  0  0  0  0  0  0
   25.9695  -17.7171  -14.8576 C   0  0  0  0  0  0  0  0  0  0  0  0
   27.1825  -16.8168  -15.1336 C   0  0  0  0  0  0  0  0  0  0  0  0
   28.1424  -17.6642  -15.9840 C   0  0  2  0  0  0  0  0  0  0  0  0
   27.1661  -18.7719  -16.4277 C   0  0  0  0  0  0  0  0  0  0  0  0
   27.7345  -19.7899  -17.2485 O   0  0  0  0  0  0  0  0  0  0  0  0
   28.6719  -20.6495  -16.5680 O   0  0  0  0  0  0  0  0  0  0  0  0
  1  2  1  0
  2  3  2  0
  4  2  1  0
  5  4  1  0
  6  5  1  0
  7  6  1  0
  8  7  1  0
  8  9  1  6
 10  8  1  0
 10 11  2  0
 13 12  1  0
 14 13  1  0
 14 15  1  0
 16 17  1  0
 16 15  1  1
 17 10  1  0
 18 16  1  0
 19 18  2  0
 20 18  1  0
 20 21  1  0
 22 21  1  0
 23 22  1  0
 24 23  1  0
 24 20  1  0
 24 25  1  1
 25 26  1  0
 27 25  2  0
M  END
$$$$
