RMP.pdb
     RDKit          3D

 27 27  0  0  1  0  0  0  0  0999 V2000
   32.3739  -22.0570  -11.4691 N   0  0  0  0  0  0  0  0  0  0  0  0
   31.3909  -21.6070  -10.5518 C   0  0  0  0  0  0  0  0  0  0  0  0
   31.6814  -21.5498   -9.2957 N   0  0  0  0  0  0  0  0  0  0  0  0
   30.0877  -21.2135  -10.9548 N   0  0  0  0  0  0  0  0  0  0  0  0
   29.5654  -21.5402  -12.2633 C   0  0  0  0  0  0  0  0  0  0  0  0
   29.4147  -20.3362  -13.1588 C   0  0  0  0  0  0  0  0  0  0  0  0
   28.0170  -20.2808  -13.7638 C   0  0  0  0  0  0  0  0  0  0  0  0
   27.3765  -21.6449  -13.5363 C   0  0  2  0  0  0  0  0  0  0  0  0
   27.7036  -22.4158  -14.7257 N   0  0  0  0  0  0  0  0  0  0  0  0
   25.8937  -21.4971  -13.3914 C   0  0  0  0  0  0  0  0  0  0  0  0
   25.1526  -21.7051  -14.3830 O   0  0  0  0  0  0  0  0  0  0  0  0
   30.9534  -21.2453   -8.5845 C   0  0  0  0  0  0  0  0  0  0  0  0
   19.9436  -20.6227   -8.1276 S   0  0  0  0  0  0  0  0  0  0  0  0
   21.7199  -20.6230   -8.4792 C   0  0  0  0  0  0  0  0  0  0  0  0
   22.0362  -21.0120  -10.2344 C   0  0  0  0  0  0  0  0  0  0  0  0
   23.4960  -20.9042  -10.4909 C   0  0  2  0  0  0  0  0  0  0  0  0
   23.8610  -21.1042  -11.9597 N   0  0  0  0  0  0  0  0  0  0  0  0
   25.2809  -21.1220  -12.1385 C   0  0  0  0  0  0  0  0  0  0  0  0
   23.1341  -20.1970  -12.8400 O   0  0  0  0  0  0  0  0  0  0  0  0
   23.2713  -18.9600  -12.5151 N   0  0  0  0  0  0  0  0  0  0  0  0
   22.3430  -20.4708  -13.9442 C   0  0  0  0  0  0  0  0  0  0  0  0
   22.4591  -21.5604  -14.9419 C   0  0  0  0  0  0  0  0  0  0  0  0
   21.0036  -22.0487  -14.9765 C   0  0  0  0  0  0  0  0  0  0  0  0
   20.1690  -20.9062  -14.3757 C   0  0  2  0  0  0  0  0  0  0  0  0
   21.2040  -19.7676  -14.4726 C   0  0  0  0  0  0  0  0  0  0  0  0
   20.7694  -18.5068  -13.9680 O   0  0  0  0  0  0  0  0  0  0  0  0
   20.3053  -18.5396  -12.6026 O   0  0  0  0  0  0  0  0  0  0  0  0
  1  2  1  0
  2  3  2  0
  4  2  1  0
  5  4  1  0
  6  5  1  0
  7  6  1  0
  8  7  1  0
  8  9  1  6
 10  8  1  0
 10 11  2  0
 13 12  1  0
 14 13  1  0
 14 15  1  0
 16 17  1  0
 16 15  1  1
 17 10  1  0
 18 16  1  0
 19 18  2  0
 20 18  1  0
 20 21  1  0
 22 21  1  0
 23 22  1  0
 24 23  1  0
 24 20  1  0
 24 25  1  1
 25 26  1  0
 27 25  2  0
M  END
$$$$
