RMP.pdb
     RDKit          3D

 27 27  0  0  1  0  0  0  0  0999 V2000
   23.6733  -15.3704  -17.1605 N   0  0  0  0  0  0  0  0  0  0  0  0
   23.7272  -15.6655  -18.5462 C   0  0  0  0  0  0  0  0  0  0  0  0
   23.7798  -14.6947  -19.3949 N   0  0  0  0  0  0  0  0  0  0  0  0
   23.7245  -16.9932  -19.0491 N   0  0  0  0  0  0  0  0  0  0  0  0
   23.7762  -18.1397  -18.1689 C   0  0  0  0  0  0  0  0  0  0  0  0
   25.0878  -18.2648  -17.4352 C   0  0  0  0  0  0  0  0  0  0  0  0
   25.1623  -19.5848  -16.6772 C   0  0  0  0  0  0  0  0  0  0  0  0
   26.4650  -19.5738  -15.8861 C   0  0  2  0  0  0  0  0  0  0  0  0
   27.4903  -19.9502  -16.8468 N   0  0  0  0  0  0  0  0  0  0  0  0
   26.3945  -20.5680  -14.7689 C   0  0  0  0  0  0  0  0  0  0  0  0
   26.4257  -21.7951  -15.0315 O   0  0  0  0  0  0  0  0  0  0  0  0
   23.8596  -14.8891  -20.4362 C   0  0  0  0  0  0  0  0  0  0  0  0
   26.5279  -18.9929   -8.4319 S   0  0  0  0  0  0  0  0  0  0  0  0
   26.1075  -20.7489   -8.2956 C   0  0  0  0  0  0  0  0  0  0  0  0
   25.5860  -21.4209   -9.9107 C   0  0  0  0  0  0  0  0  0  0  0  0
   26.0858  -20.5232  -10.9843 C   0  0  2  0  0  0  0  0  0  0  0  0
   25.7119  -21.0011  -12.3852 N   0  0  0  0  0  0  0  0  0  0  0  0
   26.2930  -20.1604  -13.3870 C   0  0  0  0  0  0  0  0  0  0  0  0
   24.2801  -21.2387  -12.5259 O   0  0  0  0  0  0  0  0  0  0  0  0
   23.5601  -20.3071  -12.0079 N   0  0  0  0  0  0  0  0  0  0  0  0
   23.6066  -22.2926  -13.1226 C   0  0  0  0  0  0  0  0  0  0  0  0
   24.0775  -23.2555  -14.1459 C   0  0  0  0  0  0  0  0  0  0  0  0
   23.6103  -24.5728  -13.5098 C   0  0  0  0  0  0  0  0  0  0  0  0
   22.5447  -24.1780  -12.4747 C   0  0  2  0  0  0  0  0  0  0  0  0
   22.2500  -22.7442  -12.9590 C   0  0  0  0  0  0  0  0  0  0  0  0
   21.2830  -22.0305  -12.1919 O   0  0  0  0  0  0  0  0  0  0  0  0
   19.9611  -22.6075  -12.2143 O   0  0  0  0  0  0  0  0  0  0  0  0
  1  2  1  0
  2  3  2  0
  4  2  1  0
  5  4  1  0
  6  5  1  0
  7  6  1  0
  8  7  1  0
  8  9  1  6
 10  8  1  0
 10 11  2  0
 13 12  1  0
 14 13  1  0
 14 15  1  0
 16 17  1  0
 16 15  1  6
 17 10  1  0
 18 16  1  0
 19 18  2  0
 20 18  1  0
 20 21  1  0
 22 21  1  0
 23 22  1  0
 24 23  1  0
 24 20  1  0
 24 25  1  1
 25 26  1  0
 27 25  2  0
M  END
$$$$
