LTE.pdb
     RDKit          3D

 25 24  0  0  1  0  0  0  0  0999 V2000
   22.5964  -14.8382  -19.9043 C   0  0  0  0  0  0  0  0  0  0  0  0
   22.8004  -13.7952  -21.0059 C   0  0  2  0  0  0  0  0  0  0  0  0
   23.6206  -14.4341  -22.0768 C   0  0  0  0  0  0  0  0  0  0  0  0
   23.4184  -12.5330  -20.4327 C   0  0  0  0  0  0  0  0  0  0  0  0
   22.4848  -11.9597  -19.4085 C   0  0  2  0  0  0  0  0  0  0  0  0
   21.1490  -11.8945  -19.9627 N   0  0  0  0  0  0  0  0  0  0  0  0
   22.9323  -10.6701  -18.8559 C   0  0  0  0  0  0  0  0  0  0  0  0
   24.0684  -10.5743  -18.3240 O   0  0  0  0  0  0  0  0  0  0  0  0
   23.7023   -7.5428  -20.5611 C   0  0  0  0  0  0  0  0  0  0  0  0
   22.6837   -7.1803  -19.5330 C   0  0  1  0  0  0  0  0  0  0  0  0
   21.4459   -7.0034  -20.1899 O   0  0  0  0  0  0  0  0  0  0  0  0
   22.5581   -8.1974  -18.4210 C   0  0  2  0  0  0  0  0  0  0  0  0
   22.1483   -9.4849  -18.8801 N   0  0  0  0  0  0  0  0  0  0  0  0
   21.5969   -7.6424  -17.4256 C   0  0  0  0  0  0  0  0  0  0  0  0
   20.4087   -8.0506  -17.3603 O   0  0  0  0  0  0  0  0  0  0  0  0
   22.0149   -6.6424  -16.5368 N   0  0  0  0  0  0  0  0  0  0  0  0
   21.1169   -6.1161  -15.4547 C   0  0  1  0  0  0  0  0  0  0  0  0
   20.8011   -7.3053  -14.6363 C   0  0  0  0  0  0  0  0  0  0  0  0
   20.0776   -7.1677  -13.3642 C   0  0  0  0  0  0  0  0  0  0  0  0
   19.7574   -8.3610  -12.5987 C   0  0  0  0  0  0  0  0  0  0  0  0
   20.1438   -9.4903  -12.9920 O   0  0  0  0  0  0  0  0  0  0  0  0
   21.8054   -5.0060  -14.7974 C   0  0  0  0  0  0  0  0  0  0  0  0
   21.1043   -4.0172  -14.0785 O   0  0  0  0  0  0  0  0  0  0  0  0
   19.0269   -8.3063  -11.4212 O   0  0  0  0  0  0  0  0  0  0  0  0
   23.0372   -4.8805  -14.8404 O   0  0  0  0  0  0  0  0  0  0  0  0
  2  1  1  1
  2  3  1  0
  4  5  1  0
  4  2  1  0
  5  6  1  6
  7  5  1  0
  7  8  2  0
 10  9  1  6
 10 12  1  0
 11 10  1  0
 12 13  1  6
 13  7  1  0
 14 12  1  0
 15 14  2  0
 16 14  1  0
 17 16  1  0
 17 22  1  0
 17 18  1  1
 19 20  1  0
 19 18  1  0
 20 21  2  0
 22 23  1  0
 24 20  1  0
 25 22  2  0
M  END
$$$$
