LTE.pdb
     RDKit          3D

 25 24  0  0  1  0  0  0  0  0999 V2000
   24.0860  -20.5834   -9.1701 C   0  0  0  0  0  0  0  0  0  0  0  0
   25.5493  -21.0012   -9.3348 C   0  0  2  0  0  0  0  0  0  0  0  0
   26.2544  -20.6617   -8.0639 C   0  0  0  0  0  0  0  0  0  0  0  0
   26.1526  -20.3453  -10.5634 C   0  0  0  0  0  0  0  0  0  0  0  0
   25.2574  -20.6042  -11.7385 C   0  0  2  0  0  0  0  0  0  0  0  0
   25.3041  -22.0117  -12.0740 N   0  0  0  0  0  0  0  0  0  0  0  0
   25.5341  -19.7366  -12.8958 C   0  0  0  0  0  0  0  0  0  0  0  0
   25.5323  -18.4860  -12.7586 O   0  0  0  0  0  0  0  0  0  0  0  0
   28.5428  -19.4997  -15.1043 C   0  0  0  0  0  0  0  0  0  0  0  0
   27.3799  -19.7031  -16.0166 C   0  0  1  0  0  0  0  0  0  0  0  0
   27.4356  -21.0275  -16.5044 O   0  0  0  0  0  0  0  0  0  0  0  0
   26.0436  -19.4298  -15.3635 C   0  0  2  0  0  0  0  0  0  0  0  0
   25.8127  -20.2248  -14.2012 N   0  0  0  0  0  0  0  0  0  0  0  0
   24.9948  -19.6594  -16.3979 C   0  0  0  0  0  0  0  0  0  0  0  0
   24.3330  -20.7286  -16.4375 O   0  0  0  0  0  0  0  0  0  0  0  0
   24.7311  -18.6687  -17.3538 N   0  0  0  0  0  0  0  0  0  0  0  0
   23.4362  -18.6224  -18.1126 C   0  0  1  0  0  0  0  0  0  0  0  0
   22.4093  -18.4436  -17.0651 C   0  0  0  0  0  0  0  0  0  0  0  0
   20.9916  -18.2958  -17.4243 C   0  0  0  0  0  0  0  0  0  0  0  0
   20.0145  -18.0678  -16.3728 C   0  0  0  0  0  0  0  0  0  0  0  0
   20.3840  -17.6803  -15.2359 O   0  0  0  0  0  0  0  0  0  0  0  0
   23.5490  -17.5819  -19.1338 C   0  0  0  0  0  0  0  0  0  0  0  0
   22.8991  -17.6892  -20.3798 O   0  0  0  0  0  0  0  0  0  0  0  0
   18.6564  -18.2620  -16.5752 O   0  0  0  0  0  0  0  0  0  0  0  0
   24.2205  -16.5563  -18.9542 O   0  0  0  0  0  0  0  0  0  0  0  0
  2  1  1  1
  2  3  1  0
  4  5  1  0
  4  2  1  0
  5  6  1  6
  7  5  1  0
  7  8  2  0
 10  9  1  1
 10 12  1  0
 11 10  1  0
 12 13  1  1
 13  7  1  0
 14 12  1  0
 15 14  2  0
 16 14  1  0
 17 16  1  0
 17 22  1  0
 17 18  1  1
 19 20  1  0
 19 18  1  0
 20 21  2  0
 22 23  1  0
 24 20  1  0
 25 22  2  0
M  END
$$$$
