LTE.pdb
     RDKit          3D

 25 24  0  0  1  0  0  0  0  0999 V2000
   24.1714  -21.1992   -9.2447 C   0  0  0  0  0  0  0  0  0  0  0  0
   25.6639  -20.9886   -9.5109 C   0  0  2  0  0  0  0  0  0  0  0  0
   26.1756  -20.0575   -8.4627 C   0  0  0  0  0  0  0  0  0  0  0  0
   25.8848  -20.4946  -10.9289 C   0  0  0  0  0  0  0  0  0  0  0  0
   25.2790  -21.4796  -11.8839 C   0  0  2  0  0  0  0  0  0  0  0  0
   26.0915  -22.6774  -11.9145 N   0  0  0  0  0  0  0  0  0  0  0  0
   25.0334  -20.9275  -13.2269 C   0  0  0  0  0  0  0  0  0  0  0  0
   26.0006  -20.6930  -13.9966 O   0  0  0  0  0  0  0  0  0  0  0  0
   24.0888  -22.3460  -16.1706 C   0  0  0  0  0  0  0  0  0  0  0  0
   23.0297  -21.3120  -15.9833 C   0  0  1  0  0  0  0  0  0  0  0  0
   21.8703  -21.9587  -15.5012 O   0  0  0  0  0  0  0  0  0  0  0  0
   23.4387  -20.1880  -15.0580 C   0  0  2  0  0  0  0  0  0  0  0  0
   23.7399  -20.6300  -13.7351 N   0  0  0  0  0  0  0  0  0  0  0  0
   22.3290  -19.1923  -15.0604 C   0  0  0  0  0  0  0  0  0  0  0  0
   21.5622  -19.0596  -14.0719 O   0  0  0  0  0  0  0  0  0  0  0  0
   22.1252  -18.3797  -16.1842 N   0  0  0  0  0  0  0  0  0  0  0  0
   21.0460  -17.3365  -16.2243 C   0  0  1  0  0  0  0  0  0  0  0  0
   21.4864  -16.4008  -17.2799 C   0  0  0  0  0  0  0  0  0  0  0  0
   21.3082  -16.7368  -18.6999 C   0  0  0  0  0  0  0  0  0  0  0  0
   21.7377  -15.7864  -19.7120 C   0  0  0  0  0  0  0  0  0  0  0  0
   22.2880  -14.7074  -19.3770 O   0  0  0  0  0  0  0  0  0  0  0  0
   19.7666  -18.0182  -16.4154 C   0  0  0  0  0  0  0  0  0  0  0  0
   18.5475  -17.4393  -16.0094 O   0  0  0  0  0  0  0  0  0  0  0  0
   21.5644  -16.0253  -21.0670 O   0  0  0  0  0  0  0  0  0  0  0  0
   19.6916  -19.1368  -16.9428 O   0  0  0  0  0  0  0  0  0  0  0  0
  2  1  1  1
  2  3  1  0
  4  5  1  0
  4  2  1  0
  5  6  1  6
  7  5  1  0
  7  8  2  0
 10  9  1  1
 10 12  1  0
 11 10  1  0
 12 13  1  1
 13  7  1  0
 14 12  1  0
 15 14  2  0
 16 14  1  0
 17 16  1  0
 17 22  1  0
 17 18  1  6
 19 20  1  0
 19 18  1  0
 20 21  2  0
 22 23  1  0
 24 20  1  0
 25 22  2  0
M  END
$$$$
