LTE.pdb
     RDKit          3D

 25 24  0  0  1  0  0  0  0  0999 V2000
   24.3817  -18.2132  -15.3804 C   0  0  0  0  0  0  0  0  0  0  0  0
   24.0700  -16.9731  -16.2218 C   0  0  2  0  0  0  0  0  0  0  0  0
   24.9391  -17.0280  -17.4340 C   0  0  0  0  0  0  0  0  0  0  0  0
   24.2512  -15.7129  -15.3956 C   0  0  0  0  0  0  0  0  0  0  0  0
   23.6410  -14.5589  -16.1340 C   0  0  2  0  0  0  0  0  0  0  0  0
   24.1344  -14.5476  -17.4950 N   0  0  0  0  0  0  0  0  0  0  0  0
   23.8178  -13.2631  -15.4569 C   0  0  0  0  0  0  0  0  0  0  0  0
   23.5873  -13.1613  -14.2242 O   0  0  0  0  0  0  0  0  0  0  0  0
   26.8356  -11.0905  -15.0434 C   0  0  0  0  0  0  0  0  0  0  0  0
   25.7823  -10.2238  -15.6478 C   0  0  1  0  0  0  0  0  0  0  0  0
   26.1142  -10.0174  -17.0051 O   0  0  0  0  0  0  0  0  0  0  0  0
   24.3859  -10.7899  -15.5191 C   0  0  2  0  0  0  0  0  0  0  0  0
   24.2442  -12.0783  -16.1160 N   0  0  0  0  0  0  0  0  0  0  0  0
   23.4535   -9.8004  -16.1307 C   0  0  0  0  0  0  0  0  0  0  0  0
   23.0007   -9.9553  -17.2942 O   0  0  0  0  0  0  0  0  0  0  0  0
   23.0652   -8.6673  -15.4027 N   0  0  0  0  0  0  0  0  0  0  0  0
   21.9464   -7.7758  -15.8586 C   0  0  1  0  0  0  0  0  0  0  0  0
   20.7873   -8.6841  -15.9818 C   0  0  0  0  0  0  0  0  0  0  0  0
   19.4519   -8.1553  -16.2949 C   0  0  0  0  0  0  0  0  0  0  0  0
   18.3287   -9.0735  -16.3809 C   0  0  0  0  0  0  0  0  0  0  0  0
   17.5836   -9.2601  -15.3861 O   0  0  0  0  0  0  0  0  0  0  0  0
   21.8389   -6.6667  -14.9116 C   0  0  0  0  0  0  0  0  0  0  0  0
   21.3835   -5.3929  -15.3067 O   0  0  0  0  0  0  0  0  0  0  0  0
   18.0338   -9.7693  -17.5436 O   0  0  0  0  0  0  0  0  0  0  0  0
   22.1428   -6.7923  -13.7171 O   0  0  0  0  0  0  0  0  0  0  0  0
  2  1  1  1
  2  3  1  0
  4  5  1  0
  4  2  1  0
  5  6  1  6
  7  5  1  0
  7  8  2  0
 10  9  1  6
 10 12  1  0
 11 10  1  0
 12 13  1  6
 13  7  1  0
 14 12  1  0
 15 14  2  0
 16 14  1  0
 17 16  1  0
 17 22  1  0
 17 18  1  1
 19 20  1  0
 19 18  1  0
 20 21  2  0
 22 23  1  0
 24 20  1  0
 25 22  2  0
M  END
$$$$
