LTE.pdb
     RDKit          3D

 25 24  0  0  1  0  0  0  0  0999 V2000
   18.1065  -11.5092  -19.9970 C   0  0  0  0  0  0  0  0  0  0  0  0
   17.1498  -11.7947  -18.8367 C   0  0  2  0  0  0  0  0  0  0  0  0
   15.7752  -11.4375  -19.2957 C   0  0  0  0  0  0  0  0  0  0  0  0
   17.5915  -11.0501  -17.5901 C   0  0  0  0  0  0  0  0  0  0  0  0
   18.9546  -11.5350  -17.1949 C   0  0  2  0  0  0  0  0  0  0  0  0
   18.8950  -12.9547  -16.9175 N   0  0  0  0  0  0  0  0  0  0  0  0
   19.5592  -10.7676  -16.0930 C   0  0  0  0  0  0  0  0  0  0  0  0
   19.1352  -10.9149  -14.9176 O   0  0  0  0  0  0  0  0  0  0  0  0
   22.4526  -10.9271  -14.1501 C   0  0  0  0  0  0  0  0  0  0  0  0
   22.5388   -9.5663  -14.7559 C   0  0  1  0  0  0  0  0  0  0  0  0
   23.4734   -9.6190  -15.8136 O   0  0  0  0  0  0  0  0  0  0  0  0
   21.2092   -9.0359  -15.2434 C   0  0  2  0  0  0  0  0  0  0  0  0
   20.6231   -9.8411  -16.2653 N   0  0  0  0  0  0  0  0  0  0  0  0
   21.4399   -7.6403  -15.7143 C   0  0  0  0  0  0  0  0  0  0  0  0
   21.3295   -7.3291  -16.9283 O   0  0  0  0  0  0  0  0  0  0  0  0
   21.7886   -6.6432  -14.7929 N   0  0  0  0  0  0  0  0  0  0  0  0
   21.8962   -5.1989  -15.1889 C   0  0  1  0  0  0  0  0  0  0  0  0
   20.5450   -4.8568  -15.6799 C   0  0  0  0  0  0  0  0  0  0  0  0
   19.3963   -4.8441  -14.7628 C   0  0  0  0  0  0  0  0  0  0  0  0
   18.1079   -4.3780  -15.2476 C   0  0  0  0  0  0  0  0  0  0  0  0
   18.0008   -3.2418  -15.7738 O   0  0  0  0  0  0  0  0  0  0  0  0
   22.4071   -4.4530  -14.0397 C   0  0  0  0  0  0  0  0  0  0  0  0
   22.7973   -3.1028  -14.1432 O   0  0  0  0  0  0  0  0  0  0  0  0
   16.9620   -5.1534  -15.1546 O   0  0  0  0  0  0  0  0  0  0  0  0
   22.5221   -4.9709  -12.9200 O   0  0  0  0  0  0  0  0  0  0  0  0
  2  1  1  6
  2  3  1  0
  4  5  1  0
  4  2  1  0
  5  6  1  1
  7  5  1  0
  7  8  2  0
 10  9  1  6
 10 12  1  0
 11 10  1  0
 12 13  1  6
 13  7  1  0
 14 12  1  0
 15 14  2  0
 16 14  1  0
 17 16  1  0
 17 22  1  0
 17 18  1  1
 19 20  1  0
 19 18  1  0
 20 21  2  0
 22 23  1  0
 24 20  1  0
 25 22  2  0
M  END
$$$$
