LTE.pdb
     RDKit          3D

 25 24  0  0  1  0  0  0  0  0999 V2000
   18.3509  -12.8028  -16.7723 C   0  0  0  0  0  0  0  0  0  0  0  0
   19.7192  -13.4882  -16.7425 C   0  0  2  0  0  0  0  0  0  0  0  0
   19.9213  -14.0180  -15.3619 C   0  0  0  0  0  0  0  0  0  0  0  0
   20.8034  -12.5267  -17.1937 C   0  0  0  0  0  0  0  0  0  0  0  0
   20.5015  -12.0798  -18.5931 C   0  0  2  0  0  0  0  0  0  0  0  0
   20.9894  -13.0722  -19.5276 N   0  0  0  0  0  0  0  0  0  0  0  0
   20.9896  -10.7247  -18.9001 C   0  0  0  0  0  0  0  0  0  0  0  0
   22.1942  -10.5473  -19.2167 O   0  0  0  0  0  0  0  0  0  0  0  0
   20.6815   -8.5940  -21.6808 C   0  0  0  0  0  0  0  0  0  0  0  0
   20.1106   -7.7906  -20.5607 C   0  0  1  0  0  0  0  0  0  0  0  0
   18.7027   -7.8585  -20.6496 O   0  0  0  0  0  0  0  0  0  0  0  0
   20.5822   -8.2367  -19.1949 C   0  0  2  0  0  0  0  0  0  0  0  0
   20.1720   -9.5628  -18.8637 N   0  0  0  0  0  0  0  0  0  0  0  0
   20.0679   -7.2448  -18.2078 C   0  0  0  0  0  0  0  0  0  0  0  0
   19.1070   -7.5160  -17.4423 O   0  0  0  0  0  0  0  0  0  0  0  0
   20.6601   -5.9773  -18.1214 N   0  0  0  0  0  0  0  0  0  0  0  0
   20.2393   -4.9732  -17.0874 C   0  0  1  0  0  0  0  0  0  0  0  0
   20.5583   -5.6244  -15.7999 C   0  0  0  0  0  0  0  0  0  0  0  0
   21.9328   -5.6189  -15.2787 C   0  0  0  0  0  0  0  0  0  0  0  0
   22.1764   -6.0687  -13.9184 C   0  0  0  0  0  0  0  0  0  0  0  0
   22.6915   -7.1950  -13.7047 O   0  0  0  0  0  0  0  0  0  0  0  0
   20.9072   -3.7079  -17.3893 C   0  0  0  0  0  0  0  0  0  0  0  0
   20.6392   -2.5327  -16.6591 O   0  0  0  0  0  0  0  0  0  0  0  0
   21.8592   -5.2882  -12.8169 O   0  0  0  0  0  0  0  0  0  0  0  0
   21.7403   -3.6070  -18.3008 O   0  0  0  0  0  0  0  0  0  0  0  0
  2  1  1  1
  2  3  1  0
  4  5  1  0
  4  2  1  0
  5  6  1  6
  7  5  1  0
  7  8  2  0
 10  9  1  6
 10 12  1  0
 11 10  1  0
 12 13  1  1
 13  7  1  0
 14 12  1  0
 15 14  2  0
 16 14  1  0
 17 16  1  0
 17 22  1  0
 17 18  1  1
 19 20  1  0
 19 18  1  0
 20 21  2  0
 22 23  1  0
 24 20  1  0
 25 22  2  0
M  END
$$$$
