LTE.pdb
     RDKit          3D

 25 24  0  0  1  0  0  0  0  0999 V2000
   14.5821  -11.8443  -15.3068 C   0  0  0  0  0  0  0  0  0  0  0  0
   15.1837  -13.2339  -15.0832 C   0  0  2  0  0  0  0  0  0  0  0  0
   14.4128  -13.8802  -13.9806 C   0  0  0  0  0  0  0  0  0  0  0  0
   16.6728  -13.1288  -14.8089 C   0  0  0  0  0  0  0  0  0  0  0  0
   17.4197  -13.4268  -16.0748 C   0  0  2  0  0  0  0  0  0  0  0  0
   17.6321  -14.8550  -16.1796 N   0  0  0  0  0  0  0  0  0  0  0  0
   18.6664  -12.6567  -16.2216 C   0  0  0  0  0  0  0  0  0  0  0  0
   19.6732  -12.9522  -15.5275 O   0  0  0  0  0  0  0  0  0  0  0  0
   21.0522  -12.2088  -19.0639 C   0  0  0  0  0  0  0  0  0  0  0  0
   20.5701  -10.8484  -18.6855 C   0  0  1  0  0  0  0  0  0  0  0  0
   19.6097  -10.4458  -19.6396 O   0  0  0  0  0  0  0  0  0  0  0  0
   19.9977  -10.7767  -17.2876 C   0  0  2  0  0  0  0  0  0  0  0  0
   18.8212  -11.5668  -17.1206 N   0  0  0  0  0  0  0  0  0  0  0  0
   19.7346   -9.3387  -16.9948 C   0  0  0  0  0  0  0  0  0  0  0  0
   18.5675   -8.8691  -17.0007 O   0  0  0  0  0  0  0  0  0  0  0  0
   20.8040   -8.4802  -16.7049 N   0  0  0  0  0  0  0  0  0  0  0  0
   20.5942   -7.0242  -16.4043 C   0  0  1  0  0  0  0  0  0  0  0  0
   21.2525   -6.8264  -15.0961 C   0  0  0  0  0  0  0  0  0  0  0  0
   21.3102   -5.4924  -14.4814 C   0  0  0  0  0  0  0  0  0  0  0  0
   21.9434   -5.3378  -13.1824 C   0  0  0  0  0  0  0  0  0  0  0  0
   23.0849   -4.8203  -13.0901 O   0  0  0  0  0  0  0  0  0  0  0  0
   21.0988   -6.2521  -17.5390 C   0  0  0  0  0  0  0  0  0  0  0  0
   22.0807   -6.7653  -18.4100 O   0  0  0  0  0  0  0  0  0  0  0  0
   21.3261   -5.7448  -12.0093 O   0  0  0  0  0  0  0  0  0  0  0  0
   20.6884   -5.1103  -17.7899 O   0  0  0  0  0  0  0  0  0  0  0  0
  2  1  1  1
  2  3  1  0
  4  5  1  0
  4  2  1  0
  5  6  1  1
  7  5  1  0
  7  8  2  0
 10  9  1  6
 10 12  1  0
 11 10  1  0
 12 13  1  6
 13  7  1  0
 14 12  1  0
 15 14  2  0
 16 14  1  0
 17 16  1  0
 17 22  1  0
 17 18  1  1
 19 20  1  0
 19 18  1  0
 20 21  2  0
 22 23  1  0
 24 20  1  0
 25 22  2  0
M  END
$$$$
