LTE.pdb
     RDKit          3D

 25 24  0  0  1  0  0  0  0  0999 V2000
   29.2125  -19.8665  -15.2310 C   0  0  0  0  0  0  0  0  0  0  0  0
   29.0939  -19.9719  -13.7086 C   0  0  2  0  0  0  0  0  0  0  0  0
   30.4158  -20.4317  -13.1903 C   0  0  0  0  0  0  0  0  0  0  0  0
   27.9383  -20.8794  -13.3287 C   0  0  0  0  0  0  0  0  0  0  0  0
   26.6872  -20.3664  -13.9774 C   0  0  2  0  0  0  0  0  0  0  0  0
   26.5848  -18.9393  -13.7564 N   0  0  0  0  0  0  0  0  0  0  0  0
   25.4707  -21.0909  -13.5724 C   0  0  0  0  0  0  0  0  0  0  0  0
   25.4016  -22.3379  -13.7246 O   0  0  0  0  0  0  0  0  0  0  0  0
   24.0611  -21.1614  -10.1663 C   0  0  0  0  0  0  0  0  0  0  0  0
   22.8971  -20.8592  -11.0494 C   0  0  1  0  0  0  0  0  0  0  0  0
   22.5346  -19.5094  -10.8453 O   0  0  0  0  0  0  0  0  0  0  0  0
   23.1638  -21.1255  -12.5139 C   0  0  2  0  0  0  0  0  0  0  0  0
   24.3297  -20.4636  -13.0027 N   0  0  0  0  0  0  0  0  0  0  0  0
   21.9452  -20.7081  -13.2645 C   0  0  0  0  0  0  0  0  0  0  0  0
   21.8813  -19.5957  -13.8487 O   0  0  0  0  0  0  0  0  0  0  0  0
   20.8385  -21.5661  -13.3278 N   0  0  0  0  0  0  0  0  0  0  0  0
   19.6546  -21.2714  -14.2030 C   0  0  1  0  0  0  0  0  0  0  0  0
   19.1923  -22.6030  -14.6465 C   0  0  0  0  0  0  0  0  0  0  0  0
   18.1709  -23.3336  -13.8824 C   0  0  0  0  0  0  0  0  0  0  0  0
   17.7201  -24.6296  -14.3612 C   0  0  0  0  0  0  0  0  0  0  0  0
   18.5422  -25.5651  -14.5301 O   0  0  0  0  0  0  0  0  0  0  0  0
   18.7186  -20.4517  -13.4347 C   0  0  0  0  0  0  0  0  0  0  0  0
   18.8405  -20.2935  -12.0396 O   0  0  0  0  0  0  0  0  0  0  0  0
   16.3873  -24.8867  -14.6452 O   0  0  0  0  0  0  0  0  0  0  0  0
   17.7737  -19.8570  -13.9718 O   0  0  0  0  0  0  0  0  0  0  0  0
  2  1  1  6
  2  3  1  0
  4  5  1  0
  4  2  1  0
  5  6  1  1
  7  5  1  0
  7  8  2  0
 10  9  1  1
 10 12  1  0
 11 10  1  0
 12 13  1  6
 13  7  1  0
 14 12  1  0
 15 14  2  0
 16 14  1  0
 17 16  1  0
 17 22  1  0
 17 18  1  1
 19 20  1  0
 19 18  1  0
 20 21  2  0
 22 23  1  0
 24 20  1  0
 25 22  2  0
M  END
$$$$
