LTE.pdb
     RDKit          3D

 25 24  0  0  1  0  0  0  0  0999 V2000
   14.3265  -15.0010  -13.2990 C   0  0  0  0  0  0  0  0  0  0  0  0
   14.9708  -14.4848  -14.5879 C   0  0  2  0  0  0  0  0  0  0  0  0
   16.3658  -15.0138  -14.6306 C   0  0  0  0  0  0  0  0  0  0  0  0
   14.8882  -12.9707  -14.6522 C   0  0  0  0  0  0  0  0  0  0  0  0
   16.0059  -12.3906  -13.8377 C   0  0  2  0  0  0  0  0  0  0  0  0
   16.2317  -13.2228  -12.6747 N   0  0  0  0  0  0  0  0  0  0  0  0
   15.8110  -10.9728  -13.4902 C   0  0  0  0  0  0  0  0  0  0  0  0
   15.6368  -10.1210  -14.3996 O   0  0  0  0  0  0  0  0  0  0  0  0
   13.0649   -9.3118  -11.6004 C   0  0  0  0  0  0  0  0  0  0  0  0
   14.3361   -8.9682  -10.8989 C   0  0  1  0  0  0  0  0  0  0  0  0
   14.4285   -9.7766   -9.7444 O   0  0  0  0  0  0  0  0  0  0  0  0
   15.5664   -9.1284  -11.7636 C   0  0  2  0  0  0  0  0  0  0  0  0
   15.8049  -10.4790  -12.1575 N   0  0  0  0  0  0  0  0  0  0  0  0
   16.7174   -8.5734  -10.9955 C   0  0  0  0  0  0  0  0  0  0  0  0
   17.7052   -9.2873  -10.6832 O   0  0  0  0  0  0  0  0  0  0  0  0
   16.7104   -7.2268  -10.6065 N   0  0  0  0  0  0  0  0  0  0  0  0
   17.9416   -6.5452  -10.0831 C   0  0  1  0  0  0  0  0  0  0  0  0
   18.9389   -6.7239  -11.1588 C   0  0  0  0  0  0  0  0  0  0  0  0
   20.2532   -6.0705  -11.0770 C   0  0  0  0  0  0  0  0  0  0  0  0
   21.1855   -6.2138  -12.1826 C   0  0  0  0  0  0  0  0  0  0  0  0
   21.5980   -7.3514  -12.5220 O   0  0  0  0  0  0  0  0  0  0  0  0
   17.5787   -5.1766   -9.7177 C   0  0  0  0  0  0  0  0  0  0  0  0
   18.1718   -4.5171   -8.6226 O   0  0  0  0  0  0  0  0  0  0  0  0
   21.6505   -5.1218  -12.8999 O   0  0  0  0  0  0  0  0  0  0  0  0
   16.7330   -4.5306  -10.3522 O   0  0  0  0  0  0  0  0  0  0  0  0
  2  1  1  1
  2  3  1  0
  4  5  1  0
  4  2  1  0
  5  6  1  1
  7  5  1  0
  7  8  2  0
 10  9  1  6
 10 12  1  0
 11 10  1  0
 12 13  1  1
 13  7  1  0
 14 12  1  0
 15 14  2  0
 16 14  1  0
 17 16  1  0
 17 22  1  0
 17 18  1  6
 19 20  1  0
 19 18  1  0
 20 21  2  0
 22 23  1  0
 24 20  1  0
 25 22  2  0
M  END
$$$$
