LTE.pdb
     RDKit          3D

 25 24  0  0  1  0  0  0  0  0999 V2000
   22.5742  -17.5218  -16.7890 C   0  0  0  0  0  0  0  0  0  0  0  0
   24.0021  -17.1679  -16.3660 C   0  0  2  0  0  0  0  0  0  0  0  0
   24.5895  -18.3807  -15.7245 C   0  0  0  0  0  0  0  0  0  0  0  0
   24.0012  -15.9420  -15.4712 C   0  0  0  0  0  0  0  0  0  0  0  0
   23.5513  -14.7578  -16.2741 C   0  0  2  0  0  0  0  0  0  0  0  0
   24.3152  -14.6948  -17.5022 N   0  0  0  0  0  0  0  0  0  0  0  0
   23.5781  -13.4902  -15.5249 C   0  0  0  0  0  0  0  0  0  0  0  0
   23.0989  -13.4365  -14.3628 O   0  0  0  0  0  0  0  0  0  0  0  0
   26.5683  -11.2192  -14.7450 C   0  0  0  0  0  0  0  0  0  0  0  0
   25.5067  -10.3697  -15.3591 C   0  0  1  0  0  0  0  0  0  0  0  0
   25.9140  -10.0451  -16.6720 O   0  0  0  0  0  0  0  0  0  0  0  0
   24.1415  -11.0201  -15.3684 C   0  0  2  0  0  0  0  0  0  0  0  0
   24.1241  -12.2814  -16.0356 N   0  0  0  0  0  0  0  0  0  0  0  0
   23.2000  -10.0545  -16.0038 C   0  0  0  0  0  0  0  0  0  0  0  0
   22.7890  -10.2149  -17.1819 O   0  0  0  0  0  0  0  0  0  0  0  0
   22.7554   -8.9381  -15.2820 N   0  0  0  0  0  0  0  0  0  0  0  0
   21.5618   -8.1368  -15.7150 C   0  0  1  0  0  0  0  0  0  0  0  0
   20.4788   -9.1353  -15.8323 C   0  0  0  0  0  0  0  0  0  0  0  0
   19.0864   -8.7092  -16.0332 C   0  0  0  0  0  0  0  0  0  0  0  0
   18.0500   -9.7183  -16.1735 C   0  0  0  0  0  0  0  0  0  0  0  0
   17.8636  -10.5675  -15.2659 O   0  0  0  0  0  0  0  0  0  0  0  0
   21.3773   -7.0484  -14.7561 C   0  0  0  0  0  0  0  0  0  0  0  0
   22.0283   -7.0401  -13.5062 O   0  0  0  0  0  0  0  0  0  0  0  0
   17.2347   -9.7857  -17.2933 O   0  0  0  0  0  0  0  0  0  0  0  0
   20.6405   -6.0814  -14.9950 O   0  0  0  0  0  0  0  0  0  0  0  0
  2  1  1  1
  2  3  1  0
  4  5  1  0
  4  2  1  0
  5  6  1  6
  7  5  1  0
  7  8  2  0
 10  9  1  6
 10 12  1  0
 11 10  1  0
 12 13  1  6
 13  7  1  0
 14 12  1  0
 15 14  2  0
 16 14  1  0
 17 16  1  0
 17 22  1  0
 17 18  1  1
 19 20  1  0
 19 18  1  0
 20 21  2  0
 22 23  1  0
 24 20  1  0
 25 22  2  0
M  END
$$$$
