LTE.pdb
     RDKit          3D

 25 24  0  0  1  0  0  0  0  0999 V2000
   26.1853  -19.3914   -6.5884 C   0  0  0  0  0  0  0  0  0  0  0  0
   27.1293  -20.4207   -7.2149 C   0  0  2  0  0  0  0  0  0  0  0  0
   28.3930  -20.4064   -6.4209 C   0  0  0  0  0  0  0  0  0  0  0  0
   27.3301  -20.1266   -8.6903 C   0  0  0  0  0  0  0  0  0  0  0  0
   26.0005  -20.1898   -9.3812 C   0  0  2  0  0  0  0  0  0  0  0  0
   25.3986  -21.4846   -9.1420 N   0  0  0  0  0  0  0  0  0  0  0  0
   26.0606  -19.8490  -10.8126 C   0  0  0  0  0  0  0  0  0  0  0  0
   26.2897  -18.6639  -11.1675 O   0  0  0  0  0  0  0  0  0  0  0  0
   28.2830  -20.9077  -13.5392 C   0  0  0  0  0  0  0  0  0  0  0  0
   26.9083  -21.1848  -14.0488 C   0  0  1  0  0  0  0  0  0  0  0  0
   26.7191  -22.5845  -14.0518 O   0  0  0  0  0  0  0  0  0  0  0  0
   25.8192  -20.4998  -13.2542 C   0  0  2  0  0  0  0  0  0  0  0  0
   25.8724  -20.7927  -11.8586 N   0  0  0  0  0  0  0  0  0  0  0  0
   24.5162  -20.9141  -13.8486 C   0  0  0  0  0  0  0  0  0  0  0  0
   23.7789  -21.7658  -13.2885 O   0  0  0  0  0  0  0  0  0  0  0  0
   24.0920  -20.3487  -15.0591 N   0  0  0  0  0  0  0  0  0  0  0  0
   22.7065  -20.5670  -15.5948 C   0  0  1  0  0  0  0  0  0  0  0  0
   21.8222  -20.0229  -14.5432 C   0  0  0  0  0  0  0  0  0  0  0  0
   20.3644  -19.9970  -14.7307 C   0  0  0  0  0  0  0  0  0  0  0  0
   19.4986  -20.1194  -13.5699 C   0  0  0  0  0  0  0  0  0  0  0  0
   19.8754  -19.6935  -12.4491 O   0  0  0  0  0  0  0  0  0  0  0  0
   22.6346  -19.9565  -16.9216 C   0  0  0  0  0  0  0  0  0  0  0  0
   21.8036  -20.4752  -17.9348 O   0  0  0  0  0  0  0  0  0  0  0  0
   18.2410  -20.6985  -13.6472 O   0  0  0  0  0  0  0  0  0  0  0  0
   23.2999  -18.9548  -17.2197 O   0  0  0  0  0  0  0  0  0  0  0  0
  2  1  1  1
  2  3  1  0
  4  5  1  0
  4  2  1  0
  5  6  1  6
  7  5  1  0
  7  8  2  0
 10  9  1  1
 10 12  1  0
 11 10  1  0
 12 13  1  1
 13  7  1  0
 14 12  1  0
 15 14  2  0
 16 14  1  0
 17 16  1  0
 17 22  1  0
 17 18  1  1
 19 20  1  0
 19 18  1  0
 20 21  2  0
 22 23  1  0
 24 20  1  0
 25 22  2  0
M  END
$$$$
