LTE.pdb
     RDKit          3D

 25 24  0  0  1  0  0  0  0  0999 V2000
   17.3219  -13.1812  -20.5780 C   0  0  0  0  0  0  0  0  0  0  0  0
   18.5549  -12.3008  -20.3599 C   0  0  2  0  0  0  0  0  0  0  0  0
   19.7281  -13.0307  -20.9244 C   0  0  0  0  0  0  0  0  0  0  0  0
   18.7019  -11.9495  -18.8907 C   0  0  0  0  0  0  0  0  0  0  0  0
   19.8482  -10.9951  -18.7342 C   0  0  2  0  0  0  0  0  0  0  0  0
   21.0801  -11.6644  -19.0952 N   0  0  0  0  0  0  0  0  0  0  0  0
   19.9153  -10.3634  -17.4056 C   0  0  0  0  0  0  0  0  0  0  0  0
   18.9141  -10.3932  -16.6442 O   0  0  0  0  0  0  0  0  0  0  0  0
   21.7525  -11.2338  -14.3997 C   0  0  0  0  0  0  0  0  0  0  0  0
   22.1674   -9.8353  -14.7131 C   0  0  1  0  0  0  0  0  0  0  0  0
   23.4520   -9.8831  -15.2984 O   0  0  0  0  0  0  0  0  0  0  0  0
   21.1968   -9.1038  -15.6129 C   0  0  2  0  0  0  0  0  0  0  0  0
   21.0672   -9.6999  -16.9029 N   0  0  0  0  0  0  0  0  0  0  0  0
   21.6672   -7.6924  -15.7096 C   0  0  0  0  0  0  0  0  0  0  0  0
   22.4024   -7.3074  -16.6552 O   0  0  0  0  0  0  0  0  0  0  0  0
   21.2885   -6.7636  -14.7305 N   0  0  0  0  0  0  0  0  0  0  0  0
   21.7691   -5.3414  -14.7571 C   0  0  1  0  0  0  0  0  0  0  0  0
   20.5906   -4.5695  -15.2032 C   0  0  0  0  0  0  0  0  0  0  0  0
   20.6123   -3.0997  -15.1967 C   0  0  0  0  0  0  0  0  0  0  0  0
   19.4334   -2.3719  -15.6357 C   0  0  0  0  0  0  0  0  0  0  0  0
   19.3595   -1.9326  -16.8108 O   0  0  0  0  0  0  0  0  0  0  0  0
   22.3242   -5.0282  -13.4411 C   0  0  0  0  0  0  0  0  0  0  0  0
   22.0740   -5.8393  -12.3161 O   0  0  0  0  0  0  0  0  0  0  0  0
   18.3572   -2.1367  -14.7933 O   0  0  0  0  0  0  0  0  0  0  0  0
   23.0408   -4.0355  -13.2507 O   0  0  0  0  0  0  0  0  0  0  0  0
  2  1  1  1
  2  3  1  0
  4  5  1  0
  4  2  1  0
  5  6  1  1
  7  5  1  0
  7  8  2  0
 10  9  1  6
 10 12  1  0
 11 10  1  0
 12 13  1  6
 13  7  1  0
 14 12  1  0
 15 14  2  0
 16 14  1  0
 17 16  1  0
 17 22  1  0
 17 18  1  1
 19 20  1  0
 19 18  1  0
 20 21  2  0
 22 23  1  0
 24 20  1  0
 25 22  2  0
M  END
$$$$
