LTE.pdb
     RDKit          3D

 25 24  0  0  1  0  0  0  0  0999 V2000
   20.2641  -18.3547  -18.5066 C   0  0  0  0  0  0  0  0  0  0  0  0
   19.3473  -18.1577  -17.2968 C   0  0  2  0  0  0  0  0  0  0  0  0
   17.9403  -18.2035  -17.7928 C   0  0  0  0  0  0  0  0  0  0  0  0
   19.6982  -16.8725  -16.5697 C   0  0  0  0  0  0  0  0  0  0  0  0
   21.1269  -16.9464  -16.1195 C   0  0  2  0  0  0  0  0  0  0  0  0
   21.3142  -18.1368  -15.3170 N   0  0  0  0  0  0  0  0  0  0  0  0
   21.5977  -15.7268  -15.4416 C   0  0  0  0  0  0  0  0  0  0  0  0
   21.2144  -15.4704  -14.2710 O   0  0  0  0  0  0  0  0  0  0  0  0
   25.1766  -14.4929  -14.7038 C   0  0  0  0  0  0  0  0  0  0  0  0
   24.4556  -13.4364  -15.4719 C   0  0  1  0  0  0  0  0  0  0  0  0
   24.9240  -13.4704  -16.8040 O   0  0  0  0  0  0  0  0  0  0  0  0
   22.9507  -13.5791  -15.4306 C   0  0  2  0  0  0  0  0  0  0  0  0
   22.4836  -14.7856  -16.0327 N   0  0  0  0  0  0  0  0  0  0  0  0
   22.3777  -12.3777  -16.1020 C   0  0  0  0  0  0  0  0  0  0  0  0
   21.8950  -12.4400  -17.2621 O   0  0  0  0  0  0  0  0  0  0  0  0
   22.3710  -11.1445  -15.4355 N   0  0  0  0  0  0  0  0  0  0  0  0
   21.8238   -9.9004  -16.0735 C   0  0  1  0  0  0  0  0  0  0  0  0
   20.7338   -9.4793  -15.1690 C   0  0  0  0  0  0  0  0  0  0  0  0
   20.0111   -8.2208  -15.4029 C   0  0  0  0  0  0  0  0  0  0  0  0
   19.0073   -7.7914  -14.4436 C   0  0  0  0  0  0  0  0  0  0  0  0
   18.7869   -8.4698  -13.4088 O   0  0  0  0  0  0  0  0  0  0  0  0
   22.9343   -8.9702  -16.2733 C   0  0  0  0  0  0  0  0  0  0  0  0
   22.8802   -7.9434  -17.2370 O   0  0  0  0  0  0  0  0  0  0  0  0
   18.2643   -6.6345  -14.6235 O   0  0  0  0  0  0  0  0  0  0  0  0
   23.9760   -9.0392  -15.6060 O   0  0  0  0  0  0  0  0  0  0  0  0
  2  1  1  6
  2  3  1  0
  4  5  1  0
  4  2  1  0
  5  6  1  1
  7  5  1  0
  7  8  2  0
 10  9  1  1
 10 12  1  0
 11 10  1  0
 12 13  1  6
 13  7  1  0
 14 12  1  0
 15 14  2  0
 16 14  1  0
 17 16  1  0
 17 22  1  0
 17 18  1  1
 19 20  1  0
 19 18  1  0
 20 21  2  0
 22 23  1  0
 24 20  1  0
 25 22  2  0
M  END
$$$$
