LTE.pdb
     RDKit          3D

 25 24  0  0  1  0  0  0  0  0999 V2000
   18.9701  -15.3282  -18.0502 C   0  0  0  0  0  0  0  0  0  0  0  0
   18.8462  -14.3414  -16.8867 C   0  0  2  0  0  0  0  0  0  0  0  0
   17.7103  -14.7997  -16.0338 C   0  0  0  0  0  0  0  0  0  0  0  0
   18.6874  -12.9248  -17.4079 C   0  0  0  0  0  0  0  0  0  0  0  0
   19.0404  -11.9640  -16.3118 C   0  0  2  0  0  0  0  0  0  0  0  0
   18.2287  -12.2483  -15.1472 N   0  0  0  0  0  0  0  0  0  0  0  0
   18.9713  -10.5504  -16.7188 C   0  0  0  0  0  0  0  0  0  0  0  0
   19.6630  -10.1404  -17.6865 O   0  0  0  0  0  0  0  0  0  0  0  0
   16.1966   -8.8176  -18.2694 C   0  0  0  0  0  0  0  0  0  0  0  0
   16.5120   -8.0318  -17.0409 C   0  0  1  0  0  0  0  0  0  0  0  0
   15.5623   -8.3704  -16.0518 O   0  0  0  0  0  0  0  0  0  0  0  0
   17.9181   -8.2487  -16.5285 C   0  0  2  0  0  0  0  0  0  0  0  0
   18.1526   -9.5820  -16.0771 N   0  0  0  0  0  0  0  0  0  0  0  0
   18.1457   -7.2566  -15.4392 C   0  0  0  0  0  0  0  0  0  0  0  0
   18.4350   -7.6187  -14.2696 O   0  0  0  0  0  0  0  0  0  0  0  0
   18.0378   -5.8859  -15.7122 N   0  0  0  0  0  0  0  0  0  0  0  0
   18.5495   -4.8441  -14.7597 C   0  0  1  0  0  0  0  0  0  0  0  0
   19.9608   -5.2205  -14.5360 C   0  0  0  0  0  0  0  0  0  0  0  0
   20.8440   -4.3671  -13.7282 C   0  0  0  0  0  0  0  0  0  0  0  0
   22.2256   -4.7694  -13.5246 C   0  0  0  0  0  0  0  0  0  0  0  0
   23.0837   -4.5700  -14.4209 O   0  0  0  0  0  0  0  0  0  0  0  0
   18.2843   -3.5300  -15.3437 C   0  0  0  0  0  0  0  0  0  0  0  0
   17.9685   -3.3725  -16.7081 O   0  0  0  0  0  0  0  0  0  0  0  0
   22.6502   -5.3776  -12.3529 O   0  0  0  0  0  0  0  0  0  0  0  0
   18.3242   -2.4920  -14.6685 O   0  0  0  0  0  0  0  0  0  0  0  0
  2  1  1  6
  2  3  1  0
  4  5  1  0
  4  2  1  0
  5  6  1  1
  7  5  1  0
  7  8  2  0
 10  9  1  6
 10 12  1  0
 11 10  1  0
 12 13  1  1
 13  7  1  0
 14 12  1  0
 15 14  2  0
 16 14  1  0
 17 16  1  0
 17 22  1  0
 17 18  1  6
 19 20  1  0
 19 18  1  0
 20 21  2  0
 22 23  1  0
 24 20  1  0
 25 22  2  0
M  END
$$$$
