SED.pdb
     RDKit          3D

 24 23  0  0  1  0  0  0  0  0999 V2000
   24.8163  -11.5507  -17.5566 O   0  0  0  0  0  0  0  0  0  0  0  0
   23.8751  -12.5467  -17.4963 C   0  0  0  0  0  0  0  0  0  0  0  0
   22.8073  -12.4093  -18.5634 C   0  0  2  0  0  0  0  0  0  0  0  0
   23.3885  -12.4004  -19.8693 N   0  0  0  0  0  0  0  0  0  0  0  0
   22.0011  -11.1894  -18.2853 C   0  0  0  0  0  0  0  0  0  0  0  0
   22.1978  -10.1661  -18.9891 O   0  0  0  0  0  0  0  0  0  0  0  0
   21.0242  -11.1219  -17.2692 N   0  0  0  0  0  0  0  0  0  0  0  0
   20.2947   -9.9197  -17.0228 C   0  0  1  0  0  0  0  0  0  0  0  0
   19.0220  -10.1346  -16.2475 C   0  0  0  0  0  0  0  0  0  0  0  0
   18.1617   -8.9322  -16.1043 C   0  0  0  0  0  0  0  0  0  0  0  0
   16.9172   -9.1385  -15.3514 C   0  0  0  0  0  0  0  0  0  0  0  0
   16.5787  -10.2179  -14.8063 O   0  0  0  0  0  0  0  0  0  0  0  0
   21.1430   -9.0154  -16.1894 C   0  0  0  0  0  0  0  0  0  0  0  0
   21.9621   -9.5030  -15.3827 O   0  0  0  0  0  0  0  0  0  0  0  0
   16.0585   -8.0360  -15.2459 O   0  0  0  0  0  0  0  0  0  0  0  0
   21.0714   -7.6123  -16.2621 N   0  0  0  0  0  0  0  0  0  0  0  0
   21.9580   -6.7183  -15.5313 C   0  0  1  0  0  0  0  0  0  0  0  0
   22.1982   -5.4419  -16.2656 C   0  0  0  0  0  0  0  0  0  0  0  0
   23.0224   -4.5398  -15.4426 C   0  0  0  0  0  0  0  0  0  0  0  0
   22.4963   -3.6971  -14.7042 O   0  0  0  0  0  0  0  0  0  0  0  0
   21.4242   -6.5744  -14.1682 C   0  0  0  0  0  0  0  0  0  0  0  0
   22.2005   -6.4871  -13.1959 O   0  0  0  0  0  0  0  0  0  0  0  0
   24.3969   -4.6401  -15.4995 O   0  0  0  0  0  0  0  0  0  0  0  0
   20.0647   -6.5332  -13.9364 O   0  0  0  0  0  0  0  0  0  0  0  0
  2  1  1  0
  2  3  1  0
  3  4  1  6
  5  3  1  0
  5  6  2  0
  7  5  1  0
  8  7  1  0
  8 13  1  0
  8  9  1  1
 10 11  1  0
 10  9  1  0
 11 12  2  0
 13 16  1  0
 14 13  2  0
 15 11  1  0
 16 17  1  0
 17 21  1  0
 17 18  1  6
 19 18  1  0
 20 19  2  0
 21 22  2  0
 21 24  1  0
 23 19  1  0
M  END
$$$$
