SED.pdb
     RDKit          3D

 24 23  0  0  1  0  0  0  0  0999 V2000
   16.6407  -10.6875  -18.0745 O   0  0  0  0  0  0  0  0  0  0  0  0
   17.7110  -10.7827  -17.2219 C   0  0  0  0  0  0  0  0  0  0  0  0
   17.5402   -9.9438  -15.9709 C   0  0  2  0  0  0  0  0  0  0  0  0
   16.6755   -8.8322  -16.2157 N   0  0  0  0  0  0  0  0  0  0  0  0
   18.8830   -9.5298  -15.4802 C   0  0  0  0  0  0  0  0  0  0  0  0
   19.1501   -9.6820  -14.2610 O   0  0  0  0  0  0  0  0  0  0  0  0
   19.8749   -8.9734  -16.3155 N   0  0  0  0  0  0  0  0  0  0  0  0
   21.1761   -8.6655  -15.8154 C   0  0  1  0  0  0  0  0  0  0  0  0
   22.2933   -9.1595  -16.6956 C   0  0  0  0  0  0  0  0  0  0  0  0
   22.4424  -10.6363  -16.7539 C   0  0  0  0  0  0  0  0  0  0  0  0
   23.4647  -11.1262  -17.6883 C   0  0  0  0  0  0  0  0  0  0  0  0
   23.4196  -10.9926  -18.9361 O   0  0  0  0  0  0  0  0  0  0  0  0
   21.3190   -7.1796  -15.7548 C   0  0  0  0  0  0  0  0  0  0  0  0
   21.7912   -6.5619  -16.7321 O   0  0  0  0  0  0  0  0  0  0  0  0
   24.5632  -11.7888  -17.1244 O   0  0  0  0  0  0  0  0  0  0  0  0
   20.9435   -6.4169  -14.6341 N   0  0  0  0  0  0  0  0  0  0  0  0
   21.0495   -4.9663  -14.5706 C   0  0  1  0  0  0  0  0  0  0  0  0
   19.7920   -4.3324  -14.0775 C   0  0  0  0  0  0  0  0  0  0  0  0
   18.7454   -4.4305  -15.1097 C   0  0  0  0  0  0  0  0  0  0  0  0
   17.7581   -5.1587  -14.9447 O   0  0  0  0  0  0  0  0  0  0  0  0
   22.2648   -4.6392  -13.8092 C   0  0  0  0  0  0  0  0  0  0  0  0
   22.6180   -5.3564  -12.8519 O   0  0  0  0  0  0  0  0  0  0  0  0
   18.8723   -3.6993  -16.2724 O   0  0  0  0  0  0  0  0  0  0  0  0
   23.0348   -3.5414  -14.1341 O   0  0  0  0  0  0  0  0  0  0  0  0
  2  1  1  0
  2  3  1  0
  3  4  1  6
  5  3  1  0
  5  6  2  0
  7  5  1  0
  8  7  1  0
  8 13  1  0
  8  9  1  6
 10 11  1  0
 10  9  1  0
 11 12  2  0
 13 16  1  0
 14 13  2  0
 15 11  1  0
 16 17  1  0
 17 21  1  0
 17 18  1  1
 19 18  1  0
 20 19  2  0
 21 22  2  0
 21 24  1  0
 23 19  1  0
M  END
$$$$
