SED.pdb
     RDKit          3D

 24 23  0  0  1  0  0  0  0  0999 V2000
   15.8311  -12.5588  -10.7517 O   0  0  0  0  0  0  0  0  0  0  0  0
   15.8825  -11.2008  -10.9376 C   0  0  0  0  0  0  0  0  0  0  0  0
   14.9047  -10.4510  -10.0546 C   0  0  2  0  0  0  0  0  0  0  0  0
   13.5617  -10.8673  -10.3116 N   0  0  0  0  0  0  0  0  0  0  0  0
   15.1003   -8.9886  -10.2511 C   0  0  0  0  0  0  0  0  0  0  0  0
   14.5878   -8.4446  -11.2623 O   0  0  0  0  0  0  0  0  0  0  0  0
   15.8336   -8.1786   -9.3582 N   0  0  0  0  0  0  0  0  0  0  0  0
   16.0352   -6.7888   -9.6150 C   0  0  1  0  0  0  0  0  0  0  0  0
   15.7763   -5.9107   -8.4197 C   0  0  0  0  0  0  0  0  0  0  0  0
   14.3892   -5.3907   -8.3095 C   0  0  0  0  0  0  0  0  0  0  0  0
   14.1494   -4.4802   -7.1818 C   0  0  0  0  0  0  0  0  0  0  0  0
   14.9410   -3.5817   -6.8039 O   0  0  0  0  0  0  0  0  0  0  0  0
   17.4679   -6.5799   -9.9833 C   0  0  0  0  0  0  0  0  0  0  0  0
   18.3693   -6.9560   -9.2050 O   0  0  0  0  0  0  0  0  0  0  0  0
   12.9415   -4.6437   -6.4903 O   0  0  0  0  0  0  0  0  0  0  0  0
   17.8710   -5.9696  -11.1849 N   0  0  0  0  0  0  0  0  0  0  0  0
   19.2370   -5.9971  -11.6876 C   0  0  1  0  0  0  0  0  0  0  0  0
   19.8088   -7.3752  -11.6846 C   0  0  0  0  0  0  0  0  0  0  0  0
   21.1602   -7.3563  -12.2709 C   0  0  0  0  0  0  0  0  0  0  0  0
   21.8729   -6.3476  -12.1895 O   0  0  0  0  0  0  0  0  0  0  0  0
   19.2496   -5.3085  -12.9873 C   0  0  0  0  0  0  0  0  0  0  0  0
   18.1855   -5.1272  -13.6122 O   0  0  0  0  0  0  0  0  0  0  0  0
   21.6321   -8.4798  -12.9173 O   0  0  0  0  0  0  0  0  0  0  0  0
   20.4285   -4.8516  -13.5398 O   0  0  0  0  0  0  0  0  0  0  0  0
  2  1  1  0
  2  3  1  0
  3  4  1  6
  5  3  1  0
  5  6  2  0
  7  5  1  0
  8  7  1  0
  8 13  1  0
  8  9  1  1
 10 11  1  0
 10  9  1  0
 11 12  2  0
 13 16  1  0
 14 13  2  0
 15 11  1  0
 16 17  1  0
 17 21  1  0
 17 18  1  6
 19 18  1  0
 20 19  2  0
 21 22  2  0
 21 24  1  0
 23 19  1  0
M  END
$$$$
