SED.pdb
     RDKit          3D

 24 23  0  0  1  0  0  0  0  0999 V2000
   15.6111  -13.9241  -10.8586 O   0  0  0  0  0  0  0  0  0  0  0  0
   15.6471  -12.5918  -11.1831 C   0  0  0  0  0  0  0  0  0  0  0  0
   14.5444  -11.7956  -10.5137 C   0  0  2  0  0  0  0  0  0  0  0  0
   13.2575  -12.2391  -10.9499 N   0  0  0  0  0  0  0  0  0  0  0  0
   14.7705  -10.3471  -10.7710 C   0  0  0  0  0  0  0  0  0  0  0  0
   14.3592   -9.8582  -11.8540 O   0  0  0  0  0  0  0  0  0  0  0  0
   15.4247   -9.4916   -9.8592 N   0  0  0  0  0  0  0  0  0  0  0  0
   15.6356   -8.1120  -10.1598 C   0  0  1  0  0  0  0  0  0  0  0  0
   15.4224   -7.1986   -8.9820 C   0  0  0  0  0  0  0  0  0  0  0  0
   15.6365   -5.7550   -9.2584 C   0  0  0  0  0  0  0  0  0  0  0  0
   15.3643   -4.8541   -8.1303 C   0  0  0  0  0  0  0  0  0  0  0  0
   14.4237   -4.9948   -7.3103 O   0  0  0  0  0  0  0  0  0  0  0  0
   17.0594   -7.9318  -10.5749 C   0  0  0  0  0  0  0  0  0  0  0  0
   17.9633   -8.5488   -9.9734 O   0  0  0  0  0  0  0  0  0  0  0  0
   16.2305   -3.7634   -7.9761 O   0  0  0  0  0  0  0  0  0  0  0  0
   17.4509   -7.0872  -11.6295 N   0  0  0  0  0  0  0  0  0  0  0  0
   18.8006   -7.0454  -12.1738 C   0  0  1  0  0  0  0  0  0  0  0  0
   19.3346   -8.4097  -12.4562 C   0  0  0  0  0  0  0  0  0  0  0  0
   20.6587   -8.3055  -13.0936 C   0  0  0  0  0  0  0  0  0  0  0  0
   21.4439   -7.4013  -12.7805 O   0  0  0  0  0  0  0  0  0  0  0  0
   18.7940   -6.1184  -13.3159 C   0  0  0  0  0  0  0  0  0  0  0  0
   17.7142   -5.7546  -13.8230 O   0  0  0  0  0  0  0  0  0  0  0  0
   21.0228   -9.2301  -14.0503 O   0  0  0  0  0  0  0  0  0  0  0  0
   19.9720   -5.6348  -13.8471 O   0  0  0  0  0  0  0  0  0  0  0  0
  2  1  1  0
  2  3  1  0
  3  4  1  6
  5  3  1  0
  5  6  2  0
  7  5  1  0
  8  7  1  0
  8 13  1  0
  8  9  1  1
 10 11  1  0
 10  9  1  0
 11 12  2  0
 13 16  1  0
 14 13  2  0
 15 11  1  0
 16 17  1  0
 17 21  1  0
 17 18  1  6
 19 18  1  0
 20 19  2  0
 21 22  2  0
 21 24  1  0
 23 19  1  0
M  END
$$$$
