SED.pdb
     RDKit          3D

 24 23  0  0  1  0  0  0  0  0999 V2000
   11.3095  -10.5275  -11.5722 O   0  0  0  0  0  0  0  0  0  0  0  0
   12.4343   -9.7963  -11.8582 C   0  0  0  0  0  0  0  0  0  0  0  0
   13.7115  -10.4992  -11.4429 C   0  0  2  0  0  0  0  0  0  0  0  0
   13.7195  -10.7548  -10.0365 N   0  0  0  0  0  0  0  0  0  0  0  0
   14.8764   -9.6851  -11.8853 C   0  0  0  0  0  0  0  0  0  0  0  0
   15.4400   -8.9373  -11.0460 O   0  0  0  0  0  0  0  0  0  0  0  0
   15.3824   -9.7093  -13.2023 N   0  0  0  0  0  0  0  0  0  0  0  0
   16.5787   -9.0114  -13.5483 C   0  0  1  0  0  0  0  0  0  0  0  0
   17.4294   -9.7358  -14.5576 C   0  0  0  0  0  0  0  0  0  0  0  0
   18.6806   -9.0352  -14.9447 C   0  0  0  0  0  0  0  0  0  0  0  0
   19.5225   -9.7471  -15.9155 C   0  0  0  0  0  0  0  0  0  0  0  0
   19.6595  -10.9943  -15.9682 O   0  0  0  0  0  0  0  0  0  0  0  0
   16.2008   -7.7106  -14.1785 C   0  0  0  0  0  0  0  0  0  0  0  0
   15.3445   -7.6878  -15.0873 O   0  0  0  0  0  0  0  0  0  0  0  0
   20.2154   -8.9569  -16.8425 O   0  0  0  0  0  0  0  0  0  0  0  0
   16.7667   -6.4800  -13.7988 N   0  0  0  0  0  0  0  0  0  0  0  0
   16.4245   -5.2073  -14.4173 C   0  0  1  0  0  0  0  0  0  0  0  0
   15.4373   -4.4364  -13.6066 C   0  0  0  0  0  0  0  0  0  0  0  0
   15.2054   -3.1186  -14.2230 C   0  0  0  0  0  0  0  0  0  0  0  0
   15.4321   -2.9322  -15.4255 O   0  0  0  0  0  0  0  0  0  0  0  0
   17.6809   -4.5052  -14.7212 C   0  0  0  0  0  0  0  0  0  0  0  0
   18.7772   -5.0324  -14.4458 O   0  0  0  0  0  0  0  0  0  0  0  0
   14.7296   -2.0832  -13.4456 O   0  0  0  0  0  0  0  0  0  0  0  0
   17.6750   -3.2586  -15.3124 O   0  0  0  0  0  0  0  0  0  0  0  0
  2  1  1  0
  2  3  1  0
  3  4  1  1
  5  3  1  0
  5  6  2  0
  7  5  1  0
  8  7  1  0
  8 13  1  0
  8  9  1  6
 10 11  1  0
 10  9  1  0
 11 12  2  0
 13 16  1  0
 14 13  2  0
 15 11  1  0
 16 17  1  0
 17 21  1  0
 17 18  1  1
 19 18  1  0
 20 19  2  0
 21 22  2  0
 21 24  1  0
 23 19  1  0
M  END
$$$$
