SED.pdb
     RDKit          3D

 24 23  0  0  1  0  0  0  0  0999 V2000
   16.1003  -13.0871  -15.4012 O   0  0  0  0  0  0  0  0  0  0  0  0
   16.7912  -12.0729  -16.0140 C   0  0  0  0  0  0  0  0  0  0  0  0
   17.6013  -11.2427  -15.0382 C   0  0  2  0  0  0  0  0  0  0  0  0
   16.8480  -10.9652  -13.8555 N   0  0  0  0  0  0  0  0  0  0  0  0
   18.0667  -10.0073  -15.7257 C   0  0  0  0  0  0  0  0  0  0  0  0
   18.7390  -10.1247  -16.7818 O   0  0  0  0  0  0  0  0  0  0  0  0
   17.7913   -8.7069  -15.2519 N   0  0  0  0  0  0  0  0  0  0  0  0
   18.1194   -7.5527  -16.0252 C   0  0  1  0  0  0  0  0  0  0  0  0
   16.9166   -6.8314  -16.5727 C   0  0  0  0  0  0  0  0  0  0  0  0
   15.8026   -6.6434  -15.6083 C   0  0  0  0  0  0  0  0  0  0  0  0
   14.6325   -5.9277  -16.1346 C   0  0  0  0  0  0  0  0  0  0  0  0
   14.4528   -4.6876  -16.0521 O   0  0  0  0  0  0  0  0  0  0  0  0
   18.8240   -6.5766  -15.1405 C   0  0  0  0  0  0  0  0  0  0  0  0
   18.4652   -6.4466  -13.9514 O   0  0  0  0  0  0  0  0  0  0  0  0
   13.6566   -6.7055  -16.7721 O   0  0  0  0  0  0  0  0  0  0  0  0
   19.8941   -5.7757  -15.5792 N   0  0  0  0  0  0  0  0  0  0  0  0
   20.5829   -4.8118  -14.7330 C   0  0  1  0  0  0  0  0  0  0  0  0
   22.0663   -4.9374  -14.8314 C   0  0  0  0  0  0  0  0  0  0  0  0
   22.4993   -6.2167  -14.2429 C   0  0  0  0  0  0  0  0  0  0  0  0
   22.3349   -6.4484  -13.0381 O   0  0  0  0  0  0  0  0  0  0  0  0
   20.0380   -3.4798  -15.0368 C   0  0  0  0  0  0  0  0  0  0  0  0
   19.4424   -3.2757  -16.1135 O   0  0  0  0  0  0  0  0  0  0  0  0
   23.0947   -7.1643  -15.0492 O   0  0  0  0  0  0  0  0  0  0  0  0
   20.1723   -2.4352  -14.1455 O   0  0  0  0  0  0  0  0  0  0  0  0
  2  1  1  0
  2  3  1  0
  3  4  1  1
  5  3  1  0
  5  6  2  0
  7  5  1  0
  8  7  1  0
  8 13  1  0
  8  9  1  1
 10 11  1  0
 10  9  1  0
 11 12  2  0
 13 16  1  0
 14 13  2  0
 15 11  1  0
 16 17  1  0
 17 21  1  0
 17 18  1  6
 19 18  1  0
 20 19  2  0
 21 22  2  0
 21 24  1  0
 23 19  1  0
M  END
$$$$
