SED.pdb
     RDKit          3D

 24 23  0  0  1  0  0  0  0  0999 V2000
   19.8486  -10.5105  -18.5707 O   0  0  0  0  0  0  0  0  0  0  0  0
   20.9160  -11.1971  -19.0909 C   0  0  0  0  0  0  0  0  0  0  0  0
   21.6253  -12.0487  -18.0567 C   0  0  2  0  0  0  0  0  0  0  0  0
   20.7329  -13.0091  -17.4871 N   0  0  0  0  0  0  0  0  0  0  0  0
   22.2377  -11.1567  -17.0346 C   0  0  0  0  0  0  0  0  0  0  0  0
   21.8232  -11.2277  -15.8496 O   0  0  0  0  0  0  0  0  0  0  0  0
   23.2628  -10.2324  -17.3279 N   0  0  0  0  0  0  0  0  0  0  0  0
   23.8802   -9.4605  -16.2979 C   0  0  1  0  0  0  0  0  0  0  0  0
   25.3847   -9.5142  -16.3233 C   0  0  0  0  0  0  0  0  0  0  0  0
   25.9747  -10.8184  -15.9267 C   0  0  0  0  0  0  0  0  0  0  0  0
   27.4369  -10.8271  -15.7849 C   0  0  0  0  0  0  0  0  0  0  0  0
   28.1880   -9.8521  -16.0338 O   0  0  0  0  0  0  0  0  0  0  0  0
   23.5107   -8.0267  -16.4967 C   0  0  0  0  0  0  0  0  0  0  0  0
   23.5163   -7.5388  -17.6463 O   0  0  0  0  0  0  0  0  0  0  0  0
   28.0160  -12.0222  -15.3372 O   0  0  0  0  0  0  0  0  0  0  0  0
   23.1480   -7.1732  -15.4390 N   0  0  0  0  0  0  0  0  0  0  0  0
   22.6216   -5.8290  -15.6285 C   0  0  1  0  0  0  0  0  0  0  0  0
   21.4920   -5.8005  -16.6027 C   0  0  0  0  0  0  0  0  0  0  0  0
   20.9480   -4.4346  -16.6967 C   0  0  0  0  0  0  0  0  0  0  0  0
   21.7002   -3.4518  -16.7076 O   0  0  0  0  0  0  0  0  0  0  0  0
   22.3264   -5.2725  -14.2993 C   0  0  0  0  0  0  0  0  0  0  0  0
   22.4947   -5.9663  -13.2766 O   0  0  0  0  0  0  0  0  0  0  0  0
   19.5825   -4.2549  -16.7734 O   0  0  0  0  0  0  0  0  0  0  0  0
   21.8608   -3.9817  -14.1552 O   0  0  0  0  0  0  0  0  0  0  0  0
  2  1  1  0
  2  3  1  0
  3  4  1  1
  5  3  1  0
  5  6  2  0
  7  5  1  0
  8  7  1  0
  8 13  1  0
  8  9  1  6
 10 11  1  0
 10  9  1  0
 11 12  2  0
 13 16  1  0
 14 13  2  0
 15 11  1  0
 16 17  1  0
 17 21  1  0
 17 18  1  6
 19 18  1  0
 20 19  2  0
 21 22  2  0
 21 24  1  0
 23 19  1  0
M  END
$$$$
