SED.pdb
     RDKit          3D

 24 23  0  0  1  0  0  0  0  0999 V2000
   12.4247  -10.0623  -12.9422 O   0  0  0  0  0  0  0  0  0  0  0  0
   13.1135  -10.9450  -13.7346 C   0  0  0  0  0  0  0  0  0  0  0  0
   14.0145  -11.8678  -12.9380 C   0  0  2  0  0  0  0  0  0  0  0  0
   13.2478  -12.7078  -12.0722 N   0  0  0  0  0  0  0  0  0  0  0  0
   15.0167  -11.0482  -12.2036 C   0  0  0  0  0  0  0  0  0  0  0  0
   15.0081  -11.0735  -10.9464 O   0  0  0  0  0  0  0  0  0  0  0  0
   15.9790  -10.2416  -12.8475 N   0  0  0  0  0  0  0  0  0  0  0  0
   16.9421   -9.4992  -12.0998 C   0  0  1  0  0  0  0  0  0  0  0  0
   18.1439   -9.0854  -12.9069 C   0  0  0  0  0  0  0  0  0  0  0  0
   19.1462   -8.2723  -12.1716 C   0  0  0  0  0  0  0  0  0  0  0  0
   20.3669   -7.9526  -12.9238 C   0  0  0  0  0  0  0  0  0  0  0  0
   21.3127   -7.2486  -12.4915 O   0  0  0  0  0  0  0  0  0  0  0  0
   16.3010   -8.2348  -11.6284 C   0  0  0  0  0  0  0  0  0  0  0  0
   15.5352   -7.6070  -12.3893 O   0  0  0  0  0  0  0  0  0  0  0  0
   20.4627   -8.4824  -14.2176 O   0  0  0  0  0  0  0  0  0  0  0  0
   16.5146   -7.6969  -10.3463 N   0  0  0  0  0  0  0  0  0  0  0  0
   15.8383   -6.5093   -9.8444 C   0  0  1  0  0  0  0  0  0  0  0  0
   15.3065   -6.7070   -8.4645 C   0  0  0  0  0  0  0  0  0  0  0  0
   14.6528   -5.4713   -7.9995 C   0  0  0  0  0  0  0  0  0  0  0  0
   14.4629   -4.5243   -8.7737 O   0  0  0  0  0  0  0  0  0  0  0  0
   16.7515   -5.3688  -10.0143 C   0  0  0  0  0  0  0  0  0  0  0  0
   17.9689   -5.5622  -10.2050 O   0  0  0  0  0  0  0  0  0  0  0  0
   14.2493   -5.3741   -6.6841 O   0  0  0  0  0  0  0  0  0  0  0  0
   16.2862   -4.0708   -9.9670 O   0  0  0  0  0  0  0  0  0  0  0  0
  2  1  1  0
  2  3  1  0
  3  4  1  1
  5  3  1  0
  5  6  2  0
  7  5  1  0
  8  7  1  0
  8 13  1  0
  8  9  1  6
 10 11  1  0
 10  9  1  0
 11 12  2  0
 13 16  1  0
 14 13  2  0
 15 11  1  0
 16 17  1  0
 17 21  1  0
 17 18  1  1
 19 18  1  0
 20 19  2  0
 21 22  2  0
 21 24  1  0
 23 19  1  0
M  END
$$$$
