SED.pdb
     RDKit          3D

 24 23  0  0  1  0  0  0  0  0999 V2000
   19.1299  -11.3334  -18.8554 O   0  0  0  0  0  0  0  0  0  0  0  0
   19.9473  -10.5445  -18.0866 C   0  0  0  0  0  0  0  0  0  0  0  0
   20.5755  -11.3009  -16.9328 C   0  0  2  0  0  0  0  0  0  0  0  0
   19.5727  -11.8970  -16.1068 N   0  0  0  0  0  0  0  0  0  0  0  0
   21.4667  -10.3778  -16.1786 C   0  0  0  0  0  0  0  0  0  0  0  0
   21.0848   -9.9572  -15.0568 O   0  0  0  0  0  0  0  0  0  0  0  0
   22.7222   -9.9489  -16.6592 N   0  0  0  0  0  0  0  0  0  0  0  0
   23.5694   -9.1120  -15.8718 C   0  0  1  0  0  0  0  0  0  0  0  0
   25.0313   -9.2496  -16.2048 C   0  0  0  0  0  0  0  0  0  0  0  0
   25.6368  -10.5590  -15.8509 C   0  0  0  0  0  0  0  0  0  0  0  0
   27.0527  -10.7123  -16.2115 C   0  0  0  0  0  0  0  0  0  0  0  0
   27.4714  -11.2814  -17.2495 O   0  0  0  0  0  0  0  0  0  0  0  0
   23.2118   -7.6875  -16.1454 C   0  0  0  0  0  0  0  0  0  0  0  0
   23.1218   -7.2864  -17.3247 O   0  0  0  0  0  0  0  0  0  0  0  0
   27.9888  -10.1764  -15.3168 O   0  0  0  0  0  0  0  0  0  0  0  0
   22.9642   -6.7486  -15.1275 N   0  0  0  0  0  0  0  0  0  0  0  0
   22.4461   -5.4099  -15.3705 C   0  0  1  0  0  0  0  0  0  0  0  0
   21.2727   -5.4207  -16.2920 C   0  0  0  0  0  0  0  0  0  0  0  0
   20.7492   -4.0527  -16.4498 C   0  0  0  0  0  0  0  0  0  0  0  0
   21.5158   -3.0822  -16.5005 O   0  0  0  0  0  0  0  0  0  0  0  0
   22.2200   -4.7735  -14.0638 C   0  0  0  0  0  0  0  0  0  0  0  0
   21.7899   -3.6045  -14.0008 O   0  0  0  0  0  0  0  0  0  0  0  0
   19.3869   -3.8569  -16.5420 O   0  0  0  0  0  0  0  0  0  0  0  0
   22.4763   -5.4496  -12.8887 O   0  0  0  0  0  0  0  0  0  0  0  0
  2  1  1  0
  2  3  1  0
  3  4  1  1
  5  3  1  0
  5  6  2  0
  7  5  1  0
  8  7  1  0
  8 13  1  0
  8  9  1  6
 10 11  1  0
 10  9  1  0
 11 12  2  0
 13 16  1  0
 14 13  2  0
 15 11  1  0
 16 17  1  0
 17 21  1  0
 17 18  1  1
 19 18  1  0
 20 19  2  0
 21 22  2  0
 21 24  1  0
 23 19  1  0
M  END
$$$$
