SED.pdb
     RDKit          3D

 24 23  0  0  1  0  0  0  0  0999 V2000
   15.4207  -12.8278  -10.1635 O   0  0  0  0  0  0  0  0  0  0  0  0
   15.4666  -11.4967  -10.4917 C   0  0  0  0  0  0  0  0  0  0  0  0
   14.4897  -10.6610   -9.6884 C   0  0  2  0  0  0  0  0  0  0  0  0
   13.1474  -11.1080   -9.8922 N   0  0  0  0  0  0  0  0  0  0  0  0
   14.6774   -9.2272  -10.0409 C   0  0  0  0  0  0  0  0  0  0  0  0
   14.0166   -8.7530  -10.9999 O   0  0  0  0  0  0  0  0  0  0  0  0
   15.5616   -8.3698   -9.3522 N   0  0  0  0  0  0  0  0  0  0  0  0
   15.7307   -7.0085   -9.7477 C   0  0  1  0  0  0  0  0  0  0  0  0
   15.3446   -6.0181   -8.6815 C   0  0  0  0  0  0  0  0  0  0  0  0
   15.4877   -4.5908   -9.0669 C   0  0  0  0  0  0  0  0  0  0  0  0
   15.0491   -3.6214   -8.0538 C   0  0  0  0  0  0  0  0  0  0  0  0
   14.5795   -3.9220   -6.9286 O   0  0  0  0  0  0  0  0  0  0  0  0
   17.1793   -6.7752  -10.0287 C   0  0  0  0  0  0  0  0  0  0  0  0
   18.0428   -7.2258   -9.2470 O   0  0  0  0  0  0  0  0  0  0  0  0
   15.1725   -2.2662   -8.3883 O   0  0  0  0  0  0  0  0  0  0  0  0
   17.6389   -6.0603  -11.1497 N   0  0  0  0  0  0  0  0  0  0  0  0
   18.9936   -6.1606  -11.6733 C   0  0  1  0  0  0  0  0  0  0  0  0
   19.4003   -7.5763  -11.9112 C   0  0  0  0  0  0  0  0  0  0  0  0
   20.7238   -7.6138  -12.5574 C   0  0  0  0  0  0  0  0  0  0  0  0
   20.8267   -7.6552  -13.7902 O   0  0  0  0  0  0  0  0  0  0  0  0
   19.0900   -5.2690  -12.8392 C   0  0  0  0  0  0  0  0  0  0  0  0
   18.0741   -5.0035  -13.5122 O   0  0  0  0  0  0  0  0  0  0  0  0
   21.8589   -7.6023  -11.7738 O   0  0  0  0  0  0  0  0  0  0  0  0
   20.2959   -4.7112  -13.2113 O   0  0  0  0  0  0  0  0  0  0  0  0
  2  1  1  0
  2  3  1  0
  3  4  1  6
  5  3  1  0
  5  6  2  0
  7  5  1  0
  8  7  1  0
  8 13  1  0
  8  9  1  1
 10 11  1  0
 10  9  1  0
 11 12  2  0
 13 16  1  0
 14 13  2  0
 15 11  1  0
 16 17  1  0
 17 21  1  0
 17 18  1  6
 19 18  1  0
 20 19  2  0
 21 22  2  0
 21 24  1  0
 23 19  1  0
M  END
$$$$
