PII.pdb
     RDKit          3D

 24 24  0  0  1  0  0  0  0  0999 V2000
    6.9070  -19.5349   22.7531 N   0  0  0  0  0  0  0  0  0  0  0  0
    5.7377  -20.3667   22.7631 C   0  0  0  0  0  0  0  0  0  0  0  0
    4.6292  -19.4808   22.2869 C   0  0  0  0  0  0  0  0  0  0  0  0
    5.2831  -18.2466   21.6735 C   0  0  0  0  0  0  0  0  0  0  0  0
    6.7243  -18.6743   21.6066 C   0  0  1  0  0  0  0  0  0  0  0  0
    7.6728  -17.5478   21.6307 C   0  0  0  0  0  0  0  0  0  0  0  0
    8.8756  -17.7772   21.3563 O   0  0  0  0  0  0  0  0  0  0  0  0
    6.5424  -13.1418   19.1810 C   0  0  0  0  0  0  0  0  0  0  0  0
    7.3800  -14.1707   19.8536 C   0  0  0  0  0  0  0  0  0  0  0  0
    7.5976  -13.9310   21.3216 C   0  0  2  0  0  0  0  0  0  0  0  0
    8.3238  -12.6370   21.4918 C   0  0  0  0  0  0  0  0  0  0  0  0
    8.2595  -15.1078   21.9293 C   0  0  2  0  0  0  0  0  0  0  0  0
    7.3152  -16.2114   21.9456 N   0  0  0  0  0  0  0  0  0  0  0  0
    8.7606  -14.8529   23.3111 C   0  0  0  0  0  0  0  0  0  0  0  0
    9.8888  -14.3463   23.5370 O   0  0  0  0  0  0  0  0  0  0  0  0
    5.5347  -12.2706   26.1955 C   0  0  0  0  0  0  0  0  0  0  0  0
    6.7538  -12.9511   25.5755 C   0  0  0  0  0  0  0  0  0  0  0  0
    7.2806  -14.0322   26.4822 C   0  0  2  0  0  0  0  0  0  0  0  0
    7.6748  -13.4320   27.8130 C   0  0  0  0  0  0  0  0  0  0  0  0
    8.3445  -14.8073   25.8013 C   0  0  2  0  0  0  0  0  0  0  0  0
    7.9665  -15.1795   24.4363 N   0  0  0  0  0  0  0  0  0  0  0  0
    8.6252  -16.0546   26.5355 C   0  0  0  0  0  0  0  0  0  0  0  0
    8.1890  -17.1953   26.2519 O   0  0  0  0  0  0  0  0  0  0  0  0
    9.4591  -16.0322   27.6787 O   0  0  0  0  0  0  0  0  0  0  0  0
  1  5  1  0
  2  1  1  0
  2  3  1  0
  3  4  1  0
  5  4  1  0
  5  6  1  1
  7  6  2  0
  9  8  1  0
  9 10  1  0
 10 12  1  0
 10 11  1  6
 12 13  1  1
 13  6  1  0
 14 12  1  0
 14 15  2  0
 16 17  1  0
 17 18  1  0
 18 19  1  1
 18 20  1  0
 20 21  1  6
 20 22  1  0
 21 14  1  0
 22 24  1  0
 23 22  2  0
M  END
$$$$
