PII.pdb
     RDKit          3D

 24 24  0  0  1  0  0  0  0  0999 V2000
    8.9454  -14.9822   18.7127 N   0  0  0  0  0  0  0  0  0  0  0  0
    9.1223  -14.3574   17.4330 C   0  0  0  0  0  0  0  0  0  0  0  0
    7.9798  -13.3982   17.3102 C   0  0  0  0  0  0  0  0  0  0  0  0
    7.3754  -13.2509   18.7030 C   0  0  0  0  0  0  0  0  0  0  0  0
    8.4130  -13.9335   19.5525 C   0  0  1  0  0  0  0  0  0  0  0  0
    7.8754  -14.4806   20.8098 C   0  0  0  0  0  0  0  0  0  0  0  0
    7.2753  -13.7012   21.5890 O   0  0  0  0  0  0  0  0  0  0  0  0
    7.0328  -19.8670   21.0709 C   0  0  0  0  0  0  0  0  0  0  0  0
    6.9205  -18.3906   21.2126 C   0  0  0  0  0  0  0  0  0  0  0  0
    7.5861  -17.8325   22.4395 C   0  0  2  0  0  0  0  0  0  0  0  0
    7.0312  -18.5252   23.6408 C   0  0  0  0  0  0  0  0  0  0  0  0
    7.4610  -16.3573   22.4510 C   0  0  2  0  0  0  0  0  0  0  0  0
    7.9913  -15.8392   21.2018 N   0  0  0  0  0  0  0  0  0  0  0  0
    8.1627  -15.7161   23.6007 C   0  0  0  0  0  0  0  0  0  0  0  0
    9.4143  -15.7281   23.7192 O   0  0  0  0  0  0  0  0  0  0  0  0
    7.0441  -11.0934   27.5361 C   0  0  0  0  0  0  0  0  0  0  0  0
    7.8723  -12.3234   27.1689 C   0  0  0  0  0  0  0  0  0  0  0  0
    7.2396  -13.0709   26.0246 C   0  0  2  0  0  0  0  0  0  0  0  0
    5.7988  -13.3861   26.3582 C   0  0  0  0  0  0  0  0  0  0  0  0
    8.0688  -14.2398   25.6472 C   0  0  2  0  0  0  0  0  0  0  0  0
    7.4279  -15.0597   24.6169 N   0  0  0  0  0  0  0  0  0  0  0  0
    8.3024  -15.1065   26.8167 C   0  0  0  0  0  0  0  0  0  0  0  0
    7.6888  -16.1656   27.0883 O   0  0  0  0  0  0  0  0  0  0  0  0
    9.2999  -14.7684   27.7619 O   0  0  0  0  0  0  0  0  0  0  0  0
  1  5  1  0
  2  1  1  0
  2  3  1  0
  3  4  1  0
  5  4  1  0
  5  6  1  1
  7  6  2  0
  9  8  1  0
  9 10  1  0
 10 12  1  0
 10 11  1  1
 12 13  1  6
 13  6  1  0
 14 12  1  0
 14 15  2  0
 16 17  1  0
 17 18  1  0
 18 19  1  1
 18 20  1  0
 20 21  1  6
 20 22  1  0
 21 14  1  0
 22 24  1  0
 23 22  2  0
M  END
$$$$
