PII.pdb
     RDKit          3D

 24 24  0  0  1  0  0  0  0  0999 V2000
    9.5352  -18.3695   19.8039 N   0  0  0  0  0  0  0  0  0  0  0  0
   10.0546  -19.1741   18.7352 C   0  0  0  0  0  0  0  0  0  0  0  0
   11.2233  -18.4040   18.2047 C   0  0  0  0  0  0  0  0  0  0  0  0
   11.5518  -17.3320   19.2390 C   0  0  0  0  0  0  0  0  0  0  0  0
   10.7062  -17.7715   20.4035 C   0  0  1  0  0  0  0  0  0  0  0  0
   10.3364  -16.6706   21.3094 C   0  0  0  0  0  0  0  0  0  0  0  0
   11.2370  -16.1497   22.0109 O   0  0  0  0  0  0  0  0  0  0  0  0
    7.2952  -12.7547   19.5951 C   0  0  0  0  0  0  0  0  0  0  0  0
    8.2508  -13.5819   20.3792 C   0  0  0  0  0  0  0  0  0  0  0  0
    7.6627  -14.2079   21.6129 C   0  0  2  0  0  0  0  0  0  0  0  0
    7.0510  -13.1321   22.4491 C   0  0  0  0  0  0  0  0  0  0  0  0
    8.6879  -15.0289   22.2963 C   0  0  2  0  0  0  0  0  0  0  0  0
    9.0209  -16.1562   21.4429 N   0  0  0  0  0  0  0  0  0  0  0  0
    8.2507  -15.5219   23.6347 C   0  0  0  0  0  0  0  0  0  0  0  0
    7.5240  -16.5382   23.7752 O   0  0  0  0  0  0  0  0  0  0  0  0
   11.0666  -13.6953   28.1115 C   0  0  0  0  0  0  0  0  0  0  0  0
   10.3694  -14.6728   27.1670 C   0  0  0  0  0  0  0  0  0  0  0  0
    8.8749  -14.4945   27.2220 C   0  0  2  0  0  0  0  0  0  0  0  0
    8.3797  -14.7837   28.6212 C   0  0  0  0  0  0  0  0  0  0  0  0
    8.2194  -15.2772   26.1478 C   0  0  2  0  0  0  0  0  0  0  0  0
    8.6476  -14.8484   24.8146 N   0  0  0  0  0  0  0  0  0  0  0  0
    6.7552  -15.1172   26.2121 C   0  0  0  0  0  0  0  0  0  0  0  0
    6.0846  -14.2093   25.6663 O   0  0  0  0  0  0  0  0  0  0  0  0
    5.9722  -16.0421   26.9430 O   0  0  0  0  0  0  0  0  0  0  0  0
  1  5  1  0
  2  1  1  0
  2  3  1  0
  3  4  1  0
  5  4  1  0
  5  6  1  1
  7  6  2  0
  9  8  1  0
  9 10  1  0
 10 12  1  0
 10 11  1  1
 12 13  1  6
 13  6  1  0
 14 12  1  0
 14 15  2  0
 16 17  1  0
 17 18  1  0
 18 19  1  1
 18 20  1  0
 20 21  1  6
 20 22  1  0
 21 14  1  0
 22 24  1  0
 23 22  2  0
M  END
$$$$
