PII.pdb
     RDKit          3D

 24 24  0  0  1  0  0  0  0  0999 V2000
    6.9236  -14.6994   20.8396 N   0  0  0  0  0  0  0  0  0  0  0  0
    6.5554  -14.2782   19.5181 C   0  0  0  0  0  0  0  0  0  0  0  0
    7.3490  -13.0327   19.2745 C   0  0  0  0  0  0  0  0  0  0  0  0
    8.4290  -12.9799   20.3504 C   0  0  0  0  0  0  0  0  0  0  0  0
    8.3234  -14.3572   20.9473 C   0  0  1  0  0  0  0  0  0  0  0  0
    8.7822  -14.4282   22.3451 C   0  0  0  0  0  0  0  0  0  0  0  0
   10.0165  -14.3927   22.5685 O   0  0  0  0  0  0  0  0  0  0  0  0
    5.9731  -11.7090   25.7387 C   0  0  0  0  0  0  0  0  0  0  0  0
    7.0721  -12.4507   25.0646 C   0  0  0  0  0  0  0  0  0  0  0  0
    7.3679  -13.7986   25.6609 C   0  0  2  0  0  0  0  0  0  0  0  0
    7.7328  -13.6157   27.0976 C   0  0  0  0  0  0  0  0  0  0  0  0
    8.3811  -14.4991   24.8393 C   0  0  2  0  0  0  0  0  0  0  0  0
    7.9159  -14.5347   23.4637 N   0  0  0  0  0  0  0  0  0  0  0  0
    8.6653  -15.8855   25.3112 C   0  0  0  0  0  0  0  0  0  0  0  0
    7.7682  -16.7600   25.4153 O   0  0  0  0  0  0  0  0  0  0  0  0
   12.9151  -18.4080   23.4037 C   0  0  0  0  0  0  0  0  0  0  0  0
   11.5645  -18.0172   24.0010 C   0  0  0  0  0  0  0  0  0  0  0  0
   11.6049  -18.0892   25.5049 C   0  0  2  0  0  0  0  0  0  0  0  0
   12.0484  -19.4690   25.9360 C   0  0  0  0  0  0  0  0  0  0  0  0
   10.3177  -17.6330   26.0806 C   0  0  2  0  0  0  0  0  0  0  0  0
    9.9808  -16.2699   25.6646 N   0  0  0  0  0  0  0  0  0  0  0  0
   10.3791  -17.6409   27.5536 C   0  0  0  0  0  0  0  0  0  0  0  0
   10.5808  -16.6479   28.2919 O   0  0  0  0  0  0  0  0  0  0  0  0
   10.2017  -18.8517   28.2643 O   0  0  0  0  0  0  0  0  0  0  0  0
  1  5  1  0
  2  1  1  0
  2  3  1  0
  3  4  1  0
  5  4  1  0
  5  6  1  1
  7  6  2  0
  9  8  1  0
  9 10  1  0
 10 12  1  0
 10 11  1  1
 12 13  1  6
 13  6  1  0
 14 12  1  0
 14 15  2  0
 16 17  1  0
 17 18  1  0
 18 19  1  6
 18 20  1  0
 20 21  1  6
 20 22  1  0
 21 14  1  0
 22 24  1  0
 23 22  2  0
M  END
$$$$
