PII.pdb
     RDKit          3D

 24 24  0  0  1  0  0  0  0  0999 V2000
    8.7230  -15.3073   20.0081 N   0  0  0  0  0  0  0  0  0  0  0  0
    8.3181  -16.1329   18.9064 C   0  0  0  0  0  0  0  0  0  0  0  0
    7.9743  -17.4542   19.5197 C   0  0  0  0  0  0  0  0  0  0  0  0
    7.8558  -17.2256   21.0232 C   0  0  0  0  0  0  0  0  0  0  0  0
    7.8709  -15.7228   21.0988 C   0  0  1  0  0  0  0  0  0  0  0  0
    8.3641  -15.2044   22.3862 C   0  0  0  0  0  0  0  0  0  0  0  0
    9.5970  -15.0100   22.5160 O   0  0  0  0  0  0  0  0  0  0  0  0
    5.3483  -11.8814   25.5037 C   0  0  0  0  0  0  0  0  0  0  0  0
    6.4592  -12.5968   24.8205 C   0  0  0  0  0  0  0  0  0  0  0  0
    6.9344  -13.8312   25.5347 C   0  0  2  0  0  0  0  0  0  0  0  0
    7.2539  -13.4718   26.9487 C   0  0  0  0  0  0  0  0  0  0  0  0
    8.0450  -14.4524   24.7778 C   0  0  2  0  0  0  0  0  0  0  0  0
    7.5328  -14.9082   23.4972 N   0  0  0  0  0  0  0  0  0  0  0  0
    8.6842  -15.5912   25.4990 C   0  0  0  0  0  0  0  0  0  0  0  0
    8.4128  -16.7912   25.2406 O   0  0  0  0  0  0  0  0  0  0  0  0
   11.5948  -14.6183   30.2630 C   0  0  0  0  0  0  0  0  0  0  0  0
   10.6261  -15.2037   29.2371 C   0  0  0  0  0  0  0  0  0  0  0  0
   11.3749  -15.9163   28.1417 C   0  0  2  0  0  0  0  0  0  0  0  0
   12.4759  -15.0236   27.6148 C   0  0  0  0  0  0  0  0  0  0  0  0
   10.4335  -16.4265   27.1171 C   0  0  2  0  0  0  0  0  0  0  0  0
    9.6366  -15.3535   26.5187 N   0  0  0  0  0  0  0  0  0  0  0  0
    9.4932  -17.3919   27.7148 C   0  0  0  0  0  0  0  0  0  0  0  0
    8.2834  -17.1860   27.9713 O   0  0  0  0  0  0  0  0  0  0  0  0
    9.9336  -18.6930   28.0552 O   0  0  0  0  0  0  0  0  0  0  0  0
  1  5  1  0
  2  1  1  0
  2  3  1  0
  3  4  1  0
  5  4  1  0
  5  6  1  1
  7  6  2  0
  9  8  1  0
  9 10  1  0
 10 12  1  0
 10 11  1  1
 12 13  1  6
 13  6  1  0
 14 12  1  0
 14 15  2  0
 16 17  1  0
 17 18  1  0
 18 19  1  6
 18 20  1  0
 20 21  1  1
 20 22  1  0
 21 14  1  0
 22 24  1  0
 23 22  2  0
M  END
$$$$
