PII.pdb
     RDKit          3D

 24 24  0  0  1  0  0  0  0  0999 V2000
    7.0905  -16.0340   20.8846 N   0  0  0  0  0  0  0  0  0  0  0  0
    6.6991  -16.0110   19.5042 C   0  0  0  0  0  0  0  0  0  0  0  0
    7.2336  -14.7179   18.9726 C   0  0  0  0  0  0  0  0  0  0  0  0
    8.2357  -14.1991   19.9990 C   0  0  0  0  0  0  0  0  0  0  0  0
    8.3866  -15.3951   20.8999 C   0  0  1  0  0  0  0  0  0  0  0  0
    8.7927  -15.0487   22.2726 C   0  0  0  0  0  0  0  0  0  0  0  0
    9.9634  -14.6380   22.4608 O   0  0  0  0  0  0  0  0  0  0  0  0
    5.2716  -12.3660   25.0919 C   0  0  0  0  0  0  0  0  0  0  0  0
    6.5350  -12.9446   24.5615 C   0  0  0  0  0  0  0  0  0  0  0  0
    7.0688  -14.1033   25.3567 C   0  0  2  0  0  0  0  0  0  0  0  0
    7.2323  -13.6726   26.7775 C   0  0  0  0  0  0  0  0  0  0  0  0
    8.2945  -14.6301   24.7146 C   0  0  2  0  0  0  0  0  0  0  0  0
    7.9429  -15.1491   23.4043 N   0  0  0  0  0  0  0  0  0  0  0  0
    8.9669  -15.6947   25.5145 C   0  0  0  0  0  0  0  0  0  0  0  0
    8.8478  -16.9172   25.2460 O   0  0  0  0  0  0  0  0  0  0  0  0
   11.4054  -14.2603   30.4355 C   0  0  0  0  0  0  0  0  0  0  0  0
   10.5335  -15.0062   29.4271 C   0  0  0  0  0  0  0  0  0  0  0  0
   11.3852  -15.7403   28.4250 C   0  0  2  0  0  0  0  0  0  0  0  0
   12.4730  -14.8229   27.9135 C   0  0  0  0  0  0  0  0  0  0  0  0
   10.5377  -16.3573   27.3773 C   0  0  2  0  0  0  0  0  0  0  0  0
    9.7774  -15.3572   26.6246 N   0  0  0  0  0  0  0  0  0  0  0  0
    9.5653  -17.2867   27.9806 C   0  0  0  0  0  0  0  0  0  0  0  0
    8.3383  -17.0790   28.1330 O   0  0  0  0  0  0  0  0  0  0  0  0
    9.9915  -18.5506   28.4533 O   0  0  0  0  0  0  0  0  0  0  0  0
  1  5  1  0
  2  1  1  0
  2  3  1  0
  3  4  1  0
  5  4  1  0
  5  6  1  1
  7  6  2  0
  9  8  1  0
  9 10  1  0
 10 12  1  0
 10 11  1  1
 12 13  1  6
 13  6  1  0
 14 12  1  0
 14 15  2  0
 16 17  1  0
 17 18  1  0
 18 19  1  6
 18 20  1  0
 20 21  1  1
 20 22  1  0
 21 14  1  0
 22 24  1  0
 23 22  2  0
M  END
$$$$
