PII.pdb
     RDKit          3D

 24 24  0  0  1  0  0  0  0  0999 V2000
    7.0567  -14.9639   20.6762 N   0  0  0  0  0  0  0  0  0  0  0  0
    6.7526  -14.7254   19.2942 C   0  0  0  0  0  0  0  0  0  0  0  0
    7.4057  -13.4169   18.9752 C   0  0  0  0  0  0  0  0  0  0  0  0
    8.3765  -13.1189   20.1135 C   0  0  0  0  0  0  0  0  0  0  0  0
    8.3901  -14.4333   20.8461 C   0  0  1  0  0  0  0  0  0  0  0  0
    8.7345  -14.3071   22.2725 C   0  0  0  0  0  0  0  0  0  0  0  0
    9.9149  -14.0072   22.5750 O   0  0  0  0  0  0  0  0  0  0  0  0
    5.2077  -11.8771   25.4239 C   0  0  0  0  0  0  0  0  0  0  0  0
    6.4680  -12.4139   24.8442 C   0  0  0  0  0  0  0  0  0  0  0  0
    6.8835  -13.7504   25.3929 C   0  0  2  0  0  0  0  0  0  0  0  0
    6.9672  -13.6508   26.8808 C   0  0  0  0  0  0  0  0  0  0  0  0
    8.1230  -14.2045   24.7225 C   0  0  2  0  0  0  0  0  0  0  0  0
    7.8147  -14.5031   23.3348 N   0  0  0  0  0  0  0  0  0  0  0  0
    8.7387  -15.3989   25.3703 C   0  0  0  0  0  0  0  0  0  0  0  0
    8.6520  -16.5529   24.8789 O   0  0  0  0  0  0  0  0  0  0  0  0
   11.3450  -14.0110   29.8465 C   0  0  0  0  0  0  0  0  0  0  0  0
   11.3635  -14.7006   28.4835 C   0  0  0  0  0  0  0  0  0  0  0  0
   10.6795  -16.0407   28.5539 C   0  0  2  0  0  0  0  0  0  0  0  0
   11.6206  -17.0608   29.1541 C   0  0  0  0  0  0  0  0  0  0  0  0
   10.1156  -16.4050   27.2326 C   0  0  2  0  0  0  0  0  0  0  0  0
    9.4554  -15.2701   26.5839 N   0  0  0  0  0  0  0  0  0  0  0  0
    9.1111  -17.4744   27.3769 C   0  0  0  0  0  0  0  0  0  0  0  0
    7.9071  -17.3223   27.6919 O   0  0  0  0  0  0  0  0  0  0  0  0
    9.4745  -18.8236   27.1526 O   0  0  0  0  0  0  0  0  0  0  0  0
  1  5  1  0
  2  1  1  0
  2  3  1  0
  3  4  1  0
  5  4  1  0
  5  6  1  1
  7  6  2  0
  9  8  1  0
  9 10  1  0
 10 12  1  0
 10 11  1  1
 12 13  1  6
 13  6  1  0
 14 12  1  0
 14 15  2  0
 16 17  1  0
 17 18  1  0
 18 19  1  6
 18 20  1  0
 20 21  1  1
 20 22  1  0
 21 14  1  0
 22 24  1  0
 23 22  2  0
M  END
$$$$
