PII.pdb
     RDKit          3D

 24 24  0  0  1  0  0  0  0  0999 V2000
    8.0857  -14.8478   20.0723 N   0  0  0  0  0  0  0  0  0  0  0  0
    7.4269  -15.4759   18.9629 C   0  0  0  0  0  0  0  0  0  0  0  0
    6.8649  -16.7478   19.5170 C   0  0  0  0  0  0  0  0  0  0  0  0
    6.9217  -16.6302   21.0368 C   0  0  0  0  0  0  0  0  0  0  0  0
    7.2584  -15.1740   21.2113 C   0  0  1  0  0  0  0  0  0  0  0  0
    7.9541  -14.8795   22.4756 C   0  0  0  0  0  0  0  0  0  0  0  0
    9.2078  -14.9302   22.4904 O   0  0  0  0  0  0  0  0  0  0  0  0
    5.6861  -11.5384   25.9944 C   0  0  0  0  0  0  0  0  0  0  0  0
    6.6588  -12.3348   25.1995 C   0  0  0  0  0  0  0  0  0  0  0  0
    7.1162  -13.6016   25.8673 C   0  0  2  0  0  0  0  0  0  0  0  0
    7.7278  -13.2531   27.1846 C   0  0  0  0  0  0  0  0  0  0  0  0
    7.9926  -14.3642   24.9495 C   0  0  2  0  0  0  0  0  0  0  0  0
    7.2971  -14.5400   23.6865 N   0  0  0  0  0  0  0  0  0  0  0  0
    8.3971  -15.6940   25.4913 C   0  0  0  0  0  0  0  0  0  0  0  0
    7.5613  -16.5881   25.7789 O   0  0  0  0  0  0  0  0  0  0  0  0
   13.8211  -17.3033   24.8564 C   0  0  0  0  0  0  0  0  0  0  0  0
   12.5792  -16.8536   25.6240 C   0  0  0  0  0  0  0  0  0  0  0  0
   11.4139  -17.7626   25.3338 C   0  0  2  0  0  0  0  0  0  0  0  0
   11.2149  -17.8723   23.8388 C   0  0  0  0  0  0  0  0  0  0  0  0
   10.2189  -17.3339   26.0983 C   0  0  2  0  0  0  0  0  0  0  0  0
    9.7627  -15.9993   25.7040 N   0  0  0  0  0  0  0  0  0  0  0  0
   10.5178  -17.2881   27.5412 C   0  0  0  0  0  0  0  0  0  0  0  0
   10.8497  -18.2601   28.2601 O   0  0  0  0  0  0  0  0  0  0  0  0
   10.4417  -16.0613   28.2425 O   0  0  0  0  0  0  0  0  0  0  0  0
  1  5  1  0
  2  1  1  0
  2  3  1  0
  3  4  1  0
  5  4  1  0
  5  6  1  1
  7  6  2  0
  9  8  1  0
  9 10  1  0
 10 12  1  0
 10 11  1  1
 12 13  1  6
 13  6  1  0
 14 12  1  0
 14 15  2  0
 16 17  1  0
 17 18  1  0
 18 19  1  6
 18 20  1  0
 20 21  1  6
 20 22  1  0
 21 14  1  0
 22 24  1  0
 23 22  2  0
M  END
$$$$
