PII.pdb
     RDKit          3D

 24 24  0  0  1  0  0  0  0  0999 V2000
    6.7631  -16.9663   21.9396 N   0  0  0  0  0  0  0  0  0  0  0  0
    6.0578  -17.4548   20.7892 C   0  0  0  0  0  0  0  0  0  0  0  0
    6.3691  -16.4758   19.7007 C   0  0  0  0  0  0  0  0  0  0  0  0
    7.5491  -15.6386   20.1840 C   0  0  0  0  0  0  0  0  0  0  0  0
    7.9832  -16.4093   21.4015 C   0  0  1  0  0  0  0  0  0  0  0  0
    8.6774  -15.5825   22.4033 C   0  0  0  0  0  0  0  0  0  0  0  0
    9.8233  -15.1515   22.1278 O   0  0  0  0  0  0  0  0  0  0  0  0
    5.4801  -12.6603   25.5287 C   0  0  0  0  0  0  0  0  0  0  0  0
    6.5904  -13.2069   24.7035 C   0  0  0  0  0  0  0  0  0  0  0  0
    7.7360  -13.7685   25.4984 C   0  0  2  0  0  0  0  0  0  0  0  0
    8.2153  -12.7222   26.4503 C   0  0  0  0  0  0  0  0  0  0  0  0
    8.7678  -14.3041   24.5814 C   0  0  2  0  0  0  0  0  0  0  0  0
    8.1336  -15.2382   23.6677 N   0  0  0  0  0  0  0  0  0  0  0  0
    9.8930  -14.9790   25.2914 C   0  0  0  0  0  0  0  0  0  0  0  0
   11.0372  -14.4662   25.3834 O   0  0  0  0  0  0  0  0  0  0  0  0
   10.8291  -13.6975   29.2276 C   0  0  0  0  0  0  0  0  0  0  0  0
   11.0283  -14.5613   27.9836 C   0  0  0  0  0  0  0  0  0  0  0  0
   10.4711  -15.9440   28.1988 C   0  0  2  0  0  0  0  0  0  0  0  0
   11.1066  -16.5631   29.4233 C   0  0  0  0  0  0  0  0  0  0  0  0
   10.5819  -16.7466   26.9579 C   0  0  2  0  0  0  0  0  0  0  0  0
    9.7059  -16.2443   25.8973 N   0  0  0  0  0  0  0  0  0  0  0  0
   10.2036  -18.1483   27.2139 C   0  0  0  0  0  0  0  0  0  0  0  0
    9.0550  -18.6381   27.1009 O   0  0  0  0  0  0  0  0  0  0  0  0
   11.1821  -19.0824   27.6297 O   0  0  0  0  0  0  0  0  0  0  0  0
  1  5  1  0
  2  1  1  0
  2  3  1  0
  3  4  1  0
  5  4  1  0
  5  6  1  1
  7  6  2  0
  9  8  1  0
  9 10  1  0
 10 12  1  0
 10 11  1  6
 12 13  1  6
 13  6  1  0
 14 12  1  0
 14 15  2  0
 16 17  1  0
 17 18  1  0
 18 19  1  1
 18 20  1  0
 20 21  1  6
 20 22  1  0
 21 14  1  0
 22 24  1  0
 23 22  2  0
M  END
$$$$
