PII.pdb
     RDKit          3D

 24 24  0  0  1  0  0  0  0  0999 V2000
   10.3129  -18.3602   19.7347 N   0  0  0  0  0  0  0  0  0  0  0  0
   10.7700  -18.8904   18.4820 C   0  0  0  0  0  0  0  0  0  0  0  0
   11.6527  -17.8251   17.9107 C   0  0  0  0  0  0  0  0  0  0  0  0
   11.9560  -16.8489   19.0429 C   0  0  0  0  0  0  0  0  0  0  0  0
   11.4387  -17.6058   20.2363 C   0  0  1  0  0  0  0  0  0  0  0  0
   11.0396  -16.7357   21.3556 C   0  0  0  0  0  0  0  0  0  0  0  0
   11.9283  -16.0633   21.9324 O   0  0  0  0  0  0  0  0  0  0  0  0
    6.6291  -14.0641   20.7047 C   0  0  0  0  0  0  0  0  0  0  0  0
    7.9685  -14.4994   21.1832 C   0  0  0  0  0  0  0  0  0  0  0  0
    7.9619  -15.1511   22.5379 C   0  0  2  0  0  0  0  0  0  0  0  0
    7.3958  -14.1875   23.5287 C   0  0  0  0  0  0  0  0  0  0  0  0
    9.3158  -15.6583   22.8571 C   0  0  2  0  0  0  0  0  0  0  0  0
    9.7082  -16.6059   21.8286 N   0  0  0  0  0  0  0  0  0  0  0  0
    9.4004  -16.3062   24.1982 C   0  0  0  0  0  0  0  0  0  0  0  0
    9.1643  -17.5286   24.3731 O   0  0  0  0  0  0  0  0  0  0  0  0
   10.2587  -13.1467   28.9393 C   0  0  0  0  0  0  0  0  0  0  0  0
    9.6552  -14.1407   27.9486 C   0  0  0  0  0  0  0  0  0  0  0  0
   10.6543  -15.2085   27.5881 C   0  0  2  0  0  0  0  0  0  0  0  0
   11.9447  -14.5646   27.1334 C   0  0  0  0  0  0  0  0  0  0  0  0
   10.0606  -16.1726   26.6318 C   0  0  2  0  0  0  0  0  0  0  0  0
    9.7564  -15.5511   25.3411 N   0  0  0  0  0  0  0  0  0  0  0  0
    8.7995  -16.7189   27.1651 C   0  0  0  0  0  0  0  0  0  0  0  0
    7.6443  -16.4436   26.7631 O   0  0  0  0  0  0  0  0  0  0  0  0
    8.8243  -17.6475   28.2327 O   0  0  0  0  0  0  0  0  0  0  0  0
  1  5  1  0
  2  1  1  0
  2  3  1  0
  3  4  1  0
  5  4  1  0
  5  6  1  1
  7  6  2  0
  9  8  1  0
  9 10  1  0
 10 12  1  0
 10 11  1  1
 12 13  1  6
 13  6  1  0
 14 12  1  0
 14 15  2  0
 16 17  1  0
 17 18  1  0
 18 19  1  6
 18 20  1  0
 20 21  1  6
 20 22  1  0
 21 14  1  0
 22 24  1  0
 23 22  2  0
M  END
$$$$
