PII.pdb
     RDKit          3D

 24 24  0  0  1  0  0  0  0  0999 V2000
    6.8615  -15.4248   21.2685 N   0  0  0  0  0  0  0  0  0  0  0  0
    6.3501  -15.1777   19.9507 C   0  0  0  0  0  0  0  0  0  0  0  0
    6.9066  -13.8430   19.5644 C   0  0  0  0  0  0  0  0  0  0  0  0
    8.0239  -13.5274   20.5538 C   0  0  0  0  0  0  0  0  0  0  0  0
    8.1875  -14.8507   21.2514 C   0  0  1  0  0  0  0  0  0  0  0  0
    8.7334  -14.7325   22.6143 C   0  0  0  0  0  0  0  0  0  0  0  0
    9.9710  -14.5733   22.7475 O   0  0  0  0  0  0  0  0  0  0  0  0
    5.9012  -11.9423   25.9157 C   0  0  0  0  0  0  0  0  0  0  0  0
    7.0307  -12.6445   25.2497 C   0  0  0  0  0  0  0  0  0  0  0  0
    7.4863  -13.8928   25.9526 C   0  0  2  0  0  0  0  0  0  0  0  0
    7.9363  -13.5285   27.3294 C   0  0  0  0  0  0  0  0  0  0  0  0
    8.4953  -14.5938   25.1264 C   0  0  2  0  0  0  0  0  0  0  0  0
    7.9483  -14.7871   23.7948 N   0  0  0  0  0  0  0  0  0  0  0  0
    8.9118  -15.9083   25.6958 C   0  0  0  0  0  0  0  0  0  0  0  0
    8.0931  -16.8346   25.9242 O   0  0  0  0  0  0  0  0  0  0  0  0
   13.5328  -17.9654   23.9770 C   0  0  0  0  0  0  0  0  0  0  0  0
   12.1126  -17.7560   24.4993 C   0  0  0  0  0  0  0  0  0  0  0  0
   12.0859  -17.7968   26.0046 C   0  0  2  0  0  0  0  0  0  0  0  0
   12.6358  -19.1202   26.4870 C   0  0  0  0  0  0  0  0  0  0  0  0
   10.7348  -17.4550   26.5087 C   0  0  2  0  0  0  0  0  0  0  0  0
   10.2699  -16.1613   26.0039 N   0  0  0  0  0  0  0  0  0  0  0  0
   10.7371  -17.3776   27.9810 C   0  0  0  0  0  0  0  0  0  0  0  0
   10.7944  -16.3302   28.6676 O   0  0  0  0  0  0  0  0  0  0  0  0
   10.6703  -18.5615   28.7534 O   0  0  0  0  0  0  0  0  0  0  0  0
  1  5  1  0
  2  1  1  0
  2  3  1  0
  3  4  1  0
  5  4  1  0
  5  6  1  1
  7  6  2  0
  9  8  1  0
  9 10  1  0
 10 12  1  0
 10 11  1  1
 12 13  1  6
 13  6  1  0
 14 12  1  0
 14 15  2  0
 16 17  1  0
 17 18  1  0
 18 19  1  6
 18 20  1  0
 20 21  1  6
 20 22  1  0
 21 14  1  0
 22 24  1  0
 23 22  2  0
M  END
$$$$
