PII.pdb
     RDKit          3D

 24 24  0  0  1  0  0  0  0  0999 V2000
    6.8699  -14.6485   20.8655 N   0  0  0  0  0  0  0  0  0  0  0  0
    6.5367  -14.2082   19.5410 C   0  0  0  0  0  0  0  0  0  0  0  0
    7.3801  -12.9926   19.3144 C   0  0  0  0  0  0  0  0  0  0  0  0
    8.4459  -12.9851   20.4056 C   0  0  0  0  0  0  0  0  0  0  0  0
    8.2800  -14.3599   20.9945 C   0  0  1  0  0  0  0  0  0  0  0  0
    8.7158  -14.4539   22.3982 C   0  0  0  0  0  0  0  0  0  0  0  0
    9.9462  -14.5204   22.6358 O   0  0  0  0  0  0  0  0  0  0  0  0
    5.8457  -11.6348   25.7072 C   0  0  0  0  0  0  0  0  0  0  0  0
    6.9450  -12.3891   25.0476 C   0  0  0  0  0  0  0  0  0  0  0  0
    7.2634  -13.7104   25.6899 C   0  0  2  0  0  0  0  0  0  0  0  0
    7.6337  -13.4709   27.1169 C   0  0  0  0  0  0  0  0  0  0  0  0
    8.2817  -14.4257   24.8877 C   0  0  2  0  0  0  0  0  0  0  0  0
    7.8315  -14.4746   23.5076 N   0  0  0  0  0  0  0  0  0  0  0  0
    8.5530  -15.8081   25.3786 C   0  0  0  0  0  0  0  0  0  0  0  0
    7.6455  -16.6684   25.5081 O   0  0  0  0  0  0  0  0  0  0  0  0
   12.5318  -18.5054   23.2891 C   0  0  0  0  0  0  0  0  0  0  0  0
   11.2537  -18.0385   23.9832 C   0  0  0  0  0  0  0  0  0  0  0  0
   11.4123  -18.0833   25.4803 C   0  0  2  0  0  0  0  0  0  0  0  0
   11.8390  -19.4704   25.9050 C   0  0  0  0  0  0  0  0  0  0  0  0
   10.1928  -17.5681   26.1466 C   0  0  2  0  0  0  0  0  0  0  0  0
    9.8676  -16.2048   25.7218 N   0  0  0  0  0  0  0  0  0  0  0  0
   10.3756  -17.5411   27.6092 C   0  0  0  0  0  0  0  0  0  0  0  0
   10.6987  -16.5440   28.2972 O   0  0  0  0  0  0  0  0  0  0  0  0
   10.1836  -18.7191   28.3697 O   0  0  0  0  0  0  0  0  0  0  0  0
  1  5  1  0
  2  1  1  0
  2  3  1  0
  3  4  1  0
  5  4  1  0
  5  6  1  1
  7  6  2  0
  9  8  1  0
  9 10  1  0
 10 12  1  0
 10 11  1  1
 12 13  1  6
 13  6  1  0
 14 12  1  0
 14 15  2  0
 16 17  1  0
 17 18  1  0
 18 19  1  1
 18 20  1  0
 20 21  1  6
 20 22  1  0
 21 14  1  0
 22 24  1  0
 23 22  2  0
M  END
$$$$
