PII.pdb
     RDKit          3D

 24 24  0  0  1  0  0  0  0  0999 V2000
    7.0274  -16.9905   21.6362 N   0  0  0  0  0  0  0  0  0  0  0  0
    6.2920  -17.4569   20.4957 C   0  0  0  0  0  0  0  0  0  0  0  0
    6.4332  -16.3716   19.4746 C   0  0  0  0  0  0  0  0  0  0  0  0
    7.5608  -15.4614   19.9511 C   0  0  0  0  0  0  0  0  0  0  0  0
    8.1493  -16.2762   21.0710 C   0  0  1  0  0  0  0  0  0  0  0  0
    8.8317  -15.4637   22.0925 C   0  0  0  0  0  0  0  0  0  0  0  0
    9.9542  -14.9773   21.8133 O   0  0  0  0  0  0  0  0  0  0  0  0
    5.8622  -12.4686   25.2188 C   0  0  0  0  0  0  0  0  0  0  0  0
    6.9816  -13.0596   24.4376 C   0  0  0  0  0  0  0  0  0  0  0  0
    8.0102  -13.7732   25.2698 C   0  0  2  0  0  0  0  0  0  0  0  0
    8.5726  -12.8102   26.2633 C   0  0  0  0  0  0  0  0  0  0  0  0
    9.0077  -14.4207   24.3877 C   0  0  2  0  0  0  0  0  0  0  0  0
    8.3012  -15.1923   23.3801 N   0  0  0  0  0  0  0  0  0  0  0  0
    9.9587  -15.3036   25.1235 C   0  0  0  0  0  0  0  0  0  0  0  0
   11.1395  -15.4946   24.7362 O   0  0  0  0  0  0  0  0  0  0  0  0
    9.9335  -13.8386   29.9655 C   0  0  0  0  0  0  0  0  0  0  0  0
   10.3526  -14.4237   28.6181 C   0  0  0  0  0  0  0  0  0  0  0  0
   10.2738  -15.9276   28.6414 C   0  0  2  0  0  0  0  0  0  0  0  0
   11.1792  -16.4673   29.7256 C   0  0  0  0  0  0  0  0  0  0  0  0
   10.5140  -16.4805   27.2875 C   0  0  2  0  0  0  0  0  0  0  0  0
    9.5553  -15.9689   26.3058 N   0  0  0  0  0  0  0  0  0  0  0  0
   10.3893  -17.9495   27.2999 C   0  0  0  0  0  0  0  0  0  0  0  0
    9.3288  -18.6040   27.1627 O   0  0  0  0  0  0  0  0  0  0  0  0
   11.5373  -18.7572   27.4794 O   0  0  0  0  0  0  0  0  0  0  0  0
  1  5  1  0
  2  1  1  0
  2  3  1  0
  3  4  1  0
  5  4  1  0
  5  6  1  1
  7  6  2  0
  9  8  1  0
  9 10  1  0
 10 12  1  0
 10 11  1  1
 12 13  1  6
 13  6  1  0
 14 12  1  0
 14 15  2  0
 16 17  1  0
 17 18  1  0
 18 19  1  1
 18 20  1  0
 20 21  1  6
 20 22  1  0
 21 14  1  0
 22 24  1  0
 23 22  2  0
M  END
$$$$
