PII.pdb
     RDKit          3D

 24 24  0  0  1  0  0  0  0  0999 V2000
    7.3352  -15.4379   20.6787 N   0  0  0  0  0  0  0  0  0  0  0  0
    7.0419  -15.3334   19.2779 C   0  0  0  0  0  0  0  0  0  0  0  0
    7.3654  -13.9165   18.9201 C   0  0  0  0  0  0  0  0  0  0  0  0
    8.1825  -13.3452   20.0746 C   0  0  0  0  0  0  0  0  0  0  0  0
    8.4880  -14.5872   20.8675 C   0  0  1  0  0  0  0  0  0  0  0  0
    8.7285  -14.3270   22.2970 C   0  0  0  0  0  0  0  0  0  0  0  0
    9.8221  -13.8107   22.6318 O   0  0  0  0  0  0  0  0  0  0  0  0
    4.9252  -12.1560   25.1319 C   0  0  0  0  0  0  0  0  0  0  0  0
    6.2295  -12.6561   24.6209 C   0  0  0  0  0  0  0  0  0  0  0  0
    6.7463  -13.8773   25.3290 C   0  0  2  0  0  0  0  0  0  0  0  0
    6.7971  -13.5940   26.7945 C   0  0  0  0  0  0  0  0  0  0  0  0
    8.0303  -14.3011   24.7258 C   0  0  2  0  0  0  0  0  0  0  0  0
    7.8000  -14.6230   23.3282 N   0  0  0  0  0  0  0  0  0  0  0  0
    8.6478  -15.4701   25.4169 C   0  0  0  0  0  0  0  0  0  0  0  0
    8.4044  -16.6574   25.0828 O   0  0  0  0  0  0  0  0  0  0  0  0
   11.7957  -14.4649   30.0546 C   0  0  0  0  0  0  0  0  0  0  0  0
   10.7006  -14.9716   29.1178 C   0  0  0  0  0  0  0  0  0  0  0  0
   11.2675  -15.9280   28.1018 C   0  0  2  0  0  0  0  0  0  0  0  0
   12.4732  -15.3051   27.4348 C   0  0  0  0  0  0  0  0  0  0  0  0
   10.2060  -16.3917   27.1773 C   0  0  2  0  0  0  0  0  0  0  0  0
    9.5461  -15.2774   26.4936 N   0  0  0  0  0  0  0  0  0  0  0  0
    9.1666  -17.1330   27.9146 C   0  0  0  0  0  0  0  0  0  0  0  0
    8.0636  -16.6773   28.2990 O   0  0  0  0  0  0  0  0  0  0  0  0
    9.3696  -18.4921   28.2523 O   0  0  0  0  0  0  0  0  0  0  0  0
  1  5  1  0
  2  1  1  0
  2  3  1  0
  3  4  1  0
  5  4  1  0
  5  6  1  1
  7  6  2  0
  9  8  1  0
  9 10  1  0
 10 12  1  0
 10 11  1  1
 12 13  1  6
 13  6  1  0
 14 12  1  0
 14 15  2  0
 16 17  1  0
 17 18  1  0
 18 19  1  6
 18 20  1  0
 20 21  1  1
 20 22  1  0
 21 14  1  0
 22 24  1  0
 23 22  2  0
M  END
$$$$
