PII.pdb
     RDKit          3D

 24 24  0  0  1  0  0  0  0  0999 V2000
    8.7550  -15.2559   18.9896 N   0  0  0  0  0  0  0  0  0  0  0  0
    9.0047  -14.7355   17.6757 C   0  0  0  0  0  0  0  0  0  0  0  0
    8.0618  -13.5820   17.5315 C   0  0  0  0  0  0  0  0  0  0  0  0
    7.5431  -13.2584   18.9290 C   0  0  0  0  0  0  0  0  0  0  0  0
    8.4599  -14.0876   19.7872 C   0  0  1  0  0  0  0  0  0  0  0  0
    7.8703  -14.4637   21.0834 C   0  0  0  0  0  0  0  0  0  0  0  0
    7.4699  -13.5484   21.8427 O   0  0  0  0  0  0  0  0  0  0  0  0
    5.8781  -19.4670   21.5110 C   0  0  0  0  0  0  0  0  0  0  0  0
    6.0157  -17.9995   21.7114 C   0  0  0  0  0  0  0  0  0  0  0  0
    6.9133  -17.6105   22.8527 C   0  0  2  0  0  0  0  0  0  0  0  0
    6.3242  -18.1313   24.1226 C   0  0  0  0  0  0  0  0  0  0  0  0
    7.1559  -16.1502   22.8248 C   0  0  2  0  0  0  0  0  0  0  0  0
    7.7237  -15.8010   21.5342 N   0  0  0  0  0  0  0  0  0  0  0  0
    8.0595  -15.6828   23.9160 C   0  0  0  0  0  0  0  0  0  0  0  0
    9.2769  -15.9930   23.9633 O   0  0  0  0  0  0  0  0  0  0  0  0
    6.2016  -11.4942   27.3682 C   0  0  0  0  0  0  0  0  0  0  0  0
    6.6319  -12.8915   26.9253 C   0  0  0  0  0  0  0  0  0  0  0  0
    7.9944  -12.8525   26.2845 C   0  0  2  0  0  0  0  0  0  0  0  0
    7.9877  -11.8696   25.1355 C   0  0  0  0  0  0  0  0  0  0  0  0
    8.4444  -14.2217   25.9392 C   0  0  2  0  0  0  0  0  0  0  0  0
    7.5662  -14.8580   24.9550 N   0  0  0  0  0  0  0  0  0  0  0  0
    8.4557  -15.0794   27.1382 C   0  0  0  0  0  0  0  0  0  0  0  0
    9.2082  -14.9523   28.1329 O   0  0  0  0  0  0  0  0  0  0  0  0
    7.5568  -16.1677   27.2401 O   0  0  0  0  0  0  0  0  0  0  0  0
  1  5  1  0
  2  1  1  0
  2  3  1  0
  3  4  1  0
  5  4  1  0
  5  6  1  1
  7  6  2  0
  9  8  1  0
  9 10  1  0
 10 12  1  0
 10 11  1  1
 12 13  1  6
 13  6  1  0
 14 12  1  0
 14 15  2  0
 16 17  1  0
 17 18  1  0
 18 19  1  6
 18 20  1  0
 20 21  1  6
 20 22  1  0
 21 14  1  0
 22 24  1  0
 23 22  2  0
M  END
$$$$
