VKW.pdb
     RDKit          3D

 31 32  0  0  1  0  0  0  0  0999 V2000
    7.1382  -12.5157   19.2918 C   0  0  0  0  0  0  0  0  0  0  0  0
    7.5567  -13.4782   20.3770 C   0  0  2  0  0  0  0  0  0  0  0  0
    8.4031  -12.8117   21.4422 C   0  0  0  0  0  0  0  0  0  0  0  0
    8.2344  -14.7183   19.8300 C   0  0  2  0  0  0  0  0  0  0  0  0
    7.3149  -15.3052   18.8499 N   0  0  0  0  0  0  0  0  0  0  0  0
    8.5010  -15.7385   20.8507 C   0  0  0  0  0  0  0  0  0  0  0  0
    7.5588  -16.4807   21.2783 O   0  0  0  0  0  0  0  0  0  0  0  0
    9.7602  -15.9919   21.4332 N   0  0  0  0  0  0  0  0  0  0  0  0
    9.9926  -17.0977   22.3981 C   0  0  1  0  0  0  0  0  0  0  0  0
   11.2496  -17.8207   21.9709 C   0  0  0  0  0  0  0  0  0  0  0  0
   11.0279  -18.6030   20.7182 C   0  0  0  0  0  0  0  0  0  0  0  0
   12.2966  -19.3303   20.2816 C   0  0  0  0  0  0  0  0  0  0  0  0
   12.1228  -20.0147   18.9477 C   0  0  0  0  0  0  0  0  0  0  0  0
   13.4129  -20.4775   18.4325 N   0  0  0  0  0  0  0  0  0  0  0  0
   10.1744  -16.5369   23.7403 C   0  0  0  0  0  0  0  0  0  0  0  0
   10.9794  -15.5551   23.8945 O   0  0  0  0  0  0  0  0  0  0  0  0
    9.5256  -16.9845   24.9004 N   0  0  0  0  0  0  0  0  0  0  0  0
    9.9303  -16.5553   26.2333 C   0  0  1  0  0  0  0  0  0  0  0  0
    8.6952  -16.4830   27.1281 C   0  0  0  0  0  0  0  0  0  0  0  0
    7.6985  -15.5950   26.4860 C   0  0  0  0  0  0  0  0  0  0  0  0
    6.6388  -15.9536   25.6640 C   0  0  0  0  0  0  0  0  0  0  0  0
    5.9798  -14.8457   25.2893 N   0  0  0  0  0  0  0  0  0  0  0  0
    6.5708  -13.7756   25.8372 C   0  0  0  0  0  0  0  0  0  0  0  0
    6.2750  -12.4423   25.7545 C   0  0  0  0  0  0  0  0  0  0  0  0
    7.0451  -11.4910   26.4223 C   0  0  0  0  0  0  0  0  0  0  0  0
    8.1104  -11.9558   27.1637 C   0  0  0  0  0  0  0  0  0  0  0  0
    8.4134  -13.3014   27.2505 C   0  0  0  0  0  0  0  0  0  0  0  0
    7.6410  -14.2123   26.5852 C   0  0  0  0  0  0  0  0  0  0  0  0
   10.9742  -17.3849   26.8259 C   0  0  0  0  0  0  0  0  0  0  0  0
   11.5660  -17.0681   28.0212 O   0  0  0  0  0  0  0  0  0  0  0  0
   11.3815  -18.4436   26.2547 O   0  0  0  0  0  0  0  0  0  0  0  0
  2  1  1  6
  2  3  1  0
  4  2  1  0
  4  5  1  6
  6  4  1  0
  6  7  2  0
  8  6  1  0
  9  8  1  0
 10 11  1  0
  9 10  1  6
 12 13  1  0
 12 11  1  0
 13 14  1  0
 15 16  2  0
 15  9  1  0
 17 15  1  0
 18 17  1  0
 18 29  1  0
 18 19  1  1
 20 19  1  0
 20 21  2  0
 22 21  1  0
 23 22  1  0
 24 23  2  0
 25 24  1  0
 26 25  2  0
 26 27  1  0
 27 28  2  0
 28 23  1  0
 28 20  1  0
 29 31  2  0
 29 30  1  0
M  END
$$$$
