VKW.pdb
     RDKit          3D

 31 32  0  0  1  0  0  0  0  0999 V2000
    7.5024  -21.8984   20.2494 C   0  0  0  0  0  0  0  0  0  0  0  0
    8.0951  -20.5280   20.0261 C   0  0  2  0  0  0  0  0  0  0  0  0
    9.2698  -20.5581   19.0698 C   0  0  0  0  0  0  0  0  0  0  0  0
    8.4558  -19.8282   21.3208 C   0  0  2  0  0  0  0  0  0  0  0  0
    7.2678  -19.8873   22.1786 N   0  0  0  0  0  0  0  0  0  0  0  0
    8.8028  -18.4131   21.1448 C   0  0  0  0  0  0  0  0  0  0  0  0
    9.8760  -18.0852   20.5431 O   0  0  0  0  0  0  0  0  0  0  0  0
    8.0264  -17.3263   21.5974 N   0  0  0  0  0  0  0  0  0  0  0  0
    8.4553  -15.9119   21.4445 C   0  0  1  0  0  0  0  0  0  0  0  0
    7.2081  -15.0594   21.3885 C   0  0  0  0  0  0  0  0  0  0  0  0
    7.5367  -13.6343   21.0861 C   0  0  0  0  0  0  0  0  0  0  0  0
    8.0192  -13.4650   19.6480 C   0  0  0  0  0  0  0  0  0  0  0  0
    8.3183  -12.0224   19.3204 C   0  0  0  0  0  0  0  0  0  0  0  0
    8.8198  -11.8971   17.9505 N   0  0  0  0  0  0  0  0  0  0  0  0
    9.2686  -15.5263   22.6015 C   0  0  0  0  0  0  0  0  0  0  0  0
    9.9038  -14.4167   22.5663 O   0  0  0  0  0  0  0  0  0  0  0  0
    9.4136  -16.2776   23.7769 N   0  0  0  0  0  0  0  0  0  0  0  0
   10.1801  -15.7956   24.9191 C   0  0  1  0  0  0  0  0  0  0  0  0
    9.3977  -16.0818   26.1987 C   0  0  0  0  0  0  0  0  0  0  0  0
    8.0249  -15.5477   26.0419 C   0  0  0  0  0  0  0  0  0  0  0  0
    6.8596  -16.2525   25.7724 C   0  0  0  0  0  0  0  0  0  0  0  0
    5.8320  -15.3914   25.7046 N   0  0  0  0  0  0  0  0  0  0  0  0
    6.2838  -14.1490   25.9203 C   0  0  0  0  0  0  0  0  0  0  0  0
    5.6321  -12.9464   25.9524 C   0  0  0  0  0  0  0  0  0  0  0  0
    6.3215  -11.7600   26.1997 C   0  0  0  0  0  0  0  0  0  0  0  0
    7.6808  -11.8572   26.4084 C   0  0  0  0  0  0  0  0  0  0  0  0
    8.3438  -13.0694   26.3772 C   0  0  0  0  0  0  0  0  0  0  0  0
    7.6425  -14.2171   26.1325 C   0  0  0  0  0  0  0  0  0  0  0  0
   11.5347  -16.3339   24.9869 C   0  0  0  0  0  0  0  0  0  0  0  0
   12.0269  -17.1903   24.0363 O   0  0  0  0  0  0  0  0  0  0  0  0
   12.3207  -16.0290   25.9368 O   0  0  0  0  0  0  0  0  0  0  0  0
  2  1  1  1
  2  3  1  0
  4  2  1  0
  4  5  1  1
  6  4  1  0
  6  7  2  0
  8  6  1  0
  9  8  1  0
 10 11  1  0
  9 10  1  1
 12 13  1  0
 12 11  1  0
 13 14  1  0
 15 16  2  0
 15  9  1  0
 17 15  1  0
 18 17  1  0
 18 29  1  0
 18 19  1  1
 20 19  1  0
 20 21  2  0
 22 21  1  0
 23 22  1  0
 24 23  2  0
 25 24  1  0
 26 25  2  0
 26 27  1  0
 27 28  2  0
 28 23  1  0
 28 20  1  0
 29 31  2  0
 29 30  1  0
M  END
$$$$
