VKW.pdb
     RDKit          3D

 31 32  0  0  1  0  0  0  0  0999 V2000
    6.8104  -13.4076   21.4330 C   0  0  0  0  0  0  0  0  0  0  0  0
    7.9702  -13.2341   20.4823 C   0  0  2  0  0  0  0  0  0  0  0  0
    7.7078  -12.1622   19.4442 C   0  0  0  0  0  0  0  0  0  0  0  0
    8.3962  -14.5362   19.8349 C   0  0  2  0  0  0  0  0  0  0  0  0
    7.3043  -14.9428   18.9443 N   0  0  0  0  0  0  0  0  0  0  0  0
    8.6110  -15.6250   20.7951 C   0  0  0  0  0  0  0  0  0  0  0  0
    7.6648  -16.4296   21.0757 O   0  0  0  0  0  0  0  0  0  0  0  0
    9.8219  -15.8822   21.4707 N   0  0  0  0  0  0  0  0  0  0  0  0
    9.9852  -17.0045   22.4307 C   0  0  1  0  0  0  0  0  0  0  0  0
   11.1793  -17.8174   21.9850 C   0  0  0  0  0  0  0  0  0  0  0  0
   10.9381  -18.4544   20.6559 C   0  0  0  0  0  0  0  0  0  0  0  0
   12.1612  -19.2329   20.1792 C   0  0  0  0  0  0  0  0  0  0  0  0
   11.9074  -19.9313   18.8655 C   0  0  0  0  0  0  0  0  0  0  0  0
   13.1560  -20.4578   18.3107 N   0  0  0  0  0  0  0  0  0  0  0  0
   10.2262  -16.4622   23.7710 C   0  0  0  0  0  0  0  0  0  0  0  0
   11.1319  -15.5718   23.9222 O   0  0  0  0  0  0  0  0  0  0  0  0
    9.5335  -16.8339   24.9325 N   0  0  0  0  0  0  0  0  0  0  0  0
   10.0515  -16.5638   26.2678 C   0  0  1  0  0  0  0  0  0  0  0  0
    8.8797  -16.4289   27.2373 C   0  0  0  0  0  0  0  0  0  0  0  0
    7.8168  -15.6299   26.5845 C   0  0  0  0  0  0  0  0  0  0  0  0
    6.7539  -16.0869   25.8171 C   0  0  0  0  0  0  0  0  0  0  0  0
    6.0241  -15.0367   25.4091 N   0  0  0  0  0  0  0  0  0  0  0  0
    6.5717  -13.9095   25.8824 C   0  0  0  0  0  0  0  0  0  0  0  0
    6.2008  -12.6000   25.7425 C   0  0  0  0  0  0  0  0  0  0  0  0
    6.9373  -11.5755   26.3356 C   0  0  0  0  0  0  0  0  0  0  0  0
    8.0485  -11.9436   27.0639 C   0  0  0  0  0  0  0  0  0  0  0  0
    8.4274  -13.2648   27.2084 C   0  0  0  0  0  0  0  0  0  0  0  0
    7.6864  -14.2490   26.6158 C   0  0  0  0  0  0  0  0  0  0  0  0
   11.0212  -17.5503   26.7324 C   0  0  0  0  0  0  0  0  0  0  0  0
   11.7371  -17.3798   27.8890 O   0  0  0  0  0  0  0  0  0  0  0  0
   11.2443  -18.6167   26.0796 O   0  0  0  0  0  0  0  0  0  0  0  0
  2  1  1  6
  2  3  1  0
  4  2  1  0
  4  5  1  6
  6  4  1  0
  6  7  2  0
  8  6  1  0
  9  8  1  0
 10 11  1  0
  9 10  1  6
 12 13  1  0
 12 11  1  0
 13 14  1  0
 15 16  2  0
 15  9  1  0
 17 15  1  0
 18 17  1  0
 18 29  1  0
 18 19  1  1
 20 19  1  0
 20 21  2  0
 22 21  1  0
 23 22  1  0
 24 23  2  0
 25 24  1  0
 26 25  2  0
 26 27  1  0
 27 28  2  0
 28 23  1  0
 28 20  1  0
 29 31  2  0
 29 30  1  0
M  END
$$$$
