VKW.pdb
     RDKit          3D

 31 32  0  0  1  0  0  0  0  0999 V2000
    5.4224  -20.8185   22.5536 C   0  0  0  0  0  0  0  0  0  0  0  0
    6.4547  -19.7170   22.5614 C   0  0  2  0  0  0  0  0  0  0  0  0
    6.5124  -18.9919   23.8904 C   0  0  0  0  0  0  0  0  0  0  0  0
    6.2835  -18.7462   21.4106 C   0  0  2  0  0  0  0  0  0  0  0  0
    6.4227  -19.5252   20.1760 N   0  0  0  0  0  0  0  0  0  0  0  0
    7.2995  -17.6876   21.3812 C   0  0  0  0  0  0  0  0  0  0  0  0
    8.5166  -17.9723   21.1386 O   0  0  0  0  0  0  0  0  0  0  0  0
    7.0489  -16.3178   21.6050 N   0  0  0  0  0  0  0  0  0  0  0  0
    8.1345  -15.3111   21.7299 C   0  0  1  0  0  0  0  0  0  0  0  0
    7.5899  -13.9883   21.2412 C   0  0  0  0  0  0  0  0  0  0  0  0
    7.1844  -14.0641   19.8058 C   0  0  0  0  0  0  0  0  0  0  0  0
    8.2734  -13.5157   18.8878 C   0  0  0  0  0  0  0  0  0  0  0  0
    7.8266  -13.4732   17.4468 C   0  0  0  0  0  0  0  0  0  0  0  0
    8.9135  -13.0092   16.5824 N   0  0  0  0  0  0  0  0  0  0  0  0
    8.5271  -15.1966   23.1376 C   0  0  0  0  0  0  0  0  0  0  0  0
    8.0252  -14.2552   23.8431 O   0  0  0  0  0  0  0  0  0  0  0  0
    9.4204  -16.0496   23.8019 N   0  0  0  0  0  0  0  0  0  0  0  0
   10.1361  -15.6431   25.0048 C   0  0  1  0  0  0  0  0  0  0  0  0
    9.3101  -16.0307   26.2291 C   0  0  0  0  0  0  0  0  0  0  0  0
    8.0167  -15.3108   26.1729 C   0  0  0  0  0  0  0  0  0  0  0  0
    6.7742  -15.8135   25.8111 C   0  0  0  0  0  0  0  0  0  0  0  0
    5.8635  -14.8303   25.8895 N   0  0  0  0  0  0  0  0  0  0  0  0
    6.4662  -13.7029   26.2897 C   0  0  0  0  0  0  0  0  0  0  0  0
    5.9707  -12.4477   26.5152 C   0  0  0  0  0  0  0  0  0  0  0  0
    6.8018  -11.4100   26.9351 C   0  0  0  0  0  0  0  0  0  0  0  0
    8.1364  -11.7081   27.1105 C   0  0  0  0  0  0  0  0  0  0  0  0
    8.6419  -12.9743   26.8842 C   0  0  0  0  0  0  0  0  0  0  0  0
    7.8038  -13.9731   26.4729 C   0  0  0  0  0  0  0  0  0  0  0  0
   11.4948  -16.1691   25.0860 C   0  0  0  0  0  0  0  0  0  0  0  0
   12.0048  -17.0193   24.1392 O   0  0  0  0  0  0  0  0  0  0  0  0
   12.2680  -15.8587   26.0446 O   0  0  0  0  0  0  0  0  0  0  0  0
  2  1  1  1
  2  3  1  0
  4  2  1  0
  4  5  1  6
  6  4  1  0
  6  7  2  0
  8  6  1  0
  9  8  1  0
 10 11  1  0
  9 10  1  1
 12 13  1  0
 12 11  1  0
 13 14  1  0
 15 16  2  0
 15  9  1  0
 17 15  1  0
 18 17  1  0
 18 29  1  0
 18 19  1  1
 20 19  1  0
 20 21  2  0
 22 21  1  0
 23 22  1  0
 24 23  2  0
 25 24  1  0
 26 25  2  0
 26 27  1  0
 27 28  2  0
 28 23  1  0
 28 20  1  0
 29 31  2  0
 29 30  1  0
M  END
$$$$
