VKW.pdb
     RDKit          3D

 31 32  0  0  1  0  0  0  0  0999 V2000
    7.5936  -12.9667   22.0552 C   0  0  0  0  0  0  0  0  0  0  0  0
    8.2384  -13.2804   20.7267 C   0  0  2  0  0  0  0  0  0  0  0  0
    7.8417  -12.2940   19.6474 C   0  0  0  0  0  0  0  0  0  0  0  0
    7.9991  -14.7093   20.2828 C   0  0  2  0  0  0  0  0  0  0  0  0
    6.5552  -14.8492   20.0681 N   0  0  0  0  0  0  0  0  0  0  0  0
    8.3950  -15.7075   21.2831 C   0  0  0  0  0  0  0  0  0  0  0  0
    7.5451  -16.1467   22.1233 O   0  0  0  0  0  0  0  0  0  0  0  0
    9.6876  -16.2568   21.4118 N   0  0  0  0  0  0  0  0  0  0  0  0
   10.0226  -17.2992   22.4163 C   0  0  1  0  0  0  0  0  0  0  0  0
   11.2872  -17.9880   21.9561 C   0  0  0  0  0  0  0  0  0  0  0  0
   11.6191  -19.1544   22.8277 C   0  0  0  0  0  0  0  0  0  0  0  0
   12.8954  -19.8521   22.3654 C   0  0  0  0  0  0  0  0  0  0  0  0
   13.8105  -20.1759   23.5211 C   0  0  0  0  0  0  0  0  0  0  0  0
   13.8902  -21.6234   23.7272 N   0  0  0  0  0  0  0  0  0  0  0  0
   10.2498  -16.6614   23.7165 C   0  0  0  0  0  0  0  0  0  0  0  0
   10.9871  -15.6177   23.7709 O   0  0  0  0  0  0  0  0  0  0  0  0
    9.7145  -17.0969   24.9375 N   0  0  0  0  0  0  0  0  0  0  0  0
   10.0840  -16.4899   26.2101 C   0  0  1  0  0  0  0  0  0  0  0  0
    8.8453  -16.4065   27.0989 C   0  0  0  0  0  0  0  0  0  0  0  0
    7.8165  -15.6017   26.4002 C   0  0  0  0  0  0  0  0  0  0  0  0
    6.7088  -16.0555   25.6971 C   0  0  0  0  0  0  0  0  0  0  0  0
    6.0337  -15.0007   25.2135 N   0  0  0  0  0  0  0  0  0  0  0  0
    6.6605  -13.8735   25.5754 C   0  0  0  0  0  0  0  0  0  0  0  0
    6.3662  -12.5603   25.3290 C   0  0  0  0  0  0  0  0  0  0  0  0
    7.1783  -11.5367   25.8154 C   0  0  0  0  0  0  0  0  0  0  0  0
    8.2833  -11.9095   26.5506 C   0  0  0  0  0  0  0  0  0  0  0  0
    8.5850  -13.2345   26.8025 C   0  0  0  0  0  0  0  0  0  0  0  0
    7.7709  -14.2177   26.3132 C   0  0  0  0  0  0  0  0  0  0  0  0
   11.1850  -17.1678   26.8866 C   0  0  0  0  0  0  0  0  0  0  0  0
   11.7822  -18.2864   26.3655 O   0  0  0  0  0  0  0  0  0  0  0  0
   11.6398  -16.7465   27.9950 O   0  0  0  0  0  0  0  0  0  0  0  0
  2  1  1  1
  2  3  1  0
  4  2  1  0
  4  5  1  1
  6  4  1  0
  6  7  2  0
  8  6  1  0
  9  8  1  0
 10 11  1  0
  9 10  1  6
 12 13  1  0
 12 11  1  0
 13 14  1  0
 15 16  2  0
 15  9  1  0
 17 15  1  0
 18 17  1  0
 18 29  1  0
 18 19  1  1
 20 19  1  0
 20 21  2  0
 22 21  1  0
 23 22  1  0
 24 23  2  0
 25 24  1  0
 26 25  2  0
 26 27  1  0
 27 28  2  0
 28 23  1  0
 28 20  1  0
 29 31  2  0
 29 30  1  0
M  END
$$$$
