VKW.pdb
     RDKit          3D

 31 32  0  0  1  0  0  0  0  0999 V2000
    7.2818  -13.0756   21.7055 C   0  0  0  0  0  0  0  0  0  0  0  0
    8.1052  -13.3375   20.4676 C   0  0  2  0  0  0  0  0  0  0  0  0
    7.7474  -12.4029   19.3302 C   0  0  0  0  0  0  0  0  0  0  0  0
    8.0552  -14.7865   20.0271 C   0  0  2  0  0  0  0  0  0  0  0  0
    6.6771  -15.0519   19.6017 N   0  0  0  0  0  0  0  0  0  0  0  0
    8.3765  -15.7360   21.0990 C   0  0  0  0  0  0  0  0  0  0  0  0
    7.4512  -16.2164   21.8300 O   0  0  0  0  0  0  0  0  0  0  0  0
    9.6729  -16.1929   21.4149 N   0  0  0  0  0  0  0  0  0  0  0  0
    9.9290  -17.2522   22.4248 C   0  0  1  0  0  0  0  0  0  0  0  0
   11.1982  -17.9689   22.0239 C   0  0  0  0  0  0  0  0  0  0  0  0
   11.4723  -19.1318   22.9199 C   0  0  0  0  0  0  0  0  0  0  0  0
   12.7782  -19.8286   22.5476 C   0  0  0  0  0  0  0  0  0  0  0  0
   13.0519  -21.0214   23.4310 C   0  0  0  0  0  0  0  0  0  0  0  0
   12.0882  -22.0916   23.1670 N   0  0  0  0  0  0  0  0  0  0  0  0
   10.1039  -16.6319   23.7414 C   0  0  0  0  0  0  0  0  0  0  0  0
   10.7721  -15.5447   23.8269 O   0  0  0  0  0  0  0  0  0  0  0  0
    9.5876  -17.1293   24.9468 N   0  0  0  0  0  0  0  0  0  0  0  0
    9.9916  -16.6007   26.2437 C   0  0  1  0  0  0  0  0  0  0  0  0
    8.7699  -16.5391   27.1574 C   0  0  0  0  0  0  0  0  0  0  0  0
    7.7892  -15.5962   26.5712 C   0  0  0  0  0  0  0  0  0  0  0  0
    6.6982  -15.8901   25.7646 C   0  0  0  0  0  0  0  0  0  0  0  0
    6.0690  -14.7483   25.4445 N   0  0  0  0  0  0  0  0  0  0  0  0
    6.7096  -13.7184   26.0132 C   0  0  0  0  0  0  0  0  0  0  0  0
    6.4581  -12.3739   25.9833 C   0  0  0  0  0  0  0  0  0  0  0  0
    7.2765  -11.4728   26.6632 C   0  0  0  0  0  0  0  0  0  0  0  0
    8.3428  -11.9987   27.3612 C   0  0  0  0  0  0  0  0  0  0  0  0
    8.6011  -13.3559   27.3946 C   0  0  0  0  0  0  0  0  0  0  0  0
    7.7818  -14.2167   26.7187 C   0  0  0  0  0  0  0  0  0  0  0  0
   11.0880  -17.3380   26.8630 C   0  0  0  0  0  0  0  0  0  0  0  0
   11.6822  -18.4109   26.2505 O   0  0  0  0  0  0  0  0  0  0  0  0
   11.5414  -17.0140   28.0042 O   0  0  0  0  0  0  0  0  0  0  0  0
  2  1  1  1
  2  3  1  0
  4  2  1  0
  4  5  1  1
  6  4  1  0
  6  7  2  0
  8  6  1  0
  9  8  1  0
 10 11  1  0
  9 10  1  6
 12 13  1  0
 12 11  1  0
 13 14  1  0
 15 16  2  0
 15  9  1  0
 17 15  1  0
 18 17  1  0
 18 29  1  0
 18 19  1  1
 20 19  1  0
 20 21  2  0
 22 21  1  0
 23 22  1  0
 24 23  2  0
 25 24  1  0
 26 25  2  0
 26 27  1  0
 27 28  2  0
 28 23  1  0
 28 20  1  0
 29 31  2  0
 29 30  1  0
M  END
$$$$
