VKW.pdb
     RDKit          3D

 31 32  0  0  1  0  0  0  0  0999 V2000
    7.3387  -13.1832   21.9086 C   0  0  0  0  0  0  0  0  0  0  0  0
    8.0535  -13.4566   20.6073 C   0  0  2  0  0  0  0  0  0  0  0  0
    7.5676  -12.5622   19.4851 C   0  0  0  0  0  0  0  0  0  0  0  0
    8.0049  -14.9176   20.2084 C   0  0  2  0  0  0  0  0  0  0  0  0
    6.6225  -15.2013   19.8097 N   0  0  0  0  0  0  0  0  0  0  0  0
    8.3457  -15.8350   21.3021 C   0  0  0  0  0  0  0  0  0  0  0  0
    7.4259  -16.4296   21.9516 O   0  0  0  0  0  0  0  0  0  0  0  0
    9.6560  -16.1395   21.7254 N   0  0  0  0  0  0  0  0  0  0  0  0
    9.9514  -17.1820   22.7421 C   0  0  1  0  0  0  0  0  0  0  0  0
   11.2123  -17.8962   22.3117 C   0  0  0  0  0  0  0  0  0  0  0  0
   11.5715  -18.9879   23.2654 C   0  0  0  0  0  0  0  0  0  0  0  0
   12.7602  -19.8018   22.7613 C   0  0  0  0  0  0  0  0  0  0  0  0
   13.0894  -20.9492   23.6849 C   0  0  0  0  0  0  0  0  0  0  0  0
   14.0993  -21.8226   23.0839 N   0  0  0  0  0  0  0  0  0  0  0  0
   10.1636  -16.5409   24.0433 C   0  0  0  0  0  0  0  0  0  0  0  0
   10.9578  -15.5410   24.1157 O   0  0  0  0  0  0  0  0  0  0  0  0
    9.5559  -16.9283   25.2464 N   0  0  0  0  0  0  0  0  0  0  0  0
    9.9692  -16.3894   26.5361 C   0  0  1  0  0  0  0  0  0  0  0  0
    8.7367  -16.2176   27.4208 C   0  0  0  0  0  0  0  0  0  0  0  0
    7.7594  -15.3627   26.7077 C   0  0  0  0  0  0  0  0  0  0  0  0
    6.6966  -15.7632   25.9093 C   0  0  0  0  0  0  0  0  0  0  0  0
    6.0599  -14.6750   25.4482 N   0  0  0  0  0  0  0  0  0  0  0  0
    6.6685  -13.5775   25.9167 C   0  0  0  0  0  0  0  0  0  0  0  0
    6.3980  -12.2491   25.7317 C   0  0  0  0  0  0  0  0  0  0  0  0
    7.1829  -11.2642   26.3297 C   0  0  0  0  0  0  0  0  0  0  0  0
    8.2363  -11.6907   27.1101 C   0  0  0  0  0  0  0  0  0  0  0  0
    8.5138  -13.0312   27.3002 C   0  0  0  0  0  0  0  0  0  0  0  0
    7.7272  -13.9757   26.7016 C   0  0  0  0  0  0  0  0  0  0  0  0
   11.0001  -17.1803   27.2001 C   0  0  0  0  0  0  0  0  0  0  0  0
   11.4732  -18.3529   26.6702 O   0  0  0  0  0  0  0  0  0  0  0  0
   11.5064  -16.8127   28.3053 O   0  0  0  0  0  0  0  0  0  0  0  0
  2  1  1  1
  2  3  1  0
  4  2  1  0
  4  5  1  1
  6  4  1  0
  6  7  2  0
  8  6  1  0
  9  8  1  0
 10 11  1  0
  9 10  1  6
 12 13  1  0
 12 11  1  0
 13 14  1  0
 15 16  2  0
 15  9  1  0
 17 15  1  0
 18 17  1  0
 18 29  1  0
 18 19  1  1
 20 19  1  0
 20 21  2  0
 22 21  1  0
 23 22  1  0
 24 23  2  0
 25 24  1  0
 26 25  2  0
 26 27  1  0
 27 28  2  0
 28 23  1  0
 28 20  1  0
 29 31  2  0
 29 30  1  0
M  END
$$$$
