VKW.pdb
     RDKit          3D

 31 32  0  0  1  0  0  0  0  0999 V2000
    6.0002  -21.0430   20.1925 C   0  0  0  0  0  0  0  0  0  0  0  0
    6.9270  -19.8705   19.9795 C   0  0  2  0  0  0  0  0  0  0  0  0
    7.8573  -20.0789   18.8021 C   0  0  0  0  0  0  0  0  0  0  0  0
    7.6961  -19.4975   21.2307 C   0  0  2  0  0  0  0  0  0  0  0  0
    6.7047  -19.2983   22.2928 N   0  0  0  0  0  0  0  0  0  0  0  0
    8.4587  -18.2505   21.0996 C   0  0  0  0  0  0  0  0  0  0  0  0
    9.4785  -18.1984   20.3389 O   0  0  0  0  0  0  0  0  0  0  0  0
    8.1586  -17.0437   21.7648 N   0  0  0  0  0  0  0  0  0  0  0  0
    9.0651  -15.8666   21.7445 C   0  0  1  0  0  0  0  0  0  0  0  0
    8.2705  -14.6861   21.2343 C   0  0  0  0  0  0  0  0  0  0  0  0
    8.1705  -14.7010   19.7443 C   0  0  0  0  0  0  0  0  0  0  0  0
    8.0781  -13.2874   19.1763 C   0  0  0  0  0  0  0  0  0  0  0  0
    7.8874  -13.2934   17.6791 C   0  0  0  0  0  0  0  0  0  0  0  0
    7.6414  -11.9375   17.1843 N   0  0  0  0  0  0  0  0  0  0  0  0
    9.5362  -15.5966   23.1062 C   0  0  0  0  0  0  0  0  0  0  0  0
   10.1097  -14.4797   23.3501 O   0  0  0  0  0  0  0  0  0  0  0  0
    9.4075  -16.4695   24.1964 N   0  0  0  0  0  0  0  0  0  0  0  0
   10.1048  -16.2485   25.4571 C   0  0  1  0  0  0  0  0  0  0  0  0
    9.0960  -16.3158   26.6012 C   0  0  0  0  0  0  0  0  0  0  0  0
    7.8709  -15.5896   26.1935 C   0  0  0  0  0  0  0  0  0  0  0  0
    6.7112  -16.1144   25.6396 C   0  0  0  0  0  0  0  0  0  0  0  0
    5.8428  -15.1161   25.4126 N   0  0  0  0  0  0  0  0  0  0  0  0
    6.3934  -13.9575   25.7984 C   0  0  0  0  0  0  0  0  0  0  0  0
    5.9112  -12.6774   25.7700 C   0  0  0  0  0  0  0  0  0  0  0  0
    6.6776  -11.6087   26.2330 C   0  0  0  0  0  0  0  0  0  0  0  0
    7.9347  -11.9025   26.7168 C   0  0  0  0  0  0  0  0  0  0  0  0
    8.4264  -13.1937   26.7477 C   0  0  0  0  0  0  0  0  0  0  0  0
    7.6530  -14.2226   26.2872 C   0  0  0  0  0  0  0  0  0  0  0  0
   11.2254  -17.1573   25.6757 C   0  0  0  0  0  0  0  0  0  0  0  0
   12.0932  -17.0045   26.7259 O   0  0  0  0  0  0  0  0  0  0  0  0
   11.4452  -18.1356   24.8963 O   0  0  0  0  0  0  0  0  0  0  0  0
  2  1  1  1
  2  3  1  0
  4  2  1  0
  4  5  1  1
  6  4  1  0
  6  7  2  0
  8  6  1  0
  9  8  1  0
 10 11  1  0
  9 10  1  1
 12 13  1  0
 12 11  1  0
 13 14  1  0
 15 16  2  0
 15  9  1  0
 17 15  1  0
 18 17  1  0
 18 29  1  0
 18 19  1  1
 20 19  1  0
 20 21  2  0
 22 21  1  0
 23 22  1  0
 24 23  2  0
 25 24  1  0
 26 25  2  0
 26 27  1  0
 27 28  2  0
 28 23  1  0
 28 20  1  0
 29 31  2  0
 29 30  1  0
M  END
$$$$
