VKW.pdb
     RDKit          3D

 31 32  0  0  1  0  0  0  0  0999 V2000
    6.9888  -14.7216   18.8321 C   0  0  0  0  0  0  0  0  0  0  0  0
    7.5910  -13.5069   19.4962 C   0  0  2  0  0  0  0  0  0  0  0  0
    7.7123  -12.3327   18.5466 C   0  0  0  0  0  0  0  0  0  0  0  0
    8.9121  -13.8056   20.1754 C   0  0  2  0  0  0  0  0  0  0  0  0
    9.8585  -14.1720   19.1167 N   0  0  0  0  0  0  0  0  0  0  0  0
    8.8460  -14.9299   21.1164 C   0  0  0  0  0  0  0  0  0  0  0  0
    8.0661  -14.8809   22.1216 O   0  0  0  0  0  0  0  0  0  0  0  0
    9.5972  -16.1190   21.0119 N   0  0  0  0  0  0  0  0  0  0  0  0
    9.4816  -17.2324   21.9890 C   0  0  1  0  0  0  0  0  0  0  0  0
   10.3066  -18.3865   21.4667 C   0  0  0  0  0  0  0  0  0  0  0  0
    9.8553  -18.8059   20.1063 C   0  0  0  0  0  0  0  0  0  0  0  0
    8.6408  -19.7273   20.1798 C   0  0  0  0  0  0  0  0  0  0  0  0
    8.2429  -20.2443   18.8188 C   0  0  0  0  0  0  0  0  0  0  0  0
    9.0581  -21.4026   18.4476 N   0  0  0  0  0  0  0  0  0  0  0  0
   10.0067  -16.7935   23.2853 C   0  0  0  0  0  0  0  0  0  0  0  0
   10.9668  -15.9489   23.3077 O   0  0  0  0  0  0  0  0  0  0  0  0
    9.5374  -17.2199   24.5363 N   0  0  0  0  0  0  0  0  0  0  0  0
   10.0767  -16.7025   25.7877 C   0  0  1  0  0  0  0  0  0  0  0  0
    9.9765  -15.1789   25.7794 C   0  0  0  0  0  0  0  0  0  0  0  0
    8.5447  -14.8003   25.7452 C   0  0  0  0  0  0  0  0  0  0  0  0
    7.4586  -15.5955   25.4055 C   0  0  0  0  0  0  0  0  0  0  0  0
    6.3351  -14.8667   25.4989 N   0  0  0  0  0  0  0  0  0  0  0  0
    6.6479  -13.6235   25.8876 C   0  0  0  0  0  0  0  0  0  0  0  0
    5.8621  -12.5280   26.1206 C   0  0  0  0  0  0  0  0  0  0  0  0
    6.4186  -11.3154   26.5250 C   0  0  0  0  0  0  0  0  0  0  0  0
    7.7882  -11.2745   26.6773 C   0  0  0  0  0  0  0  0  0  0  0  0
    8.5864  -12.3782   26.4434 C   0  0  0  0  0  0  0  0  0  0  0  0
    8.0137  -13.5547   26.0476 C   0  0  0  0  0  0  0  0  0  0  0  0
    9.4539  -17.2746   26.9769 C   0  0  0  0  0  0  0  0  0  0  0  0
    8.4408  -18.1948   26.8977 O   0  0  0  0  0  0  0  0  0  0  0  0
    9.8274  -16.9415   28.1441 O   0  0  0  0  0  0  0  0  0  0  0  0
  2  1  1  6
  2  3  1  0
  4  2  1  0
  4  5  1  6
  6  4  1  0
  6  7  2  0
  8  6  1  0
  9  8  1  0
 10 11  1  0
  9 10  1  6
 12 13  1  0
 12 11  1  0
 13 14  1  0
 15 16  2  0
 15  9  1  0
 17 15  1  0
 18 17  1  0
 18 29  1  0
 18 19  1  6
 20 19  1  0
 20 21  2  0
 22 21  1  0
 23 22  1  0
 24 23  2  0
 25 24  1  0
 26 25  2  0
 26 27  1  0
 27 28  2  0
 28 23  1  0
 28 20  1  0
 29 31  2  0
 29 30  1  0
M  END
$$$$
