VKW.pdb
     RDKit          3D

 31 32  0  0  1  0  0  0  0  0999 V2000
    7.1617  -12.7785   20.4187 C   0  0  0  0  0  0  0  0  0  0  0  0
    8.5684  -13.0321   19.9329 C   0  0  2  0  0  0  0  0  0  0  0  0
    9.0518  -11.9557   18.9828 C   0  0  0  0  0  0  0  0  0  0  0  0
    8.7409  -14.4136   19.3349 C   0  0  2  0  0  0  0  0  0  0  0  0
    8.0123  -14.4175   18.0622 N   0  0  0  0  0  0  0  0  0  0  0  0
    8.1820  -15.4859   20.1664 C   0  0  0  0  0  0  0  0  0  0  0  0
    6.9281  -15.7077   20.1709 O   0  0  0  0  0  0  0  0  0  0  0  0
    8.9332  -16.3384   21.0019 N   0  0  0  0  0  0  0  0  0  0  0  0
    8.3110  -17.3917   21.8451 C   0  0  1  0  0  0  0  0  0  0  0  0
    8.8800  -18.7224   21.4084 C   0  0  0  0  0  0  0  0  0  0  0  0
    8.2469  -19.1951   20.1411 C   0  0  0  0  0  0  0  0  0  0  0  0
    8.8787  -20.4954   19.6519 C   0  0  0  0  0  0  0  0  0  0  0  0
    8.3483  -20.9055   18.2997 C   0  0  0  0  0  0  0  0  0  0  0  0
    8.9091  -22.1958   17.8944 N   0  0  0  0  0  0  0  0  0  0  0  0
    8.6465  -17.1456   23.2508 C   0  0  0  0  0  0  0  0  0  0  0  0
    7.6973  -17.0318   24.1004 O   0  0  0  0  0  0  0  0  0  0  0  0
    9.9458  -17.0268   23.7651 N   0  0  0  0  0  0  0  0  0  0  0  0
   10.2413  -16.2476   24.9610 C   0  0  1  0  0  0  0  0  0  0  0  0
    9.7334  -14.8215   24.7627 C   0  0  0  0  0  0  0  0  0  0  0  0
    8.3462  -14.7389   25.2760 C   0  0  0  0  0  0  0  0  0  0  0  0
    7.3886  -15.7432   25.3150 C   0  0  0  0  0  0  0  0  0  0  0  0
    6.2606  -15.2530   25.8530 N   0  0  0  0  0  0  0  0  0  0  0  0
    6.4466  -13.9642   26.1671 C   0  0  0  0  0  0  0  0  0  0  0  0
    5.6057  -13.0440   26.7310 C   0  0  0  0  0  0  0  0  0  0  0  0
    6.0250  -11.7358   26.9689 C   0  0  0  0  0  0  0  0  0  0  0  0
    7.3177  -11.4174   26.6109 C   0  0  0  0  0  0  0  0  0  0  0  0
    8.1711  -12.3431   26.0411 C   0  0  0  0  0  0  0  0  0  0  0  0
    7.7333  -13.6191   25.8193 C   0  0  0  0  0  0  0  0  0  0  0  0
    9.7197  -16.8369   26.1898 C   0  0  0  0  0  0  0  0  0  0  0  0
    8.8954  -17.9323   26.1799 O   0  0  0  0  0  0  0  0  0  0  0  0
   10.0098  -16.3560   27.3289 O   0  0  0  0  0  0  0  0  0  0  0  0
  2  1  1  6
  2  3  1  0
  4  2  1  0
  4  5  1  6
  6  4  1  0
  6  7  2  0
  8  6  1  0
  9  8  1  0
 10 11  1  0
  9 10  1  6
 12 13  1  0
 12 11  1  0
 13 14  1  0
 15 16  2  0
 15  9  1  0
 17 15  1  0
 18 17  1  0
 18 29  1  0
 18 19  1  6
 20 19  1  0
 20 21  2  0
 22 21  1  0
 23 22  1  0
 24 23  2  0
 25 24  1  0
 26 25  2  0
 26 27  1  0
 27 28  2  0
 28 23  1  0
 28 20  1  0
 29 31  2  0
 29 30  1  0
M  END
$$$$
