VKW.pdb
     RDKit          3D

 31 32  0  0  1  0  0  0  0  0999 V2000
    7.6756  -12.8310   20.7397 C   0  0  0  0  0  0  0  0  0  0  0  0
    8.5063  -13.5044   19.6740 C   0  0  2  0  0  0  0  0  0  0  0  0
    8.5376  -12.7125   18.3829 C   0  0  0  0  0  0  0  0  0  0  0  0
    8.0918  -14.9413   19.4297 C   0  0  2  0  0  0  0  0  0  0  0  0
    6.8305  -14.8964   18.6828 N   0  0  0  0  0  0  0  0  0  0  0  0
    7.8474  -15.6982   20.6630 C   0  0  0  0  0  0  0  0  0  0  0  0
    6.8291  -15.4412   21.3831 O   0  0  0  0  0  0  0  0  0  0  0  0
    8.6686  -16.7344   21.1538 N   0  0  0  0  0  0  0  0  0  0  0  0
    8.3860  -17.4524   22.4236 C   0  0  1  0  0  0  0  0  0  0  0  0
    8.6453  -18.9225   22.1851 C   0  0  0  0  0  0  0  0  0  0  0  0
    7.5983  -19.5239   21.3063 C   0  0  0  0  0  0  0  0  0  0  0  0
    7.8191  -21.0224   21.1189 C   0  0  0  0  0  0  0  0  0  0  0  0
    6.7386  -21.6494   20.2720 C   0  0  0  0  0  0  0  0  0  0  0  0
    6.9985  -23.0771   20.0768 N   0  0  0  0  0  0  0  0  0  0  0  0
    9.2829  -16.9535   23.4703 C   0  0  0  0  0  0  0  0  0  0  0  0
   10.4884  -16.6594   23.1605 O   0  0  0  0  0  0  0  0  0  0  0  0
    8.9308  -16.7575   24.8136 N   0  0  0  0  0  0  0  0  0  0  0  0
    9.9105  -16.3945   25.8300 C   0  0  1  0  0  0  0  0  0  0  0  0
    9.6796  -14.9439   26.2468 C   0  0  0  0  0  0  0  0  0  0  0  0
    8.2336  -14.6440   26.1310 C   0  0  0  0  0  0  0  0  0  0  0  0
    7.2007  -15.5210   25.8286 C   0  0  0  0  0  0  0  0  0  0  0  0
    6.0406  -14.8456   25.8184 N   0  0  0  0  0  0  0  0  0  0  0  0
    6.2781  -13.5585   26.1034 C   0  0  0  0  0  0  0  0  0  0  0  0
    5.4321  -12.4886   26.2103 C   0  0  0  0  0  0  0  0  0  0  0  0
    5.9137  -11.2178   26.5219 C   0  0  0  0  0  0  0  0  0  0  0  0
    7.2730  -11.0931   26.7153 C   0  0  0  0  0  0  0  0  0  0  0  0
    8.1319  -12.1706   26.6086 C   0  0  0  0  0  0  0  0  0  0  0  0
    7.6320  -13.4056   26.3019 C   0  0  0  0  0  0  0  0  0  0  0  0
    9.9197  -17.2889   26.9829 C   0  0  0  0  0  0  0  0  0  0  0  0
    9.0307  -18.3249   27.1086 O   0  0  0  0  0  0  0  0  0  0  0  0
   10.7584  -17.1441   27.9256 O   0  0  0  0  0  0  0  0  0  0  0  0
  2  1  1  1
  2  3  1  0
  4  2  1  0
  4  5  1  6
  6  4  1  0
  6  7  2  0
  8  6  1  0
  9  8  1  0
 10 11  1  0
  9 10  1  6
 12 13  1  0
 12 11  1  0
 13 14  1  0
 15 16  2  0
 15  9  1  0
 17 15  1  0
 18 17  1  0
 18 29  1  0
 18 19  1  1
 20 19  1  0
 20 21  2  0
 22 21  1  0
 23 22  1  0
 24 23  2  0
 25 24  1  0
 26 25  2  0
 26 27  1  0
 27 28  2  0
 28 23  1  0
 28 20  1  0
 29 31  2  0
 29 30  1  0
M  END
$$$$
