VKW.pdb
     RDKit          3D

 31 32  0  0  1  0  0  0  0  0999 V2000
    9.4821  -20.1678   22.7080 C   0  0  0  0  0  0  0  0  0  0  0  0
    8.0082  -20.1811   22.3819 C   0  0  2  0  0  0  0  0  0  0  0  0
    7.4107  -21.5702   22.4754 C   0  0  0  0  0  0  0  0  0  0  0  0
    7.6983  -19.5363   21.0461 C   0  0  2  0  0  0  0  0  0  0  0  0
    8.3163  -20.3783   20.0167 N   0  0  0  0  0  0  0  0  0  0  0  0
    8.2553  -18.1859   20.9043 C   0  0  0  0  0  0  0  0  0  0  0  0
    9.4728  -18.0256   20.5677 O   0  0  0  0  0  0  0  0  0  0  0  0
    7.5399  -16.9886   21.1130 N   0  0  0  0  0  0  0  0  0  0  0  0
    8.1889  -15.6519   21.1071 C   0  0  1  0  0  0  0  0  0  0  0  0
    7.1021  -14.6153   21.2793 C   0  0  0  0  0  0  0  0  0  0  0  0
    7.2769  -13.4804   20.3243 C   0  0  0  0  0  0  0  0  0  0  0  0
    7.7027  -13.9724   18.9437 C   0  0  0  0  0  0  0  0  0  0  0  0
    7.8490  -12.8360   17.9613 C   0  0  0  0  0  0  0  0  0  0  0  0
    9.1319  -12.1551   18.1464 N   0  0  0  0  0  0  0  0  0  0  0  0
    9.1348  -15.5696   22.2240 C   0  0  0  0  0  0  0  0  0  0  0  0
   10.2126  -14.8982   22.0710 O   0  0  0  0  0  0  0  0  0  0  0  0
    8.9602  -16.1691   23.4798 N   0  0  0  0  0  0  0  0  0  0  0  0
    9.9575  -16.0645   24.5377 C   0  0  1  0  0  0  0  0  0  0  0  0
    9.7755  -14.7327   25.2619 C   0  0  0  0  0  0  0  0  0  0  0  0
    8.3481  -14.5871   25.6304 C   0  0  0  0  0  0  0  0  0  0  0  0
    7.3603  -15.5625   25.6238 C   0  0  0  0  0  0  0  0  0  0  0  0
    6.2010  -15.0154   26.0225 N   0  0  0  0  0  0  0  0  0  0  0  0
    6.3957  -13.7173   26.2897 C   0  0  0  0  0  0  0  0  0  0  0  0
    5.5330  -12.7472   26.7214 C   0  0  0  0  0  0  0  0  0  0  0  0
    5.9678  -11.4398   26.9350 C   0  0  0  0  0  0  0  0  0  0  0  0
    7.2986  -11.1746   26.6916 C   0  0  0  0  0  0  0  0  0  0  0  0
    8.1742  -12.1509   26.2555 C   0  0  0  0  0  0  0  0  0  0  0  0
    7.7204  -13.4247   26.0545 C   0  0  0  0  0  0  0  0  0  0  0  0
    9.9458  -17.1876   25.4692 C   0  0  0  0  0  0  0  0  0  0  0  0
    9.0482  -18.2178   25.3573 O   0  0  0  0  0  0  0  0  0  0  0  0
   10.7733  -17.2585   26.4300 O   0  0  0  0  0  0  0  0  0  0  0  0
  2  1  1  6
  2  3  1  0
  4  2  1  0
  4  5  1  6
  6  4  1  0
  6  7  2  0
  8  6  1  0
  9  8  1  0
 10 11  1  0
  9 10  1  1
 12 13  1  0
 12 11  1  0
 13 14  1  0
 15 16  2  0
 15  9  1  0
 17 15  1  0
 18 17  1  0
 18 29  1  0
 18 19  1  1
 20 19  1  0
 20 21  2  0
 22 21  1  0
 23 22  1  0
 24 23  2  0
 25 24  1  0
 26 25  2  0
 26 27  1  0
 27 28  2  0
 28 23  1  0
 28 20  1  0
 29 31  2  0
 29 30  1  0
M  END
$$$$
