VKW.pdb
     RDKit          3D

 31 32  0  0  1  0  0  0  0  0999 V2000
    5.4773  -21.3031   23.8083 C   0  0  0  0  0  0  0  0  0  0  0  0
    6.4362  -20.1461   23.6644 C   0  0  2  0  0  0  0  0  0  0  0  0
    6.3499  -19.1791   24.8275 C   0  0  0  0  0  0  0  0  0  0  0  0
    6.2918  -19.4276   22.3381 C   0  0  2  0  0  0  0  0  0  0  0  0
    6.5021  -20.4304   21.2889 N   0  0  0  0  0  0  0  0  0  0  0  0
    7.2830  -18.3642   22.1370 C   0  0  0  0  0  0  0  0  0  0  0  0
    8.5200  -18.6496   22.0382 O   0  0  0  0  0  0  0  0  0  0  0  0
    6.9866  -16.9891   22.0360 N   0  0  0  0  0  0  0  0  0  0  0  0
    8.0384  -15.9446   21.9328 C   0  0  1  0  0  0  0  0  0  0  0  0
    7.4166  -14.7328   21.2767 C   0  0  0  0  0  0  0  0  0  0  0  0
    7.5055  -14.8147   19.7882 C   0  0  0  0  0  0  0  0  0  0  0  0
    7.6581  -13.4319   19.1605 C   0  0  0  0  0  0  0  0  0  0  0  0
    7.5997  -13.4879   17.6534 C   0  0  0  0  0  0  0  0  0  0  0  0
    7.7433  -12.1481   17.0808 N   0  0  0  0  0  0  0  0  0  0  0  0
    8.5059  -15.5958   23.2777 C   0  0  0  0  0  0  0  0  0  0  0  0
    7.7761  -14.8407   24.0077 O   0  0  0  0  0  0  0  0  0  0  0  0
    9.7077  -16.0298   23.8559 N   0  0  0  0  0  0  0  0  0  0  0  0
   10.1963  -15.5028   25.1240 C   0  0  1  0  0  0  0  0  0  0  0  0
    9.2691  -15.9664   26.2449 C   0  0  0  0  0  0  0  0  0  0  0  0
    8.0096  -15.1904   26.1667 C   0  0  0  0  0  0  0  0  0  0  0  0
    6.7464  -15.6453   25.8137 C   0  0  0  0  0  0  0  0  0  0  0  0
    5.8809  -14.6204   25.8647 N   0  0  0  0  0  0  0  0  0  0  0  0
    6.5332  -13.5117   26.2386 C   0  0  0  0  0  0  0  0  0  0  0  0
    6.0945  -12.2302   26.4312 C   0  0  0  0  0  0  0  0  0  0  0  0
    6.9708  -11.2209   26.8277 C   0  0  0  0  0  0  0  0  0  0  0  0
    8.2902  -11.5745   27.0146 C   0  0  0  0  0  0  0  0  0  0  0  0
    8.7384  -12.8675   26.8215 C   0  0  0  0  0  0  0  0  0  0  0  0
    7.8568  -13.8373   26.4326 C   0  0  0  0  0  0  0  0  0  0  0  0
   11.5877  -15.8419   25.4040 C   0  0  0  0  0  0  0  0  0  0  0  0
   12.3774  -16.4914   24.4908 O   0  0  0  0  0  0  0  0  0  0  0  0
   12.1297  -15.5470   26.5141 O   0  0  0  0  0  0  0  0  0  0  0  0
  2  1  1  1
  2  3  1  0
  4  2  1  0
  4  5  1  6
  6  4  1  0
  6  7  2  0
  8  6  1  0
  9  8  1  0
 10 11  1  0
  9 10  1  1
 12 13  1  0
 12 11  1  0
 13 14  1  0
 15 16  2  0
 15  9  1  0
 17 15  1  0
 18 17  1  0
 18 29  1  0
 18 19  1  1
 20 19  1  0
 20 21  2  0
 22 21  1  0
 23 22  1  0
 24 23  2  0
 25 24  1  0
 26 25  2  0
 26 27  1  0
 27 28  2  0
 28 23  1  0
 28 20  1  0
 29 31  2  0
 29 30  1  0
M  END
$$$$
