HWA.pdb
     RDKit          3D

 30 32  0  0  1  0  0  0  0  0999 V2000
    9.5463  -16.5249   20.3958 N   0  0  0  0  0  0  0  0  0  0  0  0
    9.0582  -17.3295   21.4715 C   0  0  1  0  0  0  0  0  0  0  0  0
    9.3183  -18.7934   21.3130 C   0  0  0  0  0  0  0  0  0  0  0  0
    9.1517  -19.2894   19.9528 C   0  0  0  0  0  0  0  0  0  0  0  0
    8.7546  -18.5900   18.8429 C   0  0  0  0  0  0  0  0  0  0  0  0
    8.7355  -19.4468   17.7852 N   0  0  0  0  0  0  0  0  0  0  0  0
    9.1111  -20.6320   18.2448 C   0  0  0  0  0  0  0  0  0  0  0  0
    9.3639  -20.5484   19.5474 N   0  0  0  0  0  0  0  0  0  0  0  0
    9.6297  -16.9246   22.7930 C   0  0  0  0  0  0  0  0  0  0  0  0
   10.7244  -16.3091   22.8225 O   0  0  0  0  0  0  0  0  0  0  0  0
    8.9688  -17.2183   23.9917 N   0  0  0  0  0  0  0  0  0  0  0  0
    9.4885  -16.8138   25.3050 C   0  0  1  0  0  0  0  0  0  0  0  0
    8.3393  -16.6764   26.2892 C   0  0  0  0  0  0  0  0  0  0  0  0
    7.4060  -15.6095   25.9185 C   0  0  0  0  0  0  0  0  0  0  0  0
    6.1815  -15.7233   25.2999 C   0  0  0  0  0  0  0  0  0  0  0  0
    5.6653  -14.4947   25.1504 N   0  0  0  0  0  0  0  0  0  0  0  0
    6.4958  -13.5582   25.6448 C   0  0  0  0  0  0  0  0  0  0  0  0
    6.4287  -12.1847   25.7309 C   0  0  0  0  0  0  0  0  0  0  0  0
    7.4863  -11.5245   26.3139 C   0  0  0  0  0  0  0  0  0  0  0  0
    8.5954  -12.1640   26.8094 C   0  0  0  0  0  0  0  0  0  0  0  0
    8.6144  -13.5525   26.6980 C   0  0  0  0  0  0  0  0  0  0  0  0
    7.5892  -14.2615   26.1269 C   0  0  0  0  0  0  0  0  0  0  0  0
   10.3375  -17.9360   25.7698 C   0  0  0  0  0  0  0  0  0  0  0  0
   10.1483  -19.0699   25.2716 O   0  0  0  0  0  0  0  0  0  0  0  0
   13.5547  -18.9076   26.7112 C   0  0  0  0  0  0  0  0  0  0  0  0
   12.1196  -18.9600   27.1916 C   0  0  2  0  0  0  0  0  0  0  0  0
   11.3538  -17.8039   26.7472 N   0  0  0  0  0  0  0  0  0  0  0  0
   12.0277  -19.1286   28.6640 C   0  0  0  0  0  0  0  0  0  0  0  0
   12.5886  -20.0951   29.2372 O   0  0  0  0  0  0  0  0  0  0  0  0
   11.3274  -18.2430   29.4875 O   0  0  0  0  0  0  0  0  0  0  0  0
  2  3  1  0
  2  1  1  6
  4  3  1  0
  4  8  1  0
  5  6  1  0
  5  4  2  0
  6  7  1  0
  7  8  2  0
  9  2  1  0
 10  9  2  0
 11  9  1  0
 12 11  1  0
 12 13  1  1
 13 14  1  0
 14 15  2  0
 15 16  1  0
 17 16  1  0
 18 17  2  0
 19 18  1  0
 20 21  1  0
 20 19  2  0
 21 22  2  0
 22 14  1  0
 22 17  1  0
 23 24  2  0
 23 12  1  0
 26 25  1  1
 26 27  1  0
 27 23  1  0
 28 26  1  0
 29 28  2  0
 30 28  1  0
M  END
$$$$
