HWA.pdb
     RDKit          3D

 30 32  0  0  1  0  0  0  0  0999 V2000
    9.9614  -18.0901   21.4339 N   0  0  0  0  0  0  0  0  0  0  0  0
   10.3267  -16.7104   21.3592 C   0  0  1  0  0  0  0  0  0  0  0  0
    9.6142  -15.9414   20.2929 C   0  0  0  0  0  0  0  0  0  0  0  0
    9.8752  -16.4104   18.9379 C   0  0  0  0  0  0  0  0  0  0  0  0
   10.6581  -17.4653   18.5468 C   0  0  0  0  0  0  0  0  0  0  0  0
   10.6187  -17.5427   17.1883 N   0  0  0  0  0  0  0  0  0  0  0  0
    9.8327  -16.5604   16.7707 C   0  0  0  0  0  0  0  0  0  0  0  0
    9.3802  -15.8733   17.8150 N   0  0  0  0  0  0  0  0  0  0  0  0
   10.0957  -15.9873   22.6479 C   0  0  0  0  0  0  0  0  0  0  0  0
   10.3108  -14.7508   22.7016 O   0  0  0  0  0  0  0  0  0  0  0  0
    9.6460  -16.6615   23.7895 N   0  0  0  0  0  0  0  0  0  0  0  0
    9.3779  -15.9776   25.0617 C   0  0  1  0  0  0  0  0  0  0  0  0
    8.0575  -16.4638   25.6350 C   0  0  0  0  0  0  0  0  0  0  0  0
    6.9660  -15.5104   25.4196 C   0  0  0  0  0  0  0  0  0  0  0  0
    5.7331  -15.7385   24.8513 C   0  0  0  0  0  0  0  0  0  0  0  0
    5.0453  -14.5873   24.8525 N   0  0  0  0  0  0  0  0  0  0  0  0
    5.7684  -13.5929   25.3999 C   0  0  0  0  0  0  0  0  0  0  0  0
    5.5192  -12.2573   25.6286 C   0  0  0  0  0  0  0  0  0  0  0  0
    6.5100  -11.5113   26.2251 C   0  0  0  0  0  0  0  0  0  0  0  0
    7.7245  -12.0302   26.5998 C   0  0  0  0  0  0  0  0  0  0  0  0
    7.9266  -13.3852   26.3467 C   0  0  0  0  0  0  0  0  0  0  0  0
    6.9752  -14.1758   25.7554 C   0  0  0  0  0  0  0  0  0  0  0  0
   10.4493  -16.4099   25.9898 C   0  0  0  0  0  0  0  0  0  0  0  0
   11.0969  -17.4449   25.7085 O   0  0  0  0  0  0  0  0  0  0  0  0
   11.7188  -15.4920   29.4481 C   0  0  0  0  0  0  0  0  0  0  0  0
   11.5744  -16.3674   28.2210 C   0  0  2  0  0  0  0  0  0  0  0  0
   10.7868  -15.7213   27.1805 N   0  0  0  0  0  0  0  0  0  0  0  0
   11.0280  -17.7082   28.5507 C   0  0  0  0  0  0  0  0  0  0  0  0
    9.8218  -17.9824   28.3341 O   0  0  0  0  0  0  0  0  0  0  0  0
   11.8032  -18.7274   29.1104 O   0  0  0  0  0  0  0  0  0  0  0  0
  2  3  1  0
  2  1  1  1
  4  3  1  0
  4  8  1  0
  5  6  1  0
  5  4  2  0
  6  7  1  0
  7  8  2  0
  9  2  1  0
 10  9  2  0
 11  9  1  0
 12 11  1  0
 12 13  1  1
 13 14  1  0
 14 15  2  0
 15 16  1  0
 17 16  1  0
 18 17  2  0
 19 18  1  0
 20 21  1  0
 20 19  2  0
 21 22  2  0
 22 14  1  0
 22 17  1  0
 23 24  2  0
 23 12  1  0
 26 25  1  1
 26 27  1  0
 27 23  1  0
 28 26  1  0
 29 28  2  0
 30 28  1  0
M  END
$$$$
