HWA.pdb
     RDKit          3D

 30 32  0  0  1  0  0  0  0  0999 V2000
   10.3566  -16.1437   20.7474 N   0  0  0  0  0  0  0  0  0  0  0  0
   10.5083  -17.0208   21.8656 C   0  0  1  0  0  0  0  0  0  0  0  0
   11.8152  -17.7463   21.9066 C   0  0  0  0  0  0  0  0  0  0  0  0
   12.0316  -18.6579   20.7904 C   0  0  0  0  0  0  0  0  0  0  0  0
   11.2512  -18.8272   19.6763 C   0  0  0  0  0  0  0  0  0  0  0  0
   11.8272  -19.7819   18.8954 N   0  0  0  0  0  0  0  0  0  0  0  0
   12.9261  -20.1783   19.5217 C   0  0  0  0  0  0  0  0  0  0  0  0
   13.0586  -19.5085   20.6624 N   0  0  0  0  0  0  0  0  0  0  0  0
   10.3615  -16.3104   23.1734 C   0  0  0  0  0  0  0  0  0  0  0  0
   10.7784  -15.1299   23.2775 O   0  0  0  0  0  0  0  0  0  0  0  0
    9.7704  -16.9351   24.2781 N   0  0  0  0  0  0  0  0  0  0  0  0
    9.4820  -16.2255   25.5317 C   0  0  1  0  0  0  0  0  0  0  0  0
    8.0678  -16.5448   25.9861 C   0  0  0  0  0  0  0  0  0  0  0  0
    7.0889  -15.5655   25.5074 C   0  0  0  0  0  0  0  0  0  0  0  0
    6.0213  -15.7687   24.6623 C   0  0  0  0  0  0  0  0  0  0  0  0
    5.3884  -14.5992   24.4888 N   0  0  0  0  0  0  0  0  0  0  0  0
    5.9893  -13.6166   25.1850 C   0  0  0  0  0  0  0  0  0  0  0  0
    5.7330  -12.2712   25.3360 C   0  0  0  0  0  0  0  0  0  0  0  0
    6.5745  -11.5434   26.1461 C   0  0  0  0  0  0  0  0  0  0  0  0
    7.6479  -12.0894   26.8051 C   0  0  0  0  0  0  0  0  0  0  0  0
    7.8636  -13.4532   26.6193 C   0  0  0  0  0  0  0  0  0  0  0  0
    7.0578  -14.2266   25.8242 C   0  0  0  0  0  0  0  0  0  0  0  0
   10.4091  -16.7894   26.5410 C   0  0  0  0  0  0  0  0  0  0  0  0
   10.9006  -17.9222   26.3288 O   0  0  0  0  0  0  0  0  0  0  0  0
   11.5527  -16.0078   30.0693 C   0  0  0  0  0  0  0  0  0  0  0  0
   11.4903  -16.8218   28.7939 C   0  0  2  0  0  0  0  0  0  0  0  0
   10.7746  -16.1228   27.7359 N   0  0  0  0  0  0  0  0  0  0  0  0
   10.9222  -18.1749   29.0205 C   0  0  0  0  0  0  0  0  0  0  0  0
   11.6574  -19.1311   29.3702 O   0  0  0  0  0  0  0  0  0  0  0  0
    9.5642  -18.4645   28.8626 O   0  0  0  0  0  0  0  0  0  0  0  0
  2  3  1  0
  2  1  1  6
  4  3  1  0
  4  8  1  0
  5  6  1  0
  5  4  2  0
  6  7  1  0
  7  8  2  0
  9  2  1  0
 10  9  2  0
 11  9  1  0
 12 11  1  0
 12 13  1  1
 13 14  1  0
 14 15  2  0
 15 16  1  0
 17 16  1  0
 18 17  2  0
 19 18  1  0
 20 21  1  0
 20 19  2  0
 21 22  2  0
 22 14  1  0
 22 17  1  0
 23 24  2  0
 23 12  1  0
 26 25  1  1
 26 27  1  0
 27 23  1  0
 28 26  1  0
 29 28  2  0
 30 28  1  0
M  END
$$$$
