HWA.pdb
     RDKit          3D

 30 32  0  0  1  0  0  0  0  0999 V2000
   10.7668  -16.6615   19.9985 N   0  0  0  0  0  0  0  0  0  0  0  0
    9.9470  -17.4269   20.8843 C   0  0  1  0  0  0  0  0  0  0  0  0
   10.1384  -18.9060   20.7773 C   0  0  0  0  0  0  0  0  0  0  0  0
    9.7893  -19.4645   19.4772 C   0  0  0  0  0  0  0  0  0  0  0  0
    8.9263  -18.9523   18.5436 C   0  0  0  0  0  0  0  0  0  0  0  0
    8.9007  -19.7999   17.4787 N   0  0  0  0  0  0  0  0  0  0  0  0
    9.7265  -20.7972   17.7623 C   0  0  0  0  0  0  0  0  0  0  0  0
   10.2663  -20.6053   18.9620 N   0  0  0  0  0  0  0  0  0  0  0  0
   10.1593  -17.0613   22.3189 C   0  0  0  0  0  0  0  0  0  0  0  0
   11.2806  -16.6235   22.6782 O   0  0  0  0  0  0  0  0  0  0  0  0
    9.1350  -17.1980   23.2634 N   0  0  0  0  0  0  0  0  0  0  0  0
    9.2756  -16.7553   24.6572 C   0  0  1  0  0  0  0  0  0  0  0  0
    7.9006  -16.5853   25.2806 C   0  0  0  0  0  0  0  0  0  0  0  0
    7.2627  -15.3225   24.8995 C   0  0  0  0  0  0  0  0  0  0  0  0
    6.4459  -15.0703   23.8204 C   0  0  0  0  0  0  0  0  0  0  0  0
    6.0848  -13.7792   23.8537 N   0  0  0  0  0  0  0  0  0  0  0  0
    6.6274  -13.1528   24.9141 C   0  0  0  0  0  0  0  0  0  0  0  0
    6.5645  -11.8585   25.3824 C   0  0  0  0  0  0  0  0  0  0  0  0
    7.2626  -11.5549   26.5289 C   0  0  0  0  0  0  0  0  0  0  0  0
    8.0122  -12.4724   27.2223 C   0  0  0  0  0  0  0  0  0  0  0  0
    8.0432  -13.7666   26.7075 C   0  0  0  0  0  0  0  0  0  0  0  0
    7.3673  -14.1250   25.5697 C   0  0  0  0  0  0  0  0  0  0  0  0
    9.9508  -17.8651   25.3704 C   0  0  0  0  0  0  0  0  0  0  0  0
   10.0146  -18.9820   24.8063 O   0  0  0  0  0  0  0  0  0  0  0  0
   12.6508  -18.9578   26.3696 C   0  0  0  0  0  0  0  0  0  0  0  0
   11.3928  -18.7822   27.1939 C   0  0  2  0  0  0  0  0  0  0  0  0
   10.5304  -17.7392   26.6565 N   0  0  0  0  0  0  0  0  0  0  0  0
   11.6922  -18.5423   28.6285 C   0  0  0  0  0  0  0  0  0  0  0  0
   11.2735  -17.5105   29.2093 O   0  0  0  0  0  0  0  0  0  0  0  0
   12.4419  -19.4287   29.4063 O   0  0  0  0  0  0  0  0  0  0  0  0
  2  3  1  0
  2  1  1  6
  4  3  1  0
  4  8  1  0
  5  6  1  0
  5  4  2  0
  6  7  1  0
  7  8  2  0
  9  2  1  0
 10  9  2  0
 11  9  1  0
 12 11  1  0
 12 13  1  1
 13 14  1  0
 14 15  2  0
 15 16  1  0
 17 16  1  0
 18 17  2  0
 19 18  1  0
 20 21  1  0
 20 19  2  0
 21 22  2  0
 22 14  1  0
 22 17  1  0
 23 24  2  0
 23 12  1  0
 26 25  1  6
 26 27  1  0
 27 23  1  0
 28 26  1  0
 29 28  2  0
 30 28  1  0
M  END
$$$$
