HWA.pdb
     RDKit          3D

 30 32  0  0  1  0  0  0  0  0999 V2000
   11.6301  -15.6345   21.0710 N   0  0  0  0  0  0  0  0  0  0  0  0
   10.5132  -16.2687   21.6978 C   0  0  1  0  0  0  0  0  0  0  0  0
   10.3749  -17.7240   21.3833 C   0  0  0  0  0  0  0  0  0  0  0  0
    9.9138  -18.0049   20.0296 C   0  0  0  0  0  0  0  0  0  0  0  0
    9.4201  -17.1203   19.1063 C   0  0  0  0  0  0  0  0  0  0  0  0
    9.1107  -17.8140   17.9766 N   0  0  0  0  0  0  0  0  0  0  0  0
    9.4098  -19.0837   18.2120 C   0  0  0  0  0  0  0  0  0  0  0  0
    9.8936  -19.2095   19.4439 N   0  0  0  0  0  0  0  0  0  0  0  0
   10.5478  -16.1450   23.1879 C   0  0  0  0  0  0  0  0  0  0  0  0
   11.5742  -15.6741   23.7381 O   0  0  0  0  0  0  0  0  0  0  0  0
    9.4612  -16.5427   23.9760 N   0  0  0  0  0  0  0  0  0  0  0  0
    9.4131  -16.3285   25.4286 C   0  0  1  0  0  0  0  0  0  0  0  0
    7.9667  -16.2948   25.8926 C   0  0  0  0  0  0  0  0  0  0  0  0
    7.2346  -15.1394   25.3675 C   0  0  0  0  0  0  0  0  0  0  0  0
    6.4489  -15.0674   24.2394 C   0  0  0  0  0  0  0  0  0  0  0  0
    5.9704  -13.8191   24.1340 N   0  0  0  0  0  0  0  0  0  0  0  0
    6.4041  -13.0481   25.1482 C   0  0  0  0  0  0  0  0  0  0  0  0
    6.2019  -11.7278   25.4863 C   0  0  0  0  0  0  0  0  0  0  0  0
    6.8157  -11.2539   26.6232 C   0  0  0  0  0  0  0  0  0  0  0  0
    7.6131  -12.0274   27.4296 C   0  0  0  0  0  0  0  0  0  0  0  0
    7.7857  -13.3550   27.0441 C   0  0  0  0  0  0  0  0  0  0  0  0
    7.1986  -13.8803   25.9220 C   0  0  0  0  0  0  0  0  0  0  0  0
   10.0453  -17.5227   26.0372 C   0  0  0  0  0  0  0  0  0  0  0  0
    9.7336  -17.8261   27.2121 O   0  0  0  0  0  0  0  0  0  0  0  0
   12.1874  -20.4616   24.9985 C   0  0  0  0  0  0  0  0  0  0  0  0
   11.5052  -19.5508   25.9975 C   0  0  2  0  0  0  0  0  0  0  0  0
   10.9847  -18.3450   25.3685 N   0  0  0  0  0  0  0  0  0  0  0  0
   12.3870  -19.2176   27.1449 C   0  0  0  0  0  0  0  0  0  0  0  0
   12.9133  -20.1243   27.8363 O   0  0  0  0  0  0  0  0  0  0  0  0
   12.6810  -17.9040   27.5203 O   0  0  0  0  0  0  0  0  0  0  0  0
  2  3  1  0
  2  1  1  6
  4  3  1  0
  4  8  1  0
  5  6  1  0
  5  4  2  0
  6  7  1  0
  7  8  2  0
  9  2  1  0
 10  9  2  0
 11  9  1  0
 12 11  1  0
 12 13  1  1
 13 14  1  0
 14 15  2  0
 15 16  1  0
 17 16  1  0
 18 17  2  0
 19 18  1  0
 20 21  1  0
 20 19  2  0
 21 22  2  0
 22 14  1  0
 22 17  1  0
 23 24  2  0
 23 12  1  0
 26 25  1  6
 26 27  1  0
 27 23  1  0
 28 26  1  0
 29 28  2  0
 30 28  1  0
M  END
$$$$
