HWA.pdb
     RDKit          3D

 30 32  0  0  1  0  0  0  0  0999 V2000
    9.9785  -15.6007   20.1758 N   0  0  0  0  0  0  0  0  0  0  0  0
   10.1004  -16.7313   21.0415 C   0  0  1  0  0  0  0  0  0  0  0  0
   11.2541  -17.6283   20.7245 C   0  0  0  0  0  0  0  0  0  0  0  0
   11.2247  -18.1930   19.3813 C   0  0  0  0  0  0  0  0  0  0  0  0
   10.4963  -19.2639   18.9325 C   0  0  0  0  0  0  0  0  0  0  0  0
   10.7746  -19.4434   17.6121 N   0  0  0  0  0  0  0  0  0  0  0  0
   11.6479  -18.5056   17.2731 C   0  0  0  0  0  0  0  0  0  0  0  0
   11.9254  -17.7481   18.3299 N   0  0  0  0  0  0  0  0  0  0  0  0
   10.2337  -16.3391   22.4786 C   0  0  0  0  0  0  0  0  0  0  0  0
   11.0595  -15.4467   22.7942 O   0  0  0  0  0  0  0  0  0  0  0  0
    9.4577  -16.9464   23.4730 N   0  0  0  0  0  0  0  0  0  0  0  0
    9.4670  -16.4983   24.8721 C   0  0  1  0  0  0  0  0  0  0  0  0
    8.0414  -16.4100   25.3900 C   0  0  0  0  0  0  0  0  0  0  0  0
    7.3765  -15.1651   24.9966 C   0  0  0  0  0  0  0  0  0  0  0  0
    6.6090  -14.9233   23.8796 C   0  0  0  0  0  0  0  0  0  0  0  0
    6.1971  -13.6476   23.9153 N   0  0  0  0  0  0  0  0  0  0  0  0
    6.6581  -13.0215   25.0138 C   0  0  0  0  0  0  0  0  0  0  0  0
    6.5206  -11.7395   25.4998 C   0  0  0  0  0  0  0  0  0  0  0  0
    7.1446  -11.4317   26.6871 C   0  0  0  0  0  0  0  0  0  0  0  0
    7.8913  -12.3333   27.4042 C   0  0  0  0  0  0  0  0  0  0  0  0
    7.9993  -13.6155   26.8700 C   0  0  0  0  0  0  0  0  0  0  0  0
    7.3992  -13.9774   25.6916 C   0  0  0  0  0  0  0  0  0  0  0  0
   10.1504  -17.5677   25.6373 C   0  0  0  0  0  0  0  0  0  0  0  0
    9.7727  -18.7508   25.4716 O   0  0  0  0  0  0  0  0  0  0  0  0
   13.1421  -18.0650   27.8861 C   0  0  0  0  0  0  0  0  0  0  0  0
   11.7793  -18.4207   27.3299 C   0  0  2  0  0  0  0  0  0  0  0  0
   11.2088  -17.3325   26.5485 N   0  0  0  0  0  0  0  0  0  0  0  0
   10.8407  -18.8671   28.3905 C   0  0  0  0  0  0  0  0  0  0  0  0
   11.1127  -19.8553   29.1161 O   0  0  0  0  0  0  0  0  0  0  0  0
    9.6224  -18.2308   28.6432 O   0  0  0  0  0  0  0  0  0  0  0  0
  2  3  1  0
  2  1  1  6
  4  3  1  0
  4  8  1  0
  5  6  1  0
  5  4  2  0
  6  7  1  0
  7  8  2  0
  9  2  1  0
 10  9  2  0
 11  9  1  0
 12 11  1  0
 12 13  1  1
 13 14  1  0
 14 15  2  0
 15 16  1  0
 17 16  1  0
 18 17  2  0
 19 18  1  0
 20 21  1  0
 20 19  2  0
 21 22  2  0
 22 14  1  0
 22 17  1  0
 23 24  2  0
 23 12  1  0
 26 25  1  1
 26 27  1  0
 27 23  1  0
 28 26  1  0
 29 28  2  0
 30 28  1  0
M  END
$$$$
