HWA.pdb
     RDKit          3D

 30 32  0  0  1  0  0  0  0  0999 V2000
    7.8571  -15.0184   19.7310 N   0  0  0  0  0  0  0  0  0  0  0  0
    8.0645  -16.1181   20.6201 C   0  0  1  0  0  0  0  0  0  0  0  0
    8.7034  -17.3116   19.9851 C   0  0  0  0  0  0  0  0  0  0  0  0
    7.9506  -17.8748   18.8715 C   0  0  0  0  0  0  0  0  0  0  0  0
    6.9502  -17.2832   18.1450 C   0  0  0  0  0  0  0  0  0  0  0  0
    6.5288  -18.1698   17.2019 N   0  0  0  0  0  0  0  0  0  0  0  0
    7.2558  -19.2675   17.3553 C   0  0  0  0  0  0  0  0  0  0  0  0
    8.1141  -19.1007   18.3568 N   0  0  0  0  0  0  0  0  0  0  0  0
    8.9054  -15.7482   21.8003 C   0  0  0  0  0  0  0  0  0  0  0  0
    9.7942  -14.8705   21.6661 O   0  0  0  0  0  0  0  0  0  0  0  0
    8.7201  -16.3602   23.0457 N   0  0  0  0  0  0  0  0  0  0  0  0
    9.4853  -15.9782   24.2401 C   0  0  1  0  0  0  0  0  0  0  0  0
    8.6260  -16.1650   25.4791 C   0  0  0  0  0  0  0  0  0  0  0  0
    7.5005  -15.2284   25.5291 C   0  0  0  0  0  0  0  0  0  0  0  0
    6.1681  -15.4817   25.2928 C   0  0  0  0  0  0  0  0  0  0  0  0
    5.4845  -14.3384   25.4476 N   0  0  0  0  0  0  0  0  0  0  0  0
    6.3060  -13.3252   25.7790 C   0  0  0  0  0  0  0  0  0  0  0  0
    6.1010  -11.9881   26.0408 C   0  0  0  0  0  0  0  0  0  0  0  0
    7.1979  -11.2193   26.3565 C   0  0  0  0  0  0  0  0  0  0  0  0
    8.4757  -11.7169   26.4224 C   0  0  0  0  0  0  0  0  0  0  0  0
    8.6292  -13.0744   26.1493 C   0  0  0  0  0  0  0  0  0  0  0  0
    7.5725  -13.8873   25.8295 C   0  0  0  0  0  0  0  0  0  0  0  0
   10.6072  -16.9423   24.3301 C   0  0  0  0  0  0  0  0  0  0  0  0
   10.3580  -18.1600   24.1725 O   0  0  0  0  0  0  0  0  0  0  0  0
   14.3172  -17.0014   24.0650 C   0  0  0  0  0  0  0  0  0  0  0  0
   13.0138  -17.5628   24.5931 C   0  0  2  0  0  0  0  0  0  0  0  0
   11.9495  -16.5691   24.5848 N   0  0  0  0  0  0  0  0  0  0  0  0
   13.1697  -18.1683   25.9400 C   0  0  0  0  0  0  0  0  0  0  0  0
   14.0505  -19.0368   26.1569 O   0  0  0  0  0  0  0  0  0  0  0  0
   12.3649  -17.8186   27.0276 O   0  0  0  0  0  0  0  0  0  0  0  0
  2  3  1  0
  2  1  1  6
  4  3  1  0
  4  8  1  0
  5  6  1  0
  5  4  2  0
  6  7  1  0
  7  8  2  0
  9  2  1  0
 10  9  2  0
 11  9  1  0
 12 11  1  0
 12 13  1  1
 13 14  1  0
 14 15  2  0
 15 16  1  0
 17 16  1  0
 18 17  2  0
 19 18  1  0
 20 21  1  0
 20 19  2  0
 21 22  2  0
 22 14  1  0
 22 17  1  0
 23 24  2  0
 23 12  1  0
 26 25  1  1
 26 27  1  0
 27 23  1  0
 28 26  1  0
 29 28  2  0
 30 28  1  0
M  END
$$$$
