HWA.pdb
     RDKit          3D

 30 32  0  0  1  0  0  0  0  0999 V2000
   10.1911  -18.2314   21.4729 N   0  0  0  0  0  0  0  0  0  0  0  0
   10.6303  -16.8738   21.3921 C   0  0  1  0  0  0  0  0  0  0  0  0
   10.1399  -16.1385   20.1860 C   0  0  0  0  0  0  0  0  0  0  0  0
   10.5681  -16.7129   18.9169 C   0  0  0  0  0  0  0  0  0  0  0  0
   11.3432  -17.8248   18.7133 C   0  0  0  0  0  0  0  0  0  0  0  0
   11.4955  -17.9967   17.3715 N   0  0  0  0  0  0  0  0  0  0  0  0
   10.8297  -17.0142   16.7810 C   0  0  0  0  0  0  0  0  0  0  0  0
   10.2682  -16.2364   17.7014 N   0  0  0  0  0  0  0  0  0  0  0  0
   10.2273  -16.0705   22.5876 C   0  0  0  0  0  0  0  0  0  0  0  0
   10.4497  -14.8341   22.5961 O   0  0  0  0  0  0  0  0  0  0  0  0
    9.6094  -16.6697   23.6917 N   0  0  0  0  0  0  0  0  0  0  0  0
    9.2423  -15.9197   24.9004 C   0  0  1  0  0  0  0  0  0  0  0  0
    7.9457  -16.4705   25.4695 C   0  0  0  0  0  0  0  0  0  0  0  0
    6.8603  -15.4866   25.4500 C   0  0  0  0  0  0  0  0  0  0  0  0
    5.5503  -15.6682   25.0679 C   0  0  0  0  0  0  0  0  0  0  0  0
    4.9017  -14.5028   25.2072 N   0  0  0  0  0  0  0  0  0  0  0  0
    5.7253  -13.5435   25.6686 C   0  0  0  0  0  0  0  0  0  0  0  0
    5.5493  -12.2111   25.9721 C   0  0  0  0  0  0  0  0  0  0  0  0
    6.6382  -11.5077   26.4341 C   0  0  0  0  0  0  0  0  0  0  0  0
    7.8808  -12.0655   26.6054 C   0  0  0  0  0  0  0  0  0  0  0  0
    8.0061  -13.4154   26.2844 C   0  0  0  0  0  0  0  0  0  0  0  0
    6.9557  -14.1645   25.8203 C   0  0  0  0  0  0  0  0  0  0  0  0
   10.3113  -16.1933   25.8895 C   0  0  0  0  0  0  0  0  0  0  0  0
   11.1774  -17.0530   25.6055 O   0  0  0  0  0  0  0  0  0  0  0  0
   11.5037  -14.9563   29.2711 C   0  0  0  0  0  0  0  0  0  0  0  0
   11.4453  -15.9131   28.0989 C   0  0  2  0  0  0  0  0  0  0  0  0
   10.4136  -15.5394   27.1416 N   0  0  0  0  0  0  0  0  0  0  0  0
   11.2850  -17.3236   28.5348 C   0  0  0  0  0  0  0  0  0  0  0  0
   12.1717  -17.8897   29.2206 O   0  0  0  0  0  0  0  0  0  0  0  0
   10.1630  -18.0937   28.2170 O   0  0  0  0  0  0  0  0  0  0  0  0
  2  3  1  0
  2  1  1  1
  4  3  1  0
  4  8  1  0
  5  6  1  0
  5  4  2  0
  6  7  1  0
  7  8  2  0
  9  2  1  0
 10  9  2  0
 11  9  1  0
 12 11  1  0
 12 13  1  1
 13 14  1  0
 14 15  2  0
 15 16  1  0
 17 16  1  0
 18 17  2  0
 19 18  1  0
 20 21  1  0
 20 19  2  0
 21 22  2  0
 22 14  1  0
 22 17  1  0
 23 24  2  0
 23 12  1  0
 26 25  1  1
 26 27  1  0
 27 23  1  0
 28 26  1  0
 29 28  2  0
 30 28  1  0
M  END
$$$$
