HWA.pdb
     RDKit          3D

 30 32  0  0  1  0  0  0  0  0999 V2000
    9.6433  -16.6803   18.4947 N   0  0  0  0  0  0  0  0  0  0  0  0
    8.6047  -16.7600   19.4733 C   0  0  1  0  0  0  0  0  0  0  0  0
    7.9931  -18.1173   19.6133 C   0  0  0  0  0  0  0  0  0  0  0  0
    7.2500  -18.5651   18.4424 C   0  0  0  0  0  0  0  0  0  0  0  0
    7.0988  -17.9205   17.2422 C   0  0  0  0  0  0  0  0  0  0  0  0
    6.3260  -18.6991   16.4363 N   0  0  0  0  0  0  0  0  0  0  0  0
    6.0190  -19.7850   17.1317 C   0  0  0  0  0  0  0  0  0  0  0  0
    6.5697  -19.7145   18.3397 N   0  0  0  0  0  0  0  0  0  0  0  0
    9.0685  -16.3470   20.8339 C   0  0  0  0  0  0  0  0  0  0  0  0
   10.2846  -16.4639   21.1264 O   0  0  0  0  0  0  0  0  0  0  0  0
    8.1750  -15.8350   21.7823 N   0  0  0  0  0  0  0  0  0  0  0  0
    8.6006  -15.3936   23.1174 C   0  0  1  0  0  0  0  0  0  0  0  0
    7.5066  -14.5500   23.7496 C   0  0  0  0  0  0  0  0  0  0  0  0
    7.7833  -14.2300   25.1524 C   0  0  0  0  0  0  0  0  0  0  0  0
    8.5910  -14.9059   26.0388 C   0  0  0  0  0  0  0  0  0  0  0  0
    8.5564  -14.2668   27.2173 N   0  0  0  0  0  0  0  0  0  0  0  0
    7.7560  -13.1865   27.1578 C   0  0  0  0  0  0  0  0  0  0  0  0
    7.3947  -12.2251   28.0764 C   0  0  0  0  0  0  0  0  0  0  0  0
    6.5319  -11.2350   27.6651 C   0  0  0  0  0  0  0  0  0  0  0  0
    6.0184  -11.1602   26.3941 C   0  0  0  0  0  0  0  0  0  0  0  0
    6.4146  -12.1559   25.5038 C   0  0  0  0  0  0  0  0  0  0  0  0
    7.2713  -13.1657   25.8589 C   0  0  0  0  0  0  0  0  0  0  0  0
    8.7346  -16.6258   23.9298 C   0  0  0  0  0  0  0  0  0  0  0  0
    7.8514  -17.5078   23.8211 O   0  0  0  0  0  0  0  0  0  0  0  0
   10.7452  -18.7870   23.6029 C   0  0  0  0  0  0  0  0  0  0  0  0
   10.3903  -18.1949   24.9507 C   0  0  2  0  0  0  0  0  0  0  0  0
    9.8047  -16.8676   24.8254 N   0  0  0  0  0  0  0  0  0  0  0  0
   11.5487  -18.1829   25.8797 C   0  0  0  0  0  0  0  0  0  0  0  0
   11.5067  -18.8074   26.9685 O   0  0  0  0  0  0  0  0  0  0  0  0
   12.7327  -17.4919   25.6082 O   0  0  0  0  0  0  0  0  0  0  0  0
  2  3  1  0
  2  1  1  6
  4  3  1  0
  4  8  1  0
  5  6  1  0
  5  4  2  0
  6  7  1  0
  7  8  2  0
  9  2  1  0
 10  9  2  0
 11  9  1  0
 12 11  1  0
 12 13  1  1
 13 14  1  0
 14 15  2  0
 15 16  1  0
 17 16  1  0
 18 17  2  0
 19 18  1  0
 20 21  1  0
 20 19  2  0
 21 22  2  0
 22 14  1  0
 22 17  1  0
 23 24  2  0
 23 12  1  0
 26 25  1  6
 26 27  1  0
 27 23  1  0
 28 26  1  0
 29 28  2  0
 30 28  1  0
M  END
$$$$
