HWA.pdb
     RDKit          3D

 30 32  0  0  1  0  0  0  0  0999 V2000
   10.4105  -13.2888   20.1961 N   0  0  0  0  0  0  0  0  0  0  0  0
    9.3375  -14.0864   20.7011 C   0  0  1  0  0  0  0  0  0  0  0  0
    8.8844  -15.1680   19.7734 C   0  0  0  0  0  0  0  0  0  0  0  0
    8.4940  -14.6997   18.4497 C   0  0  0  0  0  0  0  0  0  0  0  0
    8.2202  -13.4155   18.0564 C   0  0  0  0  0  0  0  0  0  0  0  0
    7.8966  -13.4361   16.7342 N   0  0  0  0  0  0  0  0  0  0  0  0
    7.9731  -14.6994   16.3402 C   0  0  0  0  0  0  0  0  0  0  0  0
    8.3317  -15.4677   17.3642 N   0  0  0  0  0  0  0  0  0  0  0  0
    9.6750  -14.7403   22.0032 C   0  0  0  0  0  0  0  0  0  0  0  0
   10.8783  -14.9803   22.2725 O   0  0  0  0  0  0  0  0  0  0  0  0
    8.6779  -15.0878   22.9224 N   0  0  0  0  0  0  0  0  0  0  0  0
    8.9773  -15.6813   24.2325 C   0  0  1  0  0  0  0  0  0  0  0  0
    7.6955  -16.1956   24.8656 C   0  0  0  0  0  0  0  0  0  0  0  0
    6.8901  -15.1231   25.4552 C   0  0  0  0  0  0  0  0  0  0  0  0
    5.6177  -15.1984   25.9753 C   0  0  0  0  0  0  0  0  0  0  0  0
    5.2630  -13.9798   26.4082 N   0  0  0  0  0  0  0  0  0  0  0  0
    6.2481  -13.0870   26.1993 C   0  0  0  0  0  0  0  0  0  0  0  0
    6.3745  -11.7397   26.4586 C   0  0  0  0  0  0  0  0  0  0  0  0
    7.5531  -11.1243   26.1033 C   0  0  0  0  0  0  0  0  0  0  0  0
    8.5998  -11.7833   25.5079 C   0  0  0  0  0  0  0  0  0  0  0  0
    8.4219  -13.1439   25.2673 C   0  0  0  0  0  0  0  0  0  0  0  0
    7.2696  -13.8082   25.6002 C   0  0  0  0  0  0  0  0  0  0  0  0
    9.8385  -16.8561   23.9597 C   0  0  0  0  0  0  0  0  0  0  0  0
    9.2861  -17.9456   23.6813 O   0  0  0  0  0  0  0  0  0  0  0  0
   13.4117  -17.7632   23.2734 C   0  0  0  0  0  0  0  0  0  0  0  0
   12.0360  -18.0405   23.8424 C   0  0  2  0  0  0  0  0  0  0  0  0
   11.2539  -16.8218   23.9951 N   0  0  0  0  0  0  0  0  0  0  0  0
   12.0998  -18.7986   25.1177 C   0  0  0  0  0  0  0  0  0  0  0  0
   12.7139  -19.8919   25.1861 O   0  0  0  0  0  0  0  0  0  0  0  0
   11.4945  -18.3542   26.2962 O   0  0  0  0  0  0  0  0  0  0  0  0
  2  3  1  0
  2  1  1  6
  4  3  1  0
  4  8  1  0
  5  6  1  0
  5  4  2  0
  6  7  1  0
  7  8  2  0
  9  2  1  0
 10  9  2  0
 11  9  1  0
 12 11  1  0
 12 13  1  6
 13 14  1  0
 14 15  2  0
 15 16  1  0
 17 16  1  0
 18 17  2  0
 19 18  1  0
 20 21  1  0
 20 19  2  0
 21 22  2  0
 22 14  1  0
 22 17  1  0
 23 24  2  0
 23 12  1  0
 26 25  1  1
 26 27  1  0
 27 23  1  0
 28 26  1  0
 29 28  2  0
 30 28  1  0
M  END
$$$$
