HWA.pdb
     RDKit          3D

 30 32  0  0  1  0  0  0  0  0999 V2000
    8.4310  -16.6831   21.5337 N   0  0  0  0  0  0  0  0  0  0  0  0
    9.4720  -15.7274   21.7472 C   0  0  1  0  0  0  0  0  0  0  0  0
    9.1514  -14.3491   21.2641 C   0  0  0  0  0  0  0  0  0  0  0  0
    8.6276  -14.2955   19.9051 C   0  0  0  0  0  0  0  0  0  0  0  0
    8.4540  -15.3333   19.0267 C   0  0  0  0  0  0  0  0  0  0  0  0
    7.9393  -14.8302   17.8713 N   0  0  0  0  0  0  0  0  0  0  0  0
    7.8058  -13.5233   18.0478 C   0  0  0  0  0  0  0  0  0  0  0  0
    8.2169  -13.1912   19.2677 N   0  0  0  0  0  0  0  0  0  0  0  0
    9.8514  -15.6079   23.1890 C   0  0  0  0  0  0  0  0  0  0  0  0
   10.6733  -14.7223   23.5330 O   0  0  0  0  0  0  0  0  0  0  0  0
    9.3089  -16.4617   24.1568 N   0  0  0  0  0  0  0  0  0  0  0  0
    9.6940  -16.4029   25.5733 C   0  0  1  0  0  0  0  0  0  0  0  0
    8.4510  -16.4728   26.4442 C   0  0  0  0  0  0  0  0  0  0  0  0
    7.4266  -15.5063   26.0405 C   0  0  0  0  0  0  0  0  0  0  0  0
    6.2837  -15.7303   25.3065 C   0  0  0  0  0  0  0  0  0  0  0  0
    5.6322  -14.5662   25.1691 N   0  0  0  0  0  0  0  0  0  0  0  0
    6.2931  -13.5672   25.7827 C   0  0  0  0  0  0  0  0  0  0  0  0
    6.0470  -12.2193   25.9281 C   0  0  0  0  0  0  0  0  0  0  0  0
    6.9594  -11.4721   26.6375 C   0  0  0  0  0  0  0  0  0  0  0  0
    8.0933  -12.0012   27.2022 C   0  0  0  0  0  0  0  0  0  0  0  0
    8.2958  -13.3683   27.0264 C   0  0  0  0  0  0  0  0  0  0  0  0
    7.4205  -14.1607   26.3295 C   0  0  0  0  0  0  0  0  0  0  0  0
   10.4846  -17.6295   25.8312 C   0  0  0  0  0  0  0  0  0  0  0  0
   10.6654  -17.9806   27.0203 O   0  0  0  0  0  0  0  0  0  0  0  0
   11.5950  -20.7171   24.0720 C   0  0  0  0  0  0  0  0  0  0  0  0
   11.7748  -19.6534   25.1347 C   0  0  2  0  0  0  0  0  0  0  0  0
   11.0508  -18.4321   24.8110 N   0  0  0  0  0  0  0  0  0  0  0  0
   13.2068  -19.3702   25.4070 C   0  0  0  0  0  0  0  0  0  0  0  0
   13.7125  -18.2615   25.1031 O   0  0  0  0  0  0  0  0  0  0  0  0
   14.0640  -20.2978   26.0049 O   0  0  0  0  0  0  0  0  0  0  0  0
  2  3  1  0
  2  1  1  1
  4  3  1  0
  4  8  1  0
  5  6  1  0
  5  4  2  0
  6  7  1  0
  7  8  2  0
  9  2  1  0
 10  9  2  0
 11  9  1  0
 12 11  1  0
 12 13  1  1
 13 14  1  0
 14 15  2  0
 15 16  1  0
 17 16  1  0
 18 17  2  0
 19 18  1  0
 20 21  1  0
 20 19  2  0
 21 22  2  0
 22 14  1  0
 22 17  1  0
 23 24  2  0
 23 12  1  0
 26 25  1  6
 26 27  1  0
 27 23  1  0
 28 26  1  0
 29 28  2  0
 30 28  1  0
M  END
$$$$
