HWA.pdb
     RDKit          3D

 30 32  0  0  1  0  0  0  0  0999 V2000
    9.7368  -16.4964   20.6691 N   0  0  0  0  0  0  0  0  0  0  0  0
   10.5149  -17.0413   21.7370 C   0  0  1  0  0  0  0  0  0  0  0  0
   11.9769  -17.1479   21.4419 C   0  0  0  0  0  0  0  0  0  0  0  0
   12.3002  -18.0068   20.3097 C   0  0  0  0  0  0  0  0  0  0  0  0
   11.5864  -18.1810   19.1525 C   0  0  0  0  0  0  0  0  0  0  0  0
   12.2543  -19.0742   18.3720 N   0  0  0  0  0  0  0  0  0  0  0  0
   13.3423  -19.4295   19.0405 C   0  0  0  0  0  0  0  0  0  0  0  0
   13.3797  -18.7933   20.2072 N   0  0  0  0  0  0  0  0  0  0  0  0
   10.3805  -16.2541   23.0016 C   0  0  0  0  0  0  0  0  0  0  0  0
   10.6109  -15.0194   22.9799 O   0  0  0  0  0  0  0  0  0  0  0  0
   10.0042  -16.8666   24.2029 N   0  0  0  0  0  0  0  0  0  0  0  0
    9.8695  -16.1255   25.4641 C   0  0  1  0  0  0  0  0  0  0  0  0
    8.4684  -16.3141   26.0206 C   0  0  0  0  0  0  0  0  0  0  0  0
    7.5051  -15.3684   25.4509 C   0  0  0  0  0  0  0  0  0  0  0  0
    6.6121  -15.5743   24.4237 C   0  0  0  0  0  0  0  0  0  0  0  0
    5.9230  -14.4409   24.2264 N   0  0  0  0  0  0  0  0  0  0  0  0
    6.3182  -13.4800   25.0818 C   0  0  0  0  0  0  0  0  0  0  0  0
    5.9313  -12.1725   25.2801 C   0  0  0  0  0  0  0  0  0  0  0  0
    6.5649  -11.4577   26.2708 C   0  0  0  0  0  0  0  0  0  0  0  0
    7.5557  -11.9809   27.0641 C   0  0  0  0  0  0  0  0  0  0  0  0
    7.9100  -13.3066   26.8234 C   0  0  0  0  0  0  0  0  0  0  0  0
    7.3127  -14.0655   25.8503 C   0  0  0  0  0  0  0  0  0  0  0  0
   10.8122  -16.7629   26.4134 C   0  0  0  0  0  0  0  0  0  0  0  0
   10.7932  -18.0110   26.5215 O   0  0  0  0  0  0  0  0  0  0  0  0
   10.6372  -14.6626   28.9257 C   0  0  0  0  0  0  0  0  0  0  0  0
   11.5139  -15.8630   28.6368 C   0  0  2  0  0  0  0  0  0  0  0  0
   11.7370  -16.0438   27.2093 N   0  0  0  0  0  0  0  0  0  0  0  0
   10.9856  -17.1045   29.2571 C   0  0  0  0  0  0  0  0  0  0  0  0
    9.8229  -17.5059   29.0037 O   0  0  0  0  0  0  0  0  0  0  0  0
   11.7312  -17.8878   30.1423 O   0  0  0  0  0  0  0  0  0  0  0  0
  2  3  1  0
  2  1  1  6
  4  3  1  0
  4  8  1  0
  5  6  1  0
  5  4  2  0
  6  7  1  0
  7  8  2  0
  9  2  1  0
 10  9  2  0
 11  9  1  0
 12 11  1  0
 12 13  1  1
 13 14  1  0
 14 15  2  0
 15 16  1  0
 17 16  1  0
 18 17  2  0
 19 18  1  0
 20 21  1  0
 20 19  2  0
 21 22  2  0
 22 14  1  0
 22 17  1  0
 23 24  2  0
 23 12  1  0
 26 25  1  6
 26 27  1  0
 27 23  1  0
 28 26  1  0
 29 28  2  0
 30 28  1  0
M  END
$$$$
