HKK.pdb
     RDKit          3D

 29 29  0  0  1  0  0  0  0  0999 V2000
   10.9437  -14.6267   20.7972 N   0  0  0  0  0  0  0  0  0  0  0  0
    9.5894  -14.4871   21.2876 C   0  0  1  0  0  0  0  0  0  0  0  0
    8.6886  -15.4882   20.6261 C   0  0  0  0  0  0  0  0  0  0  0  0
    8.2216  -15.0030   19.3146 C   0  0  0  0  0  0  0  0  0  0  0  0
    8.6410  -13.7850   18.7721 C   0  0  0  0  0  0  0  0  0  0  0  0
    8.0264  -13.6555   17.5753 N   0  0  0  0  0  0  0  0  0  0  0  0
    7.2635  -14.7492   17.3947 C   0  0  0  0  0  0  0  0  0  0  0  0
    7.3780  -15.5728   18.4495 N   0  0  0  0  0  0  0  0  0  0  0  0
    9.5817  -14.8028   22.7624 C   0  0  0  0  0  0  0  0  0  0  0  0
   10.6254  -15.2529   23.2724 O   0  0  0  0  0  0  0  0  0  0  0  0
    8.4492  -14.6045   23.5535 N   0  0  0  0  0  0  0  0  0  0  0  0
    8.4271  -14.7484   24.9504 C   0  0  1  0  0  0  0  0  0  0  0  0
    7.2386  -14.2478   25.6989 C   0  0  0  0  0  0  0  0  0  0  0  0
    7.2333  -12.7636   25.8773 C   0  0  0  0  0  0  0  0  0  0  0  0
    5.9501  -12.2919   26.5825 C   0  0  0  0  0  0  0  0  0  0  0  0
    6.0584  -10.7817   26.7468 C   0  0  0  0  0  0  0  0  0  0  0  0
    4.8412  -10.2918   27.3276 N   0  0  0  0  0  0  0  0  0  0  0  0
    8.7201  -16.1552   25.3304 C   0  0  0  0  0  0  0  0  0  0  0  0
    8.1111  -17.0703   24.6844 O   0  0  0  0  0  0  0  0  0  0  0  0
    9.6201  -16.4776   26.3477 N   0  0  0  0  0  0  0  0  0  0  0  0
    9.8108  -17.9309   26.6709 C   0  0  1  0  0  0  0  0  0  0  0  0
   10.8632  -18.4067   25.7472 C   0  0  0  0  0  0  0  0  0  0  0  0
   11.5111  -19.7080   25.8794 C   0  0  0  0  0  0  0  0  0  0  0  0
   12.5785  -20.1307   24.9360 C   0  0  0  0  0  0  0  0  0  0  0  0
   13.0577  -21.5448   25.1827 C   0  0  0  0  0  0  0  0  0  0  0  0
   14.2033  -21.8739   24.3570 N   0  0  0  0  0  0  0  0  0  0  0  0
   10.1292  -17.8736   28.1144 C   0  0  0  0  0  0  0  0  0  0  0  0
   10.2830  -16.7447   28.8902 O   0  0  0  0  0  0  0  0  0  0  0  0
   10.2959  -18.9642   28.7570 O   0  0  0  0  0  0  0  0  0  0  0  0
  2  3  1  0
  2  1  1  6
  3  4  1  0
  4  5  2  0
  4  8  1  0
  5  6  1  0
  6  7  1  0
  8  7  2  0
  9  2  1  0
  9 11  1  0
 10  9  2  0
 12 11  1  0
 13 14  1  0
 12 13  1  6
 15 14  1  0
 16 15  1  0
 16 17  1  0
 18 12  1  0
 18 19  2  0
 20 18  1  0
 21 20  1  0
 21 27  1  0
 21 22  1  6
 23 22  1  0
 24 23  1  0
 25 24  1  0
 26 25  1  0
 27 28  1  0
 29 27  2  0
M  END
$$$$
