HKK.pdb
     RDKit          3D

 29 29  0  0  1  0  0  0  0  0999 V2000
    8.6028  -18.4836   17.1934 N   0  0  0  0  0  0  0  0  0  0  0  0
    7.6411  -18.3243   18.2629 C   0  0  1  0  0  0  0  0  0  0  0  0
    7.2087  -19.6646   18.7803 C   0  0  0  0  0  0  0  0  0  0  0  0
    6.2321  -20.2977   17.8753 C   0  0  0  0  0  0  0  0  0  0  0  0
    5.7935  -19.6856   16.6977 C   0  0  0  0  0  0  0  0  0  0  0  0
    4.9131  -20.5324   16.1191 N   0  0  0  0  0  0  0  0  0  0  0  0
    4.8182  -21.6165   16.9107 C   0  0  0  0  0  0  0  0  0  0  0  0
    5.6184  -21.4796   17.9808 N   0  0  0  0  0  0  0  0  0  0  0  0
    8.3162  -17.6129   19.4087 C   0  0  0  0  0  0  0  0  0  0  0  0
    9.5379  -17.7923   19.5737 O   0  0  0  0  0  0  0  0  0  0  0  0
    7.6126  -16.7726   20.2727 N   0  0  0  0  0  0  0  0  0  0  0  0
    8.2155  -15.9487   21.2373 C   0  0  1  0  0  0  0  0  0  0  0  0
    7.4510  -14.7755   21.7495 C   0  0  0  0  0  0  0  0  0  0  0  0
    7.0815  -13.7974   20.6811 C   0  0  0  0  0  0  0  0  0  0  0  0
    8.2756  -13.5047   19.7565 C   0  0  0  0  0  0  0  0  0  0  0  0
    7.8034  -12.4919   18.7217 C   0  0  0  0  0  0  0  0  0  0  0  0
    8.8782  -12.2301   17.8079 N   0  0  0  0  0  0  0  0  0  0  0  0
    8.7255  -16.7654   22.3697 C   0  0  0  0  0  0  0  0  0  0  0  0
    7.9237  -17.6151   22.8804 O   0  0  0  0  0  0  0  0  0  0  0  0
   10.0229  -16.6210   22.8643 N   0  0  0  0  0  0  0  0  0  0  0  0
   10.4695  -17.5778   23.9311 C   0  0  1  0  0  0  0  0  0  0  0  0
   11.5094  -18.4179   23.2986 C   0  0  0  0  0  0  0  0  0  0  0  0
   12.1259  -19.5605   23.9659 C   0  0  0  0  0  0  0  0  0  0  0  0
   13.0804  -20.4431   23.2464 C   0  0  0  0  0  0  0  0  0  0  0  0
   13.6434  -21.5413   24.1223 C   0  0  0  0  0  0  0  0  0  0  0  0
   14.5232  -22.4218   23.3784 N   0  0  0  0  0  0  0  0  0  0  0  0
   10.8863  -16.6498   25.0051 C   0  0  0  0  0  0  0  0  0  0  0  0
   11.0275  -16.9359   26.3461 O   0  0  0  0  0  0  0  0  0  0  0  0
   11.1495  -15.4360   24.7091 O   0  0  0  0  0  0  0  0  0  0  0  0
  2  3  1  0
  2  1  1  6
  3  4  1  0
  4  5  2  0
  4  8  1  0
  5  6  1  0
  6  7  1  0
  8  7  2  0
  9  2  1  0
  9 11  1  0
 10  9  2  0
 12 11  1  0
 13 14  1  0
 12 13  1  1
 15 14  1  0
 16 15  1  0
 16 17  1  0
 18 12  1  0
 18 19  2  0
 20 18  1  0
 21 20  1  0
 21 27  1  0
 21 22  1  6
 23 22  1  0
 24 23  1  0
 25 24  1  0
 26 25  1  0
 27 28  1  0
 29 27  2  0
M  END
$$$$
