HKK.pdb
     RDKit          3D

 29 29  0  0  1  0  0  0  0  0999 V2000
    8.1136  -16.0330   19.6195 N   0  0  0  0  0  0  0  0  0  0  0  0
    9.5015  -15.9361   20.0176 C   0  0  1  0  0  0  0  0  0  0  0  0
   10.2169  -14.9214   19.1751 C   0  0  0  0  0  0  0  0  0  0  0  0
    9.3864  -14.4912   18.0355 C   0  0  0  0  0  0  0  0  0  0  0  0
    7.9898  -14.5425   18.0629 C   0  0  0  0  0  0  0  0  0  0  0  0
    7.5562  -14.0792   16.8695 N   0  0  0  0  0  0  0  0  0  0  0  0
    8.6430  -13.7584   16.1437 C   0  0  0  0  0  0  0  0  0  0  0  0
    9.7595  -14.0068   16.8477 N   0  0  0  0  0  0  0  0  0  0  0  0
    9.5555  -15.4366   21.4397 C   0  0  0  0  0  0  0  0  0  0  0  0
   10.6667  -15.1325   21.9138 O   0  0  0  0  0  0  0  0  0  0  0  0
    8.4063  -15.3103   22.2214 N   0  0  0  0  0  0  0  0  0  0  0  0
    8.4051  -14.8847   23.5599 C   0  0  1  0  0  0  0  0  0  0  0  0
    7.2116  -14.1530   24.0731 C   0  0  0  0  0  0  0  0  0  0  0  0
    7.4036  -13.5970   25.4474 C   0  0  0  0  0  0  0  0  0  0  0  0
    6.1542  -12.8335   25.9191 C   0  0  0  0  0  0  0  0  0  0  0  0
    6.4718  -12.2600   27.2937 C   0  0  0  0  0  0  0  0  0  0  0  0
    5.3673  -11.4510   27.7231 N   0  0  0  0  0  0  0  0  0  0  0  0
    8.7436  -16.0157   24.4629 C   0  0  0  0  0  0  0  0  0  0  0  0
    8.0388  -17.0731   24.3587 O   0  0  0  0  0  0  0  0  0  0  0  0
    9.7843  -15.9400   25.3902 N   0  0  0  0  0  0  0  0  0  0  0  0
   10.0517  -17.1521   26.2342 C   0  0  1  0  0  0  0  0  0  0  0  0
   11.2872  -17.7515   25.6851 C   0  0  0  0  0  0  0  0  0  0  0  0
   11.2813  -18.8500   24.7239 C   0  0  0  0  0  0  0  0  0  0  0  0
   12.5502  -19.3861   24.1669 C   0  0  0  0  0  0  0  0  0  0  0  0
   12.3344  -20.5433   23.2158 C   0  0  0  0  0  0  0  0  0  0  0  0
   13.5917  -21.0903   22.7438 N   0  0  0  0  0  0  0  0  0  0  0  0
   10.1102  -16.5619   27.5894 C   0  0  0  0  0  0  0  0  0  0  0  0
   10.0109  -15.2282   27.9231 O   0  0  0  0  0  0  0  0  0  0  0  0
   10.2765  -17.3312   28.5947 O   0  0  0  0  0  0  0  0  0  0  0  0
  2  3  1  0
  2  1  1  6
  3  4  1  0
  4  5  2  0
  4  8  1  0
  5  6  1  0
  6  7  1  0
  8  7  2  0
  9  2  1  0
  9 11  1  0
 10  9  2  0
 12 11  1  0
 13 14  1  0
 12 13  1  1
 15 14  1  0
 16 15  1  0
 16 17  1  0
 18 12  1  0
 18 19  2  0
 20 18  1  0
 21 20  1  0
 21 27  1  0
 21 22  1  6
 23 22  1  0
 24 23  1  0
 25 24  1  0
 26 25  1  0
 27 28  1  0
 29 27  2  0
M  END
$$$$
