HKK.pdb
     RDKit          3D

 29 29  0  0  1  0  0  0  0  0999 V2000
    8.8247  -14.9185   16.6157 N   0  0  0  0  0  0  0  0  0  0  0  0
    9.1069  -16.3101   16.8952 C   0  0  1  0  0  0  0  0  0  0  0  0
   10.4803  -16.6719   16.4117 C   0  0  0  0  0  0  0  0  0  0  0  0
   10.5108  -16.8133   14.9445 C   0  0  0  0  0  0  0  0  0  0  0  0
    9.6747  -16.0755   14.1018 C   0  0  0  0  0  0  0  0  0  0  0  0
    9.9639  -16.4496   12.8355 N   0  0  0  0  0  0  0  0  0  0  0  0
   10.9364  -17.3774   12.9026 C   0  0  0  0  0  0  0  0  0  0  0  0
   11.2733  -17.6030   14.1831 N   0  0  0  0  0  0  0  0  0  0  0  0
    9.1069  -16.5052   18.3908 C   0  0  0  0  0  0  0  0  0  0  0  0
    9.1591  -15.4931   19.1153 O   0  0  0  0  0  0  0  0  0  0  0  0
    9.0504  -17.7740   18.9693 N   0  0  0  0  0  0  0  0  0  0  0  0
    8.9331  -18.0077   20.3492 C   0  0  1  0  0  0  0  0  0  0  0  0
    8.0971  -19.1537   20.8086 C   0  0  0  0  0  0  0  0  0  0  0  0
    8.1262  -19.3516   22.2900 C   0  0  0  0  0  0  0  0  0  0  0  0
    7.3200  -20.5954   22.7018 C   0  0  0  0  0  0  0  0  0  0  0  0
    7.3163  -20.6432   24.2240 C   0  0  0  0  0  0  0  0  0  0  0  0
    6.5465  -21.7772   24.6486 N   0  0  0  0  0  0  0  0  0  0  0  0
   10.2775  -18.0652   20.9805 C   0  0  0  0  0  0  0  0  0  0  0  0
   11.0584  -18.9985   20.6001 O   0  0  0  0  0  0  0  0  0  0  0  0
   10.6832  -17.1453   21.9491 N   0  0  0  0  0  0  0  0  0  0  0  0
   12.0799  -17.2711   22.4840 C   0  0  1  0  0  0  0  0  0  0  0  0
   12.7805  -16.0418   22.0533 C   0  0  0  0  0  0  0  0  0  0  0  0
   13.4300  -15.9085   20.7529 C   0  0  0  0  0  0  0  0  0  0  0  0
   14.1265  -14.6528   20.3708 C   0  0  0  0  0  0  0  0  0  0  0  0
   14.5605  -14.6368   18.9211 C   0  0  0  0  0  0  0  0  0  0  0  0
   15.1409  -13.3609   18.5498 N   0  0  0  0  0  0  0  0  0  0  0  0
   11.8275  -17.4549   23.9299 C   0  0  0  0  0  0  0  0  0  0  0  0
   12.6915  -17.9793   24.8672 O   0  0  0  0  0  0  0  0  0  0  0  0
   10.6960  -17.1109   24.4112 O   0  0  0  0  0  0  0  0  0  0  0  0
  2  3  1  0
  2  1  1  1
  3  4  1  0
  4  5  2  0
  4  8  1  0
  5  6  1  0
  6  7  1  0
  8  7  2  0
  9  2  1  0
  9 11  1  0
 10  9  2  0
 12 11  1  0
 13 14  1  0
 12 13  1  6
 15 14  1  0
 16 15  1  0
 16 17  1  0
 18 12  1  0
 18 19  2  0
 20 18  1  0
 21 20  1  0
 21 27  1  0
 21 22  1  1
 23 22  1  0
 24 23  1  0
 25 24  1  0
 26 25  1  0
 27 28  1  0
 29 27  2  0
M  END
$$$$
