HKK.pdb
     RDKit          3D

 29 29  0  0  1  0  0  0  0  0999 V2000
    9.2618  -15.3801   18.6802 N   0  0  0  0  0  0  0  0  0  0  0  0
    8.4332  -14.5028   19.4789 C   0  0  1  0  0  0  0  0  0  0  0  0
    7.1143  -14.2709   18.8022 C   0  0  0  0  0  0  0  0  0  0  0  0
    7.2934  -13.9721   17.3696 C   0  0  0  0  0  0  0  0  0  0  0  0
    8.5301  -14.0854   16.7282 C   0  0  0  0  0  0  0  0  0  0  0  0
    8.3355  -13.7400   15.4360 N   0  0  0  0  0  0  0  0  0  0  0  0
    7.0340  -13.4288   15.2945 C   0  0  0  0  0  0  0  0  0  0  0  0
    6.3947  -13.5681   16.4675 N   0  0  0  0  0  0  0  0  0  0  0  0
    8.1354  -15.1900   20.7880 C   0  0  0  0  0  0  0  0  0  0  0  0
    7.3816  -14.6142   21.5957 O   0  0  0  0  0  0  0  0  0  0  0  0
    8.6775  -16.4357   21.1074 N   0  0  0  0  0  0  0  0  0  0  0  0
    8.3844  -17.1460   22.2831 C   0  0  1  0  0  0  0  0  0  0  0  0
    8.0902  -18.6041   22.1792 C   0  0  0  0  0  0  0  0  0  0  0  0
    8.3724  -19.1700   20.8247 C   0  0  0  0  0  0  0  0  0  0  0  0
    8.1768  -20.6957   20.8065 C   0  0  0  0  0  0  0  0  0  0  0  0
    8.5490  -21.1787   19.4109 C   0  0  0  0  0  0  0  0  0  0  0  0
    8.3161  -22.5924   19.3340 N   0  0  0  0  0  0  0  0  0  0  0  0
    9.4324  -16.9038   23.3089 C   0  0  0  0  0  0  0  0  0  0  0  0
   10.6230  -16.7208   22.8910 O   0  0  0  0  0  0  0  0  0  0  0  0
    9.1426  -16.8747   24.6742 N   0  0  0  0  0  0  0  0  0  0  0  0
   10.2703  -16.5703   25.6168 C   0  0  1  0  0  0  0  0  0  0  0  0
    9.6732  -15.7570   26.6981 C   0  0  0  0  0  0  0  0  0  0  0  0
   10.4304  -15.2904   27.8556 C   0  0  0  0  0  0  0  0  0  0  0  0
    9.7974  -14.4285   28.8872 C   0  0  0  0  0  0  0  0  0  0  0  0
   10.7617  -14.0030   29.9731 C   0  0  0  0  0  0  0  0  0  0  0  0
   10.1219  -13.1457   30.9519 N   0  0  0  0  0  0  0  0  0  0  0  0
   10.7486  -17.9288   25.9544 C   0  0  0  0  0  0  0  0  0  0  0  0
   12.0319  -18.3010   26.2927 O   0  0  0  0  0  0  0  0  0  0  0  0
    9.9201  -18.9003   25.9386 O   0  0  0  0  0  0  0  0  0  0  0  0
  2  3  1  0
  2  1  1  6
  3  4  1  0
  4  5  2  0
  4  8  1  0
  5  6  1  0
  6  7  1  0
  8  7  2  0
  9  2  1  0
  9 11  1  0
 10  9  2  0
 12 11  1  0
 13 14  1  0
 12 13  1  6
 15 14  1  0
 16 15  1  0
 16 17  1  0
 18 12  1  0
 18 19  2  0
 20 18  1  0
 21 20  1  0
 21 27  1  0
 21 22  1  1
 23 22  1  0
 24 23  1  0
 25 24  1  0
 26 25  1  0
 27 28  1  0
 29 27  2  0
M  END
$$$$
