HKK.pdb
     RDKit          3D

 29 29  0  0  1  0  0  0  0  0999 V2000
   11.0685  -22.6647   20.5235 N   0  0  0  0  0  0  0  0  0  0  0  0
   11.2877  -21.3723   21.1365 C   0  0  1  0  0  0  0  0  0  0  0  0
   10.7814  -20.2781   20.2435 C   0  0  0  0  0  0  0  0  0  0  0  0
   11.2877  -20.4332   18.8676 C   0  0  0  0  0  0  0  0  0  0  0  0
   12.2877  -21.3514   18.5349 C   0  0  0  0  0  0  0  0  0  0  0  0
   12.5063  -21.2301   17.2066 N   0  0  0  0  0  0  0  0  0  0  0  0
   11.6742  -20.2773   16.7475 C   0  0  0  0  0  0  0  0  0  0  0  0
   10.9303  -19.7887   17.7534 N   0  0  0  0  0  0  0  0  0  0  0  0
   10.4797  -21.3048   22.4082 C   0  0  0  0  0  0  0  0  0  0  0  0
   10.3644  -20.2005   22.9732 O   0  0  0  0  0  0  0  0  0  0  0  0
    9.8692  -22.4343   22.9552 N   0  0  0  0  0  0  0  0  0  0  0  0
    9.1757  -22.4432   24.1766 C   0  0  1  0  0  0  0  0  0  0  0  0
    7.9985  -23.3469   24.3201 C   0  0  0  0  0  0  0  0  0  0  0  0
    7.3593  -23.2768   25.6696 C   0  0  0  0  0  0  0  0  0  0  0  0
    6.1800  -24.2586   25.7792 C   0  0  0  0  0  0  0  0  0  0  0  0
    5.5844  -24.0900   27.1706 C   0  0  0  0  0  0  0  0  0  0  0  0
    4.4179  -24.9188   27.2773 N   0  0  0  0  0  0  0  0  0  0  0  0
   10.1203  -22.6442   25.3065 C   0  0  0  0  0  0  0  0  0  0  0  0
   10.7248  -23.7652   25.3659 O   0  0  0  0  0  0  0  0  0  0  0  0
   10.3470  -21.6589   26.2691 N   0  0  0  0  0  0  0  0  0  0  0  0
   11.3252  -21.9704   27.3641 C   0  0  1  0  0  0  0  0  0  0  0  0
   12.4853  -21.0859   27.1215 C   0  0  0  0  0  0  0  0  0  0  0  0
   13.8559  -21.5782   27.0212 C   0  0  0  0  0  0  0  0  0  0  0  0
   14.9737  -20.6636   26.6724 C   0  0  0  0  0  0  0  0  0  0  0  0
   16.2760  -21.3926   26.4215 C   0  0  0  0  0  0  0  0  0  0  0  0
   17.2784  -20.5164   25.8470 N   0  0  0  0  0  0  0  0  0  0  0  0
   10.5062  -21.7244   28.5712 C   0  0  0  0  0  0  0  0  0  0  0  0
   10.8752  -21.9236   29.8842 O   0  0  0  0  0  0  0  0  0  0  0  0
    9.3154  -21.2844   28.4342 O   0  0  0  0  0  0  0  0  0  0  0  0
  2  3  1  0
  2  1  1  6
  3  4  1  0
  4  5  2  0
  4  8  1  0
  5  6  1  0
  6  7  1  0
  8  7  2  0
  9  2  1  0
  9 11  1  0
 10  9  2  0
 12 11  1  0
 13 14  1  0
 12 13  1  6
 15 14  1  0
 16 15  1  0
 16 17  1  0
 18 12  1  0
 18 19  2  0
 20 18  1  0
 21 20  1  0
 21 27  1  0
 21 22  1  1
 23 22  1  0
 24 23  1  0
 25 24  1  0
 26 25  1  0
 27 28  1  0
 29 27  2  0
M  END
$$$$
