HKK.pdb
     RDKit          3D

 29 29  0  0  1  0  0  0  0  0999 V2000
    6.3567  -16.7084   20.1265 N   0  0  0  0  0  0  0  0  0  0  0  0
    7.3424  -16.0332   20.9430 C   0  0  1  0  0  0  0  0  0  0  0  0
    7.1845  -14.5455   20.8291 C   0  0  0  0  0  0  0  0  0  0  0  0
    7.6342  -14.0591   19.5121 C   0  0  0  0  0  0  0  0  0  0  0  0
    8.1727  -14.9091   18.5419 C   0  0  0  0  0  0  0  0  0  0  0  0
    8.4744  -14.1416   17.4709 N   0  0  0  0  0  0  0  0  0  0  0  0
    8.1341  -12.8756   17.7748 C   0  0  0  0  0  0  0  0  0  0  0  0
    7.6224  -12.8190   19.0153 N   0  0  0  0  0  0  0  0  0  0  0  0
    7.0892  -16.3883   22.3868 C   0  0  0  0  0  0  0  0  0  0  0  0
    6.0990  -15.8849   22.9507 O   0  0  0  0  0  0  0  0  0  0  0  0
    7.9268  -17.2540   23.0915 N   0  0  0  0  0  0  0  0  0  0  0  0
    7.7350  -17.6191   24.4341 C   0  0  1  0  0  0  0  0  0  0  0  0
    7.8377  -19.0605   24.8014 C   0  0  0  0  0  0  0  0  0  0  0  0
    6.7381  -19.8969   24.2305 C   0  0  0  0  0  0  0  0  0  0  0  0
    6.9905  -21.3939   24.4788 C   0  0  0  0  0  0  0  0  0  0  0  0
    5.9008  -22.1605   23.7411 C   0  0  0  0  0  0  0  0  0  0  0  0
    6.1410  -23.5669   23.8942 N   0  0  0  0  0  0  0  0  0  0  0  0
    8.5992  -16.7982   25.3221 C   0  0  0  0  0  0  0  0  0  0  0  0
    9.7894  -16.5706   24.9256 O   0  0  0  0  0  0  0  0  0  0  0  0
    8.1432  -16.2912   26.5402 N   0  0  0  0  0  0  0  0  0  0  0  0
    9.0557  -15.3668   27.2925 C   0  0  1  0  0  0  0  0  0  0  0  0
    8.2254  -14.1965   27.6505 C   0  0  0  0  0  0  0  0  0  0  0  0
    7.6999  -13.2596   26.6621 C   0  0  0  0  0  0  0  0  0  0  0  0
    6.8230  -12.1310   27.0683 C   0  0  0  0  0  0  0  0  0  0  0  0
    6.3559  -11.2955   25.8961 C   0  0  0  0  0  0  0  0  0  0  0  0
    5.4923  -10.2111   26.3215 N   0  0  0  0  0  0  0  0  0  0  0  0
    9.5275  -16.2431   28.3870 C   0  0  0  0  0  0  0  0  0  0  0  0
   10.6337  -16.0552   29.1876 O   0  0  0  0  0  0  0  0  0  0  0  0
    8.8755  -17.3077   28.6547 O   0  0  0  0  0  0  0  0  0  0  0  0
  2  3  1  0
  2  1  1  6
  3  4  1  0
  4  5  2  0
  4  8  1  0
  5  6  1  0
  6  7  1  0
  8  7  2  0
  9  2  1  0
  9 11  1  0
 10  9  2  0
 12 11  1  0
 13 14  1  0
 12 13  1  6
 15 14  1  0
 16 15  1  0
 16 17  1  0
 18 12  1  0
 18 19  2  0
 20 18  1  0
 21 20  1  0
 21 27  1  0
 21 22  1  1
 23 22  1  0
 24 23  1  0
 25 24  1  0
 26 25  1  0
 27 28  1  0
 29 27  2  0
M  END
$$$$
