HKK.pdb
     RDKit          3D

 29 29  0  0  1  0  0  0  0  0999 V2000
   10.2238  -18.0825   17.6596 N   0  0  0  0  0  0  0  0  0  0  0  0
    9.1625  -18.1727   18.6393 C   0  0  1  0  0  0  0  0  0  0  0  0
    8.9897  -19.5924   19.0928 C   0  0  0  0  0  0  0  0  0  0  0  0
    8.3041  -20.4014   18.0687 C   0  0  0  0  0  0  0  0  0  0  0  0
    7.7150  -19.8347   16.9349 C   0  0  0  0  0  0  0  0  0  0  0  0
    7.1836  -20.8505   16.2188 N   0  0  0  0  0  0  0  0  0  0  0  0
    7.4378  -21.9901   16.8879 C   0  0  0  0  0  0  0  0  0  0  0  0
    8.1193  -21.7234   18.0142 N   0  0  0  0  0  0  0  0  0  0  0  0
    9.5659  -17.3742   19.8535 C   0  0  0  0  0  0  0  0  0  0  0  0
   10.7807  -17.2588   20.1040 O   0  0  0  0  0  0  0  0  0  0  0  0
    8.6225  -16.7724   20.6876 N   0  0  0  0  0  0  0  0  0  0  0  0
    8.9451  -15.9790   21.8007 C   0  0  1  0  0  0  0  0  0  0  0  0
    7.9839  -14.9200   22.2226 C   0  0  0  0  0  0  0  0  0  0  0  0
    8.1162  -13.6539   21.4389 C   0  0  0  0  0  0  0  0  0  0  0  0
    7.8276  -13.8898   19.9464 C   0  0  0  0  0  0  0  0  0  0  0  0
    7.8098  -12.5243   19.2721 C   0  0  0  0  0  0  0  0  0  0  0  0
    7.5412  -12.7030   17.8740 N   0  0  0  0  0  0  0  0  0  0  0  0
    9.3084  -16.8361   22.9594 C   0  0  0  0  0  0  0  0  0  0  0  0
    8.4736  -17.7380   23.2990 O   0  0  0  0  0  0  0  0  0  0  0  0
   10.5071  -16.6740   23.6561 N   0  0  0  0  0  0  0  0  0  0  0  0
   10.8055  -17.6465   24.7598 C   0  0  1  0  0  0  0  0  0  0  0  0
   12.2677  -17.8633   24.7113 C   0  0  0  0  0  0  0  0  0  0  0  0
   12.8898  -18.9309   23.9341 C   0  0  0  0  0  0  0  0  0  0  0  0
   13.9475  -18.6326   22.9340 C   0  0  0  0  0  0  0  0  0  0  0  0
   14.3459  -19.8432   22.1180 C   0  0  0  0  0  0  0  0  0  0  0  0
   15.2711  -19.4936   21.0576 N   0  0  0  0  0  0  0  0  0  0  0  0
   10.2478  -16.9411   25.9344 C   0  0  0  0  0  0  0  0  0  0  0  0
   10.0488  -17.4541   27.1982 O   0  0  0  0  0  0  0  0  0  0  0  0
    9.8897  -15.7215   25.8137 O   0  0  0  0  0  0  0  0  0  0  0  0
  2  3  1  0
  2  1  1  6
  3  4  1  0
  4  5  2  0
  4  8  1  0
  5  6  1  0
  6  7  1  0
  8  7  2  0
  9  2  1  0
  9 11  1  0
 10  9  2  0
 12 11  1  0
 13 14  1  0
 12 13  1  1
 15 14  1  0
 16 15  1  0
 16 17  1  0
 18 12  1  0
 18 19  2  0
 20 18  1  0
 21 20  1  0
 21 27  1  0
 21 22  1  1
 23 22  1  0
 24 23  1  0
 25 24  1  0
 26 25  1  0
 27 28  1  0
 29 27  2  0
M  END
$$$$
