HKK.pdb
     RDKit          3D

 29 29  0  0  1  0  0  0  0  0999 V2000
   10.9688  -19.0027   17.1554 N   0  0  0  0  0  0  0  0  0  0  0  0
    9.9397  -19.0991   18.1683 C   0  0  1  0  0  0  0  0  0  0  0  0
    9.9209  -20.4759   18.7643 C   0  0  0  0  0  0  0  0  0  0  0  0
    9.1855  -21.4210   17.9043 C   0  0  0  0  0  0  0  0  0  0  0  0
    8.2757  -20.9983   16.9311 C   0  0  0  0  0  0  0  0  0  0  0  0
    7.7912  -22.1112   16.3363 N   0  0  0  0  0  0  0  0  0  0  0  0
    8.3809  -23.1694   16.9223 C   0  0  0  0  0  0  0  0  0  0  0  0
    9.2302  -22.7559   17.8771 N   0  0  0  0  0  0  0  0  0  0  0  0
   10.2807  -18.1458   19.2862 C   0  0  0  0  0  0  0  0  0  0  0  0
   11.4836  -17.9294   19.5275 O   0  0  0  0  0  0  0  0  0  0  0  0
    9.2935  -17.5124   20.0425 N   0  0  0  0  0  0  0  0  0  0  0  0
    9.5554  -16.5819   21.0615 C   0  0  1  0  0  0  0  0  0  0  0  0
    8.6412  -15.4135   21.2106 C   0  0  0  0  0  0  0  0  0  0  0  0
    8.6088  -14.5294   20.0057 C   0  0  0  0  0  0  0  0  0  0  0  0
    7.5374  -13.4345   20.1467 C   0  0  0  0  0  0  0  0  0  0  0  0
    7.4786  -12.6914   18.8186 C   0  0  0  0  0  0  0  0  0  0  0  0
    6.5219  -11.6275   18.9266 N   0  0  0  0  0  0  0  0  0  0  0  0
    9.7219  -17.2756   22.3654 C   0  0  0  0  0  0  0  0  0  0  0  0
    8.7957  -18.0772   22.7193 O   0  0  0  0  0  0  0  0  0  0  0  0
   10.8373  -17.0697   23.1791 N   0  0  0  0  0  0  0  0  0  0  0  0
   10.9280  -17.8671   24.4475 C   0  0  1  0  0  0  0  0  0  0  0  0
   12.0840  -18.7712   24.2644 C   0  0  0  0  0  0  0  0  0  0  0  0
   12.5259  -19.7168   25.2849 C   0  0  0  0  0  0  0  0  0  0  0  0
   13.7308  -20.5608   25.0755 C   0  0  0  0  0  0  0  0  0  0  0  0
   14.0080  -21.4913   26.2362 C   0  0  0  0  0  0  0  0  0  0  0  0
   15.1403  -22.3572   25.9699 N   0  0  0  0  0  0  0  0  0  0  0  0
   11.0388  -16.7967   25.4626 C   0  0  0  0  0  0  0  0  0  0  0  0
   10.8193  -16.9077   26.8188 O   0  0  0  0  0  0  0  0  0  0  0  0
   11.3648  -15.6197   25.0904 O   0  0  0  0  0  0  0  0  0  0  0  0
  2  3  1  0
  2  1  1  6
  3  4  1  0
  4  5  2  0
  4  8  1  0
  5  6  1  0
  6  7  1  0
  8  7  2  0
  9  2  1  0
  9 11  1  0
 10  9  2  0
 12 11  1  0
 13 14  1  0
 12 13  1  1
 15 14  1  0
 16 15  1  0
 16 17  1  0
 18 12  1  0
 18 19  2  0
 20 18  1  0
 21 20  1  0
 21 27  1  0
 21 22  1  6
 23 22  1  0
 24 23  1  0
 25 24  1  0
 26 25  1  0
 27 28  1  0
 29 27  2  0
M  END
$$$$
