HKK.pdb
     RDKit          3D

 29 29  0  0  1  0  0  0  0  0999 V2000
   14.1391  -17.0451   11.7882 N   0  0  0  0  0  0  0  0  0  0  0  0
   14.7274  -18.3524   11.9861 C   0  0  1  0  0  0  0  0  0  0  0  0
   15.9470  -18.5118   11.1269 C   0  0  0  0  0  0  0  0  0  0  0  0
   15.5848  -18.8907    9.7489 C   0  0  0  0  0  0  0  0  0  0  0  0
   15.1475  -20.1753    9.4141 C   0  0  0  0  0  0  0  0  0  0  0  0
   14.9053  -20.1739    8.0844 N   0  0  0  0  0  0  0  0  0  0  0  0
   15.1833  -18.9394    7.6264 C   0  0  0  0  0  0  0  0  0  0  0  0
   15.5972  -18.1541    8.6345 N   0  0  0  0  0  0  0  0  0  0  0  0
   15.1879  -18.4558   13.4185 C   0  0  0  0  0  0  0  0  0  0  0  0
   15.5441  -17.4121   13.9980 O   0  0  0  0  0  0  0  0  0  0  0  0
   15.2225  -19.6754   14.0962 N   0  0  0  0  0  0  0  0  0  0  0  0
   15.5114  -19.8103   15.4640 C   0  0  1  0  0  0  0  0  0  0  0  0
   14.6514  -20.7073   16.2881 C   0  0  0  0  0  0  0  0  0  0  0  0
   15.0290  -20.7250   17.7343 C   0  0  0  0  0  0  0  0  0  0  0  0
   14.1570  -21.7148   18.5258 C   0  0  0  0  0  0  0  0  0  0  0  0
   14.5765  -21.6130   19.9863 C   0  0  0  0  0  0  0  0  0  0  0  0
   13.8035  -22.5460   20.7550 N   0  0  0  0  0  0  0  0  0  0  0  0
   16.9453  -20.1497   15.6590 C   0  0  0  0  0  0  0  0  0  0  0  0
   17.4256  -21.0813   14.9330 O   0  0  0  0  0  0  0  0  0  0  0  0
   17.7451  -19.4873   16.5919 N   0  0  0  0  0  0  0  0  0  0  0  0
   19.1917  -19.8801   16.6693 C   0  0  1  0  0  0  0  0  0  0  0  0
   19.9524  -18.6233   16.4988 C   0  0  0  0  0  0  0  0  0  0  0  0
   20.2538  -18.0449   15.1929 C   0  0  0  0  0  0  0  0  0  0  0  0
   21.1588  -16.8733   15.0655 C   0  0  0  0  0  0  0  0  0  0  0  0
   21.3497  -16.4286   13.6316 C   0  0  0  0  0  0  0  0  0  0  0  0
   22.1832  -15.2453   13.5441 N   0  0  0  0  0  0  0  0  0  0  0  0
   19.2461  -20.5501   17.9870 C   0  0  0  0  0  0  0  0  0  0  0  0
   19.8756  -21.7375   18.2934 O   0  0  0  0  0  0  0  0  0  0  0  0
   18.6541  -20.0119   18.9820 O   0  0  0  0  0  0  0  0  0  0  0  0
  2  3  1  0
  2  1  1  1
  3  4  1  0
  4  5  2  0
  4  8  1  0
  5  6  1  0
  6  7  1  0
  8  7  2  0
  9  2  1  0
  9 11  1  0
 10  9  2  0
 12 11  1  0
 13 14  1  0
 12 13  1  6
 15 14  1  0
 16 15  1  0
 16 17  1  0
 18 12  1  0
 18 19  2  0
 20 18  1  0
 21 20  1  0
 21 27  1  0
 21 22  1  1
 23 22  1  0
 24 23  1  0
 25 24  1  0
 26 25  1  0
 27 28  1  0
 29 27  2  0
M  END
$$$$
