HKK.pdb
     RDKit          3D

 29 29  0  0  1  0  0  0  0  0999 V2000
    8.6410  -12.7096   18.2482 N   0  0  0  0  0  0  0  0  0  0  0  0
    8.3731  -14.0090   18.8262 C   0  0  1  0  0  0  0  0  0  0  0  0
    9.2367  -15.0544   18.1839 C   0  0  0  0  0  0  0  0  0  0  0  0
    8.7472  -15.3985   16.8365 C   0  0  0  0  0  0  0  0  0  0  0  0
    7.6845  -14.7238   16.2290 C   0  0  0  0  0  0  0  0  0  0  0  0
    7.5028  -15.2892   15.0148 N   0  0  0  0  0  0  0  0  0  0  0  0
    8.4168  -16.2685   14.8865 C   0  0  0  0  0  0  0  0  0  0  0  0
    9.1769  -16.3399   15.9916 N   0  0  0  0  0  0  0  0  0  0  0  0
    8.7518  -13.9685   20.2855 C   0  0  0  0  0  0  0  0  0  0  0  0
    9.8648  -13.4996   20.5910 O   0  0  0  0  0  0  0  0  0  0  0  0
    7.8959  -14.4374   21.2832 N   0  0  0  0  0  0  0  0  0  0  0  0
    8.1787  -14.3785   22.6576 C   0  0  1  0  0  0  0  0  0  0  0  0
    7.0525  -14.5290   23.6232 C   0  0  0  0  0  0  0  0  0  0  0  0
    7.4346  -14.2109   25.0329 C   0  0  0  0  0  0  0  0  0  0  0  0
    6.9224  -12.8213   25.4490 C   0  0  0  0  0  0  0  0  0  0  0  0
    7.2756  -12.6350   26.9186 C   0  0  0  0  0  0  0  0  0  0  0  0
    6.8080  -11.3477   27.3465 N   0  0  0  0  0  0  0  0  0  0  0  0
    9.2797  -15.3165   23.0001 C   0  0  0  0  0  0  0  0  0  0  0  0
    9.1447  -16.5297   22.6322 O   0  0  0  0  0  0  0  0  0  0  0  0
   10.4185  -14.9033   23.6938 N   0  0  0  0  0  0  0  0  0  0  0  0
   10.9612  -15.8237   24.7479 C   0  0  1  0  0  0  0  0  0  0  0  0
    9.8087  -16.1580   25.6124 C   0  0  0  0  0  0  0  0  0  0  0  0
    9.9513  -16.5867   27.0004 C   0  0  0  0  0  0  0  0  0  0  0  0
   10.4022  -15.6382   28.0516 C   0  0  0  0  0  0  0  0  0  0  0  0
   10.4895  -16.2745   29.4219 C   0  0  0  0  0  0  0  0  0  0  0  0
   10.9883  -15.3424   30.4145 N   0  0  0  0  0  0  0  0  0  0  0  0
   11.5467  -16.9041   23.9244 C   0  0  0  0  0  0  0  0  0  0  0  0
   10.9735  -18.1179   23.6114 O   0  0  0  0  0  0  0  0  0  0  0  0
   12.7136  -16.7455   23.4311 O   0  0  0  0  0  0  0  0  0  0  0  0
  2  3  1  0
  2  1  1  6
  3  4  1  0
  4  5  2  0
  4  8  1  0
  5  6  1  0
  6  7  1  0
  8  7  2  0
  9  2  1  0
  9 11  1  0
 10  9  2  0
 12 11  1  0
 13 14  1  0
 12 13  1  1
 15 14  1  0
 16 15  1  0
 16 17  1  0
 18 12  1  0
 18 19  2  0
 20 18  1  0
 21 20  1  0
 21 27  1  0
 21 22  1  1
 23 22  1  0
 24 23  1  0
 25 24  1  0
 26 25  1  0
 27 28  1  0
 29 27  2  0
M  END
$$$$
