HKK.pdb
     RDKit          3D

 29 29  0  0  1  0  0  0  0  0999 V2000
    9.2212  -16.0273   20.0794 N   0  0  0  0  0  0  0  0  0  0  0  0
    8.2754  -15.1091   20.6763 C   0  0  1  0  0  0  0  0  0  0  0  0
    7.0425  -15.0043   19.8277 C   0  0  0  0  0  0  0  0  0  0  0  0
    7.3384  -14.3690   18.5307 C   0  0  0  0  0  0  0  0  0  0  0  0
    8.6332  -14.0029   18.1522 C   0  0  0  0  0  0  0  0  0  0  0  0
    8.5422  -13.4551   16.9199 N   0  0  0  0  0  0  0  0  0  0  0  0
    7.2456  -13.4855   16.5610 C   0  0  0  0  0  0  0  0  0  0  0  0
    6.5082  -14.0404   17.5369 N   0  0  0  0  0  0  0  0  0  0  0  0
    7.8410  -15.6706   22.0070 C   0  0  0  0  0  0  0  0  0  0  0  0
    6.8698  -15.1407   22.5796 O   0  0  0  0  0  0  0  0  0  0  0  0
    8.4934  -16.7528   22.5995 N   0  0  0  0  0  0  0  0  0  0  0  0
    8.1569  -17.2865   23.8544 C   0  0  1  0  0  0  0  0  0  0  0  0
    8.3387  -18.7495   24.0776 C   0  0  0  0  0  0  0  0  0  0  0  0
    7.9381  -19.1937   25.4476 C   0  0  0  0  0  0  0  0  0  0  0  0
    8.0643  -20.7195   25.5977 C   0  0  0  0  0  0  0  0  0  0  0  0
    7.5224  -21.0807   26.9744 C   0  0  0  0  0  0  0  0  0  0  0  0
    7.6715  -22.4939   27.1732 N   0  0  0  0  0  0  0  0  0  0  0  0
    8.8170  -16.5139   24.9392 C   0  0  0  0  0  0  0  0  0  0  0  0
   10.0701  -16.3076   24.8257 O   0  0  0  0  0  0  0  0  0  0  0  0
    8.1105  -16.0283   26.0409 N   0  0  0  0  0  0  0  0  0  0  0  0
    8.8599  -15.1814   27.0278 C   0  0  1  0  0  0  0  0  0  0  0  0
    7.9428  -14.0746   27.3758 C   0  0  0  0  0  0  0  0  0  0  0  0
    7.6662  -12.9566   26.4789 C   0  0  0  0  0  0  0  0  0  0  0  0
    6.6578  -11.9240   26.8318 C   0  0  0  0  0  0  0  0  0  0  0  0
    6.4436  -10.9081   25.7308 C   0  0  0  0  0  0  0  0  0  0  0  0
    5.3818   -9.9770   26.0601 N   0  0  0  0  0  0  0  0  0  0  0  0
    9.1844  -16.1698   28.0795 C   0  0  0  0  0  0  0  0  0  0  0  0
   10.1129  -16.0381   29.0897 O   0  0  0  0  0  0  0  0  0  0  0  0
    8.5675  -17.2876   28.0923 O   0  0  0  0  0  0  0  0  0  0  0  0
  2  3  1  0
  2  1  1  6
  3  4  1  0
  4  5  2  0
  4  8  1  0
  5  6  1  0
  6  7  1  0
  8  7  2  0
  9  2  1  0
  9 11  1  0
 10  9  2  0
 12 11  1  0
 13 14  1  0
 12 13  1  6
 15 14  1  0
 16 15  1  0
 16 17  1  0
 18 12  1  0
 18 19  2  0
 20 18  1  0
 21 20  1  0
 21 27  1  0
 21 22  1  1
 23 22  1  0
 24 23  1  0
 25 24  1  0
 26 25  1  0
 27 28  1  0
 29 27  2  0
M  END
$$$$
