WFA.pdb
     RDKit          3D

 31 33  0  0  1  0  0  0  0  0999 V2000
   28.2117  -18.3345  -12.6909 N   0  0  0  0  0  0  0  0  0  0  0  0
   27.0986  -19.0067  -13.3213 C   0  0  1  0  0  0  0  0  0  0  0  0
   27.3808  -19.4450  -14.7405 C   0  0  0  0  0  0  0  0  0  0  0  0
   27.7546  -18.3325  -15.6289 C   0  0  0  0  0  0  0  0  0  0  0  0
   28.9021  -18.2839  -16.3941 C   0  0  0  0  0  0  0  0  0  0  0  0
   28.8709  -17.0974  -17.0213 N   0  0  0  0  0  0  0  0  0  0  0  0
   27.7572  -16.4062  -16.6818 C   0  0  0  0  0  0  0  0  0  0  0  0
   27.2920  -15.1666  -17.0656 C   0  0  0  0  0  0  0  0  0  0  0  0
   26.0998  -14.7231  -16.5483 C   0  0  0  0  0  0  0  0  0  0  0  0
   25.3579  -15.4702  -15.6651 C   0  0  0  0  0  0  0  0  0  0  0  0
   25.8196  -16.7025  -15.2829 C   0  0  0  0  0  0  0  0  0  0  0  0
   27.0053  -17.1733  -15.7798 C   0  0  0  0  0  0  0  0  0  0  0  0
   26.6839  -20.1190  -12.4599 C   0  0  0  0  0  0  0  0  0  0  0  0
   26.9476  -21.3195  -12.7585 O   0  0  0  0  0  0  0  0  0  0  0  0
   25.9630  -19.9539  -11.2325 N   0  0  0  0  0  0  0  0  0  0  0  0
   25.1447  -21.0008  -10.6460 C   0  0  1  0  0  0  0  0  0  0  0  0
   25.2514  -20.7392   -9.1508 C   0  0  0  0  0  0  0  0  0  0  0  0
   26.6023  -20.7326   -8.6149 C   0  0  0  0  0  0  0  0  0  0  0  0
   26.9784  -19.7449   -7.7330 C   0  0  0  0  0  0  0  0  0  0  0  0
   28.2677  -19.7026   -7.1914 C   0  0  0  0  0  0  0  0  0  0  0  0
   29.1892  -20.6625   -7.5393 C   0  0  0  0  0  0  0  0  0  0  0  0
   28.8142  -21.6516   -8.4218 C   0  0  0  0  0  0  0  0  0  0  0  0
   27.5461  -21.6791   -8.9440 C   0  0  0  0  0  0  0  0  0  0  0  0
   23.7280  -20.9378  -11.0325 C   0  0  0  0  0  0  0  0  0  0  0  0
   22.8979  -21.6562  -10.4178 O   0  0  0  0  0  0  0  0  0  0  0  0
   21.5132  -19.0543  -13.3862 C   0  0  0  0  0  0  0  0  0  0  0  0
   21.8162  -20.1822  -12.3924 C   0  0  2  0  0  0  0  0  0  0  0  0
   23.2071  -20.1086  -12.0694 N   0  0  0  0  0  0  0  0  0  0  0  0
   21.3737  -21.4488  -12.9863 C   0  0  0  0  0  0  0  0  0  0  0  0
   20.0215  -21.6678  -13.1403 O   0  0  0  0  0  0  0  0  0  0  0  0
   22.1727  -22.3248  -13.3524 O   0  0  0  0  0  0  0  0  0  0  0  0
  2  1  1  1
  2  3  1  0
  2 13  1  0
  3  4  1  0
  4  5  2  0
  6  5  1  0
  7  6  1  0
  8  7  2  0
  9  8  1  0
 10 11  1  0
 10  9  2  0
 11 12  2  0
 12  7  1  0
 12  4  1  0
 13 14  2  0
 15 13  1  0
 15 16  1  0
 16 17  1  1
 18 17  1  0
 19 18  2  0
 20 19  1  0
 21 22  1  0
 21 20  2  0
 22 23  2  0
 23 18  1  0
 24 16  1  0
 24 25  2  0
 27 26  1  6
 27 28  1  0
 28 24  1  0
 29 27  1  0
 29 30  1  0
 31 29  2  0
M  END
$$$$
