WFA.pdb
     RDKit          3D

 31 33  0  0  1  0  0  0  0  0999 V2000
   29.0688  -20.7993  -14.0934 N   0  0  0  0  0  0  0  0  0  0  0  0
   27.8616  -20.0615  -13.7992 C   0  0  1  0  0  0  0  0  0  0  0  0
   27.0675  -19.6843  -15.0292 C   0  0  0  0  0  0  0  0  0  0  0  0
   27.7242  -18.6554  -15.8519 C   0  0  0  0  0  0  0  0  0  0  0  0
   28.4439  -18.9048  -17.0028 C   0  0  0  0  0  0  0  0  0  0  0  0
   28.8939  -17.7096  -17.4165 N   0  0  0  0  0  0  0  0  0  0  0  0
   28.4873  -16.7286  -16.5764 C   0  0  0  0  0  0  0  0  0  0  0  0
   28.6915  -15.3654  -16.5878 C   0  0  0  0  0  0  0  0  0  0  0  0
   28.1368  -14.6094  -15.5846 C   0  0  0  0  0  0  0  0  0  0  0  0
   27.3880  -15.1636  -14.5743 C   0  0  0  0  0  0  0  0  0  0  0  0
   27.1846  -16.5187  -14.5619 C   0  0  0  0  0  0  0  0  0  0  0  0
   27.7248  -17.3007  -15.5473 C   0  0  0  0  0  0  0  0  0  0  0  0
   27.0725  -20.8344  -12.8341 C   0  0  0  0  0  0  0  0  0  0  0  0
   26.9833  -22.0937  -12.9117 O   0  0  0  0  0  0  0  0  0  0  0  0
   26.3507  -20.2511  -11.7423 N   0  0  0  0  0  0  0  0  0  0  0  0
   25.3705  -20.9822  -10.9586 C   0  0  1  0  0  0  0  0  0  0  0  0
   25.3850  -20.2674   -9.6153 C   0  0  0  0  0  0  0  0  0  0  0  0
   26.6443  -20.3269   -8.8922 C   0  0  0  0  0  0  0  0  0  0  0  0
   26.8812  -19.4400   -7.8667 C   0  0  0  0  0  0  0  0  0  0  0  0
   28.0784  -19.4641   -7.1431 C   0  0  0  0  0  0  0  0  0  0  0  0
   29.0482  -20.3889   -7.4529 C   0  0  0  0  0  0  0  0  0  0  0  0
   28.8124  -21.2772   -8.4791 C   0  0  0  0  0  0  0  0  0  0  0  0
   27.6333  -21.2405   -9.1790 C   0  0  0  0  0  0  0  0  0  0  0  0
   24.0070  -20.9250  -11.5047 C   0  0  0  0  0  0  0  0  0  0  0  0
   23.4889  -19.8006  -11.7289 O   0  0  0  0  0  0  0  0  0  0  0  0
   21.5960  -23.0750  -13.2583 C   0  0  0  0  0  0  0  0  0  0  0  0
   21.8960  -21.8789  -12.3469 C   0  0  2  0  0  0  0  0  0  0  0  0
   23.2077  -22.0662  -11.8094 N   0  0  0  0  0  0  0  0  0  0  0  0
   20.8185  -21.7742  -11.3565 C   0  0  0  0  0  0  0  0  0  0  0  0
   19.5549  -21.4347  -11.7905 O   0  0  0  0  0  0  0  0  0  0  0  0
   21.0065  -21.9803  -10.1474 O   0  0  0  0  0  0  0  0  0  0  0  0
  2  1  1  6
  2  3  1  0
  2 13  1  0
  3  4  1  0
  4  5  2  0
  6  5  1  0
  7  6  1  0
  8  7  2  0
  9  8  1  0
 10 11  1  0
 10  9  2  0
 11 12  2  0
 12  7  1  0
 12  4  1  0
 13 14  2  0
 15 13  1  0
 15 16  1  0
 16 17  1  1
 18 17  1  0
 19 18  2  0
 20 19  1  0
 21 22  1  0
 21 20  2  0
 22 23  2  0
 23 18  1  0
 24 16  1  0
 24 25  2  0
 27 26  1  6
 27 28  1  0
 28 24  1  0
 29 27  1  0
 29 30  1  0
 31 29  2  0
M  END
$$$$
