WFA.pdb
     RDKit          3D

 31 33  0  0  1  0  0  0  0  0999 V2000
   20.5939  -13.9387  -18.2829 N   0  0  0  0  0  0  0  0  0  0  0  0
   19.7705  -14.8597  -19.0325 C   0  0  1  0  0  0  0  0  0  0  0  0
   20.3403  -16.2581  -19.1077 C   0  0  0  0  0  0  0  0  0  0  0  0
   21.5420  -16.3513  -19.9526 C   0  0  0  0  0  0  0  0  0  0  0  0
   22.8402  -16.2669  -19.4919 C   0  0  0  0  0  0  0  0  0  0  0  0
   23.6196  -16.3664  -20.5803 N   0  0  0  0  0  0  0  0  0  0  0  0
   22.8663  -16.5091  -21.6964 C   0  0  0  0  0  0  0  0  0  0  0  0
   23.2083  -16.6516  -23.0242 C   0  0  0  0  0  0  0  0  0  0  0  0
   22.2038  -16.7860  -23.9507 C   0  0  0  0  0  0  0  0  0  0  0  0
   20.8749  -16.7835  -23.6004 C   0  0  0  0  0  0  0  0  0  0  0  0
   20.5339  -16.6416  -22.2808 C   0  0  0  0  0  0  0  0  0  0  0  0
   21.5117  -16.5046  -21.3323 C   0  0  0  0  0  0  0  0  0  0  0  0
   18.4169  -14.8324  -18.4680 C   0  0  0  0  0  0  0  0  0  0  0  0
   18.2190  -14.6230  -17.2364 O   0  0  0  0  0  0  0  0  0  0  0  0
   17.2254  -15.0328  -19.2383 N   0  0  0  0  0  0  0  0  0  0  0  0
   15.8978  -15.0712  -18.6505 C   0  0  1  0  0  0  0  0  0  0  0  0
   15.1557  -13.9584  -19.3761 C   0  0  0  0  0  0  0  0  0  0  0  0
   15.3872  -12.6184  -18.8630 C   0  0  0  0  0  0  0  0  0  0  0  0
   14.5855  -12.1285  -17.8570 C   0  0  0  0  0  0  0  0  0  0  0  0
   14.7752  -10.8455  -17.3324 C   0  0  0  0  0  0  0  0  0  0  0  0
   15.7808  -10.0459  -17.8234 C   0  0  0  0  0  0  0  0  0  0  0  0
   16.5839  -10.5349  -18.8302 C   0  0  0  0  0  0  0  0  0  0  0  0
   16.3849  -11.7951  -19.3338 C   0  0  0  0  0  0  0  0  0  0  0  0
   15.1821  -16.3352  -18.8751 C   0  0  0  0  0  0  0  0  0  0  0  0
   15.2486  -16.8782  -20.0081 O   0  0  0  0  0  0  0  0  0  0  0  0
   13.8628  -19.1276  -16.9184 C   0  0  0  0  0  0  0  0  0  0  0  0
   13.8361  -18.2867  -18.2005 C   0  0  2  0  0  0  0  0  0  0  0  0
   14.4031  -17.0114  -17.8902 N   0  0  0  0  0  0  0  0  0  0  0  0
   12.4576  -18.2580  -18.7023 C   0  0  0  0  0  0  0  0  0  0  0  0
   11.8938  -19.4341  -19.1484 O   0  0  0  0  0  0  0  0  0  0  0  0
   11.7863  -17.2150  -18.7383 O   0  0  0  0  0  0  0  0  0  0  0  0
  2  1  1  1
  2  3  1  0
  2 13  1  0
  3  4  1  0
  4  5  2  0
  6  5  1  0
  7  6  1  0
  8  7  2  0
  9  8  1  0
 10 11  1  0
 10  9  2  0
 11 12  2  0
 12  7  1  0
 12  4  1  0
 13 14  2  0
 15 13  1  0
 15 16  1  0
 16 17  1  6
 18 17  1  0
 19 18  2  0
 20 19  1  0
 21 22  1  0
 21 20  2  0
 22 23  2  0
 23 18  1  0
 24 16  1  0
 24 25  2  0
 27 26  1  1
 27 28  1  0
 28 24  1  0
 29 27  1  0
 29 30  1  0
 31 29  2  0
M  END
$$$$
