WFA.pdb
     RDKit          3D

 31 33  0  0  1  0  0  0  0  0999 V2000
   26.1200  -21.8052  -12.9687 N   0  0  0  0  0  0  0  0  0  0  0  0
   26.0587  -20.6412  -12.1145 C   0  0  1  0  0  0  0  0  0  0  0  0
   24.7581  -19.8780  -12.2233 C   0  0  0  0  0  0  0  0  0  0  0  0
   24.5418  -19.2851  -13.5531 C   0  0  0  0  0  0  0  0  0  0  0  0
   23.3750  -19.3870  -14.2832 C   0  0  0  0  0  0  0  0  0  0  0  0
   23.6099  -18.7405  -15.4361 N   0  0  0  0  0  0  0  0  0  0  0  0
   24.8684  -18.2412  -15.4565 C   0  0  0  0  0  0  0  0  0  0  0  0
   25.5527  -17.5121  -16.4054 C   0  0  0  0  0  0  0  0  0  0  0  0
   26.8445  -17.1321  -16.1364 C   0  0  0  0  0  0  0  0  0  0  0  0
   27.4753  -17.4524  -14.9582 C   0  0  0  0  0  0  0  0  0  0  0  0
   26.7959  -18.1775  -14.0145 C   0  0  0  0  0  0  0  0  0  0  0  0
   25.5068  -18.5724  -14.2523 C   0  0  0  0  0  0  0  0  0  0  0  0
   26.3519  -21.0618  -10.7402 C   0  0  0  0  0  0  0  0  0  0  0  0
   26.0662  -22.2237  -10.3299 O   0  0  0  0  0  0  0  0  0  0  0  0
   26.9742  -20.2197   -9.7620 N   0  0  0  0  0  0  0  0  0  0  0  0
   27.1922  -20.6295   -8.3858 C   0  0  1  0  0  0  0  0  0  0  0  0
   28.1373  -19.5668   -7.8442 C   0  0  0  0  0  0  0  0  0  0  0  0
   28.4758  -19.6940   -6.4366 C   0  0  0  0  0  0  0  0  0  0  0  0
   27.9628  -18.7935   -5.5307 C   0  0  0  0  0  0  0  0  0  0  0  0
   28.2608  -18.8809   -4.1665 C   0  0  0  0  0  0  0  0  0  0  0  0
   29.0830  -19.8833   -3.7072 C   0  0  0  0  0  0  0  0  0  0  0  0
   29.5971  -20.7851   -4.6127 C   0  0  0  0  0  0  0  0  0  0  0  0
   29.2952  -20.6859   -5.9471 C   0  0  0  0  0  0  0  0  0  0  0  0
   25.9733  -20.6345   -7.5644 C   0  0  0  0  0  0  0  0  0  0  0  0
   25.1247  -19.7207   -7.7308 O   0  0  0  0  0  0  0  0  0  0  0  0
   23.7248  -22.8235   -5.8829 C   0  0  0  0  0  0  0  0  0  0  0  0
   24.4678  -21.4841   -5.8075 C   0  0  2  0  0  0  0  0  0  0  0  0
   25.6677  -21.6142   -6.5741 N   0  0  0  0  0  0  0  0  0  0  0  0
   24.6577  -21.1431   -4.3931 C   0  0  0  0  0  0  0  0  0  0  0  0
   23.7174  -20.3471   -3.7748 O   0  0  0  0  0  0  0  0  0  0  0  0
   25.6322  -21.5456   -3.7388 O   0  0  0  0  0  0  0  0  0  0  0  0
  2  1  1  6
  2  3  1  0
  2 13  1  0
  3  4  1  0
  4  5  2  0
  6  5  1  0
  7  6  1  0
  8  7  2  0
  9  8  1  0
 10 11  1  0
 10  9  2  0
 11 12  2  0
 12  7  1  0
 12  4  1  0
 13 14  2  0
 15 13  1  0
 15 16  1  0
 16 17  1  1
 18 17  1  0
 19 18  2  0
 20 19  1  0
 21 22  1  0
 21 20  2  0
 22 23  2  0
 23 18  1  0
 24 16  1  0
 24 25  2  0
 27 26  1  1
 27 28  1  0
 28 24  1  0
 29 27  1  0
 29 30  1  0
 31 29  2  0
M  END
$$$$
