WFA.pdb
     RDKit          3D

 31 33  0  0  1  0  0  0  0  0999 V2000
   27.8179  -19.8462  -17.0968 N   0  0  0  0  0  0  0  0  0  0  0  0
   26.8746  -19.5059  -16.0563 C   0  0  1  0  0  0  0  0  0  0  0  0
   25.7172  -18.6622  -16.5405 C   0  0  0  0  0  0  0  0  0  0  0  0
   26.1309  -17.3419  -17.0430 C   0  0  0  0  0  0  0  0  0  0  0  0
   26.1542  -16.9746  -18.3731 C   0  0  0  0  0  0  0  0  0  0  0  0
   26.6193  -15.7156  -18.3947 N   0  0  0  0  0  0  0  0  0  0  0  0
   26.8860  -15.2828  -17.1396 C   0  0  0  0  0  0  0  0  0  0  0  0
   27.3663  -14.0813  -16.6643 C   0  0  0  0  0  0  0  0  0  0  0  0
   27.5309  -13.9292  -15.3096 C   0  0  0  0  0  0  0  0  0  0  0  0
   27.2341  -14.9298  -14.4156 C   0  0  0  0  0  0  0  0  0  0  0  0
   26.7569  -16.1247  -14.8872 C   0  0  0  0  0  0  0  0  0  0  0  0
   26.5821  -16.3086  -16.2325 C   0  0  0  0  0  0  0  0  0  0  0  0
   26.4354  -20.7464  -15.4085 C   0  0  0  0  0  0  0  0  0  0  0  0
   26.1213  -21.7688  -16.0837 O   0  0  0  0  0  0  0  0  0  0  0  0
   26.3261  -20.9118  -13.9893 N   0  0  0  0  0  0  0  0  0  0  0  0
   25.4174  -21.8597  -13.3687 C   0  0  1  0  0  0  0  0  0  0  0  0
   26.1091  -22.2097  -12.0592 C   0  0  0  0  0  0  0  0  0  0  0  0
   26.0694  -21.1756  -11.0386 C   0  0  0  0  0  0  0  0  0  0  0  0
   25.1505  -21.2641  -10.0176 C   0  0  0  0  0  0  0  0  0  0  0  0
   25.0798  -20.2924   -9.0136 C   0  0  0  0  0  0  0  0  0  0  0  0
   25.9409  -19.2202   -9.0352 C   0  0  0  0  0  0  0  0  0  0  0  0
   26.8610  -19.1304  -10.0565 C   0  0  0  0  0  0  0  0  0  0  0  0
   26.9177  -20.0915  -11.0335 C   0  0  0  0  0  0  0  0  0  0  0  0
   24.0915  -21.3034  -13.0637 C   0  0  0  0  0  0  0  0  0  0  0  0
   23.9800  -20.0635  -12.8814 O   0  0  0  0  0  0  0  0  0  0  0  0
   21.4082  -20.5302  -14.0186 C   0  0  0  0  0  0  0  0  0  0  0  0
   21.6452  -21.4013  -12.7790 C   0  0  2  0  0  0  0  0  0  0  0  0
   22.8951  -22.0723  -12.9576 N   0  0  0  0  0  0  0  0  0  0  0  0
   20.4803  -22.2758  -12.6025 C   0  0  0  0  0  0  0  0  0  0  0  0
   19.2659  -21.7018  -12.2930 O   0  0  0  0  0  0  0  0  0  0  0  0
   20.5523  -23.5088  -12.7220 O   0  0  0  0  0  0  0  0  0  0  0  0
  2  1  1  6
  2  3  1  0
  2 13  1  0
  3  4  1  0
  4  5  2  0
  6  5  1  0
  7  6  1  0
  8  7  2  0
  9  8  1  0
 10 11  1  0
 10  9  2  0
 11 12  2  0
 12  7  1  0
 12  4  1  0
 13 14  2  0
 15 13  1  0
 15 16  1  0
 16 17  1  1
 18 17  1  0
 19 18  2  0
 20 19  1  0
 21 22  1  0
 21 20  2  0
 22 23  2  0
 23 18  1  0
 24 16  1  0
 24 25  2  0
 27 26  1  6
 27 28  1  0
 28 24  1  0
 29 27  1  0
 29 30  1  0
 31 29  2  0
M  END
$$$$
