WFA.pdb
     RDKit          3D

 31 33  0  0  1  0  0  0  0  0999 V2000
   26.4403  -20.8062  -13.1569 N   0  0  0  0  0  0  0  0  0  0  0  0
   25.4739  -20.6289  -12.0972 C   0  0  1  0  0  0  0  0  0  0  0  0
   24.1779  -21.3722  -12.3289 C   0  0  0  0  0  0  0  0  0  0  0  0
   23.3792  -20.8172  -13.4337 C   0  0  0  0  0  0  0  0  0  0  0  0
   23.5732  -21.1026  -14.7700 C   0  0  0  0  0  0  0  0  0  0  0  0
   22.6638  -20.3716  -15.4338 N   0  0  0  0  0  0  0  0  0  0  0  0
   21.9130  -19.6452  -14.5723 C   0  0  0  0  0  0  0  0  0  0  0  0
   20.8711  -18.7661  -14.7767 C   0  0  0  0  0  0  0  0  0  0  0  0
   20.2879  -18.1728  -13.6843 C   0  0  0  0  0  0  0  0  0  0  0  0
   20.7059  -18.4250  -12.3997 C   0  0  0  0  0  0  0  0  0  0  0  0
   21.7417  -19.2985  -12.1954 C   0  0  0  0  0  0  0  0  0  0  0  0
   22.3452  -19.9061  -13.2636 C   0  0  0  0  0  0  0  0  0  0  0  0
   26.1114  -20.9902  -10.8267 C   0  0  0  0  0  0  0  0  0  0  0  0
   26.5050  -22.1702  -10.5972 O   0  0  0  0  0  0  0  0  0  0  0  0
   26.3434  -20.0652   -9.7571 N   0  0  0  0  0  0  0  0  0  0  0  0
   26.9316  -20.4524   -8.4868 C   0  0  1  0  0  0  0  0  0  0  0  0
   27.5582  -19.1625   -7.9777 C   0  0  0  0  0  0  0  0  0  0  0  0
   28.3086  -19.2819   -6.7388 C   0  0  0  0  0  0  0  0  0  0  0  0
   29.1619  -20.3474   -6.5615 C   0  0  0  0  0  0  0  0  0  0  0  0
   29.9049  -20.4992   -5.3858 C   0  0  0  0  0  0  0  0  0  0  0  0
   29.7898  -19.5712   -4.3773 C   0  0  0  0  0  0  0  0  0  0  0  0
   28.9362  -18.5044   -4.5534 C   0  0  0  0  0  0  0  0  0  0  0  0
   28.2146  -18.3697   -5.7121 C   0  0  0  0  0  0  0  0  0  0  0  0
   25.9536  -20.9213   -7.4947 C   0  0  0  0  0  0  0  0  0  0  0  0
   24.9708  -20.1869   -7.2161 O   0  0  0  0  0  0  0  0  0  0  0  0
   25.4364  -21.5870   -4.5680 C   0  0  0  0  0  0  0  0  0  0  0  0
   25.0834  -22.4607   -5.7777 C   0  0  2  0  0  0  0  0  0  0  0  0
   26.0298  -22.1696   -6.8092 N   0  0  0  0  0  0  0  0  0  0  0  0
   23.6786  -22.2185   -6.1251 C   0  0  0  0  0  0  0  0  0  0  0  0
   22.7048  -22.5640   -5.2126 O   0  0  0  0  0  0  0  0  0  0  0  0
   23.3402  -21.7155   -7.2078 O   0  0  0  0  0  0  0  0  0  0  0  0
  2  1  1  6
  2  3  1  0
  2 13  1  0
  3  4  1  0
  4  5  2  0
  6  5  1  0
  7  6  1  0
  8  7  2  0
  9  8  1  0
 10 11  1  0
 10  9  2  0
 11 12  2  0
 12  7  1  0
 12  4  1  0
 13 14  2  0
 15 13  1  0
 15 16  1  0
 16 17  1  1
 18 17  1  0
 19 18  2  0
 20 19  1  0
 21 22  1  0
 21 20  2  0
 22 23  2  0
 23 18  1  0
 24 16  1  0
 24 25  2  0
 27 26  1  1
 27 28  1  0
 28 24  1  0
 29 27  1  0
 29 30  1  0
 31 29  2  0
M  END
$$$$
