WFA.pdb
     RDKit          3D

 31 33  0  0  1  0  0  0  0  0999 V2000
   25.7454  -20.5566  -13.1954 N   0  0  0  0  0  0  0  0  0  0  0  0
   24.9061  -20.4867  -12.0211 C   0  0  1  0  0  0  0  0  0  0  0  0
   23.6273  -21.2841  -12.1423 C   0  0  0  0  0  0  0  0  0  0  0  0
   22.6816  -20.7207  -13.1195 C   0  0  0  0  0  0  0  0  0  0  0  0
   22.5493  -21.1450  -14.4261 C   0  0  0  0  0  0  0  0  0  0  0  0
   21.6117  -20.3544  -14.9720 N   0  0  0  0  0  0  0  0  0  0  0  0
   21.1547  -19.4585  -14.0654 C   0  0  0  0  0  0  0  0  0  0  0  0
   20.2048  -18.4635  -14.1546 C   0  0  0  0  0  0  0  0  0  0  0  0
   19.9440  -17.7023  -13.0420 C   0  0  0  0  0  0  0  0  0  0  0  0
   20.5949  -17.8982  -11.8476 C   0  0  0  0  0  0  0  0  0  0  0  0
   21.5396  -18.8868  -11.7580 C   0  0  0  0  0  0  0  0  0  0  0  0
   21.8235  -19.6629  -12.8495 C   0  0  0  0  0  0  0  0  0  0  0  0
   25.7075  -20.8804  -10.8575 C   0  0  0  0  0  0  0  0  0  0  0  0
   26.3342  -21.9787  -10.8281 O   0  0  0  0  0  0  0  0  0  0  0  0
   25.8530  -20.0786   -9.6788 N   0  0  0  0  0  0  0  0  0  0  0  0
   26.5879  -20.5185   -8.5057 C   0  0  1  0  0  0  0  0  0  0  0  0
   27.3256  -19.2651   -8.0581 C   0  0  0  0  0  0  0  0  0  0  0  0
   28.1628  -19.4229   -6.8805 C   0  0  0  0  0  0  0  0  0  0  0  0
   29.0641  -20.4616   -6.8222 C   0  0  0  0  0  0  0  0  0  0  0  0
   29.8907  -20.6485   -5.7091 C   0  0  0  0  0  0  0  0  0  0  0  0
   29.8114  -19.7831   -4.6431 C   0  0  0  0  0  0  0  0  0  0  0  0
   28.9098  -18.7431   -4.7001 C   0  0  0  0  0  0  0  0  0  0  0  0
   28.1063  -18.5734   -5.7988 C   0  0  0  0  0  0  0  0  0  0  0  0
   25.7317  -20.9771   -7.4025 C   0  0  0  0  0  0  0  0  0  0  0  0
   24.7341  -20.2823   -7.0783 O   0  0  0  0  0  0  0  0  0  0  0  0
   25.5283  -21.5905   -4.3744 C   0  0  0  0  0  0  0  0  0  0  0  0
   25.0865  -22.4699   -5.5504 C   0  0  2  0  0  0  0  0  0  0  0  0
   25.9442  -22.1731   -6.6552 N   0  0  0  0  0  0  0  0  0  0  0  0
   23.6563  -22.2404   -5.7838 C   0  0  0  0  0  0  0  0  0  0  0  0
   22.7645  -22.5665   -4.7845 O   0  0  0  0  0  0  0  0  0  0  0  0
   23.2254  -21.7648   -6.8458 O   0  0  0  0  0  0  0  0  0  0  0  0
  2  1  1  6
  2  3  1  0
  2 13  1  0
  3  4  1  0
  4  5  2  0
  6  5  1  0
  7  6  1  0
  8  7  2  0
  9  8  1  0
 10 11  1  0
 10  9  2  0
 11 12  2  0
 12  7  1  0
 12  4  1  0
 13 14  2  0
 15 13  1  0
 15 16  1  0
 16 17  1  1
 18 17  1  0
 19 18  2  0
 20 19  1  0
 21 22  1  0
 21 20  2  0
 22 23  2  0
 23 18  1  0
 24 16  1  0
 24 25  2  0
 27 26  1  1
 27 28  1  0
 28 24  1  0
 29 27  1  0
 29 30  1  0
 31 29  2  0
M  END
$$$$
