WFA.pdb
     RDKit          3D

 31 33  0  0  1  0  0  0  0  0999 V2000
   25.5122  -11.0330  -18.8010 N   0  0  0  0  0  0  0  0  0  0  0  0
   25.3647  -10.4951  -17.4679 C   0  0  1  0  0  0  0  0  0  0  0  0
   26.6749  -10.0967  -16.8272 C   0  0  0  0  0  0  0  0  0  0  0  0
   27.6102  -11.2223  -16.6685 C   0  0  0  0  0  0  0  0  0  0  0  0
   28.8829  -11.2728  -17.1997 C   0  0  0  0  0  0  0  0  0  0  0  0
   29.3754  -12.4718  -16.8505 N   0  0  0  0  0  0  0  0  0  0  0  0
   28.4681  -13.1690  -16.1265 C   0  0  0  0  0  0  0  0  0  0  0  0
   28.5167  -14.4212  -15.5524 C   0  0  0  0  0  0  0  0  0  0  0  0
   27.4205  -14.8681  -14.8566 C   0  0  0  0  0  0  0  0  0  0  0  0
   26.2817  -14.1123  -14.7137 C   0  0  0  0  0  0  0  0  0  0  0  0
   26.2323  -12.8674  -15.2844 C   0  0  0  0  0  0  0  0  0  0  0  0
   27.3083  -12.3928  -15.9854 C   0  0  0  0  0  0  0  0  0  0  0  0
   24.4038   -9.3882  -17.5210 C   0  0  0  0  0  0  0  0  0  0  0  0
   24.4127   -8.5507  -18.4688 O   0  0  0  0  0  0  0  0  0  0  0  0
   23.3919   -9.1599  -16.5324 N   0  0  0  0  0  0  0  0  0  0  0  0
   22.4495   -8.0569  -16.6018 C   0  0  1  0  0  0  0  0  0  0  0  0
   21.1054   -8.7213  -16.3417 C   0  0  0  0  0  0  0  0  0  0  0  0
   19.9499   -7.8444  -16.4319 C   0  0  0  0  0  0  0  0  0  0  0  0
   19.6247   -7.2716  -17.6405 C   0  0  0  0  0  0  0  0  0  0  0  0
   18.5196   -6.4238  -17.7721 C   0  0  0  0  0  0  0  0  0  0  0  0
   17.7327   -6.1482  -16.6783 C   0  0  0  0  0  0  0  0  0  0  0  0
   18.0570   -6.7208  -15.4681 C   0  0  0  0  0  0  0  0  0  0  0  0
   19.1439   -7.5500  -15.3555 C   0  0  0  0  0  0  0  0  0  0  0  0
   22.6657   -7.0221  -15.5806 C   0  0  0  0  0  0  0  0  0  0  0  0
   22.7772   -7.3703  -14.3767 O   0  0  0  0  0  0  0  0  0  0  0  0
   23.2191   -3.3271  -15.3753 C   0  0  0  0  0  0  0  0  0  0  0  0
   22.9915   -4.7175  -14.7698 C   0  0  2  0  0  0  0  0  0  0  0  0
   22.7634   -5.6252  -15.8507 N   0  0  0  0  0  0  0  0  0  0  0  0
   21.9043   -4.6192  -13.7894 C   0  0  0  0  0  0  0  0  0  0  0  0
   22.1909   -4.8524  -12.4614 O   0  0  0  0  0  0  0  0  0  0  0  0
   20.7412   -4.3346  -14.1151 O   0  0  0  0  0  0  0  0  0  0  0  0
  2  1  1  6
  2  3  1  0
  2 13  1  0
  3  4  1  0
  4  5  2  0
  6  5  1  0
  7  6  1  0
  8  7  2  0
  9  8  1  0
 10 11  1  0
 10  9  2  0
 11 12  2  0
 12  7  1  0
 12  4  1  0
 13 14  2  0
 15 13  1  0
 15 16  1  0
 16 17  1  1
 18 17  1  0
 19 18  2  0
 20 19  1  0
 21 22  1  0
 21 20  2  0
 22 23  2  0
 23 18  1  0
 24 16  1  0
 24 25  2  0
 27 26  1  6
 27 28  1  0
 28 24  1  0
 29 27  1  0
 29 30  1  0
 31 29  2  0
M  END
$$$$
