WFA.pdb
     RDKit          3D

 31 33  0  0  1  0  0  0  0  0999 V2000
   27.1847  -20.8398  -15.2161 N   0  0  0  0  0  0  0  0  0  0  0  0
   27.1482  -19.9085  -14.1117 C   0  0  1  0  0  0  0  0  0  0  0  0
   25.9393  -19.0007  -14.1247 C   0  0  0  0  0  0  0  0  0  0  0  0
   25.8395  -18.1834  -15.3449 C   0  0  0  0  0  0  0  0  0  0  0  0
   24.6880  -18.0056  -16.0847 C   0  0  0  0  0  0  0  0  0  0  0  0
   25.0380  -17.2269  -17.1206 N   0  0  0  0  0  0  0  0  0  0  0  0
   26.3535  -16.9120  -17.0592 C   0  0  0  0  0  0  0  0  0  0  0  0
   27.1549  -16.1473  -17.8796 C   0  0  0  0  0  0  0  0  0  0  0  0
   28.4799  -15.9988  -17.5511 C   0  0  0  0  0  0  0  0  0  0  0  0
   29.0314  -16.5841  -16.4367 C   0  0  0  0  0  0  0  0  0  0  0  0
   28.2356  -17.3447  -15.6207 C   0  0  0  0  0  0  0  0  0  0  0  0
   26.9105  -17.5130  -15.9207 C   0  0  0  0  0  0  0  0  0  0  0  0
   27.2684  -20.6689  -12.8632 C   0  0  0  0  0  0  0  0  0  0  0  0
   27.0384  -21.9121  -12.8222 O   0  0  0  0  0  0  0  0  0  0  0  0
   27.6492  -20.0908  -11.6085 N   0  0  0  0  0  0  0  0  0  0  0  0
   27.2806  -20.6646  -10.3262 C   0  0  1  0  0  0  0  0  0  0  0  0
   27.6308  -19.5669   -9.3321 C   0  0  0  0  0  0  0  0  0  0  0  0
   27.5867  -19.9573   -7.9328 C   0  0  0  0  0  0  0  0  0  0  0  0
   26.6839  -19.3532   -7.0874 C   0  0  0  0  0  0  0  0  0  0  0  0
   26.6062  -19.7007   -5.7344 C   0  0  0  0  0  0  0  0  0  0  0  0
   27.4441  -20.6651   -5.2250 C   0  0  0  0  0  0  0  0  0  0  0  0
   28.3480  -21.2705   -6.0700 C   0  0  0  0  0  0  0  0  0  0  0  0
   28.4118  -20.9185   -7.3942 C   0  0  0  0  0  0  0  0  0  0  0  0
   25.8488  -20.9717  -10.1994 C   0  0  0  0  0  0  0  0  0  0  0  0
   25.4633  -21.6853   -9.2375 O   0  0  0  0  0  0  0  0  0  0  0  0
   23.3722  -22.4004  -11.0220 C   0  0  0  0  0  0  0  0  0  0  0  0
   23.4768  -20.8788  -10.8628 C   0  0  2  0  0  0  0  0  0  0  0  0
   24.8394  -20.5145  -11.0972 N   0  0  0  0  0  0  0  0  0  0  0  0
   22.9461  -20.5173   -9.5434 C   0  0  0  0  0  0  0  0  0  0  0  0
   22.5755  -19.2090   -9.3177 O   0  0  0  0  0  0  0  0  0  0  0  0
   22.8208  -21.3467   -8.6289 O   0  0  0  0  0  0  0  0  0  0  0  0
  2  1  1  6
  2  3  1  0
  2 13  1  0
  3  4  1  0
  4  5  2  0
  6  5  1  0
  7  6  1  0
  8  7  2  0
  9  8  1  0
 10 11  1  0
 10  9  2  0
 11 12  2  0
 12  7  1  0
 12  4  1  0
 13 14  2  0
 15 13  1  0
 15 16  1  0
 16 17  1  1
 18 17  1  0
 19 18  2  0
 20 19  1  0
 21 22  1  0
 21 20  2  0
 22 23  2  0
 23 18  1  0
 24 16  1  0
 24 25  2  0
 27 26  1  1
 27 28  1  0
 28 24  1  0
 29 27  1  0
 29 30  1  0
 31 29  2  0
M  END
$$$$
