WFA.pdb
     RDKit          3D

 31 33  0  0  1  0  0  0  0  0999 V2000
   29.0871  -21.0719  -13.4791 N   0  0  0  0  0  0  0  0  0  0  0  0
   27.8592  -20.3718  -13.1788 C   0  0  1  0  0  0  0  0  0  0  0  0
   26.8977  -20.3086  -14.3438 C   0  0  0  0  0  0  0  0  0  0  0  0
   27.3432  -19.4044  -15.4166 C   0  0  0  0  0  0  0  0  0  0  0  0
   27.9368  -19.8089  -16.5950 C   0  0  0  0  0  0  0  0  0  0  0  0
   28.2122  -18.6812  -17.2692 N   0  0  0  0  0  0  0  0  0  0  0  0
   27.8171  -17.5943  -16.5648 C   0  0  0  0  0  0  0  0  0  0  0  0
   27.8827  -16.2456  -16.8421 C   0  0  0  0  0  0  0  0  0  0  0  0
   27.3837  -15.3600  -15.9189 C   0  0  0  0  0  0  0  0  0  0  0  0
   26.8235  -15.7710  -14.7333 C   0  0  0  0  0  0  0  0  0  0  0  0
   26.7581  -17.1115  -14.4566 C   0  0  0  0  0  0  0  0  0  0  0  0
   27.2474  -18.0205  -15.3559 C   0  0  0  0  0  0  0  0  0  0  0  0
   27.2605  -20.9814  -11.9866 C   0  0  0  0  0  0  0  0  0  0  0  0
   27.3140  -22.2290  -11.7850 O   0  0  0  0  0  0  0  0  0  0  0  0
   26.5799  -20.2407  -10.9661 N   0  0  0  0  0  0  0  0  0  0  0  0
   25.5805  -20.8290  -10.0916 C   0  0  1  0  0  0  0  0  0  0  0  0
   25.6953  -20.0060   -8.8168 C   0  0  0  0  0  0  0  0  0  0  0  0
   26.9779  -20.0855   -8.1380 C   0  0  0  0  0  0  0  0  0  0  0  0
   27.2810  -19.1763   -7.1501 C   0  0  0  0  0  0  0  0  0  0  0  0
   28.5028  -19.2184   -6.4698 C   0  0  0  0  0  0  0  0  0  0  0  0
   29.4302  -20.1839   -6.7850 C   0  0  0  0  0  0  0  0  0  0  0  0
   29.1282  -21.0945   -7.7736 C   0  0  0  0  0  0  0  0  0  0  0  0
   27.9257  -21.0398   -8.4313 C   0  0  0  0  0  0  0  0  0  0  0  0
   24.2051  -20.7186  -10.5981 C   0  0  0  0  0  0  0  0  0  0  0  0
   23.2496  -20.7938   -9.7831 O   0  0  0  0  0  0  0  0  0  0  0  0
   22.4284  -20.0951  -13.8341 C   0  0  0  0  0  0  0  0  0  0  0  0
   22.4826  -20.3919  -12.3306 C   0  0  2  0  0  0  0  0  0  0  0  0
   23.8592  -20.5268  -11.9683 N   0  0  0  0  0  0  0  0  0  0  0  0
   21.6430  -21.5651  -12.0633 C   0  0  0  0  0  0  0  0  0  0  0  0
   20.3527  -21.3655  -11.6215 O   0  0  0  0  0  0  0  0  0  0  0  0
   22.0545  -22.7251  -12.2210 O   0  0  0  0  0  0  0  0  0  0  0  0
  2  1  1  6
  2  3  1  0
  2 13  1  0
  3  4  1  0
  4  5  2  0
  6  5  1  0
  7  6  1  0
  8  7  2  0
  9  8  1  0
 10 11  1  0
 10  9  2  0
 11 12  2  0
 12  7  1  0
 12  4  1  0
 13 14  2  0
 15 13  1  0
 15 16  1  0
 16 17  1  1
 18 17  1  0
 19 18  2  0
 20 19  1  0
 21 22  1  0
 21 20  2  0
 22 23  2  0
 23 18  1  0
 24 16  1  0
 24 25  2  0
 27 26  1  6
 27 28  1  0
 28 24  1  0
 29 27  1  0
 29 30  1  0
 31 29  2  0
M  END
$$$$
