WFA.pdb
     RDKit          3D

 31 33  0  0  1  0  0  0  0  0999 V2000
   20.9635  -12.9610  -18.8032 N   0  0  0  0  0  0  0  0  0  0  0  0
   21.0651  -11.5959  -19.2663 C   0  0  1  0  0  0  0  0  0  0  0  0
   20.2536  -11.3166  -20.5110 C   0  0  0  0  0  0  0  0  0  0  0  0
   20.8519  -11.8786  -21.7329 C   0  0  0  0  0  0  0  0  0  0  0  0
   21.2702  -13.1857  -21.8787 C   0  0  0  0  0  0  0  0  0  0  0  0
   21.7777  -13.2689  -23.1187 N   0  0  0  0  0  0  0  0  0  0  0  0
   21.6941  -12.0744  -23.7508 C   0  0  0  0  0  0  0  0  0  0  0  0
   22.0718  -11.6749  -25.0149 C   0  0  0  0  0  0  0  0  0  0  0  0
   21.8496  -10.3717  -25.3860 C   0  0  0  0  0  0  0  0  0  0  0  0
   21.2657   -9.4563  -24.5436 C   0  0  0  0  0  0  0  0  0  0  0  0
   20.8901   -9.8524  -23.2866 C   0  0  0  0  0  0  0  0  0  0  0  0
   21.0986  -11.1447  -22.8856 C   0  0  0  0  0  0  0  0  0  0  0  0
   20.7164  -10.7048  -18.1546 C   0  0  0  0  0  0  0  0  0  0  0  0
   19.6932  -10.9098  -17.4397 O   0  0  0  0  0  0  0  0  0  0  0  0
   21.4823   -9.5519  -17.7837 N   0  0  0  0  0  0  0  0  0  0  0  0
   21.0657   -8.6221  -16.7486 C   0  0  1  0  0  0  0  0  0  0  0  0
   22.3108   -8.4685  -15.8873 C   0  0  0  0  0  0  0  0  0  0  0  0
   22.1788   -7.5624  -14.7586 C   0  0  0  0  0  0  0  0  0  0  0  0
   22.5965   -6.2568  -14.8833 C   0  0  0  0  0  0  0  0  0  0  0  0
   22.4854   -5.3509  -13.8230 C   0  0  0  0  0  0  0  0  0  0  0  0
   21.9491   -5.7605  -12.6245 C   0  0  0  0  0  0  0  0  0  0  0  0
   21.5307   -7.0669  -12.4983 C   0  0  0  0  0  0  0  0  0  0  0  0
   21.6465   -7.9429  -13.5474 C   0  0  0  0  0  0  0  0  0  0  0  0
   20.6810   -7.2974  -17.2560 C   0  0  0  0  0  0  0  0  0  0  0  0
   21.4624   -6.6954  -18.0370 O   0  0  0  0  0  0  0  0  0  0  0  0
   17.7795   -5.1441  -17.7500 C   0  0  0  0  0  0  0  0  0  0  0  0
   19.2620   -5.2861  -17.3846 C   0  0  2  0  0  0  0  0  0  0  0  0
   19.4661   -6.6259  -16.9287 N   0  0  0  0  0  0  0  0  0  0  0  0
   19.6001   -4.2339  -16.4195 C   0  0  0  0  0  0  0  0  0  0  0  0
   20.2500   -3.1065  -16.8740 O   0  0  0  0  0  0  0  0  0  0  0  0
   19.3216   -4.3254  -15.2137 O   0  0  0  0  0  0  0  0  0  0  0  0
  2  1  1  1
  2  3  1  0
  2 13  1  0
  3  4  1  0
  4  5  2  0
  6  5  1  0
  7  6  1  0
  8  7  2  0
  9  8  1  0
 10 11  1  0
 10  9  2  0
 11 12  2  0
 12  7  1  0
 12  4  1  0
 13 14  2  0
 15 13  1  0
 15 16  1  0
 16 17  1  1
 18 17  1  0
 19 18  2  0
 20 19  1  0
 21 22  1  0
 21 20  2  0
 22 23  2  0
 23 18  1  0
 24 16  1  0
 24 25  2  0
 27 26  1  1
 27 28  1  0
 28 24  1  0
 29 27  1  0
 29 30  1  0
 31 29  2  0
M  END
$$$$
