WFA.pdb
     RDKit          3D

 31 33  0  0  1  0  0  0  0  0999 V2000
   31.4078  -31.3305  -16.8667 N   0  0  0  0  0  0  0  0  0  0  0  0
   30.6921  -32.5760  -16.7092 C   0  0  1  0  0  0  0  0  0  0  0  0
   31.5108  -33.6666  -16.0564 C   0  0  0  0  0  0  0  0  0  0  0  0
   32.4518  -34.3193  -16.9812 C   0  0  0  0  0  0  0  0  0  0  0  0
   33.7253  -33.8675  -17.2618 C   0  0  0  0  0  0  0  0  0  0  0  0
   34.2238  -34.7239  -18.1674 N   0  0  0  0  0  0  0  0  0  0  0  0
   33.3194  -35.6875  -18.4627 C   0  0  0  0  0  0  0  0  0  0  0  0
   33.3741  -36.7692  -19.3154 C   0  0  0  0  0  0  0  0  0  0  0  0
   32.2796  -37.5939  -19.4017 C   0  0  0  0  0  0  0  0  0  0  0  0
   31.1367  -37.3784  -18.6696 C   0  0  0  0  0  0  0  0  0  0  0  0
   31.0813  -36.3032  -17.8218 C   0  0  0  0  0  0  0  0  0  0  0  0
   32.1554  -35.4613  -17.7134 C   0  0  0  0  0  0  0  0  0  0  0  0
   29.4431  -32.3023  -15.9905 C   0  0  0  0  0  0  0  0  0  0  0  0
   29.3930  -31.4560  -15.0518 O   0  0  0  0  0  0  0  0  0  0  0  0
   28.1971  -32.9489  -16.2782 N   0  0  0  0  0  0  0  0  0  0  0  0
   26.9871  -32.7177  -15.5087 C   0  0  1  0  0  0  0  0  0  0  0  0
   25.9320  -32.4608  -16.5747 C   0  0  0  0  0  0  0  0  0  0  0  0
   24.5854  -32.2365  -16.0762 C   0  0  0  0  0  0  0  0  0  0  0  0
   24.2293  -30.9875  -15.6201 C   0  0  0  0  0  0  0  0  0  0  0  0
   22.9433  -30.7275  -15.1343 C   0  0  0  0  0  0  0  0  0  0  0  0
   22.0049  -31.7326  -15.1062 C   0  0  0  0  0  0  0  0  0  0  0  0
   22.3598  -32.9830  -15.5623 C   0  0  0  0  0  0  0  0  0  0  0  0
   23.6249  -33.2218  -16.0356 C   0  0  0  0  0  0  0  0  0  0  0  0
   26.5649  -33.8702  -14.7001 C   0  0  0  0  0  0  0  0  0  0  0  0
   26.7188  -35.0286  -15.1662 O   0  0  0  0  0  0  0  0  0  0  0  0
   25.2339  -34.5628  -11.2705 C   0  0  0  0  0  0  0  0  0  0  0  0
   25.7366  -34.9762  -12.6590 C   0  0  2  0  0  0  0  0  0  0  0  0
   25.9840  -33.7791  -13.4008 N   0  0  0  0  0  0  0  0  0  0  0  0
   24.7536  -35.8914  -13.2497 C   0  0  0  0  0  0  0  0  0  0  0  0
   23.4675  -35.4376  -13.4502 O   0  0  0  0  0  0  0  0  0  0  0  0
   25.0406  -37.0545  -13.5730 O   0  0  0  0  0  0  0  0  0  0  0  0
  2  1  1  1
  2  3  1  0
  2 13  1  0
  3  4  1  0
  4  5  2  0
  6  5  1  0
  7  6  1  0
  8  7  2  0
  9  8  1  0
 10 11  1  0
 10  9  2  0
 11 12  2  0
 12  7  1  0
 12  4  1  0
 13 14  2  0
 15 13  1  0
 15 16  1  0
 16 17  1  6
 18 17  1  0
 19 18  2  0
 20 19  1  0
 21 22  1  0
 21 20  2  0
 22 23  2  0
 23 18  1  0
 24 16  1  0
 24 25  2  0
 27 26  1  1
 27 28  1  0
 28 24  1  0
 29 27  1  0
 29 30  1  0
 31 29  2  0
M  END
$$$$
