WFA.pdb
     RDKit          3D

 31 33  0  0  1  0  0  0  0  0999 V2000
   19.7475  -11.6995  -20.0134 N   0  0  0  0  0  0  0  0  0  0  0  0
   19.1387  -11.2412  -18.7855 C   0  0  1  0  0  0  0  0  0  0  0  0
   18.8930  -12.3454  -17.7824 C   0  0  0  0  0  0  0  0  0  0  0  0
   17.8564  -13.2990  -18.2101 C   0  0  0  0  0  0  0  0  0  0  0  0
   18.0164  -14.2493  -19.1981 C   0  0  0  0  0  0  0  0  0  0  0  0
   16.8338  -14.8774  -19.2933 N   0  0  0  0  0  0  0  0  0  0  0  0
   15.9461  -14.3620  -18.4102 C   0  0  0  0  0  0  0  0  0  0  0  0
   14.6320  -14.6770  -18.1380 C   0  0  0  0  0  0  0  0  0  0  0  0
   13.9756  -13.9699  -17.1609 C   0  0  0  0  0  0  0  0  0  0  0  0
   14.5821  -12.9634  -16.4482 C   0  0  0  0  0  0  0  0  0  0  0  0
   15.8883  -12.6494  -16.7183 C   0  0  0  0  0  0  0  0  0  0  0  0
   16.5706  -13.3351  -17.6872 C   0  0  0  0  0  0  0  0  0  0  0  0
   19.9617  -10.1568  -18.2396 C   0  0  0  0  0  0  0  0  0  0  0  0
   21.2212  -10.2527  -18.1732 O   0  0  0  0  0  0  0  0  0  0  0  0
   19.4304   -8.9208  -17.7461 N   0  0  0  0  0  0  0  0  0  0  0  0
   20.2584   -7.8736  -17.1740 C   0  0  1  0  0  0  0  0  0  0  0  0
   19.4577   -6.6060  -17.4339 C   0  0  0  0  0  0  0  0  0  0  0  0
   20.0312   -5.3855  -16.8918 C   0  0  0  0  0  0  0  0  0  0  0  0
   21.2035   -4.8934  -17.4191 C   0  0  0  0  0  0  0  0  0  0  0  0
   21.7883   -3.7207  -16.9289 C   0  0  0  0  0  0  0  0  0  0  0  0
   21.1893   -3.0349  -15.8981 C   0  0  0  0  0  0  0  0  0  0  0  0
   20.0160   -3.5263  -15.3694 C   0  0  0  0  0  0  0  0  0  0  0  0
   19.4553   -4.6775  -15.8612 C   0  0  0  0  0  0  0  0  0  0  0  0
   20.4703   -8.0049  -15.7254 C   0  0  0  0  0  0  0  0  0  0  0  0
   19.4699   -8.1438  -14.9751 O   0  0  0  0  0  0  0  0  0  0  0  0
   23.0851   -9.1747  -13.5021 C   0  0  0  0  0  0  0  0  0  0  0  0
   21.8378   -8.3041  -13.6967 C   0  0  2  0  0  0  0  0  0  0  0  0
   21.7462   -7.9891  -15.0884 N   0  0  0  0  0  0  0  0  0  0  0  0
   21.9373   -7.1509  -12.7951 C   0  0  0  0  0  0  0  0  0  0  0  0
   21.7901   -7.3585  -11.4404 O   0  0  0  0  0  0  0  0  0  0  0  0
   22.1484   -6.0006  -13.2101 O   0  0  0  0  0  0  0  0  0  0  0  0
  2  1  1  6
  2  3  1  0
  2 13  1  0
  3  4  1  0
  4  5  2  0
  6  5  1  0
  7  6  1  0
  8  7  2  0
  9  8  1  0
 10 11  1  0
 10  9  2  0
 11 12  2  0
 12  7  1  0
 12  4  1  0
 13 14  2  0
 15 13  1  0
 15 16  1  0
 16 17  1  1
 18 17  1  0
 19 18  2  0
 20 19  1  0
 21 22  1  0
 21 20  2  0
 22 23  2  0
 23 18  1  0
 24 16  1  0
 24 25  2  0
 27 26  1  6
 27 28  1  0
 28 24  1  0
 29 27  1  0
 29 30  1  0
 31 29  2  0
M  END
$$$$
