WFA.pdb
     RDKit          3D

 31 33  0  0  1  0  0  0  0  0999 V2000
   26.3454  -20.0930  -12.6896 N   0  0  0  0  0  0  0  0  0  0  0  0
   25.7327  -20.5101  -11.4491 C   0  0  1  0  0  0  0  0  0  0  0  0
   24.8540  -21.7325  -11.5886 C   0  0  0  0  0  0  0  0  0  0  0  0
   23.9522  -21.6703  -12.7503 C   0  0  0  0  0  0  0  0  0  0  0  0
   23.9900  -22.5330  -13.8268 C   0  0  0  0  0  0  0  0  0  0  0  0
   23.0314  -22.1097  -14.6659 N   0  0  0  0  0  0  0  0  0  0  0  0
   22.3991  -21.0240  -14.1609 C   0  0  0  0  0  0  0  0  0  0  0  0
   21.3635  -20.2548  -14.6467 C   0  0  0  0  0  0  0  0  0  0  0  0
   20.9199  -19.1974  -13.8912 C   0  0  0  0  0  0  0  0  0  0  0  0
   21.4709  -18.8818  -12.6725 C   0  0  0  0  0  0  0  0  0  0  0  0
   22.5006  -19.6458  -12.1888 C   0  0  0  0  0  0  0  0  0  0  0  0
   22.9667  -20.7066  -12.9181 C   0  0  0  0  0  0  0  0  0  0  0  0
   26.7910  -20.6880  -10.4492 C   0  0  0  0  0  0  0  0  0  0  0  0
   27.6744  -21.5845  -10.5747 O   0  0  0  0  0  0  0  0  0  0  0  0
   26.9205  -19.8836   -9.2704 N   0  0  0  0  0  0  0  0  0  0  0  0
   27.4577  -20.3898   -8.0195 C   0  0  1  0  0  0  0  0  0  0  0  0
   27.8618  -19.1285   -7.2702 C   0  0  0  0  0  0  0  0  0  0  0  0
   28.4459  -19.3449   -5.9571 C   0  0  0  0  0  0  0  0  0  0  0  0
   27.9739  -18.6324   -4.8781 C   0  0  0  0  0  0  0  0  0  0  0  0
   28.5058  -18.8115   -3.5965 C   0  0  0  0  0  0  0  0  0  0  0  0
   29.5226  -19.7157   -3.3964 C   0  0  0  0  0  0  0  0  0  0  0  0
   29.9960  -20.4295   -4.4754 C   0  0  0  0  0  0  0  0  0  0  0  0
   29.4637  -20.2423   -5.7257 C   0  0  0  0  0  0  0  0  0  0  0  0
   26.4805  -21.1258   -7.2048 C   0  0  0  0  0  0  0  0  0  0  0  0
   26.8957  -21.8407   -6.2563 O   0  0  0  0  0  0  0  0  0  0  0  0
   23.9809  -21.0383   -5.2780 C   0  0  0  0  0  0  0  0  0  0  0  0
   24.2214  -21.8617   -6.5491 C   0  0  2  0  0  0  0  0  0  0  0  0
   25.0690  -21.0923   -7.4059 N   0  0  0  0  0  0  0  0  0  0  0  0
   22.9171  -22.2251   -7.1146 C   0  0  0  0  0  0  0  0  0  0  0  0
   22.0880  -23.0487   -6.3836 O   0  0  0  0  0  0  0  0  0  0  0  0
   22.5381  -21.8175   -8.2236 O   0  0  0  0  0  0  0  0  0  0  0  0
  2  1  1  6
  2  3  1  0
  2 13  1  0
  3  4  1  0
  4  5  2  0
  6  5  1  0
  7  6  1  0
  8  7  2  0
  9  8  1  0
 10 11  1  0
 10  9  2  0
 11 12  2  0
 12  7  1  0
 12  4  1  0
 13 14  2  0
 15 13  1  0
 15 16  1  0
 16 17  1  1
 18 17  1  0
 19 18  2  0
 20 19  1  0
 21 22  1  0
 21 20  2  0
 22 23  2  0
 23 18  1  0
 24 16  1  0
 24 25  2  0
 27 26  1  1
 27 28  1  0
 28 24  1  0
 29 27  1  0
 29 30  1  0
 31 29  2  0
M  END
$$$$
