PDR.pdb
     RDKit          3D

 27 27  0  0  1  0  0  0  0  0999 V2000
   24.7685  -11.8349  -20.6974 N   0  0  0  0  0  0  0  0  0  0  0  0
   26.1069  -11.3300  -20.9648 C   0  0  0  0  0  0  0  0  0  0  0  0
   26.9798  -12.1884  -20.1077 C   0  0  0  0  0  0  0  0  0  0  0  0
   26.0987  -12.6268  -18.9821 C   0  0  0  0  0  0  0  0  0  0  0  0
   24.7052  -12.0980  -19.2954 C   0  0  1  0  0  0  0  0  0  0  0  0
   24.5632  -10.8355  -18.4923 C   0  0  0  0  0  0  0  0  0  0  0  0
   24.4749  -10.9411  -17.2593 O   0  0  0  0  0  0  0  0  0  0  0  0
   24.5278   -9.5630  -19.0809 N   0  0  0  0  0  0  0  0  0  0  0  0
   24.3900   -8.3463  -18.3132 C   0  0  1  0  0  0  0  0  0  0  0  0
   24.8742   -7.1321  -19.0452 C   0  0  0  0  0  0  0  0  0  0  0  0
   26.3351   -7.1338  -19.2704 C   0  0  0  0  0  0  0  0  0  0  0  0
   27.0541   -7.5365  -18.3098 O   0  0  0  0  0  0  0  0  0  0  0  0
   22.9832   -8.1137  -17.9227 C   0  0  0  0  0  0  0  0  0  0  0  0
   22.1248   -8.0774  -18.8559 O   0  0  0  0  0  0  0  0  0  0  0  0
   26.9663   -6.7420  -20.4146 O   0  0  0  0  0  0  0  0  0  0  0  0
   17.1764  -13.0275  -15.0812 N   0  0  0  0  0  0  0  0  0  0  0  0
   16.4205  -11.8137  -15.0295 C   0  0  0  0  0  0  0  0  0  0  0  0
   15.1471  -11.9399  -14.8944 N   0  0  0  0  0  0  0  0  0  0  0  0
   17.0834  -10.5564  -15.1262 N   0  0  0  0  0  0  0  0  0  0  0  0
   18.4609  -10.5755  -15.5743 C   0  0  0  0  0  0  0  0  0  0  0  0
   19.1120   -9.2748  -15.7283 C   0  0  0  0  0  0  0  0  0  0  0  0
   20.4849   -9.0799  -16.1400 C   0  0  0  0  0  0  0  0  0  0  0  0
   21.0726   -7.7479  -16.2796 C   0  0  2  0  0  0  0  0  0  0  0  0
   22.5365   -7.9328  -16.6126 N   0  0  0  0  0  0  0  0  0  0  0  0
   21.0350   -6.9163  -15.0812 C   0  0  0  0  0  0  0  0  0  0  0  0
   19.9104   -6.2759  -14.6518 O   0  0  0  0  0  0  0  0  0  0  0  0
   22.0952   -6.7375  -14.3573 O   0  0  0  0  0  0  0  0  0  0  0  0
  1  2  1  0
  2  3  1  0
  4  3  1  0
  5  1  1  0
  5  4  1  0
  5  6  1  1
  7  6  2  0
  8  6  1  0
  9  8  1  0
  9 10  1  6
 11 10  1  0
 11 12  2  0
 13  9  1  0
 13 14  2  0
 15 11  1  0
 17 18  2  0
 17 16  1  0
 19 17  1  0
 20 19  1  0
 21 20  1  0
 22 21  1  0
 23 22  1  1
 23 24  1  0
 24 13  1  0
 25 23  1  0
 26 25  1  0
 27 25  2  0
M  END
$$$$
