PDR.pdb
     RDKit          3D

 27 27  0  0  1  0  0  0  0  0999 V2000
   27.7655  -21.1314  -19.2205 N   0  0  0  0  0  0  0  0  0  0  0  0
   28.5431  -19.9177  -19.0214 C   0  0  0  0  0  0  0  0  0  0  0  0
   29.4112  -20.2492  -17.8510 C   0  0  0  0  0  0  0  0  0  0  0  0
   28.6493  -21.2876  -17.0914 C   0  0  0  0  0  0  0  0  0  0  0  0
   27.4127  -21.6067  -17.9211 C   0  0  1  0  0  0  0  0  0  0  0  0
   26.2994  -20.8019  -17.3113 C   0  0  0  0  0  0  0  0  0  0  0  0
   26.6083  -19.8501  -16.5779 O   0  0  0  0  0  0  0  0  0  0  0  0
   24.9453  -21.0865  -17.5401 N   0  0  0  0  0  0  0  0  0  0  0  0
   23.8715  -20.3035  -16.9720 C   0  0  1  0  0  0  0  0  0  0  0  0
   22.7647  -20.0318  -17.9445 C   0  0  0  0  0  0  0  0  0  0  0  0
   21.7262  -19.1289  -17.4048 C   0  0  0  0  0  0  0  0  0  0  0  0
   20.7156  -19.6808  -16.8795 O   0  0  0  0  0  0  0  0  0  0  0  0
   23.2870  -20.9712  -15.7894 C   0  0  0  0  0  0  0  0  0  0  0  0
   23.0462  -22.2127  -15.8892 O   0  0  0  0  0  0  0  0  0  0  0  0
   21.7655  -17.7654  -17.4255 O   0  0  0  0  0  0  0  0  0  0  0  0
   25.6383  -21.4103   -8.5886 N   0  0  0  0  0  0  0  0  0  0  0  0
   26.1164  -20.3560   -9.4294 C   0  0  0  0  0  0  0  0  0  0  0  0
   26.5259  -19.2918   -8.8331 N   0  0  0  0  0  0  0  0  0  0  0  0
   26.1206  -20.5191  -10.8447 N   0  0  0  0  0  0  0  0  0  0  0  0
   25.7060  -21.8095  -11.3561 C   0  0  0  0  0  0  0  0  0  0  0  0
   24.6759  -21.7963  -12.3944 C   0  0  0  0  0  0  0  0  0  0  0  0
   23.4501  -21.0306  -12.3347 C   0  0  0  0  0  0  0  0  0  0  0  0
   22.4408  -21.0961  -13.3911 C   0  0  2  0  0  0  0  0  0  0  0  0
   22.9840  -20.3388  -14.5825 N   0  0  0  0  0  0  0  0  0  0  0  0
   21.1578  -20.4780  -13.0730 C   0  0  0  0  0  0  0  0  0  0  0  0
   20.2399  -21.0486  -12.2416 O   0  0  0  0  0  0  0  0  0  0  0  0
   20.8206  -19.3355  -13.5839 O   0  0  0  0  0  0  0  0  0  0  0  0
  1  2  1  0
  2  3  1  0
  4  3  1  0
  5  1  1  0
  5  4  1  0
  5  6  1  1
  7  6  2  0
  8  6  1  0
  9  8  1  0
  9 10  1  6
 11 10  1  0
 11 12  2  0
 13  9  1  0
 13 14  2  0
 15 11  1  0
 17 18  2  0
 17 16  1  0
 19 17  1  0
 20 19  1  0
 21 20  1  0
 22 21  1  0
 23 22  1  1
 23 24  1  0
 24 13  1  0
 25 23  1  0
 26 25  1  0
 27 25  2  0
M  END
$$$$
