PDR.pdb
     RDKit          3D

 27 27  0  0  1  0  0  0  0  0999 V2000
   24.8674   -9.3446  -17.0855 N   0  0  0  0  0  0  0  0  0  0  0  0
   25.6736   -8.3498  -16.3942 C   0  0  0  0  0  0  0  0  0  0  0  0
   26.3636   -9.1401  -15.3299 C   0  0  0  0  0  0  0  0  0  0  0  0
   25.4572  -10.2994  -15.0657 C   0  0  0  0  0  0  0  0  0  0  0  0
   24.3245  -10.1996  -16.0789 C   0  0  1  0  0  0  0  0  0  0  0  0
   23.1840   -9.5510  -15.3458 C   0  0  0  0  0  0  0  0  0  0  0  0
   22.7293  -10.1353  -14.3503 O   0  0  0  0  0  0  0  0  0  0  0  0
   22.6259   -8.3272  -15.7432 N   0  0  0  0  0  0  0  0  0  0  0  0
   21.4496   -7.7621  -15.1222 C   0  0  1  0  0  0  0  0  0  0  0  0
   21.4740   -6.2649  -15.0718 C   0  0  0  0  0  0  0  0  0  0  0  0
   22.2429   -5.7350  -13.9259 C   0  0  0  0  0  0  0  0  0  0  0  0
   22.3840   -6.5087  -12.9343 O   0  0  0  0  0  0  0  0  0  0  0  0
   20.2180   -8.1754  -15.8282 C   0  0  0  0  0  0  0  0  0  0  0  0
   20.2251   -8.0948  -17.0941 O   0  0  0  0  0  0  0  0  0  0  0  0
   22.8069   -4.4952  -13.8487 O   0  0  0  0  0  0  0  0  0  0  0  0
   13.8861  -13.9783  -13.8662 N   0  0  0  0  0  0  0  0  0  0  0  0
   13.1635  -12.9097  -14.4851 C   0  0  0  0  0  0  0  0  0  0  0  0
   11.8810  -13.0142  -14.4871 N   0  0  0  0  0  0  0  0  0  0  0  0
   13.8668  -11.8098  -15.0553 N   0  0  0  0  0  0  0  0  0  0  0  0
   15.3121  -11.9031  -15.0881 C   0  0  0  0  0  0  0  0  0  0  0  0
   16.0174  -10.8220  -15.7759 C   0  0  0  0  0  0  0  0  0  0  0  0
   17.2195  -10.1787  -15.2924 C   0  0  0  0  0  0  0  0  0  0  0  0
   17.8325   -9.0506  -15.9928 C   0  0  2  0  0  0  0  0  0  0  0  0
   19.0591   -8.6435  -15.2067 N   0  0  0  0  0  0  0  0  0  0  0  0
   17.0063   -7.8524  -16.0974 C   0  0  0  0  0  0  0  0  0  0  0  0
   16.2746   -7.5445  -17.2060 O   0  0  0  0  0  0  0  0  0  0  0  0
   16.9342   -7.0021  -15.1217 O   0  0  0  0  0  0  0  0  0  0  0  0
  1  2  1  0
  2  3  1  0
  4  3  1  0
  5  1  1  0
  5  4  1  0
  5  6  1  1
  7  6  2  0
  8  6  1  0
  9  8  1  0
  9 10  1  6
 11 10  1  0
 11 12  2  0
 13  9  1  0
 13 14  2  0
 15 11  1  0
 17 18  2  0
 17 16  1  0
 19 17  1  0
 20 19  1  0
 21 20  1  0
 22 21  1  0
 23 22  1  1
 23 24  1  0
 24 13  1  0
 25 23  1  0
 26 25  1  0
 27 25  2  0
M  END
$$$$
