PDR.pdb
     RDKit          3D

 27 27  0  0  1  0  0  0  0  0999 V2000
   29.3034  -22.3607  -12.2195 N   0  0  0  0  0  0  0  0  0  0  0  0
   30.2424  -21.3100  -12.5828 C   0  0  0  0  0  0  0  0  0  0  0  0
   30.5766  -20.6742  -11.2722 C   0  0  0  0  0  0  0  0  0  0  0  0
   29.3831  -20.9283  -10.4083 C   0  0  0  0  0  0  0  0  0  0  0  0
   28.4444  -21.8113  -11.2199 C   0  0  1  0  0  0  0  0  0  0  0  0
   27.4221  -20.8794  -11.8076 C   0  0  0  0  0  0  0  0  0  0  0  0
   26.8764  -20.0654  -11.0469 O   0  0  0  0  0  0  0  0  0  0  0  0
   27.0704  -20.8993  -13.1652 N   0  0  0  0  0  0  0  0  0  0  0  0
   26.0325  -20.0603  -13.7198 C   0  0  1  0  0  0  0  0  0  0  0  0
   26.2078  -19.8003  -15.1848 C   0  0  0  0  0  0  0  0  0  0  0  0
   27.0124  -18.5930  -15.4682 C   0  0  0  0  0  0  0  0  0  0  0  0
   27.2265  -17.8154  -14.4928 O   0  0  0  0  0  0  0  0  0  0  0  0
   24.6946  -20.6564  -13.5185 C   0  0  0  0  0  0  0  0  0  0  0  0
   24.5447  -21.8666  -13.8677 O   0  0  0  0  0  0  0  0  0  0  0  0
   27.5375  -18.2506  -16.6798 O   0  0  0  0  0  0  0  0  0  0  0  0
   17.6548  -21.9861   -9.4262 N   0  0  0  0  0  0  0  0  0  0  0  0
   18.8275  -22.5212   -8.8053 C   0  0  0  0  0  0  0  0  0  0  0  0
   18.6646  -23.5844   -8.0990 N   0  0  0  0  0  0  0  0  0  0  0  0
   20.0863  -21.8790   -8.9864 N   0  0  0  0  0  0  0  0  0  0  0  0
   20.0679  -20.5597   -9.5845 C   0  0  0  0  0  0  0  0  0  0  0  0
   20.4026  -20.4864  -11.0065 C   0  0  0  0  0  0  0  0  0  0  0  0
   21.6804  -20.0624  -11.5355 C   0  0  0  0  0  0  0  0  0  0  0  0
   22.2784  -20.6858  -12.7156 C   0  0  2  0  0  0  0  0  0  0  0  0
   23.5951  -19.9886  -12.9765 N   0  0  0  0  0  0  0  0  0  0  0  0
   21.5078  -20.5637  -13.9487 C   0  0  0  0  0  0  0  0  0  0  0  0
   21.5250  -19.4481  -14.7325 O   0  0  0  0  0  0  0  0  0  0  0  0
   20.7480  -21.5294  -14.3613 O   0  0  0  0  0  0  0  0  0  0  0  0
  1  2  1  0
  2  3  1  0
  4  3  1  0
  5  1  1  0
  5  4  1  0
  5  6  1  6
  7  6  2  0
  8  6  1  0
  9  8  1  0
  9 10  1  6
 11 10  1  0
 11 12  2  0
 13  9  1  0
 13 14  2  0
 15 11  1  0
 17 18  2  0
 17 16  1  0
 19 17  1  0
 20 19  1  0
 21 20  1  0
 22 21  1  0
 23 22  1  1
 23 24  1  0
 24 13  1  0
 25 23  1  0
 26 25  1  0
 27 25  2  0
M  END
$$$$
