PDR.pdb
     RDKit          3D

 27 27  0  0  1  0  0  0  0  0999 V2000
   31.6964  -21.7622  -12.2424 N   0  0  0  0  0  0  0  0  0  0  0  0
   32.0472  -20.8119  -11.1977 C   0  0  0  0  0  0  0  0  0  0  0  0
   31.4992  -21.4406   -9.9576 C   0  0  0  0  0  0  0  0  0  0  0  0
   30.3656  -22.2935  -10.4298 C   0  0  0  0  0  0  0  0  0  0  0  0
   30.3750  -22.2182  -11.9509 C   0  0  1  0  0  0  0  0  0  0  0  0
   29.3350  -21.1945  -12.3103 C   0  0  0  0  0  0  0  0  0  0  0  0
   29.4127  -20.0782  -11.7746 O   0  0  0  0  0  0  0  0  0  0  0  0
   28.2965  -21.4550  -13.2163 N   0  0  0  0  0  0  0  0  0  0  0  0
   27.2929  -20.4747  -13.5634 C   0  0  1  0  0  0  0  0  0  0  0  0
   27.2696  -20.1507  -15.0260 C   0  0  0  0  0  0  0  0  0  0  0  0
   28.4392  -19.3599  -15.4643 C   0  0  0  0  0  0  0  0  0  0  0  0
   28.6028  -18.2364  -14.9049 O   0  0  0  0  0  0  0  0  0  0  0  0
   25.9408  -20.9291  -13.1746 C   0  0  0  0  0  0  0  0  0  0  0  0
   25.6497  -22.1406  -13.4120 O   0  0  0  0  0  0  0  0  0  0  0  0
   29.3468  -19.7357  -16.4109 O   0  0  0  0  0  0  0  0  0  0  0  0
   20.2833  -21.3210   -6.8014 N   0  0  0  0  0  0  0  0  0  0  0  0
   20.1497  -22.2757   -7.8588 C   0  0  0  0  0  0  0  0  0  0  0  0
   19.1003  -23.0197   -7.8265 N   0  0  0  0  0  0  0  0  0  0  0  0
   21.1484  -22.3627   -8.8710 N   0  0  0  0  0  0  0  0  0  0  0  0
   22.1823  -21.3481   -8.8595 C   0  0  0  0  0  0  0  0  0  0  0  0
   22.2090  -20.4349  -10.0017 C   0  0  0  0  0  0  0  0  0  0  0  0
   23.3898  -20.1024  -10.7683 C   0  0  0  0  0  0  0  0  0  0  0  0
   23.6532  -20.6873  -12.0826 C   0  0  2  0  0  0  0  0  0  0  0  0
   24.9709  -20.1272  -12.5705 N   0  0  0  0  0  0  0  0  0  0  0  0
   22.6745  -20.3720  -13.1179 C   0  0  0  0  0  0  0  0  0  0  0  0
   21.6482  -21.2046  -13.4536 O   0  0  0  0  0  0  0  0  0  0  0  0
   22.7416  -19.2638  -13.7868 O   0  0  0  0  0  0  0  0  0  0  0  0
  1  2  1  0
  2  3  1  0
  4  3  1  0
  5  1  1  0
  5  4  1  0
  5  6  1  1
  7  6  2  0
  8  6  1  0
  9  8  1  0
  9 10  1  6
 11 10  1  0
 11 12  2  0
 13  9  1  0
 13 14  2  0
 15 11  1  0
 17 18  2  0
 17 16  1  0
 19 17  1  0
 20 19  1  0
 21 20  1  0
 22 21  1  0
 23 22  1  1
 23 24  1  0
 24 13  1  0
 25 23  1  0
 26 25  1  0
 27 25  2  0
M  END
$$$$
