PDR.pdb
     RDKit          3D

 27 27  0  0  1  0  0  0  0  0999 V2000
   28.1197  -16.4513  -16.5849 N   0  0  0  0  0  0  0  0  0  0  0  0
   27.9250  -15.1861  -17.2769 C   0  0  0  0  0  0  0  0  0  0  0  0
   27.6344  -14.2256  -16.1694 C   0  0  0  0  0  0  0  0  0  0  0  0
   27.0485  -15.0643  -15.0792 C   0  0  0  0  0  0  0  0  0  0  0  0
   27.1321  -16.5086  -15.5552 C   0  0  1  0  0  0  0  0  0  0  0  0
   25.7696  -16.8327  -16.1006 C   0  0  0  0  0  0  0  0  0  0  0  0
   25.5199  -16.4993  -17.2692 O   0  0  0  0  0  0  0  0  0  0  0  0
   24.7872  -17.4888  -15.3446 N   0  0  0  0  0  0  0  0  0  0  0  0
   23.4880  -17.8337  -15.8754 C   0  0  1  0  0  0  0  0  0  0  0  0
   22.8804  -19.0303  -15.2096 C   0  0  0  0  0  0  0  0  0  0  0  0
   21.6212  -19.4719  -15.8457 C   0  0  0  0  0  0  0  0  0  0  0  0
   21.4727  -19.1781  -17.0678 O   0  0  0  0  0  0  0  0  0  0  0  0
   22.5386  -16.7077  -15.7462 C   0  0  0  0  0  0  0  0  0  0  0  0
   22.4409  -16.1648  -14.6040 O   0  0  0  0  0  0  0  0  0  0  0  0
   20.6169  -20.1621  -15.2324 O   0  0  0  0  0  0  0  0  0  0  0  0
   21.7589   -9.5849  -20.3906 N   0  0  0  0  0  0  0  0  0  0  0  0
   20.7035   -9.3686  -19.4490 C   0  0  0  0  0  0  0  0  0  0  0  0
   20.2007   -8.1845  -19.4175 N   0  0  0  0  0  0  0  0  0  0  0  0
   20.2653  -10.4348  -18.6119 N   0  0  0  0  0  0  0  0  0  0  0  0
   21.0281  -11.6651  -18.6657 C   0  0  0  0  0  0  0  0  0  0  0  0
   20.6308  -12.7173  -17.7305 C   0  0  0  0  0  0  0  0  0  0  0  0
   21.3166  -13.9801  -17.5651 C   0  0  0  0  0  0  0  0  0  0  0  0
   20.8686  -14.9877  -16.6043 C   0  0  2  0  0  0  0  0  0  0  0  0
   21.7495  -16.2044  -16.7819 N   0  0  0  0  0  0  0  0  0  0  0  0
   19.4974  -15.4555  -16.7783 C   0  0  0  0  0  0  0  0  0  0  0  0
   18.4195  -14.8310  -16.2238 O   0  0  0  0  0  0  0  0  0  0  0  0
   19.2355  -16.5148  -17.4777 O   0  0  0  0  0  0  0  0  0  0  0  0
  1  2  1  0
  2  3  1  0
  4  3  1  0
  5  1  1  0
  5  4  1  0
  5  6  1  6
  7  6  2  0
  8  6  1  0
  9  8  1  0
  9 10  1  1
 11 10  1  0
 11 12  2  0
 13  9  1  0
 13 14  2  0
 15 11  1  0
 17 18  2  0
 17 16  1  0
 19 17  1  0
 20 19  1  0
 21 20  1  0
 22 21  1  0
 23 22  1  6
 23 24  1  0
 24 13  1  0
 25 23  1  0
 26 25  1  0
 27 25  2  0
M  END
$$$$
