PDR.pdb
     RDKit          3D

 27 27  0  0  1  0  0  0  0  0999 V2000
   28.8411  -22.1664  -12.4179 N   0  0  0  0  0  0  0  0  0  0  0  0
   29.7211  -21.1223  -12.9210 C   0  0  0  0  0  0  0  0  0  0  0  0
   30.0718  -20.3429  -11.6951 C   0  0  0  0  0  0  0  0  0  0  0  0
   28.9204  -20.5539  -10.7650 C   0  0  0  0  0  0  0  0  0  0  0  0
   27.9937  -21.5518  -11.4469 C   0  0  1  0  0  0  0  0  0  0  0  0
   26.9128  -20.7260  -12.0862 C   0  0  0  0  0  0  0  0  0  0  0  0
   26.6964  -19.5964  -11.6213 O   0  0  0  0  0  0  0  0  0  0  0  0
   26.1531  -21.1827  -13.1732 N   0  0  0  0  0  0  0  0  0  0  0  0
   25.0983  -20.4012  -13.7776 C   0  0  1  0  0  0  0  0  0  0  0  0
   25.4053  -19.9895  -15.1850 C   0  0  0  0  0  0  0  0  0  0  0  0
   24.3821  -19.0934  -15.7641 C   0  0  0  0  0  0  0  0  0  0  0  0
   23.7713  -19.5205  -16.7871 O   0  0  0  0  0  0  0  0  0  0  0  0
   23.8187  -21.1418  -13.7870 C   0  0  0  0  0  0  0  0  0  0  0  0
   23.7838  -22.2231  -14.4492 O   0  0  0  0  0  0  0  0  0  0  0  0
   24.0449  -17.8582  -15.2934 O   0  0  0  0  0  0  0  0  0  0  0  0
   19.7872  -24.2176   -7.7337 N   0  0  0  0  0  0  0  0  0  0  0  0
   19.0716  -24.5462   -8.9283 C   0  0  0  0  0  0  0  0  0  0  0  0
   18.7661  -25.7859   -9.0877 N   0  0  0  0  0  0  0  0  0  0  0  0
   18.7365  -23.5241   -9.8625 N   0  0  0  0  0  0  0  0  0  0  0  0
   19.8306  -22.7332  -10.3879 C   0  0  0  0  0  0  0  0  0  0  0  0
   19.5101  -21.8384  -11.4996 C   0  0  0  0  0  0  0  0  0  0  0  0
   20.4656  -20.9989  -12.1885 C   0  0  0  0  0  0  0  0  0  0  0  0
   21.3684  -21.5265  -13.2110 C   0  0  2  0  0  0  0  0  0  0  0  0
   22.6573  -20.7395  -13.1252 N   0  0  0  0  0  0  0  0  0  0  0  0
   20.9055  -21.3905  -14.5881 C   0  0  0  0  0  0  0  0  0  0  0  0
   20.2970  -22.3996  -15.2742 O   0  0  0  0  0  0  0  0  0  0  0  0
   21.0618  -20.2813  -15.2401 O   0  0  0  0  0  0  0  0  0  0  0  0
  1  2  1  0
  2  3  1  0
  4  3  1  0
  5  1  1  0
  5  4  1  0
  5  6  1  6
  7  6  2  0
  8  6  1  0
  9  8  1  0
  9 10  1  6
 11 10  1  0
 11 12  2  0
 13  9  1  0
 13 14  2  0
 15 11  1  0
 17 18  2  0
 17 16  1  0
 19 17  1  0
 20 19  1  0
 21 20  1  0
 22 21  1  0
 23 22  1  1
 23 24  1  0
 24 13  1  0
 25 23  1  0
 26 25  1  0
 27 25  2  0
M  END
$$$$
