PDR.pdb
     RDKit          3D

 27 27  0  0  1  0  0  0  0  0999 V2000
   28.5223  -21.7912  -12.9530 N   0  0  0  0  0  0  0  0  0  0  0  0
   29.3622  -21.0313  -13.8665 C   0  0  0  0  0  0  0  0  0  0  0  0
   29.9759  -19.9890  -12.9888 C   0  0  0  0  0  0  0  0  0  0  0  0
   28.9990  -19.8056  -11.8719 C   0  0  0  0  0  0  0  0  0  0  0  0
   27.9036  -20.8422  -12.0838 C   0  0  1  0  0  0  0  0  0  0  0  0
   26.7801  -20.1087  -12.7611 C   0  0  0  0  0  0  0  0  0  0  0  0
   26.2935  -19.1287  -12.1763 O   0  0  0  0  0  0  0  0  0  0  0  0
   26.2720  -20.4890  -14.0118 N   0  0  0  0  0  0  0  0  0  0  0  0
   25.2069  -19.7737  -14.6772 C   0  0  1  0  0  0  0  0  0  0  0  0
   25.3703  -19.7287  -16.1658 C   0  0  0  0  0  0  0  0  0  0  0  0
   24.3178  -18.9410  -16.8419 C   0  0  0  0  0  0  0  0  0  0  0  0
   24.0811  -17.7913  -16.3685 O   0  0  0  0  0  0  0  0  0  0  0  0
   23.8889  -20.3742  -14.3802 C   0  0  0  0  0  0  0  0  0  0  0  0
   23.8348  -21.6396  -14.3112 O   0  0  0  0  0  0  0  0  0  0  0  0
   23.5884  -19.3453  -17.9215 O   0  0  0  0  0  0  0  0  0  0  0  0
   21.0632  -21.9698   -8.2214 N   0  0  0  0  0  0  0  0  0  0  0  0
   19.7221  -22.3251   -8.5717 C   0  0  0  0  0  0  0  0  0  0  0  0
   19.2173  -23.3315   -7.9487 N   0  0  0  0  0  0  0  0  0  0  0  0
   19.0220  -21.5773   -9.5617 N   0  0  0  0  0  0  0  0  0  0  0  0
   19.7725  -20.5555  -10.2626 C   0  0  0  0  0  0  0  0  0  0  0  0
   20.5707  -21.0034  -11.4035 C   0  0  0  0  0  0  0  0  0  0  0  0
   21.3679  -20.1392  -12.2462 C   0  0  0  0  0  0  0  0  0  0  0  0
   21.4368  -20.3163  -13.6964 C   0  0  2  0  0  0  0  0  0  0  0  0
   22.7111  -19.6545  -14.1722 N   0  0  0  0  0  0  0  0  0  0  0  0
   20.3552  -19.6987  -14.4565 C   0  0  0  0  0  0  0  0  0  0  0  0
   19.2017  -20.3508  -14.7781 O   0  0  0  0  0  0  0  0  0  0  0  0
   20.4464  -18.4761  -14.8774 O   0  0  0  0  0  0  0  0  0  0  0  0
  1  2  1  0
  2  3  1  0
  4  3  1  0
  5  1  1  0
  5  4  1  0
  5  6  1  6
  7  6  2  0
  8  6  1  0
  9  8  1  0
  9 10  1  6
 11 10  1  0
 11 12  2  0
 13  9  1  0
 13 14  2  0
 15 11  1  0
 17 18  2  0
 17 16  1  0
 19 17  1  0
 20 19  1  0
 21 20  1  0
 22 21  1  0
 23 22  1  1
 23 24  1  0
 24 13  1  0
 25 23  1  0
 26 25  1  0
 27 25  2  0
M  END
$$$$
