PDR.pdb
     RDKit          3D

 27 27  0  0  1  0  0  0  0  0999 V2000
   21.7594  -13.8425  -18.2313 N   0  0  0  0  0  0  0  0  0  0  0  0
   21.3294  -14.7785  -17.2034 C   0  0  0  0  0  0  0  0  0  0  0  0
   19.9126  -15.0756  -17.5748 C   0  0  0  0  0  0  0  0  0  0  0  0
   19.4508  -13.8653  -18.3211 C   0  0  0  0  0  0  0  0  0  0  0  0
   20.6641  -12.9549  -18.4577 C   0  0  1  0  0  0  0  0  0  0  0  0
   20.5295  -11.9367  -17.3604 C   0  0  0  0  0  0  0  0  0  0  0  0
   19.8064  -12.2207  -16.3932 O   0  0  0  0  0  0  0  0  0  0  0  0
   21.1836  -10.6965  -17.3932 N   0  0  0  0  0  0  0  0  0  0  0  0
   21.0275   -9.6989  -16.3592 C   0  0  1  0  0  0  0  0  0  0  0  0
   22.0997   -8.6528  -16.3858 C   0  0  0  0  0  0  0  0  0  0  0  0
   22.0847   -7.7754  -15.1962 C   0  0  0  0  0  0  0  0  0  0  0  0
   21.2813   -8.0924  -14.2709 O   0  0  0  0  0  0  0  0  0  0  0  0
   19.7204   -9.0160  -16.4641 C   0  0  0  0  0  0  0  0  0  0  0  0
   19.4017   -8.5536  -17.6014 O   0  0  0  0  0  0  0  0  0  0  0  0
   22.8558   -6.6648  -15.0143 O   0  0  0  0  0  0  0  0  0  0  0  0
   13.4523  -11.7577  -13.5437 N   0  0  0  0  0  0  0  0  0  0  0  0
   12.6775  -11.1405  -14.5762 C   0  0  0  0  0  0  0  0  0  0  0  0
   11.8664  -11.9072  -15.2165 N   0  0  0  0  0  0  0  0  0  0  0  0
   12.8286   -9.7499  -14.8463 N   0  0  0  0  0  0  0  0  0  0  0  0
   13.9735   -9.3583  -15.6428 C   0  0  0  0  0  0  0  0  0  0  0  0
   15.0725   -8.7114  -14.9265 C   0  0  0  0  0  0  0  0  0  0  0  0
   16.4652   -9.0874  -15.0333 C   0  0  0  0  0  0  0  0  0  0  0  0
   17.4706   -8.1910  -15.6030 C   0  0  2  0  0  0  0  0  0  0  0  0
   18.8205   -8.8457  -15.4107 N   0  0  0  0  0  0  0  0  0  0  0  0
   17.5681   -6.8771  -14.9758 C   0  0  0  0  0  0  0  0  0  0  0  0
   16.8110   -5.8094  -15.3578 O   0  0  0  0  0  0  0  0  0  0  0  0
   18.4036   -6.6574  -14.0094 O   0  0  0  0  0  0  0  0  0  0  0  0
  1  2  1  0
  2  3  1  0
  4  3  1  0
  5  1  1  0
  5  4  1  0
  5  6  1  1
  7  6  2  0
  8  6  1  0
  9  8  1  0
  9 10  1  6
 11 10  1  0
 11 12  2  0
 13  9  1  0
 13 14  2  0
 15 11  1  0
 17 18  2  0
 17 16  1  0
 19 17  1  0
 20 19  1  0
 21 20  1  0
 22 21  1  0
 23 22  1  1
 23 24  1  0
 24 13  1  0
 25 23  1  0
 26 25  1  0
 27 25  2  0
M  END
$$$$
