PDR.pdb
     RDKit          3D

 27 27  0  0  1  0  0  0  0  0999 V2000
   43.0235  -17.1368   -9.4388 N   0  0  0  0  0  0  0  0  0  0  0  0
   43.4760  -17.4848  -10.7773 C   0  0  0  0  0  0  0  0  0  0  0  0
   44.9342  -17.7544  -10.5921 C   0  0  0  0  0  0  0  0  0  0  0  0
   45.3254  -16.9410   -9.4002 C   0  0  0  0  0  0  0  0  0  0  0  0
   44.0428  -16.3185   -8.8643 C   0  0  1  0  0  0  0  0  0  0  0  0
   44.0149  -14.9189   -9.4113 C   0  0  0  0  0  0  0  0  0  0  0  0
   45.0491  -14.2402   -9.3169 O   0  0  0  0  0  0  0  0  0  0  0  0
   42.8772  -14.3639  -10.0151 N   0  0  0  0  0  0  0  0  0  0  0  0
   42.8481  -13.0217  -10.5503 C   0  0  1  0  0  0  0  0  0  0  0  0
   41.7017  -12.7873  -11.4859 C   0  0  0  0  0  0  0  0  0  0  0  0
   41.8351  -13.5202  -12.7628 C   0  0  0  0  0  0  0  0  0  0  0  0
   43.0130  -13.7044  -13.1877 O   0  0  0  0  0  0  0  0  0  0  0  0
   42.7701  -12.0144   -9.4708 C   0  0  0  0  0  0  0  0  0  0  0  0
   41.8323  -12.1460   -8.6268 O   0  0  0  0  0  0  0  0  0  0  0  0
   40.8060  -14.0091  -13.5131 O   0  0  0  0  0  0  0  0  0  0  0  0
   48.7269   -9.7201   -5.4345 N   0  0  0  0  0  0  0  0  0  0  0  0
   47.8272  -10.7595   -5.0377 C   0  0  0  0  0  0  0  0  0  0  0  0
   48.3593  -11.8944   -4.7467 N   0  0  0  0  0  0  0  0  0  0  0  0
   46.4262  -10.5070   -4.9821 N   0  0  0  0  0  0  0  0  0  0  0  0
   45.9896   -9.1650   -5.3090 C   0  0  0  0  0  0  0  0  0  0  0  0
   44.9148   -9.0536   -6.2948 C   0  0  0  0  0  0  0  0  0  0  0  0
   44.6654  -10.0019   -7.3583 C   0  0  0  0  0  0  0  0  0  0  0  0
   43.4808   -9.9182   -8.2120 C   0  0  2  0  0  0  0  0  0  0  0  0
   43.6465  -10.9391   -9.3158 N   0  0  0  0  0  0  0  0  0  0  0  0
   43.2760   -8.6361   -8.8779 C   0  0  0  0  0  0  0  0  0  0  0  0
   43.5131   -8.4383  -10.2060 O   0  0  0  0  0  0  0  0  0  0  0  0
   42.8568   -7.6004   -8.2209 O   0  0  0  0  0  0  0  0  0  0  0  0
  1  2  1  0
  2  3  1  0
  4  3  1  0
  5  1  1  0
  5  4  1  0
  5  6  1  6
  7  6  2  0
  8  6  1  0
  9  8  1  0
  9 10  1  6
 11 10  1  0
 11 12  2  0
 13  9  1  0
 13 14  2  0
 15 11  1  0
 17 18  2  0
 17 16  1  0
 19 17  1  0
 20 19  1  0
 21 20  1  0
 22 21  1  0
 23 22  1  1
 23 24  1  0
 24 13  1  0
 25 23  1  0
 26 25  1  0
 27 25  2  0
M  END
$$$$
