PDR.pdb
     RDKit          3D

 27 27  0  0  1  0  0  0  0  0999 V2000
   26.6739  -19.2601  -15.9979 N   0  0  0  0  0  0  0  0  0  0  0  0
   27.2842  -18.1804  -16.7590 C   0  0  0  0  0  0  0  0  0  0  0  0
   27.9317  -17.3375  -15.7085 C   0  0  0  0  0  0  0  0  0  0  0  0
   27.1326  -17.5886  -14.4700 C   0  0  0  0  0  0  0  0  0  0  0  0
   26.1171  -18.6669  -14.8245 C   0  0  1  0  0  0  0  0  0  0  0  0
   24.8376  -17.9349  -15.1176 C   0  0  0  0  0  0  0  0  0  0  0  0
   24.2980  -17.3175  -14.1866 O   0  0  0  0  0  0  0  0  0  0  0  0
   24.2432  -17.9268  -16.3879 N   0  0  0  0  0  0  0  0  0  0  0  0
   22.9417  -17.3524  -16.6422 C   0  0  1  0  0  0  0  0  0  0  0  0
   22.8503  -16.6713  -17.9735 C   0  0  0  0  0  0  0  0  0  0  0  0
   21.5213  -16.0779  -18.2322 C   0  0  0  0  0  0  0  0  0  0  0  0
   20.6519  -16.2225  -17.3238 O   0  0  0  0  0  0  0  0  0  0  0  0
   21.8797  -18.3792  -16.5805 C   0  0  0  0  0  0  0  0  0  0  0  0
   22.0494  -19.4259  -17.2766 O   0  0  0  0  0  0  0  0  0  0  0  0
   21.1576  -15.3951  -19.3558 O   0  0  0  0  0  0  0  0  0  0  0  0
   21.3900  -19.1998  -10.3559 N   0  0  0  0  0  0  0  0  0  0  0  0
   20.3112  -20.1159  -10.1454 C   0  0  0  0  0  0  0  0  0  0  0  0
   19.6751  -20.0023   -9.0327 N   0  0  0  0  0  0  0  0  0  0  0  0
   19.9940  -21.0845  -11.1408 N   0  0  0  0  0  0  0  0  0  0  0  0
   20.7562  -21.0321  -12.3716 C   0  0  0  0  0  0  0  0  0  0  0  0
   20.2866  -20.0898  -13.3870 C   0  0  0  0  0  0  0  0  0  0  0  0
   20.1755  -20.3821  -14.7993 C   0  0  0  0  0  0  0  0  0  0  0  0
   19.6920  -19.3928  -15.7618 C   0  0  2  0  0  0  0  0  0  0  0  0
   20.7147  -18.2797  -15.8180 N   0  0  0  0  0  0  0  0  0  0  0  0
   18.4233  -18.7561  -15.4242 C   0  0  0  0  0  0  0  0  0  0  0  0
   18.3117  -17.4338  -15.1104 O   0  0  0  0  0  0  0  0  0  0  0  0
   17.3196  -19.4353  -15.3990 O   0  0  0  0  0  0  0  0  0  0  0  0
  1  2  1  0
  2  3  1  0
  4  3  1  0
  5  1  1  0
  5  4  1  0
  5  6  1  6
  7  6  2  0
  8  6  1  0
  9  8  1  0
  9 10  1  6
 11 10  1  0
 11 12  2  0
 13  9  1  0
 13 14  2  0
 15 11  1  0
 17 18  2  0
 17 16  1  0
 19 17  1  0
 20 19  1  0
 21 20  1  0
 22 21  1  0
 23 22  1  1
 23 24  1  0
 24 13  1  0
 25 23  1  0
 26 25  1  0
 27 25  2  0
M  END
$$$$
