PDR.pdb
     RDKit          3D

 27 27  0  0  1  0  0  0  0  0999 V2000
   20.6244  -10.0200  -16.0240 N   0  0  0  0  0  0  0  0  0  0  0  0
   21.9659   -9.6358  -16.4369 C   0  0  0  0  0  0  0  0  0  0  0  0
   22.8392  -10.6434  -15.7620 C   0  0  0  0  0  0  0  0  0  0  0  0
   22.0651  -11.0755  -14.5581 C   0  0  0  0  0  0  0  0  0  0  0  0
   20.7111  -10.3838  -14.6460 C   0  0  1  0  0  0  0  0  0  0  0  0
   20.8147   -9.1799  -13.7522 C   0  0  0  0  0  0  0  0  0  0  0  0
   20.9744   -9.3735  -12.5373 O   0  0  0  0  0  0  0  0  0  0  0  0
   20.7382   -7.8666  -14.2382 N   0  0  0  0  0  0  0  0  0  0  0  0
   20.7556   -6.7076  -13.3749 C   0  0  1  0  0  0  0  0  0  0  0  0
   21.2140   -5.4631  -14.0718 C   0  0  0  0  0  0  0  0  0  0  0  0
   21.2188   -4.2740  -13.1936 C   0  0  0  0  0  0  0  0  0  0  0  0
   21.5947   -4.4560  -11.9988 O   0  0  0  0  0  0  0  0  0  0  0  0
   19.4183   -6.4442  -12.8019 C   0  0  0  0  0  0  0  0  0  0  0  0
   18.4608   -6.2927  -13.6200 O   0  0  0  0  0  0  0  0  0  0  0  0
   20.8558   -3.0108  -13.5592 O   0  0  0  0  0  0  0  0  0  0  0  0
   13.2551  -10.0356  -10.4654 N   0  0  0  0  0  0  0  0  0  0  0  0
   12.9128   -9.1122   -9.4274 C   0  0  0  0  0  0  0  0  0  0  0  0
   11.6566   -8.9436   -9.2052 N   0  0  0  0  0  0  0  0  0  0  0  0
   13.9397   -8.4387   -8.7052 N   0  0  0  0  0  0  0  0  0  0  0  0
   15.2903   -8.5697   -9.2123 C   0  0  0  0  0  0  0  0  0  0  0  0
   15.8989   -7.3577   -9.7602 C   0  0  0  0  0  0  0  0  0  0  0  0
   17.1923   -7.2997  -10.4053 C   0  0  0  0  0  0  0  0  0  0  0  0
   17.7481   -6.0491  -10.9210 C   0  0  2  0  0  0  0  0  0  0  0  0
   19.1372   -6.3512  -11.4378 N   0  0  0  0  0  0  0  0  0  0  0  0
   17.9079   -4.9811   -9.9396 C   0  0  0  0  0  0  0  0  0  0  0  0
   16.8959   -4.1417   -9.5782 O   0  0  0  0  0  0  0  0  0  0  0  0
   19.0473   -4.7714   -9.3585 O   0  0  0  0  0  0  0  0  0  0  0  0
  1  2  1  0
  2  3  1  0
  4  3  1  0
  5  1  1  0
  5  4  1  0
  5  6  1  1
  7  6  2  0
  8  6  1  0
  9  8  1  0
  9 10  1  6
 11 10  1  0
 11 12  2  0
 13  9  1  0
 13 14  2  0
 15 11  1  0
 17 18  2  0
 17 16  1  0
 19 17  1  0
 20 19  1  0
 21 20  1  0
 22 21  1  0
 23 22  1  1
 23 24  1  0
 24 13  1  0
 25 23  1  0
 26 25  1  0
 27 25  2  0
M  END
$$$$
