PER.pdb
     RDKit          3D

 28 28  0  0  1  0  0  0  0  0999 V2000
   27.5325  -18.2297  -16.1969 N   0  0  0  0  0  0  0  0  0  0  0  0
   28.5409  -17.7566  -17.1263 C   0  0  0  0  0  0  0  0  0  0  0  0
   29.5842  -18.8516  -17.1709 C   0  0  0  0  0  0  0  0  0  0  0  0
   28.9370  -20.0532  -16.5059 C   0  0  0  0  0  0  0  0  0  0  0  0
   27.4849  -19.6223  -16.4127 C   0  0  1  0  0  0  0  0  0  0  0  0
   26.7519  -20.4228  -15.3906 C   0  0  0  0  0  0  0  0  0  0  0  0
   26.4768  -21.6099  -15.6415 O   0  0  0  0  0  0  0  0  0  0  0  0
   26.3456  -19.8918  -14.1300 N   0  0  0  0  0  0  0  0  0  0  0  0
   25.6545  -20.5772  -13.0914 C   0  0  1  0  0  0  0  0  0  0  0  0
   26.0584  -20.0720  -11.6856 C   0  0  0  0  0  0  0  0  0  0  0  0
   25.2704  -20.7644  -10.5949 C   0  0  0  0  0  0  0  0  0  0  0  0
   25.7904  -20.3146   -9.2793 C   0  0  0  0  0  0  0  0  0  0  0  0
   26.2604  -19.1554   -9.1608 O   0  0  0  0  0  0  0  0  0  0  0  0
   24.1414  -20.4765  -13.2273 C   0  0  0  0  0  0  0  0  0  0  0  0
   23.7173  -19.3250  -13.3223 O   0  0  0  0  0  0  0  0  0  0  0  0
   25.7825  -21.1291   -8.1640 O   0  0  0  0  0  0  0  0  0  0  0  0
   18.8137  -26.4495  -14.9357 N   0  0  0  0  0  0  0  0  0  0  0  0
   20.1949  -26.4571  -14.5471 C   0  0  0  0  0  0  0  0  0  0  0  0
   20.9971  -27.2138  -15.2122 N   0  0  0  0  0  0  0  0  0  0  0  0
   20.6170  -25.6632  -13.4851 N   0  0  0  0  0  0  0  0  0  0  0  0
   19.6796  -24.8521  -12.7189 C   0  0  0  0  0  0  0  0  0  0  0  0
   19.9884  -23.3930  -12.9765 C   0  0  0  0  0  0  0  0  0  0  0  0
   21.4344  -23.1049  -12.9014 C   0  0  0  0  0  0  0  0  0  0  0  0
   21.8838  -21.7300  -13.2732 C   0  0  2  0  0  0  0  0  0  0  0  0
   23.3111  -21.5963  -13.2476 N   0  0  0  0  0  0  0  0  0  0  0  0
   21.0870  -20.6372  -12.6890 C   0  0  0  0  0  0  0  0  0  0  0  0
   20.1082  -19.8281  -13.2332 O   0  0  0  0  0  0  0  0  0  0  0  0
   21.2870  -20.3282  -11.4396 O   0  0  0  0  0  0  0  0  0  0  0  0
  1  2  1  0
  3  2  1  0
  4  3  1  0
  4  5  1  0
  5  6  1  1
  5  1  1  0
  6  7  2  0
  8  9  1  0
  8  6  1  0
  9 10  1  1
 11 10  1  0
 12 11  1  0
 13 12  2  0
 14 15  2  0
 14  9  1  0
 16 12  1  0
 18 17  1  0
 19 18  2  0
 20 18  1  0
 21 22  1  0
 21 20  1  0
 22 23  1  0
 24 23  1  1
 24 25  1  0
 24 26  1  0
 25 14  1  0
 26 27  1  0
 28 26  2  0
M  END
$$$$
