PER.pdb
     RDKit          3D

 28 28  0  0  1  0  0  0  0  0999 V2000
   26.1420  -16.2341  -17.4951 N   0  0  0  0  0  0  0  0  0  0  0  0
   27.3348  -15.4602  -17.7827 C   0  0  0  0  0  0  0  0  0  0  0  0
   27.3202  -14.3231  -16.7846 C   0  0  0  0  0  0  0  0  0  0  0  0
   26.2764  -14.7067  -15.7510 C   0  0  0  0  0  0  0  0  0  0  0  0
   26.0079  -16.1606  -16.0935 C   0  0  1  0  0  0  0  0  0  0  0  0
   24.7027  -16.6121  -15.5319 C   0  0  0  0  0  0  0  0  0  0  0  0
   24.4929  -16.4736  -14.3134 O   0  0  0  0  0  0  0  0  0  0  0  0
   23.6746  -17.2009  -16.3271 N   0  0  0  0  0  0  0  0  0  0  0  0
   22.4235  -17.7083  -15.8758 C   0  0  1  0  0  0  0  0  0  0  0  0
   21.3868  -17.8146  -17.0196 C   0  0  0  0  0  0  0  0  0  0  0  0
   20.8168  -16.4613  -17.3852 C   0  0  0  0  0  0  0  0  0  0  0  0
   19.3425  -16.5102  -17.2197 C   0  0  0  0  0  0  0  0  0  0  0  0
   18.8516  -16.9739  -16.1602 O   0  0  0  0  0  0  0  0  0  0  0  0
   22.5495  -19.0701  -15.2066 C   0  0  0  0  0  0  0  0  0  0  0  0
   22.8616  -19.9828  -15.9711 O   0  0  0  0  0  0  0  0  0  0  0  0
   18.4742  -16.0639  -18.1967 O   0  0  0  0  0  0  0  0  0  0  0  0
   26.6761  -21.9918  -11.1786 N   0  0  0  0  0  0  0  0  0  0  0  0
   26.4591  -21.2703   -9.9575 C   0  0  0  0  0  0  0  0  0  0  0  0
   27.3054  -21.4460   -9.0028 N   0  0  0  0  0  0  0  0  0  0  0  0
   25.3632  -20.4204   -9.8439 N   0  0  0  0  0  0  0  0  0  0  0  0
   24.0306  -20.9291   -9.5455 C   0  0  0  0  0  0  0  0  0  0  0  0
   23.3703  -21.3321  -10.8464 C   0  0  0  0  0  0  0  0  0  0  0  0
   23.1328  -20.1774  -11.7351 C   0  0  0  0  0  0  0  0  0  0  0  0
   22.4078  -20.4307  -13.0160 C   0  0  2  0  0  0  0  0  0  0  0  0
   22.3342  -19.2615  -13.8425 N   0  0  0  0  0  0  0  0  0  0  0  0
   21.1916  -21.2524  -12.8891 C   0  0  0  0  0  0  0  0  0  0  0  0
   20.9789  -22.6049  -13.0750 O   0  0  0  0  0  0  0  0  0  0  0  0
   20.0838  -20.6638  -12.5386 O   0  0  0  0  0  0  0  0  0  0  0  0
  1  2  1  0
  3  2  1  0
  4  3  1  0
  4  5  1  0
  5  6  1  6
  5  1  1  0
  6  7  2  0
  8  9  1  0
  8  6  1  0
  9 10  1  6
 11 10  1  0
 12 11  1  0
 13 12  2  0
 14 15  2  0
 14  9  1  0
 16 12  1  0
 18 17  1  0
 19 18  2  0
 20 18  1  0
 21 22  1  0
 21 20  1  0
 22 23  1  0
 24 23  1  1
 24 25  1  0
 24 26  1  0
 25 14  1  0
 26 27  1  0
 28 26  2  0
M  END
$$$$
