PER.pdb
     RDKit          3D

 28 28  0  0  1  0  0  0  0  0999 V2000
   29.4159  -21.9768  -11.7266 N   0  0  0  0  0  0  0  0  0  0  0  0
   30.3116  -22.4160  -10.6733 C   0  0  0  0  0  0  0  0  0  0  0  0
   30.3480  -21.2737   -9.6817 C   0  0  0  0  0  0  0  0  0  0  0  0
   29.1931  -20.3670  -10.0677 C   0  0  0  0  0  0  0  0  0  0  0  0
   28.4275  -21.2288  -11.0548 C   0  0  1  0  0  0  0  0  0  0  0  0
   27.5337  -20.3983  -11.9118 C   0  0  0  0  0  0  0  0  0  0  0  0
   26.6189  -19.7492  -11.3736 O   0  0  0  0  0  0  0  0  0  0  0  0
   27.6746  -20.3108  -13.3290 N   0  0  0  0  0  0  0  0  0  0  0  0
   26.9463  -19.4673  -14.2145 C   0  0  1  0  0  0  0  0  0  0  0  0
   27.8237  -18.9367  -15.3734 C   0  0  0  0  0  0  0  0  0  0  0  0
   27.0562  -17.9853  -16.2656 C   0  0  0  0  0  0  0  0  0  0  0  0
   27.9515  -17.5424  -17.3636 C   0  0  0  0  0  0  0  0  0  0  0  0
   29.1880  -17.7484  -17.2778 O   0  0  0  0  0  0  0  0  0  0  0  0
   25.7235  -20.1544  -14.8068 C   0  0  0  0  0  0  0  0  0  0  0  0
   25.7918  -21.3832  -14.8234 O   0  0  0  0  0  0  0  0  0  0  0  0
   27.4768  -16.9011  -18.4908 O   0  0  0  0  0  0  0  0  0  0  0  0
   18.7998  -21.7731  -13.3570 N   0  0  0  0  0  0  0  0  0  0  0  0
   19.5806  -21.9711  -12.1697 C   0  0  0  0  0  0  0  0  0  0  0  0
   19.1085  -21.5134  -11.0624 N   0  0  0  0  0  0  0  0  0  0  0  0
   20.7995  -22.6376  -12.2489 N   0  0  0  0  0  0  0  0  0  0  0  0
   22.0414  -21.9268  -12.5250 C   0  0  0  0  0  0  0  0  0  0  0  0
   21.7108  -20.6710  -13.3024 C   0  0  0  0  0  0  0  0  0  0  0  0
   22.9113  -19.8660  -13.6028 C   0  0  0  0  0  0  0  0  0  0  0  0
   23.2142  -19.5888  -15.0387 C   0  0  2  0  0  0  0  0  0  0  0  0
   24.6199  -19.4481  -15.2833 N   0  0  0  0  0  0  0  0  0  0  0  0
   22.3101  -18.6243  -15.6890 C   0  0  0  0  0  0  0  0  0  0  0  0
   21.0926  -18.7947  -16.3195 O   0  0  0  0  0  0  0  0  0  0  0  0
   22.6569  -17.3690  -15.7057 O   0  0  0  0  0  0  0  0  0  0  0  0
  1  2  1  0
  3  2  1  0
  4  3  1  0
  4  5  1  0
  5  6  1  6
  5  1  1  0
  6  7  2  0
  8  9  1  0
  8  6  1  0
  9 10  1  6
 11 10  1  0
 12 11  1  0
 13 12  2  0
 14 15  2  0
 14  9  1  0
 16 12  1  0
 18 17  1  0
 19 18  2  0
 20 18  1  0
 21 22  1  0
 21 20  1  0
 22 23  1  0
 24 23  1  1
 24 25  1  0
 24 26  1  0
 25 14  1  0
 26 27  1  0
 28 26  2  0
M  END
$$$$
