PER.pdb
     RDKit          3D

 28 28  0  0  1  0  0  0  0  0999 V2000
   18.3874  -10.3898  -16.4925 N   0  0  0  0  0  0  0  0  0  0  0  0
   18.4143  -11.5162  -17.4062 C   0  0  0  0  0  0  0  0  0  0  0  0
   19.4954  -12.4321  -16.8751 C   0  0  0  0  0  0  0  0  0  0  0  0
   19.8022  -11.9261  -15.4770 C   0  0  0  0  0  0  0  0  0  0  0  0
   18.6604  -10.9571  -15.2309 C   0  0  1  0  0  0  0  0  0  0  0  0
   18.9943  -10.0009  -14.1368 C   0  0  0  0  0  0  0  0  0  0  0  0
   19.1332  -10.4368  -12.9798 O   0  0  0  0  0  0  0  0  0  0  0  0
   19.1622   -8.6002  -14.3508 N   0  0  0  0  0  0  0  0  0  0  0  0
   19.4908   -7.6154  -13.3769 C   0  0  1  0  0  0  0  0  0  0  0  0
   20.3161   -6.4513  -13.9754 C   0  0  0  0  0  0  0  0  0  0  0  0
   20.7374   -5.4602  -12.9123 C   0  0  0  0  0  0  0  0  0  0  0  0
   21.4118   -4.3158  -13.5751 C   0  0  0  0  0  0  0  0  0  0  0  0
   21.7736   -4.4180  -14.7739 O   0  0  0  0  0  0  0  0  0  0  0  0
   18.2616   -7.0362  -12.6901 C   0  0  0  0  0  0  0  0  0  0  0  0
   17.2174   -7.1642  -13.3288 O   0  0  0  0  0  0  0  0  0  0  0  0
   21.6651   -3.1270  -12.9194 O   0  0  0  0  0  0  0  0  0  0  0  0
   12.2217  -10.1403   -8.7128 N   0  0  0  0  0  0  0  0  0  0  0  0
   12.1098   -8.7904   -8.2397 C   0  0  0  0  0  0  0  0  0  0  0  0
   11.0335   -8.4662   -7.6113 N   0  0  0  0  0  0  0  0  0  0  0  0
   13.1462   -7.8907   -8.4696 N   0  0  0  0  0  0  0  0  0  0  0  0
   14.2666   -8.2235   -9.3401 C   0  0  0  0  0  0  0  0  0  0  0  0
   15.2427   -7.0669   -9.3262 C   0  0  0  0  0  0  0  0  0  0  0  0
   16.3574   -7.2634  -10.2740 C   0  0  0  0  0  0  0  0  0  0  0  0
   17.3031   -6.1246  -10.4719 C   0  0  2  0  0  0  0  0  0  0  0  0
   18.3178   -6.4192  -11.4411 N   0  0  0  0  0  0  0  0  0  0  0  0
   17.7209   -5.4423   -9.2348 C   0  0  0  0  0  0  0  0  0  0  0  0
   17.1397   -4.4146   -8.5171 O   0  0  0  0  0  0  0  0  0  0  0  0
   18.8237   -5.8290   -8.6598 O   0  0  0  0  0  0  0  0  0  0  0  0
  1  2  1  0
  3  2  1  0
  4  3  1  0
  4  5  1  0
  5  6  1  1
  5  1  1  0
  6  7  2  0
  8  9  1  0
  8  6  1  0
  9 10  1  6
 11 10  1  0
 12 11  1  0
 13 12  2  0
 14 15  2  0
 14  9  1  0
 16 12  1  0
 18 17  1  0
 19 18  2  0
 20 18  1  0
 21 22  1  0
 21 20  1  0
 22 23  1  0
 24 23  1  1
 24 25  1  0
 24 26  1  0
 25 14  1  0
 26 27  1  0
 28 26  2  0
M  END
$$$$
