PER.pdb
     RDKit          3D

 28 28  0  0  1  0  0  0  0  0999 V2000
   26.9067  -21.2079  -14.4412 N   0  0  0  0  0  0  0  0  0  0  0  0
   28.3474  -21.2294  -14.2723 C   0  0  0  0  0  0  0  0  0  0  0  0
   28.6392  -20.1816  -13.2205 C   0  0  0  0  0  0  0  0  0  0  0  0
   27.2948  -19.8479  -12.5992 C   0  0  0  0  0  0  0  0  0  0  0  0
   26.4076  -20.9502  -13.1480 C   0  0  1  0  0  0  0  0  0  0  0  0
   24.9676  -20.5738  -13.0604 C   0  0  0  0  0  0  0  0  0  0  0  0
   24.4941  -20.2640  -11.9524 O   0  0  0  0  0  0  0  0  0  0  0  0
   24.0980  -20.5523  -14.1915 N   0  0  0  0  0  0  0  0  0  0  0  0
   22.7407  -20.1249  -14.2238 C   0  0  1  0  0  0  0  0  0  0  0  0
   22.3924  -19.3769  -15.5328 C   0  0  0  0  0  0  0  0  0  0  0  0
   20.9612  -18.8849  -15.5320 C   0  0  0  0  0  0  0  0  0  0  0  0
   20.6883  -18.2258  -16.8337 C   0  0  0  0  0  0  0  0  0  0  0  0
   19.6805  -18.5658  -17.5025 O   0  0  0  0  0  0  0  0  0  0  0  0
   21.7589  -21.2750  -14.0459 C   0  0  0  0  0  0  0  0  0  0  0  0
   21.9500  -22.2256  -14.8039 O   0  0  0  0  0  0  0  0  0  0  0  0
   21.5089  -17.2424  -17.3503 O   0  0  0  0  0  0  0  0  0  0  0  0
   17.2885  -25.2689   -8.4504 N   0  0  0  0  0  0  0  0  0  0  0  0
   18.4423  -24.7283   -7.7907 C   0  0  0  0  0  0  0  0  0  0  0  0
   19.0130  -25.4568   -6.8952 N   0  0  0  0  0  0  0  0  0  0  0  0
   18.9000  -23.4592   -8.1313 N   0  0  0  0  0  0  0  0  0  0  0  0
   18.2682  -22.6777   -9.1867 C   0  0  0  0  0  0  0  0  0  0  0  0
   18.8620  -23.0985  -10.5137 C   0  0  0  0  0  0  0  0  0  0  0  0
   19.1509  -21.9451  -11.3888 C   0  0  0  0  0  0  0  0  0  0  0  0
   19.7541  -22.2277  -12.7256 C   0  0  2  0  0  0  0  0  0  0  0  0
   20.7353  -21.2515  -13.0996 N   0  0  0  0  0  0  0  0  0  0  0  0
   18.7980  -22.6625  -13.7587 C   0  0  0  0  0  0  0  0  0  0  0  0
   17.9477  -21.9442  -14.5772 O   0  0  0  0  0  0  0  0  0  0  0  0
   18.6860  -23.9380  -13.9973 O   0  0  0  0  0  0  0  0  0  0  0  0
  1  2  1  0
  3  2  1  0
  4  3  1  0
  4  5  1  0
  5  6  1  6
  5  1  1  0
  6  7  2  0
  8  9  1  0
  8  6  1  0
  9 10  1  6
 11 10  1  0
 12 11  1  0
 13 12  2  0
 14 15  2  0
 14  9  1  0
 16 12  1  0
 18 17  1  0
 19 18  2  0
 20 18  1  0
 21 22  1  0
 21 20  1  0
 22 23  1  0
 24 23  1  1
 24 25  1  0
 24 26  1  0
 25 14  1  0
 26 27  1  0
 28 26  2  0
M  END
$$$$
