PER.pdb
     RDKit          3D

 28 28  0  0  1  0  0  0  0  0999 V2000
   26.8046  -20.7480  -14.8203 N   0  0  0  0  0  0  0  0  0  0  0  0
   28.2299  -20.5026  -14.7078 C   0  0  0  0  0  0  0  0  0  0  0  0
   28.4033  -19.0290  -15.0041 C   0  0  0  0  0  0  0  0  0  0  0  0
   27.0063  -18.4377  -14.9427 C   0  0  0  0  0  0  0  0  0  0  0  0
   26.2076  -19.5707  -14.3249 C   0  0  1  0  0  0  0  0  0  0  0  0
   24.7500  -19.4080  -14.5927 C   0  0  0  0  0  0  0  0  0  0  0  0
   24.1645  -18.4070  -14.1422 O   0  0  0  0  0  0  0  0  0  0  0  0
   23.9862  -20.3505  -15.3442 N   0  0  0  0  0  0  0  0  0  0  0  0
   22.6094  -20.2574  -15.6932 C   0  0  1  0  0  0  0  0  0  0  0  0
   22.3555  -20.6123  -17.1778 C   0  0  0  0  0  0  0  0  0  0  0  0
   23.0540  -19.6470  -18.1108 C   0  0  0  0  0  0  0  0  0  0  0  0
   22.7835  -20.0639  -19.5096 C   0  0  0  0  0  0  0  0  0  0  0  0
   22.8832  -19.2235  -20.4383 O   0  0  0  0  0  0  0  0  0  0  0  0
   21.7228  -21.1394  -14.8248 C   0  0  0  0  0  0  0  0  0  0  0  0
   22.3387  -21.8526  -14.0330 O   0  0  0  0  0  0  0  0  0  0  0  0
   22.4182  -21.3546  -19.8383 O   0  0  0  0  0  0  0  0  0  0  0  0
   17.4334  -23.9946   -9.8752 N   0  0  0  0  0  0  0  0  0  0  0  0
   18.8439  -24.2436   -9.7911 C   0  0  0  0  0  0  0  0  0  0  0  0
   19.2845  -24.8252   -8.7299 N   0  0  0  0  0  0  0  0  0  0  0  0
   19.6761  -23.8569  -10.8372 N   0  0  0  0  0  0  0  0  0  0  0  0
   20.2485  -22.5184  -10.9021 C   0  0  0  0  0  0  0  0  0  0  0  0
   19.1885  -21.5697  -11.4190 C   0  0  0  0  0  0  0  0  0  0  0  0
   19.6404  -20.8184  -12.6067 C   0  0  0  0  0  0  0  0  0  0  0  0
   19.3056  -21.3829  -13.9483 C   0  0  2  0  0  0  0  0  0  0  0  0
   20.3318  -21.1325  -14.9179 N   0  0  0  0  0  0  0  0  0  0  0  0
   17.9076  -21.1908  -14.3715 C   0  0  0  0  0  0  0  0  0  0  0  0
   16.7462  -21.8487  -14.0147 O   0  0  0  0  0  0  0  0  0  0  0  0
   17.6478  -20.2471  -15.2308 O   0  0  0  0  0  0  0  0  0  0  0  0
  1  2  1  0
  3  2  1  0
  4  3  1  0
  4  5  1  0
  5  6  1  6
  5  1  1  0
  6  7  2  0
  8  9  1  0
  8  6  1  0
  9 10  1  6
 11 10  1  0
 12 11  1  0
 13 12  2  0
 14 15  2  0
 14  9  1  0
 16 12  1  0
 18 17  1  0
 19 18  2  0
 20 18  1  0
 21 22  1  0
 21 20  1  0
 22 23  1  0
 24 23  1  1
 24 25  1  0
 24 26  1  0
 25 14  1  0
 26 27  1  0
 28 26  2  0
M  END
$$$$
