PER.pdb
     RDKit          3D

 28 28  0  0  1  0  0  0  0  0999 V2000
   27.0564  -19.1522  -15.0895 N   0  0  0  0  0  0  0  0  0  0  0  0
   28.3220  -18.8910  -15.7486 C   0  0  0  0  0  0  0  0  0  0  0  0
   29.1922  -20.0856  -15.4241 C   0  0  0  0  0  0  0  0  0  0  0  0
   28.2470  -21.1333  -14.8639 C   0  0  0  0  0  0  0  0  0  0  0  0
   26.8875  -20.5478  -15.1987 C   0  0  1  0  0  0  0  0  0  0  0  0
   25.8198  -21.1506  -14.3506 C   0  0  0  0  0  0  0  0  0  0  0  0
   25.3589  -22.2626  -14.6654 O   0  0  0  0  0  0  0  0  0  0  0  0
   25.2946  -20.5112  -13.1881 N   0  0  0  0  0  0  0  0  0  0  0  0
   24.2220  -20.9638  -12.3690 C   0  0  1  0  0  0  0  0  0  0  0  0
   24.4106  -20.5690  -10.8848 C   0  0  0  0  0  0  0  0  0  0  0  0
   25.8194  -20.8467  -10.4070 C   0  0  0  0  0  0  0  0  0  0  0  0
   25.9424  -20.3783   -9.0038 C   0  0  0  0  0  0  0  0  0  0  0  0
   27.0814  -20.1664   -8.5176 O   0  0  0  0  0  0  0  0  0  0  0  0
   22.8677  -20.4512  -12.8394 C   0  0  0  0  0  0  0  0  0  0  0  0
   22.8838  -19.2971  -13.2667 O   0  0  0  0  0  0  0  0  0  0  0  0
   24.8421  -20.1652   -8.1968 O   0  0  0  0  0  0  0  0  0  0  0  0
   19.0598  -19.1331  -19.5356 N   0  0  0  0  0  0  0  0  0  0  0  0
   18.5938  -18.3076  -18.4584 C   0  0  0  0  0  0  0  0  0  0  0  0
   18.1465  -17.1369  -18.7549 N   0  0  0  0  0  0  0  0  0  0  0  0
   18.6385  -18.7871  -17.1529 N   0  0  0  0  0  0  0  0  0  0  0  0
   19.1675  -20.1092  -16.8431 C   0  0  0  0  0  0  0  0  0  0  0  0
   19.0663  -20.3264  -15.3487 C   0  0  0  0  0  0  0  0  0  0  0  0
   20.3645  -20.6886  -14.7463 C   0  0  0  0  0  0  0  0  0  0  0  0
   20.3839  -21.0007  -13.2859 C   0  0  2  0  0  0  0  0  0  0  0  0
   21.7112  -21.2284  -12.7935 N   0  0  0  0  0  0  0  0  0  0  0  0
   19.3231  -21.9171  -12.8328 C   0  0  0  0  0  0  0  0  0  0  0  0
   18.0440  -21.6763  -12.3691 O   0  0  0  0  0  0  0  0  0  0  0  0
   19.5653  -23.1968  -12.8495 O   0  0  0  0  0  0  0  0  0  0  0  0
  1  2  1  0
  3  2  1  0
  4  3  1  0
  4  5  1  0
  5  6  1  1
  5  1  1  0
  6  7  2  0
  8  9  1  0
  8  6  1  0
  9 10  1  1
 11 10  1  0
 12 11  1  0
 13 12  2  0
 14 15  2  0
 14  9  1  0
 16 12  1  0
 18 17  1  0
 19 18  2  0
 20 18  1  0
 21 22  1  0
 21 20  1  0
 22 23  1  0
 24 23  1  6
 24 25  1  0
 24 26  1  0
 25 14  1  0
 26 27  1  0
 28 26  2  0
M  END
$$$$
