PER.pdb
     RDKit          3D

 28 28  0  0  1  0  0  0  0  0999 V2000
   26.7696  -20.3599  -15.9306 N   0  0  0  0  0  0  0  0  0  0  0  0
   28.1109  -20.7346  -15.5246 C   0  0  0  0  0  0  0  0  0  0  0  0
   28.6467  -19.5366  -14.7714 C   0  0  0  0  0  0  0  0  0  0  0  0
   27.4391  -18.6572  -14.5004 C   0  0  0  0  0  0  0  0  0  0  0  0
   26.2873  -19.5770  -14.8617 C   0  0  1  0  0  0  0  0  0  0  0  0
   25.0419  -18.8002  -15.1234 C   0  0  0  0  0  0  0  0  0  0  0  0
   24.5657  -18.1031  -14.2096 O   0  0  0  0  0  0  0  0  0  0  0  0
   24.3625  -18.8173  -16.3781 N   0  0  0  0  0  0  0  0  0  0  0  0
   23.1339  -18.1741  -16.6987 C   0  0  1  0  0  0  0  0  0  0  0  0
   23.1007  -17.6686  -18.1609 C   0  0  0  0  0  0  0  0  0  0  0  0
   24.1345  -16.5904  -18.4033 C   0  0  0  0  0  0  0  0  0  0  0  0
   24.0459  -16.1626  -19.8220 C   0  0  0  0  0  0  0  0  0  0  0  0
   24.5515  -16.8813  -20.7200 O   0  0  0  0  0  0  0  0  0  0  0  0
   21.9246  -19.0698  -16.4672 C   0  0  0  0  0  0  0  0  0  0  0  0
   22.1303  -20.2638  -16.6834 O   0  0  0  0  0  0  0  0  0  0  0  0
   23.4251  -14.9890  -20.2024 O   0  0  0  0  0  0  0  0  0  0  0  0
   20.7793  -20.1724   -8.0686 N   0  0  0  0  0  0  0  0  0  0  0  0
   21.0069  -21.0321   -9.1945 C   0  0  0  0  0  0  0  0  0  0  0  0
   21.7896  -22.0408   -9.0259 N   0  0  0  0  0  0  0  0  0  0  0  0
   20.3880  -20.7556  -10.4097 N   0  0  0  0  0  0  0  0  0  0  0  0
   20.8154  -19.6428  -11.2480 C   0  0  0  0  0  0  0  0  0  0  0  0
   19.9336  -19.6043  -12.4775 C   0  0  0  0  0  0  0  0  0  0  0  0
   20.6589  -19.1290  -13.6722 C   0  0  0  0  0  0  0  0  0  0  0  0
   19.8651  -18.9058  -14.9174 C   0  0  2  0  0  0  0  0  0  0  0  0
   20.6925  -18.5759  -16.0410 N   0  0  0  0  0  0  0  0  0  0  0  0
   18.6261  -18.1303  -14.7333 C   0  0  0  0  0  0  0  0  0  0  0  0
   17.3438  -18.5221  -14.3997 O   0  0  0  0  0  0  0  0  0  0  0  0
   18.6774  -16.8389  -14.8947 O   0  0  0  0  0  0  0  0  0  0  0  0
  1  2  1  0
  3  2  1  0
  4  3  1  0
  4  5  1  0
  5  6  1  6
  5  1  1  0
  6  7  2  0
  8  9  1  0
  8  6  1  0
  9 10  1  6
 11 10  1  0
 12 11  1  0
 13 12  2  0
 14 15  2  0
 14  9  1  0
 16 12  1  0
 18 17  1  0
 19 18  2  0
 20 18  1  0
 21 22  1  0
 21 20  1  0
 22 23  1  0
 24 23  1  1
 24 25  1  0
 24 26  1  0
 25 14  1  0
 26 27  1  0
 28 26  2  0
M  END
$$$$
