PER.pdb
     RDKit          3D

 28 28  0  0  1  0  0  0  0  0999 V2000
   27.7841  -23.4271  -18.5278 N   0  0  0  0  0  0  0  0  0  0  0  0
   28.9505  -24.1341  -19.0221 C   0  0  0  0  0  0  0  0  0  0  0  0
   30.1377  -23.3612  -18.4902 C   0  0  0  0  0  0  0  0  0  0  0  0
   29.5728  -22.4327  -17.4302 C   0  0  0  0  0  0  0  0  0  0  0  0
   28.1667  -22.9741  -17.2486 C   0  0  1  0  0  0  0  0  0  0  0  0
   27.2777  -21.9579  -16.6164 C   0  0  0  0  0  0  0  0  0  0  0  0
   27.5129  -21.5971  -15.4492 O   0  0  0  0  0  0  0  0  0  0  0  0
   26.1613  -21.3747  -17.2869 N   0  0  0  0  0  0  0  0  0  0  0  0
   25.3145  -20.3376  -16.8037 C   0  0  1  0  0  0  0  0  0  0  0  0
   24.7365  -19.4714  -17.9482 C   0  0  0  0  0  0  0  0  0  0  0  0
   23.8341  -18.3772  -17.4204 C   0  0  0  0  0  0  0  0  0  0  0  0
   23.2686  -17.6345  -18.5745 C   0  0  0  0  0  0  0  0  0  0  0  0
   22.7017  -18.2655  -19.5014 O   0  0  0  0  0  0  0  0  0  0  0  0
   24.1595  -20.8663  -15.9642 C   0  0  0  0  0  0  0  0  0  0  0  0
   23.4368  -21.6731  -16.5486 O   0  0  0  0  0  0  0  0  0  0  0  0
   23.3430  -16.2592  -18.6762 O   0  0  0  0  0  0  0  0  0  0  0  0
   26.4334  -21.5173   -9.2970 N   0  0  0  0  0  0  0  0  0  0  0  0
   25.5238  -20.4179   -9.1465 C   0  0  0  0  0  0  0  0  0  0  0  0
   25.9937  -19.3155   -8.6750 N   0  0  0  0  0  0  0  0  0  0  0  0
   24.1887  -20.5731   -9.5069 N   0  0  0  0  0  0  0  0  0  0  0  0
   23.6604  -21.8594   -9.9428 C   0  0  0  0  0  0  0  0  0  0  0  0
   22.8605  -21.6432  -11.2093 C   0  0  0  0  0  0  0  0  0  0  0  0
   23.6924  -21.1317  -12.3166 C   0  0  0  0  0  0  0  0  0  0  0  0
   23.0319  -20.9359  -13.6417 C   0  0  2  0  0  0  0  0  0  0  0  0
   23.9458  -20.4716  -14.6443 N   0  0  0  0  0  0  0  0  0  0  0  0
   21.7032  -20.3020  -13.5856 C   0  0  0  0  0  0  0  0  0  0  0  0
   20.4391  -20.8406  -13.4411 O   0  0  0  0  0  0  0  0  0  0  0  0
   21.6347  -19.0047  -13.6792 O   0  0  0  0  0  0  0  0  0  0  0  0
  1  2  1  0
  3  2  1  0
  4  3  1  0
  4  5  1  0
  5  6  1  6
  5  1  1  0
  6  7  2  0
  8  9  1  0
  8  6  1  0
  9 10  1  6
 11 10  1  0
 12 11  1  0
 13 12  2  0
 14 15  2  0
 14  9  1  0
 16 12  1  0
 18 17  1  0
 19 18  2  0
 20 18  1  0
 21 22  1  0
 21 20  1  0
 22 23  1  0
 24 23  1  1
 24 25  1  0
 24 26  1  0
 25 14  1  0
 26 27  1  0
 28 26  2  0
M  END
$$$$
