PER.pdb
     RDKit          3D

 28 28  0  0  1  0  0  0  0  0999 V2000
   29.2034  -21.5625  -12.1308 N   0  0  0  0  0  0  0  0  0  0  0  0
   30.3206  -21.9398  -11.2859 C   0  0  0  0  0  0  0  0  0  0  0  0
   30.2649  -20.9917  -10.1079 C   0  0  0  0  0  0  0  0  0  0  0  0
   28.8997  -20.3320  -10.1849 C   0  0  0  0  0  0  0  0  0  0  0  0
   28.1927  -21.1826  -11.2241 C   0  0  1  0  0  0  0  0  0  0  0  0
   27.0244  -20.4605  -11.8042 C   0  0  0  0  0  0  0  0  0  0  0  0
   26.1523  -20.0149  -11.0369 O   0  0  0  0  0  0  0  0  0  0  0  0
   26.8539  -20.2543  -13.2058 N   0  0  0  0  0  0  0  0  0  0  0  0
   25.8150  -19.5219  -13.8464 C   0  0  1  0  0  0  0  0  0  0  0  0
   26.2318  -19.0176  -15.2487 C   0  0  0  0  0  0  0  0  0  0  0  0
   27.4688  -18.1482  -15.1853 C   0  0  0  0  0  0  0  0  0  0  0  0
   27.8471  -17.7647  -16.5685 C   0  0  0  0  0  0  0  0  0  0  0  0
   28.8146  -16.9849  -16.7541 O   0  0  0  0  0  0  0  0  0  0  0  0
   24.5285  -20.3249  -13.9819 C   0  0  0  0  0  0  0  0  0  0  0  0
   24.6998  -21.5141  -14.2486 O   0  0  0  0  0  0  0  0  0  0  0  0
   27.1688  -18.2330  -17.6768 O   0  0  0  0  0  0  0  0  0  0  0  0
   16.8048  -22.6219  -11.1663 N   0  0  0  0  0  0  0  0  0  0  0  0
   17.8428  -23.5976  -11.3377 C   0  0  0  0  0  0  0  0  0  0  0  0
   17.4918  -24.8343  -11.4146 N   0  0  0  0  0  0  0  0  0  0  0  0
   19.1700  -23.1866  -11.4138 N   0  0  0  0  0  0  0  0  0  0  0  0
   19.5384  -21.7786  -11.3390 C   0  0  0  0  0  0  0  0  0  0  0  0
   20.0027  -21.3326  -12.7087 C   0  0  0  0  0  0  0  0  0  0  0  0
   21.3336  -20.6951  -12.6688 C   0  0  0  0  0  0  0  0  0  0  0  0
   21.9460  -20.2951  -13.9709 C   0  0  2  0  0  0  0  0  0  0  0  0
   23.2660  -19.7584  -13.8119 N   0  0  0  0  0  0  0  0  0  0  0  0
   21.0356  -19.6002  -14.8977 C   0  0  0  0  0  0  0  0  0  0  0  0
   20.8104  -18.2554  -15.1209 O   0  0  0  0  0  0  0  0  0  0  0  0
   20.2821  -20.3211  -15.6780 O   0  0  0  0  0  0  0  0  0  0  0  0
  1  2  1  0
  3  2  1  0
  4  3  1  0
  4  5  1  0
  5  6  1  6
  5  1  1  0
  6  7  2  0
  8  9  1  0
  8  6  1  0
  9 10  1  6
 11 10  1  0
 12 11  1  0
 13 12  2  0
 14 15  2  0
 14  9  1  0
 16 12  1  0
 18 17  1  0
 19 18  2  0
 20 18  1  0
 21 22  1  0
 21 20  1  0
 22 23  1  0
 24 23  1  1
 24 25  1  0
 24 26  1  0
 25 14  1  0
 26 27  1  0
 28 26  2  0
M  END
$$$$
