CHD.pdb
     RDKit          3D

 25 25  0  0  1  0  0  0  0  0999 V2000
   14.0861  -14.0374   16.4224 N   0  0  0  0  0  0  0  0  0  0  0  0
   13.2216  -15.1603   16.7887 C   0  0  1  0  0  0  0  0  0  0  0  0
   14.0154  -16.4620   16.6400 C   0  0  0  0  0  0  0  0  0  0  0  0
   12.9677  -17.8499   17.1281 S   0  0  0  0  0  0  0  0  0  0  0  0
   12.8154  -14.9662   18.2043 C   0  0  0  0  0  0  0  0  0  0  0  0
   13.6554  -14.3392   18.9354 O   0  0  0  0  0  0  0  0  0  0  0  0
   11.5925  -15.4389   18.7065 N   0  0  0  0  0  0  0  0  0  0  0  0
   11.2495  -15.2727   20.0991 C   0  0  1  0  0  0  0  0  0  0  0  0
    9.7639  -15.4483   20.3064 C   0  0  0  0  0  0  0  0  0  0  0  0
    8.9773  -14.3563   19.6858 C   0  0  0  0  0  0  0  0  0  0  0  0
    9.4308  -13.1198   19.2502 C   0  0  0  0  0  0  0  0  0  0  0  0
    8.4101  -12.4008   18.7418 N   0  0  0  0  0  0  0  0  0  0  0  0
    7.3266  -13.1808   18.8583 C   0  0  0  0  0  0  0  0  0  0  0  0
    7.6578  -14.3482   19.4203 N   0  0  0  0  0  0  0  0  0  0  0  0
   12.0606  -16.1800   20.9671 C   0  0  0  0  0  0  0  0  0  0  0  0
   12.3385  -17.3568   20.6279 O   0  0  0  0  0  0  0  0  0  0  0  0
   12.5378  -15.7051   22.2195 N   0  0  0  0  0  0  0  0  0  0  0  0
   13.6872  -16.3014   22.8904 C   0  0  1  0  0  0  0  0  0  0  0  0
   14.9470  -15.5304   22.5903 C   0  0  0  0  0  0  0  0  0  0  0  0
   16.1142  -16.1527   23.2452 C   0  0  0  0  0  0  0  0  0  0  0  0
   16.8895  -15.5318   24.0366 O   0  0  0  0  0  0  0  0  0  0  0  0
   13.4322  -16.5356   24.3140 C   0  0  0  0  0  0  0  0  0  0  0  0
   12.4686  -16.0215   24.9485 O   0  0  0  0  0  0  0  0  0  0  0  0
   16.4473  -17.4902   23.0326 O   0  0  0  0  0  0  0  0  0  0  0  0
   14.2601  -17.3585   25.0557 O   0  0  0  0  0  0  0  0  0  0  0  0
  2  1  1  1
  3  2  1  0
  4  3  1  0
  5  2  1  0
  6  5  2  0
  7  5  1  0
  8  9  1  6
  8  7  1  0
  9 10  1  0
 10 14  1  0
 10 11  2  0
 11 12  1  0
 13 12  1  0
 14 13  2  0
 15  8  1  0
 16 15  2  0
 17 15  1  0
 18 17  1  0
 18 19  1  1
 19 20  1  0
 20 24  1  0
 20 21  2  0
 22 25  1  0
 22 18  1  0
 23 22  2  0
M  END
$$$$
