CHD.pdb
     RDKit          3D

 25 25  0  0  1  0  0  0  0  0999 V2000
    5.3887  -14.4400   26.5989 N   0  0  0  0  0  0  0  0  0  0  0  0
    6.3192  -13.5120   25.9543 C   0  0  1  0  0  0  0  0  0  0  0  0
    7.4506  -13.1884   26.9352 C   0  0  0  0  0  0  0  0  0  0  0  0
    7.3472  -11.4460   27.3995 S   0  0  0  0  0  0  0  0  0  0  0  0
    6.8630  -14.1911   24.7503 C   0  0  0  0  0  0  0  0  0  0  0  0
    7.0890  -15.4422   24.8807 O   0  0  0  0  0  0  0  0  0  0  0  0
    7.1124  -13.5066   23.5501 N   0  0  0  0  0  0  0  0  0  0  0  0
    7.6771  -14.1905   22.4108 C   0  0  1  0  0  0  0  0  0  0  0  0
    7.6874  -13.2885   21.1995 C   0  0  0  0  0  0  0  0  0  0  0  0
    8.0775  -14.0100   19.9652 C   0  0  0  0  0  0  0  0  0  0  0  0
    8.4996  -15.3258   19.8439 C   0  0  0  0  0  0  0  0  0  0  0  0
    8.7640  -15.6143   18.5539 N   0  0  0  0  0  0  0  0  0  0  0  0
    8.5095  -14.4882   17.8733 C   0  0  0  0  0  0  0  0  0  0  0  0
    8.0998  -13.5278   18.7088 N   0  0  0  0  0  0  0  0  0  0  0  0
    9.0305  -14.7405   22.7273 C   0  0  0  0  0  0  0  0  0  0  0  0
    9.9258  -14.0435   23.2656 O   0  0  0  0  0  0  0  0  0  0  0  0
    9.3241  -16.0958   22.4127 N   0  0  0  0  0  0  0  0  0  0  0  0
   10.6417  -16.6786   22.6389 C   0  0  1  0  0  0  0  0  0  0  0  0
   10.5424  -17.9290   23.4743 C   0  0  0  0  0  0  0  0  0  0  0  0
   11.1269  -17.7161   24.8129 C   0  0  0  0  0  0  0  0  0  0  0  0
   11.6867  -16.6337   25.1709 O   0  0  0  0  0  0  0  0  0  0  0  0
   11.3978  -16.8280   21.3930 C   0  0  0  0  0  0  0  0  0  0  0  0
   12.3957  -16.1166   21.0876 O   0  0  0  0  0  0  0  0  0  0  0  0
   11.1013  -18.7105   25.7904 O   0  0  0  0  0  0  0  0  0  0  0  0
   11.0449  -17.7872   20.4612 O   0  0  0  0  0  0  0  0  0  0  0  0
  2  1  1  1
  3  2  1  0
  4  3  1  0
  5  2  1  0
  6  5  2  0
  7  5  1  0
  8  9  1  6
  8  7  1  0
  9 10  1  0
 10 14  1  0
 10 11  2  0
 11 12  1  0
 13 12  1  0
 14 13  2  0
 15  8  1  0
 16 15  2  0
 17 15  1  0
 18 17  1  0
 18 19  1  6
 19 20  1  0
 20 24  1  0
 20 21  2  0
 22 25  1  0
 22 18  1  0
 23 22  2  0
M  END
$$$$
