CHD.pdb
     RDKit          3D

 25 25  0  0  1  0  0  0  0  0999 V2000
   14.0089  -14.3705   16.8329 N   0  0  0  0  0  0  0  0  0  0  0  0
   13.0837  -15.4340   17.2271 C   0  0  1  0  0  0  0  0  0  0  0  0
   13.8776  -16.7289   17.4257 C   0  0  0  0  0  0  0  0  0  0  0  0
   14.9156  -16.5642   18.8945 S   0  0  0  0  0  0  0  0  0  0  0  0
   12.4485  -15.0208   18.5048 C   0  0  0  0  0  0  0  0  0  0  0  0
   12.3186  -13.7603   18.6708 O   0  0  0  0  0  0  0  0  0  0  0  0
   12.0195  -15.9505   19.4655 N   0  0  0  0  0  0  0  0  0  0  0  0
   10.7683  -15.7709   20.1632 C   0  0  1  0  0  0  0  0  0  0  0  0
    9.6332  -15.5909   19.1834 C   0  0  0  0  0  0  0  0  0  0  0  0
    9.0932  -14.2108   19.1968 C   0  0  0  0  0  0  0  0  0  0  0  0
    9.5047  -13.1416   19.9790 C   0  0  0  0  0  0  0  0  0  0  0  0
    8.7664  -12.0485   19.7011 N   0  0  0  0  0  0  0  0  0  0  0  0
    7.8999  -12.4303   18.7527 C   0  0  0  0  0  0  0  0  0  0  0  0
    8.0894  -13.7184   18.4475 N   0  0  0  0  0  0  0  0  0  0  0  0
   10.5222  -16.8868   21.1268 C   0  0  0  0  0  0  0  0  0  0  0  0
   10.0927  -18.0072   20.7560 O   0  0  0  0  0  0  0  0  0  0  0  0
   10.7794  -16.6837   22.5104 N   0  0  0  0  0  0  0  0  0  0  0  0
   11.6885  -17.5380   23.2659 C   0  0  1  0  0  0  0  0  0  0  0  0
   13.0000  -17.7036   22.5420 C   0  0  0  0  0  0  0  0  0  0  0  0
   13.9154  -18.5760   23.3033 C   0  0  0  0  0  0  0  0  0  0  0  0
   13.7097  -19.8149   23.4929 O   0  0  0  0  0  0  0  0  0  0  0  0
   11.8049  -17.1160   24.6639 C   0  0  0  0  0  0  0  0  0  0  0  0
   12.0558  -15.9308   25.0211 O   0  0  0  0  0  0  0  0  0  0  0  0
   15.0892  -18.0856   23.8750 O   0  0  0  0  0  0  0  0  0  0  0  0
   11.6392  -18.0241   25.6939 O   0  0  0  0  0  0  0  0  0  0  0  0
  2  1  1  1
  3  2  1  0
  4  3  1  0
  5  2  1  0
  6  5  2  0
  7  5  1  0
  8  9  1  6
  8  7  1  0
  9 10  1  0
 10 14  1  0
 10 11  2  0
 11 12  1  0
 13 12  1  0
 14 13  2  0
 15  8  1  0
 16 15  2  0
 17 15  1  0
 18 17  1  0
 18 19  1  6
 19 20  1  0
 20 24  1  0
 20 21  2  0
 22 25  1  0
 22 18  1  0
 23 22  2  0
M  END
$$$$
