CHD.pdb
     RDKit          3D

 25 25  0  0  1  0  0  0  0  0999 V2000
    5.4844  -18.4978   22.6709 N   0  0  0  0  0  0  0  0  0  0  0  0
    6.0153  -17.3753   23.4458 C   0  0  1  0  0  0  0  0  0  0  0  0
    6.2230  -17.8307   24.8936 C   0  0  0  0  0  0  0  0  0  0  0  0
    6.7706  -16.4215   25.8817 S   0  0  0  0  0  0  0  0  0  0  0  0
    7.3147  -16.9896   22.8381 C   0  0  0  0  0  0  0  0  0  0  0  0
    8.0198  -17.9567   22.3902 O   0  0  0  0  0  0  0  0  0  0  0  0
    7.7407  -15.6540   22.7604 N   0  0  0  0  0  0  0  0  0  0  0  0
    9.0815  -15.3275   22.3358 C   0  0  1  0  0  0  0  0  0  0  0  0
    9.1144  -13.9719   21.6710 C   0  0  0  0  0  0  0  0  0  0  0  0
    8.4550  -13.9810   20.3438 C   0  0  0  0  0  0  0  0  0  0  0  0
    7.8914  -15.0602   19.6790 C   0  0  0  0  0  0  0  0  0  0  0  0
    7.3889  -14.6665   18.4916 N   0  0  0  0  0  0  0  0  0  0  0  0
    7.6359  -13.3516   18.4139 C   0  0  0  0  0  0  0  0  0  0  0  0
    8.2713  -12.9365   19.5150 N   0  0  0  0  0  0  0  0  0  0  0  0
   10.0483  -15.4329   23.4709 C   0  0  0  0  0  0  0  0  0  0  0  0
    9.6795  -15.3757   24.6700 O   0  0  0  0  0  0  0  0  0  0  0  0
   11.4327  -15.6036   23.1950 N   0  0  0  0  0  0  0  0  0  0  0  0
   12.2792  -16.4909   23.9844 C   0  0  1  0  0  0  0  0  0  0  0  0
   11.5868  -17.8032   24.2486 C   0  0  0  0  0  0  0  0  0  0  0  0
   11.6943  -18.1784   25.6721 C   0  0  0  0  0  0  0  0  0  0  0  0
   11.8062  -17.3343   26.6145 O   0  0  0  0  0  0  0  0  0  0  0  0
   13.6274  -16.6072   23.4232 C   0  0  0  0  0  0  0  0  0  0  0  0
   13.8638  -16.9273   22.2244 O   0  0  0  0  0  0  0  0  0  0  0  0
   11.6796  -19.5114   26.0819 O   0  0  0  0  0  0  0  0  0  0  0  0
   14.7429  -16.3631   24.2036 O   0  0  0  0  0  0  0  0  0  0  0  0
  2  1  1  6
  3  2  1  0
  4  3  1  0
  5  2  1  0
  6  5  2  0
  7  5  1  0
  8  9  1  1
  8  7  1  0
  9 10  1  0
 10 14  1  0
 10 11  2  0
 11 12  1  0
 13 12  1  0
 14 13  2  0
 15  8  1  0
 16 15  2  0
 17 15  1  0
 18 17  1  0
 18 19  1  6
 19 20  1  0
 20 24  1  0
 20 21  2  0
 22 25  1  0
 22 18  1  0
 23 22  2  0
M  END
$$$$
