CHD.pdb
     RDKit          3D

 25 25  0  0  1  0  0  0  0  0999 V2000
    7.2254  -13.7979   16.9420 N   0  0  0  0  0  0  0  0  0  0  0  0
    8.2693  -13.2872   17.8318 C   0  0  1  0  0  0  0  0  0  0  0  0
    7.6041  -12.5664   19.0086 C   0  0  0  0  0  0  0  0  0  0  0  0
    8.8643  -12.1528   20.2345 S   0  0  0  0  0  0  0  0  0  0  0  0
    9.0488  -14.4538   18.3195 C   0  0  0  0  0  0  0  0  0  0  0  0
    8.3645  -15.5012   18.5798 O   0  0  0  0  0  0  0  0  0  0  0  0
   10.4425  -14.4103   18.4839 N   0  0  0  0  0  0  0  0  0  0  0  0
   11.1615  -15.5438   19.0157 C   0  0  1  0  0  0  0  0  0  0  0  0
   11.8843  -16.2808   17.9134 C   0  0  0  0  0  0  0  0  0  0  0  0
   12.5742  -17.4955   18.4084 C   0  0  0  0  0  0  0  0  0  0  0  0
   13.9394  -17.7177   18.5137 C   0  0  0  0  0  0  0  0  0  0  0  0
   14.1752  -18.9487   19.0098 N   0  0  0  0  0  0  0  0  0  0  0  0
   12.9674  -19.4927   19.2133 C   0  0  0  0  0  0  0  0  0  0  0  0
   12.0084  -18.6315   18.8568 N   0  0  0  0  0  0  0  0  0  0  0  0
   12.0752  -15.1320   20.1247 C   0  0  0  0  0  0  0  0  0  0  0  0
   12.9315  -14.2244   19.9826 O   0  0  0  0  0  0  0  0  0  0  0  0
   11.9799  -15.7825   21.3855 N   0  0  0  0  0  0  0  0  0  0  0  0
   12.8142  -15.4046   22.5204 C   0  0  1  0  0  0  0  0  0  0  0  0
   12.0808  -15.6095   23.8211 C   0  0  0  0  0  0  0  0  0  0  0  0
   12.0020  -17.0437   24.1612 C   0  0  0  0  0  0  0  0  0  0  0  0
   12.3182  -17.9747   23.3572 O   0  0  0  0  0  0  0  0  0  0  0  0
   14.1411  -16.0224   22.4569 C   0  0  0  0  0  0  0  0  0  0  0  0
   15.1102  -15.6816   23.1917 O   0  0  0  0  0  0  0  0  0  0  0  0
   11.5663  -17.4772   25.4131 O   0  0  0  0  0  0  0  0  0  0  0  0
   14.4051  -17.0425   21.5611 O   0  0  0  0  0  0  0  0  0  0  0  0
  2  1  1  6
  3  2  1  0
  4  3  1  0
  5  2  1  0
  6  5  2  0
  7  5  1  0
  8  9  1  6
  8  7  1  0
  9 10  1  0
 10 14  1  0
 10 11  2  0
 11 12  1  0
 13 12  1  0
 14 13  2  0
 15  8  1  0
 16 15  2  0
 17 15  1  0
 18 17  1  0
 18 19  1  1
 19 20  1  0
 20 24  1  0
 20 21  2  0
 22 25  1  0
 22 18  1  0
 23 22  2  0
M  END
$$$$
