CHD.pdb
     RDKit          3D

 25 25  0  0  1  0  0  0  0  0999 V2000
    5.9434  -19.1137   20.5208 N   0  0  0  0  0  0  0  0  0  0  0  0
    5.9917  -18.0715   21.5474 C   0  0  1  0  0  0  0  0  0  0  0  0
    5.8036  -18.7238   22.9207 C   0  0  0  0  0  0  0  0  0  0  0  0
    5.7369  -17.4328   24.1820 S   0  0  0  0  0  0  0  0  0  0  0  0
    7.3271  -17.4263   21.4648 C   0  0  0  0  0  0  0  0  0  0  0  0
    8.3030  -18.2141   21.2193 O   0  0  0  0  0  0  0  0  0  0  0  0
    7.5066  -16.0454   21.6439 N   0  0  0  0  0  0  0  0  0  0  0  0
    8.8226  -15.4549   21.5793 C   0  0  1  0  0  0  0  0  0  0  0  0
    8.7361  -14.0056   21.1634 C   0  0  0  0  0  0  0  0  0  0  0  0
    8.2180  -13.8471   19.7841 C   0  0  0  0  0  0  0  0  0  0  0  0
    7.0447  -13.2271   19.3798 C   0  0  0  0  0  0  0  0  0  0  0  0
    6.9228  -13.2876   18.0386 N   0  0  0  0  0  0  0  0  0  0  0  0
    8.0109  -13.9401   17.6069 C   0  0  0  0  0  0  0  0  0  0  0  0
    8.7873  -14.2765   18.6425 N   0  0  0  0  0  0  0  0  0  0  0  0
    9.5610  -15.6390   22.8658 C   0  0  0  0  0  0  0  0  0  0  0  0
    9.1121  -15.2168   23.9601 O   0  0  0  0  0  0  0  0  0  0  0  0
   10.8132  -16.3126   22.8616 N   0  0  0  0  0  0  0  0  0  0  0  0
   11.5730  -16.5493   24.0838 C   0  0  1  0  0  0  0  0  0  0  0  0
   11.0904  -17.7919   24.7870 C   0  0  0  0  0  0  0  0  0  0  0  0
   11.9121  -18.0749   25.9800 C   0  0  0  0  0  0  0  0  0  0  0  0
   12.7360  -17.2465   26.4782 O   0  0  0  0  0  0  0  0  0  0  0  0
   13.0184  -16.4942   23.8518 C   0  0  0  0  0  0  0  0  0  0  0  0
   13.8805  -16.8443   24.7059 O   0  0  0  0  0  0  0  0  0  0  0  0
   11.8348  -19.2953   26.6506 O   0  0  0  0  0  0  0  0  0  0  0  0
   13.5255  -16.0427   22.6469 O   0  0  0  0  0  0  0  0  0  0  0  0
  2  1  1  6
  3  2  1  0
  4  3  1  0
  5  2  1  0
  6  5  2  0
  7  5  1  0
  8  9  1  1
  8  7  1  0
  9 10  1  0
 10 14  1  0
 10 11  2  0
 11 12  1  0
 13 12  1  0
 14 13  2  0
 15  8  1  0
 16 15  2  0
 17 15  1  0
 18 17  1  0
 18 19  1  6
 19 20  1  0
 20 24  1  0
 20 21  2  0
 22 25  1  0
 22 18  1  0
 23 22  2  0
M  END
$$$$
