CHD.pdb
     RDKit          3D

 25 25  0  0  1  0  0  0  0  0999 V2000
    9.4673  -17.1946   17.3842 N   0  0  0  0  0  0  0  0  0  0  0  0
    8.4571  -17.6538   18.3386 C   0  0  1  0  0  0  0  0  0  0  0  0
    8.6201  -19.1636   18.5400 C   0  0  0  0  0  0  0  0  0  0  0  0
    7.4243  -19.7263   19.7711 S   0  0  0  0  0  0  0  0  0  0  0  0
    8.6946  -16.9373   19.6179 C   0  0  0  0  0  0  0  0  0  0  0  0
    9.9212  -16.7904   19.9452 O   0  0  0  0  0  0  0  0  0  0  0  0
    7.6443  -16.4538   20.4144 N   0  0  0  0  0  0  0  0  0  0  0  0
    7.9111  -15.7805   21.6634 C   0  0  1  0  0  0  0  0  0  0  0  0
    6.6572  -15.1279   22.1951 C   0  0  0  0  0  0  0  0  0  0  0  0
    6.8926  -14.4182   23.4746 C   0  0  0  0  0  0  0  0  0  0  0  0
    8.1018  -14.1984   24.1180 C   0  0  0  0  0  0  0  0  0  0  0  0
    7.9042  -13.5128   25.2618 N   0  0  0  0  0  0  0  0  0  0  0  0
    6.5822  -13.3052   25.3337 C   0  0  0  0  0  0  0  0  0  0  0  0
    5.9731  -13.8425   24.2713 N   0  0  0  0  0  0  0  0  0  0  0  0
    8.5387  -16.7078   22.6536 C   0  0  0  0  0  0  0  0  0  0  0  0
    8.1786  -17.9054   22.7688 O   0  0  0  0  0  0  0  0  0  0  0  0
    9.5779  -16.2284   23.4975 N   0  0  0  0  0  0  0  0  0  0  0  0
   10.3131  -17.1062   24.4009 C   0  0  1  0  0  0  0  0  0  0  0  0
   11.7377  -17.2824   23.9414 C   0  0  0  0  0  0  0  0  0  0  0  0
   12.1974  -18.6663   24.1694 C   0  0  0  0  0  0  0  0  0  0  0  0
   11.5143  -19.5406   24.7875 O   0  0  0  0  0  0  0  0  0  0  0  0
   10.1624  -16.7040   25.8015 C   0  0  0  0  0  0  0  0  0  0  0  0
   10.4685  -15.5599   26.2403 O   0  0  0  0  0  0  0  0  0  0  0  0
   13.4369  -19.1118   23.7111 O   0  0  0  0  0  0  0  0  0  0  0  0
    9.6602  -17.5856   26.7413 O   0  0  0  0  0  0  0  0  0  0  0  0
  2  1  1  6
  3  2  1  0
  4  3  1  0
  5  2  1  0
  6  5  2  0
  7  5  1  0
  8  9  1  1
  8  7  1  0
  9 10  1  0
 10 14  1  0
 10 11  2  0
 11 12  1  0
 13 12  1  0
 14 13  2  0
 15  8  1  0
 16 15  2  0
 17 15  1  0
 18 17  1  0
 18 19  1  6
 19 20  1  0
 20 24  1  0
 20 21  2  0
 22 25  1  0
 22 18  1  0
 23 22  2  0
M  END
$$$$
