CHD.pdb
     RDKit          3D

 25 25  0  0  1  0  0  0  0  0999 V2000
    8.1894  -12.7119   18.6247 N   0  0  0  0  0  0  0  0  0  0  0  0
    7.6257  -13.9209   19.2271 C   0  0  1  0  0  0  0  0  0  0  0  0
    7.9886  -15.1233   18.3501 C   0  0  0  0  0  0  0  0  0  0  0  0
    9.7817  -15.3393   18.3592 S   0  0  0  0  0  0  0  0  0  0  0  0
    8.2293  -14.0693   20.5762 C   0  0  0  0  0  0  0  0  0  0  0  0
    9.3071  -13.4107   20.7708 O   0  0  0  0  0  0  0  0  0  0  0  0
    7.6561  -14.8776   21.5708 N   0  0  0  0  0  0  0  0  0  0  0  0
    8.3191  -15.0752   22.8381 C   0  0  1  0  0  0  0  0  0  0  0  0
    7.3117  -15.3517   23.9288 C   0  0  0  0  0  0  0  0  0  0  0  0
    6.8690  -14.1132   24.6116 C   0  0  0  0  0  0  0  0  0  0  0  0
    7.3061  -12.8152   24.3915 C   0  0  0  0  0  0  0  0  0  0  0  0
    6.6638  -11.9606   25.2127 N   0  0  0  0  0  0  0  0  0  0  0  0
    5.8314  -12.7176   25.9409 C   0  0  0  0  0  0  0  0  0  0  0  0
    5.9488  -14.0020   25.5876 N   0  0  0  0  0  0  0  0  0  0  0  0
    9.3649  -16.1388   22.7406 C   0  0  0  0  0  0  0  0  0  0  0  0
    9.1791  -17.2014   22.0975 O   0  0  0  0  0  0  0  0  0  0  0  0
   10.6140  -15.9513   23.3935 N   0  0  0  0  0  0  0  0  0  0  0  0
   11.6740  -16.9519   23.3463 C   0  0  1  0  0  0  0  0  0  0  0  0
   13.0297  -16.2984   23.2661 C   0  0  0  0  0  0  0  0  0  0  0  0
   14.1013  -17.3124   23.2189 C   0  0  0  0  0  0  0  0  0  0  0  0
   15.0776  -17.3409   24.0307 O   0  0  0  0  0  0  0  0  0  0  0  0
   11.5334  -17.9520   24.4076 C   0  0  0  0  0  0  0  0  0  0  0  0
   10.9391  -17.7365   25.5011 O   0  0  0  0  0  0  0  0  0  0  0  0
   14.1105  -18.3250   22.2600 O   0  0  0  0  0  0  0  0  0  0  0  0
   12.0606  -19.2219   24.2584 O   0  0  0  0  0  0  0  0  0  0  0  0
  2  1  1  6
  3  2  1  0
  4  3  1  0
  5  2  1  0
  6  5  2  0
  7  5  1  0
  8  9  1  1
  8  7  1  0
  9 10  1  0
 10 14  1  0
 10 11  2  0
 11 12  1  0
 13 12  1  0
 14 13  2  0
 15  8  1  0
 16 15  2  0
 17 15  1  0
 18 17  1  0
 18 19  1  1
 19 20  1  0
 20 24  1  0
 20 21  2  0
 22 25  1  0
 22 18  1  0
 23 22  2  0
M  END
$$$$
