CHD.pdb
     RDKit          3D

 25 25  0  0  1  0  0  0  0  0999 V2000
   14.2700  -13.4955   17.6668 N   0  0  0  0  0  0  0  0  0  0  0  0
   14.5929  -14.8184   18.2035 C   0  0  1  0  0  0  0  0  0  0  0  0
   15.9172  -14.7298   18.9684 C   0  0  0  0  0  0  0  0  0  0  0  0
   17.2578  -14.4385   17.7937 S   0  0  0  0  0  0  0  0  0  0  0  0
   13.4937  -15.2060   19.1244 C   0  0  0  0  0  0  0  0  0  0  0  0
   12.9862  -14.2513   19.8058 O   0  0  0  0  0  0  0  0  0  0  0  0
   13.0420  -16.5303   19.2396 N   0  0  0  0  0  0  0  0  0  0  0  0
   11.9330  -16.8624   20.1024 C   0  0  1  0  0  0  0  0  0  0  0  0
   10.9338  -17.7304   19.3751 C   0  0  0  0  0  0  0  0  0  0  0  0
   10.2044  -16.9855   18.3219 C   0  0  0  0  0  0  0  0  0  0  0  0
   10.3667  -15.6598   17.9471 C   0  0  0  0  0  0  0  0  0  0  0  0
    9.5167  -15.3496   16.9478 N   0  0  0  0  0  0  0  0  0  0  0  0
    8.8280  -16.4720   16.6991 C   0  0  0  0  0  0  0  0  0  0  0  0
    9.2330  -17.4512   17.5149 N   0  0  0  0  0  0  0  0  0  0  0  0
   12.4073  -17.4801   21.3783 C   0  0  0  0  0  0  0  0  0  0  0  0
   13.3141  -18.3485   21.4034 O   0  0  0  0  0  0  0  0  0  0  0  0
   11.8193  -17.0784   22.6090 N   0  0  0  0  0  0  0  0  0  0  0  0
   12.5425  -17.1426   23.8738 C   0  0  1  0  0  0  0  0  0  0  0  0
   13.7635  -16.2596   23.8426 C   0  0  0  0  0  0  0  0  0  0  0  0
   14.9478  -16.9800   24.3497 C   0  0  0  0  0  0  0  0  0  0  0  0
   16.0577  -16.4168   24.6024 O   0  0  0  0  0  0  0  0  0  0  0  0
   11.6590  -16.9326   25.0234 C   0  0  0  0  0  0  0  0  0  0  0  0
   11.6630  -17.6620   26.0546 O   0  0  0  0  0  0  0  0  0  0  0  0
   14.9232  -18.3538   24.5888 O   0  0  0  0  0  0  0  0  0  0  0  0
   10.7491  -15.8911   25.0362 O   0  0  0  0  0  0  0  0  0  0  0  0
  2  1  1  1
  3  2  1  0
  4  3  1  0
  5  2  1  0
  6  5  2  0
  7  5  1  0
  8  9  1  6
  8  7  1  0
  9 10  1  0
 10 14  1  0
 10 11  2  0
 11 12  1  0
 13 12  1  0
 14 13  2  0
 15  8  1  0
 16 15  2  0
 17 15  1  0
 18 17  1  0
 18 19  1  6
 19 20  1  0
 20 24  1  0
 20 21  2  0
 22 25  1  0
 22 18  1  0
 23 22  2  0
M  END
$$$$
