CHD.pdb
     RDKit          3D

 25 25  0  0  1  0  0  0  0  0999 V2000
    4.1816  -24.7443   25.3254 N   0  0  0  0  0  0  0  0  0  0  0  0
    4.1671  -23.2816   25.2723 C   0  0  1  0  0  0  0  0  0  0  0  0
    3.9199  -22.7400   26.6838 C   0  0  0  0  0  0  0  0  0  0  0  0
    3.6704  -24.1280   27.8122 S   0  0  0  0  0  0  0  0  0  0  0  0
    5.4971  -22.8406   24.7794 C   0  0  0  0  0  0  0  0  0  0  0  0
    6.4422  -23.6901   24.9152 O   0  0  0  0  0  0  0  0  0  0  0  0
    5.7036  -21.5769   24.2034 N   0  0  0  0  0  0  0  0  0  0  0  0
    7.0210  -21.1597   23.7852 C   0  0  1  0  0  0  0  0  0  0  0  0
    6.9288  -20.0850   22.7282 C   0  0  0  0  0  0  0  0  0  0  0  0
    8.2595  -19.6985   22.2026 C   0  0  0  0  0  0  0  0  0  0  0  0
    9.5061  -20.1048   22.6554 C   0  0  0  0  0  0  0  0  0  0  0  0
   10.4796  -19.5346   21.9175 N   0  0  0  0  0  0  0  0  0  0  0  0
    9.8473  -18.7775   21.0101 C   0  0  0  0  0  0  0  0  0  0  0  0
    8.5235  -18.8707   21.1746 N   0  0  0  0  0  0  0  0  0  0  0  0
    7.8524  -20.7428   24.9555 C   0  0  0  0  0  0  0  0  0  0  0  0
    7.3614  -20.1447   25.9445 O   0  0  0  0  0  0  0  0  0  0  0  0
    9.2454  -21.0279   24.9588 N   0  0  0  0  0  0  0  0  0  0  0  0
   10.0738  -20.8441   26.1450 C   0  0  1  0  0  0  0  0  0  0  0  0
    9.7883  -21.9089   27.1727 C   0  0  0  0  0  0  0  0  0  0  0  0
    9.9200  -21.3697   28.5405 C   0  0  0  0  0  0  0  0  0  0  0  0
   10.2634  -20.1736   28.7940 O   0  0  0  0  0  0  0  0  0  0  0  0
   11.4894  -20.6778   25.8064 C   0  0  0  0  0  0  0  0  0  0  0  0
   11.9771  -20.9504   24.6736 O   0  0  0  0  0  0  0  0  0  0  0  0
    9.6705  -22.1556   29.6653 O   0  0  0  0  0  0  0  0  0  0  0  0
   12.3893  -20.1977   26.7404 O   0  0  0  0  0  0  0  0  0  0  0  0
  2  1  1  1
  3  2  1  0
  4  3  1  0
  5  2  1  0
  6  5  2  0
  7  5  1  0
  8  9  1  6
  8  7  1  0
  9 10  1  0
 10 14  1  0
 10 11  2  0
 11 12  1  0
 13 12  1  0
 14 13  2  0
 15  8  1  0
 16 15  2  0
 17 15  1  0
 18 17  1  0
 18 19  1  1
 19 20  1  0
 20 24  1  0
 20 21  2  0
 22 25  1  0
 22 18  1  0
 23 22  2  0
M  END
$$$$
