CHD.pdb
     RDKit          3D

 25 25  0  0  1  0  0  0  0  0999 V2000
   14.3792  -13.9372   16.1399 N   0  0  0  0  0  0  0  0  0  0  0  0
   13.5851  -15.0924   16.5611 C   0  0  1  0  0  0  0  0  0  0  0  0
   14.4730  -16.3402   16.5246 C   0  0  0  0  0  0  0  0  0  0  0  0
   13.5108  -17.7644   17.0795 S   0  0  0  0  0  0  0  0  0  0  0  0
   13.1223  -14.8328   17.9485 C   0  0  0  0  0  0  0  0  0  0  0  0
   13.8487  -14.0308   18.6284 O   0  0  0  0  0  0  0  0  0  0  0  0
   11.9659  -15.4272   18.4783 N   0  0  0  0  0  0  0  0  0  0  0  0
   11.5666  -15.1829   19.8441 C   0  0  1  0  0  0  0  0  0  0  0  0
   10.0854  -15.4215   20.0167 C   0  0  0  0  0  0  0  0  0  0  0  0
    9.2682  -14.3506   19.3990 C   0  0  0  0  0  0  0  0  0  0  0  0
    9.7096  -13.2394   18.6956 C   0  0  0  0  0  0  0  0  0  0  0  0
    8.6604  -12.4962   18.2905 N   0  0  0  0  0  0  0  0  0  0  0  0
    7.5712  -13.1370   18.7366 C   0  0  0  0  0  0  0  0  0  0  0  0
    7.9265  -14.2434   19.3983 N   0  0  0  0  0  0  0  0  0  0  0  0
   12.3914  -15.9837   20.7996 C   0  0  0  0  0  0  0  0  0  0  0  0
   12.3682  -17.2392   20.8124 O   0  0  0  0  0  0  0  0  0  0  0  0
   13.2328  -15.3118   21.7282 N   0  0  0  0  0  0  0  0  0  0  0  0
   14.0509  -16.0312   22.6979 C   0  0  1  0  0  0  0  0  0  0  0  0
   15.2643  -15.2249   23.0838 C   0  0  0  0  0  0  0  0  0  0  0  0
   16.2210  -15.1435   21.9627 C   0  0  0  0  0  0  0  0  0  0  0  0
   16.1569  -15.8796   20.9297 O   0  0  0  0  0  0  0  0  0  0  0  0
   13.2576  -16.5288   23.8246 C   0  0  0  0  0  0  0  0  0  0  0  0
   12.0710  -16.1668   24.0620 O   0  0  0  0  0  0  0  0  0  0  0  0
   17.2786  -14.2344   21.9662 O   0  0  0  0  0  0  0  0  0  0  0  0
   13.7861  -17.4498   24.7107 O   0  0  0  0  0  0  0  0  0  0  0  0
  2  1  1  1
  3  2  1  0
  4  3  1  0
  5  2  1  0
  6  5  2  0
  7  5  1  0
  8  9  1  6
  8  7  1  0
  9 10  1  0
 10 14  1  0
 10 11  2  0
 11 12  1  0
 13 12  1  0
 14 13  2  0
 15  8  1  0
 16 15  2  0
 17 15  1  0
 18 17  1  0
 18 19  1  1
 19 20  1  0
 20 24  1  0
 20 21  2  0
 22 25  1  0
 22 18  1  0
 23 22  2  0
M  END
$$$$
