CHD.pdb
     RDKit          3D

 25 25  0  0  1  0  0  0  0  0999 V2000
   10.4661  -17.9103   15.0696 N   0  0  0  0  0  0  0  0  0  0  0  0
   10.8869  -18.7833   16.1666 C   0  0  1  0  0  0  0  0  0  0  0  0
   12.2421  -19.4026   15.8111 C   0  0  0  0  0  0  0  0  0  0  0  0
   12.8286  -20.3805   17.2118 S   0  0  0  0  0  0  0  0  0  0  0  0
   11.0115  -17.9407   17.3836 C   0  0  0  0  0  0  0  0  0  0  0  0
   11.5192  -16.7824   17.1996 O   0  0  0  0  0  0  0  0  0  0  0  0
   10.6002  -18.3851   18.6503 N   0  0  0  0  0  0  0  0  0  0  0  0
   10.6557  -17.5092   19.7967 C   0  0  1  0  0  0  0  0  0  0  0  0
    9.3503  -17.5416   20.5554 C   0  0  0  0  0  0  0  0  0  0  0  0
    8.9789  -18.9134   20.9757 C   0  0  0  0  0  0  0  0  0  0  0  0
    9.7145  -20.0799   20.8256 C   0  0  0  0  0  0  0  0  0  0  0  0
    9.0375  -21.1278   21.3364 N   0  0  0  0  0  0  0  0  0  0  0  0
    7.8875  -20.6213   21.8023 C   0  0  0  0  0  0  0  0  0  0  0  0
    7.8462  -19.3016   21.5904 N   0  0  0  0  0  0  0  0  0  0  0  0
   11.8307  -17.8282   20.6639 C   0  0  0  0  0  0  0  0  0  0  0  0
   12.3493  -18.9716   20.6921 O   0  0  0  0  0  0  0  0  0  0  0  0
   12.3870  -16.8112   21.4874 N   0  0  0  0  0  0  0  0  0  0  0  0
   13.5159  -17.0613   22.3763 C   0  0  1  0  0  0  0  0  0  0  0  0
   14.3083  -15.8008   22.6097 C   0  0  0  0  0  0  0  0  0  0  0  0
   15.7299  -16.1107   22.8585 C   0  0  0  0  0  0  0  0  0  0  0  0
   16.3487  -17.0677   22.2981 O   0  0  0  0  0  0  0  0  0  0  0  0
   13.1107  -17.7691   23.5933 C   0  0  0  0  0  0  0  0  0  0  0  0
   12.0162  -17.5685   24.1908 O   0  0  0  0  0  0  0  0  0  0  0  0
   16.5004  -15.3567   23.7434 O   0  0  0  0  0  0  0  0  0  0  0  0
   13.9332  -18.7230   24.1647 O   0  0  0  0  0  0  0  0  0  0  0  0
  2  1  1  6
  3  2  1  0
  4  3  1  0
  5  2  1  0
  6  5  2  0
  7  5  1  0
  8  9  1  1
  8  7  1  0
  9 10  1  0
 10 14  1  0
 10 11  2  0
 11 12  1  0
 13 12  1  0
 14 13  2  0
 15  8  1  0
 16 15  2  0
 17 15  1  0
 18 17  1  0
 18 19  1  1
 19 20  1  0
 20 24  1  0
 20 21  2  0
 22 25  1  0
 22 18  1  0
 23 22  2  0
M  END
$$$$
