CHD.pdb
     RDKit          3D

 25 25  0  0  1  0  0  0  0  0999 V2000
    5.3901  -13.2639   25.8044 N   0  0  0  0  0  0  0  0  0  0  0  0
    6.7664  -12.8976   25.4669 C   0  0  1  0  0  0  0  0  0  0  0  0
    7.5141  -12.5492   26.7578 C   0  0  0  0  0  0  0  0  0  0  0  0
    7.0309  -10.8920   27.2894 S   0  0  0  0  0  0  0  0  0  0  0  0
    7.3932  -14.0751   24.8133 C   0  0  0  0  0  0  0  0  0  0  0  0
    6.9494  -15.2128   25.1899 O   0  0  0  0  0  0  0  0  0  0  0  0
    8.4042  -13.9484   23.8474 N   0  0  0  0  0  0  0  0  0  0  0  0
    8.9908  -15.1152   23.2315 C   0  0  1  0  0  0  0  0  0  0  0  0
    9.5440  -14.7761   21.8678 C   0  0  0  0  0  0  0  0  0  0  0  0
    8.4916  -14.3084   20.9351 C   0  0  0  0  0  0  0  0  0  0  0  0
    8.3301  -13.0394   20.3985 C   0  0  0  0  0  0  0  0  0  0  0  0
    7.2517  -13.0080   19.5902 N   0  0  0  0  0  0  0  0  0  0  0  0
    6.7423  -14.2472   19.6206 C   0  0  0  0  0  0  0  0  0  0  0  0
    7.4768  -15.0275   20.4206 N   0  0  0  0  0  0  0  0  0  0  0  0
   10.0123  -15.7417   24.1249 C   0  0  0  0  0  0  0  0  0  0  0  0
   10.9776  -15.0906   24.5955 O   0  0  0  0  0  0  0  0  0  0  0  0
    9.8967  -17.1189   24.4590 N   0  0  0  0  0  0  0  0  0  0  0  0
   10.8785  -17.8016   25.2940 C   0  0  1  0  0  0  0  0  0  0  0  0
   10.2067  -18.7642   26.2392 C   0  0  0  0  0  0  0  0  0  0  0  0
   11.2061  -19.5294   27.0102 C   0  0  0  0  0  0  0  0  0  0  0  0
   12.2249  -19.0034   27.5564 O   0  0  0  0  0  0  0  0  0  0  0  0
   11.9695  -18.3752   24.5021 C   0  0  0  0  0  0  0  0  0  0  0  0
   11.7927  -19.0629   23.4576 O   0  0  0  0  0  0  0  0  0  0  0  0
   11.0933  -20.9075   27.1920 O   0  0  0  0  0  0  0  0  0  0  0  0
   13.2886  -18.1842   24.8712 O   0  0  0  0  0  0  0  0  0  0  0  0
  2  1  1  1
  3  2  1  0
  4  3  1  0
  5  2  1  0
  6  5  2  0
  7  5  1  0
  8  9  1  6
  8  7  1  0
  9 10  1  0
 10 14  1  0
 10 11  2  0
 11 12  1  0
 13 12  1  0
 14 13  2  0
 15  8  1  0
 16 15  2  0
 17 15  1  0
 18 17  1  0
 18 19  1  6
 19 20  1  0
 20 24  1  0
 20 21  2  0
 22 25  1  0
 22 18  1  0
 23 22  2  0
M  END
$$$$
