EAT.pdb
     RDKit          3D

 22 21  0  0  1  0  0  0  0  0999 V2000
    7.5334  -15.9986   21.1943 N   0  0  0  0  0  0  0  0  0  0  0  0
    6.7102  -15.5982   22.3113 C   0  0  1  0  0  0  0  0  0  0  0  0
    5.9473  -16.8129   22.7859 C   0  0  0  0  0  0  0  0  0  0  0  0
    6.6231  -18.0979   22.3680 C   0  0  0  0  0  0  0  0  0  0  0  0
    5.9116  -19.3073   22.8036 C   0  0  0  0  0  0  0  0  0  0  0  0
    6.3304  -20.0273   23.7534 O   0  0  0  0  0  0  0  0  0  0  0  0
    7.5073  -14.9872   23.3977 C   0  0  0  0  0  0  0  0  0  0  0  0
    8.7136  -15.2816   23.5588 O   0  0  0  0  0  0  0  0  0  0  0  0
    4.7328  -19.7072   22.1734 O   0  0  0  0  0  0  0  0  0  0  0  0
    6.5708  -12.5539   26.1003 C   0  0  0  0  0  0  0  0  0  0  0  0
    7.5711  -13.4713   25.4068 C   0  0  2  0  0  0  0  0  0  0  0  0
    6.8986  -14.0507   24.2751 N   0  0  0  0  0  0  0  0  0  0  0  0
    8.0356  -14.4975   26.3723 C   0  0  0  0  0  0  0  0  0  0  0  0
    7.3157  -15.5018   26.5911 O   0  0  0  0  0  0  0  0  0  0  0  0
   11.5061  -17.1787   28.2420 C   0  0  0  0  0  0  0  0  0  0  0  0
   10.9215  -16.1064   27.3833 C   0  0  1  0  0  0  0  0  0  0  0  0
   10.6152  -16.6583   26.1403 O   0  0  0  0  0  0  0  0  0  0  0  0
    9.7371  -15.4146   27.9898 C   0  0  2  0  0  0  0  0  0  0  0  0
    9.2691  -14.3995   27.0703 N   0  0  0  0  0  0  0  0  0  0  0  0
    9.9751  -14.8300   29.2973 C   0  0  0  0  0  0  0  0  0  0  0  0
   10.2131  -15.5846   30.2738 O   0  0  0  0  0  0  0  0  0  0  0  0
    9.9625  -13.4647   29.5738 O   0  0  0  0  0  0  0  0  0  0  0  0
  2  7  1  0
  2  1  1  6
  3  2  1  0
  4  5  1  0
  4  3  1  0
  5  9  1  0
  6  5  2  0
  7 12  1  0
  8  7  2  0
 11 10  1  1
 11 13  1  0
 12 11  1  0
 13 14  2  0
 13 19  1  0
 16 15  1  1
 17 16  1  0
 18 20  1  0
 18 16  1  0
 18 19  1  6
 20 22  1  0
 21 20  2  0
M  END
$$$$
