EAT.pdb
     RDKit          3D

 22 21  0  0  1  0  0  0  0  0999 V2000
   10.3477  -14.8317   19.3551 N   0  0  0  0  0  0  0  0  0  0  0  0
   10.7546  -15.9057   20.2305 C   0  0  1  0  0  0  0  0  0  0  0  0
   12.2621  -15.8801   20.3284 C   0  0  0  0  0  0  0  0  0  0  0  0
   12.8180  -14.5010   20.0610 C   0  0  0  0  0  0  0  0  0  0  0  0
   14.2853  -14.4385   20.0997 C   0  0  0  0  0  0  0  0  0  0  0  0
   14.9183  -13.3702   19.8672 O   0  0  0  0  0  0  0  0  0  0  0  0
   10.1129  -15.8118   21.5602 C   0  0  0  0  0  0  0  0  0  0  0  0
    9.6992  -14.7159   22.0026 O   0  0  0  0  0  0  0  0  0  0  0  0
   15.0398  -15.5734   20.3984 O   0  0  0  0  0  0  0  0  0  0  0  0
    8.9581  -18.4703   23.9189 C   0  0  0  0  0  0  0  0  0  0  0  0
    9.2428  -17.0078   23.5977 C   0  0  2  0  0  0  0  0  0  0  0  0
    9.9614  -16.9812   22.3520 N   0  0  0  0  0  0  0  0  0  0  0  0
   10.0220  -16.4115   24.7106 C   0  0  0  0  0  0  0  0  0  0  0  0
   11.2621  -16.2689   24.5814 O   0  0  0  0  0  0  0  0  0  0  0  0
   10.1182  -13.3890   28.5501 C   0  0  0  0  0  0  0  0  0  0  0  0
    9.4301  -14.1480   27.4640 C   0  0  1  0  0  0  0  0  0  0  0  0
    9.1651  -13.2691   26.4149 O   0  0  0  0  0  0  0  0  0  0  0  0
   10.1788  -15.3604   26.9959 C   0  0  2  0  0  0  0  0  0  0  0  0
    9.4280  -15.9887   25.9298 N   0  0  0  0  0  0  0  0  0  0  0  0
   10.4781  -16.3313   28.0331 C   0  0  0  0  0  0  0  0  0  0  0  0
    9.7100  -17.3125   28.1966 O   0  0  0  0  0  0  0  0  0  0  0  0
   11.5751  -16.2694   28.8895 O   0  0  0  0  0  0  0  0  0  0  0  0
  2  7  1  0
  2  1  1  6
  3  2  1  0
  4  5  1  0
  4  3  1  0
  5  9  1  0
  6  5  2  0
  7 12  1  0
  8  7  2  0
 11 10  1  1
 11 13  1  0
 12 11  1  0
 13 14  2  0
 13 19  1  0
 16 15  1  1
 17 16  1  0
 18 20  1  0
 18 16  1  0
 18 19  1  6
 20 22  1  0
 21 20  2  0
M  END
$$$$
