EAT.pdb
     RDKit          3D

 22 21  0  0  1  0  0  0  0  0999 V2000
    9.6894  -18.6678   18.5051 N   0  0  0  0  0  0  0  0  0  0  0  0
    9.1029  -17.3834   18.8083 C   0  0  1  0  0  0  0  0  0  0  0  0
    7.9889  -17.1355   17.8182 C   0  0  0  0  0  0  0  0  0  0  0  0
    8.4813  -17.2036   16.3915 C   0  0  0  0  0  0  0  0  0  0  0  0
    7.4145  -17.0595   15.3917 C   0  0  0  0  0  0  0  0  0  0  0  0
    6.1994  -16.9455   15.7179 O   0  0  0  0  0  0  0  0  0  0  0  0
    8.6264  -17.3067   20.2068 C   0  0  0  0  0  0  0  0  0  0  0  0
    8.1074  -16.2597   20.6566 O   0  0  0  0  0  0  0  0  0  0  0  0
    7.7119  -17.0439   14.0286 O   0  0  0  0  0  0  0  0  0  0  0  0
    8.3181  -19.8834   22.8993 C   0  0  0  0  0  0  0  0  0  0  0  0
    8.3905  -18.4294   22.4480 C   0  0  2  0  0  0  0  0  0  0  0  0
    8.7576  -18.4367   21.0573 N   0  0  0  0  0  0  0  0  0  0  0  0
    9.3802  -17.7113   23.2882 C   0  0  0  0  0  0  0  0  0  0  0  0
   10.1365  -16.8644   22.7537 O   0  0  0  0  0  0  0  0  0  0  0  0
    9.3727  -14.7348   26.6136 C   0  0  0  0  0  0  0  0  0  0  0  0
    9.1613  -15.7144   25.5068 C   0  0  1  0  0  0  0  0  0  0  0  0
    9.3346  -15.0495   24.2938 O   0  0  0  0  0  0  0  0  0  0  0  0
   10.0261  -16.9364   25.5978 C   0  0  2  0  0  0  0  0  0  0  0  0
    9.5168  -17.9367   24.6841 N   0  0  0  0  0  0  0  0  0  0  0  0
   10.1514  -17.4977   26.9309 C   0  0  0  0  0  0  0  0  0  0  0  0
    9.2128  -18.1918   27.3963 O   0  0  0  0  0  0  0  0  0  0  0  0
   11.2541  -17.3297   27.7656 O   0  0  0  0  0  0  0  0  0  0  0  0
  2  7  1  0
  2  1  1  6
  3  2  1  0
  4  5  1  0
  4  3  1  0
  5  9  1  0
  6  5  2  0
  7 12  1  0
  8  7  2  0
 11 10  1  1
 11 13  1  0
 12 11  1  0
 13 14  2  0
 13 19  1  0
 16 15  1  1
 17 16  1  0
 18 20  1  0
 18 16  1  0
 18 19  1  6
 20 22  1  0
 21 20  2  0
M  END
$$$$
