EAT.pdb
     RDKit          3D

 22 21  0  0  1  0  0  0  0  0999 V2000
    7.7237  -15.1364   21.0604 N   0  0  0  0  0  0  0  0  0  0  0  0
    6.8931  -15.0002   22.2338 C   0  0  1  0  0  0  0  0  0  0  0  0
    6.2422  -16.3373   22.5007 C   0  0  0  0  0  0  0  0  0  0  0  0
    7.2218  -17.4777   22.3507 C   0  0  0  0  0  0  0  0  0  0  0  0
    6.6254  -18.8013   22.5759 C   0  0  0  0  0  0  0  0  0  0  0  0
    5.4023  -18.9477   22.8563 O   0  0  0  0  0  0  0  0  0  0  0  0
    7.6591  -14.5154   23.4031 C   0  0  0  0  0  0  0  0  0  0  0  0
    8.8523  -14.8518   23.5791 O   0  0  0  0  0  0  0  0  0  0  0  0
    7.4009  -19.9576   22.4868 O   0  0  0  0  0  0  0  0  0  0  0  0
    6.6977  -12.2584   26.2464 C   0  0  0  0  0  0  0  0  0  0  0  0
    7.6938  -13.1566   25.5223 C   0  0  2  0  0  0  0  0  0  0  0  0
    7.0350  -13.6543   24.3445 N   0  0  0  0  0  0  0  0  0  0  0  0
    8.1142  -14.2471   26.4361 C   0  0  0  0  0  0  0  0  0  0  0  0
    7.2837  -15.1324   26.7549 O   0  0  0  0  0  0  0  0  0  0  0  0
   10.6075  -16.7481   25.8892 C   0  0  0  0  0  0  0  0  0  0  0  0
   10.9543  -16.1694   27.2211 C   0  0  1  0  0  0  0  0  0  0  0  0
   12.0974  -15.3851   27.0743 O   0  0  0  0  0  0  0  0  0  0  0  0
    9.8366  -15.4051   27.8660 C   0  0  2  0  0  0  0  0  0  0  0  0
    9.4251  -14.3411   26.9753 N   0  0  0  0  0  0  0  0  0  0  0  0
   10.1439  -14.8649   29.1781 C   0  0  0  0  0  0  0  0  0  0  0  0
   10.3582  -15.6537   30.1327 O   0  0  0  0  0  0  0  0  0  0  0  0
   10.2245  -13.5078   29.4820 O   0  0  0  0  0  0  0  0  0  0  0  0
  2  7  1  0
  2  1  1  6
  3  2  1  0
  4  5  1  0
  4  3  1  0
  5  9  1  0
  6  5  2  0
  7 12  1  0
  8  7  2  0
 11 10  1  1
 11 13  1  0
 12 11  1  0
 13 14  2  0
 13 19  1  0
 16 15  1  6
 17 16  1  0
 18 20  1  0
 18 16  1  0
 18 19  1  6
 20 22  1  0
 21 20  2  0
M  END
$$$$
