EAT.pdb
     RDKit          3D

 22 21  0  0  1  0  0  0  0  0999 V2000
    8.7761  -15.4090   20.3193 N   0  0  0  0  0  0  0  0  0  0  0  0
    8.4109  -16.0835   21.5428 C   0  0  1  0  0  0  0  0  0  0  0  0
    8.9023  -17.5094   21.4524 C   0  0  0  0  0  0  0  0  0  0  0  0
    8.7041  -18.0840   20.0693 C   0  0  0  0  0  0  0  0  0  0  0  0
    9.8031  -18.9539   19.6289 C   0  0  0  0  0  0  0  0  0  0  0  0
    9.9644  -20.1183   20.0915 O   0  0  0  0  0  0  0  0  0  0  0  0
    8.9409  -15.3912   22.7381 C   0  0  0  0  0  0  0  0  0  0  0  0
   10.1565  -15.1069   22.8348 O   0  0  0  0  0  0  0  0  0  0  0  0
   10.7188  -18.5168   18.6713 O   0  0  0  0  0  0  0  0  0  0  0  0
    7.2537  -13.8253   25.6804 C   0  0  0  0  0  0  0  0  0  0  0  0
    8.4941  -14.4061   25.0116 C   0  0  2  0  0  0  0  0  0  0  0  0
    8.0603  -15.0412   23.7962 N   0  0  0  0  0  0  0  0  0  0  0  0
    9.1445  -15.3591   25.9442 C   0  0  0  0  0  0  0  0  0  0  0  0
    8.6597  -16.5085   26.0810 O   0  0  0  0  0  0  0  0  0  0  0  0
   12.9668  -15.8875   26.0296 C   0  0  0  0  0  0  0  0  0  0  0  0
   12.4579  -15.7829   27.4294 C   0  0  1  0  0  0  0  0  0  0  0  0
   12.8601  -14.5544   27.9514 O   0  0  0  0  0  0  0  0  0  0  0  0
   10.9770  -15.9821   27.5585 C   0  0  2  0  0  0  0  0  0  0  0  0
   10.3024  -15.0324   26.6997 N   0  0  0  0  0  0  0  0  0  0  0  0
   10.4633  -15.8809   28.9127 C   0  0  0  0  0  0  0  0  0  0  0  0
    9.7032  -14.9258   29.2119 O   0  0  0  0  0  0  0  0  0  0  0  0
   10.7472  -16.7763   29.9414 O   0  0  0  0  0  0  0  0  0  0  0  0
  2  7  1  0
  2  1  1  6
  3  2  1  0
  4  5  1  0
  4  3  1  0
  5  9  1  0
  6  5  2  0
  7 12  1  0
  8  7  2  0
 11 10  1  1
 11 13  1  0
 12 11  1  0
 13 14  2  0
 13 19  1  0
 16 15  1  6
 17 16  1  0
 18 20  1  0
 18 16  1  0
 18 19  1  6
 20 22  1  0
 21 20  2  0
M  END
$$$$
