EAT.pdb
     RDKit          3D

 22 21  0  0  1  0  0  0  0  0999 V2000
   12.5512  -17.1660   16.7597 N   0  0  0  0  0  0  0  0  0  0  0  0
   12.9738  -17.9130   17.9211 C   0  0  1  0  0  0  0  0  0  0  0  0
   14.3837  -18.3972   17.6750 C   0  0  0  0  0  0  0  0  0  0  0  0
   14.5758  -19.8225   18.1378 C   0  0  0  0  0  0  0  0  0  0  0  0
   15.9159  -20.0925   18.6761 C   0  0  0  0  0  0  0  0  0  0  0  0
   16.9011  -20.3482   17.9279 O   0  0  0  0  0  0  0  0  0  0  0  0
   12.8728  -17.1140   19.1622 C   0  0  0  0  0  0  0  0  0  0  0  0
   13.7770  -16.3125   19.4907 O   0  0  0  0  0  0  0  0  0  0  0  0
   16.1486  -20.0757   20.0516 O   0  0  0  0  0  0  0  0  0  0  0  0
   10.0048  -16.1571   21.2174 C   0  0  0  0  0  0  0  0  0  0  0  0
   11.5004  -16.4459   21.1645 C   0  0  2  0  0  0  0  0  0  0  0  0
   11.7333  -17.2550   19.9984 N   0  0  0  0  0  0  0  0  0  0  0  0
   11.9047  -17.1320   22.4163 C   0  0  0  0  0  0  0  0  0  0  0  0
   11.5441  -18.3188   22.6073 O   0  0  0  0  0  0  0  0  0  0  0  0
   15.5054  -17.2066   23.4867 C   0  0  0  0  0  0  0  0  0  0  0  0
   14.6869  -16.8772   24.6912 C   0  0  1  0  0  0  0  0  0  0  0  0
   14.8715  -15.5284   24.9912 O   0  0  0  0  0  0  0  0  0  0  0  0
   13.2334  -17.2213   24.5561 C   0  0  2  0  0  0  0  0  0  0  0  0
   12.6887  -16.5058   23.4220 N   0  0  0  0  0  0  0  0  0  0  0  0
   12.4324  -16.9629   25.7391 C   0  0  0  0  0  0  0  0  0  0  0  0
   11.5078  -16.1136   25.6818 O   0  0  0  0  0  0  0  0  0  0  0  0
   12.6033  -17.5925   26.9700 O   0  0  0  0  0  0  0  0  0  0  0  0
  2  7  1  0
  2  1  1  6
  3  2  1  0
  4  5  1  0
  4  3  1  0
  5  9  1  0
  6  5  2  0
  7 12  1  0
  8  7  2  0
 11 10  1  1
 11 13  1  0
 12 11  1  0
 13 14  2  0
 13 19  1  0
 16 15  1  6
 17 16  1  0
 18 20  1  0
 18 16  1  0
 18 19  1  6
 20 22  1  0
 21 20  2  0
M  END
$$$$
