EAT.pdb
     RDKit          3D

 22 21  0  0  1  0  0  0  0  0999 V2000
    8.2891  -14.9137   19.0341 N   0  0  0  0  0  0  0  0  0  0  0  0
    7.4113  -15.1515   20.1558 C   0  0  1  0  0  0  0  0  0  0  0  0
    6.6910  -16.4575   19.9141 C   0  0  0  0  0  0  0  0  0  0  0  0
    7.6530  -17.5771   19.5923 C   0  0  0  0  0  0  0  0  0  0  0  0
    6.9978  -18.8744   19.3772 C   0  0  0  0  0  0  0  0  0  0  0  0
    5.8690  -19.1471   19.8745 O   0  0  0  0  0  0  0  0  0  0  0  0
    8.1421  -15.1535   21.4422 C   0  0  0  0  0  0  0  0  0  0  0  0
    9.3017  -15.6185   21.5264 O   0  0  0  0  0  0  0  0  0  0  0  0
    7.6093  -19.8630   18.6057 O   0  0  0  0  0  0  0  0  0  0  0  0
    7.2278  -13.7928   24.8190 C   0  0  0  0  0  0  0  0  0  0  0  0
    8.1790  -14.5254   23.8800 C   0  0  2  0  0  0  0  0  0  0  0  0
    7.5225  -14.6205   22.6037 N   0  0  0  0  0  0  0  0  0  0  0  0
    8.4929  -15.8574   24.4528 C   0  0  0  0  0  0  0  0  0  0  0  0
    7.6373  -16.7724   24.3783 O   0  0  0  0  0  0  0  0  0  0  0  0
   10.7833  -18.1726   23.2741 C   0  0  0  0  0  0  0  0  0  0  0  0
   11.1542  -18.0420   24.7145 C   0  0  1  0  0  0  0  0  0  0  0  0
   12.3256  -17.2910   24.7993 O   0  0  0  0  0  0  0  0  0  0  0  0
   10.0671  -17.4730   25.5770 C   0  0  2  0  0  0  0  0  0  0  0  0
    9.7281  -16.1532   25.0892 N   0  0  0  0  0  0  0  0  0  0  0  0
   10.3794  -17.4149   26.9938 C   0  0  0  0  0  0  0  0  0  0  0  0
   10.5401  -16.2957   27.5423 O   0  0  0  0  0  0  0  0  0  0  0  0
   10.5211  -18.5243   27.8243 O   0  0  0  0  0  0  0  0  0  0  0  0
  2  7  1  0
  2  1  1  6
  3  2  1  0
  4  5  1  0
  4  3  1  0
  5  9  1  0
  6  5  2  0
  7 12  1  0
  8  7  2  0
 11 10  1  1
 11 13  1  0
 12 11  1  0
 13 14  2  0
 13 19  1  0
 16 15  1  6
 17 16  1  0
 18 20  1  0
 18 16  1  0
 18 19  1  6
 20 22  1  0
 21 20  2  0
M  END
$$$$
