EAT.pdb
     RDKit          3D

 22 21  0  0  1  0  0  0  0  0999 V2000
    7.2576  -14.6401   18.9308 N   0  0  0  0  0  0  0  0  0  0  0  0
    8.3072  -14.4903   19.9113 C   0  0  1  0  0  0  0  0  0  0  0  0
    8.8665  -13.0925   19.7841 C   0  0  0  0  0  0  0  0  0  0  0  0
    9.7126  -12.9381   18.5421 C   0  0  0  0  0  0  0  0  0  0  0  0
   11.0497  -13.5351   18.6611 C   0  0  0  0  0  0  0  0  0  0  0  0
   11.6673  -13.5848   19.7621 O   0  0  0  0  0  0  0  0  0  0  0  0
    7.8300  -14.7718   21.2831 C   0  0  0  0  0  0  0  0  0  0  0  0
    6.7257  -14.3394   21.6850 O   0  0  0  0  0  0  0  0  0  0  0  0
   11.6918  -14.0746   17.5461 O   0  0  0  0  0  0  0  0  0  0  0  0
    8.9376  -17.2473   23.8021 C   0  0  0  0  0  0  0  0  0  0  0  0
    8.2100  -15.9483   23.4764 C   0  0  2  0  0  0  0  0  0  0  0  0
    8.6341  -15.5446   22.1626 N   0  0  0  0  0  0  0  0  0  0  0  0
    8.5400  -14.9370   24.5105 C   0  0  0  0  0  0  0  0  0  0  0  0
    9.5534  -14.2129   24.3565 O   0  0  0  0  0  0  0  0  0  0  0  0
    6.6183  -11.9618   25.6607 C   0  0  0  0  0  0  0  0  0  0  0  0
    6.8793  -12.8401   26.8395 C   0  0  1  0  0  0  0  0  0  0  0  0
    5.7178  -13.5597   27.1159 O   0  0  0  0  0  0  0  0  0  0  0  0
    8.0660  -13.7432   26.6789 C   0  0  2  0  0  0  0  0  0  0  0  0
    7.7576  -14.7446   25.6805 N   0  0  0  0  0  0  0  0  0  0  0  0
    8.5168  -14.3822   27.9022 C   0  0  0  0  0  0  0  0  0  0  0  0
    8.4612  -15.6340   27.9981 O   0  0  0  0  0  0  0  0  0  0  0  0
    9.0210  -13.7097   29.0131 O   0  0  0  0  0  0  0  0  0  0  0  0
  2  7  1  0
  2  1  1  6
  3  2  1  0
  4  5  1  0
  4  3  1  0
  5  9  1  0
  6  5  2  0
  7 12  1  0
  8  7  2  0
 11 10  1  1
 11 13  1  0
 12 11  1  0
 13 14  2  0
 13 19  1  0
 16 15  1  6
 17 16  1  0
 18 20  1  0
 18 16  1  0
 18 19  1  6
 20 22  1  0
 21 20  2  0
M  END
$$$$
