EAT.pdb
     RDKit          3D

 22 21  0  0  1  0  0  0  0  0999 V2000
    8.9005  -16.4064   18.9130 N   0  0  0  0  0  0  0  0  0  0  0  0
    7.9519  -15.9974   19.9222 C   0  0  1  0  0  0  0  0  0  0  0  0
    6.9307  -17.1003   20.0748 C   0  0  0  0  0  0  0  0  0  0  0  0
    6.9142  -18.0191   18.8756 C   0  0  0  0  0  0  0  0  0  0  0  0
    5.9179  -19.0946   18.9700 C   0  0  0  0  0  0  0  0  0  0  0  0
    6.1477  -20.1701   19.5917 O   0  0  0  0  0  0  0  0  0  0  0  0
    8.6120  -15.6740   21.2062 C   0  0  0  0  0  0  0  0  0  0  0  0
    9.7637  -16.0922   21.4645 O   0  0  0  0  0  0  0  0  0  0  0  0
    4.6666  -18.9627   18.3673 O   0  0  0  0  0  0  0  0  0  0  0  0
    7.5924  -13.4596   24.0507 C   0  0  0  0  0  0  0  0  0  0  0  0
    8.4816  -14.5430   23.4517 C   0  0  2  0  0  0  0  0  0  0  0  0
    7.9322  -14.8765   22.1649 N   0  0  0  0  0  0  0  0  0  0  0  0
    8.5107  -15.7071   24.3709 C   0  0  0  0  0  0  0  0  0  0  0  0
    7.4325  -16.2714   24.6777 O   0  0  0  0  0  0  0  0  0  0  0  0
    9.9111  -18.8492   23.6952 C   0  0  0  0  0  0  0  0  0  0  0  0
   10.5072  -18.4804   25.0134 C   0  0  1  0  0  0  0  0  0  0  0  0
   11.8385  -18.1216   24.8077 O   0  0  0  0  0  0  0  0  0  0  0  0
    9.7527  -17.4131   25.7490 C   0  0  2  0  0  0  0  0  0  0  0  0
    9.7118  -16.2216   24.9283 N   0  0  0  0  0  0  0  0  0  0  0  0
   10.2751  -17.0931   27.0653 C   0  0  0  0  0  0  0  0  0  0  0  0
   10.2036  -17.9516   27.9803 O   0  0  0  0  0  0  0  0  0  0  0  0
   10.8669  -15.8813   27.4145 O   0  0  0  0  0  0  0  0  0  0  0  0
  2  7  1  0
  2  1  1  6
  3  2  1  0
  4  5  1  0
  4  3  1  0
  5  9  1  0
  6  5  2  0
  7 12  1  0
  8  7  2  0
 11 10  1  1
 11 13  1  0
 12 11  1  0
 13 14  2  0
 13 19  1  0
 16 15  1  6
 17 16  1  0
 18 20  1  0
 18 16  1  0
 18 19  1  6
 20 22  1  0
 21 20  2  0
M  END
$$$$
