EAT.pdb
     RDKit          3D

 22 21  0  0  1  0  0  0  0  0999 V2000
    9.7875  -15.9158   19.4109 N   0  0  0  0  0  0  0  0  0  0  0  0
    8.7273  -15.9383   20.3912 C   0  0  1  0  0  0  0  0  0  0  0  0
    7.8786  -17.1607   20.1304 C   0  0  0  0  0  0  0  0  0  0  0  0
    8.6939  -18.4315   20.1849 C   0  0  0  0  0  0  0  0  0  0  0  0
    7.9001  -19.6510   19.9825 C   0  0  0  0  0  0  0  0  0  0  0  0
    7.3145  -20.2370   20.9363 O   0  0  0  0  0  0  0  0  0  0  0  0
    9.2501  -15.9137   21.7751 C   0  0  0  0  0  0  0  0  0  0  0  0
   10.3767  -16.3865   22.0492 O   0  0  0  0  0  0  0  0  0  0  0  0
    7.7646  -20.2112   18.7119 O   0  0  0  0  0  0  0  0  0  0  0  0
    7.9146  -14.3133   24.8895 C   0  0  0  0  0  0  0  0  0  0  0  0
    8.9319  -15.1863   24.1643 C   0  0  2  0  0  0  0  0  0  0  0  0
    8.4648  -15.3457   22.8133 N   0  0  0  0  0  0  0  0  0  0  0  0
    9.0509  -16.4826   24.8760 C   0  0  0  0  0  0  0  0  0  0  0  0
    8.1371  -17.3340   24.7531 O   0  0  0  0  0  0  0  0  0  0  0  0
   11.3742  -18.9310   24.1231 C   0  0  0  0  0  0  0  0  0  0  0  0
   11.5251  -18.7799   25.6007 C   0  0  1  0  0  0  0  0  0  0  0  0
   12.7111  -18.0918   25.8523 O   0  0  0  0  0  0  0  0  0  0  0  0
   10.3529  -18.1282   26.2720 C   0  0  2  0  0  0  0  0  0  0  0  0
   10.1602  -16.8129   25.6996 N   0  0  0  0  0  0  0  0  0  0  0  0
   10.4528  -18.0323   27.7173 C   0  0  0  0  0  0  0  0  0  0  0  0
   10.5274  -16.8985   28.2543 O   0  0  0  0  0  0  0  0  0  0  0  0
   10.4739  -19.1194   28.5882 O   0  0  0  0  0  0  0  0  0  0  0  0
  2  7  1  0
  2  1  1  6
  3  2  1  0
  4  5  1  0
  4  3  1  0
  5  9  1  0
  6  5  2  0
  7 12  1  0
  8  7  2  0
 11 10  1  1
 11 13  1  0
 12 11  1  0
 13 14  2  0
 13 19  1  0
 16 15  1  6
 17 16  1  0
 18 20  1  0
 18 16  1  0
 18 19  1  6
 20 22  1  0
 21 20  2  0
M  END
$$$$
