EAT.pdb
     RDKit          3D

 22 21  0  0  1  0  0  0  0  0999 V2000
   11.2380  -20.7428   18.5196 N   0  0  0  0  0  0  0  0  0  0  0  0
   12.5578  -20.3471   18.9521 C   0  0  1  0  0  0  0  0  0  0  0  0
   13.1592  -19.4764   17.8737 C   0  0  0  0  0  0  0  0  0  0  0  0
   13.1089  -20.1455   16.5200 C   0  0  0  0  0  0  0  0  0  0  0  0
   13.5715  -19.2879   15.4205 C   0  0  0  0  0  0  0  0  0  0  0  0
   12.8473  -18.3765   14.9295 O   0  0  0  0  0  0  0  0  0  0  0  0
   12.5304  -19.6627   20.2635 C   0  0  0  0  0  0  0  0  0  0  0  0
   13.5672  -19.1572   20.7508 O   0  0  0  0  0  0  0  0  0  0  0  0
   14.8442  -19.4538   14.8735 O   0  0  0  0  0  0  0  0  0  0  0  0
    9.7364  -18.5229   22.4328 C   0  0  0  0  0  0  0  0  0  0  0  0
   11.1935  -18.9396   22.2706 C   0  0  2  0  0  0  0  0  0  0  0  0
   11.3105  -19.5751   20.9856 N   0  0  0  0  0  0  0  0  0  0  0  0
   11.5632  -19.8478   23.3840 C   0  0  0  0  0  0  0  0  0  0  0  0
   11.2941  -21.0700   23.2915 O   0  0  0  0  0  0  0  0  0  0  0  0
   14.6625  -20.9604   26.9440 C   0  0  0  0  0  0  0  0  0  0  0  0
   14.1095  -20.1232   25.8383 C   0  0  1  0  0  0  0  0  0  0  0  0
   14.8354  -20.3926   24.6791 O   0  0  0  0  0  0  0  0  0  0  0  0
   12.6352  -20.2926   25.6212 C   0  0  2  0  0  0  0  0  0  0  0  0
   12.2141  -19.3983   24.5640 N   0  0  0  0  0  0  0  0  0  0  0  0
   11.8166  -20.0870   26.8025 C   0  0  0  0  0  0  0  0  0  0  0  0
   11.2680  -18.9708   26.9835 O   0  0  0  0  0  0  0  0  0  0  0  0
   11.5781  -21.0470   27.7834 O   0  0  0  0  0  0  0  0  0  0  0  0
  2  7  1  0
  2  1  1  6
  3  2  1  0
  4  5  1  0
  4  3  1  0
  5  9  1  0
  6  5  2  0
  7 12  1  0
  8  7  2  0
 11 10  1  1
 11 13  1  0
 12 11  1  0
 13 14  2  0
 13 19  1  0
 16 15  1  1
 17 16  1  0
 18 20  1  0
 18 16  1  0
 18 19  1  6
 20 22  1  0
 21 20  2  0
M  END
$$$$
