EAT.pdb
     RDKit          3D

 22 21  0  0  1  0  0  0  0  0999 V2000
   10.6233  -19.2077   21.1667 N   0  0  0  0  0  0  0  0  0  0  0  0
   11.6537  -18.5417   21.9283 C   0  0  1  0  0  0  0  0  0  0  0  0
   12.6317  -17.9301   20.9524 C   0  0  0  0  0  0  0  0  0  0  0  0
   12.1923  -18.1276   19.5204 C   0  0  0  0  0  0  0  0  0  0  0  0
   13.1181  -17.5533   18.5347 C   0  0  0  0  0  0  0  0  0  0  0  0
   12.8925  -16.4480   17.9661 O   0  0  0  0  0  0  0  0  0  0  0  0
   11.0948  -17.5333   22.8555 C   0  0  0  0  0  0  0  0  0  0  0  0
   11.8144  -16.6290   23.3376 O   0  0  0  0  0  0  0  0  0  0  0  0
   14.2941  -18.2192   18.1882 O   0  0  0  0  0  0  0  0  0  0  0  0
    7.6452  -17.0999   24.2741 C   0  0  0  0  0  0  0  0  0  0  0  0
    9.0977  -16.6649   24.1190 C   0  0  2  0  0  0  0  0  0  0  0  0
    9.7200  -17.5877   23.2078 N   0  0  0  0  0  0  0  0  0  0  0  0
    9.7475  -16.6656   25.4528 C   0  0  0  0  0  0  0  0  0  0  0  0
   10.5037  -17.6174   25.7643 O   0  0  0  0  0  0  0  0  0  0  0  0
   10.7018  -14.0735   29.6253 C   0  0  0  0  0  0  0  0  0  0  0  0
   10.0206  -14.2495   28.3084 C   0  0  1  0  0  0  0  0  0  0  0  0
   10.4177  -13.2113   27.4671 O   0  0  0  0  0  0  0  0  0  0  0  0
   10.2459  -15.5914   27.6776 C   0  0  2  0  0  0  0  0  0  0  0  0
    9.5544  -15.6308   26.4067 N   0  0  0  0  0  0  0  0  0  0  0  0
    9.8503  -16.7243   28.4948 C   0  0  0  0  0  0  0  0  0  0  0  0
   10.6416  -17.1569   29.3701 O   0  0  0  0  0  0  0  0  0  0  0  0
    8.6337  -17.3950   28.3913 O   0  0  0  0  0  0  0  0  0  0  0  0
  2  7  1  0
  2  1  1  6
  3  2  1  0
  4  5  1  0
  4  3  1  0
  5  9  1  0
  6  5  2  0
  7 12  1  0
  8  7  2  0
 11 10  1  1
 11 13  1  0
 12 11  1  0
 13 14  2  0
 13 19  1  0
 16 15  1  1
 17 16  1  0
 18 20  1  0
 18 16  1  0
 18 19  1  6
 20 22  1  0
 21 20  2  0
M  END
$$$$
