EAT.pdb
     RDKit          3D

 22 21  0  0  1  0  0  0  0  0999 V2000
    8.9314  -18.4673   16.6860 N   0  0  0  0  0  0  0  0  0  0  0  0
    9.4213  -19.1753   17.8454 C   0  0  1  0  0  0  0  0  0  0  0  0
   10.9270  -19.0516   17.8641 C   0  0  0  0  0  0  0  0  0  0  0  0
   11.5517  -19.6180   16.6104 C   0  0  0  0  0  0  0  0  0  0  0  0
   13.0192  -19.5486   16.5993 C   0  0  0  0  0  0  0  0  0  0  0  0
   13.6788  -19.1227   17.5890 O   0  0  0  0  0  0  0  0  0  0  0  0
    8.8106  -18.6791   19.0983 C   0  0  0  0  0  0  0  0  0  0  0  0
    8.7215  -17.4523   19.3325 O   0  0  0  0  0  0  0  0  0  0  0  0
   13.7440  -19.9563   15.4791 O   0  0  0  0  0  0  0  0  0  0  0  0
    6.9086  -20.4211   21.7962 C   0  0  0  0  0  0  0  0  0  0  0  0
    7.6865  -19.2134   21.2868 C   0  0  2  0  0  0  0  0  0  0  0  0
    8.3159  -19.6056   20.0544 N   0  0  0  0  0  0  0  0  0  0  0  0
    8.6720  -18.8037   22.3173 C   0  0  0  0  0  0  0  0  0  0  0  0
    9.8326  -19.2796   22.2773 O   0  0  0  0  0  0  0  0  0  0  0  0
    8.2043  -15.2011   24.4268 C   0  0  0  0  0  0  0  0  0  0  0  0
    9.4798  -15.9473   24.2134 C   0  0  1  0  0  0  0  0  0  0  0  0
   10.4329  -15.4489   25.1003 O   0  0  0  0  0  0  0  0  0  0  0  0
    9.3434  -17.4367   24.3254 C   0  0  2  0  0  0  0  0  0  0  0  0
    8.3647  -17.8889   23.3598 N   0  0  0  0  0  0  0  0  0  0  0  0
    8.9963  -17.9200   25.6497 C   0  0  0  0  0  0  0  0  0  0  0  0
    7.7947  -18.1749   25.9155 O   0  0  0  0  0  0  0  0  0  0  0  0
    9.9053  -18.1328   26.6837 O   0  0  0  0  0  0  0  0  0  0  0  0
  2  7  1  0
  2  1  1  6
  3  2  1  0
  4  5  1  0
  4  3  1  0
  5  9  1  0
  6  5  2  0
  7 12  1  0
  8  7  2  0
 11 10  1  1
 11 13  1  0
 12 11  1  0
 13 14  2  0
 13 19  1  0
 16 15  1  1
 17 16  1  0
 18 20  1  0
 18 16  1  0
 18 19  1  6
 20 22  1  0
 21 20  2  0
M  END
$$$$
