EAT.pdb
     RDKit          3D

 22 21  0  0  1  0  0  0  0  0999 V2000
    6.8728  -16.7454   16.8076 N   0  0  0  0  0  0  0  0  0  0  0  0
    8.0978  -17.2817   17.3528 C   0  0  1  0  0  0  0  0  0  0  0  0
    9.0131  -17.6169   16.1985 C   0  0  0  0  0  0  0  0  0  0  0  0
    9.0994  -16.4830   15.2038 C   0  0  0  0  0  0  0  0  0  0  0  0
   10.0862  -16.7064   14.1385 C   0  0  0  0  0  0  0  0  0  0  0  0
    9.7912  -17.3021   13.0642 O   0  0  0  0  0  0  0  0  0  0  0  0
    8.7342  -16.3504   18.3101 C   0  0  0  0  0  0  0  0  0  0  0  0
    9.8380  -16.6189   18.8370 O   0  0  0  0  0  0  0  0  0  0  0  0
   11.4012  -16.2622   14.2798 O   0  0  0  0  0  0  0  0  0  0  0  0
    7.7334  -12.9444   19.5216 C   0  0  0  0  0  0  0  0  0  0  0  0
    8.6011  -14.1948   19.6042 C   0  0  2  0  0  0  0  0  0  0  0  0
    8.0864  -15.1303   18.6404 N   0  0  0  0  0  0  0  0  0  0  0  0
    8.5515  -14.7269   20.9882 C   0  0  0  0  0  0  0  0  0  0  0  0
    7.4462  -15.0733   21.4711 O   0  0  0  0  0  0  0  0  0  0  0  0
    8.0436  -17.2133   21.9615 C   0  0  0  0  0  0  0  0  0  0  0  0
    9.3631  -17.0823   22.6477 C   0  0  1  0  0  0  0  0  0  0  0  0
   10.3352  -17.6796   21.8466 O   0  0  0  0  0  0  0  0  0  0  0  0
    9.7293  -15.6726   23.0057 C   0  0  2  0  0  0  0  0  0  0  0  0
    9.7059  -14.8657   21.8044 N   0  0  0  0  0  0  0  0  0  0  0  0
   11.0074  -15.5261   23.6788 C   0  0  0  0  0  0  0  0  0  0  0  0
   12.0034  -15.1246   23.0260 O   0  0  0  0  0  0  0  0  0  0  0  0
   11.2342  -15.7996   25.0258 O   0  0  0  0  0  0  0  0  0  0  0  0
  2  7  1  0
  2  1  1  6
  3  2  1  0
  4  5  1  0
  4  3  1  0
  5  9  1  0
  6  5  2  0
  7 12  1  0
  8  7  2  0
 11 10  1  1
 11 13  1  0
 12 11  1  0
 13 14  2  0
 13 19  1  0
 16 15  1  6
 17 16  1  0
 18 20  1  0
 18 16  1  0
 18 19  1  6
 20 22  1  0
 21 20  2  0
M  END
$$$$
