EAT.pdb
     RDKit          3D

 22 21  0  0  1  0  0  0  0  0999 V2000
    7.8734  -16.4467   16.4256 N   0  0  0  0  0  0  0  0  0  0  0  0
    7.5792  -17.0084   17.7231 C   0  0  1  0  0  0  0  0  0  0  0  0
    7.8154  -18.4988   17.6492 C   0  0  0  0  0  0  0  0  0  0  0  0
    7.9020  -18.9825   16.2205 C   0  0  0  0  0  0  0  0  0  0  0  0
    8.0308  -20.4409   16.0982 C   0  0  0  0  0  0  0  0  0  0  0  0
    8.9880  -21.0768   16.6229 O   0  0  0  0  0  0  0  0  0  0  0  0
    8.3768  -16.3751   18.7962 C   0  0  0  0  0  0  0  0  0  0  0  0
    9.5236  -16.7901   19.0802 O   0  0  0  0  0  0  0  0  0  0  0  0
    7.0870  -21.1832   15.3877 O   0  0  0  0  0  0  0  0  0  0  0  0
    7.6180  -13.5073   21.0990 C   0  0  0  0  0  0  0  0  0  0  0  0
    8.5167  -14.6388   20.6140 C   0  0  2  0  0  0  0  0  0  0  0  0
    7.8373  -15.2780   19.5192 N   0  0  0  0  0  0  0  0  0  0  0  0
    8.7712  -15.5703   21.7403 C   0  0  0  0  0  0  0  0  0  0  0  0
    7.8603  -16.3529   22.1046 O   0  0  0  0  0  0  0  0  0  0  0  0
   11.3757  -18.0923   21.8045 C   0  0  0  0  0  0  0  0  0  0  0  0
   11.4985  -17.3743   23.1077 C   0  0  1  0  0  0  0  0  0  0  0  0
   12.6420  -16.5780   23.0636 O   0  0  0  0  0  0  0  0  0  0  0  0
   10.2838  -16.5797   23.4854 C   0  0  2  0  0  0  0  0  0  0  0  0
   10.0089  -15.6218   22.4358 N   0  0  0  0  0  0  0  0  0  0  0  0
   10.3714  -15.9026   24.7667 C   0  0  0  0  0  0  0  0  0  0  0  0
   10.4608  -14.6494   24.7948 O   0  0  0  0  0  0  0  0  0  0  0  0
   10.3648  -16.5389   26.0060 O   0  0  0  0  0  0  0  0  0  0  0  0
  2  7  1  0
  2  1  1  6
  3  2  1  0
  4  5  1  0
  4  3  1  0
  5  9  1  0
  6  5  2  0
  7 12  1  0
  8  7  2  0
 11 10  1  1
 11 13  1  0
 12 11  1  0
 13 14  2  0
 13 19  1  0
 16 15  1  6
 17 16  1  0
 18 20  1  0
 18 16  1  0
 18 19  1  6
 20 22  1  0
 21 20  2  0
M  END
$$$$
