EAT.pdb
     RDKit          3D

 22 21  0  0  1  0  0  0  0  0999 V2000
    8.6591  -16.9787   20.5110 N   0  0  0  0  0  0  0  0  0  0  0  0
    9.5105  -17.5062   21.5513 C   0  0  1  0  0  0  0  0  0  0  0  0
   10.8445  -17.8501   20.9308 C   0  0  0  0  0  0  0  0  0  0  0  0
   10.9429  -17.3594   19.5053 C   0  0  0  0  0  0  0  0  0  0  0  0
   12.2219  -17.6809   18.8577 C   0  0  0  0  0  0  0  0  0  0  0  0
   12.5653  -18.8696   18.6028 O   0  0  0  0  0  0  0  0  0  0  0  0
    9.6540  -16.5636   22.6826 C   0  0  0  0  0  0  0  0  0  0  0  0
   10.7834  -16.2447   23.1193 O   0  0  0  0  0  0  0  0  0  0  0  0
   13.1131  -16.6697   18.4976 O   0  0  0  0  0  0  0  0  0  0  0  0
    7.1022  -14.7212   24.7300 C   0  0  0  0  0  0  0  0  0  0  0  0
    8.5342  -15.1600   24.4475 C   0  0  2  0  0  0  0  0  0  0  0  0
    8.4946  -16.0087   23.2869 N   0  0  0  0  0  0  0  0  0  0  0  0
    9.0690  -15.8613   25.6404 C   0  0  0  0  0  0  0  0  0  0  0  0
    8.9811  -17.1115   25.7056 O   0  0  0  0  0  0  0  0  0  0  0  0
   10.9594  -13.6411   28.8194 C   0  0  0  0  0  0  0  0  0  0  0  0
   11.5477  -14.8642   28.1971 C   0  0  1  0  0  0  0  0  0  0  0  0
   12.4164  -15.4496   29.1169 O   0  0  0  0  0  0  0  0  0  0  0  0
   10.5302  -15.8445   27.6938 C   0  0  2  0  0  0  0  0  0  0  0  0
    9.6830  -15.1811   26.7260 N   0  0  0  0  0  0  0  0  0  0  0  0
    9.7174  -16.4641   28.7250 C   0  0  0  0  0  0  0  0  0  0  0  0
    8.5397  -16.0631   28.9030 O   0  0  0  0  0  0  0  0  0  0  0  0
   10.1404  -17.4956   29.5602 O   0  0  0  0  0  0  0  0  0  0  0  0
  2  7  1  0
  2  1  1  6
  3  2  1  0
  4  5  1  0
  4  3  1  0
  5  9  1  0
  6  5  2  0
  7 12  1  0
  8  7  2  0
 11 10  1  1
 11 13  1  0
 12 11  1  0
 13 14  2  0
 13 19  1  0
 16 15  1  1
 17 16  1  0
 18 20  1  0
 18 16  1  0
 18 19  1  6
 20 22  1  0
 21 20  2  0
M  END
$$$$
