EAT.pdb
     RDKit          3D

 22 21  0  0  1  0  0  0  0  0999 V2000
   11.8366  -18.8808   21.1047 N   0  0  0  0  0  0  0  0  0  0  0  0
   11.8791  -17.4478   20.9312 C   0  0  1  0  0  0  0  0  0  0  0  0
   11.9010  -17.1592   19.4483 C   0  0  0  0  0  0  0  0  0  0  0  0
   11.9715  -18.4281   18.6312 C   0  0  0  0  0  0  0  0  0  0  0  0
   12.0926  -18.1932   17.1860 C   0  0  0  0  0  0  0  0  0  0  0  0
   12.2192  -19.1406   16.3600 O   0  0  0  0  0  0  0  0  0  0  0  0
   10.7503  -16.7727   21.6088 C   0  0  0  0  0  0  0  0  0  0  0  0
   10.5132  -15.5584   21.4159 O   0  0  0  0  0  0  0  0  0  0  0  0
   12.0720  -16.8971   16.6699 O   0  0  0  0  0  0  0  0  0  0  0  0
    7.8998  -18.1368   23.5930 C   0  0  0  0  0  0  0  0  0  0  0  0
    8.7488  -16.9609   23.1244 C   0  0  2  0  0  0  0  0  0  0  0  0
    9.9192  -17.5098   22.4938 N   0  0  0  0  0  0  0  0  0  0  0  0
    9.0846  -16.1112   24.2933 C   0  0  0  0  0  0  0  0  0  0  0  0
   10.2344  -16.1823   24.7911 O   0  0  0  0  0  0  0  0  0  0  0  0
    7.7545  -12.2698   27.1849 C   0  0  0  0  0  0  0  0  0  0  0  0
    7.5361  -13.2077   26.0440 C   0  0  1  0  0  0  0  0  0  0  0  0
    7.5698  -12.4730   24.8597 O   0  0  0  0  0  0  0  0  0  0  0  0
    8.4940  -14.3612   26.0082 C   0  0  2  0  0  0  0  0  0  0  0  0
    8.1591  -15.2103   24.8849 N   0  0  0  0  0  0  0  0  0  0  0  0
    8.5486  -15.1474   27.2276 C   0  0  0  0  0  0  0  0  0  0  0  0
    7.7859  -16.1382   27.3547 O   0  0  0  0  0  0  0  0  0  0  0  0
    9.3977  -14.8929   28.3022 O   0  0  0  0  0  0  0  0  0  0  0  0
  2  7  1  0
  2  1  1  6
  3  2  1  0
  4  5  1  0
  4  3  1  0
  5  9  1  0
  6  5  2  0
  7 12  1  0
  8  7  2  0
 11 10  1  1
 11 13  1  0
 12 11  1  0
 13 14  2  0
 13 19  1  0
 16 15  1  1
 17 16  1  0
 18 20  1  0
 18 16  1  0
 18 19  1  6
 20 22  1  0
 21 20  2  0
M  END
$$$$
