YYA.pdb
     RDKit          3D

 30 31  0  0  1  0  0  0  0  0999 V2000
    7.0846  -15.1462   15.4052 O   0  0  0  0  0  0  0  0  0  0  0  0
    7.9342  -14.9835   16.4888 C   0  0  0  0  0  0  0  0  0  0  0  0
    8.7286  -16.0240   16.8834 C   0  0  0  0  0  0  0  0  0  0  0  0
    9.5783  -15.8891   17.9526 C   0  0  0  0  0  0  0  0  0  0  0  0
    9.6751  -14.7055   18.6805 C   0  0  0  0  0  0  0  0  0  0  0  0
   10.5868  -14.5783   19.8365 C   0  0  0  0  0  0  0  0  0  0  0  0
   10.5148  -15.7179   20.7939 C   0  0  2  0  0  0  0  0  0  0  0  0
    9.4081  -16.6113   20.5073 N   0  0  0  0  0  0  0  0  0  0  0  0
   10.4220  -15.3062   22.2147 C   0  0  0  0  0  0  0  0  0  0  0  0
   11.3975  -14.6407   22.7105 O   0  0  0  0  0  0  0  0  0  0  0  0
    8.8557  -13.6797   18.2489 C   0  0  0  0  0  0  0  0  0  0  0  0
    8.0009  -13.8106   17.1757 C   0  0  0  0  0  0  0  0  0  0  0  0
    6.1494  -11.0905   28.4778 O   0  0  0  0  0  0  0  0  0  0  0  0
    6.4948  -11.9748   27.4817 C   0  0  0  0  0  0  0  0  0  0  0  0
    6.0764  -13.2859   27.5449 C   0  0  0  0  0  0  0  0  0  0  0  0
    6.4441  -14.1479   26.5223 C   0  0  0  0  0  0  0  0  0  0  0  0
    7.2092  -13.7324   25.4551 C   0  0  0  0  0  0  0  0  0  0  0  0
    7.5564  -14.6805   24.4218 C   0  0  0  0  0  0  0  0  0  0  0  0
    9.0168  -14.9782   24.2572 C   0  0  2  0  0  0  0  0  0  0  0  0
    9.2890  -15.6406   22.9935 N   0  0  0  0  0  0  0  0  0  0  0  0
    9.6130  -15.7357   25.3852 C   0  0  0  0  0  0  0  0  0  0  0  0
    9.7340  -16.9790   25.2537 O   0  0  0  0  0  0  0  0  0  0  0  0
    7.6221  -12.4013   25.4108 C   0  0  0  0  0  0  0  0  0  0  0  0
    7.2704  -11.5383   26.4073 C   0  0  0  0  0  0  0  0  0  0  0  0
   10.9947  -14.7615   28.7002 C   0  0  0  0  0  0  0  0  0  0  0  0
   10.7515  -15.8515   27.6303 C   0  0  2  0  0  0  0  0  0  0  0  0
   10.0403  -15.1258   26.5674 N   0  0  0  0  0  0  0  0  0  0  0  0
    9.8676  -16.8290   28.2655 C   0  0  0  0  0  0  0  0  0  0  0  0
    8.6381  -16.8713   28.0156 O   0  0  0  0  0  0  0  0  0  0  0  0
   10.3700  -17.7457   29.1695 O   0  0  0  0  0  0  0  0  0  0  0  0
  2 12  2  0
  2  1  1  0
  3  2  1  0
  4  5  1  0
  4  3  2  0
  5 11  2  0
  6  7  1  0
  6  5  1  0
  7  8  1  6
  9  7  1  0
  9 20  1  0
 10  9  2  0
 11 12  1  0
 14 13  1  0
 15 14  2  0
 16 15  1  0
 17 23  1  0
 17 16  2  0
 18 17  1  0
 19 21  1  0
 19 20  1  0
 19 18  1  1
 21 22  2  0
 23 24  2  0
 24 14  1  0
 26 25  1  1
 26 28  1  0
 27 26  1  0
 27 21  1  0
 28 29  2  0
 28 30  1  0
M  END
$$$$
