YYA.pdb
     RDKit          3D

 30 31  0  0  1  0  0  0  0  0999 V2000
    5.6878  -12.4630   19.2419 O   0  0  0  0  0  0  0  0  0  0  0  0
    6.9676  -12.9874   19.3419 C   0  0  0  0  0  0  0  0  0  0  0  0
    7.1601  -14.1727   19.9956 C   0  0  0  0  0  0  0  0  0  0  0  0
    8.4164  -14.7133   20.1086 C   0  0  0  0  0  0  0  0  0  0  0  0
    9.5431  -14.0942   19.5726 C   0  0  0  0  0  0  0  0  0  0  0  0
   10.8914  -14.6828   19.7115 C   0  0  0  0  0  0  0  0  0  0  0  0
   11.5666  -14.9648   18.4133 C   0  0  2  0  0  0  0  0  0  0  0  0
   10.7429  -15.7617   17.5236 N   0  0  0  0  0  0  0  0  0  0  0  0
   12.8817  -15.6344   18.5513 C   0  0  0  0  0  0  0  0  0  0  0  0
   12.9440  -16.8893   18.3032 O   0  0  0  0  0  0  0  0  0  0  0  0
    9.3046  -12.8992   18.9206 C   0  0  0  0  0  0  0  0  0  0  0  0
    8.0447  -12.3525   18.8046 C   0  0  0  0  0  0  0  0  0  0  0  0
   17.3340  -13.4483   13.3767 O   0  0  0  0  0  0  0  0  0  0  0  0
   17.1151  -13.7302   14.7056 C   0  0  0  0  0  0  0  0  0  0  0  0
   16.4469  -12.8275   15.5034 C   0  0  0  0  0  0  0  0  0  0  0  0
   16.2450  -13.1465   16.8381 C   0  0  0  0  0  0  0  0  0  0  0  0
   16.6905  -14.3305   17.3825 C   0  0  0  0  0  0  0  0  0  0  0  0
   16.4462  -14.6028   18.7801 C   0  0  0  0  0  0  0  0  0  0  0  0
   15.3232  -15.5481   19.0861 C   0  0  2  0  0  0  0  0  0  0  0  0
   14.0285  -14.9049   18.9449 N   0  0  0  0  0  0  0  0  0  0  0  0
   15.4350  -16.2170   20.4059 C   0  0  0  0  0  0  0  0  0  0  0  0
   15.2554  -15.5158   21.4324 O   0  0  0  0  0  0  0  0  0  0  0  0
   17.3646  -15.2302   16.5575 C   0  0  0  0  0  0  0  0  0  0  0  0
   17.5727  -14.9341   15.2420 C   0  0  0  0  0  0  0  0  0  0  0  0
   15.8495  -19.7423   21.4872 C   0  0  0  0  0  0  0  0  0  0  0  0
   15.8416  -18.2396   21.8529 C   0  0  2  0  0  0  0  0  0  0  0  0
   15.7249  -17.5767   20.5456 N   0  0  0  0  0  0  0  0  0  0  0  0
   17.1525  -17.9774   22.4471 C   0  0  0  0  0  0  0  0  0  0  0  0
   17.4241  -18.3108   23.6264 O   0  0  0  0  0  0  0  0  0  0  0  0
   18.1410  -17.3474   21.7151 O   0  0  0  0  0  0  0  0  0  0  0  0
  2 12  2  0
  2  1  1  0
  3  2  1  0
  4  5  1  0
  4  3  2  0
  5 11  2  0
  6  7  1  0
  6  5  1  0
  7  8  1  6
  9  7  1  0
  9 20  1  0
 10  9  2  0
 11 12  1  0
 14 13  1  0
 15 14  2  0
 16 15  1  0
 17 23  1  0
 17 16  2  0
 18 17  1  0
 19 21  1  0
 19 20  1  0
 19 18  1  1
 21 22  2  0
 23 24  2  0
 24 14  1  0
 26 25  1  6
 26 28  1  0
 27 26  1  0
 27 21  1  0
 28 29  2  0
 28 30  1  0
M  END
$$$$
