YYA.pdb
     RDKit          3D

 30 31  0  0  1  0  0  0  0  0999 V2000
    5.2615  -23.4731   16.5194 O   0  0  0  0  0  0  0  0  0  0  0  0
    5.9435  -22.6988   17.4457 C   0  0  0  0  0  0  0  0  0  0  0  0
    7.1356  -23.1429   17.9468 C   0  0  0  0  0  0  0  0  0  0  0  0
    7.8305  -22.3959   18.8645 C   0  0  0  0  0  0  0  0  0  0  0  0
    7.3666  -21.1665   19.3266 C   0  0  0  0  0  0  0  0  0  0  0  0
    8.1206  -20.3780   20.3234 C   0  0  0  0  0  0  0  0  0  0  0  0
    8.7287  -19.1322   19.7769 C   0  0  2  0  0  0  0  0  0  0  0  0
    9.6522  -19.3987   18.6901 N   0  0  0  0  0  0  0  0  0  0  0  0
    9.4309  -18.3097   20.7905 C   0  0  0  0  0  0  0  0  0  0  0  0
   10.7116  -18.3198   20.7875 O   0  0  0  0  0  0  0  0  0  0  0  0
    6.1591  -20.7549   18.7953 C   0  0  0  0  0  0  0  0  0  0  0  0
    5.4577  -21.5017   17.8734 C   0  0  0  0  0  0  0  0  0  0  0  0
    7.5241  -12.3872   18.1889 O   0  0  0  0  0  0  0  0  0  0  0  0
    7.7831  -13.1172   19.3263 C   0  0  0  0  0  0  0  0  0  0  0  0
    6.7921  -13.8871   19.8947 C   0  0  0  0  0  0  0  0  0  0  0  0
    7.0904  -14.6093   21.0408 C   0  0  0  0  0  0  0  0  0  0  0  0
    8.3393  -14.5778   21.6206 C   0  0  0  0  0  0  0  0  0  0  0  0
    8.5854  -15.3549   22.8134 C   0  0  0  0  0  0  0  0  0  0  0  0
    9.3717  -16.6187   22.6320 C   0  0  2  0  0  0  0  0  0  0  0  0
    8.7038  -17.5398   21.7290 N   0  0  0  0  0  0  0  0  0  0  0  0
    9.7314  -17.2975   23.9015 C   0  0  0  0  0  0  0  0  0  0  0  0
    8.7974  -17.6095   24.6812 O   0  0  0  0  0  0  0  0  0  0  0  0
    9.3278  -13.7921   21.0291 C   0  0  0  0  0  0  0  0  0  0  0  0
    9.0533  -13.0746   19.9015 C   0  0  0  0  0  0  0  0  0  0  0  0
   12.9342  -18.4519   25.3995 C   0  0  0  0  0  0  0  0  0  0  0  0
   11.4141  -18.2059   25.5427 C   0  0  2  0  0  0  0  0  0  0  0  0
   11.0493  -17.5998   24.2536 N   0  0  0  0  0  0  0  0  0  0  0  0
   11.2784  -17.2315   26.6255 C   0  0  0  0  0  0  0  0  0  0  0  0
   10.9633  -16.0364   26.4059 O   0  0  0  0  0  0  0  0  0  0  0  0
   11.4956  -17.6066   27.9378 O   0  0  0  0  0  0  0  0  0  0  0  0
  2 12  2  0
  2  1  1  0
  3  2  1  0
  4  5  1  0
  4  3  2  0
  5 11  2  0
  6  7  1  0
  6  5  1  0
  7  8  1  6
  9  7  1  0
  9 20  1  0
 10  9  2  0
 11 12  1  0
 14 13  1  0
 15 14  2  0
 16 15  1  0
 17 23  1  0
 17 16  2  0
 18 17  1  0
 19 21  1  0
 19 20  1  0
 19 18  1  1
 21 22  2  0
 23 24  2  0
 24 14  1  0
 26 25  1  6
 26 28  1  0
 27 26  1  0
 27 21  1  0
 28 29  2  0
 28 30  1  0
M  END
$$$$
