YYA.pdb
     RDKit          3D

 30 31  0  0  1  0  0  0  0  0999 V2000
   -2.2360  -21.5969   23.8057 O   0  0  0  0  0  0  0  0  0  0  0  0
   -0.9325  -21.1567   23.6333 C   0  0  0  0  0  0  0  0  0  0  0  0
    0.0874  -22.0670   23.6077 C   0  0  0  0  0  0  0  0  0  0  0  0
    1.3863  -21.6578   23.4385 C   0  0  0  0  0  0  0  0  0  0  0  0
    1.7292  -20.3164   23.2864 C   0  0  0  0  0  0  0  0  0  0  0  0
    3.1336  -19.8895   23.1158 C   0  0  0  0  0  0  0  0  0  0  0  0
    3.4262  -19.2842   21.7859 C   0  0  2  0  0  0  0  0  0  0  0  0
    3.3066  -20.2434   20.7039 N   0  0  0  0  0  0  0  0  0  0  0  0
    4.7613  -18.6469   21.6947 C   0  0  0  0  0  0  0  0  0  0  0  0
    5.7451  -19.3698   21.3076 O   0  0  0  0  0  0  0  0  0  0  0  0
    0.6694  -19.4300   23.3183 C   0  0  0  0  0  0  0  0  0  0  0  0
   -0.6366  -19.8364   23.4880 C   0  0  0  0  0  0  0  0  0  0  0  0
   10.0186  -12.5554   18.6172 O   0  0  0  0  0  0  0  0  0  0  0  0
    9.0324  -13.1908   19.3363 C   0  0  0  0  0  0  0  0  0  0  0  0
    8.9692  -13.0424   20.7045 C   0  0  0  0  0  0  0  0  0  0  0  0
    7.9611  -13.6983   21.3955 C   0  0  0  0  0  0  0  0  0  0  0  0
    7.0300  -14.4867   20.7567 C   0  0  0  0  0  0  0  0  0  0  0  0
    6.0039  -15.1414   21.5349 C   0  0  0  0  0  0  0  0  0  0  0  0
    6.2010  -16.6046   21.7967 C   0  0  2  0  0  0  0  0  0  0  0  0
    4.9370  -17.2825   22.0260 N   0  0  0  0  0  0  0  0  0  0  0  0
    7.1610  -16.9022   22.8883 C   0  0  0  0  0  0  0  0  0  0  0  0
    6.7981  -16.6607   24.0664 O   0  0  0  0  0  0  0  0  0  0  0  0
    7.1121  -14.6235   19.3714 C   0  0  0  0  0  0  0  0  0  0  0  0
    8.0967  -13.9861   18.6743 C   0  0  0  0  0  0  0  0  0  0  0  0
   10.4311  -18.6494   23.0047 C   0  0  0  0  0  0  0  0  0  0  0  0
    9.3392  -17.8390   23.7416 C   0  0  2  0  0  0  0  0  0  0  0  0
    8.4317  -17.4353   22.6573 N   0  0  0  0  0  0  0  0  0  0  0  0
   10.0280  -16.6735   24.2960 C   0  0  0  0  0  0  0  0  0  0  0  0
    9.9485  -15.5405   23.7614 O   0  0  0  0  0  0  0  0  0  0  0  0
   10.7946  -16.7903   25.4400 O   0  0  0  0  0  0  0  0  0  0  0  0
  2 12  2  0
  2  1  1  0
  3  2  1  0
  4  5  1  0
  4  3  2  0
  5 11  2  0
  6  7  1  0
  6  5  1  0
  7  8  1  6
  9  7  1  0
  9 20  1  0
 10  9  2  0
 11 12  1  0
 14 13  1  0
 15 14  2  0
 16 15  1  0
 17 23  1  0
 17 16  2  0
 18 17  1  0
 19 21  1  0
 19 20  1  0
 19 18  1  1
 21 22  2  0
 23 24  2  0
 24 14  1  0
 26 25  1  6
 26 28  1  0
 27 26  1  0
 27 21  1  0
 28 29  2  0
 28 30  1  0
M  END
$$$$
