YYA.pdb
     RDKit          3D

 30 31  0  0  1  0  0  0  0  0999 V2000
    7.6158  -14.1740   14.0315 O   0  0  0  0  0  0  0  0  0  0  0  0
    8.2434  -14.2359   15.2664 C   0  0  0  0  0  0  0  0  0  0  0  0
    9.1517  -15.2283   15.5107 C   0  0  0  0  0  0  0  0  0  0  0  0
    9.7869  -15.3121   16.7243 C   0  0  0  0  0  0  0  0  0  0  0  0
    9.5444  -14.4063   17.7543 C   0  0  0  0  0  0  0  0  0  0  0  0
   10.2280  -14.5154   19.0599 C   0  0  0  0  0  0  0  0  0  0  0  0
    9.6771  -15.5795   19.9458 C   0  0  2  0  0  0  0  0  0  0  0  0
    8.3468  -15.9981   19.5453 N   0  0  0  0  0  0  0  0  0  0  0  0
    9.6335  -15.2068   21.3797 C   0  0  0  0  0  0  0  0  0  0  0  0
   10.7212  -14.8139   21.9299 O   0  0  0  0  0  0  0  0  0  0  0  0
    8.6203  -13.4200   17.4662 C   0  0  0  0  0  0  0  0  0  0  0  0
    7.9800  -13.3319   16.2489 C   0  0  0  0  0  0  0  0  0  0  0  0
    6.7138  -11.8656   28.9084 O   0  0  0  0  0  0  0  0  0  0  0  0
    6.8165  -12.4011   27.6450 C   0  0  0  0  0  0  0  0  0  0  0  0
    7.5891  -11.7774   26.6899 C   0  0  0  0  0  0  0  0  0  0  0  0
    7.6685  -12.3469   25.4276 C   0  0  0  0  0  0  0  0  0  0  0  0
    7.0020  -13.5085   25.1062 C   0  0  0  0  0  0  0  0  0  0  0  0
    7.1281  -14.0507   23.7730 C   0  0  0  0  0  0  0  0  0  0  0  0
    8.3549  -14.8693   23.5024 C   0  0  2  0  0  0  0  0  0  0  0  0
    8.4254  -15.2847   22.1123 N   0  0  0  0  0  0  0  0  0  0  0  0
    8.5193  -16.0343   24.4065 C   0  0  0  0  0  0  0  0  0  0  0  0
    7.5726  -16.8569   24.4761 O   0  0  0  0  0  0  0  0  0  0  0  0
    6.2256  -14.1236   26.0876 C   0  0  0  0  0  0  0  0  0  0  0  0
    6.1352  -13.5784   27.3351 C   0  0  0  0  0  0  0  0  0  0  0  0
   11.4068  -17.7002   25.8527 C   0  0  0  0  0  0  0  0  0  0  0  0
    9.8842  -17.4582   25.9749 C   0  0  2  0  0  0  0  0  0  0  0  0
    9.6711  -16.2473   25.1683 N   0  0  0  0  0  0  0  0  0  0  0  0
    9.6473  -17.1804   27.3916 C   0  0  0  0  0  0  0  0  0  0  0  0
    9.7420  -18.0750   28.2671 O   0  0  0  0  0  0  0  0  0  0  0  0
    9.3092  -15.9073   27.8098 O   0  0  0  0  0  0  0  0  0  0  0  0
  2 12  2  0
  2  1  1  0
  3  2  1  0
  4  5  1  0
  4  3  2  0
  5 11  2  0
  6  7  1  0
  6  5  1  0
  7  8  1  6
  9  7  1  0
  9 20  1  0
 10  9  2  0
 11 12  1  0
 14 13  1  0
 15 14  2  0
 16 15  1  0
 17 23  1  0
 17 16  2  0
 18 17  1  0
 19 21  1  0
 19 20  1  0
 19 18  1  6
 21 22  2  0
 23 24  2  0
 24 14  1  0
 26 25  1  1
 26 28  1  0
 27 26  1  0
 27 21  1  0
 28 29  2  0
 28 30  1  0
M  END
$$$$
