YYA.pdb
     RDKit          3D

 30 31  0  0  1  0  0  0  0  0999 V2000
    2.9150  -24.2806   25.4633 O   0  0  0  0  0  0  0  0  0  0  0  0
    3.8927  -23.2974   25.4631 C   0  0  0  0  0  0  0  0  0  0  0  0
    3.8517  -22.3076   24.5207 C   0  0  0  0  0  0  0  0  0  0  0  0
    4.8071  -21.3227   24.4985 C   0  0  0  0  0  0  0  0  0  0  0  0
    5.8517  -21.2795   25.4189 C   0  0  0  0  0  0  0  0  0  0  0  0
    6.8796  -20.2187   25.3760 C   0  0  0  0  0  0  0  0  0  0  0  0
    6.9939  -19.5380   24.0554 C   0  0  2  0  0  0  0  0  0  0  0  0
    7.4873  -20.4240   23.0178 N   0  0  0  0  0  0  0  0  0  0  0  0
    7.8470  -18.3261   24.0742 C   0  0  0  0  0  0  0  0  0  0  0  0
    9.0469  -18.4313   23.6390 O   0  0  0  0  0  0  0  0  0  0  0  0
    5.8561  -22.2976   26.3534 C   0  0  0  0  0  0  0  0  0  0  0  0
    4.8987  -23.2887   26.3796 C   0  0  0  0  0  0  0  0  0  0  0  0
    7.8832  -13.0788   18.8855 O   0  0  0  0  0  0  0  0  0  0  0  0
    7.7768  -13.4698   20.2006 C   0  0  0  0  0  0  0  0  0  0  0  0
    7.3609  -12.5708   21.1581 C   0  0  0  0  0  0  0  0  0  0  0  0
    7.2658  -13.0014   22.4732 C   0  0  0  0  0  0  0  0  0  0  0  0
    7.5730  -14.2916   22.8443 C   0  0  0  0  0  0  0  0  0  0  0  0
    7.4512  -14.6769   24.2314 C   0  0  0  0  0  0  0  0  0  0  0  0
    8.1894  -15.9152   24.6439 C   0  0  2  0  0  0  0  0  0  0  0  0
    7.3459  -17.0946   24.5587 N   0  0  0  0  0  0  0  0  0  0  0  0
    8.8295  -15.8239   25.9794 C   0  0  0  0  0  0  0  0  0  0  0  0
    8.4197  -16.6011   26.8771 O   0  0  0  0  0  0  0  0  0  0  0  0
    7.9920  -15.1854   21.8594 C   0  0  0  0  0  0  0  0  0  0  0  0
    8.0918  -14.7803   20.5603 C   0  0  0  0  0  0  0  0  0  0  0  0
   10.5685  -13.3706   27.9056 C   0  0  0  0  0  0  0  0  0  0  0  0
   10.5416  -14.8799   27.5693 C   0  0  2  0  0  0  0  0  0  0  0  0
    9.8565  -14.9219   26.2689 N   0  0  0  0  0  0  0  0  0  0  0  0
    9.7131  -15.4944   28.6068 C   0  0  0  0  0  0  0  0  0  0  0  0
    8.4739  -15.6381   28.4665 O   0  0  0  0  0  0  0  0  0  0  0  0
   10.2809  -15.9403   29.7852 O   0  0  0  0  0  0  0  0  0  0  0  0
  2 12  2  0
  2  1  1  0
  3  2  1  0
  4  5  1  0
  4  3  2  0
  5 11  2  0
  6  7  1  0
  6  5  1  0
  7  8  1  6
  9  7  1  0
  9 20  1  0
 10  9  2  0
 11 12  1  0
 14 13  1  0
 15 14  2  0
 16 15  1  0
 17 23  1  0
 17 16  2  0
 18 17  1  0
 19 21  1  0
 19 20  1  0
 19 18  1  1
 21 22  2  0
 23 24  2  0
 24 14  1  0
 26 25  1  1
 26 28  1  0
 27 26  1  0
 27 21  1  0
 28 29  2  0
 28 30  1  0
M  END
$$$$
