YYA.pdb
     RDKit          3D

 30 31  0  0  1  0  0  0  0  0999 V2000
   17.6606  -14.4704    9.0312 O   0  0  0  0  0  0  0  0  0  0  0  0
   17.1385  -14.7473   10.2856 C   0  0  0  0  0  0  0  0  0  0  0  0
   16.5485  -15.9588   10.5165 C   0  0  0  0  0  0  0  0  0  0  0  0
   16.0240  -16.2580   11.7489 C   0  0  0  0  0  0  0  0  0  0  0  0
   16.0640  -15.3589   12.8120 C   0  0  0  0  0  0  0  0  0  0  0  0
   15.4854  -15.6908   14.1306 C   0  0  0  0  0  0  0  0  0  0  0  0
   14.0155  -15.9344   14.1039 C   0  0  2  0  0  0  0  0  0  0  0  0
   13.2680  -14.7600   13.6952 N   0  0  0  0  0  0  0  0  0  0  0  0
   13.4605  -16.4117   15.3927 C   0  0  0  0  0  0  0  0  0  0  0  0
   13.0338  -15.5347   16.2227 O   0  0  0  0  0  0  0  0  0  0  0  0
   16.6685  -14.1471   12.5363 C   0  0  0  0  0  0  0  0  0  0  0  0
   17.1966  -13.8423   11.3003 C   0  0  0  0  0  0  0  0  0  0  0  0
   10.1017  -21.7916   21.5258 O   0  0  0  0  0  0  0  0  0  0  0  0
   10.5773  -21.2216   20.3671 C   0  0  0  0  0  0  0  0  0  0  0  0
   11.6997  -21.7339   19.7542 C   0  0  0  0  0  0  0  0  0  0  0  0
   12.1494  -21.1329   18.5877 C   0  0  0  0  0  0  0  0  0  0  0  0
   11.5099  -20.0478   18.0306 C   0  0  0  0  0  0  0  0  0  0  0  0
   12.0287  -19.4693   16.8127 C   0  0  0  0  0  0  0  0  0  0  0  0
   12.9189  -18.2733   16.9724 C   0  0  2  0  0  0  0  0  0  0  0  0
   13.4064  -17.7939   15.6908 N   0  0  0  0  0  0  0  0  0  0  0  0
   14.0439  -18.4756   17.9186 C   0  0  0  0  0  0  0  0  0  0  0  0
   13.7613  -18.7689   19.1068 O   0  0  0  0  0  0  0  0  0  0  0  0
   10.3756  -19.5451   18.6671 C   0  0  0  0  0  0  0  0  0  0  0  0
    9.9181  -20.1228   19.8154 C   0  0  0  0  0  0  0  0  0  0  0  0
   17.6704  -18.9599   17.5348 C   0  0  0  0  0  0  0  0  0  0  0  0
   16.5001  -18.5801   18.4719 C   0  0  2  0  0  0  0  0  0  0  0  0
   15.3839  -18.3566   17.5412 N   0  0  0  0  0  0  0  0  0  0  0  0
   16.9011  -17.3236   19.1048 C   0  0  0  0  0  0  0  0  0  0  0  0
   17.8623  -17.2646   19.9101 O   0  0  0  0  0  0  0  0  0  0  0  0
   16.2234  -16.1514   18.8284 O   0  0  0  0  0  0  0  0  0  0  0  0
  2 12  2  0
  2  1  1  0
  3  2  1  0
  4  5  1  0
  4  3  2  0
  5 11  2  0
  6  7  1  0
  6  5  1  0
  7  8  1  1
  9  7  1  0
  9 20  1  0
 10  9  2  0
 11 12  1  0
 14 13  1  0
 15 14  2  0
 16 15  1  0
 17 23  1  0
 17 16  2  0
 18 17  1  0
 19 21  1  0
 19 20  1  0
 19 18  1  6
 21 22  2  0
 23 24  2  0
 24 14  1  0
 26 25  1  6
 26 28  1  0
 27 26  1  0
 27 21  1  0
 28 29  2  0
 28 30  1  0
M  END
$$$$
