YYA.pdb
     RDKit          3D

 30 31  0  0  1  0  0  0  0  0999 V2000
   18.0919  -24.0170   17.9746 O   0  0  0  0  0  0  0  0  0  0  0  0
   18.0801  -22.7340   18.5003 C   0  0  0  0  0  0  0  0  0  0  0  0
   17.1580  -21.8305   18.0499 C   0  0  0  0  0  0  0  0  0  0  0  0
   17.1249  -20.5544   18.5536 C   0  0  0  0  0  0  0  0  0  0  0  0
   18.0137  -20.1188   19.5337 C   0  0  0  0  0  0  0  0  0  0  0  0
   17.9732  -18.7382   20.0590 C   0  0  0  0  0  0  0  0  0  0  0  0
   17.3372  -18.6185   21.4013 C   0  0  2  0  0  0  0  0  0  0  0  0
   15.9318  -18.9782   21.3810 N   0  0  0  0  0  0  0  0  0  0  0  0
   17.4623  -17.2726   22.0093 C   0  0  0  0  0  0  0  0  0  0  0  0
   16.5931  -16.3878   21.6900 O   0  0  0  0  0  0  0  0  0  0  0  0
   18.9286  -21.0624   19.9607 C   0  0  0  0  0  0  0  0  0  0  0  0
   18.9656  -22.3450   19.4578 C   0  0  0  0  0  0  0  0  0  0  0  0
   13.4058  -16.8360   26.9117 O   0  0  0  0  0  0  0  0  0  0  0  0
   14.6632  -16.5466   26.4333 C   0  0  0  0  0  0  0  0  0  0  0  0
   15.6532  -17.5040   26.4663 C   0  0  0  0  0  0  0  0  0  0  0  0
   16.9081  -17.1755   25.9751 C   0  0  0  0  0  0  0  0  0  0  0  0
   17.1887  -15.9294   25.4599 C   0  0  0  0  0  0  0  0  0  0  0  0
   18.5164  -15.6520   24.9625 C   0  0  0  0  0  0  0  0  0  0  0  0
   18.6802  -15.6504   23.4720 C   0  0  2  0  0  0  0  0  0  0  0  0
   18.5109  -16.9805   22.9134 N   0  0  0  0  0  0  0  0  0  0  0  0
   19.9490  -15.0419   23.0013 C   0  0  0  0  0  0  0  0  0  0  0  0
   20.9827  -15.7549   23.0267 O   0  0  0  0  0  0  0  0  0  0  0  0
   16.1722  -14.9751   25.4360 C   0  0  0  0  0  0  0  0  0  0  0  0
   14.9313  -15.2795   25.9146 C   0  0  0  0  0  0  0  0  0  0  0  0
   20.8084  -12.0675   21.0401 C   0  0  0  0  0  0  0  0  0  0  0  0
   21.2883  -13.1256   22.0609 C   0  0  2  0  0  0  0  0  0  0  0  0
   20.0334  -13.7272   22.5357 N   0  0  0  0  0  0  0  0  0  0  0  0
   21.9325  -12.3669   23.1331 C   0  0  0  0  0  0  0  0  0  0  0  0
   21.3176  -12.0455   24.1793 O   0  0  0  0  0  0  0  0  0  0  0  0
   23.2543  -11.9791   23.0216 O   0  0  0  0  0  0  0  0  0  0  0  0
  2 12  2  0
  2  1  1  0
  3  2  1  0
  4  5  1  0
  4  3  2  0
  5 11  2  0
  6  7  1  0
  6  5  1  0
  7  8  1  6
  9  7  1  0
  9 20  1  0
 10  9  2  0
 11 12  1  0
 14 13  1  0
 15 14  2  0
 16 15  1  0
 17 23  1  0
 17 16  2  0
 18 17  1  0
 19 21  1  0
 19 20  1  0
 19 18  1  1
 21 22  2  0
 23 24  2  0
 24 14  1  0
 26 25  1  6
 26 28  1  0
 27 26  1  0
 27 21  1  0
 28 29  2  0
 28 30  1  0
M  END
$$$$
