YYA.pdb
     RDKit          3D

 30 31  0  0  1  0  0  0  0  0999 V2000
    7.9442  -13.3417   15.3693 O   0  0  0  0  0  0  0  0  0  0  0  0
    7.9426  -13.6625   16.7183 C   0  0  0  0  0  0  0  0  0  0  0  0
    8.9122  -14.4887   17.2149 C   0  0  0  0  0  0  0  0  0  0  0  0
    8.9333  -14.8217   18.5460 C   0  0  0  0  0  0  0  0  0  0  0  0
    7.9843  -14.3440   19.4469 C   0  0  0  0  0  0  0  0  0  0  0  0
    8.0132  -14.7199   20.8757 C   0  0  0  0  0  0  0  0  0  0  0  0
    8.1115  -16.1874   21.1149 C   0  0  2  0  0  0  0  0  0  0  0  0
    6.9848  -16.9143   20.5607 N   0  0  0  0  0  0  0  0  0  0  0  0
    8.2440  -16.5573   22.5441 C   0  0  0  0  0  0  0  0  0  0  0  0
    7.1704  -16.7575   23.2131 O   0  0  0  0  0  0  0  0  0  0  0  0
    7.0228  -13.5129   18.9043 C   0  0  0  0  0  0  0  0  0  0  0  0
    6.9977  -13.1757   17.5682 C   0  0  0  0  0  0  0  0  0  0  0  0
   11.6787  -18.1008   30.4945 O   0  0  0  0  0  0  0  0  0  0  0  0
   11.4869  -17.9519   29.1401 C   0  0  0  0  0  0  0  0  0  0  0  0
   10.2494  -18.1954   28.5857 C   0  0  0  0  0  0  0  0  0  0  0  0
   10.0942  -18.0347   27.2168 C   0  0  0  0  0  0  0  0  0  0  0  0
   11.1343  -17.6417   26.4040 C   0  0  0  0  0  0  0  0  0  0  0  0
   10.9058  -17.4911   24.9855 C   0  0  0  0  0  0  0  0  0  0  0  0
    9.6742  -16.7338   24.5880 C   0  0  2  0  0  0  0  0  0  0  0  0
    9.5189  -16.6838   23.1446 N   0  0  0  0  0  0  0  0  0  0  0  0
    9.5831  -15.3729   25.1723 C   0  0  0  0  0  0  0  0  0  0  0  0
   10.3923  -14.5054   24.7596 O   0  0  0  0  0  0  0  0  0  0  0  0
   12.3785  -17.4004   26.9855 C   0  0  0  0  0  0  0  0  0  0  0  0
   12.5507  -17.5532   28.3303 C   0  0  0  0  0  0  0  0  0  0  0  0
    7.0159  -13.4510   26.8251 C   0  0  0  0  0  0  0  0  0  0  0  0
    8.5423  -13.6745   26.7157 C   0  0  2  0  0  0  0  0  0  0  0  0
    8.6435  -15.0266   26.1468 N   0  0  0  0  0  0  0  0  0  0  0  0
    9.0371  -13.6577   28.0924 C   0  0  0  0  0  0  0  0  0  0  0  0
    9.2823  -14.7161   28.7213 O   0  0  0  0  0  0  0  0  0  0  0  0
    9.2517  -12.4591   28.7460 O   0  0  0  0  0  0  0  0  0  0  0  0
  2 12  2  0
  2  1  1  0
  3  2  1  0
  4  5  1  0
  4  3  2  0
  5 11  2  0
  6  7  1  0
  6  5  1  0
  7  8  1  1
  9  7  1  0
  9 20  1  0
 10  9  2  0
 11 12  1  0
 14 13  1  0
 15 14  2  0
 16 15  1  0
 17 23  1  0
 17 16  2  0
 18 17  1  0
 19 21  1  0
 19 20  1  0
 19 18  1  6
 21 22  2  0
 23 24  2  0
 24 14  1  0
 26 25  1  1
 26 28  1  0
 27 26  1  0
 27 21  1  0
 28 29  2  0
 28 30  1  0
M  END
$$$$
