YYA.pdb
     RDKit          3D

 30 31  0  0  1  0  0  0  0  0999 V2000
    6.4410  -13.9066   15.4131 O   0  0  0  0  0  0  0  0  0  0  0  0
    7.0945  -13.9118   16.6360 C   0  0  0  0  0  0  0  0  0  0  0  0
    6.8011  -12.9477   17.5601 C   0  0  0  0  0  0  0  0  0  0  0  0
    7.4334  -12.9303   18.7779 C   0  0  0  0  0  0  0  0  0  0  0  0
    8.3914  -13.8775   19.1317 C   0  0  0  0  0  0  0  0  0  0  0  0
    9.0721  -13.8399   20.4428 C   0  0  0  0  0  0  0  0  0  0  0  0
    9.2839  -15.1819   21.0549 C   0  0  2  0  0  0  0  0  0  0  0  0
    8.0480  -15.9305   21.1867 N   0  0  0  0  0  0  0  0  0  0  0  0
    9.9451  -15.1418   22.3808 C   0  0  0  0  0  0  0  0  0  0  0  0
   11.1120  -14.6189   22.4528 O   0  0  0  0  0  0  0  0  0  0  0  0
    8.6582  -14.8334   18.1699 C   0  0  0  0  0  0  0  0  0  0  0  0
    8.0256  -14.8548   16.9455 C   0  0  0  0  0  0  0  0  0  0  0  0
   11.1455  -14.8799   31.0701 O   0  0  0  0  0  0  0  0  0  0  0  0
   10.6165  -14.9771   29.8035 C   0  0  0  0  0  0  0  0  0  0  0  0
   10.5048  -13.8548   29.0124 C   0  0  0  0  0  0  0  0  0  0  0  0
    9.9666  -13.9919   27.7413 C   0  0  0  0  0  0  0  0  0  0  0  0
    9.5447  -15.2086   27.2531 C   0  0  0  0  0  0  0  0  0  0  0  0
    8.9946  -15.2836   25.9194 C   0  0  0  0  0  0  0  0  0  0  0  0
    9.9502  -15.6609   24.8272 C   0  0  2  0  0  0  0  0  0  0  0  0
    9.3023  -15.6661   23.5272 N   0  0  0  0  0  0  0  0  0  0  0  0
   10.6658  -16.9394   25.0613 C   0  0  0  0  0  0  0  0  0  0  0  0
   11.3251  -17.0529   26.1245 O   0  0  0  0  0  0  0  0  0  0  0  0
    9.6666  -16.3319   28.0703 C   0  0  0  0  0  0  0  0  0  0  0  0
   10.1935  -16.2170   29.3236 C   0  0  0  0  0  0  0  0  0  0  0  0
   10.9690  -20.1152   23.1457 C   0  0  0  0  0  0  0  0  0  0  0  0
   11.2713  -19.3016   24.4258 C   0  0  2  0  0  0  0  0  0  0  0  0
   10.6310  -18.0052   24.1583 N   0  0  0  0  0  0  0  0  0  0  0  0
   12.7268  -19.1586   24.4606 C   0  0  0  0  0  0  0  0  0  0  0  0
   13.4535  -19.9380   25.1241 O   0  0  0  0  0  0  0  0  0  0  0  0
   13.3494  -18.1478   23.7530 O   0  0  0  0  0  0  0  0  0  0  0  0
  2 12  2  0
  2  1  1  0
  3  2  1  0
  4  5  1  0
  4  3  2  0
  5 11  2  0
  6  7  1  0
  6  5  1  0
  7  8  1  1
  9  7  1  0
  9 20  1  0
 10  9  2  0
 11 12  1  0
 14 13  1  0
 15 14  2  0
 16 15  1  0
 17 23  1  0
 17 16  2  0
 18 17  1  0
 19 21  1  0
 19 20  1  0
 19 18  1  1
 21 22  2  0
 23 24  2  0
 24 14  1  0
 26 25  1  6
 26 28  1  0
 27 26  1  0
 27 21  1  0
 28 29  2  0
 28 30  1  0
M  END
$$$$
