YYA.pdb
     RDKit          3D

 30 31  0  0  1  0  0  0  0  0999 V2000
   14.5009  -20.9218   14.8436 O   0  0  0  0  0  0  0  0  0  0  0  0
   14.0210  -20.1787   15.9114 C   0  0  0  0  0  0  0  0  0  0  0  0
   14.7842  -20.0496   17.0385 C   0  0  0  0  0  0  0  0  0  0  0  0
   14.3328  -19.3197   18.1093 C   0  0  0  0  0  0  0  0  0  0  0  0
   13.0943  -18.6823   18.1054 C   0  0  0  0  0  0  0  0  0  0  0  0
   12.6165  -17.9086   19.2702 C   0  0  0  0  0  0  0  0  0  0  0  0
   12.1602  -16.5298   18.9365 C   0  0  2  0  0  0  0  0  0  0  0  0
   13.1790  -15.7628   18.2445 N   0  0  0  0  0  0  0  0  0  0  0  0
   11.7060  -15.7452   20.1091 C   0  0  0  0  0  0  0  0  0  0  0  0
   12.4697  -14.8100   20.5364 O   0  0  0  0  0  0  0  0  0  0  0  0
   12.3552  -18.8380   16.9480 C   0  0  0  0  0  0  0  0  0  0  0  0
   12.8046  -19.5700   15.8702 C   0  0  0  0  0  0  0  0  0  0  0  0
    7.5811  -12.7469   16.3985 O   0  0  0  0  0  0  0  0  0  0  0  0
    7.8246  -13.2303   17.6636 C   0  0  0  0  0  0  0  0  0  0  0  0
    8.1573  -12.3650   18.6827 C   0  0  0  0  0  0  0  0  0  0  0  0
    8.3956  -12.8892   19.9446 C   0  0  0  0  0  0  0  0  0  0  0  0
    8.3092  -14.2390   20.2041 C   0  0  0  0  0  0  0  0  0  0  0  0
    8.5679  -14.7203   21.5415 C   0  0  0  0  0  0  0  0  0  0  0  0
    9.9615  -15.2008   21.8163 C   0  0  2  0  0  0  0  0  0  0  0  0
   10.4670  -16.0252   20.7324 N   0  0  0  0  0  0  0  0  0  0  0  0
   10.1192  -15.8934   23.1190 C   0  0  0  0  0  0  0  0  0  0  0  0
    9.6819  -15.3144   24.1443 O   0  0  0  0  0  0  0  0  0  0  0  0
    7.9710  -15.0972   19.1585 C   0  0  0  0  0  0  0  0  0  0  0  0
    7.7330  -14.6004   17.9102 C   0  0  0  0  0  0  0  0  0  0  0  0
   10.7903  -19.3241   24.1643 C   0  0  0  0  0  0  0  0  0  0  0  0
   10.8962  -17.8267   24.5363 C   0  0  2  0  0  0  0  0  0  0  0  0
   10.7239  -17.1468   23.2440 N   0  0  0  0  0  0  0  0  0  0  0  0
   12.2598  -17.6456   25.0346 C   0  0  0  0  0  0  0  0  0  0  0  0
   12.6340  -18.1281   26.1314 O   0  0  0  0  0  0  0  0  0  0  0  0
   13.1856  -16.9292   24.3001 O   0  0  0  0  0  0  0  0  0  0  0  0
  2 12  2  0
  2  1  1  0
  3  2  1  0
  4  5  1  0
  4  3  2  0
  5 11  2  0
  6  7  1  0
  6  5  1  0
  7  8  1  1
  9  7  1  0
  9 20  1  0
 10  9  2  0
 11 12  1  0
 14 13  1  0
 15 14  2  0
 16 15  1  0
 17 23  1  0
 17 16  2  0
 18 17  1  0
 19 21  1  0
 19 20  1  0
 19 18  1  6
 21 22  2  0
 23 24  2  0
 24 14  1  0
 26 25  1  6
 26 28  1  0
 27 26  1  0
 27 21  1  0
 28 29  2  0
 28 30  1  0
M  END
$$$$
