YYA.pdb
     RDKit          3D

 30 31  0  0  1  0  0  0  0  0999 V2000
    8.3516  -21.3093   15.3576 O   0  0  0  0  0  0  0  0  0  0  0  0
    8.5361  -20.6201   16.5465 C   0  0  0  0  0  0  0  0  0  0  0  0
    9.7287  -20.7247   17.2070 C   0  0  0  0  0  0  0  0  0  0  0  0
    9.9371  -20.0530   18.3854 C   0  0  0  0  0  0  0  0  0  0  0  0
    8.9616  -19.2428   18.9617 C   0  0  0  0  0  0  0  0  0  0  0  0
    9.1964  -18.5339   20.2370 C   0  0  0  0  0  0  0  0  0  0  0  0
    9.5131  -17.0866   20.0769 C   0  0  2  0  0  0  0  0  0  0  0  0
   10.7394  -16.8683   19.3329 N   0  0  0  0  0  0  0  0  0  0  0  0
    9.6096  -16.3459   21.3571 C   0  0  0  0  0  0  0  0  0  0  0  0
   10.7373  -16.3431   21.9641 O   0  0  0  0  0  0  0  0  0  0  0  0
    7.7721  -19.1648   18.2626 C   0  0  0  0  0  0  0  0  0  0  0  0
    7.5584  -19.8375   17.0789 C   0  0  0  0  0  0  0  0  0  0  0  0
    7.0032  -11.7833   28.4892 O   0  0  0  0  0  0  0  0  0  0  0  0
    7.1026  -12.3490   27.2388 C   0  0  0  0  0  0  0  0  0  0  0  0
    7.9509  -11.8056   26.2991 C   0  0  0  0  0  0  0  0  0  0  0  0
    8.0245  -12.4033   25.0495 C   0  0  0  0  0  0  0  0  0  0  0  0
    7.2793  -13.5153   24.7258 C   0  0  0  0  0  0  0  0  0  0  0  0
    7.4037  -14.0909   23.4065 C   0  0  0  0  0  0  0  0  0  0  0  0
    8.5169  -15.0769   23.2145 C   0  0  2  0  0  0  0  0  0  0  0  0
    8.4878  -15.6653   21.8868 N   0  0  0  0  0  0  0  0  0  0  0  0
    8.5786  -16.1333   24.2547 C   0  0  0  0  0  0  0  0  0  0  0  0
    7.6002  -16.9151   24.3510 O   0  0  0  0  0  0  0  0  0  0  0  0
    6.4270  -14.0494   25.6916 C   0  0  0  0  0  0  0  0  0  0  0  0
    6.3410  -13.4753   26.9264 C   0  0  0  0  0  0  0  0  0  0  0  0
   10.9487  -18.1373   25.8480 C   0  0  0  0  0  0  0  0  0  0  0  0
    9.7017  -17.2895   26.1916 C   0  0  2  0  0  0  0  0  0  0  0  0
    9.6689  -16.2891   25.1146 N   0  0  0  0  0  0  0  0  0  0  0  0
   10.0051  -16.6543   27.4741 C   0  0  0  0  0  0  0  0  0  0  0  0
   10.2827  -15.4331   27.5594 O   0  0  0  0  0  0  0  0  0  0  0  0
    9.9930  -17.3922   28.6426 O   0  0  0  0  0  0  0  0  0  0  0  0
  2 12  2  0
  2  1  1  0
  3  2  1  0
  4  5  1  0
  4  3  2  0
  5 11  2  0
  6  7  1  0
  6  5  1  0
  7  8  1  1
  9  7  1  0
  9 20  1  0
 10  9  2  0
 11 12  1  0
 14 13  1  0
 15 14  2  0
 16 15  1  0
 17 23  1  0
 17 16  2  0
 18 17  1  0
 19 21  1  0
 19 20  1  0
 19 18  1  1
 21 22  2  0
 23 24  2  0
 24 14  1  0
 26 25  1  6
 26 28  1  0
 27 26  1  0
 27 21  1  0
 28 29  2  0
 28 30  1  0
M  END
$$$$
