RKL.pdb
     RDKit          3D

 29 28  0  0  1  0  0  0  0  0999 V2000
   21.3856  -28.9140  -11.1458 N   0  0  0  0  0  0  0  0  0  0  0  0
   20.0707  -29.4730  -11.3671 C   0  0  0  0  0  0  0  0  0  0  0  0
   19.9486  -30.6860  -11.7863 N   0  0  0  0  0  0  0  0  0  0  0  0
   18.9103  -28.7048  -11.1287 N   0  0  0  0  0  0  0  0  0  0  0  0
   18.9894  -27.3150  -10.6403 C   0  0  0  0  0  0  0  0  0  0  0  0
   18.7143  -26.3497  -11.7591 C   0  0  0  0  0  0  0  0  0  0  0  0
   19.7303  -25.3031  -11.8757 C   0  0  0  0  0  0  0  0  0  0  0  0
   19.4437  -23.9266  -11.4085 C   0  0  2  0  0  0  0  0  0  0  0  0
   18.2538  -23.6444  -10.7438 N   0  0  0  0  0  0  0  0  0  0  0  0
   19.7246  -22.9777  -12.4939 C   0  0  0  0  0  0  0  0  0  0  0  0
   19.2306  -21.8273  -12.4316 O   0  0  0  0  0  0  0  0  0  0  0  0
   19.0306  -31.1101  -11.9850 N   0  0  0  0  0  0  0  0  0  0  0  0
   20.5270  -23.3312  -13.5900 C   0  0  2  0  0  0  0  0  0  0  0  0
   20.9183  -22.3422  -14.5863 C   0  0  0  0  0  0  0  0  0  0  0  0
   22.0319  -22.9164  -15.4019 C   0  0  0  0  0  0  0  0  0  0  0  0
   23.3909  -22.7875  -14.7597 C   0  0  0  0  0  0  0  0  0  0  0  0
   24.3697  -23.5072  -15.6994 C   0  0  0  0  0  0  0  0  0  0  0  0
   25.7649  -23.3113  -15.1120 N   0  0  0  0  0  0  0  0  0  0  0  0
   26.6782  -24.0291  -16.0055 C   0  0  0  0  0  0  0  0  0  0  0  0
   19.7402  -21.9573  -15.3983 O   0  0  0  0  0  0  0  0  0  0  0  0
   18.6766  -22.6217  -15.3968 C   0  0  0  0  0  0  0  0  0  0  0  0
   16.6089  -17.6710  -16.2295 C   0  0  2  0  0  0  0  0  0  0  0  0
   16.3376  -19.1898  -16.1243 C   0  0  0  0  0  0  0  0  0  0  0  0
   15.7562  -19.5979  -17.4321 C   0  0  0  0  0  0  0  0  0  0  0  0
   17.6302  -19.7932  -15.7382 C   0  0  2  0  0  0  0  0  0  0  0  0
   18.5694  -20.2028  -16.8082 N   0  0  0  0  0  0  0  0  0  0  0  0
   19.7560  -20.7914  -16.2374 C   0  0  0  0  0  0  0  0  0  0  0  0
   18.8350  -19.1823  -17.8176 O   0  0  0  0  0  0  0  0  0  0  0  0
   19.8591  -18.4669  -17.7618 O   0  0  0  0  0  0  0  0  0  0  0  0
  2  3  2  0
  2  1  1  0
  4  2  1  0
  5  4  1  0
  6  7  1  0
  6  5  1  0
  8 10  1  0
  8  7  1  0
  8  9  1  6
 10 12  1  0
 11 10  2  0
 12 13  1  0
 13 19  1  0
 13 14  1  1
 15 14  1  0
 16 17  1  0
 16 15  1  0
 18 17  1  0
 19 20  2  0
 19 26  1  0
 22 21  1  1
 22 23  1  0
 24 22  1  0
 25 27  1  0
 25 24  1  6
 26 25  1  0
 27 29  1  0
 28 27  2  0
M  END
$$$$
