RKL.pdb
     RDKit          3D

 29 28  0  0  1  0  0  0  0  0999 V2000
   30.0970  -32.9565  -18.2982 N   0  0  0  0  0  0  0  0  0  0  0  0
   28.8837  -33.0157  -17.5139 C   0  0  0  0  0  0  0  0  0  0  0  0
   28.2266  -34.1212  -17.4263 N   0  0  0  0  0  0  0  0  0  0  0  0
   28.4052  -31.8725  -16.8374 N   0  0  0  0  0  0  0  0  0  0  0  0
   28.9637  -30.5314  -17.0939 C   0  0  0  0  0  0  0  0  0  0  0  0
   28.1825  -29.8357  -18.1732 C   0  0  0  0  0  0  0  0  0  0  0  0
   27.8588  -28.4476  -17.8423 C   0  0  0  0  0  0  0  0  0  0  0  0
   28.7407  -27.6676  -16.9428 C   0  0  2  0  0  0  0  0  0  0  0  0
   29.4332  -28.3020  -15.9155 N   0  0  0  0  0  0  0  0  0  0  0  0
   28.0289  -26.4660  -16.4881 C   0  0  0  0  0  0  0  0  0  0  0  0
   27.8654  -26.2918  -15.2575 O   0  0  0  0  0  0  0  0  0  0  0  0
   27.3022  -34.1780  -16.9740 N   0  0  0  0  0  0  0  0  0  0  0  0
   27.5318  -25.5182  -17.3964 C   0  0  1  0  0  0  0  0  0  0  0  0
   27.0400  -24.2244  -16.9402 C   0  0  0  0  0  0  0  0  0  0  0  0
   27.6795  -23.1614  -17.7745 C   0  0  0  0  0  0  0  0  0  0  0  0
   27.2537  -21.7600  -17.4127 C   0  0  0  0  0  0  0  0  0  0  0  0
   27.9593  -20.8344  -18.4149 C   0  0  0  0  0  0  0  0  0  0  0  0
   28.3891  -19.5933  -17.6372 N   0  0  0  0  0  0  0  0  0  0  0  0
   29.1093  -18.7511  -18.5963 C   0  0  0  0  0  0  0  0  0  0  0  0
   25.5598  -24.2019  -17.0026 O   0  0  0  0  0  0  0  0  0  0  0  0
   24.9207  -24.6689  -17.9752 C   0  0  0  0  0  0  0  0  0  0  0  0
   21.3231  -26.0894  -13.8931 C   0  0  2  0  0  0  0  0  0  0  0  0
   22.2224  -25.7600  -15.1074 C   0  0  0  0  0  0  0  0  0  0  0  0
   21.3513  -25.8688  -16.3092 C   0  0  0  0  0  0  0  0  0  0  0  0
   22.8098  -24.4363  -14.8125 C   0  0  2  0  0  0  0  0  0  0  0  0
   23.3306  -23.6250  -15.9374 N   0  0  0  0  0  0  0  0  0  0  0  0
   24.7728  -23.6381  -15.9412 C   0  0  0  0  0  0  0  0  0  0  0  0
   22.7448  -22.2935  -16.0585 O   0  0  0  0  0  0  0  0  0  0  0  0
   23.3190  -21.2877  -15.5865 O   0  0  0  0  0  0  0  0  0  0  0  0
  2  3  2  0
  2  1  1  0
  4  2  1  0
  5  4  1  0
  6  7  1  0
  6  5  1  0
  8 10  1  0
  8  7  1  0
  8  9  1  1
 10 12  1  0
 11 10  2  0
 12 13  1  0
 13 19  1  0
 13 14  1  1
 15 14  1  0
 16 17  1  0
 16 15  1  0
 18 17  1  0
 19 20  2  0
 19 26  1  0
 22 21  1  6
 22 23  1  0
 24 22  1  0
 25 27  1  0
 25 24  1  6
 26 25  1  0
 27 29  1  0
 28 27  2  0
M  END
$$$$
