RKL.pdb
     RDKit          3D

 29 28  0  0  1  0  0  0  0  0999 V2000
   15.1153  -14.5562  -16.8041 N   0  0  0  0  0  0  0  0  0  0  0  0
   16.2636  -14.4582  -15.9309 C   0  0  0  0  0  0  0  0  0  0  0  0
   16.1360  -14.6940  -14.6700 N   0  0  0  0  0  0  0  0  0  0  0  0
   17.5315  -14.1062  -16.4427 N   0  0  0  0  0  0  0  0  0  0  0  0
   17.7338  -13.8130  -17.8743 C   0  0  0  0  0  0  0  0  0  0  0  0
   19.1690  -13.4527  -18.1382 C   0  0  0  0  0  0  0  0  0  0  0  0
   19.4255  -13.1084  -19.5370 C   0  0  0  0  0  0  0  0  0  0  0  0
   20.8082  -12.8506  -20.0027 C   0  0  2  0  0  0  0  0  0  0  0  0
   21.7943  -13.8202  -19.8449 N   0  0  0  0  0  0  0  0  0  0  0  0
   21.2377  -11.5254  -19.5371 C   0  0  0  0  0  0  0  0  0  0  0  0
   22.2058  -11.4497  -18.7444 O   0  0  0  0  0  0  0  0  0  0  0  0
   16.9374  -14.6738  -14.0222 N   0  0  0  0  0  0  0  0  0  0  0  0
   20.5903  -10.3531  -19.9577 C   0  0  2  0  0  0  0  0  0  0  0  0
   21.0540   -9.0409  -19.5255 C   0  0  0  0  0  0  0  0  0  0  0  0
   20.3475   -8.0047  -20.3392 C   0  0  0  0  0  0  0  0  0  0  0  0
   20.7975   -7.9441  -21.7779 C   0  0  0  0  0  0  0  0  0  0  0  0
   19.9520   -6.8440  -22.4367 C   0  0  0  0  0  0  0  0  0  0  0  0
   20.3351   -6.8229  -23.9142 N   0  0  0  0  0  0  0  0  0  0  0  0
   19.4558   -5.8315  -24.5400 C   0  0  0  0  0  0  0  0  0  0  0  0
   20.8331   -8.8874  -18.0684 O   0  0  0  0  0  0  0  0  0  0  0  0
   19.9662   -9.5468  -17.4468 C   0  0  0  0  0  0  0  0  0  0  0  0
   23.6045  -10.8693  -14.2487 C   0  0  1  0  0  0  0  0  0  0  0  0
   22.2978  -10.2097  -14.7480 C   0  0  0  0  0  0  0  0  0  0  0  0
   21.4077  -10.1034  -13.5599 C   0  0  0  0  0  0  0  0  0  0  0  0
   22.7175   -8.9498  -15.3965 C   0  0  2  0  0  0  0  0  0  0  0  0
   21.6724   -8.0003  -15.8446 N   0  0  0  0  0  0  0  0  0  0  0  0
   21.6084   -7.9661  -17.2851 C   0  0  0  0  0  0  0  0  0  0  0  0
   21.7280   -6.6833  -15.2175 O   0  0  0  0  0  0  0  0  0  0  0  0
   22.0481   -5.6670  -15.8722 O   0  0  0  0  0  0  0  0  0  0  0  0
  2  3  2  0
  2  1  1  0
  4  2  1  0
  5  4  1  0
  6  7  1  0
  6  5  1  0
  8 10  1  0
  8  7  1  0
  8  9  1  1
 10 12  1  0
 11 10  2  0
 12 13  1  0
 13 19  1  0
 13 14  1  6
 15 14  1  0
 16 17  1  0
 16 15  1  0
 18 17  1  0
 19 20  2  0
 19 26  1  0
 22 21  1  6
 22 23  1  0
 24 22  1  0
 25 27  1  0
 25 24  1  1
 26 25  1  0
 27 29  1  0
 28 27  2  0
M  END
$$$$
