RKL.pdb
     RDKit          3D

 29 28  0  0  1  0  0  0  0  0999 V2000
   24.2602  -12.5677  -19.1142 N   0  0  0  0  0  0  0  0  0  0  0  0
   22.8764  -12.9242  -19.3351 C   0  0  0  0  0  0  0  0  0  0  0  0
   22.3519  -12.7771  -20.5034 N   0  0  0  0  0  0  0  0  0  0  0  0
   22.0860  -13.4352  -18.2827 N   0  0  0  0  0  0  0  0  0  0  0  0
   22.6351  -13.6314  -16.9276 C   0  0  0  0  0  0  0  0  0  0  0  0
   23.5691  -14.8088  -16.9057 C   0  0  0  0  0  0  0  0  0  0  0  0
   23.1366  -15.8665  -15.9917 C   0  0  0  0  0  0  0  0  0  0  0  0
   22.1127  -16.8497  -16.4160 C   0  0  2  0  0  0  0  0  0  0  0  0
   20.8064  -16.4392  -16.6661 N   0  0  0  0  0  0  0  0  0  0  0  0
   22.1783  -18.0269  -15.5400 C   0  0  0  0  0  0  0  0  0  0  0  0
   21.5452  -18.0092  -14.4583 O   0  0  0  0  0  0  0  0  0  0  0  0
   21.3515  -12.9473  -20.6832 N   0  0  0  0  0  0  0  0  0  0  0  0
   22.9301  -19.1604  -15.8871 C   0  0  1  0  0  0  0  0  0  0  0  0
   23.0804  -20.2760  -14.9615 C   0  0  0  0  0  0  0  0  0  0  0  0
   23.2127  -21.5319  -15.7617 C   0  0  0  0  0  0  0  0  0  0  0  0
   23.5437  -22.7512  -14.9373 C   0  0  0  0  0  0  0  0  0  0  0  0
   23.8141  -23.8788  -15.9446 C   0  0  0  0  0  0  0  0  0  0  0  0
   24.0906  -25.1385  -15.1281 N   0  0  0  0  0  0  0  0  0  0  0  0
   24.4275  -26.1797  -16.1029 C   0  0  0  0  0  0  0  0  0  0  0  0
   24.2358  -20.0311  -14.0668 O   0  0  0  0  0  0  0  0  0  0  0  0
   25.3226  -19.5653  -14.4845 C   0  0  0  0  0  0  0  0  0  0  0  0
   26.6064  -19.1424   -9.3237 C   0  0  2  0  0  0  0  0  0  0  0  0
   25.9582  -20.5464   -9.3421 C   0  0  0  0  0  0  0  0  0  0  0  0
   25.5186  -20.8176   -7.9464 C   0  0  0  0  0  0  0  0  0  0  0  0
   24.9111  -20.4811  -10.3830 C   0  0  1  0  0  0  0  0  0  0  0  0
   25.3262  -20.3633  -11.8002 N   0  0  0  0  0  0  0  0  0  0  0  0
   24.1696  -20.3176  -12.6607 C   0  0  0  0  0  0  0  0  0  0  0  0
   26.3482  -21.3158  -12.2231 O   0  0  0  0  0  0  0  0  0  0  0  0
   26.0776  -22.5254  -12.3891 O   0  0  0  0  0  0  0  0  0  0  0  0
  2  3  2  0
  2  1  1  0
  4  2  1  0
  5  4  1  0
  6  7  1  0
  6  5  1  0
  8 10  1  0
  8  7  1  0
  8  9  1  1
 10 12  1  0
 11 10  2  0
 12 13  1  0
 13 19  1  0
 13 14  1  1
 15 14  1  0
 16 17  1  0
 16 15  1  0
 18 17  1  0
 19 20  2  0
 19 26  1  0
 22 21  1  1
 22 23  1  0
 24 22  1  0
 25 27  1  0
 25 24  1  1
 26 25  1  0
 27 29  1  0
 28 27  2  0
M  END
$$$$
