RKL.pdb
     RDKit          3D

 29 28  0  0  1  0  0  0  0  0999 V2000
   24.9203  -31.6007   -7.8049 N   0  0  0  0  0  0  0  0  0  0  0  0
   24.5851  -33.0072   -7.8061 C   0  0  0  0  0  0  0  0  0  0  0  0
   25.5189  -33.8919   -7.8901 N   0  0  0  0  0  0  0  0  0  0  0  0
   23.2407  -33.4288   -7.7152 N   0  0  0  0  0  0  0  0  0  0  0  0
   22.1445  -32.4719   -7.4725 C   0  0  0  0  0  0  0  0  0  0  0  0
   21.8171  -32.4104   -6.0068 C   0  0  0  0  0  0  0  0  0  0  0  0
   20.7128  -31.4994   -5.7040 C   0  0  0  0  0  0  0  0  0  0  0  0
   20.3262  -31.2331   -4.2987 C   0  0  2  0  0  0  0  0  0  0  0  0
   20.1451  -32.2879   -3.4087 N   0  0  0  0  0  0  0  0  0  0  0  0
   19.2133  -30.2749   -4.2750 C   0  0  0  0  0  0  0  0  0  0  0  0
   18.0664  -30.6755   -4.5835 O   0  0  0  0  0  0  0  0  0  0  0  0
   25.3182  -34.9018   -7.9348 N   0  0  0  0  0  0  0  0  0  0  0  0
   19.4077  -28.9313   -3.9179 C   0  0  1  0  0  0  0  0  0  0  0  0
   18.3092  -27.9747   -3.9612 C   0  0  0  0  0  0  0  0  0  0  0  0
   18.2296  -27.2946   -2.6322 C   0  0  0  0  0  0  0  0  0  0  0  0
   17.7907  -28.1986   -1.5070 C   0  0  0  0  0  0  0  0  0  0  0  0
   17.8559  -27.3446   -0.2320 C   0  0  0  0  0  0  0  0  0  0  0  0
   17.4252  -28.2465    0.9218 N   0  0  0  0  0  0  0  0  0  0  0  0
   17.5359  -27.4267    2.1315 C   0  0  0  0  0  0  0  0  0  0  0  0
   18.5111  -27.0321   -5.0865 O   0  0  0  0  0  0  0  0  0  0  0  0
   19.6502  -26.7368   -5.5198 C   0  0  0  0  0  0  0  0  0  0  0  0
   19.6147  -26.4863   -9.9815 C   0  0  2  0  0  0  0  0  0  0  0  0
   18.5959  -25.5931   -9.2358 C   0  0  0  0  0  0  0  0  0  0  0  0
   17.4430  -25.4192  -10.1609 C   0  0  0  0  0  0  0  0  0  0  0  0
   18.3388  -26.2791   -7.9523 C   0  0  1  0  0  0  0  0  0  0  0  0
   17.5341  -25.5803   -6.9234 N   0  0  0  0  0  0  0  0  0  0  0  0
   17.4011  -26.4020   -5.7455 C   0  0  0  0  0  0  0  0  0  0  0  0
   16.2761  -25.0169   -7.4040 O   0  0  0  0  0  0  0  0  0  0  0  0
   15.1891  -25.6066   -7.2179 O   0  0  0  0  0  0  0  0  0  0  0  0
  2  3  2  0
  2  1  1  0
  4  2  1  0
  5  4  1  0
  6  7  1  0
  6  5  1  0
  8 10  1  0
  8  7  1  0
  8  9  1  6
 10 12  1  0
 11 10  2  0
 12 13  1  0
 13 19  1  0
 13 14  1  6
 15 14  1  0
 16 17  1  0
 16 15  1  0
 18 17  1  0
 19 20  2  0
 19 26  1  0
 22 21  1  6
 22 23  1  0
 24 22  1  0
 25 27  1  0
 25 24  1  1
 26 25  1  0
 27 29  1  0
 28 27  2  0
M  END
$$$$
