RKL.pdb
     RDKit          3D

 29 28  0  0  1  0  0  0  0  0999 V2000
   15.7783  -22.6379  -10.5658 N   0  0  0  0  0  0  0  0  0  0  0  0
   15.1251  -22.4885  -11.8470 C   0  0  0  0  0  0  0  0  0  0  0  0
   13.8381  -22.4953  -11.9186 N   0  0  0  0  0  0  0  0  0  0  0  0
   15.8816  -22.3335  -13.0291 N   0  0  0  0  0  0  0  0  0  0  0  0
   17.2581  -22.8523  -13.1404 C   0  0  0  0  0  0  0  0  0  0  0  0
   18.2400  -21.8561  -12.5902 C   0  0  0  0  0  0  0  0  0  0  0  0
   19.6316  -22.2867  -12.7287 C   0  0  0  0  0  0  0  0  0  0  0  0
   20.0132  -23.2581  -13.7803 C   0  0  2  0  0  0  0  0  0  0  0  0
   19.6668  -24.6004  -13.6550 N   0  0  0  0  0  0  0  0  0  0  0  0
   21.4282  -23.0685  -14.1254 C   0  0  0  0  0  0  0  0  0  0  0  0
   22.2951  -23.7152  -13.4917 O   0  0  0  0  0  0  0  0  0  0  0  0
   13.3368  -22.5463  -12.8177 N   0  0  0  0  0  0  0  0  0  0  0  0
   21.8251  -22.1843  -15.1408 C   0  0  2  0  0  0  0  0  0  0  0  0
   23.2238  -22.0676  -15.5329 C   0  0  0  0  0  0  0  0  0  0  0  0
   23.2732  -21.6435  -16.9656 C   0  0  0  0  0  0  0  0  0  0  0  0
   24.6712  -21.5069  -17.5160 C   0  0  0  0  0  0  0  0  0  0  0  0
   24.5071  -21.0286  -18.9663 C   0  0  0  0  0  0  0  0  0  0  0  0
   25.9080  -20.9714  -19.5698 N   0  0  0  0  0  0  0  0  0  0  0  0
   25.7320  -20.4848  -20.9410 C   0  0  0  0  0  0  0  0  0  0  0  0
   23.9214  -21.1289  -14.6233 O   0  0  0  0  0  0  0  0  0  0  0  0
   23.4854  -19.9783  -14.3812 C   0  0  0  0  0  0  0  0  0  0  0  0
   25.9568  -21.9714   -9.7180 C   0  0  2  0  0  0  0  0  0  0  0  0
   25.2526  -21.3985  -10.9700 C   0  0  0  0  0  0  0  0  0  0  0  0
   24.4153  -20.2649  -10.4915 C   0  0  0  0  0  0  0  0  0  0  0  0
   26.3389  -21.0854  -11.9220 C   0  0  2  0  0  0  0  0  0  0  0  0
   25.9803  -20.5531  -13.2571 N   0  0  0  0  0  0  0  0  0  0  0  0
   25.1455  -21.4923  -13.9652 C   0  0  0  0  0  0  0  0  0  0  0  0
   27.1035  -20.0446  -14.0387 O   0  0  0  0  0  0  0  0  0  0  0  0
   27.7339  -19.0259  -13.6800 O   0  0  0  0  0  0  0  0  0  0  0  0
  2  3  2  0
  2  1  1  0
  4  2  1  0
  5  4  1  0
  6  7  1  0
  6  5  1  0
  8 10  1  0
  8  7  1  0
  8  9  1  1
 10 12  1  0
 11 10  2  0
 12 13  1  0
 13 19  1  0
 13 14  1  6
 15 14  1  0
 16 17  1  0
 16 15  1  0
 18 17  1  0
 19 20  2  0
 19 26  1  0
 22 21  1  1
 22 23  1  0
 24 22  1  0
 25 27  1  0
 25 24  1  1
 26 25  1  0
 27 29  1  0
 28 27  2  0
M  END
$$$$
