RKL.pdb
     RDKit          3D

 29 28  0  0  1  0  0  0  0  0999 V2000
   11.2395   -8.4267   -8.6463 N   0  0  0  0  0  0  0  0  0  0  0  0
   10.6969   -9.6538   -9.1850 C   0  0  0  0  0  0  0  0  0  0  0  0
    9.6195  -10.1556   -8.6856 N   0  0  0  0  0  0  0  0  0  0  0  0
   11.3337  -10.3150  -10.2577 N   0  0  0  0  0  0  0  0  0  0  0  0
   12.7084   -9.9737  -10.6702 C   0  0  0  0  0  0  0  0  0  0  0  0
   13.1216  -10.8025  -11.8541 C   0  0  0  0  0  0  0  0  0  0  0  0
   14.4579  -10.4692  -12.3485 C   0  0  0  0  0  0  0  0  0  0  0  0
   14.6723   -9.2494  -13.1617 C   0  0  2  0  0  0  0  0  0  0  0  0
   13.7035   -8.8319  -14.0696 N   0  0  0  0  0  0  0  0  0  0  0  0
   16.0185   -9.2876  -13.7479 C   0  0  0  0  0  0  0  0  0  0  0  0
   16.9472   -9.8140  -13.0909 O   0  0  0  0  0  0  0  0  0  0  0  0
    9.1967  -11.0229   -9.0479 N   0  0  0  0  0  0  0  0  0  0  0  0
   16.2829   -8.7501  -15.0173 C   0  0  1  0  0  0  0  0  0  0  0  0
   17.6151   -8.8245  -15.6034 C   0  0  0  0  0  0  0  0  0  0  0  0
   17.5070   -8.4790  -17.0539 C   0  0  0  0  0  0  0  0  0  0  0  0
   18.8290   -8.4667  -17.7807 C   0  0  0  0  0  0  0  0  0  0  0  0
   18.5109   -8.0507  -19.2246 C   0  0  0  0  0  0  0  0  0  0  0  0
   19.8349   -8.0573  -19.9841 N   0  0  0  0  0  0  0  0  0  0  0  0
   19.5380   -7.5037  -21.3082 C   0  0  0  0  0  0  0  0  0  0  0  0
   18.5386   -7.9355  -14.8603 O   0  0  0  0  0  0  0  0  0  0  0  0
   18.1553   -6.8742  -14.3131 C   0  0  0  0  0  0  0  0  0  0  0  0
   22.8847  -10.0645  -12.1052 C   0  0  2  0  0  0  0  0  0  0  0  0
   21.5612   -9.3484  -12.4619 C   0  0  0  0  0  0  0  0  0  0  0  0
   20.9504   -8.9390  -11.1679 C   0  0  0  0  0  0  0  0  0  0  0  0
   21.9383   -8.2743  -13.4044 C   0  0  2  0  0  0  0  0  0  0  0  0
   20.8668   -7.4328  -13.9862 N   0  0  0  0  0  0  0  0  0  0  0  0
   19.9347   -8.2468  -14.7270 C   0  0  0  0  0  0  0  0  0  0  0  0
   21.3343   -6.2530  -14.7075 O   0  0  0  0  0  0  0  0  0  0  0  0
   21.1075   -6.1082  -15.9288 O   0  0  0  0  0  0  0  0  0  0  0  0
  2  3  2  0
  2  1  1  0
  4  2  1  0
  5  4  1  0
  6  7  1  0
  6  5  1  0
  8 10  1  0
  8  7  1  0
  8  9  1  6
 10 12  1  0
 11 10  2  0
 12 13  1  0
 13 19  1  0
 13 14  1  6
 15 14  1  0
 16 17  1  0
 16 15  1  0
 18 17  1  0
 19 20  2  0
 19 26  1  0
 22 21  1  1
 22 23  1  0
 24 22  1  0
 25 27  1  0
 25 24  1  1
 26 25  1  0
 27 29  1  0
 28 27  2  0
M  END
$$$$
