RKL.pdb
     RDKit          3D

 29 28  0  0  1  0  0  0  0  0999 V2000
   32.7741  -25.0423  -17.3504 N   0  0  0  0  0  0  0  0  0  0  0  0
   32.1809  -25.4677  -16.1024 C   0  0  0  0  0  0  0  0  0  0  0  0
   32.8277  -26.2614  -15.3192 N   0  0  0  0  0  0  0  0  0  0  0  0
   30.8948  -25.0229  -15.7259 N   0  0  0  0  0  0  0  0  0  0  0  0
   30.0904  -24.1508  -16.6027 C   0  0  0  0  0  0  0  0  0  0  0  0
   30.1515  -22.7271  -16.1248 C   0  0  0  0  0  0  0  0  0  0  0  0
   28.8456  -22.1992  -15.7283 C   0  0  0  0  0  0  0  0  0  0  0  0
   27.7744  -22.0181  -16.7358 C   0  0  2  0  0  0  0  0  0  0  0  0
   28.0802  -22.0212  -18.0937 N   0  0  0  0  0  0  0  0  0  0  0  0
   26.9313  -20.8796  -16.3480 C   0  0  0  0  0  0  0  0  0  0  0  0
   27.3922  -19.7201  -16.4670 O   0  0  0  0  0  0  0  0  0  0  0  0
   32.4429  -26.5797  -14.4176 N   0  0  0  0  0  0  0  0  0  0  0  0
   25.6317  -21.0634  -15.8502 C   0  0  1  0  0  0  0  0  0  0  0  0
   24.7778  -19.9247  -15.5370 C   0  0  0  0  0  0  0  0  0  0  0  0
   23.7327  -19.8183  -16.6006 C   0  0  0  0  0  0  0  0  0  0  0  0
   22.7272  -18.7190  -16.3634 C   0  0  0  0  0  0  0  0  0  0  0  0
   21.7870  -18.7400  -17.5778 C   0  0  0  0  0  0  0  0  0  0  0  0
   20.8371  -17.5561  -17.4170 N   0  0  0  0  0  0  0  0  0  0  0  0
   19.8621  -17.6764  -18.5044 C   0  0  0  0  0  0  0  0  0  0  0  0
   24.2109  -20.0840  -14.1773 O   0  0  0  0  0  0  0  0  0  0  0  0
   23.5013  -19.2023  -13.6373 C   0  0  0  0  0  0  0  0  0  0  0  0
   26.5235  -20.1736   -9.8222 C   0  0  2  0  0  0  0  0  0  0  0  0
   26.0500  -20.9680  -11.0618 C   0  0  0  0  0  0  0  0  0  0  0  0
   26.6737  -22.3149  -10.9532 C   0  0  0  0  0  0  0  0  0  0  0  0
   24.5740  -20.8990  -11.0312 C   0  0  2  0  0  0  0  0  0  0  0  0
   23.8115  -21.5318  -12.1325 N   0  0  0  0  0  0  0  0  0  0  0  0
   24.4473  -21.2688  -13.4001 C   0  0  0  0  0  0  0  0  0  0  0  0
   22.3759  -21.2676  -12.1179 O   0  0  0  0  0  0  0  0  0  0  0  0
   21.8666  -20.4136  -12.8762 O   0  0  0  0  0  0  0  0  0  0  0  0
  2  3  2  0
  2  1  1  0
  4  2  1  0
  5  4  1  0
  6  7  1  0
  6  5  1  0
  8 10  1  0
  8  7  1  0
  8  9  1  6
 10 12  1  0
 11 10  2  0
 12 13  1  0
 13 19  1  0
 13 14  1  6
 15 14  1  0
 16 17  1  0
 16 15  1  0
 18 17  1  0
 19 20  2  0
 19 26  1  0
 22 21  1  6
 22 23  1  0
 24 22  1  0
 25 27  1  0
 25 24  1  1
 26 25  1  0
 27 29  1  0
 28 27  2  0
M  END
$$$$
