RKL.pdb
     RDKit          3D

 29 28  0  0  1  0  0  0  0  0999 V2000
   21.2510  -21.8331   -6.7960 N   0  0  0  0  0  0  0  0  0  0  0  0
   21.2021  -21.1493   -8.0690 C   0  0  0  0  0  0  0  0  0  0  0  0
   20.0748  -20.9963   -8.6751 N   0  0  0  0  0  0  0  0  0  0  0  0
   22.3791  -20.6425   -8.6617 N   0  0  0  0  0  0  0  0  0  0  0  0
   23.6597  -21.3708   -8.5843 C   0  0  0  0  0  0  0  0  0  0  0  0
   24.7852  -20.5067   -9.0803 C   0  0  0  0  0  0  0  0  0  0  0  0
   24.8366  -20.4147  -10.5398 C   0  0  0  0  0  0  0  0  0  0  0  0
   25.7029  -21.3314  -11.3173 C   0  0  2  0  0  0  0  0  0  0  0  0
   27.0712  -21.3844  -11.0679 N   0  0  0  0  0  0  0  0  0  0  0  0
   25.3928  -21.1962  -12.7466 C   0  0  0  0  0  0  0  0  0  0  0  0
   26.0306  -20.3569  -13.4249 O   0  0  0  0  0  0  0  0  0  0  0  0
   20.0013  -20.5317   -9.5922 N   0  0  0  0  0  0  0  0  0  0  0  0
   24.4043  -21.9804  -13.3617 C   0  0  2  0  0  0  0  0  0  0  0  0
   24.0596  -21.7921  -14.7651 C   0  0  0  0  0  0  0  0  0  0  0  0
   24.1410  -23.1196  -15.4480 C   0  0  0  0  0  0  0  0  0  0  0  0
   25.5502  -23.5754  -15.7350 C   0  0  0  0  0  0  0  0  0  0  0  0
   25.4156  -24.8948  -16.5096 C   0  0  0  0  0  0  0  0  0  0  0  0
   26.8306  -25.3323  -16.8787 N   0  0  0  0  0  0  0  0  0  0  0  0
   26.6917  -26.6565  -17.4910 C   0  0  0  0  0  0  0  0  0  0  0  0
   22.7221  -21.1635  -14.8714 O   0  0  0  0  0  0  0  0  0  0  0  0
   22.0871  -20.7604  -13.8680 C   0  0  0  0  0  0  0  0  0  0  0  0
   22.2919  -16.8723  -18.0692 C   0  0  2  0  0  0  0  0  0  0  0  0
   21.8058  -17.2511  -16.6508 C   0  0  0  0  0  0  0  0  0  0  0  0
   20.3268  -17.0849  -16.6621 C   0  0  0  0  0  0  0  0  0  0  0  0
   22.3344  -18.6091  -16.4048 C   0  0  2  0  0  0  0  0  0  0  0  0
   21.4137  -19.7625  -16.5333 N   0  0  0  0  0  0  0  0  0  0  0  0
   22.0776  -20.9818  -16.1423 C   0  0  0  0  0  0  0  0  0  0  0  0
   20.7093  -19.8484  -17.8090 O   0  0  0  0  0  0  0  0  0  0  0  0
   21.2889  -20.2453  -18.8436 O   0  0  0  0  0  0  0  0  0  0  0  0
  2  3  2  0
  2  1  1  0
  4  2  1  0
  5  4  1  0
  6  7  1  0
  6  5  1  0
  8 10  1  0
  8  7  1  0
  8  9  1  6
 10 12  1  0
 11 10  2  0
 12 13  1  0
 13 19  1  0
 13 14  1  1
 15 14  1  0
 16 17  1  0
 16 15  1  0
 18 17  1  0
 19 20  2  0
 19 26  1  0
 22 21  1  1
 22 23  1  0
 24 22  1  0
 25 27  1  0
 25 24  1  1
 26 25  1  0
 27 29  1  0
 28 27  2  0
M  END
$$$$
