RKL.pdb
     RDKit          3D

 29 28  0  0  1  0  0  0  0  0999 V2000
   34.3849  -25.2997  -13.5967 N   0  0  0  0  0  0  0  0  0  0  0  0
   34.2050  -25.8811  -14.9082 C   0  0  0  0  0  0  0  0  0  0  0  0
   34.9601  -26.8532  -15.2910 N   0  0  0  0  0  0  0  0  0  0  0  0
   33.2070  -25.3967  -15.7817 N   0  0  0  0  0  0  0  0  0  0  0  0
   32.6137  -24.0568  -15.6114 C   0  0  0  0  0  0  0  0  0  0  0  0
   31.7478  -24.0190  -14.3834 C   0  0  0  0  0  0  0  0  0  0  0  0
   30.9005  -22.8279  -14.3161 C   0  0  0  0  0  0  0  0  0  0  0  0
   29.5336  -22.8487  -14.8875 C   0  0  2  0  0  0  0  0  0  0  0  0
   29.3494  -22.8415  -16.2671 N   0  0  0  0  0  0  0  0  0  0  0  0
   28.7055  -21.8488  -14.2006 C   0  0  0  0  0  0  0  0  0  0  0  0
   29.2734  -20.9236  -13.5740 O   0  0  0  0  0  0  0  0  0  0  0  0
   34.8701  -27.2867  -16.2217 N   0  0  0  0  0  0  0  0  0  0  0  0
   27.3034  -21.9095  -14.2309 C   0  0  1  0  0  0  0  0  0  0  0  0
   26.4919  -20.8992  -13.5642 C   0  0  0  0  0  0  0  0  0  0  0  0
   25.2673  -20.6650  -14.3891 C   0  0  0  0  0  0  0  0  0  0  0  0
   24.9049  -19.2092  -14.5478 C   0  0  0  0  0  0  0  0  0  0  0  0
   25.1012  -18.8871  -16.0367 C   0  0  0  0  0  0  0  0  0  0  0  0
   24.7929  -17.4019  -16.2079 N   0  0  0  0  0  0  0  0  0  0  0  0
   24.9681  -17.1202  -17.6354 C   0  0  0  0  0  0  0  0  0  0  0  0
   26.1878  -21.3349  -12.1811 O   0  0  0  0  0  0  0  0  0  0  0  0
   25.8668  -22.5149  -11.9033 C   0  0  0  0  0  0  0  0  0  0  0  0
   28.1725  -18.7700   -7.5034 C   0  0  2  0  0  0  0  0  0  0  0  0
   27.8805  -19.8006   -8.6189 C   0  0  0  0  0  0  0  0  0  0  0  0
   28.5479  -21.0634   -8.2007 C   0  0  0  0  0  0  0  0  0  0  0  0
   26.4091  -19.8236   -8.7559 C   0  0  2  0  0  0  0  0  0  0  0  0
   25.8031  -20.7470   -9.7433 N   0  0  0  0  0  0  0  0  0  0  0  0
   26.2458  -20.4188  -11.0762 C   0  0  0  0  0  0  0  0  0  0  0  0
   24.3590  -20.9194   -9.6188 O   0  0  0  0  0  0  0  0  0  0  0  0
   23.5783  -20.5037  -10.5029 O   0  0  0  0  0  0  0  0  0  0  0  0
  2  3  2  0
  2  1  1  0
  4  2  1  0
  5  4  1  0
  6  7  1  0
  6  5  1  0
  8 10  1  0
  8  7  1  0
  8  9  1  6
 10 12  1  0
 11 10  2  0
 12 13  1  0
 13 19  1  0
 13 14  1  1
 15 14  1  0
 16 17  1  0
 16 15  1  0
 18 17  1  0
 19 20  2  0
 19 26  1  0
 22 21  1  6
 22 23  1  0
 24 22  1  0
 25 27  1  0
 25 24  1  1
 26 25  1  0
 27 29  1  0
 28 27  2  0
M  END
$$$$
