RKL.pdb
     RDKit          3D

 29 28  0  0  1  0  0  0  0  0999 V2000
   48.1414  -11.6855   -5.9041 N   0  0  0  0  0  0  0  0  0  0  0  0
   47.5583  -13.0049   -5.8062 C   0  0  0  0  0  0  0  0  0  0  0  0
   48.0578  -13.8712   -4.9926 N   0  0  0  0  0  0  0  0  0  0  0  0
   46.4416  -13.3608   -6.5935 N   0  0  0  0  0  0  0  0  0  0  0  0
   45.7715  -12.3835   -7.4722 C   0  0  0  0  0  0  0  0  0  0  0  0
   45.1137  -11.3076   -6.6543 C   0  0  0  0  0  0  0  0  0  0  0  0
   44.3396  -10.3654   -7.4631 C   0  0  0  0  0  0  0  0  0  0  0  0
   42.8644  -10.4809   -7.5394 C   0  0  2  0  0  0  0  0  0  0  0  0
   42.2465  -11.7145   -7.3555 N   0  0  0  0  0  0  0  0  0  0  0  0
   42.3845   -9.7804   -8.7379 C   0  0  0  0  0  0  0  0  0  0  0  0
   42.8124   -8.6260   -8.9732 O   0  0  0  0  0  0  0  0  0  0  0  0
   47.6415  -14.8044   -4.8582 N   0  0  0  0  0  0  0  0  0  0  0  0
   41.4635  -10.3728   -9.6161 C   0  0  1  0  0  0  0  0  0  0  0  0
   40.9629   -9.6524  -10.7798 C   0  0  0  0  0  0  0  0  0  0  0  0
   40.8254  -10.6246  -11.9072 C   0  0  0  0  0  0  0  0  0  0  0  0
   40.2749  -10.0189  -13.1745 C   0  0  0  0  0  0  0  0  0  0  0  0
   40.2830  -11.1466  -14.2173 C   0  0  0  0  0  0  0  0  0  0  0  0
   39.7469  -10.5473  -15.5148 N   0  0  0  0  0  0  0  0  0  0  0  0
   39.7006  -11.6529  -16.4756 C   0  0  0  0  0  0  0  0  0  0  0  0
   39.6911   -8.9730  -10.4383 O   0  0  0  0  0  0  0  0  0  0  0  0
   38.7440   -9.5660   -9.8693 C   0  0  0  0  0  0  0  0  0  0  0  0
   37.0811   -6.8222   -6.6756 C   0  0  2  0  0  0  0  0  0  0  0  0
   37.0932   -6.2777   -8.1230 C   0  0  0  0  0  0  0  0  0  0  0  0
   37.2307   -4.8002   -8.0082 C   0  0  0  0  0  0  0  0  0  0  0  0
   38.1793   -7.0093   -8.8080 C   0  0  1  0  0  0  0  0  0  0  0  0
   38.3430   -6.8304  -10.2695 N   0  0  0  0  0  0  0  0  0  0  0  0
   39.4758   -7.5862  -10.7447 C   0  0  0  0  0  0  0  0  0  0  0  0
   38.3151   -5.4444  -10.7267 O   0  0  0  0  0  0  0  0  0  0  0  0
   39.3232   -4.7105  -10.6316 O   0  0  0  0  0  0  0  0  0  0  0  0
  2  3  2  0
  2  1  1  0
  4  2  1  0
  5  4  1  0
  6  7  1  0
  6  5  1  0
  8 10  1  0
  8  7  1  0
  8  9  1  6
 10 12  1  0
 11 10  2  0
 12 13  1  0
 13 19  1  0
 13 14  1  6
 15 14  1  0
 16 17  1  0
 16 15  1  0
 18 17  1  0
 19 20  2  0
 19 26  1  0
 22 21  1  1
 22 23  1  0
 24 22  1  0
 25 27  1  0
 25 24  1  6
 26 25  1  0
 27 29  1  0
 28 27  2  0
M  END
$$$$
