RKL.pdb
     RDKit          3D

 29 28  0  0  1  0  0  0  0  0999 V2000
   30.4519  -23.9621  -17.9483 N   0  0  0  0  0  0  0  0  0  0  0  0
   29.1654  -24.3886  -17.4447 C   0  0  0  0  0  0  0  0  0  0  0  0
   29.0716  -25.4718  -16.7522 N   0  0  0  0  0  0  0  0  0  0  0  0
   28.0023  -23.6304  -17.7016 N   0  0  0  0  0  0  0  0  0  0  0  0
   28.0508  -22.3801  -18.4832 C   0  0  0  0  0  0  0  0  0  0  0  0
   28.6981  -21.2856  -17.6819 C   0  0  0  0  0  0  0  0  0  0  0  0
   27.7697  -20.6179  -16.7689 C   0  0  0  0  0  0  0  0  0  0  0  0
   28.0467  -20.5823  -15.3139 C   0  0  2  0  0  0  0  0  0  0  0  0
   28.4958  -21.7242  -14.6568 N   0  0  0  0  0  0  0  0  0  0  0  0
   26.9238  -19.9359  -14.6221 C   0  0  0  0  0  0  0  0  0  0  0  0
   26.3088  -19.0118  -15.2043 O   0  0  0  0  0  0  0  0  0  0  0  0
   28.1664  -25.8377  -16.4223 N   0  0  0  0  0  0  0  0  0  0  0  0
   26.5305  -20.3285  -13.3331 C   0  0  2  0  0  0  0  0  0  0  0  0
   25.2295  -20.9415  -13.0973 C   0  0  0  0  0  0  0  0  0  0  0  0
   25.0921  -22.1132  -14.0156 C   0  0  0  0  0  0  0  0  0  0  0  0
   23.8086  -22.8852  -13.8356 C   0  0  0  0  0  0  0  0  0  0  0  0
   24.1557  -24.3522  -14.1298 C   0  0  0  0  0  0  0  0  0  0  0  0
   22.8694  -25.1526  -13.9433 N   0  0  0  0  0  0  0  0  0  0  0  0
   22.0827  -24.9325  -15.1600 C   0  0  0  0  0  0  0  0  0  0  0  0
   25.0999  -21.3046  -11.6666 O   0  0  0  0  0  0  0  0  0  0  0  0
   24.0506  -21.8003  -11.1913 C   0  0  0  0  0  0  0  0  0  0  0  0
   27.8096  -20.6473   -6.6100 C   0  0  2  0  0  0  0  0  0  0  0  0
   26.8166  -19.6843   -7.3015 C   0  0  0  0  0  0  0  0  0  0  0  0
   27.2002  -18.3131   -6.8683 C   0  0  0  0  0  0  0  0  0  0  0  0
   26.9121  -19.9920   -8.7439 C   0  0  1  0  0  0  0  0  0  0  0  0
   26.0013  -21.0124   -9.3131 N   0  0  0  0  0  0  0  0  0  0  0  0
   26.1805  -21.1054  -10.7413 C   0  0  0  0  0  0  0  0  0  0  0  0
   24.6084  -20.8974   -8.8919 O   0  0  0  0  0  0  0  0  0  0  0  0
   23.8239  -20.1046   -9.4576 O   0  0  0  0  0  0  0  0  0  0  0  0
  2  3  2  0
  2  1  1  0
  4  2  1  0
  5  4  1  0
  6  7  1  0
  6  5  1  0
  8 10  1  0
  8  7  1  0
  8  9  1  1
 10 12  1  0
 11 10  2  0
 12 13  1  0
 13 19  1  0
 13 14  1  6
 15 14  1  0
 16 17  1  0
 16 15  1  0
 18 17  1  0
 19 20  2  0
 19 26  1  0
 22 21  1  1
 22 23  1  0
 24 22  1  0
 25 27  1  0
 25 24  1  1
 26 25  1  0
 27 29  1  0
 28 27  2  0
M  END
$$$$
