HAE.pdb
     RDKit          3D

 25 25  0  0  1  0  0  0  0  0999 V2000
   23.4026  -10.6170  -17.2196 N   0  0  0  0  0  0  0  0  0  0  0  0
   23.2611   -9.4334  -16.4013 C   0  0  1  0  0  0  0  0  0  0  0  0
   24.5254   -8.5991  -16.6287 C   0  0  0  0  0  0  0  0  0  0  0  0
   25.7046   -9.3637  -16.1740 C   0  0  0  0  0  0  0  0  0  0  0  0
   25.7149  -10.3090  -15.1835 C   0  0  0  0  0  0  0  0  0  0  0  0
   27.0010  -10.7594  -15.0922 N   0  0  0  0  0  0  0  0  0  0  0  0
   27.7676  -10.1202  -15.9914 C   0  0  0  0  0  0  0  0  0  0  0  0
   26.9507   -9.2606  -16.6524 N   0  0  0  0  0  0  0  0  0  0  0  0
   22.1305   -8.5753  -16.8500 C   0  0  0  0  0  0  0  0  0  0  0  0
   22.0534   -8.2923  -18.0758 O   0  0  0  0  0  0  0  0  0  0  0  0
   18.7722   -8.0817  -16.1941 C   0  0  0  0  0  0  0  0  0  0  0  0
   20.0322   -7.2801  -16.4968 C   0  0  2  0  0  0  0  0  0  0  0  0
   21.1424   -8.0589  -16.0005 N   0  0  0  0  0  0  0  0  0  0  0  0
   19.9120   -5.9719  -15.8142 C   0  0  0  0  0  0  0  0  0  0  0  0
   20.2785   -5.7644  -14.6331 O   0  0  0  0  0  0  0  0  0  0  0  0
   19.3524   -4.8904  -16.5301 N   0  0  0  0  0  0  0  0  0  0  0  0
   19.2843   -3.5301  -15.8775 C   0  0  1  0  0  0  0  0  0  0  0  0
   18.9570   -2.6427  -17.0268 C   0  0  0  0  0  0  0  0  0  0  0  0
   18.7718   -1.2117  -16.7708 C   0  0  0  0  0  0  0  0  0  0  0  0
   18.4294   -0.4105  -17.9426 C   0  0  0  0  0  0  0  0  0  0  0  0
   18.4174   -0.9322  -19.0991 O   0  0  0  0  0  0  0  0  0  0  0  0
   18.2308   -3.5637  -14.8571 C   0  0  0  0  0  0  0  0  0  0  0  0
   17.2675   -4.3417  -14.8292 O   0  0  0  0  0  0  0  0  0  0  0  0
   18.1061    0.9298  -17.8200 O   0  0  0  0  0  0  0  0  0  0  0  0
   18.3316   -2.6133  -13.8074 O   0  0  0  0  0  0  0  0  0  0  0  0
  2  1  1  6
  2  9  1  0
  3  4  1  0
  3  2  1  0
  4  8  1  0
  4  5  2  0
  5  6  1  0
  7  6  1  0
  8  7  2  0
  9 13  1  0
  9 10  2  0
 12 11  1  1
 12 14  1  0
 13 12  1  0
 14 16  1  0
 14 15  2  0
 16 17  1  0
 17 22  1  0
 17 18  1  6
 19 20  1  0
 19 18  1  0
 20 24  1  0
 21 20  2  0
 22 25  1  0
 23 22  2  0
M  END
$$$$
