HAE.pdb
     RDKit          3D

 25 25  0  0  1  0  0  0  0  0999 V2000
   19.5894  -11.2124  -19.3750 N   0  0  0  0  0  0  0  0  0  0  0  0
   20.8192  -10.8911  -18.6859 C   0  0  1  0  0  0  0  0  0  0  0  0
   21.7162  -10.1895  -19.7102 C   0  0  0  0  0  0  0  0  0  0  0  0
   22.1522  -11.1662  -20.7290 C   0  0  0  0  0  0  0  0  0  0  0  0
   23.2225  -12.0133  -20.6223 C   0  0  0  0  0  0  0  0  0  0  0  0
   23.2607  -12.7360  -21.7805 N   0  0  0  0  0  0  0  0  0  0  0  0
   22.2525  -12.3558  -22.5828 C   0  0  0  0  0  0  0  0  0  0  0  0
   21.5763  -11.3844  -21.9177 N   0  0  0  0  0  0  0  0  0  0  0  0
   20.6068   -9.8996  -17.5959 C   0  0  0  0  0  0  0  0  0  0  0  0
   19.8204   -8.9394  -17.8152 O   0  0  0  0  0  0  0  0  0  0  0  0
   21.4781   -9.6158  -13.9992 C   0  0  0  0  0  0  0  0  0  0  0  0
   20.9143   -9.0227  -15.2847 C   0  0  2  0  0  0  0  0  0  0  0  0
   21.2228   -9.9608  -16.3384 N   0  0  0  0  0  0  0  0  0  0  0  0
   21.5572   -7.7062  -15.4965 C   0  0  0  0  0  0  0  0  0  0  0  0
   22.6427   -7.5489  -16.1042 O   0  0  0  0  0  0  0  0  0  0  0  0
   20.9152   -6.5560  -14.9863 N   0  0  0  0  0  0  0  0  0  0  0  0
   21.5280   -5.1980  -15.2337 C   0  0  1  0  0  0  0  0  0  0  0  0
   20.3281   -4.3373  -15.4198 C   0  0  0  0  0  0  0  0  0  0  0  0
   20.5260   -2.8968  -15.6021 C   0  0  0  0  0  0  0  0  0  0  0  0
   19.3051   -2.1241  -15.8136 C   0  0  0  0  0  0  0  0  0  0  0  0
   18.1776   -2.7032  -15.8716 O   0  0  0  0  0  0  0  0  0  0  0  0
   22.3223   -4.8325  -14.0557 C   0  0  0  0  0  0  0  0  0  0  0  0
   22.1943   -5.3006  -12.9162 O   0  0  0  0  0  0  0  0  0  0  0  0
   19.3475   -0.7473  -15.9500 O   0  0  0  0  0  0  0  0  0  0  0  0
   23.3292   -3.8503  -14.2474 O   0  0  0  0  0  0  0  0  0  0  0  0
  2  1  1  6
  2  9  1  0
  3  4  1  0
  3  2  1  0
  4  8  1  0
  4  5  2  0
  5  6  1  0
  7  6  1  0
  8  7  2  0
  9 13  1  0
  9 10  2  0
 12 11  1  1
 12 14  1  0
 13 12  1  0
 14 16  1  0
 14 15  2  0
 16 17  1  0
 17 22  1  0
 17 18  1  1
 19 20  1  0
 19 18  1  0
 20 24  1  0
 21 20  2  0
 22 25  1  0
 23 22  2  0
M  END
$$$$
