HAE.pdb
     RDKit          3D

 25 25  0  0  1  0  0  0  0  0999 V2000
   19.6699  -12.5056  -17.8663 N   0  0  0  0  0  0  0  0  0  0  0  0
   20.6400  -11.4714  -18.1486 C   0  0  1  0  0  0  0  0  0  0  0  0
   19.9742  -10.5167  -19.1442 C   0  0  0  0  0  0  0  0  0  0  0  0
   19.7893  -11.2082  -20.4364 C   0  0  0  0  0  0  0  0  0  0  0  0
   20.7798  -11.5190  -21.3291 C   0  0  0  0  0  0  0  0  0  0  0  0
   20.1719  -12.1494  -22.3771 N   0  0  0  0  0  0  0  0  0  0  0  0
   18.8504  -12.2301  -22.1498 C   0  0  0  0  0  0  0  0  0  0  0  0
   18.6302  -11.6436  -20.9453 N   0  0  0  0  0  0  0  0  0  0  0  0
   20.9440  -10.6468  -16.9471 C   0  0  0  0  0  0  0  0  0  0  0  0
   19.9795  -10.1071  -16.3411 O   0  0  0  0  0  0  0  0  0  0  0  0
   23.9343   -9.8296  -14.8915 C   0  0  0  0  0  0  0  0  0  0  0  0
   22.4719   -9.6233  -15.2669 C   0  0  2  0  0  0  0  0  0  0  0  0
   22.2329  -10.4287  -16.4415 N   0  0  0  0  0  0  0  0  0  0  0  0
   22.2691   -8.1794  -15.5232 C   0  0  0  0  0  0  0  0  0  0  0  0
   22.5922   -7.6077  -16.5915 O   0  0  0  0  0  0  0  0  0  0  0  0
   21.6777   -7.3944  -14.5086 N   0  0  0  0  0  0  0  0  0  0  0  0
   21.4866   -5.9139  -14.7383 C   0  0  1  0  0  0  0  0  0  0  0  0
   20.0040   -5.7831  -14.7486 C   0  0  0  0  0  0  0  0  0  0  0  0
   19.2823   -6.1365  -15.9740 C   0  0  0  0  0  0  0  0  0  0  0  0
   17.8388   -5.9200  -15.9290 C   0  0  0  0  0  0  0  0  0  0  0  0
   17.1529   -5.9240  -16.9963 O   0  0  0  0  0  0  0  0  0  0  0  0
   22.1211   -5.1927  -13.6295 C   0  0  0  0  0  0  0  0  0  0  0  0
   22.4664   -5.6810  -12.5449 O   0  0  0  0  0  0  0  0  0  0  0  0
   17.1864   -5.7116  -14.7261 O   0  0  0  0  0  0  0  0  0  0  0  0
   22.3582   -3.8068  -13.8253 O   0  0  0  0  0  0  0  0  0  0  0  0
  2  1  1  1
  2  9  1  0
  3  4  1  0
  3  2  1  0
  4  8  1  0
  4  5  2  0
  5  6  1  0
  7  6  1  0
  8  7  2  0
  9 13  1  0
  9 10  2  0
 12 11  1  6
 12 14  1  0
 13 12  1  0
 14 16  1  0
 14 15  2  0
 16 17  1  0
 17 22  1  0
 17 18  1  1
 19 20  1  0
 19 18  1  0
 20 24  1  0
 21 20  2  0
 22 25  1  0
 23 22  2  0
M  END
$$$$
