HAE.pdb
     RDKit          3D

 25 25  0  0  1  0  0  0  0  0999 V2000
   16.8411  -17.6480    4.4916 N   0  0  0  0  0  0  0  0  0  0  0  0
   16.9554  -16.8946    5.7203 C   0  0  1  0  0  0  0  0  0  0  0  0
   15.8169  -17.3731    6.6264 C   0  0  0  0  0  0  0  0  0  0  0  0
   14.5331  -16.8493    6.1170 C   0  0  0  0  0  0  0  0  0  0  0  0
   14.3633  -15.6877    5.4124 C   0  0  0  0  0  0  0  0  0  0  0  0
   13.0280  -15.5907    5.1427 N   0  0  0  0  0  0  0  0  0  0  0  0
   12.3854  -16.6514    5.6591 C   0  0  0  0  0  0  0  0  0  0  0  0
   13.3305  -17.4202    6.2582 N   0  0  0  0  0  0  0  0  0  0  0  0
   18.2106  -17.2110    6.4556 C   0  0  0  0  0  0  0  0  0  0  0  0
   18.6344  -18.3974    6.4183 O   0  0  0  0  0  0  0  0  0  0  0  0
   20.8125  -15.3385    8.3409 C   0  0  0  0  0  0  0  0  0  0  0  0
   20.1575  -16.6424    7.9017 C   0  0  2  0  0  0  0  0  0  0  0  0
   18.9560  -16.2774    7.1884 N   0  0  0  0  0  0  0  0  0  0  0  0
   19.8715  -17.4378    9.1170 C   0  0  0  0  0  0  0  0  0  0  0  0
   18.8206  -17.3277    9.7923 O   0  0  0  0  0  0  0  0  0  0  0  0
   20.8351  -18.3772    9.5463 N   0  0  0  0  0  0  0  0  0  0  0  0
   20.5417  -19.2357   10.7537 C   0  0  1  0  0  0  0  0  0  0  0  0
   20.7952  -20.6082   10.2366 C   0  0  0  0  0  0  0  0  0  0  0  0
   20.6453  -21.7380   11.1578 C   0  0  0  0  0  0  0  0  0  0  0  0
   20.8874  -23.0534   10.5717 C   0  0  0  0  0  0  0  0  0  0  0  0
   21.2560  -23.1625    9.3626 O   0  0  0  0  0  0  0  0  0  0  0  0
   21.4618  -18.8455   11.8277 C   0  0  0  0  0  0  0  0  0  0  0  0
   22.5916  -18.3601   11.6793 O   0  0  0  0  0  0  0  0  0  0  0  0
   20.7264  -24.2073   11.3190 O   0  0  0  0  0  0  0  0  0  0  0  0
   21.0081  -19.0459   13.1579 O   0  0  0  0  0  0  0  0  0  0  0  0
  2  1  1  6
  2  9  1  0
  3  4  1  0
  3  2  1  0
  4  8  1  0
  4  5  2  0
  5  6  1  0
  7  6  1  0
  8  7  2  0
  9 13  1  0
  9 10  2  0
 12 11  1  1
 12 14  1  0
 13 12  1  0
 14 16  1  0
 14 15  2  0
 16 17  1  0
 17 22  1  0
 17 18  1  6
 19 20  1  0
 19 18  1  0
 20 24  1  0
 21 20  2  0
 22 25  1  0
 23 22  2  0
M  END
$$$$
