HAE.pdb
     RDKit          3D

 25 25  0  0  1  0  0  0  0  0999 V2000
   14.2899  -21.0889    4.3454 N   0  0  0  0  0  0  0  0  0  0  0  0
   15.6863  -21.3490    4.0753 C   0  0  1  0  0  0  0  0  0  0  0  0
   16.4779  -20.2763    4.8296 C   0  0  0  0  0  0  0  0  0  0  0  0
   16.3046  -18.9744    4.1535 C   0  0  0  0  0  0  0  0  0  0  0  0
   15.4167  -17.9958    4.5122 C   0  0  0  0  0  0  0  0  0  0  0  0
   15.5915  -16.9714    3.6260 N   0  0  0  0  0  0  0  0  0  0  0  0
   16.5524  -17.2961    2.7451 C   0  0  0  0  0  0  0  0  0  0  0  0
   16.9832  -18.5379    3.0853 N   0  0  0  0  0  0  0  0  0  0  0  0
   16.1333  -22.6496    4.6453 C   0  0  0  0  0  0  0  0  0  0  0  0
   15.9594  -22.8457    5.8781 O   0  0  0  0  0  0  0  0  0  0  0  0
   17.8806  -25.7007    3.4132 C   0  0  0  0  0  0  0  0  0  0  0  0
   17.2130  -24.8908    4.5179 C   0  0  2  0  0  0  0  0  0  0  0  0
   16.7359  -23.6744    3.9029 N   0  0  0  0  0  0  0  0  0  0  0  0
   18.2261  -24.6324    5.5659 C   0  0  0  0  0  0  0  0  0  0  0  0
   18.8571  -23.5544    5.6764 O   0  0  0  0  0  0  0  0  0  0  0  0
   18.5027  -25.6563    6.4989 N   0  0  0  0  0  0  0  0  0  0  0  0
   19.5033  -25.3998    7.6008 C   0  0  1  0  0  0  0  0  0  0  0  0
   18.8640  -24.2891    8.3577 C   0  0  0  0  0  0  0  0  0  0  0  0
   19.4843  -23.8540    9.6121 C   0  0  0  0  0  0  0  0  0  0  0  0
   18.8068  -22.7526   10.2906 C   0  0  0  0  0  0  0  0  0  0  0  0
   17.5500  -22.7771   10.4628 O   0  0  0  0  0  0  0  0  0  0  0  0
   19.6419  -26.6294    8.3890 C   0  0  0  0  0  0  0  0  0  0  0  0
   20.5348  -26.8706    9.2126 O   0  0  0  0  0  0  0  0  0  0  0  0
   19.5165  -21.6630   10.7647 O   0  0  0  0  0  0  0  0  0  0  0  0
   18.6572  -27.6311    8.1830 O   0  0  0  0  0  0  0  0  0  0  0  0
  2  1  1  1
  2  9  1  0
  3  4  1  0
  3  2  1  0
  4  8  1  0
  4  5  2  0
  5  6  1  0
  7  6  1  0
  8  7  2  0
  9 13  1  0
  9 10  2  0
 12 11  1  6
 12 14  1  0
 13 12  1  0
 14 16  1  0
 14 15  2  0
 16 17  1  0
 17 22  1  0
 17 18  1  1
 19 20  1  0
 19 18  1  0
 20 24  1  0
 21 20  2  0
 22 25  1  0
 23 22  2  0
M  END
$$$$
