HAE.pdb
     RDKit          3D

 25 25  0  0  1  0  0  0  0  0999 V2000
   23.8844  -14.1371  -18.0308 N   0  0  0  0  0  0  0  0  0  0  0  0
   23.6005  -13.5226  -16.7532 C   0  0  1  0  0  0  0  0  0  0  0  0
   24.9276  -12.9499  -16.2464 C   0  0  0  0  0  0  0  0  0  0  0  0
   25.8595  -14.0584  -15.9553 C   0  0  0  0  0  0  0  0  0  0  0  0
   25.8318  -14.8595  -14.8453 C   0  0  0  0  0  0  0  0  0  0  0  0
   26.8624  -15.7453  -14.9818 N   0  0  0  0  0  0  0  0  0  0  0  0
   27.5115  -15.5078  -16.1337 C   0  0  0  0  0  0  0  0  0  0  0  0
   26.8787  -14.4617  -16.7240 N   0  0  0  0  0  0  0  0  0  0  0  0
   22.6863  -12.3551  -16.8851 C   0  0  0  0  0  0  0  0  0  0  0  0
   23.0630  -11.3870  -17.5988 O   0  0  0  0  0  0  0  0  0  0  0  0
   19.3219  -11.3720  -15.6198 C   0  0  0  0  0  0  0  0  0  0  0  0
   20.6061  -11.0789  -16.3859 C   0  0  2  0  0  0  0  0  0  0  0  0
   21.4314  -12.2581  -16.2684 N   0  0  0  0  0  0  0  0  0  0  0  0
   21.2364   -9.8870  -15.7748 C   0  0  0  0  0  0  0  0  0  0  0  0
   22.3800   -9.8883  -15.2604 O   0  0  0  0  0  0  0  0  0  0  0  0
   20.5122   -8.6743  -15.7675 N   0  0  0  0  0  0  0  0  0  0  0  0
   21.2160   -7.3969  -15.3750 C   0  0  1  0  0  0  0  0  0  0  0  0
   22.2763   -7.2867  -16.4137 C   0  0  0  0  0  0  0  0  0  0  0  0
   23.0301   -6.0335  -16.5089 C   0  0  0  0  0  0  0  0  0  0  0  0
   24.0949   -6.0237  -17.5081 C   0  0  0  0  0  0  0  0  0  0  0  0
   23.9310   -5.4331  -18.6190 O   0  0  0  0  0  0  0  0  0  0  0  0
   20.2411   -6.3018  -15.4282 C   0  0  0  0  0  0  0  0  0  0  0  0
   19.2841   -6.2150  -16.2095 O   0  0  0  0  0  0  0  0  0  0  0  0
   25.3049   -6.6508  -17.2666 O   0  0  0  0  0  0  0  0  0  0  0  0
   20.4178   -5.2473  -14.4943 O   0  0  0  0  0  0  0  0  0  0  0  0
  2  1  1  6
  2  9  1  0
  3  4  1  0
  3  2  1  0
  4  8  1  0
  4  5  2  0
  5  6  1  0
  7  6  1  0
  8  7  2  0
  9 13  1  0
  9 10  2  0
 12 11  1  1
 12 14  1  0
 13 12  1  0
 14 16  1  0
 14 15  2  0
 16 17  1  0
 17 22  1  0
 17 18  1  6
 19 20  1  0
 19 18  1  0
 20 24  1  0
 21 20  2  0
 22 25  1  0
 23 22  2  0
M  END
$$$$
