HAE.pdb
     RDKit          3D

 25 25  0  0  1  0  0  0  0  0999 V2000
   18.2646  -14.2198  -18.8188 N   0  0  0  0  0  0  0  0  0  0  0  0
   17.8191  -13.8296  -17.4999 C   0  0  1  0  0  0  0  0  0  0  0  0
   18.7367  -14.5475  -16.5055 C   0  0  0  0  0  0  0  0  0  0  0  0
   18.4545  -15.9971  -16.5380 C   0  0  0  0  0  0  0  0  0  0  0  0
   17.2722  -16.5925  -16.1881 C   0  0  0  0  0  0  0  0  0  0  0  0
   17.4472  -17.9350  -16.3679 N   0  0  0  0  0  0  0  0  0  0  0  0
   18.6923  -18.1718  -16.8133 C   0  0  0  0  0  0  0  0  0  0  0  0
   19.3021  -16.9629  -16.9133 N   0  0  0  0  0  0  0  0  0  0  0  0
   18.0190  -12.3758  -17.2495 C   0  0  0  0  0  0  0  0  0  0  0  0
   19.1339  -11.8717  -17.5517 O   0  0  0  0  0  0  0  0  0  0  0  0
   15.9640   -9.4695  -16.2014 C   0  0  0  0  0  0  0  0  0  0  0  0
   17.3176  -10.1360  -16.4150 C   0  0  2  0  0  0  0  0  0  0  0  0
   17.0494  -11.5262  -16.6994 N   0  0  0  0  0  0  0  0  0  0  0  0
   18.1111   -9.9570  -15.1781 C   0  0  0  0  0  0  0  0  0  0  0  0
   18.1489  -10.7943  -14.2455 O   0  0  0  0  0  0  0  0  0  0  0  0
   18.8722   -8.7757  -15.0343 N   0  0  0  0  0  0  0  0  0  0  0  0
   19.5213   -8.4736  -13.7044 C   0  0  1  0  0  0  0  0  0  0  0  0
   20.5728   -7.4897  -14.0807 C   0  0  0  0  0  0  0  0  0  0  0  0
   21.3751   -6.8857  -13.0134 C   0  0  0  0  0  0  0  0  0  0  0  0
   22.3506   -5.8932  -13.4556 C   0  0  0  0  0  0  0  0  0  0  0  0
   22.6497   -5.7861  -14.6839 O   0  0  0  0  0  0  0  0  0  0  0  0
   18.4999   -7.9129  -12.8130 C   0  0  0  0  0  0  0  0  0  0  0  0
   17.4577   -7.3439  -13.1652 O   0  0  0  0  0  0  0  0  0  0  0  0
   22.9656   -5.0456  -12.5505 O   0  0  0  0  0  0  0  0  0  0  0  0
   18.7349   -8.0380  -11.4186 O   0  0  0  0  0  0  0  0  0  0  0  0
  2  1  1  6
  2  9  1  0
  3  4  1  0
  3  2  1  0
  4  8  1  0
  4  5  2  0
  5  6  1  0
  7  6  1  0
  8  7  2  0
  9 13  1  0
  9 10  2  0
 12 11  1  1
 12 14  1  0
 13 12  1  0
 14 16  1  0
 14 15  2  0
 16 17  1  0
 17 22  1  0
 17 18  1  6
 19 20  1  0
 19 18  1  0
 20 24  1  0
 21 20  2  0
 22 25  1  0
 23 22  2  0
M  END
$$$$
