HAE.pdb
     RDKit          3D

 25 25  0  0  1  0  0  0  0  0999 V2000
   20.7312  -14.3017  -16.8051 N   0  0  0  0  0  0  0  0  0  0  0  0
   19.9316  -13.2272  -17.3496 C   0  0  1  0  0  0  0  0  0  0  0  0
   18.8121  -12.9678  -16.3370 C   0  0  0  0  0  0  0  0  0  0  0  0
   17.8615  -14.0983  -16.3583 C   0  0  0  0  0  0  0  0  0  0  0  0
   16.9301  -14.3454  -17.3308 C   0  0  0  0  0  0  0  0  0  0  0  0
   16.2720  -15.4819  -16.9563 N   0  0  0  0  0  0  0  0  0  0  0  0
   16.7721  -15.9299  -15.7926 C   0  0  0  0  0  0  0  0  0  0  0  0
   17.7544  -15.0631  -15.4363 N   0  0  0  0  0  0  0  0  0  0  0  0
   20.6942  -11.9517  -17.4371 C   0  0  0  0  0  0  0  0  0  0  0  0
   21.3133  -11.5615  -16.4108 O   0  0  0  0  0  0  0  0  0  0  0  0
   21.9422   -9.7237  -20.0841 C   0  0  0  0  0  0  0  0  0  0  0  0
   21.5531   -9.9385  -18.6265 C   0  0  2  0  0  0  0  0  0  0  0  0
   20.7717  -11.1523  -18.5858 N   0  0  0  0  0  0  0  0  0  0  0  0
   20.7800   -8.7558  -18.1848 C   0  0  0  0  0  0  0  0  0  0  0  0
   19.5647   -8.5810  -18.4396 O   0  0  0  0  0  0  0  0  0  0  0  0
   21.4449   -7.7625  -17.4320 N   0  0  0  0  0  0  0  0  0  0  0  0
   20.6726   -6.5528  -16.9618 C   0  0  1  0  0  0  0  0  0  0  0  0
   20.7968   -6.6524  -15.4819 C   0  0  0  0  0  0  0  0  0  0  0  0
   19.8657   -7.5257  -14.7623 C   0  0  0  0  0  0  0  0  0  0  0  0
   20.1739   -7.7328  -13.3500 C   0  0  0  0  0  0  0  0  0  0  0  0
   21.2239   -7.2358  -12.8399 O   0  0  0  0  0  0  0  0  0  0  0  0
   21.3154   -5.3556  -17.5147 C   0  0  0  0  0  0  0  0  0  0  0  0
   20.8443   -4.2101  -17.5166 O   0  0  0  0  0  0  0  0  0  0  0  0
   19.3295   -8.4683  -12.5364 O   0  0  0  0  0  0  0  0  0  0  0  0
   22.5961   -5.5345  -18.1003 O   0  0  0  0  0  0  0  0  0  0  0  0
  2  1  1  1
  2  9  1  0
  3  4  1  0
  3  2  1  0
  4  8  1  0
  4  5  2  0
  5  6  1  0
  7  6  1  0
  8  7  2  0
  9 13  1  0
  9 10  2  0
 12 11  1  6
 12 14  1  0
 13 12  1  0
 14 16  1  0
 14 15  2  0
 16 17  1  0
 17 22  1  0
 17 18  1  1
 19 20  1  0
 19 18  1  0
 20 24  1  0
 21 20  2  0
 22 25  1  0
 23 22  2  0
M  END
$$$$
