HAE.pdb
     RDKit          3D

 25 25  0  0  1  0  0  0  0  0999 V2000
   19.1682  -26.1673  -10.7847 N   0  0  0  0  0  0  0  0  0  0  0  0
   18.0886  -25.7639   -9.9116 C   0  0  1  0  0  0  0  0  0  0  0  0
   16.9220  -26.7128  -10.2026 C   0  0  0  0  0  0  0  0  0  0  0  0
   16.2125  -26.2583  -11.4159 C   0  0  0  0  0  0  0  0  0  0  0  0
   16.0599  -24.9581  -11.8166 C   0  0  0  0  0  0  0  0  0  0  0  0
   15.3469  -24.9933  -12.9809 N   0  0  0  0  0  0  0  0  0  0  0  0
   15.0632  -26.2676  -13.2976 C   0  0  0  0  0  0  0  0  0  0  0  0
   15.6058  -27.0376  -12.3198 N   0  0  0  0  0  0  0  0  0  0  0  0
   18.4232  -25.9713   -8.4760 C   0  0  0  0  0  0  0  0  0  0  0  0
   19.0855  -26.9978   -8.1657 O   0  0  0  0  0  0  0  0  0  0  0  0
   18.1387  -24.0361   -5.3174 C   0  0  0  0  0  0  0  0  0  0  0  0
   18.4408  -25.3262   -6.0700 C   0  0  2  0  0  0  0  0  0  0  0  0
   18.0517  -25.1006   -7.4423 N   0  0  0  0  0  0  0  0  0  0  0  0
   17.6625  -26.4139   -5.4354 C   0  0  0  0  0  0  0  0  0  0  0  0
   16.4981  -26.7303   -5.7767 O   0  0  0  0  0  0  0  0  0  0  0  0
   18.2612  -27.1415   -4.3830 N   0  0  0  0  0  0  0  0  0  0  0  0
   17.4979  -28.2772   -3.7437 C   0  0  1  0  0  0  0  0  0  0  0  0
   18.5873  -29.0897   -3.1366 C   0  0  0  0  0  0  0  0  0  0  0  0
   18.2254  -30.3187   -2.4252 C   0  0  0  0  0  0  0  0  0  0  0  0
   19.3523  -31.1041   -1.9295 C   0  0  0  0  0  0  0  0  0  0  0  0
   19.1547  -32.1721   -1.2737 O   0  0  0  0  0  0  0  0  0  0  0  0
   16.5799  -27.7099   -2.7498 C   0  0  0  0  0  0  0  0  0  0  0  0
   15.5449  -28.2419   -2.3260 O   0  0  0  0  0  0  0  0  0  0  0  0
   20.6569  -30.7072   -2.1667 O   0  0  0  0  0  0  0  0  0  0  0  0
   16.9158  -26.4322   -2.2302 O   0  0  0  0  0  0  0  0  0  0  0  0
  2  1  1  6
  2  9  1  0
  3  4  1  0
  3  2  1  0
  4  8  1  0
  4  5  2  0
  5  6  1  0
  7  6  1  0
  8  7  2  0
  9 13  1  0
  9 10  2  0
 12 11  1  1
 12 14  1  0
 13 12  1  0
 14 16  1  0
 14 15  2  0
 16 17  1  0
 17 22  1  0
 17 18  1  1
 19 20  1  0
 19 18  1  0
 20 24  1  0
 21 20  2  0
 22 25  1  0
 23 22  2  0
M  END
$$$$
