HAE.pdb
     RDKit          3D

 25 25  0  0  1  0  0  0  0  0999 V2000
   22.2507  -14.1867  -19.7349 N   0  0  0  0  0  0  0  0  0  0  0  0
   22.2518  -12.9571  -20.4955 C   0  0  1  0  0  0  0  0  0  0  0  0
   20.8015  -12.4650  -20.5205 C   0  0  0  0  0  0  0  0  0  0  0  0
   19.9986  -13.3526  -21.3863 C   0  0  0  0  0  0  0  0  0  0  0  0
   19.1272  -14.3178  -20.9578 C   0  0  0  0  0  0  0  0  0  0  0  0
   18.6046  -14.8931  -22.0808 N   0  0  0  0  0  0  0  0  0  0  0  0
   19.1291  -14.3105  -23.1718 C   0  0  0  0  0  0  0  0  0  0  0  0
   19.9891  -13.3598  -22.7250 N   0  0  0  0  0  0  0  0  0  0  0  0
   23.0266  -11.8814  -19.8183 C   0  0  0  0  0  0  0  0  0  0  0  0
   22.8749  -11.7365  -18.5754 O   0  0  0  0  0  0  0  0  0  0  0  0
   25.5584   -9.3231  -20.7749 C   0  0  0  0  0  0  0  0  0  0  0  0
   24.5751   -9.9305  -19.7818 C   0  0  2  0  0  0  0  0  0  0  0  0
   23.9163  -11.0161  -20.4696 N   0  0  0  0  0  0  0  0  0  0  0  0
   23.6300   -8.8673  -19.3719 C   0  0  0  0  0  0  0  0  0  0  0  0
   22.6304   -8.5236  -20.0464 O   0  0  0  0  0  0  0  0  0  0  0  0
   23.8628   -8.1970  -18.1505 N   0  0  0  0  0  0  0  0  0  0  0  0
   22.9838   -7.0290  -17.7708 C   0  0  1  0  0  0  0  0  0  0  0  0
   22.5423   -7.3971  -16.3979 C   0  0  0  0  0  0  0  0  0  0  0  0
   21.7911   -6.4084  -15.6196 C   0  0  0  0  0  0  0  0  0  0  0  0
   21.2848   -6.8838  -14.3350 C   0  0  0  0  0  0  0  0  0  0  0  0
   21.2728   -8.1236  -14.0658 O   0  0  0  0  0  0  0  0  0  0  0  0
   23.8004   -5.8107  -17.8063 C   0  0  0  0  0  0  0  0  0  0  0  0
   23.3815   -4.6568  -17.9708 O   0  0  0  0  0  0  0  0  0  0  0  0
   20.8130   -5.9973  -13.3825 O   0  0  0  0  0  0  0  0  0  0  0  0
   25.1997   -5.9779  -17.6354 O   0  0  0  0  0  0  0  0  0  0  0  0
  2  1  1  1
  2  9  1  0
  3  4  1  0
  3  2  1  0
  4  8  1  0
  4  5  2  0
  5  6  1  0
  7  6  1  0
  8  7  2  0
  9 13  1  0
  9 10  2  0
 12 11  1  6
 12 14  1  0
 13 12  1  0
 14 16  1  0
 14 15  2  0
 16 17  1  0
 17 22  1  0
 17 18  1  1
 19 20  1  0
 19 18  1  0
 20 24  1  0
 21 20  2  0
 22 25  1  0
 23 22  2  0
M  END
$$$$
