HAE.pdb
     RDKit          3D

 25 25  0  0  1  0  0  0  0  0999 V2000
   18.1749  -12.4959  -16.0212 N   0  0  0  0  0  0  0  0  0  0  0  0
   19.3416  -11.9245  -16.6558 C   0  0  1  0  0  0  0  0  0  0  0  0
   18.8353  -11.1714  -17.8897 C   0  0  0  0  0  0  0  0  0  0  0  0
   18.3967  -12.1445  -18.9109 C   0  0  0  0  0  0  0  0  0  0  0  0
   19.0837  -12.4806  -20.0465 C   0  0  0  0  0  0  0  0  0  0  0  0
   18.3228  -13.4086  -20.6985 N   0  0  0  0  0  0  0  0  0  0  0  0
   17.2012  -13.6448  -19.9979 C   0  0  0  0  0  0  0  0  0  0  0  0
   17.2623  -12.8553  -18.8951 N   0  0  0  0  0  0  0  0  0  0  0  0
   19.9958  -10.8960  -15.8011 C   0  0  0  0  0  0  0  0  0  0  0  0
   19.2597  -10.1772  -15.0730 O   0  0  0  0  0  0  0  0  0  0  0  0
   23.4606   -9.9853  -14.8283 C   0  0  0  0  0  0  0  0  0  0  0  0
   21.9659   -9.6916  -14.8666 C   0  0  2  0  0  0  0  0  0  0  0  0
   21.3783  -10.6716  -15.7498 N   0  0  0  0  0  0  0  0  0  0  0  0
   21.7884   -8.3081  -15.3625 C   0  0  0  0  0  0  0  0  0  0  0  0
   21.8511   -7.9868  -16.5730 O   0  0  0  0  0  0  0  0  0  0  0  0
   21.5335   -7.2856  -14.4219 N   0  0  0  0  0  0  0  0  0  0  0  0
   21.4559   -5.8527  -14.8926 C   0  0  1  0  0  0  0  0  0  0  0  0
   19.9962   -5.5719  -14.8159 C   0  0  0  0  0  0  0  0  0  0  0  0
   19.5438   -4.1879  -14.9812 C   0  0  0  0  0  0  0  0  0  0  0  0
   18.0984   -3.9939  -14.9060 C   0  0  0  0  0  0  0  0  0  0  0  0
   17.3236   -4.9828  -14.7284 O   0  0  0  0  0  0  0  0  0  0  0  0
   22.2505   -5.0262  -13.9774 C   0  0  0  0  0  0  0  0  0  0  0  0
   22.8451   -3.9798  -14.2699 O   0  0  0  0  0  0  0  0  0  0  0  0
   17.5417   -2.7318  -15.0209 O   0  0  0  0  0  0  0  0  0  0  0  0
   22.3419   -5.4737  -12.6333 O   0  0  0  0  0  0  0  0  0  0  0  0
  2  1  1  1
  2  9  1  0
  3  4  1  0
  3  2  1  0
  4  8  1  0
  4  5  2  0
  5  6  1  0
  7  6  1  0
  8  7  2  0
  9 13  1  0
  9 10  2  0
 12 11  1  6
 12 14  1  0
 13 12  1  0
 14 16  1  0
 14 15  2  0
 16 17  1  0
 17 22  1  0
 17 18  1  1
 19 20  1  0
 19 18  1  0
 20 24  1  0
 21 20  2  0
 22 25  1  0
 23 22  2  0
M  END
$$$$
