YMI.pdb
     RDKit          3D

 29 29  0  0  1  0  0  0  0  0999 V2000
    8.5378  -22.1912   16.8444 O   0  0  0  0  0  0  0  0  0  0  0  0
    8.9040  -21.2890   17.8504 C   0  0  0  0  0  0  0  0  0  0  0  0
    7.9458  -20.5133   18.4685 C   0  0  0  0  0  0  0  0  0  0  0  0
    8.3263  -19.6262   19.4615 C   0  0  0  0  0  0  0  0  0  0  0  0
    9.6390  -19.4785   19.8698 C   0  0  0  0  0  0  0  0  0  0  0  0
    9.9562  -18.5154   20.9262 C   0  0  0  0  0  0  0  0  0  0  0  0
    9.7688  -17.0706   20.5287 C   0  0  2  0  0  0  0  0  0  0  0  0
   10.7800  -16.7417   19.5509 N   0  0  0  0  0  0  0  0  0  0  0  0
   10.0311  -16.2239   21.7424 C   0  0  0  0  0  0  0  0  0  0  0  0
   11.2127  -15.8532   22.0207 O   0  0  0  0  0  0  0  0  0  0  0  0
   10.5870  -20.2631   19.2410 C   0  0  0  0  0  0  0  0  0  0  0  0
   10.2093  -21.1454   18.2530 C   0  0  0  0  0  0  0  0  0  0  0  0
    5.0571  -13.0952   26.0727 C   0  0  0  0  0  0  0  0  0  0  0  0
    6.2070  -12.3694   24.9032 S   0  0  0  0  0  0  0  0  0  0  0  0
    7.8373  -13.2299   24.9611 C   0  0  0  0  0  0  0  0  0  0  0  0
    7.8959  -14.1991   23.8410 C   0  0  0  0  0  0  0  0  0  0  0  0
    9.1617  -15.0046   23.7178 C   0  0  2  0  0  0  0  0  0  0  0  0
    8.9252  -15.8683   22.5426 N   0  0  0  0  0  0  0  0  0  0  0  0
    9.5196  -15.8047   24.8821 C   0  0  0  0  0  0  0  0  0  0  0  0
    9.2161  -17.0257   24.9151 O   0  0  0  0  0  0  0  0  0  0  0  0
   10.4815  -14.0645   30.0348 C   0  0  0  0  0  0  0  0  0  0  0  0
   10.7044  -14.0749   28.5707 C   0  0  0  0  0  0  0  0  0  0  0  0
   11.4317  -15.2287   27.9935 C   0  0  2  0  0  0  0  0  0  0  0  0
   12.7784  -14.8047   27.5058 C   0  0  0  0  0  0  0  0  0  0  0  0
   10.6870  -16.1478   27.0866 C   0  0  2  0  0  0  0  0  0  0  0  0
   10.2045  -15.2649   25.9859 N   0  0  0  0  0  0  0  0  0  0  0  0
    9.5217  -16.8253   27.6579 C   0  0  0  0  0  0  0  0  0  0  0  0
    8.3637  -16.4397   27.3867 O   0  0  0  0  0  0  0  0  0  0  0  0
    9.6395  -17.9101   28.5125 O   0  0  0  0  0  0  0  0  0  0  0  0
  1  2  1  0
  2  3  2  0
  3  4  1  0
  5  4  2  0
  5  6  1  0
  7  6  1  0
  7  8  1  6
  9  7  1  0
 10  9  2  0
 11  5  1  0
 12  2  1  0
 12 11  2  0
 14 15  1  0
 14 13  1  0
 17 16  1  1
 16 15  1  0
 17 18  1  0
 18  9  1  0
 19 26  1  0
 19 17  1  0
 20 19  2  0
 22 21  1  0
 22 23  1  0
 23 24  1  6
 25 23  1  0
 25 26  1  6
 27 25  1  0
 27 29  1  0
 28 27  2  0
M  END
$$$$
