YMI.pdb
     RDKit          3D

 29 29  0  0  1  0  0  0  0  0999 V2000
    9.3938  -19.6659   28.2180 O   0  0  0  0  0  0  0  0  0  0  0  0
    8.4089  -19.3154   27.2868 C   0  0  0  0  0  0  0  0  0  0  0  0
    7.9206  -18.0263   27.2459 C   0  0  0  0  0  0  0  0  0  0  0  0
    6.9464  -17.6977   26.3181 C   0  0  0  0  0  0  0  0  0  0  0  0
    6.4323  -18.6121   25.4175 C   0  0  0  0  0  0  0  0  0  0  0  0
    5.4017  -18.1823   24.4703 C   0  0  0  0  0  0  0  0  0  0  0  0
    5.5899  -18.7039   23.0656 C   0  0  2  0  0  0  0  0  0  0  0  0
    6.0191  -20.0804   23.1542 N   0  0  0  0  0  0  0  0  0  0  0  0
    6.7117  -17.9275   22.4351 C   0  0  0  0  0  0  0  0  0  0  0  0
    7.0766  -18.1817   21.2463 O   0  0  0  0  0  0  0  0  0  0  0  0
    6.9321  -19.8994   25.4711 C   0  0  0  0  0  0  0  0  0  0  0  0
    7.9008  -20.2271   26.3938 C   0  0  0  0  0  0  0  0  0  0  0  0
    8.1834  -12.2732   18.5899 C   0  0  0  0  0  0  0  0  0  0  0  0
    7.3522  -13.6215   19.4314 S   0  0  0  0  0  0  0  0  0  0  0  0
    8.4371  -14.3578   20.7284 C   0  0  0  0  0  0  0  0  0  0  0  0
    7.6559  -15.3758   21.4707 C   0  0  0  0  0  0  0  0  0  0  0  0
    8.3769  -16.0968   22.5782 C   0  0  2  0  0  0  0  0  0  0  0  0
    7.3286  -16.9238   23.2108 N   0  0  0  0  0  0  0  0  0  0  0  0
    9.0307  -15.2484   23.5664 C   0  0  0  0  0  0  0  0  0  0  0  0
   10.1066  -14.6655   23.2716 O   0  0  0  0  0  0  0  0  0  0  0  0
    6.0170  -12.2935   27.1216 C   0  0  0  0  0  0  0  0  0  0  0  0
    6.9384  -13.3998   26.7742 C   0  0  0  0  0  0  0  0  0  0  0  0
    8.1942  -13.0538   26.0695 C   0  0  2  0  0  0  0  0  0  0  0  0
    7.9086  -12.1724   24.8978 C   0  0  0  0  0  0  0  0  0  0  0  0
    9.1845  -14.1399   25.8220 C   0  0  2  0  0  0  0  0  0  0  0  0
    8.5013  -15.0450   24.8536 N   0  0  0  0  0  0  0  0  0  0  0  0
    9.5762  -14.9425   26.9822 C   0  0  0  0  0  0  0  0  0  0  0  0
    9.2724  -16.1533   27.0515 O   0  0  0  0  0  0  0  0  0  0  0  0
   10.2917  -14.4116   28.0440 O   0  0  0  0  0  0  0  0  0  0  0  0
  1  2  1  0
  2  3  2  0
  3  4  1  0
  5  4  2  0
  5  6  1  0
  7  6  1  0
  7  8  1  1
  9  7  1  0
 10  9  2  0
 11  5  1  0
 12  2  1  0
 12 11  2  0
 14 15  1  0
 14 13  1  0
 17 16  1  6
 16 15  1  0
 17 18  1  0
 18  9  1  0
 19 26  1  0
 19 17  1  0
 20 19  2  0
 22 21  1  0
 22 23  1  0
 23 24  1  6
 25 23  1  0
 25 26  1  6
 27 25  1  0
 27 29  1  0
 28 27  2  0
M  END
$$$$
