YMI.pdb
     RDKit          3D

 29 29  0  0  1  0  0  0  0  0999 V2000
    8.5015  -14.1919   14.1111 O   0  0  0  0  0  0  0  0  0  0  0  0
    8.2085  -14.1607   15.4798 C   0  0  0  0  0  0  0  0  0  0  0  0
    8.8087  -13.2252   16.2963 C   0  0  0  0  0  0  0  0  0  0  0  0
    8.5070  -13.2093   17.6478 C   0  0  0  0  0  0  0  0  0  0  0  0
    7.6201  -14.0980   18.2268 C   0  0  0  0  0  0  0  0  0  0  0  0
    7.3586  -14.0139   19.6650 C   0  0  0  0  0  0  0  0  0  0  0  0
    8.2548  -14.8847   20.5131 C   0  0  2  0  0  0  0  0  0  0  0  0
    8.0159  -16.2615   20.1470 N   0  0  0  0  0  0  0  0  0  0  0  0
    7.8275  -14.7242   21.9451 C   0  0  0  0  0  0  0  0  0  0  0  0
    6.7096  -14.1914   22.2233 O   0  0  0  0  0  0  0  0  0  0  0  0
    7.0269  -15.0288   17.3952 C   0  0  0  0  0  0  0  0  0  0  0  0
    7.3268  -15.0456   16.0509 C   0  0  0  0  0  0  0  0  0  0  0  0
    6.3318  -12.1631   25.7441 C   0  0  0  0  0  0  0  0  0  0  0  0
    6.0875  -13.8988   26.1243 S   0  0  0  0  0  0  0  0  0  0  0  0
    5.7488  -14.8679   24.5921 C   0  0  0  0  0  0  0  0  0  0  0  0
    6.9040  -15.7613   24.3374 C   0  0  0  0  0  0  0  0  0  0  0  0
    8.2648  -15.1177   24.3531 C   0  0  2  0  0  0  0  0  0  0  0  0
    8.7095  -15.1830   22.9457 N   0  0  0  0  0  0  0  0  0  0  0  0
    9.2479  -15.7354   25.2338 C   0  0  0  0  0  0  0  0  0  0  0  0
   10.1878  -16.4112   24.7400 O   0  0  0  0  0  0  0  0  0  0  0  0
   11.8714  -13.5205   30.0471 C   0  0  0  0  0  0  0  0  0  0  0  0
   11.1995  -14.7930   29.6966 C   0  0  0  0  0  0  0  0  0  0  0  0
   10.2307  -14.7740   28.5766 C   0  0  2  0  0  0  0  0  0  0  0  0
    8.8337  -14.6828   29.0974 C   0  0  0  0  0  0  0  0  0  0  0  0
   10.4305  -15.7372   27.4568 C   0  0  2  0  0  0  0  0  0  0  0  0
    9.1946  -15.6031   26.6333 N   0  0  0  0  0  0  0  0  0  0  0  0
   10.5693  -17.1472   27.8261 C   0  0  0  0  0  0  0  0  0  0  0  0
   11.6534  -17.5869   28.2669 O   0  0  0  0  0  0  0  0  0  0  0  0
    9.5248  -18.0508   27.7090 O   0  0  0  0  0  0  0  0  0  0  0  0
  1  2  1  0
  2  3  2  0
  3  4  1  0
  5  4  2  0
  5  6  1  0
  7  6  1  0
  7  8  1  6
  9  7  1  0
 10  9  2  0
 11  5  1  0
 12  2  1  0
 12 11  2  0
 14 15  1  0
 14 13  1  0
 17 16  1  6
 16 15  1  0
 17 18  1  0
 18  9  1  0
 19 26  1  0
 19 17  1  0
 20 19  2  0
 22 21  1  0
 22 23  1  0
 23 24  1  1
 25 23  1  0
 25 26  1  6
 27 25  1  0
 27 29  1  0
 28 27  2  0
M  END
$$$$
