YMI.pdb
     RDKit          3D

 29 29  0  0  1  0  0  0  0  0999 V2000
    6.9050  -12.4710   27.3998 O   0  0  0  0  0  0  0  0  0  0  0  0
    6.7268  -13.7858   26.9527 C   0  0  0  0  0  0  0  0  0  0  0  0
    5.8372  -14.0574   25.9346 C   0  0  0  0  0  0  0  0  0  0  0  0
    5.6739  -15.3639   25.5053 C   0  0  0  0  0  0  0  0  0  0  0  0
    6.3696  -16.4246   26.0554 C   0  0  0  0  0  0  0  0  0  0  0  0
    6.1357  -17.7765   25.5440 C   0  0  0  0  0  0  0  0  0  0  0  0
    6.1638  -17.8865   24.0381 C   0  0  2  0  0  0  0  0  0  0  0  0
    5.8955  -19.2615   23.6857 N   0  0  0  0  0  0  0  0  0  0  0  0
    7.5615  -17.5747   23.5821 C   0  0  0  0  0  0  0  0  0  0  0  0
    8.4612  -18.4692   23.6192 O   0  0  0  0  0  0  0  0  0  0  0  0
    7.2573  -16.1358   27.0744 C   0  0  0  0  0  0  0  0  0  0  0  0
    7.4201  -14.8366   27.5021 C   0  0  0  0  0  0  0  0  0  0  0  0
    8.6344  -11.9569   20.4736 C   0  0  0  0  0  0  0  0  0  0  0  0
    7.7604  -13.3021   19.6716 S   0  0  0  0  0  0  0  0  0  0  0  0
    7.7020  -14.7911   20.7583 C   0  0  0  0  0  0  0  0  0  0  0  0
    8.8814  -14.7631   21.6559 C   0  0  0  0  0  0  0  0  0  0  0  0
    9.1258  -15.9992   22.4796 C   0  0  2  0  0  0  0  0  0  0  0  0
    7.8221  -16.2673   23.1211 N   0  0  0  0  0  0  0  0  0  0  0  0
   10.1811  -15.8962   23.4794 C   0  0  0  0  0  0  0  0  0  0  0  0
   11.3646  -15.6729   23.1140 O   0  0  0  0  0  0  0  0  0  0  0  0
    9.2499  -14.2321   28.8202 C   0  0  0  0  0  0  0  0  0  0  0  0
    9.5078  -15.1946   27.7244 C   0  0  0  0  0  0  0  0  0  0  0  0
   10.6259  -14.9002   26.7989 C   0  0  2  0  0  0  0  0  0  0  0  0
   10.4681  -13.5375   26.2077 C   0  0  0  0  0  0  0  0  0  0  0  0
   11.0467  -15.9635   25.8429 C   0  0  2  0  0  0  0  0  0  0  0  0
    9.9302  -16.0324   24.8568 N   0  0  0  0  0  0  0  0  0  0  0  0
   11.2331  -17.3047   26.3996 C   0  0  0  0  0  0  0  0  0  0  0  0
   12.1330  -17.5273   27.2385 O   0  0  0  0  0  0  0  0  0  0  0  0
   10.4356  -18.3774   26.0328 O   0  0  0  0  0  0  0  0  0  0  0  0
  1  2  1  0
  2  3  2  0
  3  4  1  0
  5  4  2  0
  5  6  1  0
  7  6  1  0
  7  8  1  1
  9  7  1  0
 10  9  2  0
 11  5  1  0
 12  2  1  0
 12 11  2  0
 14 15  1  0
 14 13  1  0
 17 16  1  1
 16 15  1  0
 17 18  1  0
 18  9  1  0
 19 26  1  0
 19 17  1  0
 20 19  2  0
 22 21  1  0
 22 23  1  0
 23 24  1  6
 25 23  1  0
 25 26  1  6
 27 25  1  0
 27 29  1  0
 28 27  2  0
M  END
$$$$
