YMI.pdb
     RDKit          3D

 29 29  0  0  1  0  0  0  0  0999 V2000
    7.1712  -24.7285   19.1668 O   0  0  0  0  0  0  0  0  0  0  0  0
    7.6040  -23.4098   19.3509 C   0  0  0  0  0  0  0  0  0  0  0  0
    8.4172  -23.0894   20.4176 C   0  0  0  0  0  0  0  0  0  0  0  0
    8.8356  -21.7798   20.5840 C   0  0  0  0  0  0  0  0  0  0  0  0
    8.4727  -20.7631   19.7200 C   0  0  0  0  0  0  0  0  0  0  0  0
    8.9576  -19.4042   19.9698 C   0  0  0  0  0  0  0  0  0  0  0  0
    8.8310  -18.9515   21.4050 C   0  0  2  0  0  0  0  0  0  0  0  0
    7.4249  -18.8849   21.7298 N   0  0  0  0  0  0  0  0  0  0  0  0
    9.3753  -17.5535   21.4941 C   0  0  0  0  0  0  0  0  0  0  0  0
   10.5674  -17.3070   21.1350 O   0  0  0  0  0  0  0  0  0  0  0  0
    7.6578  -21.1004   18.6562 C   0  0  0  0  0  0  0  0  0  0  0  0
    7.2411  -22.4027   18.4902 C   0  0  0  0  0  0  0  0  0  0  0  0
    7.5756  -11.7294   20.0395 C   0  0  0  0  0  0  0  0  0  0  0  0
    7.4250  -13.2376   19.0806 S   0  0  0  0  0  0  0  0  0  0  0  0
    7.3820  -14.7170   20.1810 C   0  0  0  0  0  0  0  0  0  0  0  0
    7.9066  -14.3271   21.5115 C   0  0  0  0  0  0  0  0  0  0  0  0
    9.0308  -15.1648   22.0599 C   0  0  2  0  0  0  0  0  0  0  0  0
    8.5171  -16.5482   21.9866 N   0  0  0  0  0  0  0  0  0  0  0  0
    9.4567  -14.8441   23.4162 C   0  0  0  0  0  0  0  0  0  0  0  0
   10.5179  -14.1920   23.5973 O   0  0  0  0  0  0  0  0  0  0  0  0
    6.3150  -12.2001   26.0219 C   0  0  0  0  0  0  0  0  0  0  0  0
    7.5119  -12.9371   25.5551 C   0  0  0  0  0  0  0  0  0  0  0  0
    8.0565  -13.9945   26.4374 C   0  0  2  0  0  0  0  0  0  0  0  0
    8.2504  -13.4691   27.8223 C   0  0  0  0  0  0  0  0  0  0  0  0
    9.1667  -14.8423   25.9175 C   0  0  2  0  0  0  0  0  0  0  0  0
    8.7197  -15.2329   24.5495 N   0  0  0  0  0  0  0  0  0  0  0  0
    9.4526  -16.0708   26.6608 C   0  0  0  0  0  0  0  0  0  0  0  0
   10.0557  -16.0279   27.7552 O   0  0  0  0  0  0  0  0  0  0  0  0
    9.0757  -17.3220   26.1988 O   0  0  0  0  0  0  0  0  0  0  0  0
  1  2  1  0
  2  3  2  0
  3  4  1  0
  5  4  2  0
  5  6  1  0
  7  6  1  0
  7  8  1  6
  9  7  1  0
 10  9  2  0
 11  5  1  0
 12  2  1  0
 12 11  2  0
 14 15  1  0
 14 13  1  0
 17 16  1  1
 16 15  1  0
 17 18  1  0
 18  9  1  0
 19 26  1  0
 19 17  1  0
 20 19  2  0
 22 21  1  0
 22 23  1  0
 23 24  1  1
 25 23  1  0
 25 26  1  6
 27 25  1  0
 27 29  1  0
 28 27  2  0
M  END
$$$$
