YMI.pdb
     RDKit          3D

 29 29  0  0  1  0  0  0  0  0999 V2000
    6.5758  -12.5701   16.6314 O   0  0  0  0  0  0  0  0  0  0  0  0
    7.0189  -13.3516   17.7053 C   0  0  0  0  0  0  0  0  0  0  0  0
    8.2462  -13.1037   18.2834 C   0  0  0  0  0  0  0  0  0  0  0  0
    8.6682  -13.8869   19.3446 C   0  0  0  0  0  0  0  0  0  0  0  0
    7.9079  -14.9201   19.8606 C   0  0  0  0  0  0  0  0  0  0  0  0
    8.4298  -15.7014   20.9836 C   0  0  0  0  0  0  0  0  0  0  0  0
    9.7698  -15.2330   21.4990 C   0  0  2  0  0  0  0  0  0  0  0  0
   10.7947  -16.0346   20.8713 N   0  0  0  0  0  0  0  0  0  0  0  0
    9.8198  -15.5211   22.9732 C   0  0  0  0  0  0  0  0  0  0  0  0
   10.5937  -16.4208   23.4234 O   0  0  0  0  0  0  0  0  0  0  0  0
    6.6807  -15.1555   19.2706 C   0  0  0  0  0  0  0  0  0  0  0  0
    6.2604  -14.3772   18.2147 C   0  0  0  0  0  0  0  0  0  0  0  0
    5.9667  -11.9548   26.3745 C   0  0  0  0  0  0  0  0  0  0  0  0
    7.0520  -12.3192   27.7551 S   0  0  0  0  0  0  0  0  0  0  0  0
    8.2643  -13.6362   27.3109 C   0  0  0  0  0  0  0  0  0  0  0  0
    8.2546  -13.8050   25.8382 C   0  0  0  0  0  0  0  0  0  0  0  0
    9.2529  -14.7775   25.2689 C   0  0  2  0  0  0  0  0  0  0  0  0
    8.9827  -14.7610   23.8164 N   0  0  0  0  0  0  0  0  0  0  0  0
    9.1827  -16.1362   25.7911 C   0  0  0  0  0  0  0  0  0  0  0  0
    8.1439  -16.8218   25.6041 O   0  0  0  0  0  0  0  0  0  0  0  0
   12.0387  -19.9206   24.3143 C   0  0  0  0  0  0  0  0  0  0  0  0
   10.9967  -19.1078   24.9832 C   0  0  0  0  0  0  0  0  0  0  0  0
   11.1097  -18.9136   26.4470 C   0  0  2  0  0  0  0  0  0  0  0  0
   11.4191  -20.2096   27.1224 C   0  0  0  0  0  0  0  0  0  0  0  0
   10.0849  -18.0711   27.1263 C   0  0  2  0  0  0  0  0  0  0  0  0
   10.2437  -16.7263   26.5018 N   0  0  0  0  0  0  0  0  0  0  0  0
   10.2286  -17.9098   28.5744 C   0  0  0  0  0  0  0  0  0  0  0  0
    9.7422  -18.7513   29.3608 O   0  0  0  0  0  0  0  0  0  0  0  0
   10.8997  -16.8361   29.1382 O   0  0  0  0  0  0  0  0  0  0  0  0
  1  2  1  0
  2  3  2  0
  3  4  1  0
  5  4  2  0
  5  6  1  0
  7  6  1  0
  7  8  1  6
  9  7  1  0
 10  9  2  0
 11  5  1  0
 12  2  1  0
 12 11  2  0
 14 15  1  0
 14 13  1  0
 17 16  1  1
 16 15  1  0
 17 18  1  0
 18  9  1  0
 19 26  1  0
 19 17  1  0
 20 19  2  0
 22 21  1  0
 22 23  1  0
 23 24  1  1
 25 23  1  0
 25 26  1  6
 27 25  1  0
 27 29  1  0
 28 27  2  0
M  END
$$$$
