YMI.pdb
     RDKit          3D

 29 29  0  0  1  0  0  0  0  0999 V2000
   15.8021  -21.8540   20.2518 O   0  0  0  0  0  0  0  0  0  0  0  0
   14.9072  -20.7824   20.3572 C   0  0  0  0  0  0  0  0  0  0  0  0
   13.8372  -20.8553   21.2242 C   0  0  0  0  0  0  0  0  0  0  0  0
   12.9622  -19.7858   21.3152 C   0  0  0  0  0  0  0  0  0  0  0  0
   13.1115  -18.6315   20.5688 C   0  0  0  0  0  0  0  0  0  0  0  0
   12.1392  -17.5477   20.7242 C   0  0  0  0  0  0  0  0  0  0  0  0
   10.7577  -17.8711   20.2069 C   0  0  2  0  0  0  0  0  0  0  0  0
   10.7393  -17.6061   18.7870 N   0  0  0  0  0  0  0  0  0  0  0  0
    9.7923  -16.9161   20.8507 C   0  0  0  0  0  0  0  0  0  0  0  0
    9.6048  -15.7635   20.3532 O   0  0  0  0  0  0  0  0  0  0  0  0
   14.1887  -18.5740   19.7051 C   0  0  0  0  0  0  0  0  0  0  0  0
   15.0592  -19.6375   19.6137 C   0  0  0  0  0  0  0  0  0  0  0  0
    4.5973  -15.2263   20.5006 C   0  0  0  0  0  0  0  0  0  0  0  0
    4.5894  -16.8697   21.2190 S   0  0  0  0  0  0  0  0  0  0  0  0
    6.3004  -17.5493   21.3293 C   0  0  0  0  0  0  0  0  0  0  0  0
    6.8617  -17.1935   22.6543 C   0  0  0  0  0  0  0  0  0  0  0  0
    8.1576  -16.4274   22.6490 C   0  0  2  0  0  0  0  0  0  0  0  0
    9.1185  -17.3509   22.0111 N   0  0  0  0  0  0  0  0  0  0  0  0
    8.6445  -15.9966   23.9533 C   0  0  0  0  0  0  0  0  0  0  0  0
    9.6711  -16.5355   24.4432 O   0  0  0  0  0  0  0  0  0  0  0  0
    6.2049  -11.4732   25.8536 C   0  0  0  0  0  0  0  0  0  0  0  0
    7.3523  -12.3549   25.5379 C   0  0  0  0  0  0  0  0  0  0  0  0
    7.6337  -13.4761   26.4636 C   0  0  2  0  0  0  0  0  0  0  0  0
    7.8757  -12.9629   27.8455 C   0  0  0  0  0  0  0  0  0  0  0  0
    8.5671  -14.5460   26.0099 C   0  0  2  0  0  0  0  0  0  0  0  0
    8.0107  -14.9856   24.6981 N   0  0  0  0  0  0  0  0  0  0  0  0
    8.6718  -15.7275   26.8682 C   0  0  0  0  0  0  0  0  0  0  0  0
    9.6092  -15.8389   27.6880 O   0  0  0  0  0  0  0  0  0  0  0  0
    7.7534  -16.7644   26.8180 O   0  0  0  0  0  0  0  0  0  0  0  0
  1  2  1  0
  2  3  2  0
  3  4  1  0
  5  4  2  0
  5  6  1  0
  7  6  1  0
  7  8  1  6
  9  7  1  0
 10  9  2  0
 11  5  1  0
 12  2  1  0
 12 11  2  0
 14 15  1  0
 14 13  1  0
 17 16  1  1
 16 15  1  0
 17 18  1  0
 18  9  1  0
 19 26  1  0
 19 17  1  0
 20 19  2  0
 22 21  1  0
 22 23  1  0
 23 24  1  1
 25 23  1  0
 25 26  1  6
 27 25  1  0
 27 29  1  0
 28 27  2  0
M  END
$$$$
