YMI.pdb
     RDKit          3D

 29 29  0  0  1  0  0  0  0  0999 V2000
   11.6402  -22.5821   17.5514 O   0  0  0  0  0  0  0  0  0  0  0  0
   11.5346  -21.5315   18.4708 C   0  0  0  0  0  0  0  0  0  0  0  0
   12.6586  -20.8315   18.8560 C   0  0  0  0  0  0  0  0  0  0  0  0
   12.5352  -19.7953   19.7665 C   0  0  0  0  0  0  0  0  0  0  0  0
   11.3222  -19.4226   20.3157 C   0  0  0  0  0  0  0  0  0  0  0  0
   11.2799  -18.3162   21.2737 C   0  0  0  0  0  0  0  0  0  0  0  0
   10.4292  -17.1469   20.8380 C   0  0  2  0  0  0  0  0  0  0  0  0
   11.2022  -16.3535   19.9107 N   0  0  0  0  0  0  0  0  0  0  0  0
   10.1708  -16.2926   22.0472 C   0  0  0  0  0  0  0  0  0  0  0  0
   10.9958  -15.3867   22.3786 O   0  0  0  0  0  0  0  0  0  0  0  0
   10.2055  -20.1336   19.9192 C   0  0  0  0  0  0  0  0  0  0  0  0
   10.3275  -21.1645   19.0140 C   0  0  0  0  0  0  0  0  0  0  0  0
    6.3525  -12.1751   26.4185 C   0  0  0  0  0  0  0  0  0  0  0  0
    7.0485  -13.0593   25.0219 S   0  0  0  0  0  0  0  0  0  0  0  0
    6.5742  -14.8410   25.0668 C   0  0  0  0  0  0  0  0  0  0  0  0
    7.1949  -15.5209   23.9050 C   0  0  0  0  0  0  0  0  0  0  0  0
    8.6928  -15.6673   23.9364 C   0  0  2  0  0  0  0  0  0  0  0  0
    8.9929  -16.5401   22.7826 N   0  0  0  0  0  0  0  0  0  0  0  0
    9.2496  -16.2241   25.1627 C   0  0  0  0  0  0  0  0  0  0  0  0
    9.2169  -17.4679   25.3522 O   0  0  0  0  0  0  0  0  0  0  0  0
    9.9506  -13.0645   29.8569 C   0  0  0  0  0  0  0  0  0  0  0  0
    9.6150  -14.1462   28.9026 C   0  0  0  0  0  0  0  0  0  0  0  0
   10.7363  -14.8698   28.2605 C   0  0  2  0  0  0  0  0  0  0  0  0
   11.7250  -13.9031   27.6955 C   0  0  0  0  0  0  0  0  0  0  0  0
   10.4144  -16.0339   27.3870 C   0  0  2  0  0  0  0  0  0  0  0  0
    9.8357  -15.4202   26.1572 N   0  0  0  0  0  0  0  0  0  0  0  0
    9.4376  -16.9911   27.9094 C   0  0  0  0  0  0  0  0  0  0  0  0
    8.2391  -16.9352   27.5575 O   0  0  0  0  0  0  0  0  0  0  0  0
    9.7845  -17.9914   28.8040 O   0  0  0  0  0  0  0  0  0  0  0  0
  1  2  1  0
  2  3  2  0
  3  4  1  0
  5  4  2  0
  5  6  1  0
  7  6  1  0
  7  8  1  6
  9  7  1  0
 10  9  2  0
 11  5  1  0
 12  2  1  0
 12 11  2  0
 14 15  1  0
 14 13  1  0
 17 16  1  1
 16 15  1  0
 17 18  1  0
 18  9  1  0
 19 26  1  0
 19 17  1  0
 20 19  2  0
 22 21  1  0
 22 23  1  0
 23 24  1  6
 25 23  1  0
 25 26  1  6
 27 25  1  0
 27 29  1  0
 28 27  2  0
M  END
$$$$
