YMI.pdb
     RDKit          3D

 29 29  0  0  1  0  0  0  0  0999 V2000
    7.1941  -19.5837   16.3565 O   0  0  0  0  0  0  0  0  0  0  0  0
    7.7297  -18.8795   17.4416 C   0  0  0  0  0  0  0  0  0  0  0  0
    7.5420  -19.3401   18.7279 C   0  0  0  0  0  0  0  0  0  0  0  0
    8.0789  -18.6306   19.7890 C   0  0  0  0  0  0  0  0  0  0  0  0
    8.8050  -17.4662   19.6193 C   0  0  0  0  0  0  0  0  0  0  0  0
    9.3365  -16.7759   20.7961 C   0  0  0  0  0  0  0  0  0  0  0  0
    8.5568  -15.5484   21.2035 C   0  0  2  0  0  0  0  0  0  0  0  0
    8.5211  -14.6472   20.0750 N   0  0  0  0  0  0  0  0  0  0  0  0
    9.3235  -14.8610   22.2982 C   0  0  0  0  0  0  0  0  0  0  0  0
    9.6536  -13.6412   22.1794 O   0  0  0  0  0  0  0  0  0  0  0  0
    8.9844  -17.0181   18.3244 C   0  0  0  0  0  0  0  0  0  0  0  0
    8.4503  -17.7231   17.2685 C   0  0  0  0  0  0  0  0  0  0  0  0
    7.2321  -11.9788   26.6538 C   0  0  0  0  0  0  0  0  0  0  0  0
    6.2105  -13.0654   25.6577 S   0  0  0  0  0  0  0  0  0  0  0  0
    7.1391  -13.6781   24.1866 C   0  0  0  0  0  0  0  0  0  0  0  0
    7.6185  -15.0512   24.4733 C   0  0  0  0  0  0  0  0  0  0  0  0
    9.0918  -15.2037   24.7423 C   0  0  2  0  0  0  0  0  0  0  0  0
    9.6536  -15.6197   23.4406 N   0  0  0  0  0  0  0  0  0  0  0  0
    9.4502  -16.1552   25.7864 C   0  0  0  0  0  0  0  0  0  0  0  0
    8.5533  -16.6267   26.5329 O   0  0  0  0  0  0  0  0  0  0  0  0
   10.3989  -13.6194   29.4514 C   0  0  0  0  0  0  0  0  0  0  0  0
   10.2312  -14.9029   28.7316 C   0  0  0  0  0  0  0  0  0  0  0  0
   11.3799  -15.4049   27.9432 C   0  0  2  0  0  0  0  0  0  0  0  0
   11.8606  -14.3548   26.9958 C   0  0  0  0  0  0  0  0  0  0  0  0
   11.2977  -16.7818   27.3783 C   0  0  2  0  0  0  0  0  0  0  0  0
   10.7745  -16.5802   25.9964 N   0  0  0  0  0  0  0  0  0  0  0  0
   10.4012  -17.7153   28.0625 C   0  0  0  0  0  0  0  0  0  0  0  0
    9.1785  -17.7321   27.8015 O   0  0  0  0  0  0  0  0  0  0  0  0
   10.8531  -18.6130   29.0170 O   0  0  0  0  0  0  0  0  0  0  0  0
  1  2  1  0
  2  3  2  0
  3  4  1  0
  5  4  2  0
  5  6  1  0
  7  6  1  0
  7  8  1  6
  9  7  1  0
 10  9  2  0
 11  5  1  0
 12  2  1  0
 12 11  2  0
 14 15  1  0
 14 13  1  0
 17 16  1  6
 16 15  1  0
 17 18  1  0
 18  9  1  0
 19 26  1  0
 19 17  1  0
 20 19  2  0
 22 21  1  0
 22 23  1  0
 23 24  1  6
 25 23  1  0
 25 26  1  6
 27 25  1  0
 27 29  1  0
 28 27  2  0
M  END
$$$$
