YMI.pdb
     RDKit          3D

 29 29  0  0  1  0  0  0  0  0999 V2000
    6.5877  -14.1245   15.3052 O   0  0  0  0  0  0  0  0  0  0  0  0
    7.0194  -14.4399   16.5992 C   0  0  0  0  0  0  0  0  0  0  0  0
    7.5401  -15.6875   16.8717 C   0  0  0  0  0  0  0  0  0  0  0  0
    7.9620  -15.9818   18.1575 C   0  0  0  0  0  0  0  0  0  0  0  0
    7.8862  -15.0724   19.1962 C   0  0  0  0  0  0  0  0  0  0  0  0
    8.3528  -15.4655   20.5273 C   0  0  0  0  0  0  0  0  0  0  0  0
    9.4479  -14.5893   21.0874 C   0  0  2  0  0  0  0  0  0  0  0  0
   10.7064  -15.0453   20.5441 N   0  0  0  0  0  0  0  0  0  0  0  0
    9.4977  -14.8117   22.5730 C   0  0  0  0  0  0  0  0  0  0  0  0
   10.4952  -15.3934   23.0998 O   0  0  0  0  0  0  0  0  0  0  0  0
    7.3624  -13.8268   18.9068 C   0  0  0  0  0  0  0  0  0  0  0  0
    6.9422  -13.5334   17.6283 C   0  0  0  0  0  0  0  0  0  0  0  0
    9.0150  -12.7781   28.7530 C   0  0  0  0  0  0  0  0  0  0  0  0
    7.8512  -12.3076   27.4720 S   0  0  0  0  0  0  0  0  0  0  0  0
    7.0135  -13.7910   26.7652 C   0  0  0  0  0  0  0  0  0  0  0  0
    7.2298  -13.7973   25.2987 C   0  0  0  0  0  0  0  0  0  0  0  0
    8.4913  -14.4581   24.8106 C   0  0  2  0  0  0  0  0  0  0  0  0
    8.4055  -14.3539   23.3393 N   0  0  0  0  0  0  0  0  0  0  0  0
    8.6796  -15.8442   25.2193 C   0  0  0  0  0  0  0  0  0  0  0  0
    7.7630  -16.6826   25.0168 O   0  0  0  0  0  0  0  0  0  0  0  0
   13.1403  -18.3304   24.0501 C   0  0  0  0  0  0  0  0  0  0  0  0
   11.7519  -17.9846   24.4328 C   0  0  0  0  0  0  0  0  0  0  0  0
   11.3873  -18.0857   25.8646 C   0  0  2  0  0  0  0  0  0  0  0  0
   11.8984  -19.3645   26.4435 C   0  0  0  0  0  0  0  0  0  0  0  0
   10.0002  -17.7156   26.2655 C   0  0  2  0  0  0  0  0  0  0  0  0
    9.8615  -16.2945   25.8352 N   0  0  0  0  0  0  0  0  0  0  0  0
    9.6955  -17.7799   27.6960 C   0  0  0  0  0  0  0  0  0  0  0  0
    9.1171  -18.7770   28.1803 O   0  0  0  0  0  0  0  0  0  0  0  0
   10.0270  -16.7580   28.5718 O   0  0  0  0  0  0  0  0  0  0  0  0
  1  2  1  0
  2  3  2  0
  3  4  1  0
  5  4  2  0
  5  6  1  0
  7  6  1  0
  7  8  1  6
  9  7  1  0
 10  9  2  0
 11  5  1  0
 12  2  1  0
 12 11  2  0
 14 15  1  0
 14 13  1  0
 17 16  1  1
 16 15  1  0
 17 18  1  0
 18  9  1  0
 19 26  1  0
 19 17  1  0
 20 19  2  0
 22 21  1  0
 22 23  1  0
 23 24  1  6
 25 23  1  0
 25 26  1  1
 27 25  1  0
 27 29  1  0
 28 27  2  0
M  END
$$$$
