YMI.pdb
     RDKit          3D

 29 29  0  0  1  0  0  0  0  0999 V2000
   13.4258  -19.3192   24.5764 O   0  0  0  0  0  0  0  0  0  0  0  0
   12.0527  -19.5606   24.4482 C   0  0  0  0  0  0  0  0  0  0  0  0
   11.3717  -20.2351   25.4397 C   0  0  0  0  0  0  0  0  0  0  0  0
   10.0137  -20.4650   25.2958 C   0  0  0  0  0  0  0  0  0  0  0  0
    9.2967  -20.0448   24.1908 C   0  0  0  0  0  0  0  0  0  0  0  0
    7.8627  -20.3309   24.1166 C   0  0  0  0  0  0  0  0  0  0  0  0
    7.0499  -19.7377   25.2428 C   0  0  2  0  0  0  0  0  0  0  0  0
    5.8813  -20.5650   25.4339 N   0  0  0  0  0  0  0  0  0  0  0  0
    6.5698  -18.3848   24.7980 C   0  0  0  0  0  0  0  0  0  0  0  0
    5.7192  -18.2839   23.8613 O   0  0  0  0  0  0  0  0  0  0  0  0
    9.9935  -19.3701   23.2064 C   0  0  0  0  0  0  0  0  0  0  0  0
   11.3443  -19.1414   23.3486 C   0  0  0  0  0  0  0  0  0  0  0  0
    6.3659  -10.8371   26.8967 C   0  0  0  0  0  0  0  0  0  0  0  0
    6.6651  -12.5754   27.2217 S   0  0  0  0  0  0  0  0  0  0  0  0
    6.7451  -13.5358   25.6492 C   0  0  0  0  0  0  0  0  0  0  0  0
    6.8959  -14.9719   25.9840 C   0  0  0  0  0  0  0  0  0  0  0  0
    6.9208  -15.9311   24.8240 C   0  0  2  0  0  0  0  0  0  0  0  0
    7.0986  -17.2548   25.4559 N   0  0  0  0  0  0  0  0  0  0  0  0
    7.9562  -15.6926   23.8266 C   0  0  0  0  0  0  0  0  0  0  0  0
    8.9957  -16.4022   23.8269 O   0  0  0  0  0  0  0  0  0  0  0  0
    7.8854  -12.3922   18.5439 C   0  0  0  0  0  0  0  0  0  0  0  0
    8.3593  -13.5763   19.2968 C   0  0  0  0  0  0  0  0  0  0  0  0
    7.9844  -13.6784   20.7259 C   0  0  2  0  0  0  0  0  0  0  0  0
    8.2840  -12.3988   21.4360 C   0  0  0  0  0  0  0  0  0  0  0  0
    8.3575  -14.9182   21.4645 C   0  0  2  0  0  0  0  0  0  0  0  0
    7.8407  -14.6917   22.8449 N   0  0  0  0  0  0  0  0  0  0  0  0
    9.7883  -15.2111   21.5666 C   0  0  0  0  0  0  0  0  0  0  0  0
   10.4554  -15.4936   20.5476 O   0  0  0  0  0  0  0  0  0  0  0  0
   10.4653  -15.1899   22.7759 O   0  0  0  0  0  0  0  0  0  0  0  0
  1  2  1  0
  2  3  2  0
  3  4  1  0
  5  4  2  0
  5  6  1  0
  7  6  1  0
  7  8  1  6
  9  7  1  0
 10  9  2  0
 11  5  1  0
 12  2  1  0
 12 11  2  0
 14 15  1  0
 14 13  1  0
 17 16  1  1
 16 15  1  0
 17 18  1  0
 18  9  1  0
 19 26  1  0
 19 17  1  0
 20 19  2  0
 22 21  1  0
 22 23  1  0
 23 24  1  1
 25 23  1  0
 25 26  1  1
 27 25  1  0
 27 29  1  0
 28 27  2  0
M  END
$$$$
