FDT.pdb
     RDKit          3D

 27 27  0  0  1  0  0  0  0  0999 V2000
   28.2681  -11.3584  -17.5551 N   0  0  0  0  0  0  0  0  0  0  0  0
   27.8314  -10.0015  -17.4215 C   0  0  1  0  0  0  0  0  0  0  0  0
   28.4637   -9.0969  -18.4775 C   0  0  0  0  0  0  0  0  0  0  0  0
   29.9441   -9.1200  -18.3662 C   0  0  0  0  0  0  0  0  0  0  0  0
   30.6660   -8.1844  -17.6557 C   0  0  0  0  0  0  0  0  0  0  0  0
   32.0473   -8.2289  -17.5681 C   0  0  0  0  0  0  0  0  0  0  0  0
   32.7474   -9.2247  -18.1984 C   0  0  0  0  0  0  0  0  0  0  0  0
   32.0632  -10.1728  -18.9143 C   0  0  0  0  0  0  0  0  0  0  0  0
   30.6846  -10.1214  -18.9969 C   0  0  0  0  0  0  0  0  0  0  0  0
   26.3579   -9.8677  -17.4157 C   0  0  0  0  0  0  0  0  0  0  0  0
   25.6094  -10.5954  -18.1168 O   0  0  0  0  0  0  0  0  0  0  0  0
   25.7248   -8.8933  -16.6021 N   0  0  0  0  0  0  0  0  0  0  0  0
   24.3206   -8.6861  -16.5285 C   0  0  1  0  0  0  0  0  0  0  0  0
   23.7784   -9.0477  -15.1891 C   0  0  0  0  0  0  0  0  0  0  0  0
   22.3109   -8.9797  -15.1026 C   0  0  0  0  0  0  0  0  0  0  0  0
   21.5087   -9.5714  -15.8704 O   0  0  0  0  0  0  0  0  0  0  0  0
   23.8944   -7.3384  -16.9753 C   0  0  0  0  0  0  0  0  0  0  0  0
   24.5848   -6.3516  -16.6468 O   0  0  0  0  0  0  0  0  0  0  0  0
   21.6958   -8.2063  -14.1008 O   0  0  0  0  0  0  0  0  0  0  0  0
   21.0757   -4.7419  -20.1235 C   0  0  0  0  0  0  0  0  0  0  0  0
   21.5466   -6.0467  -19.5338 C   0  0  1  0  0  0  0  0  0  0  0  0
   22.3732   -6.6535  -20.4772 O   0  0  0  0  0  0  0  0  0  0  0  0
   22.3145   -5.8118  -18.2274 C   0  0  2  0  0  0  0  0  0  0  0  0
   22.7386   -7.1044  -17.7605 N   0  0  0  0  0  0  0  0  0  0  0  0
   21.3841   -5.1359  -17.3120 C   0  0  0  0  0  0  0  0  0  0  0  0
   21.5079   -3.7615  -17.1614 O   0  0  0  0  0  0  0  0  0  0  0  0
   20.4920   -5.7133  -16.6623 O   0  0  0  0  0  0  0  0  0  0  0  0
  2  1  1  6
  3  2  1  0
  4  3  1  0
  4  5  2  0
  6  5  1  0
  7  6  2  0
  8  9  2  0
  8  7  1  0
  9  4  1  0
 10  2  1  0
 11 10  2  0
 12 10  1  0
 13 17  1  0
 13 12  1  0
 13 14  1  1
 15 14  1  0
 16 15  2  0
 17 18  2  0
 19 15  1  0
 21 20  1  6
 21 22  1  0
 23 21  1  0
 23 24  1  1
 24 17  1  0
 25 26  1  0
 25 23  1  0
 27 25  2  0
M  END
$$$$
