FDT.pdb
     RDKit          3D

 27 27  0  0  1  0  0  0  0  0999 V2000
   23.3833  -15.5347  -19.5924 N   0  0  0  0  0  0  0  0  0  0  0  0
   22.8833  -14.7376  -18.5134 C   0  0  1  0  0  0  0  0  0  0  0  0
   23.3533  -15.2615  -17.1577 C   0  0  0  0  0  0  0  0  0  0  0  0
   22.9194  -16.6680  -16.9625 C   0  0  0  0  0  0  0  0  0  0  0  0
   23.7025  -17.7554  -17.2877 C   0  0  0  0  0  0  0  0  0  0  0  0
   23.2732  -19.0578  -17.0956 C   0  0  0  0  0  0  0  0  0  0  0  0
   22.0332  -19.3053  -16.5663 C   0  0  0  0  0  0  0  0  0  0  0  0
   21.2266  -18.2486  -16.2309 C   0  0  0  0  0  0  0  0  0  0  0  0
   21.6622  -16.9516  -16.4256 C   0  0  0  0  0  0  0  0  0  0  0  0
   23.1933  -13.2991  -18.6673 C   0  0  0  0  0  0  0  0  0  0  0  0
   24.1213  -12.8818  -19.4063 O   0  0  0  0  0  0  0  0  0  0  0  0
   22.4385  -12.3197  -17.9720 N   0  0  0  0  0  0  0  0  0  0  0  0
   22.5770  -10.9156  -18.1442 C   0  0  1  0  0  0  0  0  0  0  0  0
   22.5701  -10.5324  -19.5835 C   0  0  0  0  0  0  0  0  0  0  0  0
   22.7409   -9.0893  -19.8163 C   0  0  0  0  0  0  0  0  0  0  0  0
   22.1741   -8.4267  -20.7234 O   0  0  0  0  0  0  0  0  0  0  0  0
   21.6236  -10.1205  -17.3340 C   0  0  0  0  0  0  0  0  0  0  0  0
   20.4043  -10.2065  -17.5874 O   0  0  0  0  0  0  0  0  0  0  0  0
   23.5945   -8.3351  -18.9901 O   0  0  0  0  0  0  0  0  0  0  0  0
   20.8339  -10.3646  -13.8452 C   0  0  0  0  0  0  0  0  0  0  0  0
   21.3115   -8.9464  -14.0255 C   0  0  1  0  0  0  0  0  0  0  0  0
   22.6627   -8.9177  -13.6861 O   0  0  0  0  0  0  0  0  0  0  0  0
   21.1179   -8.4833  -15.4745 C   0  0  2  0  0  0  0  0  0  0  0  0
   22.0206   -9.2613  -16.2799 N   0  0  0  0  0  0  0  0  0  0  0  0
   21.4098   -7.0428  -15.4949 C   0  0  0  0  0  0  0  0  0  0  0  0
   20.4894   -6.1874  -14.9046 O   0  0  0  0  0  0  0  0  0  0  0  0
   22.4271   -6.5380  -16.0060 O   0  0  0  0  0  0  0  0  0  0  0  0
  2  1  1  6
  3  2  1  0
  4  3  1  0
  4  5  2  0
  6  5  1  0
  7  6  2  0
  8  9  2  0
  8  7  1  0
  9  4  1  0
 10  2  1  0
 11 10  2  0
 12 10  1  0
 13 17  1  0
 13 12  1  0
 13 14  1  6
 15 14  1  0
 16 15  2  0
 17 18  2  0
 19 15  1  0
 21 20  1  6
 21 22  1  0
 23 21  1  0
 23 24  1  6
 24 17  1  0
 25 26  1  0
 25 23  1  0
 27 25  2  0
M  END
$$$$
