FDT.pdb
     RDKit          3D

 27 27  0  0  1  0  0  0  0  0999 V2000
   25.0485  -12.6539  -16.4800 N   0  0  0  0  0  0  0  0  0  0  0  0
   24.6309  -11.7784  -15.4270 C   0  0  1  0  0  0  0  0  0  0  0  0
   25.8172  -11.0679  -14.7780 C   0  0  0  0  0  0  0  0  0  0  0  0
   26.5968  -10.3180  -15.7950 C   0  0  0  0  0  0  0  0  0  0  0  0
   26.1965   -9.1053  -16.3150 C   0  0  0  0  0  0  0  0  0  0  0  0
   26.9429   -8.4265  -17.2636 C   0  0  0  0  0  0  0  0  0  0  0  0
   28.1233   -8.9532  -17.7198 C   0  0  0  0  0  0  0  0  0  0  0  0
   28.5533  -10.1575  -17.2254 C   0  0  0  0  0  0  0  0  0  0  0  0
   27.8027  -10.8288  -16.2788 C   0  0  0  0  0  0  0  0  0  0  0  0
   23.5980  -10.8104  -15.8572 C   0  0  0  0  0  0  0  0  0  0  0  0
   23.4061  -10.5173  -17.0650 O   0  0  0  0  0  0  0  0  0  0  0  0
   22.7706  -10.1657  -14.9023 N   0  0  0  0  0  0  0  0  0  0  0  0
   21.7846   -9.1895  -15.2105 C   0  0  1  0  0  0  0  0  0  0  0  0
   20.4507   -9.5591  -14.6605 C   0  0  0  0  0  0  0  0  0  0  0  0
   19.3652   -8.6549  -15.0728 C   0  0  0  0  0  0  0  0  0  0  0  0
   18.6335   -7.9932  -14.2919 O   0  0  0  0  0  0  0  0  0  0  0  0
   22.1870   -7.8066  -14.8593 C   0  0  0  0  0  0  0  0  0  0  0  0
   22.6894   -7.5952  -13.7363 O   0  0  0  0  0  0  0  0  0  0  0  0
   19.0742   -8.4744  -16.4377 O   0  0  0  0  0  0  0  0  0  0  0  0
   24.7147   -5.5490  -16.2667 C   0  0  0  0  0  0  0  0  0  0  0  0
   23.3807   -4.8740  -16.4582 C   0  0  1  0  0  0  0  0  0  0  0  0
   22.9300   -5.2015  -17.7354 O   0  0  0  0  0  0  0  0  0  0  0  0
   22.3726   -5.3439  -15.4025 C   0  0  2  0  0  0  0  0  0  0  0  0
   22.0328   -6.7020  -15.7328 N   0  0  0  0  0  0  0  0  0  0  0  0
   21.2307   -4.4212  -15.4759 C   0  0  0  0  0  0  0  0  0  0  0  0
   21.3958   -3.1444  -14.9566 O   0  0  0  0  0  0  0  0  0  0  0  0
   20.1251   -4.7078  -15.9725 O   0  0  0  0  0  0  0  0  0  0  0  0
  2  1  1  6
  3  2  1  0
  4  3  1  0
  4  5  2  0
  6  5  1  0
  7  6  2  0
  8  9  2  0
  8  7  1  0
  9  4  1  0
 10  2  1  0
 11 10  2  0
 12 10  1  0
 13 17  1  0
 13 12  1  0
 13 14  1  1
 15 14  1  0
 16 15  2  0
 17 18  2  0
 19 15  1  0
 21 20  1  1
 21 22  1  0
 23 21  1  0
 23 24  1  6
 24 17  1  0
 25 26  1  0
 25 23  1  0
 27 25  2  0
M  END
$$$$
