FDT.pdb
     RDKit          3D

 27 27  0  0  1  0  0  0  0  0999 V2000
   24.9726  -22.6261  -12.8924 N   0  0  0  0  0  0  0  0  0  0  0  0
   24.4034  -22.1356  -14.1111 C   0  0  1  0  0  0  0  0  0  0  0  0
   24.1544  -23.2615  -15.1129 C   0  0  0  0  0  0  0  0  0  0  0  0
   25.4398  -23.8464  -15.5712 C   0  0  0  0  0  0  0  0  0  0  0  0
   25.8762  -25.1015  -15.2028 C   0  0  0  0  0  0  0  0  0  0  0  0
   27.0804  -25.6233  -15.6447 C   0  0  0  0  0  0  0  0  0  0  0  0
   27.8865  -24.8909  -16.4769 C   0  0  0  0  0  0  0  0  0  0  0  0
   27.4853  -23.6385  -16.8644 C   0  0  0  0  0  0  0  0  0  0  0  0
   26.2821  -23.1247  -16.4191 C   0  0  0  0  0  0  0  0  0  0  0  0
   23.1798  -21.3328  -13.8940 C   0  0  0  0  0  0  0  0  0  0  0  0
   22.5125  -21.3900  -12.8296 O   0  0  0  0  0  0  0  0  0  0  0  0
   22.7065  -20.4518  -14.9001 N   0  0  0  0  0  0  0  0  0  0  0  0
   21.6050  -19.5661  -14.7504 C   0  0  1  0  0  0  0  0  0  0  0  0
   21.7529  -18.3523  -15.6009 C   0  0  0  0  0  0  0  0  0  0  0  0
   20.7191  -17.3315  -15.3666 C   0  0  0  0  0  0  0  0  0  0  0  0
   20.1947  -17.0693  -14.2533 O   0  0  0  0  0  0  0  0  0  0  0  0
   20.2867  -20.2241  -14.9136 C   0  0  0  0  0  0  0  0  0  0  0  0
   19.2537  -19.5624  -14.6828 O   0  0  0  0  0  0  0  0  0  0  0  0
   20.2376  -16.5532  -16.4355 O   0  0  0  0  0  0  0  0  0  0  0  0
   19.8957  -23.6295  -17.3446 C   0  0  0  0  0  0  0  0  0  0  0  0
   19.1778  -23.6427  -16.0193 C   0  0  1  0  0  0  0  0  0  0  0  0
   20.0115  -24.2800  -15.1026 O   0  0  0  0  0  0  0  0  0  0  0  0
   18.8657  -22.2162  -15.5512 C   0  0  2  0  0  0  0  0  0  0  0  0
   20.1309  -21.5723  -15.3200 N   0  0  0  0  0  0  0  0  0  0  0  0
   18.0450  -22.3449  -14.3386 C   0  0  0  0  0  0  0  0  0  0  0  0
   18.5790  -21.8827  -13.1435 O   0  0  0  0  0  0  0  0  0  0  0  0
   16.9028  -22.8407  -14.3112 O   0  0  0  0  0  0  0  0  0  0  0  0
  2  1  1  1
  3  2  1  0
  4  3  1  0
  4  5  2  0
  6  5  1  0
  7  6  2  0
  8  9  2  0
  8  7  1  0
  9  4  1  0
 10  2  1  0
 11 10  2  0
 12 10  1  0
 13 17  1  0
 13 12  1  0
 13 14  1  6
 15 14  1  0
 16 15  2  0
 17 18  2  0
 19 15  1  0
 21 20  1  6
 21 22  1  0
 23 21  1  0
 23 24  1  1
 24 17  1  0
 25 26  1  0
 25 23  1  0
 27 25  2  0
M  END
$$$$
