FDT.pdb
     RDKit          3D

 27 27  0  0  1  0  0  0  0  0999 V2000
   27.5427  -18.5955   -8.5591 N   0  0  0  0  0  0  0  0  0  0  0  0
   26.9417  -19.8931   -8.6273 C   0  0  1  0  0  0  0  0  0  0  0  0
   26.4631  -20.3678   -7.2566 C   0  0  0  0  0  0  0  0  0  0  0  0
   27.5349  -20.2012   -6.2427 C   0  0  0  0  0  0  0  0  0  0  0  0
   28.6031  -21.0644   -6.1194 C   0  0  0  0  0  0  0  0  0  0  0  0
   29.5897  -20.8860   -5.1642 C   0  0  0  0  0  0  0  0  0  0  0  0
   29.5289  -19.8250   -4.2985 C   0  0  0  0  0  0  0  0  0  0  0  0
   28.4811  -18.9457   -4.3913 C   0  0  0  0  0  0  0  0  0  0  0  0
   27.5005  -19.1306   -5.3474 C   0  0  0  0  0  0  0  0  0  0  0  0
   25.8568  -19.9743   -9.6300 C   0  0  0  0  0  0  0  0  0  0  0  0
   24.9014  -19.1571   -9.6614 O   0  0  0  0  0  0  0  0  0  0  0  0
   25.8564  -20.9982  -10.6118 N   0  0  0  0  0  0  0  0  0  0  0  0
   25.1759  -20.9275  -11.8576 C   0  0  1  0  0  0  0  0  0  0  0  0
   25.8564  -21.7385  -12.9053 C   0  0  0  0  0  0  0  0  0  0  0  0
   27.0054  -21.0627  -13.5288 C   0  0  0  0  0  0  0  0  0  0  0  0
   28.1672  -21.5373  -13.6190 O   0  0  0  0  0  0  0  0  0  0  0  0
   23.7253  -21.2168  -11.7599 C   0  0  0  0  0  0  0  0  0  0  0  0
   23.3512  -22.1735  -11.0507 O   0  0  0  0  0  0  0  0  0  0  0  0
   26.8548  -19.7798  -14.0869 O   0  0  0  0  0  0  0  0  0  0  0  0
   19.1275  -19.5621  -12.7962 C   0  0  0  0  0  0  0  0  0  0  0  0
   20.6267  -19.4455  -12.9003 C   0  0  1  0  0  0  0  0  0  0  0  0
   21.0024  -18.2976  -12.2054 O   0  0  0  0  0  0  0  0  0  0  0  0
   21.3148  -20.6781  -12.3014 C   0  0  2  0  0  0  0  0  0  0  0  0
   22.7310  -20.4631  -12.4310 N   0  0  0  0  0  0  0  0  0  0  0  0
   20.8277  -21.8384  -13.0610 C   0  0  0  0  0  0  0  0  0  0  0  0
   21.4507  -22.1308  -14.2666 O   0  0  0  0  0  0  0  0  0  0  0  0
   19.8936  -22.5769  -12.6958 O   0  0  0  0  0  0  0  0  0  0  0  0
  2  1  1  1
  3  2  1  0
  4  3  1  0
  4  5  2  0
  6  5  1  0
  7  6  2  0
  8  9  2  0
  8  7  1  0
  9  4  1  0
 10  2  1  0
 11 10  2  0
 12 10  1  0
 13 17  1  0
 13 12  1  0
 13 14  1  6
 15 14  1  0
 16 15  2  0
 17 18  2  0
 19 15  1  0
 21 20  1  1
 21 22  1  0
 23 21  1  0
 23 24  1  6
 24 17  1  0
 25 26  1  0
 25 23  1  0
 27 25  2  0
M  END
$$$$
