FDT.pdb
     RDKit          3D

 27 27  0  0  1  0  0  0  0  0999 V2000
   23.3163  -11.0669  -16.9144 N   0  0  0  0  0  0  0  0  0  0  0  0
   23.1260   -9.8487  -16.1867 C   0  0  1  0  0  0  0  0  0  0  0  0
   24.3006   -8.8897  -16.3716 C   0  0  0  0  0  0  0  0  0  0  0  0
   25.5907   -9.6090  -16.2208 C   0  0  0  0  0  0  0  0  0  0  0  0
   26.3624  -10.0144  -17.2891 C   0  0  0  0  0  0  0  0  0  0  0  0
   27.5625  -10.6845  -17.1205 C   0  0  0  0  0  0  0  0  0  0  0  0
   28.0241  -10.9680  -15.8613 C   0  0  0  0  0  0  0  0  0  0  0  0
   27.2833  -10.5802  -14.7748 C   0  0  0  0  0  0  0  0  0  0  0  0
   26.0866   -9.9119  -14.9514 C   0  0  0  0  0  0  0  0  0  0  0  0
   21.8404   -9.1858  -16.4979 C   0  0  0  0  0  0  0  0  0  0  0  0
   21.0398   -9.6317  -17.3591 O   0  0  0  0  0  0  0  0  0  0  0  0
   21.4580   -7.9990  -15.8215 N   0  0  0  0  0  0  0  0  0  0  0  0
   20.2367   -7.3030  -16.0317 C   0  0  1  0  0  0  0  0  0  0  0  0
   19.0546   -8.1716  -15.7737 C   0  0  0  0  0  0  0  0  0  0  0  0
   17.7643   -7.5159  -16.0403 C   0  0  0  0  0  0  0  0  0  0  0  0
   17.3751   -7.1060  -17.1644 O   0  0  0  0  0  0  0  0  0  0  0  0
   20.1618   -6.0052  -15.3190 C   0  0  0  0  0  0  0  0  0  0  0  0
   20.3543   -5.9865  -14.0858 O   0  0  0  0  0  0  0  0  0  0  0  0
   16.8492   -7.3019  -14.9930 O   0  0  0  0  0  0  0  0  0  0  0  0
   20.8148   -1.2118  -15.3606 C   0  0  0  0  0  0  0  0  0  0  0  0
   20.7815   -2.5676  -16.0184 C   0  0  1  0  0  0  0  0  0  0  0  0
   22.0736   -3.0866  -15.9638 O   0  0  0  0  0  0  0  0  0  0  0  0
   19.8028   -3.5023  -15.2974 C   0  0  2  0  0  0  0  0  0  0  0  0
   19.8819   -4.7748  -15.9631 N   0  0  0  0  0  0  0  0  0  0  0  0
   18.4776   -2.8736  -15.3935 C   0  0  0  0  0  0  0  0  0  0  0  0
   17.9775   -2.2414  -14.2633 O   0  0  0  0  0  0  0  0  0  0  0  0
   17.7733   -2.8699  -16.4206 O   0  0  0  0  0  0  0  0  0  0  0  0
  2  1  1  6
  3  2  1  0
  4  3  1  0
  4  5  2  0
  6  5  1  0
  7  6  2  0
  8  9  2  0
  8  7  1  0
  9  4  1  0
 10  2  1  0
 11 10  2  0
 12 10  1  0
 13 17  1  0
 13 12  1  0
 13 14  1  1
 15 14  1  0
 16 15  2  0
 17 18  2  0
 19 15  1  0
 21 20  1  1
 21 22  1  0
 23 21  1  0
 23 24  1  6
 24 17  1  0
 25 26  1  0
 25 23  1  0
 27 25  2  0
M  END
$$$$
