FDT.pdb
     RDKit          3D

 27 27  0  0  1  0  0  0  0  0999 V2000
   26.9425  -22.1660  -13.8113 N   0  0  0  0  0  0  0  0  0  0  0  0
   26.0529  -21.4781  -12.9254 C   0  0  1  0  0  0  0  0  0  0  0  0
   26.6728  -20.1890  -12.3894 C   0  0  0  0  0  0  0  0  0  0  0  0
   27.8653  -20.4896  -11.5575 C   0  0  0  0  0  0  0  0  0  0  0  0
   27.7900  -20.8839  -10.2383 C   0  0  0  0  0  0  0  0  0  0  0  0
   28.9187  -21.1580   -9.4844 C   0  0  0  0  0  0  0  0  0  0  0  0
   30.1659  -21.0422  -10.0411 C   0  0  0  0  0  0  0  0  0  0  0  0
   30.2798  -20.6525  -11.3507 C   0  0  0  0  0  0  0  0  0  0  0  0
   29.1486  -20.3807  -12.0965 C   0  0  0  0  0  0  0  0  0  0  0  0
   24.7245  -21.2234  -13.5250 C   0  0  0  0  0  0  0  0  0  0  0  0
   24.5611  -21.0498  -14.7598 O   0  0  0  0  0  0  0  0  0  0  0  0
   23.5642  -21.1651  -12.7110 N   0  0  0  0  0  0  0  0  0  0  0  0
   22.2391  -21.0001  -13.1976 C   0  0  1  0  0  0  0  0  0  0  0  0
   21.2280  -21.5107  -12.2304 C   0  0  0  0  0  0  0  0  0  0  0  0
   19.8531  -21.5195  -12.7552 C   0  0  0  0  0  0  0  0  0  0  0  0
   19.5099  -21.1328  -13.9023 O   0  0  0  0  0  0  0  0  0  0  0  0
   21.9439  -19.6242  -13.6636 C   0  0  0  0  0  0  0  0  0  0  0  0
   21.7759  -18.7262  -12.8130 O   0  0  0  0  0  0  0  0  0  0  0  0
   18.7933  -21.9869  -11.9563 O   0  0  0  0  0  0  0  0  0  0  0  0
   23.6749  -17.4658  -16.4702 C   0  0  0  0  0  0  0  0  0  0  0  0
   22.2203  -17.7010  -16.7878 C   0  0  1  0  0  0  0  0  0  0  0  0
   22.1554  -18.7969  -17.6460 O   0  0  0  0  0  0  0  0  0  0  0  0
   21.4187  -17.9785  -15.5103 C   0  0  2  0  0  0  0  0  0  0  0  0
   21.8407  -19.2672  -15.0308 N   0  0  0  0  0  0  0  0  0  0  0  0
   19.9994  -17.9320  -15.8897 C   0  0  0  0  0  0  0  0  0  0  0  0
   19.4783  -16.7119  -16.2983 O   0  0  0  0  0  0  0  0  0  0  0  0
   19.2330  -18.9134  -15.8693 O   0  0  0  0  0  0  0  0  0  0  0  0
  2  1  1  6
  3  2  1  0
  4  3  1  0
  4  5  2  0
  6  5  1  0
  7  6  2  0
  8  9  2  0
  8  7  1  0
  9  4  1  0
 10  2  1  0
 11 10  2  0
 12 10  1  0
 13 17  1  0
 13 12  1  0
 13 14  1  1
 15 14  1  0
 16 15  2  0
 17 18  2  0
 19 15  1  0
 21 20  1  1
 21 22  1  0
 23 21  1  0
 23 24  1  6
 24 17  1  0
 25 26  1  0
 25 23  1  0
 27 25  2  0
M  END
$$$$
