FDT.pdb
     RDKit          3D

 27 27  0  0  1  0  0  0  0  0999 V2000
   23.9552   -9.8211  -18.2030 N   0  0  0  0  0  0  0  0  0  0  0  0
   23.2608   -9.6238  -16.9667 C   0  0  1  0  0  0  0  0  0  0  0  0
   24.2179   -9.2681  -15.8305 C   0  0  0  0  0  0  0  0  0  0  0  0
   25.2516  -10.3216  -15.6695 C   0  0  0  0  0  0  0  0  0  0  0  0
   24.9761  -11.5896  -15.2031 C   0  0  0  0  0  0  0  0  0  0  0  0
   25.9598  -12.5541  -15.0620 C   0  0  0  0  0  0  0  0  0  0  0  0
   27.2598  -12.2675  -15.3890 C   0  0  0  0  0  0  0  0  0  0  0  0
   27.5714  -11.0168  -15.8562 C   0  0  0  0  0  0  0  0  0  0  0  0
   26.5840  -10.0597  -15.9942 C   0  0  0  0  0  0  0  0  0  0  0  0
   22.1650   -8.6353  -17.0719 C   0  0  0  0  0  0  0  0  0  0  0  0
   22.1812   -7.6928  -17.9044 O   0  0  0  0  0  0  0  0  0  0  0  0
   21.0340   -8.7178  -16.2197 N   0  0  0  0  0  0  0  0  0  0  0  0
   19.9391   -7.8117  -16.2345 C   0  0  1  0  0  0  0  0  0  0  0  0
   18.6317   -8.5253  -16.2391 C   0  0  0  0  0  0  0  0  0  0  0  0
   17.4656   -7.6312  -16.3193 C   0  0  0  0  0  0  0  0  0  0  0  0
   16.3665   -7.8149  -15.7350 O   0  0  0  0  0  0  0  0  0  0  0  0
   20.0186   -6.7661  -15.1866 C   0  0  0  0  0  0  0  0  0  0  0  0
   19.9188   -7.1075  -13.9901 O   0  0  0  0  0  0  0  0  0  0  0  0
   17.5236   -6.4600  -17.0971 O   0  0  0  0  0  0  0  0  0  0  0  0
   22.7666   -4.6043  -14.3507 C   0  0  0  0  0  0  0  0  0  0  0  0
   21.6323   -3.6612  -14.6603 C   0  0  1  0  0  0  0  0  0  0  0  0
   21.7849   -3.2492  -15.9827 O   0  0  0  0  0  0  0  0  0  0  0  0
   20.2772   -4.3540  -14.4728 C   0  0  2  0  0  0  0  0  0  0  0  0
   20.2028   -5.3899  -15.4680 N   0  0  0  0  0  0  0  0  0  0  0  0
   19.2508   -3.3141  -14.6335 C   0  0  0  0  0  0  0  0  0  0  0  0
   19.1391   -2.3552  -13.6359 O   0  0  0  0  0  0  0  0  0  0  0  0
   18.4747   -3.2354  -15.6044 O   0  0  0  0  0  0  0  0  0  0  0  0
  2  1  1  6
  3  2  1  0
  4  3  1  0
  4  5  2  0
  6  5  1  0
  7  6  2  0
  8  9  2  0
  8  7  1  0
  9  4  1  0
 10  2  1  0
 11 10  2  0
 12 10  1  0
 13 17  1  0
 13 12  1  0
 13 14  1  1
 15 14  1  0
 16 15  2  0
 17 18  2  0
 19 15  1  0
 21 20  1  6
 21 22  1  0
 23 21  1  0
 23 24  1  6
 24 17  1  0
 25 26  1  0
 25 23  1  0
 27 25  2  0
M  END
$$$$
