FDT.pdb
     RDKit          3D

 27 27  0  0  1  0  0  0  0  0999 V2000
   27.9354  -19.0494   -8.6294 N   0  0  0  0  0  0  0  0  0  0  0  0
   27.0241  -20.1488   -8.5274 C   0  0  1  0  0  0  0  0  0  0  0  0
   26.3398  -20.1919   -7.1624 C   0  0  0  0  0  0  0  0  0  0  0  0
   27.3364  -20.0332   -6.0734 C   0  0  0  0  0  0  0  0  0  0  0  0
   27.6287  -21.0259   -5.1620 C   0  0  0  0  0  0  0  0  0  0  0  0
   28.5631  -20.8515   -4.1550 C   0  0  0  0  0  0  0  0  0  0  0  0
   29.2358  -19.6631   -4.0354 C   0  0  0  0  0  0  0  0  0  0  0  0
   28.9713  -18.6529   -4.9239 C   0  0  0  0  0  0  0  0  0  0  0  0
   28.0373  -18.8348   -5.9261 C   0  0  0  0  0  0  0  0  0  0  0  0
   26.0316  -20.1790   -9.6242 C   0  0  0  0  0  0  0  0  0  0  0  0
   24.9956  -19.4662   -9.6195 O   0  0  0  0  0  0  0  0  0  0  0  0
   26.2179  -21.0309  -10.7430 N   0  0  0  0  0  0  0  0  0  0  0  0
   25.4403  -20.9904  -11.9320 C   0  0  1  0  0  0  0  0  0  0  0  0
   26.1711  -21.5762  -13.0902 C   0  0  0  0  0  0  0  0  0  0  0  0
   27.2714  -20.7347  -13.5873 C   0  0  0  0  0  0  0  0  0  0  0  0
   27.3221  -19.4802  -13.5050 O   0  0  0  0  0  0  0  0  0  0  0  0
   24.0775  -21.5510  -11.7705 C   0  0  0  0  0  0  0  0  0  0  0  0
   23.8438  -22.2854  -10.7886 O   0  0  0  0  0  0  0  0  0  0  0  0
   28.3847  -21.3231  -14.2152 O   0  0  0  0  0  0  0  0  0  0  0  0
   21.4125  -19.0548  -11.7220 C   0  0  0  0  0  0  0  0  0  0  0  0
   21.2985  -20.4781  -11.2390 C   0  0  1  0  0  0  0  0  0  0  0  0
   19.9903  -20.6620  -10.7958 O   0  0  0  0  0  0  0  0  0  0  0  0
   21.6214  -21.4664  -12.3662 C   0  0  2  0  0  0  0  0  0  0  0  0
   23.0162  -21.2986  -12.6745 N   0  0  0  0  0  0  0  0  0  0  0  0
   20.7305  -21.1286  -13.4854 C   0  0  0  0  0  0  0  0  0  0  0  0
   21.3046  -20.5960  -14.6317 O   0  0  0  0  0  0  0  0  0  0  0  0
   19.4954  -21.2880  -13.4747 O   0  0  0  0  0  0  0  0  0  0  0  0
  2  1  1  1
  3  2  1  0
  4  3  1  0
  4  5  2  0
  6  5  1  0
  7  6  2  0
  8  9  2  0
  8  7  1  0
  9  4  1  0
 10  2  1  0
 11 10  2  0
 12 10  1  0
 13 17  1  0
 13 12  1  0
 13 14  1  6
 15 14  1  0
 16 15  2  0
 17 18  2  0
 19 15  1  0
 21 20  1  6
 21 22  1  0
 23 21  1  0
 23 24  1  6
 24 17  1  0
 25 26  1  0
 25 23  1  0
 27 25  2  0
M  END
$$$$
