FDT.pdb
     RDKit          3D

 27 27  0  0  1  0  0  0  0  0999 V2000
   27.9977  -21.2252   -8.5238 N   0  0  0  0  0  0  0  0  0  0  0  0
   26.7149  -20.5921   -8.4661 C   0  0  1  0  0  0  0  0  0  0  0  0
   26.7598  -19.2947   -7.6611 C   0  0  0  0  0  0  0  0  0  0  0  0
   27.4243  -19.5153   -6.3518 C   0  0  0  0  0  0  0  0  0  0  0  0
   28.5556  -18.8362   -5.9514 C   0  0  0  0  0  0  0  0  0  0  0  0
   29.1560  -19.0615   -4.7240 C   0  0  0  0  0  0  0  0  0  0  0  0
   28.6306  -19.9844   -3.8573 C   0  0  0  0  0  0  0  0  0  0  0  0
   27.5061  -20.6790   -4.2214 C   0  0  0  0  0  0  0  0  0  0  0  0
   26.9127  -20.4484   -5.4481 C   0  0  0  0  0  0  0  0  0  0  0  0
   26.1198  -20.3717   -9.8026 C   0  0  0  0  0  0  0  0  0  0  0  0
   25.0939  -19.6661   -9.9788 O   0  0  0  0  0  0  0  0  0  0  0  0
   26.6978  -20.9611  -10.9562 N   0  0  0  0  0  0  0  0  0  0  0  0
   26.2703  -20.7217  -12.2904 C   0  0  1  0  0  0  0  0  0  0  0  0
   27.3425  -21.0290  -13.2775 C   0  0  0  0  0  0  0  0  0  0  0  0
   27.1091  -20.4496  -14.6100 C   0  0  0  0  0  0  0  0  0  0  0  0
   26.0907  -20.6487  -15.3216 O   0  0  0  0  0  0  0  0  0  0  0  0
   24.9790  -21.3680  -12.6259 C   0  0  0  0  0  0  0  0  0  0  0  0
   24.9465  -22.6086  -12.7599 O   0  0  0  0  0  0  0  0  0  0  0  0
   28.0665  -19.5959  -15.1883 O   0  0  0  0  0  0  0  0  0  0  0  0
   21.7368  -21.1782  -10.7212 C   0  0  0  0  0  0  0  0  0  0  0  0
   21.4871  -20.6649  -12.1163 C   0  0  1  0  0  0  0  0  0  0  0  0
   21.6051  -19.2771  -12.0746 O   0  0  0  0  0  0  0  0  0  0  0  0
   22.4990  -21.2546  -13.1062 C   0  0  2  0  0  0  0  0  0  0  0  0
   23.7697  -20.6520  -12.8045 N   0  0  0  0  0  0  0  0  0  0  0  0
   22.0035  -20.9315  -14.4518 C   0  0  0  0  0  0  0  0  0  0  0  0
   20.8329  -21.5460  -14.8754 O   0  0  0  0  0  0  0  0  0  0  0  0
   22.5630  -20.1437  -15.2375 O   0  0  0  0  0  0  0  0  0  0  0  0
  2  1  1  6
  3  2  1  0
  4  3  1  0
  4  5  2  0
  6  5  1  0
  7  6  2  0
  8  9  2  0
  8  7  1  0
  9  4  1  0
 10  2  1  0
 11 10  2  0
 12 10  1  0
 13 17  1  0
 13 12  1  0
 13 14  1  6
 15 14  1  0
 16 15  2  0
 17 18  2  0
 19 15  1  0
 21 20  1  1
 21 22  1  0
 23 21  1  0
 23 24  1  1
 24 17  1  0
 25 26  1  0
 25 23  1  0
 27 25  2  0
M  END
$$$$
