FDT.pdb
     RDKit          3D

 27 27  0  0  1  0  0  0  0  0999 V2000
   22.6370  -13.8135  -16.8947 N   0  0  0  0  0  0  0  0  0  0  0  0
   23.0041  -12.6217  -16.1915 C   0  0  1  0  0  0  0  0  0  0  0  0
   24.3805  -12.1144  -16.6177 C   0  0  0  0  0  0  0  0  0  0  0  0
   25.3921  -13.1957  -16.5093 C   0  0  0  0  0  0  0  0  0  0  0  0
   25.8931  -13.8777  -17.5980 C   0  0  0  0  0  0  0  0  0  0  0  0
   26.8365  -14.8831  -17.4689 C   0  0  0  0  0  0  0  0  0  0  0  0
   27.3068  -15.2339  -16.2300 C   0  0  0  0  0  0  0  0  0  0  0  0
   26.8315  -14.5774  -15.1242 C   0  0  0  0  0  0  0  0  0  0  0  0
   25.8899  -13.5751  -15.2613 C   0  0  0  0  0  0  0  0  0  0  0  0
   21.9852  -11.5539  -16.2950 C   0  0  0  0  0  0  0  0  0  0  0  0
   20.9293  -11.6883  -16.9648 O   0  0  0  0  0  0  0  0  0  0  0  0
   22.1675  -10.3151  -15.6283 N   0  0  0  0  0  0  0  0  0  0  0  0
   21.2277   -9.2489  -15.6261 C   0  0  1  0  0  0  0  0  0  0  0  0
   19.8816   -9.7001  -15.1758 C   0  0  0  0  0  0  0  0  0  0  0  0
   18.8840   -8.6204  -15.1063 C   0  0  0  0  0  0  0  0  0  0  0  0
   18.6946   -7.7469  -15.9919 O   0  0  0  0  0  0  0  0  0  0  0  0
   21.6993   -8.0423  -14.9055 C   0  0  0  0  0  0  0  0  0  0  0  0
   22.0583   -8.1567  -13.7155 O   0  0  0  0  0  0  0  0  0  0  0  0
   18.0444   -8.5036  -13.9832 O   0  0  0  0  0  0  0  0  0  0  0  0
   24.3202   -5.5680  -16.3290 C   0  0  0  0  0  0  0  0  0  0  0  0
   23.0822   -4.8131  -15.9172 C   0  0  1  0  0  0  0  0  0  0  0  0
   22.3019   -4.6421  -17.0589 O   0  0  0  0  0  0  0  0  0  0  0  0
   22.2990   -5.5864  -14.8495 C   0  0  2  0  0  0  0  0  0  0  0  0
   21.7663   -6.7559  -15.4954 N   0  0  0  0  0  0  0  0  0  0  0  0
   21.2628   -4.6723  -14.3481 C   0  0  0  0  0  0  0  0  0  0  0  0
   21.6628   -3.6316  -13.5209 O   0  0  0  0  0  0  0  0  0  0  0  0
   20.0502   -4.7687  -14.6153 O   0  0  0  0  0  0  0  0  0  0  0  0
  2  1  1  6
  3  2  1  0
  4  3  1  0
  4  5  2  0
  6  5  1  0
  7  6  2  0
  8  9  2  0
  8  7  1  0
  9  4  1  0
 10  2  1  0
 11 10  2  0
 12 10  1  0
 13 17  1  0
 13 12  1  0
 13 14  1  1
 15 14  1  0
 16 15  2  0
 17 18  2  0
 19 15  1  0
 21 20  1  6
 21 22  1  0
 23 21  1  0
 23 24  1  6
 24 17  1  0
 25 26  1  0
 25 23  1  0
 27 25  2  0
M  END
$$$$
