HKP.pdb
     RDKit          3D

 27 28  0  0  1  0  0  0  0  0999 V2000
   19.0381  -13.1096  -17.0624 N   0  0  0  0  0  0  0  0  0  0  0  0
   18.2527  -11.9484  -16.7993 C   0  0  1  0  0  0  0  0  0  0  0  0
   17.5019  -12.0303  -15.4714 C   0  0  0  0  0  0  0  0  0  0  0  0
   16.4573  -13.0781  -15.4951 C   0  0  0  0  0  0  0  0  0  0  0  0
   16.5360  -14.3259  -14.9415 C   0  0  0  0  0  0  0  0  0  0  0  0
   15.3615  -14.9646  -15.1922 N   0  0  0  0  0  0  0  0  0  0  0  0
   14.5497  -14.1326  -15.8953 C   0  0  0  0  0  0  0  0  0  0  0  0
   15.2376  -12.9919  -16.0673 N   0  0  0  0  0  0  0  0  0  0  0  0
   19.1372  -10.7644  -16.7070 C   0  0  0  0  0  0  0  0  0  0  0  0
   20.1992  -10.8675  -16.0401 O   0  0  0  0  0  0  0  0  0  0  0  0
   18.8124   -9.5535  -17.3409 N   0  0  0  0  0  0  0  0  0  0  0  0
   19.7613   -8.4248  -17.2755 C   0  0  1  0  0  0  0  0  0  0  0  0
   19.6003   -7.7235  -18.6060 C   0  0  0  0  0  0  0  0  0  0  0  0
   20.3735   -6.4931  -18.8174 C   0  0  0  0  0  0  0  0  0  0  0  0
   20.0757   -5.9387  -20.2218 C   0  0  0  0  0  0  0  0  0  0  0  0
   20.7966   -4.6670  -20.5170 C   0  0  0  0  0  0  0  0  0  0  0  0
   20.4697   -4.2674  -21.8823 N   0  0  0  0  0  0  0  0  0  0  0  0
   19.5257   -7.6177  -16.0921 C   0  0  0  0  0  0  0  0  0  0  0  0
   18.2990   -7.3710  -15.7957 O   0  0  0  0  0  0  0  0  0  0  0  0
   20.4875   -7.0744  -15.2207 N   0  0  0  0  0  0  0  0  0  0  0  0
   21.9360   -7.2268  -15.3265 C   0  0  0  0  0  0  0  0  0  0  0  0
   22.3905   -7.2406  -13.8637 C   0  0  0  0  0  0  0  0  0  0  0  0
   21.5598   -6.0794  -13.3620 C   0  0  0  0  0  0  0  0  0  0  0  0
   20.2518   -6.2696  -14.0397 C   0  0  1  0  0  0  0  0  0  0  0  0
   19.5368   -5.0225  -14.3323 C   0  0  0  0  0  0  0  0  0  0  0  0
   19.0283   -4.2738  -13.2862 O   0  0  0  0  0  0  0  0  0  0  0  0
   19.3691   -4.6089  -15.5025 O   0  0  0  0  0  0  0  0  0  0  0  0
  2  1  1  1
  2  3  1  0
  3  4  1  0
  4  8  1  0
  5  4  2  0
  5  6  1  0
  6  7  1  0
  8  7  2  0
  9  2  1  0
 10  9  2  0
 11  9  1  0
 12 11  1  0
 12 13  1  6
 13 14  1  0
 15 14  1  0
 16 17  1  0
 16 15  1  0
 18 12  1  0
 19 18  2  0
 20 18  1  0
 20 21  1  0
 22 21  1  0
 23 24  1  0
 23 22  1  0
 24 25  1  6
 24 20  1  0
 25 26  1  0
 27 25  2  0
M  END
$$$$
