HKP.pdb
     RDKit          3D

 27 28  0  0  1  0  0  0  0  0999 V2000
   19.1716  -13.0181  -17.4551 N   0  0  0  0  0  0  0  0  0  0  0  0
   18.5786  -12.0216  -16.6247 C   0  0  1  0  0  0  0  0  0  0  0  0
   18.4881  -12.4487  -15.1607 C   0  0  0  0  0  0  0  0  0  0  0  0
   17.5838  -13.6062  -14.9814 C   0  0  0  0  0  0  0  0  0  0  0  0
   16.2168  -13.5892  -15.0076 C   0  0  0  0  0  0  0  0  0  0  0  0
   15.7832  -14.8619  -14.8011 N   0  0  0  0  0  0  0  0  0  0  0  0
   16.8612  -15.6741  -14.6462 C   0  0  0  0  0  0  0  0  0  0  0  0
   17.9444  -14.8881  -14.7598 N   0  0  0  0  0  0  0  0  0  0  0  0
   19.4103  -10.7967  -16.6520 C   0  0  0  0  0  0  0  0  0  0  0  0
   20.6612  -10.9280  -16.6183 O   0  0  0  0  0  0  0  0  0  0  0  0
   18.8326   -9.5176  -16.7137 N   0  0  0  0  0  0  0  0  0  0  0  0
   19.7024   -8.3382  -16.8892 C   0  0  1  0  0  0  0  0  0  0  0  0
   19.3901   -7.8479  -18.2858 C   0  0  0  0  0  0  0  0  0  0  0  0
   20.0934   -6.6458  -18.7512 C   0  0  0  0  0  0  0  0  0  0  0  0
   19.5485   -6.2386  -20.1315 C   0  0  0  0  0  0  0  0  0  0  0  0
   20.2303   -5.0417  -20.7031 C   0  0  0  0  0  0  0  0  0  0  0  0
   19.7514   -4.8570  -22.0695 N   0  0  0  0  0  0  0  0  0  0  0  0
   19.5033   -7.3830  -15.8144 C   0  0  0  0  0  0  0  0  0  0  0  0
   18.2990   -7.2352  -15.3883 O   0  0  0  0  0  0  0  0  0  0  0  0
   20.4800   -6.5982  -15.1742 N   0  0  0  0  0  0  0  0  0  0  0  0
   21.9078   -6.5739  -15.4796 C   0  0  0  0  0  0  0  0  0  0  0  0
   22.5499   -6.3161  -14.1129 C   0  0  0  0  0  0  0  0  0  0  0  0
   21.6286   -5.2129  -13.6393 C   0  0  0  0  0  0  0  0  0  0  0  0
   20.2855   -5.6683  -14.0809 C   0  0  1  0  0  0  0  0  0  0  0  0
   19.3590   -4.5810  -14.4143 C   0  0  0  0  0  0  0  0  0  0  0  0
   18.8180   -3.8178  -13.3952 O   0  0  0  0  0  0  0  0  0  0  0  0
   19.0381   -4.3173  -15.5959 O   0  0  0  0  0  0  0  0  0  0  0  0
  2  1  1  6
  2  3  1  0
  3  4  1  0
  4  8  1  0
  5  4  2  0
  5  6  1  0
  6  7  1  0
  8  7  2  0
  9  2  1  0
 10  9  2  0
 11  9  1  0
 12 11  1  0
 12 13  1  6
 13 14  1  0
 15 14  1  0
 16 17  1  0
 16 15  1  0
 18 12  1  0
 19 18  2  0
 20 18  1  0
 20 21  1  0
 22 21  1  0
 23 24  1  0
 23 22  1  0
 24 25  1  6
 24 20  1  0
 25 26  1  0
 27 25  2  0
M  END
$$$$
