HKP.pdb
     RDKit          3D

 27 28  0  0  1  0  0  0  0  0999 V2000
   15.5533  -24.1933   -4.8381 N   0  0  0  0  0  0  0  0  0  0  0  0
   14.5566  -24.5451   -3.8803 C   0  0  1  0  0  0  0  0  0  0  0  0
   14.6118  -26.0193   -3.4833 C   0  0  0  0  0  0  0  0  0  0  0  0
   14.4005  -26.9093   -4.6464 C   0  0  0  0  0  0  0  0  0  0  0  0
   13.2048  -27.2242   -5.2303 C   0  0  0  0  0  0  0  0  0  0  0  0
   13.4595  -28.0694   -6.2652 N   0  0  0  0  0  0  0  0  0  0  0  0
   14.7987  -28.2871   -6.3359 C   0  0  0  0  0  0  0  0  0  0  0  0
   15.3496  -27.5714   -5.3417 N   0  0  0  0  0  0  0  0  0  0  0  0
   14.7703  -23.7693   -2.6373 C   0  0  0  0  0  0  0  0  0  0  0  0
   15.9431  -23.4110   -2.3557 O   0  0  0  0  0  0  0  0  0  0  0  0
   13.7031  -23.4355   -1.7869 N   0  0  0  0  0  0  0  0  0  0  0  0
   13.9490  -22.5553   -0.6278 C   0  0  1  0  0  0  0  0  0  0  0  0
   12.6539  -21.7927   -0.4562 C   0  0  0  0  0  0  0  0  0  0  0  0
   12.5440  -20.4914   -1.1276 C   0  0  0  0  0  0  0  0  0  0  0  0
   11.1241  -19.9327   -0.9274 C   0  0  0  0  0  0  0  0  0  0  0  0
   10.9253  -18.5939   -1.5535 C   0  0  0  0  0  0  0  0  0  0  0  0
    9.5464  -18.1807   -1.3112 N   0  0  0  0  0  0  0  0  0  0  0  0
   14.3985  -23.3228    0.5195 C   0  0  0  0  0  0  0  0  0  0  0  0
   14.1006  -24.5737    0.5306 O   0  0  0  0  0  0  0  0  0  0  0  0
   15.1324  -22.8582    1.6263 N   0  0  0  0  0  0  0  0  0  0  0  0
   15.7570  -21.5451    1.7615 C   0  0  0  0  0  0  0  0  0  0  0  0
   17.0067  -21.8405    2.5966 C   0  0  0  0  0  0  0  0  0  0  0  0
   16.3716  -22.7371    3.6373 C   0  0  0  0  0  0  0  0  0  0  0  0
   15.4342  -23.5761    2.8476 C   0  0  1  0  0  0  0  0  0  0  0  0
   14.2315  -23.9891    3.5789 C   0  0  0  0  0  0  0  0  0  0  0  0
   14.3176  -25.0265    4.4900 O   0  0  0  0  0  0  0  0  0  0  0  0
   13.1227  -23.4328    3.4069 O   0  0  0  0  0  0  0  0  0  0  0  0
  2  1  1  6
  2  3  1  0
  3  4  1  0
  4  8  1  0
  5  4  2  0
  5  6  1  0
  6  7  1  0
  8  7  2  0
  9  2  1  0
 10  9  2  0
 11  9  1  0
 12 11  1  0
 12 13  1  1
 13 14  1  0
 15 14  1  0
 16 17  1  0
 16 15  1  0
 18 12  1  0
 19 18  2  0
 20 18  1  0
 20 21  1  0
 22 21  1  0
 23 24  1  0
 23 22  1  0
 24 25  1  1
 24 20  1  0
 25 26  1  0
 27 25  2  0
M  END
$$$$
