HKP.pdb
     RDKit          3D

 27 28  0  0  1  0  0  0  0  0999 V2000
   16.0232  -13.9865  -15.6872 N   0  0  0  0  0  0  0  0  0  0  0  0
   16.2916  -12.6209  -15.9993 C   0  0  1  0  0  0  0  0  0  0  0  0
   15.4721  -11.6485  -15.1528 C   0  0  0  0  0  0  0  0  0  0  0  0
   14.0321  -11.7074  -15.4884 C   0  0  0  0  0  0  0  0  0  0  0  0
   13.2661  -10.6926  -15.9912 C   0  0  0  0  0  0  0  0  0  0  0  0
   12.0026  -11.1695  -16.1541 N   0  0  0  0  0  0  0  0  0  0  0  0
   11.9688  -12.4691  -15.7598 C   0  0  0  0  0  0  0  0  0  0  0  0
   13.2141  -12.7736  -15.3592 N   0  0  0  0  0  0  0  0  0  0  0  0
   17.7146  -12.3209  -15.7204 C   0  0  0  0  0  0  0  0  0  0  0  0
   18.2367  -12.8243  -14.6922 O   0  0  0  0  0  0  0  0  0  0  0  0
   18.4726  -11.4991  -16.5712 N   0  0  0  0  0  0  0  0  0  0  0  0
   19.8984  -11.2646  -16.2698 C   0  0  1  0  0  0  0  0  0  0  0  0
   20.5847  -11.3566  -17.6147 C   0  0  0  0  0  0  0  0  0  0  0  0
   21.0062  -12.6886  -18.0667 C   0  0  0  0  0  0  0  0  0  0  0  0
   21.5465  -12.5918  -19.5044 C   0  0  0  0  0  0  0  0  0  0  0  0
   21.9227  -13.9145  -20.0815 C   0  0  0  0  0  0  0  0  0  0  0  0
   22.3991  -13.6955  -21.4437 N   0  0  0  0  0  0  0  0  0  0  0  0
   20.0766  -10.0212  -15.5422 C   0  0  0  0  0  0  0  0  0  0  0  0
   19.2286   -9.0847  -15.7821 O   0  0  0  0  0  0  0  0  0  0  0  0
   21.0708   -9.7188  -14.5937 N   0  0  0  0  0  0  0  0  0  0  0  0
   22.1192  -10.6190  -14.1215 C   0  0  0  0  0  0  0  0  0  0  0  0
   22.3122  -10.1911  -12.6634 C   0  0  0  0  0  0  0  0  0  0  0  0
   22.3260   -8.6922  -12.8718 C   0  0  0  0  0  0  0  0  0  0  0  0
   21.2585   -8.4720  -13.8809 C   0  0  1  0  0  0  0  0  0  0  0  0
   21.4987   -7.3341  -14.7750 C   0  0  0  0  0  0  0  0  0  0  0  0
   22.1304   -7.5485  -15.9869 O   0  0  0  0  0  0  0  0  0  0  0  0
   21.1503   -6.1682  -14.4786 O   0  0  0  0  0  0  0  0  0  0  0  0
  2  1  1  1
  2  3  1  0
  3  4  1  0
  4  8  1  0
  5  4  2  0
  5  6  1  0
  6  7  1  0
  8  7  2  0
  9  2  1  0
 10  9  2  0
 11  9  1  0
 12 11  1  0
 12 13  1  6
 13 14  1  0
 15 14  1  0
 16 17  1  0
 16 15  1  0
 18 12  1  0
 19 18  2  0
 20 18  1  0
 20 21  1  0
 22 21  1  0
 23 24  1  0
 23 22  1  0
 24 25  1  6
 24 20  1  0
 25 26  1  0
 27 25  2  0
M  END
$$$$
