HKP.pdb
     RDKit          3D

 27 28  0  0  1  0  0  0  0  0999 V2000
   20.1985  -18.9963  -16.1230 N   0  0  0  0  0  0  0  0  0  0  0  0
   21.0332  -18.2588  -15.2320 C   0  0  1  0  0  0  0  0  0  0  0  0
   20.3881  -18.0359  -13.8652 C   0  0  0  0  0  0  0  0  0  0  0  0
   19.2767  -17.0613  -13.9352 C   0  0  0  0  0  0  0  0  0  0  0  0
   19.3663  -15.7049  -13.7874 C   0  0  0  0  0  0  0  0  0  0  0  0
   18.1146  -15.1902  -13.9242 N   0  0  0  0  0  0  0  0  0  0  0  0
   17.2438  -16.2070  -14.1555 C   0  0  0  0  0  0  0  0  0  0  0  0
   17.9736  -17.3346  -14.1577 N   0  0  0  0  0  0  0  0  0  0  0  0
   22.2826  -19.0145  -14.9860 C   0  0  0  0  0  0  0  0  0  0  0  0
   22.1937  -20.2470  -14.7484 O   0  0  0  0  0  0  0  0  0  0  0  0
   23.5388  -18.3863  -15.0141 N   0  0  0  0  0  0  0  0  0  0  0  0
   24.7451  -19.1641  -14.6699 C   0  0  1  0  0  0  0  0  0  0  0  0
   25.8835  -18.3794  -15.2833 C   0  0  0  0  0  0  0  0  0  0  0  0
   27.2364  -18.9330  -15.1431 C   0  0  0  0  0  0  0  0  0  0  0  0
   27.3365  -20.2434  -15.9436 C   0  0  0  0  0  0  0  0  0  0  0  0
   28.6940  -20.8591  -15.8962 C   0  0  0  0  0  0  0  0  0  0  0  0
   28.6349  -22.1404  -16.5931 N   0  0  0  0  0  0  0  0  0  0  0  0
   24.8224  -19.3942  -13.2386 C   0  0  0  0  0  0  0  0  0  0  0  0
   24.5027  -18.4088  -12.4768 O   0  0  0  0  0  0  0  0  0  0  0  0
   25.2024  -20.5785  -12.5809 N   0  0  0  0  0  0  0  0  0  0  0  0
   25.4224  -21.8816  -13.2024 C   0  0  0  0  0  0  0  0  0  0  0  0
   24.9693  -22.8635  -12.1175 C   0  0  0  0  0  0  0  0  0  0  0  0
   25.6497  -22.2141  -10.9320 C   0  0  0  0  0  0  0  0  0  0  0  0
   25.4408  -20.7620  -11.1641 C   0  0  1  0  0  0  0  0  0  0  0  0
   26.5176  -19.9078  -10.6513 C   0  0  0  0  0  0  0  0  0  0  0  0
   26.5057  -19.5316   -9.3202 O   0  0  0  0  0  0  0  0  0  0  0  0
   27.4529  -19.5044  -11.3799 O   0  0  0  0  0  0  0  0  0  0  0  0
  2  1  1  6
  2  3  1  0
  3  4  1  0
  4  8  1  0
  5  4  2  0
  5  6  1  0
  6  7  1  0
  8  7  2  0
  9  2  1  0
 10  9  2  0
 11  9  1  0
 12 11  1  0
 12 13  1  1
 13 14  1  0
 15 14  1  0
 16 17  1  0
 16 15  1  0
 18 12  1  0
 19 18  2  0
 20 18  1  0
 20 21  1  0
 22 21  1  0
 23 24  1  0
 23 22  1  0
 24 25  1  6
 24 20  1  0
 25 26  1  0
 27 25  2  0
M  END
$$$$
