HKP.pdb
     RDKit          3D

 27 28  0  0  1  0  0  0  0  0999 V2000
   21.6775  -12.3419  -17.5303 N   0  0  0  0  0  0  0  0  0  0  0  0
   22.3061  -13.3857  -18.2718 C   0  0  1  0  0  0  0  0  0  0  0  0
   23.5097  -12.8977  -19.0763 C   0  0  0  0  0  0  0  0  0  0  0  0
   23.1020  -12.0233  -20.1984 C   0  0  0  0  0  0  0  0  0  0  0  0
   22.8054  -12.4136  -21.4749 C   0  0  0  0  0  0  0  0  0  0  0  0
   22.4798  -11.2989  -22.1832 N   0  0  0  0  0  0  0  0  0  0  0  0
   22.5690  -10.2170  -21.3664 C   0  0  0  0  0  0  0  0  0  0  0  0
   22.9488  -10.6824  -20.1651 N   0  0  0  0  0  0  0  0  0  0  0  0
   22.8170  -14.4158  -17.3389 C   0  0  0  0  0  0  0  0  0  0  0  0
   23.4921  -14.0360  -16.3473 O   0  0  0  0  0  0  0  0  0  0  0  0
   22.5629  -15.7824  -17.5427 N   0  0  0  0  0  0  0  0  0  0  0  0
   23.1374  -16.7724  -16.6107 C   0  0  1  0  0  0  0  0  0  0  0  0
   22.1124  -17.8840  -16.5677 C   0  0  0  0  0  0  0  0  0  0  0  0
   22.4677  -19.1002  -15.8255 C   0  0  0  0  0  0  0  0  0  0  0  0
   21.3236  -19.4622  -14.8621 C   0  0  0  0  0  0  0  0  0  0  0  0
   21.6276  -20.6451  -14.0063 C   0  0  0  0  0  0  0  0  0  0  0  0
   20.6017  -20.7313  -12.9715 N   0  0  0  0  0  0  0  0  0  0  0  0
   24.4780  -17.1513  -17.0189 C   0  0  0  0  0  0  0  0  0  0  0  0
   24.6333  -17.4897  -18.2498 O   0  0  0  0  0  0  0  0  0  0  0  0
   25.6377  -17.1865  -16.2231 N   0  0  0  0  0  0  0  0  0  0  0  0
   25.7670  -16.6826  -14.8586 C   0  0  0  0  0  0  0  0  0  0  0  0
   27.2164  -16.1894  -14.8074 C   0  0  0  0  0  0  0  0  0  0  0  0
   27.8770  -17.3709  -15.4841 C   0  0  0  0  0  0  0  0  0  0  0  0
   26.9389  -17.7100  -16.5847 C   0  0  1  0  0  0  0  0  0  0  0  0
   26.9046  -19.1352  -16.9308 C   0  0  0  0  0  0  0  0  0  0  0  0
   25.7869  -19.8827  -16.6058 O   0  0  0  0  0  0  0  0  0  0  0  0
   27.8567  -19.7029  -17.5135 O   0  0  0  0  0  0  0  0  0  0  0  0
  2  1  1  1
  2  3  1  0
  3  4  1  0
  4  8  1  0
  5  4  2  0
  5  6  1  0
  6  7  1  0
  8  7  2  0
  9  2  1  0
 10  9  2  0
 11  9  1  0
 12 11  1  0
 12 13  1  6
 13 14  1  0
 15 14  1  0
 16 17  1  0
 16 15  1  0
 18 12  1  0
 19 18  2  0
 20 18  1  0
 20 21  1  0
 22 21  1  0
 23 24  1  0
 23 22  1  0
 24 25  1  1
 24 20  1  0
 25 26  1  0
 27 25  2  0
M  END
$$$$
