HKP.pdb
     RDKit          3D

 27 28  0  0  1  0  0  0  0  0999 V2000
   16.4563  -13.5995  -17.1250 N   0  0  0  0  0  0  0  0  0  0  0  0
   16.7871  -12.2668  -17.5109 C   0  0  1  0  0  0  0  0  0  0  0  0
   15.7857  -11.2354  -16.9939 C   0  0  0  0  0  0  0  0  0  0  0  0
   14.4484  -11.4163  -17.6010 C   0  0  0  0  0  0  0  0  0  0  0  0
   13.9560  -10.7753  -18.7038 C   0  0  0  0  0  0  0  0  0  0  0  0
   12.6937  -11.2338  -18.9198 N   0  0  0  0  0  0  0  0  0  0  0  0
   12.3905  -12.1529  -17.9664 C   0  0  0  0  0  0  0  0  0  0  0  0
   13.4725  -12.2469  -17.1762 N   0  0  0  0  0  0  0  0  0  0  0  0
   18.1011  -11.8979  -16.9366 C   0  0  0  0  0  0  0  0  0  0  0  0
   18.3394  -12.2213  -15.7442 O   0  0  0  0  0  0  0  0  0  0  0  0
   19.0642  -11.2062  -17.6901 N   0  0  0  0  0  0  0  0  0  0  0  0
   20.4058  -10.9805  -17.1178 C   0  0  1  0  0  0  0  0  0  0  0  0
   21.3459  -11.1493  -18.2908 C   0  0  0  0  0  0  0  0  0  0  0  0
   21.6257  -12.5194  -18.7387 C   0  0  0  0  0  0  0  0  0  0  0  0
   22.5821  -12.4767  -19.9435 C   0  0  0  0  0  0  0  0  0  0  0  0
   22.8392  -13.8200  -20.5381 C   0  0  0  0  0  0  0  0  0  0  0  0
   23.7791  -13.6543  -21.6425 N   0  0  0  0  0  0  0  0  0  0  0  0
   20.4661   -9.7059  -16.4255 C   0  0  0  0  0  0  0  0  0  0  0  0
   19.7462   -8.7538  -16.9040 O   0  0  0  0  0  0  0  0  0  0  0  0
   21.2196   -9.3879  -15.2807 N   0  0  0  0  0  0  0  0  0  0  0  0
   22.0034  -10.3192  -14.4739 C   0  0  0  0  0  0  0  0  0  0  0  0
   21.8740   -9.7456  -13.0594 C   0  0  0  0  0  0  0  0  0  0  0  0
   22.1151   -8.2882  -13.3878 C   0  0  0  0  0  0  0  0  0  0  0  0
   21.3677   -8.0896  -14.6559 C   0  0  1  0  0  0  0  0  0  0  0  0
   21.9558   -7.0885  -15.5526 C   0  0  0  0  0  0  0  0  0  0  0  0
   21.7583   -5.7452  -15.2879 O   0  0  0  0  0  0  0  0  0  0  0  0
   22.6344   -7.4085  -16.5555 O   0  0  0  0  0  0  0  0  0  0  0  0
  2  1  1  1
  2  3  1  0
  3  4  1  0
  4  8  1  0
  5  4  2  0
  5  6  1  0
  6  7  1  0
  8  7  2  0
  9  2  1  0
 10  9  2  0
 11  9  1  0
 12 11  1  0
 12 13  1  6
 13 14  1  0
 15 14  1  0
 16 17  1  0
 16 15  1  0
 18 12  1  0
 19 18  2  0
 20 18  1  0
 20 21  1  0
 22 21  1  0
 23 24  1  0
 23 22  1  0
 24 25  1  6
 24 20  1  0
 25 26  1  0
 27 25  2  0
M  END
$$$$
