HKP.pdb
     RDKit          3D

 27 28  0  0  1  0  0  0  0  0999 V2000
   20.4043  -21.4727  -16.7035 N   0  0  0  0  0  0  0  0  0  0  0  0
   20.7110  -20.4826  -15.7237 C   0  0  1  0  0  0  0  0  0  0  0  0
   19.8344  -20.5922  -14.4774 C   0  0  0  0  0  0  0  0  0  0  0  0
   18.5615  -19.8541  -14.6349 C   0  0  0  0  0  0  0  0  0  0  0  0
   17.3614  -20.3683  -15.0411 C   0  0  0  0  0  0  0  0  0  0  0  0
   16.4570  -19.3523  -15.0480 N   0  0  0  0  0  0  0  0  0  0  0  0
   17.0760  -18.2097  -14.6516 C   0  0  0  0  0  0  0  0  0  0  0  0
   18.3545  -18.5399  -14.4059 N   0  0  0  0  0  0  0  0  0  0  0  0
   22.1092  -20.6553  -15.2677 C   0  0  0  0  0  0  0  0  0  0  0  0
   22.5149  -21.8217  -15.0264 O   0  0  0  0  0  0  0  0  0  0  0  0
   22.9698  -19.5570  -15.1045 N   0  0  0  0  0  0  0  0  0  0  0  0
   24.3559  -19.7845  -14.6512 C   0  0  1  0  0  0  0  0  0  0  0  0
   25.1376  -18.6348  -15.2473 C   0  0  0  0  0  0  0  0  0  0  0  0
   26.3729  -18.9626  -15.9704 C   0  0  0  0  0  0  0  0  0  0  0  0
   27.0181  -17.6663  -16.4914 C   0  0  0  0  0  0  0  0  0  0  0  0
   28.3152  -17.8950  -17.1909 C   0  0  0  0  0  0  0  0  0  0  0  0
   28.8599  -16.5954  -17.5716 N   0  0  0  0  0  0  0  0  0  0  0  0
   24.4133  -19.9188  -13.2069 C   0  0  0  0  0  0  0  0  0  0  0  0
   23.5423  -19.2578  -12.5300 O   0  0  0  0  0  0  0  0  0  0  0  0
   25.3117  -20.6972  -12.4542 N   0  0  0  0  0  0  0  0  0  0  0  0
   26.3857  -21.5336  -12.9828 C   0  0  0  0  0  0  0  0  0  0  0  0
   26.4411  -22.6963  -11.9871 C   0  0  0  0  0  0  0  0  0  0  0  0
   26.3611  -21.8953  -10.7056 C   0  0  0  0  0  0  0  0  0  0  0  0
   25.3564  -20.8458  -11.0141 C   0  0  1  0  0  0  0  0  0  0  0  0
   25.5775  -19.5747  -10.3158 C   0  0  0  0  0  0  0  0  0  0  0  0
   25.1383  -19.4350   -9.0115 O   0  0  0  0  0  0  0  0  0  0  0  0
   26.1532  -18.6055  -10.8616 O   0  0  0  0  0  0  0  0  0  0  0  0
  2  1  1  6
  2  3  1  0
  3  4  1  0
  4  8  1  0
  5  4  2  0
  5  6  1  0
  6  7  1  0
  8  7  2  0
  9  2  1  0
 10  9  2  0
 11  9  1  0
 12 11  1  0
 12 13  1  1
 13 14  1  0
 15 14  1  0
 16 17  1  0
 16 15  1  0
 18 12  1  0
 19 18  2  0
 20 18  1  0
 20 21  1  0
 22 21  1  0
 23 24  1  0
 23 22  1  0
 24 25  1  1
 24 20  1  0
 25 26  1  0
 27 25  2  0
M  END
$$$$
