HKP.pdb
     RDKit          3D

 27 28  0  0  1  0  0  0  0  0999 V2000
   12.2714  -14.9871    2.7244 N   0  0  0  0  0  0  0  0  0  0  0  0
   13.6813  -15.1579    2.8558 C   0  0  1  0  0  0  0  0  0  0  0  0
   14.3109  -14.1573    3.8233 C   0  0  0  0  0  0  0  0  0  0  0  0
   14.2795  -12.7791    3.2853 C   0  0  0  0  0  0  0  0  0  0  0  0
   15.2230  -12.1881    2.4915 C   0  0  0  0  0  0  0  0  0  0  0  0
   14.8052  -10.9213    2.2254 N   0  0  0  0  0  0  0  0  0  0  0  0
   13.6130  -10.7126    2.8424 C   0  0  0  0  0  0  0  0  0  0  0  0
   13.3139  -11.8561    3.4803 N   0  0  0  0  0  0  0  0  0  0  0  0
   13.9670  -16.5042    3.4023 C   0  0  0  0  0  0  0  0  0  0  0  0
   13.1316  -17.0127    4.1940 O   0  0  0  0  0  0  0  0  0  0  0  0
   15.1338  -17.2055    3.0555 N   0  0  0  0  0  0  0  0  0  0  0  0
   15.2602  -18.6286    3.4260 C   0  0  1  0  0  0  0  0  0  0  0  0
   15.9586  -19.2622    2.2432 C   0  0  0  0  0  0  0  0  0  0  0  0
   16.3629  -20.6679    2.3728 C   0  0  0  0  0  0  0  0  0  0  0  0
   15.3711  -21.5568    1.6019 C   0  0  0  0  0  0  0  0  0  0  0  0
   15.7387  -23.0020    1.6217 C   0  0  0  0  0  0  0  0  0  0  0  0
   14.7774  -23.7253    0.7950 N   0  0  0  0  0  0  0  0  0  0  0  0
   15.9177  -18.7729    4.7122 C   0  0  0  0  0  0  0  0  0  0  0  0
   16.9159  -17.9952    4.9413 O   0  0  0  0  0  0  0  0  0  0  0  0
   15.5861  -19.6651    5.7483 N   0  0  0  0  0  0  0  0  0  0  0  0
   14.4363  -20.5648    5.7811 C   0  0  0  0  0  0  0  0  0  0  0  0
   14.0768  -20.6130    7.2694 C   0  0  0  0  0  0  0  0  0  0  0  0
   15.4723  -20.7829    7.8296 C   0  0  0  0  0  0  0  0  0  0  0  0
   16.2953  -19.8714    6.9942 C   0  0  1  0  0  0  0  0  0  0  0  0
   17.6785  -20.3182    6.7962 C   0  0  0  0  0  0  0  0  0  0  0  0
   18.5497  -20.3158    7.8707 O   0  0  0  0  0  0  0  0  0  0  0  0
   18.1015  -20.7043    5.6824 O   0  0  0  0  0  0  0  0  0  0  0  0
  2  1  1  1
  2  3  1  0
  3  4  1  0
  4  8  1  0
  5  4  2  0
  5  6  1  0
  6  7  1  0
  8  7  2  0
  9  2  1  0
 10  9  2  0
 11  9  1  0
 12 11  1  0
 12 13  1  6
 13 14  1  0
 15 14  1  0
 16 17  1  0
 16 15  1  0
 18 12  1  0
 19 18  2  0
 20 18  1  0
 20 21  1  0
 22 21  1  0
 23 24  1  0
 23 22  1  0
 24 25  1  6
 24 20  1  0
 25 26  1  0
 27 25  2  0
M  END
$$$$
