HKP.pdb
     RDKit          3D

 27 28  0  0  1  0  0  0  0  0999 V2000
   27.5207  -21.3659  -17.7820 N   0  0  0  0  0  0  0  0  0  0  0  0
   27.3185  -22.0086  -16.5249 C   0  0  1  0  0  0  0  0  0  0  0  0
   28.6279  -22.4128  -15.8496 C   0  0  0  0  0  0  0  0  0  0  0  0
   29.3229  -23.4844  -16.5969 C   0  0  0  0  0  0  0  0  0  0  0  0
   29.1083  -24.8304  -16.4881 C   0  0  0  0  0  0  0  0  0  0  0  0
   29.9553  -25.4554  -17.3496 N   0  0  0  0  0  0  0  0  0  0  0  0
   30.6966  -24.5178  -17.9954 C   0  0  0  0  0  0  0  0  0  0  0  0
   30.2942  -23.3274  -17.5211 N   0  0  0  0  0  0  0  0  0  0  0  0
   26.6402  -21.0755  -15.5964 C   0  0  0  0  0  0  0  0  0  0  0  0
   27.2481  -20.0262  -15.2605 O   0  0  0  0  0  0  0  0  0  0  0  0
   25.3544  -21.3413  -15.0968 N   0  0  0  0  0  0  0  0  0  0  0  0
   24.7113  -20.3644  -14.1965 C   0  0  1  0  0  0  0  0  0  0  0  0
   23.6075  -19.7556  -15.0326 C   0  0  0  0  0  0  0  0  0  0  0  0
   24.0056  -18.8561  -16.1228 C   0  0  0  0  0  0  0  0  0  0  0  0
   22.7481  -18.3510  -16.8521 C   0  0  0  0  0  0  0  0  0  0  0  0
   23.0557  -17.5994  -18.1029 C   0  0  0  0  0  0  0  0  0  0  0  0
   21.7974  -17.1126  -18.6599 N   0  0  0  0  0  0  0  0  0  0  0  0
   24.3021  -20.9953  -12.9548 C   0  0  0  0  0  0  0  0  0  0  0  0
   23.6153  -22.0778  -13.0555 O   0  0  0  0  0  0  0  0  0  0  0  0
   24.5751  -20.5630  -11.6440 N   0  0  0  0  0  0  0  0  0  0  0  0
   25.5270  -19.5262  -11.2548 C   0  0  0  0  0  0  0  0  0  0  0  0
   26.0415  -20.0198   -9.8991 C   0  0  0  0  0  0  0  0  0  0  0  0
   24.7143  -20.4131   -9.2876 C   0  0  0  0  0  0  0  0  0  0  0  0
   23.9895  -21.0551  -10.4140 C   0  0  1  0  0  0  0  0  0  0  0  0
   22.5329  -20.8872  -10.3682 C   0  0  0  0  0  0  0  0  0  0  0  0
   21.8042  -21.5670   -9.4087 O   0  0  0  0  0  0  0  0  0  0  0  0
   21.9216  -20.1460  -11.1717 O   0  0  0  0  0  0  0  0  0  0  0  0
  2  1  1  6
  2  3  1  0
  3  4  1  0
  4  8  1  0
  5  4  2  0
  5  6  1  0
  6  7  1  0
  8  7  2  0
  9  2  1  0
 10  9  2  0
 11  9  1  0
 12 11  1  0
 12 13  1  6
 13 14  1  0
 15 14  1  0
 16 17  1  0
 16 15  1  0
 18 12  1  0
 19 18  2  0
 20 18  1  0
 20 21  1  0
 22 21  1  0
 23 24  1  0
 23 22  1  0
 24 25  1  6
 24 20  1  0
 25 26  1  0
 27 25  2  0
M  END
$$$$
