HKP.pdb
     RDKit          3D

 27 28  0  0  1  0  0  0  0  0999 V2000
   14.3115  -22.7728   -3.4402 N   0  0  0  0  0  0  0  0  0  0  0  0
   13.7863  -23.1960   -2.1834 C   0  0  1  0  0  0  0  0  0  0  0  0
   14.3390  -24.5482   -1.7364 C   0  0  0  0  0  0  0  0  0  0  0  0
   13.8670  -25.6487   -2.6060 C   0  0  0  0  0  0  0  0  0  0  0  0
   12.9685  -26.6252   -2.2763 C   0  0  0  0  0  0  0  0  0  0  0  0
   12.8173  -27.4317   -3.3612 N   0  0  0  0  0  0  0  0  0  0  0  0
   13.6095  -26.9722   -4.3647 C   0  0  0  0  0  0  0  0  0  0  0  0
   14.2378  -25.8877   -3.8818 N   0  0  0  0  0  0  0  0  0  0  0  0
   14.1675  -22.2218   -1.1354 C   0  0  0  0  0  0  0  0  0  0  0  0
   15.3210  -21.7213   -1.1817 O   0  0  0  0  0  0  0  0  0  0  0  0
   13.2766  -21.8572   -0.1122 N   0  0  0  0  0  0  0  0  0  0  0  0
   13.6220  -20.7356    0.7830 C   0  0  1  0  0  0  0  0  0  0  0  0
   12.3101  -20.0156    1.0035 C   0  0  0  0  0  0  0  0  0  0  0  0
   11.8683  -19.0841   -0.0421 C   0  0  0  0  0  0  0  0  0  0  0  0
   10.6218  -18.3246    0.4451 C   0  0  0  0  0  0  0  0  0  0  0  0
   10.0863  -17.3651   -0.5632 C   0  0  0  0  0  0  0  0  0  0  0  0
    8.8683  -16.7709   -0.0210 N   0  0  0  0  0  0  0  0  0  0  0  0
   14.2999  -21.2135    1.9745 C   0  0  0  0  0  0  0  0  0  0  0  0
   14.0326  -22.4142    2.3491 O   0  0  0  0  0  0  0  0  0  0  0  0
   15.2265  -20.5156    2.7706 N   0  0  0  0  0  0  0  0  0  0  0  0
   15.7287  -19.1652    2.5323 C   0  0  0  0  0  0  0  0  0  0  0  0
   17.1655  -19.2321    3.0593 C   0  0  0  0  0  0  0  0  0  0  0  0
   16.8927  -19.9632    4.3559 C   0  0  0  0  0  0  0  0  0  0  0  0
   15.8835  -20.9838    3.9735 C   0  0  1  0  0  0  0  0  0  0  0  0
   14.9394  -21.3289    5.0419 C   0  0  0  0  0  0  0  0  0  0  0  0
   15.3559  -22.1538    6.0713 O   0  0  0  0  0  0  0  0  0  0  0  0
   13.7625  -20.9009    5.0556 O   0  0  0  0  0  0  0  0  0  0  0  0
  2  1  1  6
  2  3  1  0
  3  4  1  0
  4  8  1  0
  5  4  2  0
  5  6  1  0
  6  7  1  0
  8  7  2  0
  9  2  1  0
 10  9  2  0
 11  9  1  0
 12 11  1  0
 12 13  1  1
 13 14  1  0
 15 14  1  0
 16 17  1  0
 16 15  1  0
 18 12  1  0
 19 18  2  0
 20 18  1  0
 20 21  1  0
 22 21  1  0
 23 24  1  0
 23 22  1  0
 24 25  1  1
 24 20  1  0
 25 26  1  0
 27 25  2  0
M  END
$$$$
