HKP.pdb
     RDKit          3D

 27 28  0  0  1  0  0  0  0  0999 V2000
   26.9106  -17.8545  -16.9512 N   0  0  0  0  0  0  0  0  0  0  0  0
   26.0655  -17.4878  -15.8623 C   0  0  1  0  0  0  0  0  0  0  0  0
   25.1247  -16.3343  -16.2061 C   0  0  0  0  0  0  0  0  0  0  0  0
   25.8232  -15.0300  -16.1805 C   0  0  0  0  0  0  0  0  0  0  0  0
   27.1301  -14.8072  -15.8457 C   0  0  0  0  0  0  0  0  0  0  0  0
   27.3630  -13.4714  -15.9539 N   0  0  0  0  0  0  0  0  0  0  0  0
   26.2189  -12.8562  -16.3519 C   0  0  0  0  0  0  0  0  0  0  0  0
   25.2970  -13.8242  -16.4831 N   0  0  0  0  0  0  0  0  0  0  0  0
   25.2037  -18.6354  -15.4977 C   0  0  0  0  0  0  0  0  0  0  0  0
   24.7360  -19.3448  -16.4257 O   0  0  0  0  0  0  0  0  0  0  0  0
   24.9081  -18.9355  -14.1575 N   0  0  0  0  0  0  0  0  0  0  0  0
   24.1839  -20.1812  -13.8373 C   0  0  1  0  0  0  0  0  0  0  0  0
   24.7308  -20.5955  -12.4891 C   0  0  0  0  0  0  0  0  0  0  0  0
   26.0417  -21.2569  -12.4678 C   0  0  0  0  0  0  0  0  0  0  0  0
   26.4424  -21.5475  -11.0107 C   0  0  0  0  0  0  0  0  0  0  0  0
   27.7749  -22.2059  -10.8875 C   0  0  0  0  0  0  0  0  0  0  0  0
   28.7337  -21.4395  -11.6775 N   0  0  0  0  0  0  0  0  0  0  0  0
   22.7482  -19.9800  -13.9130 C   0  0  0  0  0  0  0  0  0  0  0  0
   22.2916  -18.8834  -13.4206 O   0  0  0  0  0  0  0  0  0  0  0  0
   21.7903  -20.8464  -14.4711 N   0  0  0  0  0  0  0  0  0  0  0  0
   22.0597  -22.1000  -15.1699 C   0  0  0  0  0  0  0  0  0  0  0  0
   20.9443  -22.1586  -16.2182 C   0  0  0  0  0  0  0  0  0  0  0  0
   19.7850  -21.7587  -15.3316 C   0  0  0  0  0  0  0  0  0  0  0  0
   20.3518  -20.6779  -14.4850 C   0  0  1  0  0  0  0  0  0  0  0  0
   19.7734  -20.5993  -13.1392 C   0  0  0  0  0  0  0  0  0  0  0  0
   18.6173  -19.8656  -12.9424 O   0  0  0  0  0  0  0  0  0  0  0  0
   20.2920  -21.1762  -12.1559 O   0  0  0  0  0  0  0  0  0  0  0  0
  2  1  1  6
  2  3  1  0
  3  4  1  0
  4  8  1  0
  5  4  2  0
  5  6  1  0
  6  7  1  0
  8  7  2  0
  9  2  1  0
 10  9  2  0
 11  9  1  0
 12 11  1  0
 12 13  1  1
 13 14  1  0
 15 14  1  0
 16 17  1  0
 16 15  1  0
 18 12  1  0
 19 18  2  0
 20 18  1  0
 20 21  1  0
 22 21  1  0
 23 24  1  0
 23 22  1  0
 24 25  1  1
 24 20  1  0
 25 26  1  0
 27 25  2  0
M  END
$$$$
