HKP.pdb
     RDKit          3D

 27 28  0  0  1  0  0  0  0  0999 V2000
   28.2711  -18.5040  -17.1619 N   0  0  0  0  0  0  0  0  0  0  0  0
   27.5544  -18.0168  -16.0290 C   0  0  1  0  0  0  0  0  0  0  0  0
   26.4074  -17.0830  -16.4114 C   0  0  0  0  0  0  0  0  0  0  0  0
   26.8751  -15.6941  -16.6158 C   0  0  0  0  0  0  0  0  0  0  0  0
   27.0114  -14.7266  -15.6593 C   0  0  0  0  0  0  0  0  0  0  0  0
   27.4678  -13.6009  -16.2715 N   0  0  0  0  0  0  0  0  0  0  0  0
   27.6186  -13.8519  -17.5981 C   0  0  0  0  0  0  0  0  0  0  0  0
   27.2522  -15.1308  -17.7833 N   0  0  0  0  0  0  0  0  0  0  0  0
   26.9432  -19.1545  -15.3045 C   0  0  0  0  0  0  0  0  0  0  0  0
   26.5080  -20.1230  -15.9796 O   0  0  0  0  0  0  0  0  0  0  0  0
   26.8453  -19.1657  -13.9031 N   0  0  0  0  0  0  0  0  0  0  0  0
   26.1264  -20.2690  -13.2364 C   0  0  1  0  0  0  0  0  0  0  0  0
   26.4324  -20.0806  -11.7671 C   0  0  0  0  0  0  0  0  0  0  0  0
   25.6797  -20.9025  -10.8110 C   0  0  0  0  0  0  0  0  0  0  0  0
   26.1268  -20.5577   -9.3794 C   0  0  0  0  0  0  0  0  0  0  0  0
   25.4770  -21.4068   -8.3398 C   0  0  0  0  0  0  0  0  0  0  0  0
   26.0381  -21.0432   -7.0422 N   0  0  0  0  0  0  0  0  0  0  0  0
   24.7221  -20.2695  -13.6044 C   0  0  0  0  0  0  0  0  0  0  0  0
   24.1502  -19.1220  -13.7034 O   0  0  0  0  0  0  0  0  0  0  0  0
   23.9078  -21.3848  -13.8739 N   0  0  0  0  0  0  0  0  0  0  0  0
   24.3486  -22.7729  -13.9809 C   0  0  0  0  0  0  0  0  0  0  0  0
   23.4033  -23.3560  -15.0359 C   0  0  0  0  0  0  0  0  0  0  0  0
   22.1058  -22.7755  -14.5167 C   0  0  0  0  0  0  0  0  0  0  0  0
   22.4794  -21.3956  -14.1134 C   0  0  1  0  0  0  0  0  0  0  0  0
   21.7073  -20.8671  -12.9836 C   0  0  0  0  0  0  0  0  0  0  0  0
   20.4474  -20.3435  -13.2121 O   0  0  0  0  0  0  0  0  0  0  0  0
   22.1506  -20.8729  -11.8122 O   0  0  0  0  0  0  0  0  0  0  0  0
  2  1  1  6
  2  3  1  0
  3  4  1  0
  4  8  1  0
  5  4  2  0
  5  6  1  0
  6  7  1  0
  8  7  2  0
  9  2  1  0
 10  9  2  0
 11  9  1  0
 12 11  1  0
 12 13  1  1
 13 14  1  0
 15 14  1  0
 16 17  1  0
 16 15  1  0
 18 12  1  0
 19 18  2  0
 20 18  1  0
 20 21  1  0
 22 21  1  0
 23 24  1  0
 23 22  1  0
 24 25  1  1
 24 20  1  0
 25 26  1  0
 27 25  2  0
M  END
$$$$
