HKP.pdb
     RDKit          3D

 27 28  0  0  1  0  0  0  0  0999 V2000
   23.3197  -20.9871  -15.7788 N   0  0  0  0  0  0  0  0  0  0  0  0
   23.8810  -19.9678  -14.9539 C   0  0  1  0  0  0  0  0  0  0  0  0
   22.8291  -19.0068  -14.4027 C   0  0  0  0  0  0  0  0  0  0  0  0
   22.2321  -18.1748  -15.4709 C   0  0  0  0  0  0  0  0  0  0  0  0
   22.8925  -17.3183  -16.3074 C   0  0  0  0  0  0  0  0  0  0  0  0
   21.9713  -16.7566  -17.1359 N   0  0  0  0  0  0  0  0  0  0  0  0
   20.7438  -17.2508  -16.8282 C   0  0  0  0  0  0  0  0  0  0  0  0
   20.9278  -18.1109  -15.8131 N   0  0  0  0  0  0  0  0  0  0  0  0
   24.5369  -20.5877  -13.7799 C   0  0  0  0  0  0  0  0  0  0  0  0
   23.8682  -21.3953  -13.0843 O   0  0  0  0  0  0  0  0  0  0  0  0
   25.8676  -20.2918  -13.4405 N   0  0  0  0  0  0  0  0  0  0  0  0
   26.4761  -20.9421  -12.2634 C   0  0  1  0  0  0  0  0  0  0  0  0
   27.9223  -21.1481  -12.6562 C   0  0  0  0  0  0  0  0  0  0  0  0
   28.8328  -21.6671  -11.6276 C   0  0  0  0  0  0  0  0  0  0  0  0
   30.2715  -21.6679  -12.1736 C   0  0  0  0  0  0  0  0  0  0  0  0
   31.2776  -22.1399  -11.1792 C   0  0  0  0  0  0  0  0  0  0  0  0
   32.5991  -22.0453  -11.7919 N   0  0  0  0  0  0  0  0  0  0  0  0
   26.2426  -20.1617  -11.0618 C   0  0  0  0  0  0  0  0  0  0  0  0
   26.3853  -18.8878  -11.1632 O   0  0  0  0  0  0  0  0  0  0  0  0
   25.8696  -20.6369   -9.7911 N   0  0  0  0  0  0  0  0  0  0  0  0
   25.5584  -22.0200   -9.4410 C   0  0  0  0  0  0  0  0  0  0  0  0
   24.4846  -21.8702   -8.3590 C   0  0  0  0  0  0  0  0  0  0  0  0
   25.1403  -20.7756   -7.5454 C   0  0  0  0  0  0  0  0  0  0  0  0
   25.7028  -19.8661   -8.5762 C   0  0  1  0  0  0  0  0  0  0  0  0
   26.9298  -19.1745   -8.1661 C   0  0  0  0  0  0  0  0  0  0  0  0
   26.8445  -18.1144   -7.2815 O   0  0  0  0  0  0  0  0  0  0  0  0
   28.0588  -19.5115   -8.5908 O   0  0  0  0  0  0  0  0  0  0  0  0
  2  1  1  6
  2  3  1  0
  3  4  1  0
  4  8  1  0
  5  4  2  0
  5  6  1  0
  6  7  1  0
  8  7  2  0
  9  2  1  0
 10  9  2  0
 11  9  1  0
 12 11  1  0
 12 13  1  6
 13 14  1  0
 15 14  1  0
 16 17  1  0
 16 15  1  0
 18 12  1  0
 19 18  2  0
 20 18  1  0
 20 21  1  0
 22 21  1  0
 23 24  1  0
 23 22  1  0
 24 25  1  1
 24 20  1  0
 25 26  1  0
 27 25  2  0
M  END
$$$$
