HKP.pdb
     RDKit          3D

 27 28  0  0  1  0  0  0  0  0999 V2000
   25.7320  -26.2666  -18.4390 N   0  0  0  0  0  0  0  0  0  0  0  0
   26.2541  -25.7449  -17.2185 C   0  0  1  0  0  0  0  0  0  0  0  0
   27.7733  -25.8737  -17.1220 C   0  0  0  0  0  0  0  0  0  0  0  0
   28.2029  -27.2893  -17.0848 C   0  0  0  0  0  0  0  0  0  0  0  0
   28.4049  -28.0548  -15.9701 C   0  0  0  0  0  0  0  0  0  0  0  0
   28.7925  -29.2919  -16.3823 N   0  0  0  0  0  0  0  0  0  0  0  0
   28.8354  -29.3096  -17.7401 C   0  0  0  0  0  0  0  0  0  0  0  0
   28.4730  -28.0810  -18.1444 N   0  0  0  0  0  0  0  0  0  0  0  0
   25.9509  -24.2982  -17.1299 C   0  0  0  0  0  0  0  0  0  0  0  0
   26.1904  -23.5791  -18.1342 O   0  0  0  0  0  0  0  0  0  0  0  0
   25.4110  -23.7308  -15.9636 N   0  0  0  0  0  0  0  0  0  0  0  0
   24.9438  -22.3310  -15.9889 C   0  0  1  0  0  0  0  0  0  0  0  0
   23.4367  -22.4385  -15.9166 C   0  0  0  0  0  0  0  0  0  0  0  0
   22.7007  -22.4603  -17.1871 C   0  0  0  0  0  0  0  0  0  0  0  0
   21.2018  -22.6646  -16.9046 C   0  0  0  0  0  0  0  0  0  0  0  0
   20.3907  -22.8533  -18.1418 C   0  0  0  0  0  0  0  0  0  0  0  0
   19.0169  -23.1436  -17.7429 N   0  0  0  0  0  0  0  0  0  0  0  0
   25.5823  -21.5526  -14.9431 C   0  0  0  0  0  0  0  0  0  0  0  0
   25.5652  -22.0525  -13.7584 O   0  0  0  0  0  0  0  0  0  0  0  0
   26.2282  -20.3095  -15.0739 N   0  0  0  0  0  0  0  0  0  0  0  0
   26.5069  -19.6059  -16.3228 C   0  0  0  0  0  0  0  0  0  0  0  0
   27.8299  -18.8914  -16.0300 C   0  0  0  0  0  0  0  0  0  0  0  0
   27.4933  -18.3553  -14.6554 C   0  0  0  0  0  0  0  0  0  0  0  0
   26.7608  -19.4774  -14.0147 C   0  0  1  0  0  0  0  0  0  0  0  0
   25.7384  -19.0579  -13.0499 C   0  0  0  0  0  0  0  0  0  0  0  0
   26.1227  -18.7053  -11.7686 O   0  0  0  0  0  0  0  0  0  0  0  0
   24.5227  -19.0074  -13.3464 O   0  0  0  0  0  0  0  0  0  0  0  0
  2  1  1  6
  2  3  1  0
  3  4  1  0
  4  8  1  0
  5  4  2  0
  5  6  1  0
  6  7  1  0
  8  7  2  0
  9  2  1  0
 10  9  2  0
 11  9  1  0
 12 11  1  0
 12 13  1  1
 13 14  1  0
 15 14  1  0
 16 17  1  0
 16 15  1  0
 18 12  1  0
 19 18  2  0
 20 18  1  0
 20 21  1  0
 22 21  1  0
 23 24  1  0
 23 22  1  0
 24 25  1  6
 24 20  1  0
 25 26  1  0
 27 25  2  0
M  END
$$$$
