GEQ.pdb
     RDKit          3D

 23 22  0  0  1  0  0  0  0  0999 V2000
   28.2149  -21.9557  -17.0059 N   0  0  0  0  0  0  0  0  0  0  0  0
   27.9738  -21.0640  -15.9027 C   0  0  0  0  0  0  0  0  0  0  0  0
   26.7903  -21.5509  -15.0871 C   0  0  0  0  0  0  0  0  0  0  0  0
   26.0596  -22.3413  -15.6321 O   0  0  0  0  0  0  0  0  0  0  0  0
   26.5764  -21.0961  -13.7751 N   0  0  0  0  0  0  0  0  0  0  0  0
   25.5269  -21.1948  -12.8655 C   0  0  1  0  0  0  0  0  0  0  0  0
   25.8224  -20.8812  -11.3958 C   0  0  0  0  0  0  0  0  0  0  0  0
   24.7773  -21.2361  -10.4044 C   0  0  0  0  0  0  0  0  0  0  0  0
   25.3378  -21.0170   -9.0585 C   0  0  0  0  0  0  0  0  0  0  0  0
   25.6558  -21.9458   -8.3164 O   0  0  0  0  0  0  0  0  0  0  0  0
   24.2894  -20.4938  -13.1555 C   0  0  0  0  0  0  0  0  0  0  0  0
   24.4688  -19.2245  -13.4090 O   0  0  0  0  0  0  0  0  0  0  0  0
   25.4994  -19.6754   -8.6328 O   0  0  0  0  0  0  0  0  0  0  0  0
   22.3432  -20.2356  -18.0903 N   0  0  0  0  0  0  0  0  0  0  0  0
   21.1638  -19.6913  -17.5034 C   0  0  0  0  0  0  0  0  0  0  0  0
   20.3289  -19.1699  -18.3120 O   0  0  0  0  0  0  0  0  0  0  0  0
   20.9407  -19.7356  -16.0308 C   0  0  0  0  0  0  0  0  0  0  0  0
   22.0582  -20.2986  -15.2416 C   0  0  0  0  0  0  0  0  0  0  0  0
   21.8293  -20.3738  -13.7484 C   0  0  2  0  0  0  0  0  0  0  0  0
   23.0316  -21.0369  -13.1892 N   0  0  0  0  0  0  0  0  0  0  0  0
   20.6309  -21.1212  -13.3795 C   0  0  0  0  0  0  0  0  0  0  0  0
   19.4082  -20.4886  -13.3039 O   0  0  0  0  0  0  0  0  0  0  0  0
   20.6702  -22.3512  -13.1348 O   0  0  0  0  0  0  0  0  0  0  0  0
  1  2  1  0
  2  3  1  0
  3  5  1  0
  3  4  2  0
  5  6  1  0
  6 11  1  0
  6  7  1  1
  8  7  1  0
  9 13  1  0
  9  8  1  0
 10  9  2  0
 11 20  1  0
 11 12  2  0
 14 15  1  0
 15 17  1  0
 15 16  2  0
 17 18  1  0
 19 18  1  6
 19 21  1  0
 20 19  1  0
 21 22  1  0
 23 21  2  0
M  END
$$$$
