GEQ.pdb
     RDKit          3D

 23 22  0  0  1  0  0  0  0  0999 V2000
   11.8017  -13.7659  -10.9506 N   0  0  0  0  0  0  0  0  0  0  0  0
   12.1648  -12.8286  -11.9803 C   0  0  0  0  0  0  0  0  0  0  0  0
   13.4231  -12.0789  -11.5836 C   0  0  0  0  0  0  0  0  0  0  0  0
   13.5212  -11.7868  -10.4170 O   0  0  0  0  0  0  0  0  0  0  0  0
   14.4051  -11.7543  -12.5345 N   0  0  0  0  0  0  0  0  0  0  0  0
   15.5966  -11.0348  -12.5024 C   0  0  1  0  0  0  0  0  0  0  0  0
   16.6070  -11.2736  -13.6283 C   0  0  0  0  0  0  0  0  0  0  0  0
   17.0971  -12.6615  -13.8151 C   0  0  0  0  0  0  0  0  0  0  0  0
   18.1259  -12.6394  -14.8708 C   0  0  0  0  0  0  0  0  0  0  0  0
   18.4724  -11.6011  -15.4334 O   0  0  0  0  0  0  0  0  0  0  0  0
   15.5317   -9.5918  -12.3588 C   0  0  0  0  0  0  0  0  0  0  0  0
   14.5732   -9.0510  -13.0632 O   0  0  0  0  0  0  0  0  0  0  0  0
   18.7143  -13.8770  -15.2303 O   0  0  0  0  0  0  0  0  0  0  0  0
   15.0448   -6.7836   -7.1799 N   0  0  0  0  0  0  0  0  0  0  0  0
   15.2908   -5.6464   -8.0035 C   0  0  0  0  0  0  0  0  0  0  0  0
   15.1605   -4.5117   -7.4395 O   0  0  0  0  0  0  0  0  0  0  0  0
   15.6723   -5.7962   -9.4361 C   0  0  0  0  0  0  0  0  0  0  0  0
   15.8098   -7.1915   -9.9082 C   0  0  0  0  0  0  0  0  0  0  0  0
   16.1808   -7.3533  -11.3656 C   0  0  2  0  0  0  0  0  0  0  0  0
   16.3455   -8.8110  -11.5801 N   0  0  0  0  0  0  0  0  0  0  0  0
   17.4070   -6.6533  -11.7359 C   0  0  0  0  0  0  0  0  0  0  0  0
   17.3958   -5.2923  -11.9558 O   0  0  0  0  0  0  0  0  0  0  0  0
   18.5011   -7.2565  -11.8523 O   0  0  0  0  0  0  0  0  0  0  0  0
  1  2  1  0
  2  3  1  0
  3  5  1  0
  3  4  2  0
  5  6  1  0
  6 11  1  0
  6  7  1  6
  8  7  1  0
  9 13  1  0
  9  8  1  0
 10  9  2  0
 11 20  1  0
 11 12  2  0
 14 15  1  0
 15 17  1  0
 15 16  2  0
 17 18  1  0
 19 18  1  1
 19 21  1  0
 20 19  1  0
 21 22  1  0
 23 21  2  0
M  END
$$$$
