GEQ.pdb
     RDKit          3D

 23 22  0  0  1  0  0  0  0  0999 V2000
   12.0934  -14.6767  -11.5325 N   0  0  0  0  0  0  0  0  0  0  0  0
   12.5550  -13.6815  -12.4636 C   0  0  0  0  0  0  0  0  0  0  0  0
   13.7160  -12.9074  -11.8673 C   0  0  0  0  0  0  0  0  0  0  0  0
   13.7500  -12.8460  -10.6628 O   0  0  0  0  0  0  0  0  0  0  0  0
   14.6850  -12.3055  -12.6875 N   0  0  0  0  0  0  0  0  0  0  0  0
   15.8073  -11.5149  -12.4555 C   0  0  1  0  0  0  0  0  0  0  0  0
   17.0265  -11.7209  -13.3592 C   0  0  0  0  0  0  0  0  0  0  0  0
   16.7886  -11.7389  -14.8235 C   0  0  0  0  0  0  0  0  0  0  0  0
   18.0890  -11.9332  -15.4905 C   0  0  0  0  0  0  0  0  0  0  0  0
   18.6401  -13.0317  -15.5555 O   0  0  0  0  0  0  0  0  0  0  0  0
   15.6379  -10.0753  -12.3792 C   0  0  0  0  0  0  0  0  0  0  0  0
   14.8461   -9.6044  -13.3059 O   0  0  0  0  0  0  0  0  0  0  0  0
   18.7019  -10.7917  -16.0636 O   0  0  0  0  0  0  0  0  0  0  0  0
   15.7571   -6.5399   -7.1638 N   0  0  0  0  0  0  0  0  0  0  0  0
   14.6758   -6.2154   -8.0341 C   0  0  0  0  0  0  0  0  0  0  0  0
   13.7399   -5.5184   -7.5234 O   0  0  0  0  0  0  0  0  0  0  0  0
   14.6576   -6.6759   -9.4510 C   0  0  0  0  0  0  0  0  0  0  0  0
   15.8141   -7.5035   -9.8588 C   0  0  0  0  0  0  0  0  0  0  0  0
   15.9263   -7.7824  -11.3411 C   0  0  2  0  0  0  0  0  0  0  0  0
   16.2052   -9.2338  -11.4582 N   0  0  0  0  0  0  0  0  0  0  0  0
   16.9808   -7.0175  -11.9998 C   0  0  0  0  0  0  0  0  0  0  0  0
   16.8121   -5.6739  -12.2589 O   0  0  0  0  0  0  0  0  0  0  0  0
   18.0675   -7.5470  -12.3362 O   0  0  0  0  0  0  0  0  0  0  0  0
  1  2  1  0
  2  3  1  0
  3  5  1  0
  3  4  2  0
  5  6  1  0
  6 11  1  0
  6  7  1  6
  8  7  1  0
  9 13  1  0
  9  8  1  0
 10  9  2  0
 11 20  1  0
 11 12  2  0
 14 15  1  0
 15 17  1  0
 15 16  2  0
 17 18  1  0
 19 18  1  1
 19 21  1  0
 20 19  1  0
 21 22  1  0
 23 21  2  0
M  END
$$$$
