GEQ.pdb
     RDKit          3D

 23 22  0  0  1  0  0  0  0  0999 V2000
   21.2825  -19.3034  -17.4596 N   0  0  0  0  0  0  0  0  0  0  0  0
   22.6390  -18.9038  -17.1935 C   0  0  0  0  0  0  0  0  0  0  0  0
   23.2724  -19.8455  -16.1862 C   0  0  0  0  0  0  0  0  0  0  0  0
   22.5250  -20.6198  -15.6406 O   0  0  0  0  0  0  0  0  0  0  0  0
   24.6512  -19.8029  -15.9195 N   0  0  0  0  0  0  0  0  0  0  0  0
   25.4890  -20.4306  -15.0016 C   0  0  1  0  0  0  0  0  0  0  0  0
   26.9594  -20.6177  -15.3867 C   0  0  0  0  0  0  0  0  0  0  0  0
   27.2774  -21.7166  -16.3314 C   0  0  0  0  0  0  0  0  0  0  0  0
   28.7285  -21.6846  -16.5902 C   0  0  0  0  0  0  0  0  0  0  0  0
   29.4692  -22.6281  -16.3150 O   0  0  0  0  0  0  0  0  0  0  0  0
   25.5203  -19.9334  -13.6382 C   0  0  0  0  0  0  0  0  0  0  0  0
   25.4106  -18.6333  -13.5661 O   0  0  0  0  0  0  0  0  0  0  0  0
   29.2583  -20.5075  -17.1741 O   0  0  0  0  0  0  0  0  0  0  0  0
   21.2118  -18.9959  -11.8223 N   0  0  0  0  0  0  0  0  0  0  0  0
   21.4523  -19.5763  -10.5428 C   0  0  0  0  0  0  0  0  0  0  0  0
   20.6583  -19.2213   -9.6122 O   0  0  0  0  0  0  0  0  0  0  0  0
   22.5720  -20.5352  -10.3259 C   0  0  0  0  0  0  0  0  0  0  0  0
   23.4779  -20.7168  -11.4812 C   0  0  0  0  0  0  0  0  0  0  0  0
   24.9367  -20.4141  -11.2202 C   0  0  2  0  0  0  0  0  0  0  0  0
   25.6391  -20.6838  -12.4976 N   0  0  0  0  0  0  0  0  0  0  0  0
   25.5173  -21.2217  -10.1519 C   0  0  0  0  0  0  0  0  0  0  0  0
   25.7585  -20.6707   -8.9113 O   0  0  0  0  0  0  0  0  0  0  0  0
   25.8005  -22.4325  -10.3202 O   0  0  0  0  0  0  0  0  0  0  0  0
  1  2  1  0
  2  3  1  0
  3  5  1  0
  3  4  2  0
  5  6  1  0
  6 11  1  0
  6  7  1  6
  8  7  1  0
  9 13  1  0
  9  8  1  0
 10  9  2  0
 11 20  1  0
 11 12  2  0
 14 15  1  0
 15 17  1  0
 15 16  2  0
 17 18  1  0
 19 18  1  6
 19 21  1  0
 20 19  1  0
 21 22  1  0
 23 21  2  0
M  END
$$$$
