GEQ.pdb
     RDKit          3D

 23 22  0  0  1  0  0  0  0  0999 V2000
   16.9143  -13.3567  -14.3302 N   0  0  0  0  0  0  0  0  0  0  0  0
   18.0344  -13.1283  -15.2042 C   0  0  0  0  0  0  0  0  0  0  0  0
   18.1582  -11.6489  -15.5183 C   0  0  0  0  0  0  0  0  0  0  0  0
   19.2185  -11.2887  -15.9675 O   0  0  0  0  0  0  0  0  0  0  0  0
   17.0881  -10.7668  -15.2929 N   0  0  0  0  0  0  0  0  0  0  0  0
   16.8593   -9.4196  -15.5600 C   0  0  1  0  0  0  0  0  0  0  0  0
   15.4088   -8.9628  -15.7411 C   0  0  0  0  0  0  0  0  0  0  0  0
   15.1907   -7.5798  -16.2320 C   0  0  0  0  0  0  0  0  0  0  0  0
   13.7390   -7.3819  -16.3960 C   0  0  0  0  0  0  0  0  0  0  0  0
   13.0917   -6.6181  -15.6802 O   0  0  0  0  0  0  0  0  0  0  0  0
   17.4567   -8.4277  -14.6847 C   0  0  0  0  0  0  0  0  0  0  0  0
   17.1371   -8.5960  -13.4289 O   0  0  0  0  0  0  0  0  0  0  0  0
   13.0952   -8.1166  -17.4221 O   0  0  0  0  0  0  0  0  0  0  0  0
   23.1546   -6.2091  -15.2136 N   0  0  0  0  0  0  0  0  0  0  0  0
   22.6350   -5.3326  -14.2168 C   0  0  0  0  0  0  0  0  0  0  0  0
   23.4692   -4.5205  -13.6997 O   0  0  0  0  0  0  0  0  0  0  0  0
   21.2011   -5.3811  -13.8147 C   0  0  0  0  0  0  0  0  0  0  0  0
   20.3784   -6.3765  -14.5364 C   0  0  0  0  0  0  0  0  0  0  0  0
   18.9227   -6.4373  -14.1302 C   0  0  2  0  0  0  0  0  0  0  0  0
   18.2852   -7.4018  -15.0582 N   0  0  0  0  0  0  0  0  0  0  0  0
   18.2422   -5.1482  -14.2062 C   0  0  0  0  0  0  0  0  0  0  0  0
   17.7203   -4.7027  -15.4020 O   0  0  0  0  0  0  0  0  0  0  0  0
   18.0994   -4.4174  -13.1962 O   0  0  0  0  0  0  0  0  0  0  0  0
  1  2  1  0
  2  3  1  0
  3  5  1  0
  3  4  2  0
  5  6  1  0
  6 11  1  0
  6  7  1  1
  8  7  1  0
  9 13  1  0
  9  8  1  0
 10  9  2  0
 11 20  1  0
 11 12  2  0
 14 15  1  0
 15 17  1  0
 15 16  2  0
 17 18  1  0
 19 18  1  6
 19 21  1  0
 20 19  1  0
 21 22  1  0
 23 21  2  0
M  END
$$$$
