GEQ.pdb
     RDKit          3D

 23 22  0  0  1  0  0  0  0  0999 V2000
   12.6039   -8.1638   -7.4624 N   0  0  0  0  0  0  0  0  0  0  0  0
   12.9181   -7.6406   -8.7655 C   0  0  0  0  0  0  0  0  0  0  0  0
   14.0635   -8.4237   -9.3800 C   0  0  0  0  0  0  0  0  0  0  0  0
   14.2634   -9.5209   -8.9196 O   0  0  0  0  0  0  0  0  0  0  0  0
   14.8336   -7.8849  -10.4243 N   0  0  0  0  0  0  0  0  0  0  0  0
   15.5900   -8.4258  -11.4605 C   0  0  1  0  0  0  0  0  0  0  0  0
   14.9041   -9.4176  -12.4046 C   0  0  0  0  0  0  0  0  0  0  0  0
   15.7633  -10.1202  -13.3891 C   0  0  0  0  0  0  0  0  0  0  0  0
   14.9068  -11.0370  -14.1635 C   0  0  0  0  0  0  0  0  0  0  0  0
   14.8097  -10.9732  -15.3886 O   0  0  0  0  0  0  0  0  0  0  0  0
   16.3179   -7.5223  -12.3327 C   0  0  0  0  0  0  0  0  0  0  0  0
   15.5608   -6.5916  -12.8504 O   0  0  0  0  0  0  0  0  0  0  0  0
   14.1787  -12.0130  -13.4392 O   0  0  0  0  0  0  0  0  0  0  0  0
   22.4332   -6.5937  -11.5049 N   0  0  0  0  0  0  0  0  0  0  0  0
   22.1143   -5.5800  -12.4550 C   0  0  0  0  0  0  0  0  0  0  0  0
   23.0609   -4.7833  -12.7582 O   0  0  0  0  0  0  0  0  0  0  0  0
   20.7497   -5.4725  -13.0436 C   0  0  0  0  0  0  0  0  0  0  0  0
   19.7640   -6.4488  -12.5300 C   0  0  0  0  0  0  0  0  0  0  0  0
   18.4337   -6.4726  -13.2493 C   0  0  2  0  0  0  0  0  0  0  0  0
   17.6565   -7.5690  -12.6233 N   0  0  0  0  0  0  0  0  0  0  0  0
   18.5521   -6.7028  -14.6859 C   0  0  0  0  0  0  0  0  0  0  0  0
   18.3412   -7.9594  -15.2122 O   0  0  0  0  0  0  0  0  0  0  0  0
   18.8333   -5.7741  -15.4815 O   0  0  0  0  0  0  0  0  0  0  0  0
  1  2  1  0
  2  3  1  0
  3  5  1  0
  3  4  2  0
  5  6  1  0
  6 11  1  0
  6  7  1  6
  8  7  1  0
  9 13  1  0
  9  8  1  0
 10  9  2  0
 11 20  1  0
 11 12  2  0
 14 15  1  0
 15 17  1  0
 15 16  2  0
 17 18  1  0
 19 18  1  1
 19 21  1  0
 20 19  1  0
 21 22  1  0
 23 21  2  0
M  END
$$$$
