GEQ.pdb
     RDKit          3D

 23 22  0  0  1  0  0  0  0  0999 V2000
   20.3937  -13.2035  -17.6838 N   0  0  0  0  0  0  0  0  0  0  0  0
   21.2748  -13.6696  -16.6459 C   0  0  0  0  0  0  0  0  0  0  0  0
   21.2302  -15.1842  -16.5646 C   0  0  0  0  0  0  0  0  0  0  0  0
   20.1348  -15.6777  -16.4538 O   0  0  0  0  0  0  0  0  0  0  0  0
   22.4075  -15.9491  -16.6180 N   0  0  0  0  0  0  0  0  0  0  0  0
   22.7022  -17.3013  -16.4651 C   0  0  1  0  0  0  0  0  0  0  0  0
   24.1453  -17.7511  -16.7116 C   0  0  0  0  0  0  0  0  0  0  0  0
   24.6320  -17.7272  -18.1129 C   0  0  0  0  0  0  0  0  0  0  0  0
   26.0365  -18.1754  -18.1114 C   0  0  0  0  0  0  0  0  0  0  0  0
   26.9811  -17.3873  -18.0731 O   0  0  0  0  0  0  0  0  0  0  0  0
   22.3105  -17.9615  -15.2332 C   0  0  0  0  0  0  0  0  0  0  0  0
   22.8879  -17.4549  -14.1762 O   0  0  0  0  0  0  0  0  0  0  0  0
   26.2728  -19.5714  -18.1610 O   0  0  0  0  0  0  0  0  0  0  0  0
   16.6586  -20.2828  -14.2346 N   0  0  0  0  0  0  0  0  0  0  0  0
   17.2995  -20.5431  -12.9883 C   0  0  0  0  0  0  0  0  0  0  0  0
   16.5505  -20.9884  -12.0592 O   0  0  0  0  0  0  0  0  0  0  0  0
   18.7576  -20.2992  -12.8019 C   0  0  0  0  0  0  0  0  0  0  0  0
   19.4711  -19.8041  -13.9996 C   0  0  0  0  0  0  0  0  0  0  0  0
   20.9561  -19.5751  -13.8260 C   0  0  2  0  0  0  0  0  0  0  0  0
   21.4285  -19.0033  -15.1096 N   0  0  0  0  0  0  0  0  0  0  0  0
   21.7012  -20.7920  -13.5182 C   0  0  0  0  0  0  0  0  0  0  0  0
   21.7729  -21.2591  -12.2230 O   0  0  0  0  0  0  0  0  0  0  0  0
   22.2831  -21.4528  -14.4122 O   0  0  0  0  0  0  0  0  0  0  0  0
  1  2  1  0
  2  3  1  0
  3  5  1  0
  3  4  2  0
  5  6  1  0
  6 11  1  0
  6  7  1  1
  8  7  1  0
  9 13  1  0
  9  8  1  0
 10  9  2  0
 11 20  1  0
 11 12  2  0
 14 15  1  0
 15 17  1  0
 15 16  2  0
 17 18  1  0
 19 18  1  6
 19 21  1  0
 20 19  1  0
 21 22  1  0
 23 21  2  0
M  END
$$$$
