GEQ.pdb
     RDKit          3D

 23 22  0  0  1  0  0  0  0  0999 V2000
   14.6287  -12.6186  -15.1466 N   0  0  0  0  0  0  0  0  0  0  0  0
   15.0125  -11.6426  -14.1614 C   0  0  0  0  0  0  0  0  0  0  0  0
   15.6648  -10.4495  -14.8350 C   0  0  0  0  0  0  0  0  0  0  0  0
   16.4944  -10.7019  -15.6740 O   0  0  0  0  0  0  0  0  0  0  0  0
   15.3086   -9.1354  -14.4883 N   0  0  0  0  0  0  0  0  0  0  0  0
   15.7219   -7.8705  -14.8976 C   0  0  1  0  0  0  0  0  0  0  0  0
   14.8093   -6.6823  -14.5802 C   0  0  0  0  0  0  0  0  0  0  0  0
   15.1608   -5.3765  -15.1903 C   0  0  0  0  0  0  0  0  0  0  0  0
   14.1225   -4.4033  -14.8051 C   0  0  0  0  0  0  0  0  0  0  0  0
   13.1556   -4.1504  -15.5232 O   0  0  0  0  0  0  0  0  0  0  0  0
   17.0548   -7.4251  -14.5343 C   0  0  0  0  0  0  0  0  0  0  0  0
   17.3061   -7.5531  -13.2585 O   0  0  0  0  0  0  0  0  0  0  0  0
   14.2761   -3.7493  -13.5577 O   0  0  0  0  0  0  0  0  0  0  0  0
   21.6131  -10.0141  -14.6857 N   0  0  0  0  0  0  0  0  0  0  0  0
   22.3553   -8.8233  -14.9367 C   0  0  0  0  0  0  0  0  0  0  0  0
   23.5943   -8.8672  -14.6441 O   0  0  0  0  0  0  0  0  0  0  0  0
   21.7029   -7.6096  -15.5038 C   0  0  0  0  0  0  0  0  0  0  0  0
   20.2396   -7.7127  -15.6947 C   0  0  0  0  0  0  0  0  0  0  0  0
   19.4160   -6.6421  -15.0142 C   0  0  2  0  0  0  0  0  0  0  0  0
   18.0074   -6.9225  -15.3819 N   0  0  0  0  0  0  0  0  0  0  0  0
   19.7758   -5.2860  -15.4172 C   0  0  0  0  0  0  0  0  0  0  0  0
   20.7612   -4.5952  -14.7446 O   0  0  0  0  0  0  0  0  0  0  0  0
   19.2169   -4.7156  -16.3850 O   0  0  0  0  0  0  0  0  0  0  0  0
  1  2  1  0
  2  3  1  0
  3  5  1  0
  3  4  2  0
  5  6  1  0
  6 11  1  0
  6  7  1  1
  8  7  1  0
  9 13  1  0
  9  8  1  0
 10  9  2  0
 11 20  1  0
 11 12  2  0
 14 15  1  0
 15 17  1  0
 15 16  2  0
 17 18  1  0
 19 18  1  6
 19 21  1  0
 20 19  1  0
 21 22  1  0
 23 21  2  0
M  END
$$$$
