GEQ.pdb
     RDKit          3D

 23 22  0  0  1  0  0  0  0  0999 V2000
   25.8212  -21.1148   -9.9799 N   0  0  0  0  0  0  0  0  0  0  0  0
   26.4363  -21.3050  -11.2668 C   0  0  0  0  0  0  0  0  0  0  0  0
   25.7719  -20.4137  -12.2996 C   0  0  0  0  0  0  0  0  0  0  0  0
   24.7165  -19.9250  -11.9786 O   0  0  0  0  0  0  0  0  0  0  0  0
   26.3681  -20.1829  -13.5507 N   0  0  0  0  0  0  0  0  0  0  0  0
   26.0071  -19.4653  -14.6879 C   0  0  1  0  0  0  0  0  0  0  0  0
   27.0896  -19.1957  -15.7372 C   0  0  0  0  0  0  0  0  0  0  0  0
   26.7114  -18.3553  -16.8998 C   0  0  0  0  0  0  0  0  0  0  0  0
   27.9165  -18.1575  -17.7258 C   0  0  0  0  0  0  0  0  0  0  0  0
   28.0150  -18.6054  -18.8679 O   0  0  0  0  0  0  0  0  0  0  0  0
   24.8516  -19.9058  -15.4481 C   0  0  0  0  0  0  0  0  0  0  0  0
   24.9636  -21.1330  -15.8825 O   0  0  0  0  0  0  0  0  0  0  0  0
   28.9840  -17.4239  -17.1519 O   0  0  0  0  0  0  0  0  0  0  0  0
   20.5081  -21.9930  -13.0807 N   0  0  0  0  0  0  0  0  0  0  0  0
   20.3019  -20.5854  -13.1703 C   0  0  0  0  0  0  0  0  0  0  0  0
   19.5163  -20.0814  -12.3035 O   0  0  0  0  0  0  0  0  0  0  0  0
   20.9707  -19.7707  -14.2235 C   0  0  0  0  0  0  0  0  0  0  0  0
   21.8384  -20.5300  -15.1504 C   0  0  0  0  0  0  0  0  0  0  0  0
   22.4615  -19.7240  -16.2684 C   0  0  2  0  0  0  0  0  0  0  0  0
   23.7230  -19.1756  -15.7153 N   0  0  0  0  0  0  0  0  0  0  0  0
   21.6126  -18.6369  -16.7461 C   0  0  0  0  0  0  0  0  0  0  0  0
   20.4801  -18.9072  -17.4846 O   0  0  0  0  0  0  0  0  0  0  0  0
   21.8741  -17.4361  -16.4931 O   0  0  0  0  0  0  0  0  0  0  0  0
  1  2  1  0
  2  3  1  0
  3  5  1  0
  3  4  2  0
  5  6  1  0
  6 11  1  0
  6  7  1  6
  8  7  1  0
  9 13  1  0
  9  8  1  0
 10  9  2  0
 11 20  1  0
 11 12  2  0
 14 15  1  0
 15 17  1  0
 15 16  2  0
 17 18  1  0
 19 18  1  1
 19 21  1  0
 20 19  1  0
 21 22  1  0
 23 21  2  0
M  END
$$$$
