GEQ.pdb
     RDKit          3D

 23 22  0  0  1  0  0  0  0  0999 V2000
   14.2647  -11.6315  -13.7882 N   0  0  0  0  0  0  0  0  0  0  0  0
   14.5252  -10.2430  -14.0614 C   0  0  0  0  0  0  0  0  0  0  0  0
   16.0188  -10.0075  -14.1897 C   0  0  0  0  0  0  0  0  0  0  0  0
   16.6220   -9.8510  -13.1565 O   0  0  0  0  0  0  0  0  0  0  0  0
   16.6438   -9.9781  -15.4477 N   0  0  0  0  0  0  0  0  0  0  0  0
   17.9550   -9.8074  -15.8838 C   0  0  1  0  0  0  0  0  0  0  0  0
   18.3793  -10.5208  -17.1708 C   0  0  0  0  0  0  0  0  0  0  0  0
   18.5917  -11.9871  -17.0938 C   0  0  0  0  0  0  0  0  0  0  0  0
   19.0173  -12.4530  -18.4262 C   0  0  0  0  0  0  0  0  0  0  0  0
   18.6541  -11.9024  -19.4653 O   0  0  0  0  0  0  0  0  0  0  0  0
   18.4712   -8.4574  -16.0175 C   0  0  0  0  0  0  0  0  0  0  0  0
   17.5724   -7.6059  -16.4354 O   0  0  0  0  0  0  0  0  0  0  0  0
   19.8726  -13.5813  -18.4772 O   0  0  0  0  0  0  0  0  0  0  0  0
   22.2439   -5.8607  -11.9796 N   0  0  0  0  0  0  0  0  0  0  0  0
   22.1802   -4.8334  -12.9658 C   0  0  0  0  0  0  0  0  0  0  0  0
   22.7050   -3.7185  -12.6431 O   0  0  0  0  0  0  0  0  0  0  0  0
   21.5315   -5.0675  -14.2866 C   0  0  0  0  0  0  0  0  0  0  0  0
   20.9417   -6.4119  -14.4687 C   0  0  0  0  0  0  0  0  0  0  0  0
   20.2117   -6.6325  -15.7749 C   0  0  2  0  0  0  0  0  0  0  0  0
   19.7479   -8.0403  -15.7447 N   0  0  0  0  0  0  0  0  0  0  0  0
   21.0438   -6.4070  -16.9528 C   0  0  0  0  0  0  0  0  0  0  0  0
   21.2451   -5.1302  -17.4324 O   0  0  0  0  0  0  0  0  0  0  0  0
   21.6073   -7.3538  -17.5531 O   0  0  0  0  0  0  0  0  0  0  0  0
  1  2  1  0
  2  3  1  0
  3  5  1  0
  3  4  2  0
  5  6  1  0
  6 11  1  0
  6  7  1  6
  8  7  1  0
  9 13  1  0
  9  8  1  0
 10  9  2  0
 11 20  1  0
 11 12  2  0
 14 15  1  0
 15 17  1  0
 15 16  2  0
 17 18  1  0
 19 18  1  1
 19 21  1  0
 20 19  1  0
 21 22  1  0
 23 21  2  0
M  END
$$$$
