GEQ.pdb
     RDKit          3D

 23 22  0  0  1  0  0  0  0  0999 V2000
   16.3131  -11.2846  -17.1593 N   0  0  0  0  0  0  0  0  0  0  0  0
   16.9716  -10.1474  -17.7455 C   0  0  0  0  0  0  0  0  0  0  0  0
   18.1658   -9.7431  -16.9010 C   0  0  0  0  0  0  0  0  0  0  0  0
   18.2589  -10.2776  -15.8233 O   0  0  0  0  0  0  0  0  0  0  0  0
   19.0978   -8.8001  -17.3658 N   0  0  0  0  0  0  0  0  0  0  0  0
   20.2446   -8.2158  -16.8348 C   0  0  1  0  0  0  0  0  0  0  0  0
   21.1848   -7.4829  -17.7963 C   0  0  0  0  0  0  0  0  0  0  0  0
   21.8175   -8.2881  -18.8699 C   0  0  0  0  0  0  0  0  0  0  0  0
   22.6263   -7.3776  -19.7009 C   0  0  0  0  0  0  0  0  0  0  0  0
   23.7218   -6.9502  -19.3378 O   0  0  0  0  0  0  0  0  0  0  0  0
   20.1061   -7.3255  -15.6968 C   0  0  0  0  0  0  0  0  0  0  0  0
   19.0931   -6.5077  -15.8084 O   0  0  0  0  0  0  0  0  0  0  0  0
   22.0915   -6.9967  -20.9563 O   0  0  0  0  0  0  0  0  0  0  0  0
   18.0583   -6.9441  -11.1588 N   0  0  0  0  0  0  0  0  0  0  0  0
   19.1846   -6.5538  -10.3771 C   0  0  0  0  0  0  0  0  0  0  0  0
   18.9232   -6.0466   -9.2383 O   0  0  0  0  0  0  0  0  0  0  0  0
   20.5756   -6.7329  -10.8804 C   0  0  0  0  0  0  0  0  0  0  0  0
   20.6867   -7.3788  -12.2067 C   0  0  0  0  0  0  0  0  0  0  0  0
   20.6759   -6.4399  -13.3925 C   0  0  2  0  0  0  0  0  0  0  0  0
   20.9050   -7.2924  -14.5837 N   0  0  0  0  0  0  0  0  0  0  0  0
   21.6965   -5.3989  -13.3208 C   0  0  0  0  0  0  0  0  0  0  0  0
   22.8657   -5.5153  -14.0421 O   0  0  0  0  0  0  0  0  0  0  0  0
   21.5408   -4.3700  -12.6196 O   0  0  0  0  0  0  0  0  0  0  0  0
  1  2  1  0
  2  3  1  0
  3  5  1  0
  3  4  2  0
  5  6  1  0
  6 11  1  0
  6  7  1  6
  8  7  1  0
  9 13  1  0
  9  8  1  0
 10  9  2  0
 11 20  1  0
 11 12  2  0
 14 15  1  0
 15 17  1  0
 15 16  2  0
 17 18  1  0
 19 18  1  1
 19 21  1  0
 20 19  1  0
 21 22  1  0
 23 21  2  0
M  END
$$$$
