GEQ.pdb
     RDKit          3D

 23 22  0  0  1  0  0  0  0  0999 V2000
   21.9812  -13.2207  -16.5526 N   0  0  0  0  0  0  0  0  0  0  0  0
   20.6201  -12.9719  -16.1574 C   0  0  0  0  0  0  0  0  0  0  0  0
   20.2233  -11.5521  -16.5174 C   0  0  0  0  0  0  0  0  0  0  0  0
   20.9089  -11.0031  -17.3446 O   0  0  0  0  0  0  0  0  0  0  0  0
   19.1178  -10.9315  -15.9118 N   0  0  0  0  0  0  0  0  0  0  0  0
   18.4117   -9.7536  -16.1407 C   0  0  1  0  0  0  0  0  0  0  0  0
   16.8948   -9.7768  -15.9312 C   0  0  0  0  0  0  0  0  0  0  0  0
   16.1250  -10.8077  -16.6700 C   0  0  0  0  0  0  0  0  0  0  0  0
   15.2483  -11.4955  -15.7046 C   0  0  0  0  0  0  0  0  0  0  0  0
   14.0269  -11.3441  -15.6975 O   0  0  0  0  0  0  0  0  0  0  0  0
   18.8604   -8.5378  -15.4868 C   0  0  0  0  0  0  0  0  0  0  0  0
   19.0271   -8.6822  -14.1989 O   0  0  0  0  0  0  0  0  0  0  0  0
   15.8672  -12.3520  -14.7609 O   0  0  0  0  0  0  0  0  0  0  0  0
   22.4307   -6.2568  -13.4624 N   0  0  0  0  0  0  0  0  0  0  0  0
   22.4439   -4.9802  -14.0965 C   0  0  0  0  0  0  0  0  0  0  0  0
   23.0567   -4.0545  -13.4720 O   0  0  0  0  0  0  0  0  0  0  0  0
   21.7726   -4.7607  -15.4085 C   0  0  0  0  0  0  0  0  0  0  0  0
   21.0414   -5.9296  -15.9449 C   0  0  0  0  0  0  0  0  0  0  0  0
   19.6439   -6.1300  -15.4022 C   0  0  2  0  0  0  0  0  0  0  0  0
   19.1137   -7.3326  -16.0882 N   0  0  0  0  0  0  0  0  0  0  0  0
   18.7595   -4.9925  -15.6357 C   0  0  0  0  0  0  0  0  0  0  0  0
   18.6494   -3.9884  -14.6973 O   0  0  0  0  0  0  0  0  0  0  0  0
   18.0883   -4.8847  -16.6904 O   0  0  0  0  0  0  0  0  0  0  0  0
  1  2  1  0
  2  3  1  0
  3  5  1  0
  3  4  2  0
  5  6  1  0
  6 11  1  0
  6  7  1  1
  8  7  1  0
  9 13  1  0
  9  8  1  0
 10  9  2  0
 11 20  1  0
 11 12  2  0
 14 15  1  0
 15 17  1  0
 15 16  2  0
 17 18  1  0
 19 18  1  6
 19 21  1  0
 20 19  1  0
 21 22  1  0
 23 21  2  0
M  END
$$$$
