FML.pdb
     RDKit          3D

 28 28  0  0  1  0  0  0  0  0999 V2000
   11.8131  -16.4581   20.6984 N   0  0  0  0  0  0  0  0  0  0  0  0
   10.6816  -15.5690   20.9545 C   0  0  1  0  0  0  0  0  0  0  0  0
    9.5616  -15.9046   20.0295 C   0  0  0  0  0  0  0  0  0  0  0  0
    8.4173  -14.9986   20.0905 C   0  0  0  0  0  0  0  0  0  0  0  0
    8.5471  -13.6883   19.6210 C   0  0  0  0  0  0  0  0  0  0  0  0
    7.4574  -12.8479   19.6717 C   0  0  0  0  0  0  0  0  0  0  0  0
    6.2469  -13.3068   20.1857 C   0  0  0  0  0  0  0  0  0  0  0  0
    6.1054  -14.6034   20.6542 C   0  0  0  0  0  0  0  0  0  0  0  0
    7.2084  -15.4301   20.5949 C   0  0  0  0  0  0  0  0  0  0  0  0
   10.2381  -15.7096   22.3534 C   0  0  0  0  0  0  0  0  0  0  0  0
   10.6611  -16.6649   23.0377 O   0  0  0  0  0  0  0  0  0  0  0  0
    7.1487  -12.1687   28.3610 C   0  0  0  0  0  0  0  0  0  0  0  0
    7.9398  -12.4329   26.7691 S   0  0  0  0  0  0  0  0  0  0  0  0
    7.1684  -13.7826   25.8413 C   0  0  0  0  0  0  0  0  0  0  0  0
    7.8096  -13.9171   24.5273 C   0  0  0  0  0  0  0  0  0  0  0  0
    9.0355  -14.7191   24.3616 C   0  0  2  0  0  0  0  0  0  0  0  0
    9.3472  -14.7706   22.9008 N   0  0  0  0  0  0  0  0  0  0  0  0
    9.0946  -16.0834   24.8262 C   0  0  0  0  0  0  0  0  0  0  0  0
    8.3438  -17.0157   24.3432 O   0  0  0  0  0  0  0  0  0  0  0  0
   10.6184  -21.0034   25.3829 C   0  0  0  0  0  0  0  0  0  0  0  0
   11.5500  -19.9070   25.7106 C   0  0  1  0  0  0  0  0  0  0  0  0
   12.8249  -20.1672   24.8671 C   0  0  0  0  0  0  0  0  0  0  0  0
   11.1613  -18.5218   25.5385 C   0  0  0  0  0  0  0  0  0  0  0  0
    9.9885  -17.9424   26.2753 C   0  0  2  0  0  0  0  0  0  0  0  0
    9.9790  -16.5238   25.8331 N   0  0  0  0  0  0  0  0  0  0  0  0
   10.0508  -17.9414   27.7160 C   0  0  0  0  0  0  0  0  0  0  0  0
   10.6430  -16.8852   28.3923 O   0  0  0  0  0  0  0  0  0  0  0  0
    9.5952  -18.8613   28.4081 O   0  0  0  0  0  0  0  0  0  0  0  0
  2  3  1  0
  2  1  1  6
  4  3  1  0
  4  5  2  0
  6  5  1  0
  7  6  2  0
  8  9  2  0
  8  7  1  0
  9  4  1  0
 10  2  1  0
 11 10  2  0
 13 12  1  0
 13 14  1  0
 16 15  1  6
 15 14  1  0
 16 17  1  0
 17 10  1  0
 18 25  1  0
 18 16  1  0
 19 18  2  0
 21 20  1  6
 21 23  1  0
 21 22  1  0
 24 23  1  6
 24 26  1  0
 24 25  1  0
 26 27  1  0
 28 26  2  0
M  END
$$$$
