FML.pdb
     RDKit          3D

 28 28  0  0  1  0  0  0  0  0999 V2000
    7.8973  -16.0777   20.8039 N   0  0  0  0  0  0  0  0  0  0  0  0
    9.0242  -15.1578   20.9457 C   0  0  1  0  0  0  0  0  0  0  0  0
    8.6646  -13.8321   20.3661 C   0  0  0  0  0  0  0  0  0  0  0  0
    8.3194  -13.8514   18.9468 C   0  0  0  0  0  0  0  0  0  0  0  0
    8.2453  -12.6496   18.2368 C   0  0  0  0  0  0  0  0  0  0  0  0
    7.9318  -12.6819   16.8963 C   0  0  0  0  0  0  0  0  0  0  0  0
    7.6935  -13.9009   16.2658 C   0  0  0  0  0  0  0  0  0  0  0  0
    7.7639  -15.0991   16.9585 C   0  0  0  0  0  0  0  0  0  0  0  0
    8.0794  -15.0460   18.3006 C   0  0  0  0  0  0  0  0  0  0  0  0
    9.3733  -15.0060   22.3700 C   0  0  0  0  0  0  0  0  0  0  0  0
   10.4475  -14.4510   22.6823 O   0  0  0  0  0  0  0  0  0  0  0  0
    6.1427  -11.2158   26.7871 C   0  0  0  0  0  0  0  0  0  0  0  0
    7.1359  -12.6664   26.4143 S   0  0  0  0  0  0  0  0  0  0  0  0
    6.1892  -13.9304   25.5292 C   0  0  0  0  0  0  0  0  0  0  0  0
    7.0509  -15.0795   25.2246 C   0  0  0  0  0  0  0  0  0  0  0  0
    8.4241  -14.8845   24.7248 C   0  0  2  0  0  0  0  0  0  0  0  0
    8.4967  -15.4856   23.3583 N   0  0  0  0  0  0  0  0  0  0  0  0
    9.5557  -15.4109   25.4482 C   0  0  0  0  0  0  0  0  0  0  0  0
   10.5888  -14.6942   25.7403 O   0  0  0  0  0  0  0  0  0  0  0  0
   10.9465  -14.0009   27.9361 C   0  0  0  0  0  0  0  0  0  0  0  0
   10.9285  -15.2809   28.6701 C   0  0  1  0  0  0  0  0  0  0  0  0
   10.3903  -14.9501   30.0864 C   0  0  0  0  0  0  0  0  0  0  0  0
   10.1997  -16.4238   28.1582 C   0  0  0  0  0  0  0  0  0  0  0  0
   10.6465  -17.1436   26.9187 C   0  0  2  0  0  0  0  0  0  0  0  0
    9.6319  -16.7415   25.9102 N   0  0  0  0  0  0  0  0  0  0  0  0
   10.6589  -18.5849   26.9624 C   0  0  0  0  0  0  0  0  0  0  0  0
    9.5914  -19.3119   26.4567 O   0  0  0  0  0  0  0  0  0  0  0  0
   11.5964  -19.2337   27.4450 O   0  0  0  0  0  0  0  0  0  0  0  0
  2  3  1  0
  2  1  1  1
  4  3  1  0
  4  5  2  0
  6  5  1  0
  7  6  2  0
  8  9  2  0
  8  7  1  0
  9  4  1  0
 10  2  1  0
 11 10  2  0
 13 12  1  0
 13 14  1  0
 16 15  1  1
 15 14  1  0
 16 17  1  0
 17 10  1  0
 18 25  1  0
 18 16  1  0
 19 18  2  0
 21 20  1  6
 21 23  1  0
 21 22  1  0
 24 23  1  1
 24 26  1  0
 24 25  1  0
 26 27  1  0
 28 26  2  0
M  END
$$$$
