FML.pdb
     RDKit          3D

 28 28  0  0  1  0  0  0  0  0999 V2000
    4.1708  -17.7270   23.4139 N   0  0  0  0  0  0  0  0  0  0  0  0
    5.1173  -18.6482   22.7879 C   0  0  1  0  0  0  0  0  0  0  0  0
    4.4770  -19.3007   21.6103 C   0  0  0  0  0  0  0  0  0  0  0  0
    3.0540  -19.5933   21.7640 C   0  0  0  0  0  0  0  0  0  0  0  0
    2.1483  -19.1485   20.7966 C   0  0  0  0  0  0  0  0  0  0  0  0
    0.8112  -19.4420   20.9460 C   0  0  0  0  0  0  0  0  0  0  0  0
    0.3774  -20.1728   22.0497 C   0  0  0  0  0  0  0  0  0  0  0  0
    1.2653  -20.6195   23.0154 C   0  0  0  0  0  0  0  0  0  0  0  0
    2.6006  -20.3154   22.8480 C   0  0  0  0  0  0  0  0  0  0  0  0
    6.3247  -17.9166   22.3629 C   0  0  0  0  0  0  0  0  0  0  0  0
    7.2138  -18.5186   21.7252 O   0  0  0  0  0  0  0  0  0  0  0  0
    8.5042  -11.1663   19.3519 C   0  0  0  0  0  0  0  0  0  0  0  0
    7.4270  -12.5290   19.8129 S   0  0  0  0  0  0  0  0  0  0  0  0
    8.2376  -13.6834   20.9478 C   0  0  0  0  0  0  0  0  0  0  0  0
    7.2633  -14.6620   21.4465 C   0  0  0  0  0  0  0  0  0  0  0  0
    7.6840  -15.7692   22.3244 C   0  0  2  0  0  0  0  0  0  0  0  0
    6.4622  -16.5539   22.6782 N   0  0  0  0  0  0  0  0  0  0  0  0
    8.3599  -15.5076   23.5716 C   0  0  0  0  0  0  0  0  0  0  0  0
    9.5517  -15.0147   23.6266 O   0  0  0  0  0  0  0  0  0  0  0  0
    6.4534  -12.2695   26.8410 C   0  0  0  0  0  0  0  0  0  0  0  0
    7.4705  -13.1675   26.2610 C   0  0  1  0  0  0  0  0  0  0  0  0
    8.8077  -12.3841   26.3140 C   0  0  0  0  0  0  0  0  0  0  0  0
    7.6931  -14.4918   26.8051 C   0  0  0  0  0  0  0  0  0  0  0  0
    8.5431  -15.4989   26.0858 C   0  0  2  0  0  0  0  0  0  0  0  0
    7.7818  -15.7518   24.8349 N   0  0  0  0  0  0  0  0  0  0  0  0
    8.7425  -16.7732   26.7306 C   0  0  0  0  0  0  0  0  0  0  0  0
    9.5533  -16.8737   27.8514 O   0  0  0  0  0  0  0  0  0  0  0  0
    8.2181  -17.8194   26.3263 O   0  0  0  0  0  0  0  0  0  0  0  0
  2  3  1  0
  2  1  1  6
  4  3  1  0
  4  5  2  0
  6  5  1  0
  7  6  2  0
  8  9  2  0
  8  7  1  0
  9  4  1  0
 10  2  1  0
 11 10  2  0
 13 12  1  0
 13 14  1  0
 16 15  1  1
 15 14  1  0
 16 17  1  0
 17 10  1  0
 18 25  1  0
 18 16  1  0
 19 18  2  0
 21 20  1  1
 21 23  1  0
 21 22  1  0
 24 23  1  1
 24 26  1  0
 24 25  1  0
 26 27  1  0
 28 26  2  0
M  END
$$$$
