FML.pdb
     RDKit          3D

 28 28  0  0  1  0  0  0  0  0999 V2000
    5.4487  -18.5036   24.7421 N   0  0  0  0  0  0  0  0  0  0  0  0
    5.9769  -17.1433   24.8252 C   0  0  1  0  0  0  0  0  0  0  0  0
    6.1306  -16.7523   26.2556 C   0  0  0  0  0  0  0  0  0  0  0  0
    6.5308  -15.3650   26.4774 C   0  0  0  0  0  0  0  0  0  0  0  0
    5.6252  -14.3334   26.2129 C   0  0  0  0  0  0  0  0  0  0  0  0
    6.0098  -13.0306   26.4385 C   0  0  0  0  0  0  0  0  0  0  0  0
    7.2861  -12.7550   26.9236 C   0  0  0  0  0  0  0  0  0  0  0  0
    8.1929  -13.7685   27.1897 C   0  0  0  0  0  0  0  0  0  0  0  0
    7.7889  -15.0672   26.9574 C   0  0  0  0  0  0  0  0  0  0  0  0
    7.2801  -17.0672   24.1401 C   0  0  0  0  0  0  0  0  0  0  0  0
    7.9908  -18.0909   24.0588 O   0  0  0  0  0  0  0  0  0  0  0  0
    7.2428  -12.7066   19.8362 C   0  0  0  0  0  0  0  0  0  0  0  0
    9.0246  -12.9100   19.7189 S   0  0  0  0  0  0  0  0  0  0  0  0
    9.6133  -14.3235   20.6848 C   0  0  0  0  0  0  0  0  0  0  0  0
    8.6605  -14.6267   21.7600 C   0  0  0  0  0  0  0  0  0  0  0  0
    8.8954  -15.7502   22.6852 C   0  0  2  0  0  0  0  0  0  0  0  0
    7.7077  -15.8479   23.5873 N   0  0  0  0  0  0  0  0  0  0  0  0
   10.0501  -15.7668   23.5496 C   0  0  0  0  0  0  0  0  0  0  0  0
   11.2508  -15.5920   23.1094 O   0  0  0  0  0  0  0  0  0  0  0  0
    9.3708  -14.1881   28.8463 C   0  0  0  0  0  0  0  0  0  0  0  0
    9.8774  -14.4332   27.4822 C   0  0  1  0  0  0  0  0  0  0  0  0
   10.7544  -13.2042   27.1284 C   0  0  0  0  0  0  0  0  0  0  0  0
   10.6241  -15.6347   27.1689 C   0  0  0  0  0  0  0  0  0  0  0  0
   11.1873  -15.8687   25.7970 C   0  0  2  0  0  0  0  0  0  0  0  0
    9.9736  -15.9611   24.9446 N   0  0  0  0  0  0  0  0  0  0  0  0
   11.9462  -17.0780   25.5939 C   0  0  0  0  0  0  0  0  0  0  0  0
   11.3304  -18.2188   25.1010 O   0  0  0  0  0  0  0  0  0  0  0  0
   13.1553  -17.1620   25.8464 O   0  0  0  0  0  0  0  0  0  0  0  0
  2  3  1  0
  2  1  1  1
  4  3  1  0
  4  5  2  0
  6  5  1  0
  7  6  2  0
  8  9  2  0
  8  7  1  0
  9  4  1  0
 10  2  1  0
 11 10  2  0
 13 12  1  0
 13 14  1  0
 16 15  1  1
 15 14  1  0
 16 17  1  0
 17 10  1  0
 18 25  1  0
 18 16  1  0
 19 18  2  0
 21 20  1  1
 21 23  1  0
 21 22  1  0
 24 23  1  1
 24 26  1  0
 24 25  1  0
 26 27  1  0
 28 26  2  0
M  END
$$$$
