FML.pdb
     RDKit          3D

 28 28  0  0  1  0  0  0  0  0999 V2000
    5.8293  -19.6006   23.6531 N   0  0  0  0  0  0  0  0  0  0  0  0
    6.0976  -18.2048   23.9936 C   0  0  1  0  0  0  0  0  0  0  0  0
    6.2097  -18.0628   25.4734 C   0  0  0  0  0  0  0  0  0  0  0  0
    6.3009  -16.6874   25.9571 C   0  0  0  0  0  0  0  0  0  0  0  0
    6.7573  -16.4397   27.2549 C   0  0  0  0  0  0  0  0  0  0  0  0
    6.8512  -15.1381   27.6946 C   0  0  0  0  0  0  0  0  0  0  0  0
    6.4937  -14.0899   26.8499 C   0  0  0  0  0  0  0  0  0  0  0  0
    6.0399  -14.3223   25.5614 C   0  0  0  0  0  0  0  0  0  0  0  0
    5.9528  -15.6329   25.1392 C   0  0  0  0  0  0  0  0  0  0  0  0
    7.3474  -17.7614   23.3495 C   0  0  0  0  0  0  0  0  0  0  0  0
    8.3251  -18.5373   23.3090 O   0  0  0  0  0  0  0  0  0  0  0  0
    7.4886  -12.0059   21.0549 C   0  0  0  0  0  0  0  0  0  0  0  0
    8.5558  -12.6542   19.7624 S   0  0  0  0  0  0  0  0  0  0  0  0
    9.0301  -14.3741   20.0703 C   0  0  0  0  0  0  0  0  0  0  0  0
    8.1250  -14.9736   21.0588 C   0  0  0  0  0  0  0  0  0  0  0  0
    8.5977  -16.0237   21.9793 C   0  0  2  0  0  0  0  0  0  0  0  0
    7.4256  -16.4747   22.7896 N   0  0  0  0  0  0  0  0  0  0  0  0
    9.6527  -15.7565   22.9260 C   0  0  0  0  0  0  0  0  0  0  0  0
   10.8649  -15.5020   22.5628 O   0  0  0  0  0  0  0  0  0  0  0  0
   11.7194  -13.6736   27.7909 C   0  0  0  0  0  0  0  0  0  0  0  0
   10.6083  -14.6391   27.6877 C   0  0  1  0  0  0  0  0  0  0  0  0
    9.5780  -14.2170   28.7671 C   0  0  0  0  0  0  0  0  0  0  0  0
    9.9059  -14.8365   26.4359 C   0  0  0  0  0  0  0  0  0  0  0  0
   10.5845  -15.4570   25.2491 C   0  0  2  0  0  0  0  0  0  0  0  0
    9.4566  -15.7363   24.3227 N   0  0  0  0  0  0  0  0  0  0  0  0
   11.2800  -16.7017   25.4642 C   0  0  0  0  0  0  0  0  0  0  0  0
   10.5722  -17.8859   25.6077 O   0  0  0  0  0  0  0  0  0  0  0  0
   12.5137  -16.7777   25.5351 O   0  0  0  0  0  0  0  0  0  0  0  0
  2  3  1  0
  2  1  1  1
  4  3  1  0
  4  5  2  0
  6  5  1  0
  7  6  2  0
  8  9  2  0
  8  7  1  0
  9  4  1  0
 10  2  1  0
 11 10  2  0
 13 12  1  0
 13 14  1  0
 16 15  1  1
 15 14  1  0
 16 17  1  0
 17 10  1  0
 18 25  1  0
 18 16  1  0
 19 18  2  0
 21 20  1  6
 21 23  1  0
 21 22  1  0
 24 23  1  1
 24 26  1  0
 24 25  1  0
 26 27  1  0
 28 26  2  0
M  END
$$$$
