FML.pdb
     RDKit          3D

 28 28  0  0  1  0  0  0  0  0999 V2000
    5.4796  -18.2966   24.6055 N   0  0  0  0  0  0  0  0  0  0  0  0
    6.1056  -16.9792   24.6990 C   0  0  1  0  0  0  0  0  0  0  0  0
    6.2840  -16.6100   26.1323 C   0  0  0  0  0  0  0  0  0  0  0  0
    6.7443  -15.2434   26.3658 C   0  0  0  0  0  0  0  0  0  0  0  0
    8.1149  -14.9787   26.4404 C   0  0  0  0  0  0  0  0  0  0  0  0
    8.5365  -13.6842   26.6477 C   0  0  0  0  0  0  0  0  0  0  0  0
    7.6020  -12.6599   26.7800 C   0  0  0  0  0  0  0  0  0  0  0  0
    6.2407  -12.9093   26.7079 C   0  0  0  0  0  0  0  0  0  0  0  0
    5.8381  -14.2124   26.4997 C   0  0  0  0  0  0  0  0  0  0  0  0
    7.4126  -16.9940   24.0169 C   0  0  0  0  0  0  0  0  0  0  0  0
    8.0797  -18.0495   23.9928 O   0  0  0  0  0  0  0  0  0  0  0  0
    8.6913  -13.3494   18.8292 C   0  0  0  0  0  0  0  0  0  0  0  0
    8.0813  -12.5695   20.3290 S   0  0  0  0  0  0  0  0  0  0  0  0
    7.9516  -13.7426   21.7018 C   0  0  0  0  0  0  0  0  0  0  0  0
    9.0847  -14.6757   21.6716 C   0  0  0  0  0  0  0  0  0  0  0  0
    9.1714  -15.7927   22.6298 C   0  0  2  0  0  0  0  0  0  0  0  0
    7.8925  -15.8246   23.4028 N   0  0  0  0  0  0  0  0  0  0  0  0
   10.2272  -15.8443   23.6113 C   0  0  0  0  0  0  0  0  0  0  0  0
   11.4771  -15.8114   23.2905 O   0  0  0  0  0  0  0  0  0  0  0  0
   10.7598  -13.1227   26.9864 C   0  0  0  0  0  0  0  0  0  0  0  0
   10.6168  -14.3131   27.8465 C   0  0  1  0  0  0  0  0  0  0  0  0
    9.3849  -14.0395   28.7479 C   0  0  0  0  0  0  0  0  0  0  0  0
   10.4794  -15.6361   27.2718 C   0  0  0  0  0  0  0  0  0  0  0  0
   11.1240  -15.9897   25.9628 C   0  0  2  0  0  0  0  0  0  0  0  0
    9.9938  -15.9219   25.0003 N   0  0  0  0  0  0  0  0  0  0  0  0
   11.7052  -17.3045   25.8486 C   0  0  0  0  0  0  0  0  0  0  0  0
   11.0387  -18.3097   25.1639 O   0  0  0  0  0  0  0  0  0  0  0  0
   12.7995  -17.6001   26.3466 O   0  0  0  0  0  0  0  0  0  0  0  0
  2  3  1  0
  2  1  1  1
  4  3  1  0
  4  5  2  0
  6  5  1  0
  7  6  2  0
  8  9  2  0
  8  7  1  0
  9  4  1  0
 10  2  1  0
 11 10  2  0
 13 12  1  0
 13 14  1  0
 16 15  1  1
 15 14  1  0
 16 17  1  0
 17 10  1  0
 18 25  1  0
 18 16  1  0
 19 18  2  0
 21 20  1  6
 21 23  1  0
 21 22  1  0
 24 23  1  1
 24 26  1  0
 24 25  1  0
 26 27  1  0
 28 26  2  0
M  END
$$$$
