FML.pdb
     RDKit          3D

 28 28  0  0  1  0  0  0  0  0999 V2000
    5.0769  -18.9001   24.2394 N   0  0  0  0  0  0  0  0  0  0  0  0
    6.5328  -18.9570   24.3561 C   0  0  1  0  0  0  0  0  0  0  0  0
    7.0597  -20.0683   23.5135 C   0  0  0  0  0  0  0  0  0  0  0  0
    6.4899  -21.3830   23.7978 C   0  0  0  0  0  0  0  0  0  0  0  0
    5.9614  -22.1479   22.7540 C   0  0  0  0  0  0  0  0  0  0  0  0
    5.4390  -23.3912   23.0328 C   0  0  0  0  0  0  0  0  0  0  0  0
    5.4420  -23.8708   24.3406 C   0  0  0  0  0  0  0  0  0  0  0  0
    5.9629  -23.1223   25.3840 C   0  0  0  0  0  0  0  0  0  0  0  0
    6.4817  -21.8794   25.0845 C   0  0  0  0  0  0  0  0  0  0  0  0
    7.1222  -17.6761   23.9254 C   0  0  0  0  0  0  0  0  0  0  0  0
    7.8404  -17.6442   22.9042 O   0  0  0  0  0  0  0  0  0  0  0  0
    5.7146  -11.9648   27.0568 C   0  0  0  0  0  0  0  0  0  0  0  0
    5.5033  -11.7427   25.2860 S   0  0  0  0  0  0  0  0  0  0  0  0
    6.6770  -12.7362   24.3306 C   0  0  0  0  0  0  0  0  0  0  0  0
    6.3965  -14.1645   24.5227 C   0  0  0  0  0  0  0  0  0  0  0  0
    7.4384  -15.1796   24.2831 C   0  0  2  0  0  0  0  0  0  0  0  0
    6.8706  -16.5082   24.6656 N   0  0  0  0  0  0  0  0  0  0  0  0
    8.7192  -15.0936   24.9410 C   0  0  0  0  0  0  0  0  0  0  0  0
    9.2465  -13.9690   25.2921 O   0  0  0  0  0  0  0  0  0  0  0  0
   10.8783  -13.3469   28.0798 C   0  0  0  0  0  0  0  0  0  0  0  0
   10.8353  -14.7968   28.3504 C   0  0  1  0  0  0  0  0  0  0  0  0
   10.2393  -14.9450   29.7743 C   0  0  0  0  0  0  0  0  0  0  0  0
   10.1318  -15.7004   27.4627 C   0  0  0  0  0  0  0  0  0  0  0  0
   10.7050  -16.0910   26.1312 C   0  0  2  0  0  0  0  0  0  0  0  0
    9.5011  -16.2208   25.2699 N   0  0  0  0  0  0  0  0  0  0  0  0
   11.4175  -17.3428   26.0624 C   0  0  0  0  0  0  0  0  0  0  0  0
   12.8042  -17.3613   26.0427 O   0  0  0  0  0  0  0  0  0  0  0  0
   10.8447  -18.4394   26.0139 O   0  0  0  0  0  0  0  0  0  0  0  0
  2  3  1  0
  2  1  1  6
  4  3  1  0
  4  5  2  0
  6  5  1  0
  7  6  2  0
  8  9  2  0
  8  7  1  0
  9  4  1  0
 10  2  1  0
 11 10  2  0
 13 12  1  0
 13 14  1  0
 16 15  1  1
 15 14  1  0
 16 17  1  0
 17 10  1  0
 18 25  1  0
 18 16  1  0
 19 18  2  0
 21 20  1  6
 21 23  1  0
 21 22  1  0
 24 23  1  1
 24 26  1  0
 24 25  1  0
 26 27  1  0
 28 26  2  0
M  END
$$$$
