FML.pdb
     RDKit          3D

 28 28  0  0  1  0  0  0  0  0999 V2000
    5.4060  -17.9859   24.9481 N   0  0  0  0  0  0  0  0  0  0  0  0
    5.9189  -16.6632   24.5965 C   0  0  1  0  0  0  0  0  0  0  0  0
    6.3018  -15.9286   25.8360 C   0  0  0  0  0  0  0  0  0  0  0  0
    6.2107  -14.4735   25.7451 C   0  0  0  0  0  0  0  0  0  0  0  0
    4.9662  -13.8699   25.5427 C   0  0  0  0  0  0  0  0  0  0  0  0
    4.8916  -12.4967   25.4719 C   0  0  0  0  0  0  0  0  0  0  0  0
    6.0464  -11.7287   25.6013 C   0  0  0  0  0  0  0  0  0  0  0  0
    7.2859  -12.3149   25.8023 C   0  0  0  0  0  0  0  0  0  0  0  0
    7.3401  -13.6919   25.8705 C   0  0  0  0  0  0  0  0  0  0  0  0
    7.0887  -16.7970   23.7093 C   0  0  0  0  0  0  0  0  0  0  0  0
    6.9478  -17.3179   22.5831 O   0  0  0  0  0  0  0  0  0  0  0  0
    9.0066  -12.2722   20.4999 C   0  0  0  0  0  0  0  0  0  0  0  0
    7.5823  -13.3659   20.4312 S   0  0  0  0  0  0  0  0  0  0  0  0
    7.8724  -14.9178   21.3172 C   0  0  0  0  0  0  0  0  0  0  0  0
    8.7657  -14.6831   22.4585 C   0  0  0  0  0  0  0  0  0  0  0  0
    9.3728  -15.8105   23.1892 C   0  0  2  0  0  0  0  0  0  0  0  0
    8.3460  -16.3384   24.1384 N   0  0  0  0  0  0  0  0  0  0  0  0
   10.5727  -15.6261   23.9682 C   0  0  0  0  0  0  0  0  0  0  0  0
   11.6777  -15.2017   23.4534 O   0  0  0  0  0  0  0  0  0  0  0  0
   10.5305  -13.8400   27.5019 C   0  0  0  0  0  0  0  0  0  0  0  0
   11.1286  -14.9895   28.2078 C   0  0  1  0  0  0  0  0  0  0  0  0
   10.0737  -15.4425   29.2503 C   0  0  0  0  0  0  0  0  0  0  0  0
   11.5842  -16.1565   27.4799 C   0  0  0  0  0  0  0  0  0  0  0  0
   11.9556  -16.0753   26.0275 C   0  0  2  0  0  0  0  0  0  0  0  0
   10.6456  -15.8778   25.3543 N   0  0  0  0  0  0  0  0  0  0  0  0
   12.5685  -17.2400   25.4381 C   0  0  0  0  0  0  0  0  0  0  0  0
   11.7843  -18.2705   24.9413 O   0  0  0  0  0  0  0  0  0  0  0  0
   13.7953  -17.3810   25.3505 O   0  0  0  0  0  0  0  0  0  0  0  0
  2  3  1  0
  2  1  1  1
  4  3  1  0
  4  5  2  0
  6  5  1  0
  7  6  2  0
  8  9  2  0
  8  7  1  0
  9  4  1  0
 10  2  1  0
 11 10  2  0
 13 12  1  0
 13 14  1  0
 16 15  1  1
 15 14  1  0
 16 17  1  0
 17 10  1  0
 18 25  1  0
 18 16  1  0
 19 18  2  0
 21 20  1  6
 21 23  1  0
 21 22  1  0
 24 23  1  1
 24 26  1  0
 24 25  1  0
 26 27  1  0
 28 26  2  0
M  END
$$$$
