FML.pdb
     RDKit          3D

 28 28  0  0  1  0  0  0  0  0999 V2000
    8.0029  -18.4661   26.9371 N   0  0  0  0  0  0  0  0  0  0  0  0
    7.5635  -17.4768   25.9551 C   0  0  1  0  0  0  0  0  0  0  0  0
    8.5887  -16.4011   25.8346 C   0  0  0  0  0  0  0  0  0  0  0  0
    8.5608  -15.3990   26.8971 C   0  0  0  0  0  0  0  0  0  0  0  0
    7.5322  -14.4529   26.9283 C   0  0  0  0  0  0  0  0  0  0  0  0
    7.5097  -13.5216   27.9425 C   0  0  0  0  0  0  0  0  0  0  0  0
    8.5029  -13.5308   28.9190 C   0  0  0  0  0  0  0  0  0  0  0  0
    9.5277  -14.4634   28.8992 C   0  0  0  0  0  0  0  0  0  0  0  0
    9.5330  -15.3881   27.8752 C   0  0  0  0  0  0  0  0  0  0  0  0
    7.3575  -18.1242   24.6467 C   0  0  0  0  0  0  0  0  0  0  0  0
    7.9314  -19.2057   24.4005 O   0  0  0  0  0  0  0  0  0  0  0  0
    1.3795  -19.9336   22.6221 C   0  0  0  0  0  0  0  0  0  0  0  0
    2.4694  -18.5340   22.3339 S   0  0  0  0  0  0  0  0  0  0  0  0
    4.1463  -19.0564   21.8949 C   0  0  0  0  0  0  0  0  0  0  0  0
    5.0377  -17.8906   21.8485 C   0  0  0  0  0  0  0  0  0  0  0  0
    6.4440  -17.9953   22.2782 C   0  0  2  0  0  0  0  0  0  0  0  0
    6.5202  -17.5200   23.6932 N   0  0  0  0  0  0  0  0  0  0  0  0
    7.4874  -17.2950   21.5699 C   0  0  0  0  0  0  0  0  0  0  0  0
    7.7663  -17.5304   20.3318 O   0  0  0  0  0  0  0  0  0  0  0  0
    7.4172  -12.3430   21.8736 C   0  0  0  0  0  0  0  0  0  0  0  0
    7.8284  -13.6309   21.2822 C   0  0  1  0  0  0  0  0  0  0  0  0
    7.6782  -13.4604   19.7482 C   0  0  0  0  0  0  0  0  0  0  0  0
    9.1356  -14.1931   21.5551 C   0  0  0  0  0  0  0  0  0  0  0  0
    9.4011  -15.6628   21.4019 C   0  0  2  0  0  0  0  0  0  0  0  0
    8.2836  -16.2885   22.1554 N   0  0  0  0  0  0  0  0  0  0  0  0
   10.6304  -16.1717   21.9582 C   0  0  0  0  0  0  0  0  0  0  0  0
   10.6075  -17.0044   23.0672 O   0  0  0  0  0  0  0  0  0  0  0  0
   11.7433  -15.8961   21.4909 O   0  0  0  0  0  0  0  0  0  0  0  0
  2  3  1  0
  2  1  1  1
  4  3  1  0
  4  5  2  0
  6  5  1  0
  7  6  2  0
  8  9  2  0
  8  7  1  0
  9  4  1  0
 10  2  1  0
 11 10  2  0
 13 12  1  0
 13 14  1  0
 16 15  1  6
 15 14  1  0
 16 17  1  0
 17 10  1  0
 18 25  1  0
 18 16  1  0
 19 18  2  0
 21 20  1  1
 21 23  1  0
 21 22  1  0
 24 23  1  1
 24 26  1  0
 24 25  1  0
 26 27  1  0
 28 26  2  0
M  END
$$$$
