FML.pdb
     RDKit          3D

 28 28  0  0  1  0  0  0  0  0999 V2000
    5.6165  -18.7019   24.5776 N   0  0  0  0  0  0  0  0  0  0  0  0
    5.9961  -17.2910   24.6177 C   0  0  1  0  0  0  0  0  0  0  0  0
    6.1439  -16.8521   26.0347 C   0  0  0  0  0  0  0  0  0  0  0  0
    6.4124  -15.4277   26.2156 C   0  0  0  0  0  0  0  0  0  0  0  0
    7.7097  -15.0010   26.5138 C   0  0  0  0  0  0  0  0  0  0  0  0
    7.9527  -13.6545   26.6691 C   0  0  0  0  0  0  0  0  0  0  0  0
    6.9129  -12.7382   26.5289 C   0  0  0  0  0  0  0  0  0  0  0  0
    5.6227  -13.1485   26.2334 C   0  0  0  0  0  0  0  0  0  0  0  0
    5.3993  -14.5015   26.0816 C   0  0  0  0  0  0  0  0  0  0  0  0
    7.2649  -17.0910   23.8941 C   0  0  0  0  0  0  0  0  0  0  0  0
    8.0873  -18.0284   23.8276 O   0  0  0  0  0  0  0  0  0  0  0  0
    9.1749  -11.8080   20.3042 C   0  0  0  0  0  0  0  0  0  0  0  0
    8.3849  -13.0367   19.2572 S   0  0  0  0  0  0  0  0  0  0  0  0
    8.2524  -14.6454   20.0768 C   0  0  0  0  0  0  0  0  0  0  0  0
    8.4082  -14.4824   21.5276 C   0  0  0  0  0  0  0  0  0  0  0  0
    8.7111  -15.6382   22.3912 C   0  0  2  0  0  0  0  0  0  0  0  0
    7.5350  -15.8518   23.2884 N   0  0  0  0  0  0  0  0  0  0  0  0
    9.8687  -15.6345   23.2519 C   0  0  0  0  0  0  0  0  0  0  0  0
   11.0743  -15.5679   22.7956 O   0  0  0  0  0  0  0  0  0  0  0  0
   10.9881  -12.9046   27.0113 C   0  0  0  0  0  0  0  0  0  0  0  0
   11.0670  -14.2648   27.5779 C   0  0  1  0  0  0  0  0  0  0  0  0
   10.3779  -14.1870   28.9650 C   0  0  0  0  0  0  0  0  0  0  0  0
   10.5284  -15.4033   26.8617 C   0  0  0  0  0  0  0  0  0  0  0  0
   11.0200  -15.7672   25.4905 C   0  0  2  0  0  0  0  0  0  0  0  0
    9.7907  -15.6899   24.6593 N   0  0  0  0  0  0  0  0  0  0  0  0
   11.5713  -17.0884   25.3176 C   0  0  0  0  0  0  0  0  0  0  0  0
   12.9383  -17.2981   25.4230 O   0  0  0  0  0  0  0  0  0  0  0  0
   10.8730  -18.0797   25.0677 O   0  0  0  0  0  0  0  0  0  0  0  0
  2  3  1  0
  2  1  1  1
  4  3  1  0
  4  5  2  0
  6  5  1  0
  7  6  2  0
  8  9  2  0
  8  7  1  0
  9  4  1  0
 10  2  1  0
 11 10  2  0
 13 12  1  0
 13 14  1  0
 16 15  1  1
 15 14  1  0
 16 17  1  0
 17 10  1  0
 18 25  1  0
 18 16  1  0
 19 18  2  0
 21 20  1  6
 21 23  1  0
 21 22  1  0
 24 23  1  1
 24 26  1  0
 24 25  1  0
 26 27  1  0
 28 26  2  0
M  END
$$$$
