FML.pdb
     RDKit          3D

 28 28  0  0  1  0  0  0  0  0999 V2000
    6.1698  -14.6585   21.1418 N   0  0  0  0  0  0  0  0  0  0  0  0
    7.6138  -14.7263   21.3576 C   0  0  1  0  0  0  0  0  0  0  0  0
    8.2933  -13.6900   20.5288 C   0  0  0  0  0  0  0  0  0  0  0  0
    8.1380  -13.8535   19.0855 C   0  0  0  0  0  0  0  0  0  0  0  0
    7.5589  -12.8284   18.3320 C   0  0  0  0  0  0  0  0  0  0  0  0
    7.4299  -12.9890   16.9704 C   0  0  0  0  0  0  0  0  0  0  0  0
    7.8736  -14.1609   16.3620 C   0  0  0  0  0  0  0  0  0  0  0  0
    8.4493  -15.1843   17.0979 C   0  0  0  0  0  0  0  0  0  0  0  0
    8.5698  -15.0046   18.4605 C   0  0  0  0  0  0  0  0  0  0  0  0
    7.9198  -14.5103   22.7835 C   0  0  0  0  0  0  0  0  0  0  0  0
    7.7455  -13.3793   23.2836 O   0  0  0  0  0  0  0  0  0  0  0  0
    6.6145  -11.8297   26.8640 C   0  0  0  0  0  0  0  0  0  0  0  0
    7.6597  -13.0895   27.6057 S   0  0  0  0  0  0  0  0  0  0  0  0
    7.2052  -14.7562   27.0645 C   0  0  0  0  0  0  0  0  0  0  0  0
    7.3773  -14.8749   25.6112 C   0  0  0  0  0  0  0  0  0  0  0  0
    8.6032  -15.4611   25.0395 C   0  0  2  0  0  0  0  0  0  0  0  0
    8.4026  -15.5756   23.5628 N   0  0  0  0  0  0  0  0  0  0  0  0
    9.0777  -16.7520   25.4746 C   0  0  0  0  0  0  0  0  0  0  0  0
    8.3660  -17.8243   25.3749 O   0  0  0  0  0  0  0  0  0  0  0  0
   14.1384  -18.3778   24.7337 C   0  0  0  0  0  0  0  0  0  0  0  0
   12.6883  -18.3444   25.0050 C   0  0  1  0  0  0  0  0  0  0  0  0
   12.0819  -19.5342   24.2166 C   0  0  0  0  0  0  0  0  0  0  0  0
   12.1824  -18.3882   26.3620 C   0  0  0  0  0  0  0  0  0  0  0  0
   10.7147  -18.2642   26.6527 C   0  0  2  0  0  0  0  0  0  0  0  0
   10.3562  -16.9624   26.0323 N   0  0  0  0  0  0  0  0  0  0  0  0
   10.3207  -18.2010   28.0384 C   0  0  0  0  0  0  0  0  0  0  0  0
    9.8096  -17.0265   28.5702 O   0  0  0  0  0  0  0  0  0  0  0  0
   10.4193  -19.1652   28.8088 O   0  0  0  0  0  0  0  0  0  0  0  0
  2  3  1  0
  2  1  1  1
  4  3  1  0
  4  5  2  0
  6  5  1  0
  7  6  2  0
  8  9  2  0
  8  7  1  0
  9  4  1  0
 10  2  1  0
 11 10  2  0
 13 12  1  0
 13 14  1  0
 16 15  1  1
 15 14  1  0
 16 17  1  0
 17 10  1  0
 18 25  1  0
 18 16  1  0
 19 18  2  0
 21 20  1  1
 21 23  1  0
 21 22  1  0
 24 23  1  1
 24 26  1  0
 24 25  1  0
 26 27  1  0
 28 26  2  0
M  END
$$$$
