FML.pdb
     RDKit          3D

 28 28  0  0  1  0  0  0  0  0999 V2000
    5.4927  -18.7677   24.5220 N   0  0  0  0  0  0  0  0  0  0  0  0
    5.9482  -17.3814   24.6061 C   0  0  1  0  0  0  0  0  0  0  0  0
    6.1816  -17.0166   26.0326 C   0  0  0  0  0  0  0  0  0  0  0  0
    6.5200  -15.6146   26.2644 C   0  0  0  0  0  0  0  0  0  0  0  0
    7.8453  -15.2579   26.5299 C   0  0  0  0  0  0  0  0  0  0  0  0
    8.1538  -13.9314   26.7337 C   0  0  0  0  0  0  0  0  0  0  0  0
    7.1515  -12.9659   26.6741 C   0  0  0  0  0  0  0  0  0  0  0  0
    5.8342  -13.3066   26.4118 C   0  0  0  0  0  0  0  0  0  0  0  0
    5.5451  -14.6406   26.2104 C   0  0  0  0  0  0  0  0  0  0  0  0
    7.1926  -17.2133   23.8337 C   0  0  0  0  0  0  0  0  0  0  0  0
    8.0390  -18.1316   23.8270 O   0  0  0  0  0  0  0  0  0  0  0  0
    7.8801  -11.8514   19.9238 C   0  0  0  0  0  0  0  0  0  0  0  0
    9.4207  -12.7766   19.9385 S   0  0  0  0  0  0  0  0  0  0  0  0
    9.1424  -14.5598   20.0804 C   0  0  0  0  0  0  0  0  0  0  0  0
    8.2447  -14.8381   21.2084 C   0  0  0  0  0  0  0  0  0  0  0  0
    8.6063  -15.8307   22.2368 C   0  0  2  0  0  0  0  0  0  0  0  0
    7.4130  -16.0257   23.1153 N   0  0  0  0  0  0  0  0  0  0  0  0
    9.7183  -15.6014   23.1266 C   0  0  0  0  0  0  0  0  0  0  0  0
   10.9266  -15.4398   22.7022 O   0  0  0  0  0  0  0  0  0  0  0  0
   10.4857  -12.6051   28.3212 C   0  0  0  0  0  0  0  0  0  0  0  0
   10.9619  -13.7227   27.4835 C   0  0  1  0  0  0  0  0  0  0  0  0
   11.0980  -14.9387   28.4362 C   0  0  0  0  0  0  0  0  0  0  0  0
   10.2241  -14.1410   26.3088 C   0  0  0  0  0  0  0  0  0  0  0  0
   10.7568  -15.2008   25.3884 C   0  0  2  0  0  0  0  0  0  0  0  0
    9.5876  -15.5207   24.5288 N   0  0  0  0  0  0  0  0  0  0  0  0
   11.1964  -16.4354   25.9899 C   0  0  0  0  0  0  0  0  0  0  0  0
   12.5447  -16.6614   26.2239 O   0  0  0  0  0  0  0  0  0  0  0  0
   10.4149  -17.3383   26.3169 O   0  0  0  0  0  0  0  0  0  0  0  0
  2  3  1  0
  2  1  1  1
  4  3  1  0
  4  5  2  0
  6  5  1  0
  7  6  2  0
  8  9  2  0
  8  7  1  0
  9  4  1  0
 10  2  1  0
 11 10  2  0
 13 12  1  0
 13 14  1  0
 16 15  1  6
 15 14  1  0
 16 17  1  0
 17 10  1  0
 18 25  1  0
 18 16  1  0
 19 18  2  0
 21 20  1  1
 21 23  1  0
 21 22  1  0
 24 23  1  1
 24 26  1  0
 24 25  1  0
 26 27  1  0
 28 26  2  0
M  END
$$$$
