WAP.pdb
     RDKit          3D

 27 29  0  0  1  0  0  0  0  0999 V2000
   24.9538  -20.6258   -9.3736 N   0  0  0  0  0  0  0  0  0  0  0  0
   26.3292  -20.2312   -9.4904 C   0  0  1  0  0  0  0  0  0  0  0  0
   27.1591  -20.8452   -8.3915 C   0  0  0  0  0  0  0  0  0  0  0  0
   27.3650  -20.0033   -7.2163 C   0  0  0  0  0  0  0  0  0  0  0  0
   26.8475  -18.7304   -6.9665 C   0  0  0  0  0  0  0  0  0  0  0  0
   27.2841  -18.2624   -5.7903 N   0  0  0  0  0  0  0  0  0  0  0  0
   28.0846  -19.2052   -5.2523 C   0  0  0  0  0  0  0  0  0  0  0  0
   28.7968  -19.2908   -4.0773 C   0  0  0  0  0  0  0  0  0  0  0  0
   29.5469  -20.3938   -3.7494 C   0  0  0  0  0  0  0  0  0  0  0  0
   29.6128  -21.4768   -4.6055 C   0  0  0  0  0  0  0  0  0  0  0  0
   28.9134  -21.4106   -5.7764 C   0  0  0  0  0  0  0  0  0  0  0  0
   28.1527  -20.2980   -6.1165 C   0  0  0  0  0  0  0  0  0  0  0  0
   26.8658  -20.7724  -10.7722 C   0  0  0  0  0  0  0  0  0  0  0  0
   28.1196  -20.9198  -10.8290 O   0  0  0  0  0  0  0  0  0  0  0  0
   26.3809  -22.1590  -14.0850 C   0  0  0  0  0  0  0  0  0  0  0  0
   26.6749  -20.9496  -13.2283 C   0  0  2  0  0  0  0  0  0  0  0  0
   26.1170  -21.1241  -11.8962 N   0  0  0  0  0  0  0  0  0  0  0  0
   26.1752  -19.6908  -13.8312 C   0  0  0  0  0  0  0  0  0  0  0  0
   25.1665  -19.1520  -13.3038 O   0  0  0  0  0  0  0  0  0  0  0  0
   26.7722  -19.0719  -14.9594 N   0  0  0  0  0  0  0  0  0  0  0  0
   27.9199  -19.6245  -15.6775 C   0  0  0  0  0  0  0  0  0  0  0  0
   28.7140  -18.3795  -15.9925 C   0  0  0  0  0  0  0  0  0  0  0  0
   27.7828  -17.2184  -15.8857 C   0  0  0  0  0  0  0  0  0  0  0  0
   26.4422  -17.8585  -15.6450 C   0  0  1  0  0  0  0  0  0  0  0  0
   25.8083  -18.1111  -16.9697 C   0  0  0  0  0  0  0  0  0  0  0  0
   25.1872  -17.1016  -17.6777 O   0  0  0  0  0  0  0  0  0  0  0  0
   25.8136  -19.2513  -17.4959 O   0  0  0  0  0  0  0  0  0  0  0  0
  2  1  1  1
  3  2  1  0
  4  5  2  0
  4  3  1  0
  6  5  1  0
  7 12  2  0
  7  6  1  0
  8  7  1  0
  9  8  2  0
  9 10  1  0
 10 11  2  0
 11 12  1  0
 12  4  1  0
 13  2  1  0
 14 13  2  0
 16 17  1  0
 16 15  1  6
 17 13  1  0
 18 16  1  0
 19 18  2  0
 20 18  1  0
 21 22  1  0
 21 20  1  0
 23 24  1  0
 23 22  1  0
 24 20  1  0
 24 25  1  6
 26 25  1  0
 27 25  2  0
M  END
$$$$
