WAP.pdb
     RDKit          3D

 27 29  0  0  1  0  0  0  0  0999 V2000
   26.7544  -22.9461  -10.5702 N   0  0  0  0  0  0  0  0  0  0  0  0
   26.0496  -21.7316  -10.2713 C   0  0  1  0  0  0  0  0  0  0  0  0
   26.9890  -20.5521  -10.2702 C   0  0  0  0  0  0  0  0  0  0  0  0
   27.9958  -20.5535   -9.2126 C   0  0  0  0  0  0  0  0  0  0  0  0
   29.3230  -20.9816   -9.2865 C   0  0  0  0  0  0  0  0  0  0  0  0
   29.9296  -20.8561   -8.0993 N   0  0  0  0  0  0  0  0  0  0  0  0
   29.0260  -20.3499   -7.2353 C   0  0  0  0  0  0  0  0  0  0  0  0
   29.0730  -20.0041   -5.9037 C   0  0  0  0  0  0  0  0  0  0  0  0
   27.9892  -19.4844   -5.2389 C   0  0  0  0  0  0  0  0  0  0  0  0
   26.7907  -19.2869   -5.8984 C   0  0  0  0  0  0  0  0  0  0  0  0
   26.7241  -19.6242   -7.2199 C   0  0  0  0  0  0  0  0  0  0  0  0
   27.8157  -20.1516   -7.8999 C   0  0  0  0  0  0  0  0  0  0  0  0
   25.0636  -21.4803  -11.3614 C   0  0  0  0  0  0  0  0  0  0  0  0
   25.5217  -21.5059  -12.5388 O   0  0  0  0  0  0  0  0  0  0  0  0
   21.3901  -21.0346  -11.9413 C   0  0  0  0  0  0  0  0  0  0  0  0
   22.8406  -21.0835  -12.3618 C   0  0  2  0  0  0  0  0  0  0  0  0
   23.7017  -21.2232  -11.1977 N   0  0  0  0  0  0  0  0  0  0  0  0
   23.2425  -19.8980  -13.1561 C   0  0  0  0  0  0  0  0  0  0  0  0
   23.9428  -19.0223  -12.5827 O   0  0  0  0  0  0  0  0  0  0  0  0
   22.8807  -19.7059  -14.5141 N   0  0  0  0  0  0  0  0  0  0  0  0
   22.2502  -20.7341  -15.3408 C   0  0  0  0  0  0  0  0  0  0  0  0
   22.9329  -20.5209  -16.6706 C   0  0  0  0  0  0  0  0  0  0  0  0
   23.5080  -19.1440  -16.6602 C   0  0  0  0  0  0  0  0  0  0  0  0
   23.0118  -18.5609  -15.3645 C   0  0  1  0  0  0  0  0  0  0  0  0
   21.7031  -17.8992  -15.6290 C   0  0  0  0  0  0  0  0  0  0  0  0
   21.6309  -16.6069  -16.1094 O   0  0  0  0  0  0  0  0  0  0  0  0
   20.6135  -18.4896  -15.4263 O   0  0  0  0  0  0  0  0  0  0  0  0
  2  1  1  6
  3  2  1  0
  4  5  2  0
  4  3  1  0
  6  5  1  0
  7 12  2  0
  7  6  1  0
  8  7  1  0
  9  8  2  0
  9 10  1  0
 10 11  2  0
 11 12  1  0
 12  4  1  0
 13  2  1  0
 14 13  2  0
 16 17  1  0
 16 15  1  1
 17 13  1  0
 18 16  1  0
 19 18  2  0
 20 18  1  0
 21 22  1  0
 21 20  1  0
 23 24  1  0
 23 22  1  0
 24 20  1  0
 24 25  1  6
 26 25  1  0
 27 25  2  0
M  END
$$$$
