WAP.pdb
     RDKit          3D

 27 29  0  0  1  0  0  0  0  0999 V2000
   22.9159  -20.8334  -17.2752 N   0  0  0  0  0  0  0  0  0  0  0  0
   22.9476  -20.0239  -16.0900 C   0  0  1  0  0  0  0  0  0  0  0  0
   21.9910  -20.5540  -15.0520 C   0  0  0  0  0  0  0  0  0  0  0  0
   20.5971  -20.1535  -15.2214 C   0  0  0  0  0  0  0  0  0  0  0  0
   19.6409  -19.9194  -14.2308 C   0  0  0  0  0  0  0  0  0  0  0  0
   18.4609  -19.5976  -14.7760 N   0  0  0  0  0  0  0  0  0  0  0  0
   18.6170  -19.6131  -16.1156 C   0  0  0  0  0  0  0  0  0  0  0  0
   17.7741  -19.3612  -17.1744 C   0  0  0  0  0  0  0  0  0  0  0  0
   18.1904  -19.4362  -18.4812 C   0  0  0  0  0  0  0  0  0  0  0  0
   19.4964  -19.7736  -18.7829 C   0  0  0  0  0  0  0  0  0  0  0  0
   20.3477  -20.0275  -17.7460 C   0  0  0  0  0  0  0  0  0  0  0  0
   19.9344  -19.9550  -16.4208 C   0  0  0  0  0  0  0  0  0  0  0  0
   24.3101  -20.1205  -15.4915 C   0  0  0  0  0  0  0  0  0  0  0  0
   24.7159  -21.2870  -15.2246 O   0  0  0  0  0  0  0  0  0  0  0  0
   26.9832  -17.9232  -14.0477 C   0  0  0  0  0  0  0  0  0  0  0  0
   26.2907  -19.2410  -14.3067 C   0  0  2  0  0  0  0  0  0  0  0  0
   25.1619  -19.0528  -15.2048 N   0  0  0  0  0  0  0  0  0  0  0  0
   25.8456  -19.9044  -13.0578 C   0  0  0  0  0  0  0  0  0  0  0  0
   24.6098  -20.0948  -12.9074 O   0  0  0  0  0  0  0  0  0  0  0  0
   26.7343  -20.3299  -12.0374 N   0  0  0  0  0  0  0  0  0  0  0  0
   28.1791  -20.1069  -12.0726 C   0  0  0  0  0  0  0  0  0  0  0  0
   28.7042  -21.4026  -11.5023 C   0  0  0  0  0  0  0  0  0  0  0  0
   27.5847  -22.0459  -10.7541 C   0  0  0  0  0  0  0  0  0  0  0  0
   26.4853  -21.0196  -10.8072 C   0  0  1  0  0  0  0  0  0  0  0  0
   26.6284  -20.1301   -9.6203 C   0  0  0  0  0  0  0  0  0  0  0  0
   26.1247  -20.4867   -8.3852 O   0  0  0  0  0  0  0  0  0  0  0  0
   27.2127  -19.0211   -9.6948 O   0  0  0  0  0  0  0  0  0  0  0  0
  2  1  1  6
  3  2  1  0
  4  5  2  0
  4  3  1  0
  6  5  1  0
  7 12  2  0
  7  6  1  0
  8  7  1  0
  9  8  2  0
  9 10  1  0
 10 11  2  0
 11 12  1  0
 12  4  1  0
 13  2  1  0
 14 13  2  0
 16 17  1  0
 16 15  1  1
 17 13  1  0
 18 16  1  0
 19 18  2  0
 20 18  1  0
 21 22  1  0
 21 20  1  0
 23 24  1  0
 23 22  1  0
 24 20  1  0
 24 25  1  1
 26 25  1  0
 27 25  2  0
M  END
$$$$
