WAP.pdb
     RDKit          3D

 27 29  0  0  1  0  0  0  0  0999 V2000
   25.2701  -18.6732   -9.2561 N   0  0  0  0  0  0  0  0  0  0  0  0
   26.2421  -19.7098   -9.4599 C   0  0  1  0  0  0  0  0  0  0  0  0
   25.8358  -20.9746   -8.7466 C   0  0  0  0  0  0  0  0  0  0  0  0
   25.9989  -20.9562   -7.2957 C   0  0  0  0  0  0  0  0  0  0  0  0
   25.1527  -21.4985   -6.3261 C   0  0  0  0  0  0  0  0  0  0  0  0
   25.6221  -21.2550   -5.0958 N   0  0  0  0  0  0  0  0  0  0  0  0
   26.7692  -20.5588   -5.2314 C   0  0  0  0  0  0  0  0  0  0  0  0
   27.6826  -20.0470   -4.3377 C   0  0  0  0  0  0  0  0  0  0  0  0
   28.8063  -19.3676   -4.7407 C   0  0  0  0  0  0  0  0  0  0  0  0
   29.0628  -19.1712   -6.0846 C   0  0  0  0  0  0  0  0  0  0  0  0
   28.1680  -19.6712   -6.9867 C   0  0  0  0  0  0  0  0  0  0  0  0
   27.0280  -20.3591   -6.5874 C   0  0  0  0  0  0  0  0  0  0  0  0
   26.2772  -20.0418  -10.9132 C   0  0  0  0  0  0  0  0  0  0  0  0
   25.2238  -19.7898  -11.5641 O   0  0  0  0  0  0  0  0  0  0  0  0
   28.7975  -20.8327  -13.5533 C   0  0  0  0  0  0  0  0  0  0  0  0
   27.4044  -20.5216  -13.0578 C   0  0  2  0  0  0  0  0  0  0  0  0
   27.3537  -20.5975  -11.6060 N   0  0  0  0  0  0  0  0  0  0  0  0
   26.3777  -21.4104  -13.6527 C   0  0  0  0  0  0  0  0  0  0  0  0
   25.8947  -22.3145  -12.9210 O   0  0  0  0  0  0  0  0  0  0  0  0
   25.9190  -21.2921  -14.9897 N   0  0  0  0  0  0  0  0  0  0  0  0
   26.4199  -20.2959  -15.9358 C   0  0  0  0  0  0  0  0  0  0  0  0
   25.1574  -19.9019  -16.6645 C   0  0  0  0  0  0  0  0  0  0  0  0
   24.1613  -20.9923  -16.4509 C   0  0  0  0  0  0  0  0  0  0  0  0
   24.9413  -22.0475  -15.7140 C   0  0  1  0  0  0  0  0  0  0  0  0
   25.5591  -22.9524  -16.7239 C   0  0  0  0  0  0  0  0  0  0  0  0
   24.8582  -24.0075  -17.2733 O   0  0  0  0  0  0  0  0  0  0  0  0
   26.7411  -22.7923  -17.1163 O   0  0  0  0  0  0  0  0  0  0  0  0
  2  1  1  6
  3  2  1  0
  4  5  2  0
  4  3  1  0
  6  5  1  0
  7 12  2  0
  7  6  1  0
  8  7  1  0
  9  8  2  0
  9 10  1  0
 10 11  2  0
 11 12  1  0
 12  4  1  0
 13  2  1  0
 14 13  2  0
 16 17  1  0
 16 15  1  6
 17 13  1  0
 18 16  1  0
 19 18  2  0
 20 18  1  0
 21 22  1  0
 21 20  1  0
 23 24  1  0
 23 22  1  0
 24 20  1  0
 24 25  1  6
 26 25  1  0
 27 25  2  0
M  END
$$$$
