WAP.pdb
     RDKit          3D

 27 29  0  0  1  0  0  0  0  0999 V2000
   25.2081  -20.4601   -8.5578 N   0  0  0  0  0  0  0  0  0  0  0  0
   26.4644  -20.1355   -9.1721 C   0  0  1  0  0  0  0  0  0  0  0  0
   27.6156  -20.5431   -8.2877 C   0  0  0  0  0  0  0  0  0  0  0  0
   27.7620  -19.7743   -7.0550 C   0  0  0  0  0  0  0  0  0  0  0  0
   27.2541  -18.5062   -6.7645 C   0  0  0  0  0  0  0  0  0  0  0  0
   27.6235  -18.1160   -5.5380 N   0  0  0  0  0  0  0  0  0  0  0  0
   28.3698  -19.1058   -5.0066 C   0  0  0  0  0  0  0  0  0  0  0  0
   29.0036  -19.2743   -3.7962 C   0  0  0  0  0  0  0  0  0  0  0  0
   29.7099  -20.4110   -3.4867 C   0  0  0  0  0  0  0  0  0  0  0  0
   29.8096  -21.4448   -4.3986 C   0  0  0  0  0  0  0  0  0  0  0  0
   29.1879  -21.2962   -5.6051 C   0  0  0  0  0  0  0  0  0  0  0  0
   28.4720  -20.1490   -5.9269 C   0  0  0  0  0  0  0  0  0  0  0  0
   26.5953  -20.9346  -10.4243 C   0  0  0  0  0  0  0  0  0  0  0  0
   27.6482  -21.6249  -10.5328 O   0  0  0  0  0  0  0  0  0  0  0  0
   25.4962  -22.1189  -13.6184 C   0  0  0  0  0  0  0  0  0  0  0  0
   26.1323  -20.9841  -12.8499 C   0  0  2  0  0  0  0  0  0  0  0  0
   25.6723  -20.9856  -11.4698 N   0  0  0  0  0  0  0  0  0  0  0  0
   25.8779  -19.6629  -13.4725 C   0  0  0  0  0  0  0  0  0  0  0  0
   25.0415  -18.9060  -12.9125 O   0  0  0  0  0  0  0  0  0  0  0  0
   26.5241  -19.2163  -14.6536 N   0  0  0  0  0  0  0  0  0  0  0  0
   27.5410  -19.9889  -15.3658 C   0  0  0  0  0  0  0  0  0  0  0  0
   28.5121  -18.9099  -15.7811 C   0  0  0  0  0  0  0  0  0  0  0  0
   27.7835  -17.6089  -15.7236 C   0  0  0  0  0  0  0  0  0  0  0  0
   26.3675  -18.0078  -15.4061 C   0  0  1  0  0  0  0  0  0  0  0  0
   25.6527  -18.2315  -16.6943 C   0  0  0  0  0  0  0  0  0  0  0  0
   25.1778  -17.1778  -17.4496 O   0  0  0  0  0  0  0  0  0  0  0  0
   25.4535  -19.3865  -17.1454 O   0  0  0  0  0  0  0  0  0  0  0  0
  2  1  1  1
  3  2  1  0
  4  5  2  0
  4  3  1  0
  6  5  1  0
  7 12  2  0
  7  6  1  0
  8  7  1  0
  9  8  2  0
  9 10  1  0
 10 11  2  0
 11 12  1  0
 12  4  1  0
 13  2  1  0
 14 13  2  0
 16 17  1  0
 16 15  1  6
 17 13  1  0
 18 16  1  0
 19 18  2  0
 20 18  1  0
 21 22  1  0
 21 20  1  0
 23 24  1  0
 23 22  1  0
 24 20  1  0
 24 25  1  6
 26 25  1  0
 27 25  2  0
M  END
$$$$
