WAP.pdb
     RDKit          3D

 27 29  0  0  1  0  0  0  0  0999 V2000
   22.2364  -21.0299  -16.9923 N   0  0  0  0  0  0  0  0  0  0  0  0
   22.7310  -19.9747  -16.1540 C   0  0  1  0  0  0  0  0  0  0  0  0
   21.7090  -19.5916  -15.1138 C   0  0  0  0  0  0  0  0  0  0  0  0
   20.5387  -18.8782  -15.6176 C   0  0  0  0  0  0  0  0  0  0  0  0
   19.1981  -19.2631  -15.5471 C   0  0  0  0  0  0  0  0  0  0  0  0
   18.4125  -18.3608  -16.1486 N   0  0  0  0  0  0  0  0  0  0  0  0
   19.2100  -17.3798  -16.6183 C   0  0  0  0  0  0  0  0  0  0  0  0
   18.9749  -16.2081  -17.3016 C   0  0  0  0  0  0  0  0  0  0  0  0
   19.9856  -15.3520  -17.6652 C   0  0  0  0  0  0  0  0  0  0  0  0
   21.2993  -15.6443  -17.3506 C   0  0  0  0  0  0  0  0  0  0  0  0
   21.5529  -16.8025  -16.6734 C   0  0  0  0  0  0  0  0  0  0  0  0
   20.5362  -17.6748  -16.3024 C   0  0  0  0  0  0  0  0  0  0  0  0
   23.9170  -20.4847  -15.4075 C   0  0  0  0  0  0  0  0  0  0  0  0
   23.7447  -21.5560  -14.7600 O   0  0  0  0  0  0  0  0  0  0  0  0
   27.4355  -19.5390  -14.5145 C   0  0  0  0  0  0  0  0  0  0  0  0
   26.1351  -20.2882  -14.3392 C   0  0  2  0  0  0  0  0  0  0  0  0
   25.1796  -19.8918  -15.3619 N   0  0  0  0  0  0  0  0  0  0  0  0
   25.5483  -20.1007  -12.9907 C   0  0  0  0  0  0  0  0  0  0  0  0
   24.4906  -19.4226  -12.9044 O   0  0  0  0  0  0  0  0  0  0  0  0
   26.1142  -20.6423  -11.8081 N   0  0  0  0  0  0  0  0  0  0  0  0
   27.3609  -21.4061  -11.7793 C   0  0  0  0  0  0  0  0  0  0  0  0
   27.0417  -22.4775  -10.7643 C   0  0  0  0  0  0  0  0  0  0  0  0
   25.8863  -21.9929   -9.9538 C   0  0  0  0  0  0  0  0  0  0  0  0
   25.6693  -20.5880  -10.4479 C   0  0  1  0  0  0  0  0  0  0  0  0
   26.5016  -19.6740   -9.6159 C   0  0  0  0  0  0  0  0  0  0  0  0
   26.0955  -19.2695   -8.3598 O   0  0  0  0  0  0  0  0  0  0  0  0
   27.6056  -19.2349  -10.0226 O   0  0  0  0  0  0  0  0  0  0  0  0
  2  1  1  6
  3  2  1  0
  4  5  2  0
  4  3  1  0
  6  5  1  0
  7 12  2  0
  7  6  1  0
  8  7  1  0
  9  8  2  0
  9 10  1  0
 10 11  2  0
 11 12  1  0
 12  4  1  0
 13  2  1  0
 14 13  2  0
 16 17  1  0
 16 15  1  1
 17 13  1  0
 18 16  1  0
 19 18  2  0
 20 18  1  0
 21 22  1  0
 21 20  1  0
 23 24  1  0
 23 22  1  0
 24 20  1  0
 24 25  1  1
 26 25  1  0
 27 25  2  0
M  END
$$$$
