WAP.pdb
     RDKit          3D

 27 29  0  0  1  0  0  0  0  0999 V2000
   25.5538  -21.8329   -9.6180 N   0  0  0  0  0  0  0  0  0  0  0  0
   26.1536  -20.5614   -9.9088 C   0  0  1  0  0  0  0  0  0  0  0  0
   27.2552  -20.2504   -8.9273 C   0  0  0  0  0  0  0  0  0  0  0  0
   26.8280  -20.0657   -7.5433 C   0  0  0  0  0  0  0  0  0  0  0  0
   25.5322  -19.8738   -7.0595 C   0  0  0  0  0  0  0  0  0  0  0  0
   25.5404  -19.7118   -5.7302 N   0  0  0  0  0  0  0  0  0  0  0  0
   26.8230  -19.7935   -5.3211 C   0  0  0  0  0  0  0  0  0  0  0  0
   27.4359  -19.7147   -4.0910 C   0  0  0  0  0  0  0  0  0  0  0  0
   28.7944  -19.8450   -3.9353 C   0  0  0  0  0  0  0  0  0  0  0  0
   29.6080  -20.0644   -5.0309 C   0  0  0  0  0  0  0  0  0  0  0  0
   29.0185  -20.1451   -6.2599 C   0  0  0  0  0  0  0  0  0  0  0  0
   27.6448  -20.0134   -6.4265 C   0  0  0  0  0  0  0  0  0  0  0  0
   26.7992  -20.6426  -11.2506 C   0  0  0  0  0  0  0  0  0  0  0  0
   28.0628  -20.6570  -11.2569 O   0  0  0  0  0  0  0  0  0  0  0  0
   26.7681  -21.6481  -14.6349 C   0  0  0  0  0  0  0  0  0  0  0  0
   26.8732  -20.4561  -13.7123 C   0  0  2  0  0  0  0  0  0  0  0  0
   26.1409  -20.7026  -12.4797 N   0  0  0  0  0  0  0  0  0  0  0  0
   26.3994  -19.2026  -14.3467 C   0  0  0  0  0  0  0  0  0  0  0  0
   25.3599  -18.6686  -13.8775 O   0  0  0  0  0  0  0  0  0  0  0  0
   27.0534  -18.5839  -15.4428 N   0  0  0  0  0  0  0  0  0  0  0  0
   28.2222  -19.1485  -16.1162 C   0  0  0  0  0  0  0  0  0  0  0  0
   29.0480  -17.9135  -16.3860 C   0  0  0  0  0  0  0  0  0  0  0  0
   28.1308  -16.7390  -16.3088 C   0  0  0  0  0  0  0  0  0  0  0  0
   26.7716  -17.3601  -16.1312 C   0  0  1  0  0  0  0  0  0  0  0  0
   26.1912  -17.5919  -17.4839 C   0  0  0  0  0  0  0  0  0  0  0  0
   25.5598  -16.5819  -18.1820 O   0  0  0  0  0  0  0  0  0  0  0  0
   26.2530  -18.7142  -18.0438 O   0  0  0  0  0  0  0  0  0  0  0  0
  2  1  1  1
  3  2  1  0
  4  5  2  0
  4  3  1  0
  6  5  1  0
  7 12  2  0
  7  6  1  0
  8  7  1  0
  9  8  2  0
  9 10  1  0
 10 11  2  0
 11 12  1  0
 12  4  1  0
 13  2  1  0
 14 13  2  0
 16 17  1  0
 16 15  1  6
 17 13  1  0
 18 16  1  0
 19 18  2  0
 20 18  1  0
 21 22  1  0
 21 20  1  0
 23 24  1  0
 23 22  1  0
 24 20  1  0
 24 25  1  6
 26 25  1  0
 27 25  2  0
M  END
$$$$
