WAP.pdb
     RDKit          3D

 27 29  0  0  1  0  0  0  0  0999 V2000
   24.2305  -20.6584   -9.2085 N   0  0  0  0  0  0  0  0  0  0  0  0
   25.5132  -20.3086   -9.7501 C   0  0  1  0  0  0  0  0  0  0  0  0
   26.6201  -21.0114   -9.0056 C   0  0  0  0  0  0  0  0  0  0  0  0
   26.6744  -20.7501   -7.5700 C   0  0  0  0  0  0  0  0  0  0  0  0
   25.6778  -20.9668   -6.6160 C   0  0  0  0  0  0  0  0  0  0  0  0
   26.0879  -20.5751   -5.4030 N   0  0  0  0  0  0  0  0  0  0  0  0
   27.3437  -20.1011   -5.5345 C   0  0  0  0  0  0  0  0  0  0  0  0
   28.2611  -19.5797   -4.6505 C   0  0  0  0  0  0  0  0  0  0  0  0
   29.5111  -19.1678   -5.0437 C   0  0  0  0  0  0  0  0  0  0  0  0
   29.8976  -19.2655   -6.3670 C   0  0  0  0  0  0  0  0  0  0  0  0
   29.0012  -19.7799   -7.2594 C   0  0  0  0  0  0  0  0  0  0  0  0
   27.7339  -20.1980   -6.8702 C   0  0  0  0  0  0  0  0  0  0  0  0
   25.5785  -20.7983  -11.1571 C   0  0  0  0  0  0  0  0  0  0  0  0
   26.1022  -21.9363  -11.3232 O   0  0  0  0  0  0  0  0  0  0  0  0
   24.0582  -20.3450  -14.4683 C   0  0  0  0  0  0  0  0  0  0  0  0
   25.2332  -20.7345  -13.6018 C   0  0  2  0  0  0  0  0  0  0  0  0
   25.1197  -20.1209  -12.2877 N   0  0  0  0  0  0  0  0  0  0  0  0
   26.5352  -20.3849  -14.2188 C   0  0  0  0  0  0  0  0  0  0  0  0
   27.1540  -19.3926  -13.7515 O   0  0  0  0  0  0  0  0  0  0  0  0
   27.1099  -21.1062  -15.2966 N   0  0  0  0  0  0  0  0  0  0  0  0
   26.4553  -22.2317  -15.9623 C   0  0  0  0  0  0  0  0  0  0  0  0
   27.6177  -23.1651  -16.2023 C   0  0  0  0  0  0  0  0  0  0  0  0
   28.8662  -22.3520  -16.1200 C   0  0  0  0  0  0  0  0  0  0  0  0
   28.3629  -20.9416  -15.9702 C   0  0  1  0  0  0  0  0  0  0  0  0
   28.2010  -20.3635  -17.3341 C   0  0  0  0  0  0  0  0  0  0  0  0
   29.2781  -19.8679  -18.0414 O   0  0  0  0  0  0  0  0  0  0  0  0
   27.0792  -20.3039  -17.8954 O   0  0  0  0  0  0  0  0  0  0  0  0
  2  1  1  1
  3  2  1  0
  4  5  2  0
  4  3  1  0
  6  5  1  0
  7 12  2  0
  7  6  1  0
  8  7  1  0
  9  8  2  0
  9 10  1  0
 10 11  2  0
 11 12  1  0
 12  4  1  0
 13  2  1  0
 14 13  2  0
 16 17  1  0
 16 15  1  6
 17 13  1  0
 18 16  1  0
 19 18  2  0
 20 18  1  0
 21 22  1  0
 21 20  1  0
 23 24  1  0
 23 22  1  0
 24 20  1  0
 24 25  1  6
 26 25  1  0
 27 25  2  0
M  END
$$$$
