WAP.pdb
     RDKit          3D

 27 29  0  0  1  0  0  0  0  0999 V2000
   24.6481  -19.5087   -9.7149 N   0  0  0  0  0  0  0  0  0  0  0  0
   26.0651  -19.7342   -9.7612 C   0  0  1  0  0  0  0  0  0  0  0  0
   26.4415  -20.9526   -8.9565 C   0  0  0  0  0  0  0  0  0  0  0  0
   26.4020  -20.7831   -7.5067 C   0  0  0  0  0  0  0  0  0  0  0  0
   25.3210  -20.9805   -6.6449 C   0  0  0  0  0  0  0  0  0  0  0  0
   25.6620  -20.6949   -5.3819 N   0  0  0  0  0  0  0  0  0  0  0  0
   26.9548  -20.3106   -5.3893 C   0  0  0  0  0  0  0  0  0  0  0  0
   27.8351  -19.9145   -4.4079 C   0  0  0  0  0  0  0  0  0  0  0  0
   29.1381  -19.5759   -4.6803 C   0  0  0  0  0  0  0  0  0  0  0  0
   29.6188  -19.6227   -5.9753 C   0  0  0  0  0  0  0  0  0  0  0  0
   28.7605  -20.0128   -6.9629 C   0  0  0  0  0  0  0  0  0  0  0  0
   27.4402  -20.3562   -6.6962 C   0  0  0  0  0  0  0  0  0  0  0  0
   26.4479  -20.0297  -11.1718 C   0  0  0  0  0  0  0  0  0  0  0  0
   25.4958  -20.2912  -11.9605 O   0  0  0  0  0  0  0  0  0  0  0  0
   29.4416  -19.6405  -13.3882 C   0  0  0  0  0  0  0  0  0  0  0  0
   27.9666  -19.8082  -13.1069 C   0  0  2  0  0  0  0  0  0  0  0  0
   27.7442  -20.0429  -11.6886 N   0  0  0  0  0  0  0  0  0  0  0  0
   27.3552  -20.8960  -13.9075 C   0  0  0  0  0  0  0  0  0  0  0  0
   27.1447  -21.9960  -13.3315 O   0  0  0  0  0  0  0  0  0  0  0  0
   27.0002  -20.7583  -15.2739 N   0  0  0  0  0  0  0  0  0  0  0  0
   27.2088  -19.5359  -16.0488 C   0  0  0  0  0  0  0  0  0  0  0  0
   25.9552  -19.4868  -16.8891 C   0  0  0  0  0  0  0  0  0  0  0  0
   25.3782  -20.8628  -16.9088 C   0  0  0  0  0  0  0  0  0  0  0  0
   26.4061  -21.6901  -16.1849 C   0  0  1  0  0  0  0  0  0  0  0  0
   27.3805  -22.1974  -17.1917 C   0  0  0  0  0  0  0  0  0  0  0  0
   28.6189  -21.6102  -17.3584 O   0  0  0  0  0  0  0  0  0  0  0  0
   27.1155  -23.1789  -17.9287 O   0  0  0  0  0  0  0  0  0  0  0  0
  2  1  1  6
  3  2  1  0
  4  5  2  0
  4  3  1  0
  6  5  1  0
  7 12  2  0
  7  6  1  0
  8  7  1  0
  9  8  2  0
  9 10  1  0
 10 11  2  0
 11 12  1  0
 12  4  1  0
 13  2  1  0
 14 13  2  0
 16 17  1  0
 16 15  1  1
 17 13  1  0
 18 16  1  0
 19 18  2  0
 20 18  1  0
 21 22  1  0
 21 20  1  0
 23 24  1  0
 23 22  1  0
 24 20  1  0
 24 25  1  6
 26 25  1  0
 27 25  2  0
M  END
$$$$
