NDT.pdb
     RDKit          3D

 24 23  0  0  1  0  0  0  0  0999 V2000
   15.8448  -12.7823  -14.9310 N   0  0  0  0  0  0  0  0  0  0  0  0
   17.2304  -12.6211  -14.6254 C   0  0  0  0  0  0  0  0  0  0  0  0
   17.8714  -13.4507  -13.9431 O   0  0  0  0  0  0  0  0  0  0  0  0
   17.9268  -11.4225  -15.1412 C   0  0  0  0  0  0  0  0  0  0  0  0
   16.9380  -10.5399  -15.9012 C   0  0  2  0  0  0  0  0  0  0  0  0
   16.7323  -11.1413  -17.1905 N   0  0  0  0  0  0  0  0  0  0  0  0
   17.5358   -9.1845  -15.9823 C   0  0  0  0  0  0  0  0  0  0  0  0
   18.3984   -8.9455  -16.8664 O   0  0  0  0  0  0  0  0  0  0  0  0
   17.1743   -8.1191  -15.0900 N   0  0  0  0  0  0  0  0  0  0  0  0
   17.7634   -6.7980  -15.2316 C   0  0  1  0  0  0  0  0  0  0  0  0
   16.7501   -5.7087  -15.0275 C   0  0  0  0  0  0  0  0  0  0  0  0
   17.3142   -4.3595  -15.1385 C   0  0  0  0  0  0  0  0  0  0  0  0
   18.2430   -4.0166  -15.9062 O   0  0  0  0  0  0  0  0  0  0  0  0
   18.8978   -6.6094  -14.2900 C   0  0  0  0  0  0  0  0  0  0  0  0
   18.6932   -6.8050  -13.0740 O   0  0  0  0  0  0  0  0  0  0  0  0
   16.7739   -3.3668  -14.3208 O   0  0  0  0  0  0  0  0  0  0  0  0
   22.0995   -8.4203  -14.3502 C   0  0  0  0  0  0  0  0  0  0  0  0
   22.5038   -6.9562  -14.3899 C   0  0  1  0  0  0  0  0  0  0  0  0
   22.7572   -6.6304  -15.7134 O   0  0  0  0  0  0  0  0  0  0  0  0
   21.3443   -6.1432  -13.9070 C   0  0  2  0  0  0  0  0  0  0  0  0
   20.1788   -6.2204  -14.7281 N   0  0  0  0  0  0  0  0  0  0  0  0
   21.7192   -4.7275  -13.6376 C   0  0  0  0  0  0  0  0  0  0  0  0
   21.1417   -3.6569  -14.2633 O   0  0  0  0  0  0  0  0  0  0  0  0
   22.6165   -4.5202  -12.7864 O   0  0  0  0  0  0  0  0  0  0  0  0
  1  2  1  0
  2  3  2  0
  2  4  1  0
  4  5  1  0
  5  7  1  0
  5  6  1  6
  7  9  1  0
  7  8  2  0
  9 10  1  0
 10 14  1  0
 10 11  1  1
 12 11  1  0
 13 12  2  0
 14 21  1  0
 14 15  2  0
 16 12  1  0
 18 17  1  6
 18 20  1  0
 19 18  1  0
 20 22  1  0
 20 21  1  6
 22 23  1  0
 24 22  2  0
M  END
$$$$
