NDT.pdb
     RDKit          3D

 24 23  0  0  1  0  0  0  0  0999 V2000
   20.4067  -12.9290  -17.7351 N   0  0  0  0  0  0  0  0  0  0  0  0
   21.0822  -11.6724  -17.7994 C   0  0  0  0  0  0  0  0  0  0  0  0
   21.8649  -11.3744  -18.7284 O   0  0  0  0  0  0  0  0  0  0  0  0
   20.8397  -10.6905  -16.7202 C   0  0  0  0  0  0  0  0  0  0  0  0
   22.1521  -10.0045  -16.3442 C   0  0  2  0  0  0  0  0  0  0  0  0
   22.9916  -10.9963  -15.7292 N   0  0  0  0  0  0  0  0  0  0  0  0
   21.8134   -8.8848  -15.4316 C   0  0  0  0  0  0  0  0  0  0  0  0
   22.1119   -8.9741  -14.2126 O   0  0  0  0  0  0  0  0  0  0  0  0
   21.1531   -7.6899  -15.8765 N   0  0  0  0  0  0  0  0  0  0  0  0
   20.9734   -6.5611  -14.9789 C   0  0  1  0  0  0  0  0  0  0  0  0
   22.2841   -6.0478  -14.4558 C   0  0  0  0  0  0  0  0  0  0  0  0
   22.1411   -4.9161  -13.5340 C   0  0  0  0  0  0  0  0  0  0  0  0
   21.6253   -4.9634  -12.3932 O   0  0  0  0  0  0  0  0  0  0  0  0
   20.2323   -5.4567  -15.6425 C   0  0  0  0  0  0  0  0  0  0  0  0
   20.8267   -4.7877  -16.5130 O   0  0  0  0  0  0  0  0  0  0  0  0
   22.6189   -3.6761  -13.9584 O   0  0  0  0  0  0  0  0  0  0  0  0
   16.4743   -5.7541  -16.8768 C   0  0  0  0  0  0  0  0  0  0  0  0
   16.6344   -4.4968  -16.0388 C   0  0  1  0  0  0  0  0  0  0  0  0
   16.1841   -4.7889  -14.7604 O   0  0  0  0  0  0  0  0  0  0  0  0
   18.0924   -4.1678  -15.9727 C   0  0  2  0  0  0  0  0  0  0  0  0
   18.8962   -5.1498  -15.3185 N   0  0  0  0  0  0  0  0  0  0  0  0
   18.3412   -2.8102  -15.4137 C   0  0  0  0  0  0  0  0  0  0  0  0
   17.8088   -1.6642  -15.9376 O   0  0  0  0  0  0  0  0  0  0  0  0
   19.0824   -2.7283  -14.4054 O   0  0  0  0  0  0  0  0  0  0  0  0
  1  2  1  0
  2  3  2  0
  2  4  1  0
  4  5  1  0
  5  7  1  0
  5  6  1  1
  7  9  1  0
  7  8  2  0
  9 10  1  0
 10 14  1  0
 10 11  1  6
 12 11  1  0
 13 12  2  0
 14 21  1  0
 14 15  2  0
 16 12  1  0
 18 17  1  6
 18 20  1  0
 19 18  1  0
 20 22  1  0
 20 21  1  1
 22 23  1  0
 24 22  2  0
M  END
$$$$
