NDT.pdb
     RDKit          3D

 24 23  0  0  1  0  0  0  0  0999 V2000
   15.6375  -12.5891  -14.2430 N   0  0  0  0  0  0  0  0  0  0  0  0
   16.2470  -11.9013  -15.3360 C   0  0  0  0  0  0  0  0  0  0  0  0
   15.6339  -11.6401  -16.3945 O   0  0  0  0  0  0  0  0  0  0  0  0
   17.6598  -11.4846  -15.2014 C   0  0  0  0  0  0  0  0  0  0  0  0
   17.8406  -10.0832  -15.7827 C   0  0  2  0  0  0  0  0  0  0  0  0
   17.6593  -10.1842  -17.2052 N   0  0  0  0  0  0  0  0  0  0  0  0
   19.1995   -9.6250  -15.4024 C   0  0  0  0  0  0  0  0  0  0  0  0
   19.5172   -9.5879  -14.1856 O   0  0  0  0  0  0  0  0  0  0  0  0
   20.1819   -9.2163  -16.3666 N   0  0  0  0  0  0  0  0  0  0  0  0
   21.4633   -8.6787  -15.9410 C   0  0  1  0  0  0  0  0  0  0  0  0
   22.5817   -9.1189  -16.8413 C   0  0  0  0  0  0  0  0  0  0  0  0
   22.8690  -10.5544  -16.7550 C   0  0  0  0  0  0  0  0  0  0  0  0
   22.9514  -11.2210  -15.6974 O   0  0  0  0  0  0  0  0  0  0  0  0
   21.4300   -7.1943  -15.8732 C   0  0  0  0  0  0  0  0  0  0  0  0
   21.4425   -6.5549  -16.9455 O   0  0  0  0  0  0  0  0  0  0  0  0
   23.0691  -11.2438  -17.9512 O   0  0  0  0  0  0  0  0  0  0  0  0
   19.2481   -5.0762  -13.2594 C   0  0  0  0  0  0  0  0  0  0  0  0
   19.9705   -4.4950  -14.4631 C   0  0  1  0  0  0  0  0  0  0  0  0
   20.0734   -3.1266  -14.2655 O   0  0  0  0  0  0  0  0  0  0  0  0
   21.3466   -5.0809  -14.5037 C   0  0  2  0  0  0  0  0  0  0  0  0
   21.3862   -6.5007  -14.6480 N   0  0  0  0  0  0  0  0  0  0  0  0
   22.1858   -4.6333  -13.3580 C   0  0  0  0  0  0  0  0  0  0  0  0
   22.7081   -5.4830  -12.4219 O   0  0  0  0  0  0  0  0  0  0  0  0
   22.4188   -3.4051  -13.2585 O   0  0  0  0  0  0  0  0  0  0  0  0
  1  2  1  0
  2  3  2  0
  2  4  1  0
  4  5  1  0
  5  7  1  0
  5  6  1  6
  7  9  1  0
  7  8  2  0
  9 10  1  0
 10 14  1  0
 10 11  1  6
 12 11  1  0
 13 12  2  0
 14 21  1  0
 14 15  2  0
 16 12  1  0
 18 17  1  1
 18 20  1  0
 19 18  1  0
 20 22  1  0
 20 21  1  1
 22 23  1  0
 24 22  2  0
M  END
$$$$
