NDT.pdb
     RDKit          3D

 24 23  0  0  1  0  0  0  0  0999 V2000
   18.2004  -11.2328  -16.7775 N   0  0  0  0  0  0  0  0  0  0  0  0
   18.5214  -11.0708  -15.3955 C   0  0  0  0  0  0  0  0  0  0  0  0
   18.3098  -11.9632  -14.5450 O   0  0  0  0  0  0  0  0  0  0  0  0
   19.1285   -9.7936  -14.9623 C   0  0  0  0  0  0  0  0  0  0  0  0
   19.2994   -8.8700  -16.1674 C   0  0  2  0  0  0  0  0  0  0  0  0
   20.4165   -9.3613  -16.9270 N   0  0  0  0  0  0  0  0  0  0  0  0
   19.5142   -7.5000  -15.6402 C   0  0  0  0  0  0  0  0  0  0  0  0
   18.6109   -6.9577  -14.9524 O   0  0  0  0  0  0  0  0  0  0  0  0
   20.7169   -6.7529  -15.8797 N   0  0  0  0  0  0  0  0  0  0  0  0
   20.9018   -5.4341  -15.2978 C   0  0  1  0  0  0  0  0  0  0  0  0
   22.1870   -5.3375  -14.5272 C   0  0  0  0  0  0  0  0  0  0  0  0
   22.1705   -6.0908  -13.2689 C   0  0  0  0  0  0  0  0  0  0  0  0
   22.5310   -7.2820  -13.1255 O   0  0  0  0  0  0  0  0  0  0  0  0
   20.8617   -4.3744  -16.3392 C   0  0  0  0  0  0  0  0  0  0  0  0
   21.6632   -4.4549  -17.2931 O   0  0  0  0  0  0  0  0  0  0  0  0
   21.7146   -5.4290  -12.1286 O   0  0  0  0  0  0  0  0  0  0  0  0
   17.6267   -3.0283  -18.0444 C   0  0  0  0  0  0  0  0  0  0  0  0
   18.4073   -1.8371  -17.5149 C   0  0  1  0  0  0  0  0  0  0  0  0
   17.8369   -1.4705  -16.3056 O   0  0  0  0  0  0  0  0  0  0  0  0
   19.8153   -2.2793  -17.2692 C   0  0  2  0  0  0  0  0  0  0  0  0
   19.9563   -3.2970  -16.2778 N   0  0  0  0  0  0  0  0  0  0  0  0
   20.7285   -1.1347  -16.9983 C   0  0  0  0  0  0  0  0  0  0  0  0
   20.9302   -0.1012  -17.8714 O   0  0  0  0  0  0  0  0  0  0  0  0
   21.3403   -1.1313  -15.9035 O   0  0  0  0  0  0  0  0  0  0  0  0
  1  2  1  0
  2  3  2  0
  2  4  1  0
  4  5  1  0
  5  7  1  0
  5  6  1  1
  7  9  1  0
  7  8  2  0
  9 10  1  0
 10 14  1  0
 10 11  1  6
 12 11  1  0
 13 12  2  0
 14 21  1  0
 14 15  2  0
 16 12  1  0
 18 17  1  1
 18 20  1  0
 19 18  1  0
 20 22  1  0
 20 21  1  1
 22 23  1  0
 24 22  2  0
M  END
$$$$
