NDT.pdb
     RDKit          3D

 24 23  0  0  1  0  0  0  0  0999 V2000
   16.4798  -13.6985  -15.2263 N   0  0  0  0  0  0  0  0  0  0  0  0
   16.6462  -12.3012  -15.4694 C   0  0  0  0  0  0  0  0  0  0  0  0
   15.7540  -11.5965  -15.9909 O   0  0  0  0  0  0  0  0  0  0  0  0
   17.9279  -11.6709  -15.0853 C   0  0  0  0  0  0  0  0  0  0  0  0
   18.0981  -10.3513  -15.8364 C   0  0  2  0  0  0  0  0  0  0  0  0
   18.1801  -10.6647  -17.2370 N   0  0  0  0  0  0  0  0  0  0  0  0
   19.3279   -9.7070  -15.3135 C   0  0  0  0  0  0  0  0  0  0  0  0
   19.5187   -9.6656  -14.0705 O   0  0  0  0  0  0  0  0  0  0  0  0
   20.3230   -9.1205  -16.1665 N   0  0  0  0  0  0  0  0  0  0  0  0
   21.5039   -8.4862  -15.6049 C   0  0  1  0  0  0  0  0  0  0  0  0
   22.7591   -8.9206  -16.3055 C   0  0  0  0  0  0  0  0  0  0  0  0
   23.0818  -10.3363  -16.0991 C   0  0  0  0  0  0  0  0  0  0  0  0
   23.3684  -10.8680  -15.0015 O   0  0  0  0  0  0  0  0  0  0  0  0
   21.3932   -7.0046  -15.6491 C   0  0  0  0  0  0  0  0  0  0  0  0
   21.3738   -6.4481  -16.7665 O   0  0  0  0  0  0  0  0  0  0  0  0
   23.0706  -11.1688  -17.2185 O   0  0  0  0  0  0  0  0  0  0  0  0
   18.8007   -4.9608  -15.0569 C   0  0  0  0  0  0  0  0  0  0  0  0
   19.7829   -4.3357  -14.0807 C   0  0  1  0  0  0  0  0  0  0  0  0
   19.4688   -4.8076  -12.8154 O   0  0  0  0  0  0  0  0  0  0  0  0
   21.1566   -4.8051  -14.4427 C   0  0  2  0  0  0  0  0  0  0  0  0
   21.3116   -6.2239  -14.4795 N   0  0  0  0  0  0  0  0  0  0  0  0
   22.2105   -4.1707  -13.6036 C   0  0  0  0  0  0  0  0  0  0  0  0
   22.4611   -2.8261  -13.5876 O   0  0  0  0  0  0  0  0  0  0  0  0
   22.8994   -4.9242  -12.8753 O   0  0  0  0  0  0  0  0  0  0  0  0
  1  2  1  0
  2  3  2  0
  2  4  1  0
  4  5  1  0
  5  7  1  0
  5  6  1  6
  7  9  1  0
  7  8  2  0
  9 10  1  0
 10 14  1  0
 10 11  1  6
 12 11  1  0
 13 12  2  0
 14 21  1  0
 14 15  2  0
 16 12  1  0
 18 17  1  6
 18 20  1  0
 19 18  1  0
 20 22  1  0
 20 21  1  1
 22 23  1  0
 24 22  2  0
M  END
$$$$
