NDT.pdb
     RDKit          3D

 24 23  0  0  1  0  0  0  0  0999 V2000
   25.1762  -12.5864  -16.7391 N   0  0  0  0  0  0  0  0  0  0  0  0
   23.9586  -12.2995  -16.0504 C   0  0  0  0  0  0  0  0  0  0  0  0
   23.5193  -13.0215  -15.1282 O   0  0  0  0  0  0  0  0  0  0  0  0
   23.1937  -11.0984  -16.4501 C   0  0  0  0  0  0  0  0  0  0  0  0
   21.7165  -11.4568  -16.6050 C   0  0  2  0  0  0  0  0  0  0  0  0
   21.5712  -12.1339  -17.8647 N   0  0  0  0  0  0  0  0  0  0  0  0
   20.9502  -10.1882  -16.5367 C   0  0  0  0  0  0  0  0  0  0  0  0
   20.8980   -9.4467  -17.5518 O   0  0  0  0  0  0  0  0  0  0  0  0
   20.2571   -9.7596  -15.3545 N   0  0  0  0  0  0  0  0  0  0  0  0
   19.4951   -8.5221  -15.3463 C   0  0  1  0  0  0  0  0  0  0  0  0
   18.1271   -8.7111  -14.7564 C   0  0  0  0  0  0  0  0  0  0  0  0
   17.2764   -9.6171  -15.5350 C   0  0  0  0  0  0  0  0  0  0  0  0
   16.9124   -9.4394  -16.7206 O   0  0  0  0  0  0  0  0  0  0  0  0
   20.2143   -7.4504  -14.6093 C   0  0  0  0  0  0  0  0  0  0  0  0
   20.4427   -7.6220  -13.3940 O   0  0  0  0  0  0  0  0  0  0  0  0
   16.8303  -10.7800  -14.9067 O   0  0  0  0  0  0  0  0  0  0  0  0
   23.5748   -6.3186  -15.2936 C   0  0  0  0  0  0  0  0  0  0  0  0
   22.7674   -5.0329  -15.3547 C   0  0  1  0  0  0  0  0  0  0  0  0
   22.5040   -4.7702  -16.6903 O   0  0  0  0  0  0  0  0  0  0  0  0
   21.4712   -5.2668  -14.6449 C   0  0  2  0  0  0  0  0  0  0  0  0
   20.6380   -6.2630  -15.2378 N   0  0  0  0  0  0  0  0  0  0  0  0
   20.7174   -4.0037  -14.4131 C   0  0  0  0  0  0  0  0  0  0  0  0
   21.1822   -2.9722  -13.6445 O   0  0  0  0  0  0  0  0  0  0  0  0
   19.5942   -3.8935  -14.9601 O   0  0  0  0  0  0  0  0  0  0  0  0
  1  2  1  0
  2  3  2  0
  2  4  1  0
  4  5  1  0
  5  7  1  0
  5  6  1  6
  7  9  1  0
  7  8  2  0
  9 10  1  0
 10 14  1  0
 10 11  1  1
 12 11  1  0
 13 12  2  0
 14 21  1  0
 14 15  2  0
 16 12  1  0
 18 17  1  6
 18 20  1  0
 19 18  1  0
 20 22  1  0
 20 21  1  6
 22 23  1  0
 24 22  2  0
M  END
$$$$
