NDT.pdb
     RDKit          3D

 24 23  0  0  1  0  0  0  0  0999 V2000
   14.4191  -11.2014  -15.9252 N   0  0  0  0  0  0  0  0  0  0  0  0
   14.9064  -10.6538  -14.6997 C   0  0  0  0  0  0  0  0  0  0  0  0
   14.1526  -10.3588  -13.7461 O   0  0  0  0  0  0  0  0  0  0  0  0
   16.3620  -10.4307  -14.5617 C   0  0  0  0  0  0  0  0  0  0  0  0
   17.0756  -10.8890  -15.8326 C   0  0  2  0  0  0  0  0  0  0  0  0
   17.3240  -12.2985  -15.6982 N   0  0  0  0  0  0  0  0  0  0  0  0
   18.3200  -10.0892  -15.9468 C   0  0  0  0  0  0  0  0  0  0  0  0
   19.3854  -10.5362  -15.4486 O   0  0  0  0  0  0  0  0  0  0  0  0
   18.3687   -8.8143  -16.6057 N   0  0  0  0  0  0  0  0  0  0  0  0
   19.6274   -8.1045  -16.7602 C   0  0  1  0  0  0  0  0  0  0  0  0
   19.8059   -7.5790  -18.1556 C   0  0  0  0  0  0  0  0  0  0  0  0
   21.0502   -6.8250  -18.3400 C   0  0  0  0  0  0  0  0  0  0  0  0
   22.1739   -7.1477  -17.8895 O   0  0  0  0  0  0  0  0  0  0  0  0
   19.7400   -6.9872  -15.7864 C   0  0  0  0  0  0  0  0  0  0  0  0
   18.8336   -6.1288  -15.7670 O   0  0  0  0  0  0  0  0  0  0  0  0
   20.9838   -5.6447  -19.0806 O   0  0  0  0  0  0  0  0  0  0  0  0
   20.0371   -7.2058  -12.0993 C   0  0  0  0  0  0  0  0  0  0  0  0
   21.2369   -6.3752  -12.5225 C   0  0  1  0  0  0  0  0  0  0  0  0
   22.3356   -7.2199  -12.5585 O   0  0  0  0  0  0  0  0  0  0  0  0
   20.9790   -5.8608  -13.9036 C   0  0  2  0  0  0  0  0  0  0  0  0
   20.8275   -6.8735  -14.8985 N   0  0  0  0  0  0  0  0  0  0  0  0
   21.9792   -4.8405  -14.3231 C   0  0  0  0  0  0  0  0  0  0  0  0
   22.2424   -3.6997  -13.6157 O   0  0  0  0  0  0  0  0  0  0  0  0
   22.6084   -5.0526  -15.3870 O   0  0  0  0  0  0  0  0  0  0  0  0
  1  2  1  0
  2  3  2  0
  2  4  1  0
  4  5  1  0
  5  7  1  0
  5  6  1  1
  7  9  1  0
  7  8  2  0
  9 10  1  0
 10 14  1  0
 10 11  1  6
 12 11  1  0
 13 12  2  0
 14 21  1  0
 14 15  2  0
 16 12  1  0
 18 17  1  6
 18 20  1  0
 19 18  1  0
 20 22  1  0
 20 21  1  6
 22 23  1  0
 24 22  2  0
M  END
$$$$
