NDT.pdb
     RDKit          3D

 24 23  0  0  1  0  0  0  0  0999 V2000
   15.6938  -12.6679  -14.3493 N   0  0  0  0  0  0  0  0  0  0  0  0
   17.1148  -12.6049  -14.4749 C   0  0  0  0  0  0  0  0  0  0  0  0
   17.8652  -13.5413  -14.1219 O   0  0  0  0  0  0  0  0  0  0  0  0
   17.7140  -11.3796  -15.0470 C   0  0  0  0  0  0  0  0  0  0  0  0
   16.6143  -10.3650  -15.3563 C   0  0  2  0  0  0  0  0  0  0  0  0
   16.0593  -10.7135  -16.6357 N   0  0  0  0  0  0  0  0  0  0  0  0
   17.2438   -9.0216  -15.3439 C   0  0  0  0  0  0  0  0  0  0  0  0
   18.0337   -8.7048  -16.2706 O   0  0  0  0  0  0  0  0  0  0  0  0
   16.9935   -8.0536  -14.3133 N   0  0  0  0  0  0  0  0  0  0  0  0
   17.5803   -6.7258  -14.3815 C   0  0  1  0  0  0  0  0  0  0  0  0
   16.6540   -5.6760  -13.8383 C   0  0  0  0  0  0  0  0  0  0  0  0
   15.4687   -5.4558  -14.6734 C   0  0  0  0  0  0  0  0  0  0  0  0
   15.4657   -5.3331  -15.9202 O   0  0  0  0  0  0  0  0  0  0  0  0
   18.8776   -6.6714  -13.6581 C   0  0  0  0  0  0  0  0  0  0  0  0
   18.8861   -6.9504  -12.4412 O   0  0  0  0  0  0  0  0  0  0  0  0
   14.2338   -5.3750  -14.0295 O   0  0  0  0  0  0  0  0  0  0  0  0
   21.9454   -8.5928  -14.3111 C   0  0  0  0  0  0  0  0  0  0  0  0
   22.3977   -7.1440  -14.3819 C   0  0  1  0  0  0  0  0  0  0  0  0
   22.4386   -6.7861  -15.7207 O   0  0  0  0  0  0  0  0  0  0  0  0
   21.3703   -6.3047  -13.6900 C   0  0  2  0  0  0  0  0  0  0  0  0
   20.0800   -6.3175  -14.3009 N   0  0  0  0  0  0  0  0  0  0  0  0
   21.8414   -4.9113  -13.4578 C   0  0  0  0  0  0  0  0  0  0  0  0
   22.9235   -4.5949  -12.6831 O   0  0  0  0  0  0  0  0  0  0  0  0
   21.2002   -3.9858  -14.0102 O   0  0  0  0  0  0  0  0  0  0  0  0
  1  2  1  0
  2  3  2  0
  2  4  1  0
  4  5  1  0
  5  7  1  0
  5  6  1  6
  7  9  1  0
  7  8  2  0
  9 10  1  0
 10 14  1  0
 10 11  1  1
 12 11  1  0
 13 12  2  0
 14 21  1  0
 14 15  2  0
 16 12  1  0
 18 17  1  6
 18 20  1  0
 19 18  1  0
 20 22  1  0
 20 21  1  6
 22 23  1  0
 24 22  2  0
M  END
$$$$
