NDT.pdb
     RDKit          3D

 24 23  0  0  1  0  0  0  0  0999 V2000
   15.2991  -15.3252  -15.7475 N   0  0  0  0  0  0  0  0  0  0  0  0
   16.0940  -14.3244  -16.3845 C   0  0  0  0  0  0  0  0  0  0  0  0
   16.1246  -14.1769  -17.6263 O   0  0  0  0  0  0  0  0  0  0  0  0
   16.9096  -13.4309  -15.5337 C   0  0  0  0  0  0  0  0  0  0  0  0
   18.1220  -12.9359  -16.3209 C   0  0  2  0  0  0  0  0  0  0  0  0
   19.0803  -14.0072  -16.3475 N   0  0  0  0  0  0  0  0  0  0  0  0
   18.6261  -11.7239  -15.6296 C   0  0  0  0  0  0  0  0  0  0  0  0
   18.5364  -11.6492  -14.3769 O   0  0  0  0  0  0  0  0  0  0  0  0
   19.2180  -10.6181  -16.3285 N   0  0  0  0  0  0  0  0  0  0  0  0
   19.7592   -9.4821  -15.6012 C   0  0  1  0  0  0  0  0  0  0  0  0
   21.2585   -9.5265  -15.5292 C   0  0  0  0  0  0  0  0  0  0  0  0
   21.8404   -8.3998  -14.7924 C   0  0  0  0  0  0  0  0  0  0  0  0
   21.6191   -8.1195  -13.5916 O   0  0  0  0  0  0  0  0  0  0  0  0
   19.3250   -8.1965  -16.2078 C   0  0  0  0  0  0  0  0  0  0  0  0
   19.5899   -7.9932  -17.4108 O   0  0  0  0  0  0  0  0  0  0  0  0
   22.7178   -7.5636  -15.4831 O   0  0  0  0  0  0  0  0  0  0  0  0
   15.8475   -6.4402  -15.9305 C   0  0  0  0  0  0  0  0  0  0  0  0
   16.9092   -5.4580  -15.4649 C   0  0  1  0  0  0  0  0  0  0  0  0
   16.9205   -5.4840  -14.0788 O   0  0  0  0  0  0  0  0  0  0  0  0
   18.2346   -5.9377  -15.9667 C   0  0  2  0  0  0  0  0  0  0  0  0
   18.6330   -7.2158  -15.4705 N   0  0  0  0  0  0  0  0  0  0  0  0
   19.3113   -4.9272  -15.7751 C   0  0  0  0  0  0  0  0  0  0  0  0
   19.2550   -3.6542  -16.2725 O   0  0  0  0  0  0  0  0  0  0  0  0
   20.3208   -5.2770  -15.1184 O   0  0  0  0  0  0  0  0  0  0  0  0
  1  2  1  0
  2  3  2  0
  2  4  1  0
  4  5  1  0
  5  7  1  0
  5  6  1  1
  7  9  1  0
  7  8  2  0
  9 10  1  0
 10 14  1  0
 10 11  1  6
 12 11  1  0
 13 12  2  0
 14 21  1  0
 14 15  2  0
 16 12  1  0
 18 17  1  6
 18 20  1  0
 19 18  1  0
 20 22  1  0
 20 21  1  1
 22 23  1  0
 24 22  2  0
M  END
$$$$
