NDT.pdb
     RDKit          3D

 24 23  0  0  1  0  0  0  0  0999 V2000
   10.9047  -14.3331   -9.4486 N   0  0  0  0  0  0  0  0  0  0  0  0
   12.3219  -14.2476   -9.6014 C   0  0  0  0  0  0  0  0  0  0  0  0
   13.1134  -14.9861   -8.9747 O   0  0  0  0  0  0  0  0  0  0  0  0
   12.8661  -13.2431  -10.5408 C   0  0  0  0  0  0  0  0  0  0  0  0
   11.7473  -12.3101  -11.0015 C   0  0  2  0  0  0  0  0  0  0  0  0
   10.8631  -13.0813  -11.8323 N   0  0  0  0  0  0  0  0  0  0  0  0
   12.3880  -11.1844  -11.7250 C   0  0  0  0  0  0  0  0  0  0  0  0
   12.7265  -11.3398  -12.9268 O   0  0  0  0  0  0  0  0  0  0  0  0
   12.6445   -9.9109  -11.1134 N   0  0  0  0  0  0  0  0  0  0  0  0
   13.1156   -8.7868  -11.9051 C   0  0  1  0  0  0  0  0  0  0  0  0
   12.4830   -7.4948  -11.4745 C   0  0  0  0  0  0  0  0  0  0  0  0
   12.8877   -6.3464  -12.2920 C   0  0  0  0  0  0  0  0  0  0  0  0
   13.5740   -5.3749  -11.8986 O   0  0  0  0  0  0  0  0  0  0  0  0
   14.5956   -8.6650  -11.8420 C   0  0  0  0  0  0  0  0  0  0  0  0
   15.1329   -8.5841  -10.7180 O   0  0  0  0  0  0  0  0  0  0  0  0
   12.4760   -6.3282  -13.6248 O   0  0  0  0  0  0  0  0  0  0  0  0
   17.2625  -10.9082  -12.7875 C   0  0  0  0  0  0  0  0  0  0  0  0
   17.5329   -9.6798  -13.6399 C   0  0  1  0  0  0  0  0  0  0  0  0
   16.9936   -9.9175  -14.8948 O   0  0  0  0  0  0  0  0  0  0  0  0
   16.8183   -8.5205  -13.0201 C   0  0  2  0  0  0  0  0  0  0  0  0
   15.3956   -8.6380  -13.0011 N   0  0  0  0  0  0  0  0  0  0  0  0
   17.2424   -7.2175  -13.6029 C   0  0  0  0  0  0  0  0  0  0  0  0
   16.3868   -6.3487  -14.2227 O   0  0  0  0  0  0  0  0  0  0  0  0
   18.4556   -6.9127  -13.5128 O   0  0  0  0  0  0  0  0  0  0  0  0
  1  2  1  0
  2  3  2  0
  2  4  1  0
  4  5  1  0
  5  7  1  0
  5  6  1  6
  7  9  1  0
  7  8  2  0
  9 10  1  0
 10 14  1  0
 10 11  1  1
 12 11  1  0
 13 12  2  0
 14 21  1  0
 14 15  2  0
 16 12  1  0
 18 17  1  1
 18 20  1  0
 19 18  1  0
 20 22  1  0
 20 21  1  6
 22 23  1  0
 24 22  2  0
M  END
$$$$
