NDT.pdb
     RDKit          3D

 24 23  0  0  1  0  0  0  0  0999 V2000
   18.5808  -16.1253  -17.7486 N   0  0  0  0  0  0  0  0  0  0  0  0
   17.5970  -15.4559  -16.9591 C   0  0  0  0  0  0  0  0  0  0  0  0
   16.8713  -16.0555  -16.1355 O   0  0  0  0  0  0  0  0  0  0  0  0
   17.4377  -13.9953  -17.1287 C   0  0  0  0  0  0  0  0  0  0  0  0
   17.9921  -13.2713  -15.9028 C   0  0  2  0  0  0  0  0  0  0  0  0
   17.2167  -13.6959  -14.7692 N   0  0  0  0  0  0  0  0  0  0  0  0
   17.8817  -11.8159  -16.1685 C   0  0  0  0  0  0  0  0  0  0  0  0
   18.3720  -11.3459  -17.2276 O   0  0  0  0  0  0  0  0  0  0  0  0
   17.2354  -10.9059  -15.2651 N   0  0  0  0  0  0  0  0  0  0  0  0
   17.2659   -9.4728  -15.5044 C   0  0  1  0  0  0  0  0  0  0  0  0
   16.0580   -8.7848  -14.9363 C   0  0  0  0  0  0  0  0  0  0  0  0
   16.0681   -7.3315  -15.1335 C   0  0  0  0  0  0  0  0  0  0  0  0
   16.3095   -6.7420  -16.2123 O   0  0  0  0  0  0  0  0  0  0  0  0
   18.4997   -8.8588  -14.9477 C   0  0  0  0  0  0  0  0  0  0  0  0
   18.7851   -9.0878  -13.7541 O   0  0  0  0  0  0  0  0  0  0  0  0
   15.7851   -6.5301  -14.0273 O   0  0  0  0  0  0  0  0  0  0  0  0
   21.7220   -7.9601  -17.4545 C   0  0  0  0  0  0  0  0  0  0  0  0
   21.7842   -8.2381  -15.9620 C   0  0  1  0  0  0  0  0  0  0  0  0
   22.9578   -7.6764  -15.4830 O   0  0  0  0  0  0  0  0  0  0  0  0
   20.6225   -7.5521  -15.3151 C   0  0  2  0  0  0  0  0  0  0  0  0
   19.3424   -8.0366  -15.7210 N   0  0  0  0  0  0  0  0  0  0  0  0
   20.7004   -6.0702  -15.4387 C   0  0  0  0  0  0  0  0  0  0  0  0
   21.7880   -5.3328  -15.0588 O   0  0  0  0  0  0  0  0  0  0  0  0
   19.7052   -5.4782  -15.9203 O   0  0  0  0  0  0  0  0  0  0  0  0
  1  2  1  0
  2  3  2  0
  2  4  1  0
  4  5  1  0
  5  7  1  0
  5  6  1  1
  7  9  1  0
  7  8  2  0
  9 10  1  0
 10 14  1  0
 10 11  1  1
 12 11  1  0
 13 12  2  0
 14 21  1  0
 14 15  2  0
 16 12  1  0
 18 17  1  6
 18 20  1  0
 19 18  1  0
 20 22  1  0
 20 21  1  6
 22 23  1  0
 24 22  2  0
M  END
$$$$
