NDT.pdb
     RDKit          3D

 24 23  0  0  1  0  0  0  0  0999 V2000
   17.9330  -24.2847   -7.3855 N   0  0  0  0  0  0  0  0  0  0  0  0
   18.7227  -24.7892   -8.4630 C   0  0  0  0  0  0  0  0  0  0  0  0
   19.3298  -25.8811   -8.4005 O   0  0  0  0  0  0  0  0  0  0  0  0
   18.8202  -23.9816   -9.6983 C   0  0  0  0  0  0  0  0  0  0  0  0
   17.6339  -24.2908  -10.6102 C   0  0  2  0  0  0  0  0  0  0  0  0
   17.8542  -25.5966  -11.1695 N   0  0  0  0  0  0  0  0  0  0  0  0
   17.5825  -23.2212  -11.6371 C   0  0  0  0  0  0  0  0  0  0  0  0
   18.1996  -23.3809  -12.7218 O   0  0  0  0  0  0  0  0  0  0  0  0
   16.8546  -21.9975  -11.4514 N   0  0  0  0  0  0  0  0  0  0  0  0
   16.7164  -21.0419  -12.5376 C   0  0  1  0  0  0  0  0  0  0  0  0
   15.3874  -20.3437  -12.5031 C   0  0  0  0  0  0  0  0  0  0  0  0
   15.2200  -19.3554  -13.5737 C   0  0  0  0  0  0  0  0  0  0  0  0
   14.6042  -18.2687  -13.4755 O   0  0  0  0  0  0  0  0  0  0  0  0
   17.8109  -20.0365  -12.5142 C   0  0  0  0  0  0  0  0  0  0  0  0
   17.9009  -19.2864  -11.5202 O   0  0  0  0  0  0  0  0  0  0  0  0
   15.7942  -19.6444  -14.8118 O   0  0  0  0  0  0  0  0  0  0  0  0
   21.5793  -20.4779  -12.8840 C   0  0  0  0  0  0  0  0  0  0  0  0
   21.1321  -19.5520  -14.0026 C   0  0  1  0  0  0  0  0  0  0  0  0
   20.9667  -20.3252  -15.1414 O   0  0  0  0  0  0  0  0  0  0  0  0
   19.8083  -18.9696  -13.6192 C   0  0  2  0  0  0  0  0  0  0  0  0
   18.7350  -19.9097  -13.5697 N   0  0  0  0  0  0  0  0  0  0  0  0
   19.4490  -17.7868  -14.4494 C   0  0  0  0  0  0  0  0  0  0  0  0
   20.2433  -16.6807  -14.5791 O   0  0  0  0  0  0  0  0  0  0  0  0
   18.3533  -17.8207  -15.0585 O   0  0  0  0  0  0  0  0  0  0  0  0
  1  2  1  0
  2  3  2  0
  2  4  1  0
  4  5  1  0
  5  7  1  0
  5  6  1  6
  7  9  1  0
  7  8  2  0
  9 10  1  0
 10 14  1  0
 10 11  1  1
 12 11  1  0
 13 12  2  0
 14 21  1  0
 14 15  2  0
 16 12  1  0
 18 17  1  1
 18 20  1  0
 19 18  1  0
 20 22  1  0
 20 21  1  6
 22 23  1  0
 24 22  2  0
M  END
$$$$
