NDT.pdb
     RDKit          3D

 24 23  0  0  1  0  0  0  0  0999 V2000
   19.1593  -12.6161  -17.1471 N   0  0  0  0  0  0  0  0  0  0  0  0
   18.5551  -12.3047  -15.8912 C   0  0  0  0  0  0  0  0  0  0  0  0
   17.8728  -13.1321  -15.2475 O   0  0  0  0  0  0  0  0  0  0  0  0
   18.7502  -10.9472  -15.3374 C   0  0  0  0  0  0  0  0  0  0  0  0
   19.5824  -10.1101  -16.3075 C   0  0  2  0  0  0  0  0  0  0  0  0
   20.8564  -10.7610  -16.4487 N   0  0  0  0  0  0  0  0  0  0  0  0
   19.6881   -8.7481  -15.7290 C   0  0  0  0  0  0  0  0  0  0  0  0
   18.6368   -8.1210  -15.4380 O   0  0  0  0  0  0  0  0  0  0  0  0
   20.9465   -8.1020  -15.4824 N   0  0  0  0  0  0  0  0  0  0  0  0
   20.9975   -6.7585  -14.9304 C   0  0  1  0  0  0  0  0  0  0  0  0
   22.1286   -6.5964  -13.9561 C   0  0  0  0  0  0  0  0  0  0  0  0
   22.1911   -5.2614  -13.3522 C   0  0  0  0  0  0  0  0  0  0  0  0
   22.7501   -4.2581  -13.8529 O   0  0  0  0  0  0  0  0  0  0  0  0
   21.1120   -5.7378  -16.0047 C   0  0  0  0  0  0  0  0  0  0  0  0
   22.1576   -5.7144  -16.6865 O   0  0  0  0  0  0  0  0  0  0  0  0
   21.5763   -5.0865  -12.1122 O   0  0  0  0  0  0  0  0  0  0  0  0
   19.0204   -5.1691  -19.0243 C   0  0  0  0  0  0  0  0  0  0  0  0
   18.9403   -3.8725  -18.2363 C   0  0  1  0  0  0  0  0  0  0  0  0
   17.7733   -3.9117  -17.4887 O   0  0  0  0  0  0  0  0  0  0  0  0
   20.1089   -3.8255  -17.3033 C   0  0  2  0  0  0  0  0  0  0  0  0
   20.0861   -4.8094  -16.2689 N   0  0  0  0  0  0  0  0  0  0  0  0
   20.3323   -2.4634  -16.7447 C   0  0  0  0  0  0  0  0  0  0  0  0
   20.2483   -2.1660  -15.4122 O   0  0  0  0  0  0  0  0  0  0  0  0
   20.6128   -1.5469  -17.5536 O   0  0  0  0  0  0  0  0  0  0  0  0
  1  2  1  0
  2  3  2  0
  2  4  1  0
  4  5  1  0
  5  7  1  0
  5  6  1  1
  7  9  1  0
  7  8  2  0
  9 10  1  0
 10 14  1  0
 10 11  1  1
 12 11  1  0
 13 12  2  0
 14 21  1  0
 14 15  2  0
 16 12  1  0
 18 17  1  1
 18 20  1  0
 19 18  1  0
 20 22  1  0
 20 21  1  1
 22 23  1  0
 24 22  2  0
M  END
$$$$
