NDT.pdb
     RDKit          3D

 24 23  0  0  1  0  0  0  0  0999 V2000
   25.9343  -22.6230  -11.4493 N   0  0  0  0  0  0  0  0  0  0  0  0
   25.6478  -21.2965  -11.0049 C   0  0  0  0  0  0  0  0  0  0  0  0
   25.7124  -20.9596   -9.8020 O   0  0  0  0  0  0  0  0  0  0  0  0
   25.2606  -20.2875  -12.0147 C   0  0  0  0  0  0  0  0  0  0  0  0
   25.1973  -20.9390  -13.3953 C   0  0  2  0  0  0  0  0  0  0  0  0
   26.5348  -21.3358  -13.7420 N   0  0  0  0  0  0  0  0  0  0  0  0
   24.6309  -19.9330  -14.3270 C   0  0  0  0  0  0  0  0  0  0  0  0
   24.3978  -18.7699  -13.9076 O   0  0  0  0  0  0  0  0  0  0  0  0
   24.3315  -20.2251  -15.7006 N   0  0  0  0  0  0  0  0  0  0  0  0
   23.8534  -19.1844  -16.5954 C   0  0  1  0  0  0  0  0  0  0  0  0
   24.6173  -19.1633  -17.8881 C   0  0  0  0  0  0  0  0  0  0  0  0
   26.0333  -18.8190  -17.7230 C   0  0  0  0  0  0  0  0  0  0  0  0
   26.4740  -17.7578  -17.2235 O   0  0  0  0  0  0  0  0  0  0  0  0
   22.4016  -19.3377  -16.8744 C   0  0  0  0  0  0  0  0  0  0  0  0
   21.9797  -20.4673  -17.1981 O   0  0  0  0  0  0  0  0  0  0  0  0
   26.9769  -19.7499  -18.1578 O   0  0  0  0  0  0  0  0  0  0  0  0
   19.4694  -17.8537  -14.6844 C   0  0  0  0  0  0  0  0  0  0  0  0
   19.2811  -17.4228  -16.1292 C   0  0  1  0  0  0  0  0  0  0  0  0
   19.7806  -16.1349  -16.2476 O   0  0  0  0  0  0  0  0  0  0  0  0
   20.0926  -18.3357  -16.9934 C   0  0  2  0  0  0  0  0  0  0  0  0
   21.5029  -18.2567  -16.7849 N   0  0  0  0  0  0  0  0  0  0  0  0
   19.7540  -18.1973  -18.4368 C   0  0  0  0  0  0  0  0  0  0  0  0
   20.6461  -17.7897  -19.3902 O   0  0  0  0  0  0  0  0  0  0  0  0
   18.5809  -18.4739  -18.7833 O   0  0  0  0  0  0  0  0  0  0  0  0
  1  2  1  0
  2  3  2  0
  2  4  1  0
  4  5  1  0
  5  7  1  0
  5  6  1  6
  7  9  1  0
  7  8  2  0
  9 10  1  0
 10 14  1  0
 10 11  1  6
 12 11  1  0
 13 12  2  0
 14 21  1  0
 14 15  2  0
 16 12  1  0
 18 17  1  1
 18 20  1  0
 19 18  1  0
 20 22  1  0
 20 21  1  6
 22 23  1  0
 24 22  2  0
M  END
$$$$
