NDT.pdb
     RDKit          3D

 24 23  0  0  1  0  0  0  0  0999 V2000
   20.9493  -13.6691  -18.5604 N   0  0  0  0  0  0  0  0  0  0  0  0
   19.8206  -13.0085  -19.1339 C   0  0  0  0  0  0  0  0  0  0  0  0
   19.1958  -13.4696  -20.1145 O   0  0  0  0  0  0  0  0  0  0  0  0
   19.3799  -11.7289  -18.5372 C   0  0  0  0  0  0  0  0  0  0  0  0
   20.3029  -11.3566  -17.3779 C   0  0  2  0  0  0  0  0  0  0  0  0
   20.1262  -12.3512  -16.3551 N   0  0  0  0  0  0  0  0  0  0  0  0
   19.9186   -9.9940  -16.9344 C   0  0  0  0  0  0  0  0  0  0  0  0
   20.1264   -9.0174  -17.7000 O   0  0  0  0  0  0  0  0  0  0  0  0
   19.3143   -9.7316  -15.6586 N   0  0  0  0  0  0  0  0  0  0  0  0
   19.0252   -8.3708  -15.2381 C   0  0  1  0  0  0  0  0  0  0  0  0
   17.8139   -8.3039  -14.3531 C   0  0  0  0  0  0  0  0  0  0  0  0
   16.5749   -8.7015  -15.0296 C   0  0  0  0  0  0  0  0  0  0  0  0
   16.1442   -8.2249  -16.1053 O   0  0  0  0  0  0  0  0  0  0  0  0
   20.1886   -7.7628  -14.5410 C   0  0  0  0  0  0  0  0  0  0  0  0
   20.6607   -8.3599  -13.5514 O   0  0  0  0  0  0  0  0  0  0  0  0
   15.8042   -9.6967  -14.4283 O   0  0  0  0  0  0  0  0  0  0  0  0
   23.5415   -7.2385  -15.5754 C   0  0  0  0  0  0  0  0  0  0  0  0
   23.1007   -5.8246  -15.2361 C   0  0  1  0  0  0  0  0  0  0  0  0
   22.7447   -5.2038  -16.4236 O   0  0  0  0  0  0  0  0  0  0  0  0
   21.8923   -5.9152  -14.3586 C   0  0  2  0  0  0  0  0  0  0  0  0
   20.7633   -6.5475  -14.9619 N   0  0  0  0  0  0  0  0  0  0  0  0
   21.5205   -4.5987  -13.7704 C   0  0  0  0  0  0  0  0  0  0  0  0
   20.3411   -3.9566  -14.0309 O   0  0  0  0  0  0  0  0  0  0  0  0
   22.3449   -4.0602  -12.9939 O   0  0  0  0  0  0  0  0  0  0  0  0
  1  2  1  0
  2  3  2  0
  2  4  1  0
  4  5  1  0
  5  7  1  0
  5  6  1  1
  7  9  1  0
  7  8  2  0
  9 10  1  0
 10 14  1  0
 10 11  1  1
 12 11  1  0
 13 12  2  0
 14 21  1  0
 14 15  2  0
 16 12  1  0
 18 17  1  6
 18 20  1  0
 19 18  1  0
 20 22  1  0
 20 21  1  6
 22 23  1  0
 24 22  2  0
M  END
$$$$
