YIE.pdb
     RDKit          3D

 30 30  0  0  1  0  0  0  0  0999 V2000
   35.9108  -39.3682   -8.2657 O   0  0  0  0  0  0  0  0  0  0  0  0
   34.9338  -38.5924   -7.6466 C   0  0  0  0  0  0  0  0  0  0  0  0
   35.3253  -37.7770   -6.6046 C   0  0  0  0  0  0  0  0  0  0  0  0
   34.3799  -37.0126   -5.9889 C   0  0  0  0  0  0  0  0  0  0  0  0
   33.0693  -37.0633   -6.4077 C   0  0  0  0  0  0  0  0  0  0  0  0
   32.0147  -36.2634   -5.7675 C   0  0  0  0  0  0  0  0  0  0  0  0
   31.5620  -35.0833   -6.5988 C   0  0  2  0  0  0  0  0  0  0  0  0
   32.6232  -34.0866   -6.4696 N   0  0  0  0  0  0  0  0  0  0  0  0
   30.2851  -34.5960   -6.0555 C   0  0  0  0  0  0  0  0  0  0  0  0
   30.2922  -33.7773   -5.0991 O   0  0  0  0  0  0  0  0  0  0  0  0
   32.6573  -37.8835   -7.4614 C   0  0  0  0  0  0  0  0  0  0  0  0
   33.6218  -38.6458   -8.0693 C   0  0  0  0  0  0  0  0  0  0  0  0
   27.1903  -32.3387   -9.0929 C   0  0  0  0  0  0  0  0  0  0  0  0
   27.8707  -32.8407   -7.8592 C   0  0  0  0  0  0  0  0  0  0  0  0
   27.0177  -33.8518   -7.1070 C   0  0  2  0  0  0  0  0  0  0  0  0
   25.7387  -33.1631   -6.7558 C   0  0  0  0  0  0  0  0  0  0  0  0
   27.7717  -34.4260   -5.9324 C   0  0  2  0  0  0  0  0  0  0  0  0
   29.0112  -34.9722   -6.5213 N   0  0  0  0  0  0  0  0  0  0  0  0
   27.0483  -35.4843   -5.2074 C   0  0  0  0  0  0  0  0  0  0  0  0
   26.7564  -36.5656   -5.8167 O   0  0  0  0  0  0  0  0  0  0  0  0
   26.6431  -35.4047   -3.8635 N   0  0  0  0  0  0  0  0  0  0  0  0
   25.9032  -36.5319   -3.1942 C   0  0  1  0  0  0  0  0  0  0  0  0
   26.2924  -36.5166   -1.7613 C   0  0  0  0  0  0  0  0  0  0  0  0
   27.6540  -36.9670   -1.4411 C   0  0  0  0  0  0  0  0  0  0  0  0
   28.1235  -36.9125   -0.0546 C   0  0  0  0  0  0  0  0  0  0  0  0
   27.8901  -35.9302    0.7377 O   0  0  0  0  0  0  0  0  0  0  0  0
   24.5090  -36.2335   -3.4391 C   0  0  0  0  0  0  0  0  0  0  0  0
   23.5343  -37.1961   -3.5314 O   0  0  0  0  0  0  0  0  0  0  0  0
   28.8734  -37.9552    0.5199 O   0  0  0  0  0  0  0  0  0  0  0  0
   24.1181  -35.0498   -3.5900 O   0  0  0  0  0  0  0  0  0  0  0  0
  2  3  2  0
  2  1  1  0
  4  3  1  0
  5  4  2  0
  6  5  1  0
  7  6  1  0
  7  9  1  0
  7  8  1  1
  9 10  2  0
 11  5  1  0
 11 12  2  0
 12  2  1  0
 13 14  1  0
 15 16  1  1
 15 14  1  0
 17 15  1  0
 18  9  1  0
 17 18  1  6
 19 21  1  0
 19 17  1  0
 20 19  2  0
 22 27  1  0
 22 21  1  0
 22 23  1  1
 24 23  1  0
 25 24  1  0
 26 25  2  0
 27 28  1  0
 29 25  1  0
 30 27  2  0
M  END
$$$$
