YIE.pdb
     RDKit          3D

 30 30  0  0  1  0  0  0  0  0999 V2000
   28.6839  -14.2065  -17.7229 O   0  0  0  0  0  0  0  0  0  0  0  0
   28.0318  -15.2634  -17.0924 C   0  0  0  0  0  0  0  0  0  0  0  0
   27.9952  -15.2650  -15.7130 C   0  0  0  0  0  0  0  0  0  0  0  0
   27.3610  -16.2932  -15.0824 C   0  0  0  0  0  0  0  0  0  0  0  0
   26.7753  -17.2994  -15.8174 C   0  0  0  0  0  0  0  0  0  0  0  0
   26.0885  -18.4323  -15.1797 C   0  0  0  0  0  0  0  0  0  0  0  0
   27.0234  -19.3775  -14.4578 C   0  0  2  0  0  0  0  0  0  0  0  0
   27.7148  -20.1198  -15.5101 N   0  0  0  0  0  0  0  0  0  0  0  0
   26.2184  -20.2629  -13.6027 C   0  0  0  0  0  0  0  0  0  0  0  0
   25.6565  -21.2690  -14.1099 O   0  0  0  0  0  0  0  0  0  0  0  0
   26.8036  -17.3118  -17.2144 C   0  0  0  0  0  0  0  0  0  0  0  0
   27.4460  -16.2695  -17.8323 C   0  0  0  0  0  0  0  0  0  0  0  0
   27.1038  -20.6546   -8.2653 C   0  0  0  0  0  0  0  0  0  0  0  0
   26.7007  -21.1049   -9.6334 C   0  0  0  0  0  0  0  0  0  0  0  0
   25.3221  -20.5908  -10.0216 C   0  0  2  0  0  0  0  0  0  0  0  0
   24.3514  -21.1776   -9.0483 C   0  0  0  0  0  0  0  0  0  0  0  0
   25.0240  -20.8876  -11.4710 C   0  0  2  0  0  0  0  0  0  0  0  0
   26.0102  -20.0846  -12.2221 N   0  0  0  0  0  0  0  0  0  0  0  0
   23.6583  -20.5335  -11.8931 C   0  0  0  0  0  0  0  0  0  0  0  0
   23.2969  -19.3111  -11.8632 O   0  0  0  0  0  0  0  0  0  0  0  0
   22.6925  -21.4516  -12.3416 N   0  0  0  0  0  0  0  0  0  0  0  0
   21.3317  -21.0031  -12.8032 C   0  0  1  0  0  0  0  0  0  0  0  0
   20.8823  -21.9714  -13.8354 C   0  0  0  0  0  0  0  0  0  0  0  0
   19.5002  -21.8329  -14.3150 C   0  0  0  0  0  0  0  0  0  0  0  0
   19.0034  -22.7395  -15.3528 C   0  0  0  0  0  0  0  0  0  0  0  0
   19.6287  -22.9787  -16.4477 O   0  0  0  0  0  0  0  0  0  0  0  0
   20.5330  -21.0002  -11.5970 C   0  0  0  0  0  0  0  0  0  0  0  0
   20.7249  -21.8802  -10.5607 O   0  0  0  0  0  0  0  0  0  0  0  0
   17.7848  -23.4298  -15.2183 O   0  0  0  0  0  0  0  0  0  0  0  0
   19.5984  -20.1761  -11.4425 O   0  0  0  0  0  0  0  0  0  0  0  0
  2  3  2  0
  2  1  1  0
  4  3  1  0
  5  4  2  0
  6  5  1  0
  7  6  1  0
  7  9  1  0
  7  8  1  6
  9 10  2  0
 11  5  1  0
 11 12  2  0
 12  2  1  0
 13 14  1  0
 15 16  1  1
 15 14  1  0
 17 15  1  0
 18  9  1  0
 17 18  1  6
 19 21  1  0
 19 17  1  0
 20 19  2  0
 22 27  1  0
 22 21  1  0
 22 23  1  6
 24 23  1  0
 25 24  1  0
 26 25  2  0
 27 28  1  0
 29 25  1  0
 30 27  2  0
M  END
$$$$
