YIE.pdb
     RDKit          3D

 30 30  0  0  1  0  0  0  0  0999 V2000
   28.1095  -14.9404  -19.2763 O   0  0  0  0  0  0  0  0  0  0  0  0
   27.3577  -15.8225  -18.5041 C   0  0  0  0  0  0  0  0  0  0  0  0
   26.3952  -16.5767  -19.1434 C   0  0  0  0  0  0  0  0  0  0  0  0
   25.6514  -17.4437  -18.4004 C   0  0  0  0  0  0  0  0  0  0  0  0
   25.8665  -17.5537  -17.0449 C   0  0  0  0  0  0  0  0  0  0  0  0
   25.0823  -18.4688  -16.2026 C   0  0  0  0  0  0  0  0  0  0  0  0
   25.9222  -19.5102  -15.4965 C   0  0  2  0  0  0  0  0  0  0  0  0
   26.4193  -20.3901  -16.5524 N   0  0  0  0  0  0  0  0  0  0  0  0
   25.0637  -20.2302  -14.5438 C   0  0  0  0  0  0  0  0  0  0  0  0
   24.3372  -21.1723  -14.9558 O   0  0  0  0  0  0  0  0  0  0  0  0
   26.8374  -16.7972  -16.3831 C   0  0  0  0  0  0  0  0  0  0  0  0
   27.5764  -15.9299  -17.1463 C   0  0  0  0  0  0  0  0  0  0  0  0
   26.7988  -21.0625   -9.6546 C   0  0  0  0  0  0  0  0  0  0  0  0
   26.0505  -21.2905  -10.9294 C   0  0  0  0  0  0  0  0  0  0  0  0
   24.6854  -20.6181  -10.9192 C   0  0  2  0  0  0  0  0  0  0  0  0
   23.8966  -21.2563   -9.8218 C   0  0  0  0  0  0  0  0  0  0  0  0
   24.0419  -20.6829  -12.2828 C   0  0  2  0  0  0  0  0  0  0  0  0
   24.9755  -19.9552  -13.1662 N   0  0  0  0  0  0  0  0  0  0  0  0
   22.7035  -20.0722  -12.3503 C   0  0  0  0  0  0  0  0  0  0  0  0
   22.5808  -18.8212  -12.1372 O   0  0  0  0  0  0  0  0  0  0  0  0
   21.5166  -20.7679  -12.6405 N   0  0  0  0  0  0  0  0  0  0  0  0
   20.1824  -20.0717  -12.6764 C   0  0  1  0  0  0  0  0  0  0  0  0
   19.8567  -19.8306  -14.1049 C   0  0  0  0  0  0  0  0  0  0  0  0
   19.5273  -21.0106  -14.9164 C   0  0  0  0  0  0  0  0  0  0  0  0
   20.0296  -21.1039  -16.2893 C   0  0  0  0  0  0  0  0  0  0  0  0
   20.1169  -22.2056  -16.9417 O   0  0  0  0  0  0  0  0  0  0  0  0
   19.2876  -20.9889  -12.0050 C   0  0  0  0  0  0  0  0  0  0  0  0
   19.6252  -22.2825  -11.6923 O   0  0  0  0  0  0  0  0  0  0  0  0
   20.4553  -19.9703  -17.0058 O   0  0  0  0  0  0  0  0  0  0  0  0
   18.1282  -20.6366  -11.6760 O   0  0  0  0  0  0  0  0  0  0  0  0
  2  3  2  0
  2  1  1  0
  4  3  1  0
  5  4  2  0
  6  5  1  0
  7  6  1  0
  7  9  1  0
  7  8  1  6
  9 10  2  0
 11  5  1  0
 11 12  2  0
 12  2  1  0
 13 14  1  0
 15 16  1  1
 15 14  1  0
 17 15  1  0
 18  9  1  0
 17 18  1  6
 19 21  1  0
 19 17  1  0
 20 19  2  0
 22 27  1  0
 22 21  1  0
 22 23  1  6
 24 23  1  0
 25 24  1  0
 26 25  2  0
 27 28  1  0
 29 25  1  0
 30 27  2  0
M  END
$$$$
