YIE.pdb
     RDKit          3D

 30 30  0  0  1  0  0  0  0  0999 V2000
   27.8895  -24.3472  -17.6963 O   0  0  0  0  0  0  0  0  0  0  0  0
   26.6865  -24.8631  -17.2209 C   0  0  0  0  0  0  0  0  0  0  0  0
   25.8086  -25.3990  -18.1409 C   0  0  0  0  0  0  0  0  0  0  0  0
   24.6272  -25.9071  -17.6902 C   0  0  0  0  0  0  0  0  0  0  0  0
   24.3303  -25.8794  -16.3460 C   0  0  0  0  0  0  0  0  0  0  0  0
   23.0646  -26.4077  -15.8159 C   0  0  0  0  0  0  0  0  0  0  0  0
   23.2250  -27.6962  -15.0398 C   0  0  2  0  0  0  0  0  0  0  0  0
   23.5432  -28.7148  -16.0385 N   0  0  0  0  0  0  0  0  0  0  0  0
   21.9578  -27.9832  -14.3506 C   0  0  0  0  0  0  0  0  0  0  0  0
   21.3018  -29.0107  -14.6651 O   0  0  0  0  0  0  0  0  0  0  0  0
   25.2087  -25.3406  -15.4022 C   0  0  0  0  0  0  0  0  0  0  0  0
   26.3928  -24.8337  -15.8734 C   0  0  0  0  0  0  0  0  0  0  0  0
   20.8512  -31.3736  -12.2827 C   0  0  0  0  0  0  0  0  0  0  0  0
   20.5607  -30.0583  -12.9327 C   0  0  0  0  0  0  0  0  0  0  0  0
   20.5856  -28.9096  -11.9350 C   0  0  2  0  0  0  0  0  0  0  0  0
   19.7266  -29.3186  -10.7824 C   0  0  0  0  0  0  0  0  0  0  0  0
   20.1851  -27.6128  -12.5952 C   0  0  2  0  0  0  0  0  0  0  0  0
   21.3902  -27.1889  -13.3366 N   0  0  0  0  0  0  0  0  0  0  0  0
   19.7733  -26.5567  -11.6551 C   0  0  0  0  0  0  0  0  0  0  0  0
   20.2459  -26.5613  -10.4709 O   0  0  0  0  0  0  0  0  0  0  0  0
   18.8819  -25.5129  -11.9595 N   0  0  0  0  0  0  0  0  0  0  0  0
   18.5630  -24.4314  -10.9622 C   0  0  1  0  0  0  0  0  0  0  0  0
   18.1374  -23.2382  -11.7368 C   0  0  0  0  0  0  0  0  0  0  0  0
   17.6252  -23.4784  -13.0931 C   0  0  0  0  0  0  0  0  0  0  0  0
   17.0753  -22.3607  -13.8640 C   0  0  0  0  0  0  0  0  0  0  0  0
   16.6095  -22.4781  -15.0540 O   0  0  0  0  0  0  0  0  0  0  0  0
   17.5263  -25.0088  -10.1347 C   0  0  0  0  0  0  0  0  0  0  0  0
   16.6459  -25.9631  -10.5812 O   0  0  0  0  0  0  0  0  0  0  0  0
   17.0127  -21.0553  -13.3428 O   0  0  0  0  0  0  0  0  0  0  0  0
   17.3758  -24.6482   -8.9415 O   0  0  0  0  0  0  0  0  0  0  0  0
  2  3  2  0
  2  1  1  0
  4  3  1  0
  5  4  2  0
  6  5  1  0
  7  6  1  0
  7  9  1  0
  7  8  1  6
  9 10  2  0
 11  5  1  0
 11 12  2  0
 12  2  1  0
 13 14  1  0
 15 16  1  1
 15 14  1  0
 17 15  1  0
 18  9  1  0
 17 18  1  1
 19 21  1  0
 19 17  1  0
 20 19  2  0
 22 27  1  0
 22 21  1  0
 22 23  1  6
 24 23  1  0
 25 24  1  0
 26 25  2  0
 27 28  1  0
 29 25  1  0
 30 27  2  0
M  END
$$$$
