YIE.pdb
     RDKit          3D

 30 30  0  0  1  0  0  0  0  0999 V2000
   19.3882  -12.3682  -17.1791 O   0  0  0  0  0  0  0  0  0  0  0  0
   20.0429  -13.5704  -16.9228 C   0  0  0  0  0  0  0  0  0  0  0  0
   19.6179  -14.6919  -17.6053 C   0  0  0  0  0  0  0  0  0  0  0  0
   20.2489  -15.8755  -17.3642 C   0  0  0  0  0  0  0  0  0  0  0  0
   21.2842  -15.9354  -16.4586 C   0  0  0  0  0  0  0  0  0  0  0  0
   21.9876  -17.1917  -16.1604 C   0  0  0  0  0  0  0  0  0  0  0  0
   23.2925  -17.3467  -16.9099 C   0  0  2  0  0  0  0  0  0  0  0  0
   22.9152  -17.6232  -18.2946 N   0  0  0  0  0  0  0  0  0  0  0  0
   24.0401  -18.4640  -16.3133 C   0  0  0  0  0  0  0  0  0  0  0  0
   23.5885  -19.6347  -16.4157 O   0  0  0  0  0  0  0  0  0  0  0  0
   21.7262  -14.8088  -15.7599 C   0  0  0  0  0  0  0  0  0  0  0  0
   21.0798  -13.6263  -16.0148 C   0  0  0  0  0  0  0  0  0  0  0  0
   29.2549  -19.0435  -16.8270 C   0  0  0  0  0  0  0  0  0  0  0  0
   27.7879  -19.2614  -16.6336 C   0  0  0  0  0  0  0  0  0  0  0  0
   27.3946  -19.2341  -15.1638 C   0  0  2  0  0  0  0  0  0  0  0  0
   28.2959  -20.1941  -14.4567 C   0  0  0  0  0  0  0  0  0  0  0  0
   25.9200  -19.5072  -14.9947 C   0  0  2  0  0  0  0  0  0  0  0  0
   25.2559  -18.3425  -15.6144 N   0  0  0  0  0  0  0  0  0  0  0  0
   25.4871  -19.6489  -13.5942 C   0  0  0  0  0  0  0  0  0  0  0  0
   25.5565  -18.6396  -12.8182 O   0  0  0  0  0  0  0  0  0  0  0  0
   24.9873  -20.8327  -13.0236 N   0  0  0  0  0  0  0  0  0  0  0  0
   24.6071  -20.9084  -11.5690 C   0  0  1  0  0  0  0  0  0  0  0  0
   23.1816  -21.3203  -11.5137 C   0  0  0  0  0  0  0  0  0  0  0  0
   22.1794  -20.2535  -11.6440 C   0  0  0  0  0  0  0  0  0  0  0  0
   20.7556  -20.5976  -11.6356 C   0  0  0  0  0  0  0  0  0  0  0  0
   19.8134  -19.7304  -11.7199 O   0  0  0  0  0  0  0  0  0  0  0  0
   25.5309  -21.8725  -11.0124 C   0  0  0  0  0  0  0  0  0  0  0  0
   25.8906  -21.8979   -9.6876 O   0  0  0  0  0  0  0  0  0  0  0  0
   20.3112  -21.9290  -11.5378 O   0  0  0  0  0  0  0  0  0  0  0  0
   26.0657  -22.7480  -11.7363 O   0  0  0  0  0  0  0  0  0  0  0  0
  2  3  2  0
  2  1  1  0
  4  3  1  0
  5  4  2  0
  6  5  1  0
  7  6  1  0
  7  9  1  0
  7  8  1  6
  9 10  2  0
 11  5  1  0
 11 12  2  0
 12  2  1  0
 13 14  1  0
 15 16  1  1
 15 14  1  0
 17 15  1  0
 18  9  1  0
 17 18  1  1
 19 21  1  0
 19 17  1  0
 20 19  2  0
 22 27  1  0
 22 21  1  0
 22 23  1  6
 24 23  1  0
 25 24  1  0
 26 25  2  0
 27 28  1  0
 29 25  1  0
 30 27  2  0
M  END
$$$$
