YIE.pdb
     RDKit          3D

 30 30  0  0  1  0  0  0  0  0999 V2000
   12.5618  -22.6244   -5.1996 O   0  0  0  0  0  0  0  0  0  0  0  0
   13.4965  -23.5565   -4.7557 C   0  0  0  0  0  0  0  0  0  0  0  0
   13.9462  -24.4967   -5.6600 C   0  0  0  0  0  0  0  0  0  0  0  0
   14.8606  -25.4155   -5.2396 C   0  0  0  0  0  0  0  0  0  0  0  0
   15.3157  -25.3937   -3.9403 C   0  0  0  0  0  0  0  0  0  0  0  0
   16.2947  -26.3703   -3.4405 C   0  0  0  0  0  0  0  0  0  0  0  0
   17.6284  -25.7569   -3.0754 C   0  0  2  0  0  0  0  0  0  0  0  0
   18.2226  -25.3353   -4.3424 N   0  0  0  0  0  0  0  0  0  0  0  0
   18.4420  -26.7818   -2.4040 C   0  0  0  0  0  0  0  0  0  0  0  0
   19.2617  -27.4597   -3.0777 O   0  0  0  0  0  0  0  0  0  0  0  0
   14.8703  -24.4481   -3.0129 C   0  0  0  0  0  0  0  0  0  0  0  0
   13.9502  -23.5313   -3.4532 C   0  0  0  0  0  0  0  0  0  0  0  0
   20.7246  -25.1959    2.0128 C   0  0  0  0  0  0  0  0  0  0  0  0
   20.3640  -25.8612    0.7227 C   0  0  0  0  0  0  0  0  0  0  0  0
   19.6782  -27.2016    0.9428 C   0  0  2  0  0  0  0  0  0  0  0  0
   20.5223  -27.9661    1.9107 C   0  0  0  0  0  0  0  0  0  0  0  0
   19.4279  -27.9017   -0.3706 C   0  0  2  0  0  0  0  0  0  0  0  0
   18.3883  -27.0862   -1.0308 N   0  0  0  0  0  0  0  0  0  0  0  0
   18.9675  -29.2941   -0.2364 C   0  0  0  0  0  0  0  0  0  0  0  0
   17.7795  -29.5186    0.1687 O   0  0  0  0  0  0  0  0  0  0  0  0
   19.7449  -30.4290   -0.5273 N   0  0  0  0  0  0  0  0  0  0  0  0
   19.2023  -31.8225   -0.3553 C   0  0  1  0  0  0  0  0  0  0  0  0
   20.0301  -32.7184   -1.2020 C   0  0  0  0  0  0  0  0  0  0  0  0
   19.7117  -34.1523   -1.1558 C   0  0  0  0  0  0  0  0  0  0  0  0
   20.4758  -35.0871   -1.9853 C   0  0  0  0  0  0  0  0  0  0  0  0
   21.4502  -34.7340   -2.7422 O   0  0  0  0  0  0  0  0  0  0  0  0
   19.3125  -32.0713    1.0656 C   0  0  0  0  0  0  0  0  0  0  0  0
   18.4491  -32.8816    1.7608 O   0  0  0  0  0  0  0  0  0  0  0  0
   20.1941  -36.4654   -2.0077 O   0  0  0  0  0  0  0  0  0  0  0  0
   20.2220  -31.5373    1.7468 O   0  0  0  0  0  0  0  0  0  0  0  0
  2  3  2  0
  2  1  1  0
  4  3  1  0
  5  4  2  0
  6  5  1  0
  7  6  1  0
  7  9  1  0
  7  8  1  6
  9 10  2  0
 11  5  1  0
 11 12  2  0
 12  2  1  0
 13 14  1  0
 15 16  1  1
 15 14  1  0
 17 15  1  0
 18  9  1  0
 17 18  1  1
 19 21  1  0
 19 17  1  0
 20 19  2  0
 22 27  1  0
 22 21  1  0
 22 23  1  6
 24 23  1  0
 25 24  1  0
 26 25  2  0
 27 28  1  0
 29 25  1  0
 30 27  2  0
M  END
$$$$
