YIE.pdb
     RDKit          3D

 30 30  0  0  1  0  0  0  0  0999 V2000
   17.5064  -16.7122  -19.8575 O   0  0  0  0  0  0  0  0  0  0  0  0
   18.2032  -15.7921  -19.0780 C   0  0  0  0  0  0  0  0  0  0  0  0
   19.0130  -14.8825  -19.7269 C   0  0  0  0  0  0  0  0  0  0  0  0
   19.7013  -13.9766  -18.9770 C   0  0  0  0  0  0  0  0  0  0  0  0
   19.5817  -13.9808  -17.6053 C   0  0  0  0  0  0  0  0  0  0  0  0
   20.3119  -13.0283  -16.7560 C   0  0  0  0  0  0  0  0  0  0  0  0
   21.7825  -13.3520  -16.6105 C   0  0  2  0  0  0  0  0  0  0  0  0
   21.8341  -14.5798  -15.8191 N   0  0  0  0  0  0  0  0  0  0  0  0
   22.4385  -12.2299  -15.9223 C   0  0  0  0  0  0  0  0  0  0  0  0
   22.1826  -12.0142  -14.7085 O   0  0  0  0  0  0  0  0  0  0  0  0
   18.7657  -14.8950  -16.9336 C   0  0  0  0  0  0  0  0  0  0  0  0
   18.0805  -15.7994  -17.7040 C   0  0  0  0  0  0  0  0  0  0  0  0
   27.4297  -11.5847  -15.3795 C   0  0  0  0  0  0  0  0  0  0  0  0
   25.9464  -11.4706  -15.2256 C   0  0  0  0  0  0  0  0  0  0  0  0
   25.3856  -10.2659  -15.9672 C   0  0  2  0  0  0  0  0  0  0  0  0
   26.1504   -9.0720  -15.4944 C   0  0  0  0  0  0  0  0  0  0  0  0
   23.8898  -10.1715  -15.7899 C   0  0  2  0  0  0  0  0  0  0  0  0
   23.3580  -11.3437  -16.5142 N   0  0  0  0  0  0  0  0  0  0  0  0
   23.2937   -8.9351  -16.3237 C   0  0  0  0  0  0  0  0  0  0  0  0
   23.4464   -8.6554  -17.5582 O   0  0  0  0  0  0  0  0  0  0  0  0
   22.5473   -8.0125  -15.5698 N   0  0  0  0  0  0  0  0  0  0  0  0
   22.0016   -6.7505  -16.1827 C   0  0  1  0  0  0  0  0  0  0  0  0
   20.5621   -6.6813  -15.8252 C   0  0  0  0  0  0  0  0  0  0  0  0
   19.8551   -5.4388  -16.1655 C   0  0  0  0  0  0  0  0  0  0  0  0
   18.4598   -5.2678  -15.7537 C   0  0  0  0  0  0  0  0  0  0  0  0
   17.7893   -6.1620  -15.1231 O   0  0  0  0  0  0  0  0  0  0  0  0
   22.8125   -5.6995  -15.6075 C   0  0  0  0  0  0  0  0  0  0  0  0
   23.3269   -5.7514  -14.3355 O   0  0  0  0  0  0  0  0  0  0  0  0
   17.7433   -4.0867  -16.0209 O   0  0  0  0  0  0  0  0  0  0  0  0
   23.0831   -4.6614  -16.2599 O   0  0  0  0  0  0  0  0  0  0  0  0
  2  3  2  0
  2  1  1  0
  4  3  1  0
  5  4  2  0
  6  5  1  0
  7  6  1  0
  7  9  1  0
  7  8  1  1
  9 10  2  0
 11  5  1  0
 11 12  2  0
 12  2  1  0
 13 14  1  0
 15 16  1  1
 15 14  1  0
 17 15  1  0
 18  9  1  0
 17 18  1  6
 19 21  1  0
 19 17  1  0
 20 19  2  0
 22 27  1  0
 22 21  1  0
 22 23  1  1
 24 23  1  0
 25 24  1  0
 26 25  2  0
 27 28  1  0
 29 25  1  0
 30 27  2  0
M  END
$$$$
