YIE.pdb
     RDKit          3D

 30 30  0  0  1  0  0  0  0  0999 V2000
   29.0097  -17.4488  -20.9090 O   0  0  0  0  0  0  0  0  0  0  0  0
   28.3247  -18.1515  -19.9208 C   0  0  0  0  0  0  0  0  0  0  0  0
   28.2277  -17.5739  -18.6714 C   0  0  0  0  0  0  0  0  0  0  0  0
   27.5608  -18.2504  -17.6943 C   0  0  0  0  0  0  0  0  0  0  0  0
   27.0023  -19.4800  -17.9623 C   0  0  0  0  0  0  0  0  0  0  0  0
   26.2819  -20.2493  -16.9370 C   0  0  0  0  0  0  0  0  0  0  0  0
   27.1881  -20.8587  -15.8902 C   0  0  2  0  0  0  0  0  0  0  0  0
   27.8724  -21.9614  -16.5625 N   0  0  0  0  0  0  0  0  0  0  0  0
   26.3552  -21.3313  -14.7740 C   0  0  0  0  0  0  0  0  0  0  0  0
   25.7063  -22.4031  -14.8973 O   0  0  0  0  0  0  0  0  0  0  0  0
   27.0917  -20.0779  -19.2221 C   0  0  0  0  0  0  0  0  0  0  0  0
   27.7664  -19.3831  -20.1932 C   0  0  0  0  0  0  0  0  0  0  0  0
   28.2955  -20.9579   -9.9659 C   0  0  0  0  0  0  0  0  0  0  0  0
   27.4893  -21.4770  -11.1138 C   0  0  0  0  0  0  0  0  0  0  0  0
   26.1131  -20.8314  -11.1842 C   0  0  2  0  0  0  0  0  0  0  0  0
   25.4054  -21.1814   -9.9151 C   0  0  0  0  0  0  0  0  0  0  0  0
   25.3906  -21.2373  -12.4455 C   0  0  2  0  0  0  0  0  0  0  0  0
   26.2106  -20.6745  -13.5375 N   0  0  0  0  0  0  0  0  0  0  0  0
   24.0096  -20.7346  -12.5408 C   0  0  0  0  0  0  0  0  0  0  0  0
   23.8110  -19.4778  -12.6220 O   0  0  0  0  0  0  0  0  0  0  0  0
   22.8594  -21.5431  -12.5534 N   0  0  0  0  0  0  0  0  0  0  0  0
   21.4839  -20.9559  -12.7239 C   0  0  1  0  0  0  0  0  0  0  0  0
   20.6418  -22.0003  -13.3602 C   0  0  0  0  0  0  0  0  0  0  0  0
   19.2068  -21.7084  -13.4834 C   0  0  0  0  0  0  0  0  0  0  0  0
   18.3104  -22.7233  -14.0421 C   0  0  0  0  0  0  0  0  0  0  0  0
   18.6768  -23.5979  -14.9069 O   0  0  0  0  0  0  0  0  0  0  0  0
   21.0829  -20.6000  -11.3803 C   0  0  0  0  0  0  0  0  0  0  0  0
   20.2641  -19.5363  -11.0920 O   0  0  0  0  0  0  0  0  0  0  0  0
   16.9597  -22.8168  -13.6593 O   0  0  0  0  0  0  0  0  0  0  0  0
   21.4824  -21.2606  -10.3901 O   0  0  0  0  0  0  0  0  0  0  0  0
  2  3  2  0
  2  1  1  0
  4  3  1  0
  5  4  2  0
  6  5  1  0
  7  6  1  0
  7  9  1  0
  7  8  1  6
  9 10  2  0
 11  5  1  0
 11 12  2  0
 12  2  1  0
 13 14  1  0
 15 16  1  1
 15 14  1  0
 17 15  1  0
 18  9  1  0
 17 18  1  6
 19 21  1  0
 19 17  1  0
 20 19  2  0
 22 27  1  0
 22 21  1  0
 22 23  1  1
 24 23  1  0
 25 24  1  0
 26 25  2  0
 27 28  1  0
 29 25  1  0
 30 27  2  0
M  END
$$$$
