YIE.pdb
     RDKit          3D

 30 30  0  0  1  0  0  0  0  0999 V2000
   28.8329  -20.1503   -4.5689 O   0  0  0  0  0  0  0  0  0  0  0  0
   28.3858  -20.0658   -5.8851 C   0  0  0  0  0  0  0  0  0  0  0  0
   29.3357  -20.0220   -6.8851 C   0  0  0  0  0  0  0  0  0  0  0  0
   28.9128  -19.9387   -8.1779 C   0  0  0  0  0  0  0  0  0  0  0  0
   27.5666  -19.9000   -8.4641 C   0  0  0  0  0  0  0  0  0  0  0  0
   27.0651  -19.8014   -9.8427 C   0  0  0  0  0  0  0  0  0  0  0  0
   26.7532  -21.1421  -10.4702 C   0  0  2  0  0  0  0  0  0  0  0  0
   28.0511  -21.7659  -10.7201 N   0  0  0  0  0  0  0  0  0  0  0  0
   26.0094  -20.9086  -11.7174 C   0  0  0  0  0  0  0  0  0  0  0  0
   26.6429  -20.7026  -12.7858 O   0  0  0  0  0  0  0  0  0  0  0  0
   26.5927  -19.9438   -7.4629 C   0  0  0  0  0  0  0  0  0  0  0  0
   27.0362  -20.0275   -6.1678 C   0  0  0  0  0  0  0  0  0  0  0  0
   26.1976  -23.4002  -14.9132 C   0  0  0  0  0  0  0  0  0  0  0  0
   25.8032  -22.1670  -14.1645 C   0  0  0  0  0  0  0  0  0  0  0  0
   24.3257  -22.1674  -13.8000 C   0  0  2  0  0  0  0  0  0  0  0  0
   23.5721  -22.4963  -15.0480 C   0  0  0  0  0  0  0  0  0  0  0  0
   23.9311  -20.8659  -13.1456 C   0  0  2  0  0  0  0  0  0  0  0  0
   24.6067  -20.8938  -11.8324 N   0  0  0  0  0  0  0  0  0  0  0  0
   22.4797  -20.6956  -12.9631 C   0  0  0  0  0  0  0  0  0  0  0  0
   21.8300  -21.5733  -12.3049 O   0  0  0  0  0  0  0  0  0  0  0  0
   21.7281  -19.6176  -13.4628 N   0  0  0  0  0  0  0  0  0  0  0  0
   20.2672  -19.4562  -13.1377 C   0  0  1  0  0  0  0  0  0  0  0  0
   19.8475  -18.1347  -13.6690 C   0  0  0  0  0  0  0  0  0  0  0  0
   18.4191  -17.8048  -13.5683 C   0  0  0  0  0  0  0  0  0  0  0  0
   17.9144  -16.5860  -14.2052 C   0  0  0  0  0  0  0  0  0  0  0  0
   18.6649  -15.7286  -14.7957 O   0  0  0  0  0  0  0  0  0  0  0  0
   19.6354  -20.5878  -13.7804 C   0  0  0  0  0  0  0  0  0  0  0  0
   18.5437  -21.2396  -13.2621 O   0  0  0  0  0  0  0  0  0  0  0  0
   16.5446  -16.2650  -14.2197 O   0  0  0  0  0  0  0  0  0  0  0  0
   20.0732  -21.0421  -14.8660 O   0  0  0  0  0  0  0  0  0  0  0  0
  2  3  2  0
  2  1  1  0
  4  3  1  0
  5  4  2  0
  6  5  1  0
  7  6  1  0
  7  9  1  0
  7  8  1  6
  9 10  2  0
 11  5  1  0
 11 12  2  0
 12  2  1  0
 13 14  1  0
 15 16  1  6
 15 14  1  0
 17 15  1  0
 18  9  1  0
 17 18  1  1
 19 21  1  0
 19 17  1  0
 20 19  2  0
 22 27  1  0
 22 21  1  0
 22 23  1  6
 24 23  1  0
 25 24  1  0
 26 25  2  0
 27 28  1  0
 29 25  1  0
 30 27  2  0
M  END
$$$$
