YIE.pdb
     RDKit          3D

 30 30  0  0  1  0  0  0  0  0999 V2000
   18.8963  -14.2909  -16.4149 O   0  0  0  0  0  0  0  0  0  0  0  0
   18.3494  -13.1948  -15.7524 C   0  0  0  0  0  0  0  0  0  0  0  0
   18.5003  -13.1309  -14.3823 C   0  0  0  0  0  0  0  0  0  0  0  0
   17.9697  -12.0642  -13.7205 C   0  0  0  0  0  0  0  0  0  0  0  0
   17.3017  -11.0815  -14.4160 C   0  0  0  0  0  0  0  0  0  0  0  0
   16.7058   -9.9179  -13.7430 C   0  0  0  0  0  0  0  0  0  0  0  0
   15.6792  -10.2859  -12.6946 C   0  0  2  0  0  0  0  0  0  0  0  0
   14.6347  -11.0145  -13.4119 N   0  0  0  0  0  0  0  0  0  0  0  0
   15.1660   -9.0459  -12.0927 C   0  0  0  0  0  0  0  0  0  0  0  0
   14.2538   -8.4057  -12.6785 O   0  0  0  0  0  0  0  0  0  0  0  0
   17.1408  -11.1317  -15.8032 C   0  0  0  0  0  0  0  0  0  0  0  0
   17.6810  -12.2121  -16.4527 C   0  0  0  0  0  0  0  0  0  0  0  0
   13.4158   -8.7917   -7.2986 C   0  0  0  0  0  0  0  0  0  0  0  0
   13.6444   -8.4346   -8.7329 C   0  0  0  0  0  0  0  0  0  0  0  0
   14.8140   -7.4764   -8.9041 C   0  0  2  0  0  0  0  0  0  0  0  0
   14.5006   -6.2612   -8.0924 C   0  0  0  0  0  0  0  0  0  0  0  0
   15.0841   -7.2104  -10.3650 C   0  0  2  0  0  0  0  0  0  0  0  0
   15.6148   -8.4888  -10.8806 N   0  0  0  0  0  0  0  0  0  0  0  0
   16.0489   -6.1261  -10.6147 C   0  0  0  0  0  0  0  0  0  0  0  0
   17.2726   -6.3000  -10.3019 O   0  0  0  0  0  0  0  0  0  0  0  0
   15.7292   -4.8822  -11.1869 N   0  0  0  0  0  0  0  0  0  0  0  0
   16.7855   -3.8462  -11.4641 C   0  0  1  0  0  0  0  0  0  0  0  0
   17.1368   -3.9583  -12.9024 C   0  0  0  0  0  0  0  0  0  0  0  0
   18.0634   -2.9509  -13.4373 C   0  0  0  0  0  0  0  0  0  0  0  0
   18.4790   -3.0268  -14.8399 C   0  0  0  0  0  0  0  0  0  0  0  0
   19.2106   -2.1426  -15.4142 O   0  0  0  0  0  0  0  0  0  0  0  0
   16.1581   -2.5954  -11.0969 C   0  0  0  0  0  0  0  0  0  0  0  0
   16.8625   -1.4598  -10.7817 O   0  0  0  0  0  0  0  0  0  0  0  0
   18.1028   -4.0974  -15.6718 O   0  0  0  0  0  0  0  0  0  0  0  0
   14.9081   -2.4912  -11.0407 O   0  0  0  0  0  0  0  0  0  0  0  0
  2  3  2  0
  2  1  1  0
  4  3  1  0
  5  4  2  0
  6  5  1  0
  7  6  1  0
  7  9  1  0
  7  8  1  6
  9 10  2  0
 11  5  1  0
 11 12  2  0
 12  2  1  0
 13 14  1  0
 15 16  1  1
 15 14  1  0
 17 15  1  0
 18  9  1  0
 17 18  1  1
 19 21  1  0
 19 17  1  0
 20 19  2  0
 22 27  1  0
 22 21  1  0
 22 23  1  6
 24 23  1  0
 25 24  1  0
 26 25  2  0
 27 28  1  0
 29 25  1  0
 30 27  2  0
M  END
$$$$
