YIE.pdb
     RDKit          3D

 30 30  0  0  1  0  0  0  0  0999 V2000
   28.6256  -14.2212  -18.6778 O   0  0  0  0  0  0  0  0  0  0  0  0
   28.0473  -15.2697  -17.9667 C   0  0  0  0  0  0  0  0  0  0  0  0
   27.7786  -15.0676  -16.6284 C   0  0  0  0  0  0  0  0  0  0  0  0
   27.2131  -16.0850  -15.9197 C   0  0  0  0  0  0  0  0  0  0  0  0
   26.9225  -17.2805  -16.5379 C   0  0  0  0  0  0  0  0  0  0  0  0
   26.3209  -18.4081  -15.8111 C   0  0  0  0  0  0  0  0  0  0  0  0
   27.3289  -19.2520  -15.0626 C   0  0  2  0  0  0  0  0  0  0  0  0
   28.1673  -19.8617  -16.0929 N   0  0  0  0  0  0  0  0  0  0  0  0
   26.5992  -20.2630  -14.2824 C   0  0  0  0  0  0  0  0  0  0  0  0
   27.2013  -21.2991  -13.8962 O   0  0  0  0  0  0  0  0  0  0  0  0
   27.1883  -17.5004  -17.8921 C   0  0  0  0  0  0  0  0  0  0  0  0
   27.7574  -16.4658  -18.5897 C   0  0  0  0  0  0  0  0  0  0  0  0
   27.7656  -21.1436  -10.5582 C   0  0  0  0  0  0  0  0  0  0  0  0
   26.8983  -21.3879  -11.7520 C   0  0  0  0  0  0  0  0  0  0  0  0
   25.5499  -20.6931  -11.6310 C   0  0  2  0  0  0  0  0  0  0  0  0
   24.9727  -21.0948  -10.3122 C   0  0  0  0  0  0  0  0  0  0  0  0
   24.6771  -20.9977  -12.8240 C   0  0  2  0  0  0  0  0  0  0  0  0
   25.2434  -20.1775  -13.9141 N   0  0  0  0  0  0  0  0  0  0  0  0
   23.2542  -20.6699  -12.6326 C   0  0  0  0  0  0  0  0  0  0  0  0
   22.9379  -19.5233  -12.1733 O   0  0  0  0  0  0  0  0  0  0  0  0
   22.1843  -21.5345  -12.9235 N   0  0  0  0  0  0  0  0  0  0  0  0
   20.7924  -21.0145  -13.1644 C   0  0  1  0  0  0  0  0  0  0  0  0
   20.1557  -21.9200  -14.1541 C   0  0  0  0  0  0  0  0  0  0  0  0
   18.7332  -21.6896  -14.4419 C   0  0  0  0  0  0  0  0  0  0  0  0
   18.0188  -22.6120  -15.3277 C   0  0  0  0  0  0  0  0  0  0  0  0
   16.9180  -23.1919  -15.0129 O   0  0  0  0  0  0  0  0  0  0  0  0
   20.1776  -21.0318  -11.8549 C   0  0  0  0  0  0  0  0  0  0  0  0
   19.2009  -20.1486  -11.4661 O   0  0  0  0  0  0  0  0  0  0  0  0
   18.4947  -22.9300  -16.6130 O   0  0  0  0  0  0  0  0  0  0  0  0
   20.5241  -21.8726  -10.9892 O   0  0  0  0  0  0  0  0  0  0  0  0
  2  3  2  0
  2  1  1  0
  4  3  1  0
  5  4  2  0
  6  5  1  0
  7  6  1  0
  7  9  1  0
  7  8  1  6
  9 10  2  0
 11  5  1  0
 11 12  2  0
 12  2  1  0
 13 14  1  0
 15 16  1  1
 15 14  1  0
 17 15  1  0
 18  9  1  0
 17 18  1  6
 19 21  1  0
 19 17  1  0
 20 19  2  0
 22 27  1  0
 22 21  1  0
 22 23  1  6
 24 23  1  0
 25 24  1  0
 26 25  2  0
 27 28  1  0
 29 25  1  0
 30 27  2  0
M  END
$$$$
