YIE.pdb
     RDKit          3D

 30 30  0  0  1  0  0  0  0  0999 V2000
   29.0753  -14.5434  -18.2251 O   0  0  0  0  0  0  0  0  0  0  0  0
   28.2886  -15.5052  -17.5962 C   0  0  0  0  0  0  0  0  0  0  0  0
   28.1258  -15.4091  -16.2293 C   0  0  0  0  0  0  0  0  0  0  0  0
   27.3590  -16.3437  -15.6003 C   0  0  0  0  0  0  0  0  0  0  0  0
   26.7671  -17.3540  -16.3247 C   0  0  0  0  0  0  0  0  0  0  0  0
   25.9393  -18.3886  -15.6874 C   0  0  0  0  0  0  0  0  0  0  0  0
   26.7230  -19.3249  -14.7943 C   0  0  2  0  0  0  0  0  0  0  0  0
   27.5389  -20.1330  -15.6986 N   0  0  0  0  0  0  0  0  0  0  0  0
   25.7696  -20.1482  -14.0350 C   0  0  0  0  0  0  0  0  0  0  0  0
   25.3234  -21.2082  -14.5471 O   0  0  0  0  0  0  0  0  0  0  0  0
   26.9221  -17.4647  -17.7091 C   0  0  0  0  0  0  0  0  0  0  0  0
   27.6971  -16.5158  -18.3254 C   0  0  0  0  0  0  0  0  0  0  0  0
   26.5876  -20.9980   -8.9429 C   0  0  0  0  0  0  0  0  0  0  0  0
   26.1248  -21.2035  -10.3502 C   0  0  0  0  0  0  0  0  0  0  0  0
   24.7363  -20.6271  -10.5855 C   0  0  2  0  0  0  0  0  0  0  0  0
   23.8141  -21.3171   -9.6330 C   0  0  0  0  0  0  0  0  0  0  0  0
   24.3453  -20.7380  -12.0389 C   0  0  2  0  0  0  0  0  0  0  0  0
   25.2929  -19.8514  -12.7444 N   0  0  0  0  0  0  0  0  0  0  0  0
   22.9605  -20.3276  -12.3265 C   0  0  0  0  0  0  0  0  0  0  0  0
   22.6230  -19.1117  -12.1434 O   0  0  0  0  0  0  0  0  0  0  0  0
   21.9510  -21.1833  -12.8014 N   0  0  0  0  0  0  0  0  0  0  0  0
   20.5683  -20.6761  -13.1124 C   0  0  1  0  0  0  0  0  0  0  0  0
   19.9765  -21.6090  -14.1045 C   0  0  0  0  0  0  0  0  0  0  0  0
   18.5484  -21.4362  -14.4050 C   0  0  0  0  0  0  0  0  0  0  0  0
   17.8679  -22.4144  -15.2569 C   0  0  0  0  0  0  0  0  0  0  0  0
   18.4437  -23.4483  -15.7533 O   0  0  0  0  0  0  0  0  0  0  0  0
   19.9000  -20.6638  -11.8294 C   0  0  0  0  0  0  0  0  0  0  0  0
   19.0026  -19.6950  -11.4533 O   0  0  0  0  0  0  0  0  0  0  0  0
   16.5074  -22.2908  -15.5936 O   0  0  0  0  0  0  0  0  0  0  0  0
   20.1220  -21.5578  -10.9762 O   0  0  0  0  0  0  0  0  0  0  0  0
  2  3  2  0
  2  1  1  0
  4  3  1  0
  5  4  2  0
  6  5  1  0
  7  6  1  0
  7  9  1  0
  7  8  1  6
  9 10  2  0
 11  5  1  0
 11 12  2  0
 12  2  1  0
 13 14  1  0
 15 16  1  1
 15 14  1  0
 17 15  1  0
 18  9  1  0
 17 18  1  6
 19 21  1  0
 19 17  1  0
 20 19  2  0
 22 27  1  0
 22 21  1  0
 22 23  1  6
 24 23  1  0
 25 24  1  0
 26 25  2  0
 27 28  1  0
 29 25  1  0
 30 27  2  0
M  END
$$$$
