YIE.pdb
     RDKit          3D

 30 30  0  0  1  0  0  0  0  0999 V2000
   21.1331  -20.2844  -14.3740 O   0  0  0  0  0  0  0  0  0  0  0  0
   21.1927  -18.9552  -14.7857 C   0  0  0  0  0  0  0  0  0  0  0  0
   22.4401  -18.3875  -14.9469 C   0  0  0  0  0  0  0  0  0  0  0  0
   22.5138  -17.0875  -15.3488 C   0  0  0  0  0  0  0  0  0  0  0  0
   21.3625  -16.3702  -15.5847 C   0  0  0  0  0  0  0  0  0  0  0  0
   21.3939  -14.9633  -16.0108 C   0  0  0  0  0  0  0  0  0  0  0  0
   20.9289  -14.7522  -17.4347 C   0  0  2  0  0  0  0  0  0  0  0  0
   21.9635  -15.3523  -18.2748 N   0  0  0  0  0  0  0  0  0  0  0  0
   20.8026  -13.3061  -17.6718 C   0  0  0  0  0  0  0  0  0  0  0  0
   21.8220  -12.6409  -17.9934 O   0  0  0  0  0  0  0  0  0  0  0  0
   20.0924  -16.9308  -15.4263 C   0  0  0  0  0  0  0  0  0  0  0  0
   20.0370  -18.2399  -15.0213 C   0  0  0  0  0  0  0  0  0  0  0  0
   17.3076  -12.3620  -20.7121 C   0  0  0  0  0  0  0  0  0  0  0  0
   18.5272  -11.6753  -20.1848 C   0  0  0  0  0  0  0  0  0  0  0  0
   18.2887  -11.0589  -18.8141 C   0  0  2  0  0  0  0  0  0  0  0  0
   17.7842   -9.6712  -19.0453 C   0  0  0  0  0  0  0  0  0  0  0  0
   19.5292  -11.1481  -17.9592 C   0  0  2  0  0  0  0  0  0  0  0  0
   19.6068  -12.5707  -17.5694 N   0  0  0  0  0  0  0  0  0  0  0  0
   19.4993  -10.2966  -16.7580 C   0  0  0  0  0  0  0  0  0  0  0  0
   18.7920  -10.6561  -15.7600 O   0  0  0  0  0  0  0  0  0  0  0  0
   20.2051   -9.0895  -16.6112 N   0  0  0  0  0  0  0  0  0  0  0  0
   20.1342   -8.2832  -15.3420 C   0  0  1  0  0  0  0  0  0  0  0  0
   21.3010   -7.3648  -15.3451 C   0  0  0  0  0  0  0  0  0  0  0  0
   21.3654   -6.3737  -14.2620 C   0  0  0  0  0  0  0  0  0  0  0  0
   22.4648   -5.4061  -14.2353 C   0  0  0  0  0  0  0  0  0  0  0  0
   23.4376   -5.4110  -15.0723 O   0  0  0  0  0  0  0  0  0  0  0  0
   18.8504   -7.6203  -15.4162 C   0  0  0  0  0  0  0  0  0  0  0  0
   18.0561   -7.3853  -14.3213 O   0  0  0  0  0  0  0  0  0  0  0  0
   22.5311   -4.3797  -13.2752 O   0  0  0  0  0  0  0  0  0  0  0  0
   18.3889   -7.2265  -16.5155 O   0  0  0  0  0  0  0  0  0  0  0  0
  2  3  2  0
  2  1  1  0
  4  3  1  0
  5  4  2  0
  6  5  1  0
  7  6  1  0
  7  9  1  0
  7  8  1  6
  9 10  2  0
 11  5  1  0
 11 12  2  0
 12  2  1  0
 13 14  1  0
 15 16  1  6
 15 14  1  0
 17 15  1  0
 18  9  1  0
 17 18  1  1
 19 21  1  0
 19 17  1  0
 20 19  2  0
 22 27  1  0
 22 21  1  0
 22 23  1  6
 24 23  1  0
 25 24  1  0
 26 25  2  0
 27 28  1  0
 29 25  1  0
 30 27  2  0
M  END
$$$$
