YIE.pdb
     RDKit          3D

 30 30  0  0  1  0  0  0  0  0999 V2000
   30.2571  -16.7488  -19.1997 O   0  0  0  0  0  0  0  0  0  0  0  0
   29.4108  -17.5110  -18.3982 C   0  0  0  0  0  0  0  0  0  0  0  0
   29.0727  -17.0070  -17.1590 C   0  0  0  0  0  0  0  0  0  0  0  0
   28.2457  -17.7422  -16.3635 C   0  0  0  0  0  0  0  0  0  0  0  0
   27.7669  -18.9573  -16.7995 C   0  0  0  0  0  0  0  0  0  0  0  0
   26.8800  -19.7882  -15.9721 C   0  0  0  0  0  0  0  0  0  0  0  0
   27.6006  -20.5238  -14.8638 C   0  0  2  0  0  0  0  0  0  0  0  0
   28.3843  -21.5614  -15.5311 N   0  0  0  0  0  0  0  0  0  0  0  0
   26.5944  -21.0968  -13.9569 C   0  0  0  0  0  0  0  0  0  0  0  0
   26.0284  -22.1782  -14.2654 O   0  0  0  0  0  0  0  0  0  0  0  0
   28.0998  -19.4810  -18.0516 C   0  0  0  0  0  0  0  0  0  0  0  0
   28.9330  -18.7278  -18.8387 C   0  0  0  0  0  0  0  0  0  0  0  0
   27.2093  -21.0505   -8.7690 C   0  0  0  0  0  0  0  0  0  0  0  0
   26.7372  -21.4676  -10.1255 C   0  0  0  0  0  0  0  0  0  0  0  0
   25.4336  -20.7845  -10.5123 C   0  0  2  0  0  0  0  0  0  0  0  0
   24.4107  -21.2024   -9.5059 C   0  0  0  0  0  0  0  0  0  0  0  0
   25.0718  -21.0852  -11.9463 C   0  0  2  0  0  0  0  0  0  0  0  0
   26.1913  -20.5295  -12.7334 N   0  0  0  0  0  0  0  0  0  0  0  0
   23.7996  -20.4888  -12.3876 C   0  0  0  0  0  0  0  0  0  0  0  0
   23.7590  -19.2436  -12.6586 O   0  0  0  0  0  0  0  0  0  0  0  0
   22.5931  -21.1937  -12.5433 N   0  0  0  0  0  0  0  0  0  0  0  0
   21.3584  -20.5326  -13.0951 C   0  0  1  0  0  0  0  0  0  0  0  0
   21.4558  -20.5974  -14.5754 C   0  0  0  0  0  0  0  0  0  0  0  0
   21.5166  -21.9372  -15.1761 C   0  0  0  0  0  0  0  0  0  0  0  0
   21.4574  -22.0768  -16.6330 C   0  0  0  0  0  0  0  0  0  0  0  0
   20.4414  -21.7372  -17.3398 O   0  0  0  0  0  0  0  0  0  0  0  0
   20.2670  -21.2979  -12.5329 C   0  0  0  0  0  0  0  0  0  0  0  0
   18.9504  -20.9205  -12.6288 O   0  0  0  0  0  0  0  0  0  0  0  0
   22.5324  -22.5984  -17.3760 O   0  0  0  0  0  0  0  0  0  0  0  0
   20.4807  -22.3662  -11.9087 O   0  0  0  0  0  0  0  0  0  0  0  0
  2  3  2  0
  2  1  1  0
  4  3  1  0
  5  4  2  0
  6  5  1  0
  7  6  1  0
  7  9  1  0
  7  8  1  6
  9 10  2  0
 11  5  1  0
 11 12  2  0
 12  2  1  0
 13 14  1  0
 15 16  1  1
 15 14  1  0
 17 15  1  0
 18  9  1  0
 17 18  1  6
 19 21  1  0
 19 17  1  0
 20 19  2  0
 22 27  1  0
 22 21  1  0
 22 23  1  6
 24 23  1  0
 25 24  1  0
 26 25  2  0
 27 28  1  0
 29 25  1  0
 30 27  2  0
M  END
$$$$
