YIE.pdb
     RDKit          3D

 30 30  0  0  1  0  0  0  0  0999 V2000
   30.8354  -16.1784  -18.9805 O   0  0  0  0  0  0  0  0  0  0  0  0
   29.9538  -16.4417  -17.9350 C   0  0  0  0  0  0  0  0  0  0  0  0
   29.0674  -15.4471  -17.5756 C   0  0  0  0  0  0  0  0  0  0  0  0
   28.1992  -15.6905  -16.5538 C   0  0  0  0  0  0  0  0  0  0  0  0
   28.2176  -16.9047  -15.9050 C   0  0  0  0  0  0  0  0  0  0  0  0
   27.3059  -17.2079  -14.7920 C   0  0  0  0  0  0  0  0  0  0  0  0
   26.2933  -18.2841  -15.1159 C   0  0  2  0  0  0  0  0  0  0  0  0
   25.4065  -17.6951  -16.1173 N   0  0  0  0  0  0  0  0  0  0  0  0
   25.5717  -18.6286  -13.8814 C   0  0  0  0  0  0  0  0  0  0  0  0
   24.8526  -17.7593  -13.3225 O   0  0  0  0  0  0  0  0  0  0  0  0
   29.1087  -17.9218  -16.2573 C   0  0  0  0  0  0  0  0  0  0  0  0
   29.9752  -17.6596  -17.2875 C   0  0  0  0  0  0  0  0  0  0  0  0
   21.8185  -21.4697  -14.1106 C   0  0  0  0  0  0  0  0  0  0  0  0
   22.8611  -20.5226  -13.6077 C   0  0  0  0  0  0  0  0  0  0  0  0
   23.7510  -21.1605  -12.5509 C   0  0  2  0  0  0  0  0  0  0  0  0
   22.8455  -21.7049  -11.4937 C   0  0  0  0  0  0  0  0  0  0  0  0
   24.7870  -20.1812  -12.0553 C   0  0  2  0  0  0  0  0  0  0  0  0
   25.6110  -19.8831  -13.2443 N   0  0  0  0  0  0  0  0  0  0  0  0
   25.6367  -20.6969  -10.9687 C   0  0  0  0  0  0  0  0  0  0  0  0
   26.2040  -21.8301  -11.1091 O   0  0  0  0  0  0  0  0  0  0  0  0
   25.8862  -20.0280   -9.7575 N   0  0  0  0  0  0  0  0  0  0  0  0
   26.5515  -20.7186   -8.5971 C   0  0  1  0  0  0  0  0  0  0  0  0
   27.0550  -19.6561   -7.6901 C   0  0  0  0  0  0  0  0  0  0  0  0
   27.6878  -20.0990   -6.4400 C   0  0  0  0  0  0  0  0  0  0  0  0
   28.1285  -19.1008   -5.4626 C   0  0  0  0  0  0  0  0  0  0  0  0
   27.8729  -17.8471   -5.5612 O   0  0  0  0  0  0  0  0  0  0  0  0
   25.5065  -21.5433   -8.0308 C   0  0  0  0  0  0  0  0  0  0  0  0
   25.7436  -22.7465   -7.4133 O   0  0  0  0  0  0  0  0  0  0  0  0
   28.8731  -19.4528   -4.3218 O   0  0  0  0  0  0  0  0  0  0  0  0
   24.3028  -21.1906   -8.0868 O   0  0  0  0  0  0  0  0  0  0  0  0
  2  3  2  0
  2  1  1  0
  4  3  1  0
  5  4  2  0
  6  5  1  0
  7  6  1  0
  7  9  1  0
  7  8  1  6
  9 10  2  0
 11  5  1  0
 11 12  2  0
 12  2  1  0
 13 14  1  0
 15 16  1  1
 15 14  1  0
 17 15  1  0
 18  9  1  0
 17 18  1  6
 19 21  1  0
 19 17  1  0
 20 19  2  0
 22 27  1  0
 22 21  1  0
 22 23  1  1
 24 23  1  0
 25 24  1  0
 26 25  2  0
 27 28  1  0
 29 25  1  0
 30 27  2  0
M  END
$$$$
