YIE.pdb
     RDKit          3D

 30 30  0  0  1  0  0  0  0  0999 V2000
   17.2257  -23.5898  -17.9488 O   0  0  0  0  0  0  0  0  0  0  0  0
   17.8694  -22.4656  -17.4375 C   0  0  0  0  0  0  0  0  0  0  0  0
   17.6252  -22.1277  -16.1221 C   0  0  0  0  0  0  0  0  0  0  0  0
   18.2477  -21.0297  -15.6083 C   0  0  0  0  0  0  0  0  0  0  0  0
   19.0974  -20.2850  -16.3950 C   0  0  0  0  0  0  0  0  0  0  0  0
   19.7834  -19.0883  -15.8859 C   0  0  0  0  0  0  0  0  0  0  0  0
   21.2180  -19.3412  -15.4779 C   0  0  2  0  0  0  0  0  0  0  0  0
   21.1418  -20.2214  -14.3136 N   0  0  0  0  0  0  0  0  0  0  0  0
   21.8407  -18.0503  -15.1477 C   0  0  0  0  0  0  0  0  0  0  0  0
   21.6042  -17.5171  -14.0320 O   0  0  0  0  0  0  0  0  0  0  0  0
   19.3552  -20.6143  -17.7284 C   0  0  0  0  0  0  0  0  0  0  0  0
   18.7202  -21.7222  -18.2288 C   0  0  0  0  0  0  0  0  0  0  0  0
   26.9785  -15.0847  -15.3963 C   0  0  0  0  0  0  0  0  0  0  0  0
   25.4933  -14.9269  -15.3166 C   0  0  0  0  0  0  0  0  0  0  0  0
   24.7613  -16.2072  -15.6918 C   0  0  2  0  0  0  0  0  0  0  0  0
   25.2632  -16.6136  -17.0397 C   0  0  0  0  0  0  0  0  0  0  0  0
   23.2664  -16.0200  -15.6021 C   0  0  2  0  0  0  0  0  0  0  0  0
   22.7067  -17.3301  -15.9919 N   0  0  0  0  0  0  0  0  0  0  0  0
   22.7348  -14.9630  -16.4790 C   0  0  0  0  0  0  0  0  0  0  0  0
   22.7250  -15.1497  -17.7402 O   0  0  0  0  0  0  0  0  0  0  0  0
   22.2200  -13.7329  -16.0334 N   0  0  0  0  0  0  0  0  0  0  0  0
   21.5740  -12.7579  -16.9811 C   0  0  1  0  0  0  0  0  0  0  0  0
   20.5760  -11.9868  -16.1973 C   0  0  0  0  0  0  0  0  0  0  0  0
   19.8432  -10.9337  -16.9138 C   0  0  0  0  0  0  0  0  0  0  0  0
   18.8635  -10.1187  -16.1914 C   0  0  0  0  0  0  0  0  0  0  0  0
   18.6048  -10.2578  -14.9422 O   0  0  0  0  0  0  0  0  0  0  0  0
   22.6783  -11.9702  -17.4841 C   0  0  0  0  0  0  0  0  0  0  0  0
   22.7108  -11.4334  -18.7474 O   0  0  0  0  0  0  0  0  0  0  0  0
   18.1261   -9.1025  -16.8266 O   0  0  0  0  0  0  0  0  0  0  0  0
   23.6870  -11.7423  -16.7720 O   0  0  0  0  0  0  0  0  0  0  0  0
  2  3  2  0
  2  1  1  0
  4  3  1  0
  5  4  2  0
  6  5  1  0
  7  6  1  0
  7  9  1  0
  7  8  1  1
  9 10  2  0
 11  5  1  0
 11 12  2  0
 12  2  1  0
 13 14  1  0
 15 16  1  6
 15 14  1  0
 17 15  1  0
 18  9  1  0
 17 18  1  6
 19 21  1  0
 19 17  1  0
 20 19  2  0
 22 27  1  0
 22 21  1  0
 22 23  1  1
 24 23  1  0
 25 24  1  0
 26 25  2  0
 27 28  1  0
 29 25  1  0
 30 27  2  0
M  END
$$$$
