LEQ.pdb
     RDKit          3D

 27 26  0  0  1  0  0  0  0  0999 V2000
    8.4202  -13.3253   17.5958 C   0  0  0  0  0  0  0  0  0  0  0  0
    8.1312  -13.8291   18.9741 C   0  0  1  0  0  0  0  0  0  0  0  0
    6.8637  -13.1040   19.4479 C   0  0  0  0  0  0  0  0  0  0  0  0
    7.8877  -15.3042   19.0646 C   0  0  0  0  0  0  0  0  0  0  0  0
    7.6335  -15.6976   20.4883 C   0  0  2  0  0  0  0  0  0  0  0  0
    7.3942  -14.4883   21.2620 N   0  0  0  0  0  0  0  0  0  0  0  0
    8.8004  -16.3920   21.1004 C   0  0  0  0  0  0  0  0  0  0  0  0
    8.8954  -17.6578   21.1165 O   0  0  0  0  0  0  0  0  0  0  0  0
    9.8758  -15.6841   21.7020 N   0  0  0  0  0  0  0  0  0  0  0  0
   10.8693  -16.3610   22.5147 C   0  0  1  0  0  0  0  0  0  0  0  0
   12.2692  -15.9862   22.1254 C   0  0  0  0  0  0  0  0  0  0  0  0
   13.2988  -16.6325   23.0312 C   0  0  0  0  0  0  0  0  0  0  0  0
   14.6147  -15.9785   22.8498 C   0  0  0  0  0  0  0  0  0  0  0  0
   15.0718  -15.9011   21.6662 O   0  0  0  0  0  0  0  0  0  0  0  0
   10.6736  -16.0697   23.9561 C   0  0  0  0  0  0  0  0  0  0  0  0
   11.3819  -16.5954   24.8568 O   0  0  0  0  0  0  0  0  0  0  0  0
   15.3882  -15.4443   23.8687 O   0  0  0  0  0  0  0  0  0  0  0  0
    6.6743  -11.3727   27.5005 N   0  0  0  0  0  0  0  0  0  0  0  0
    6.6012  -12.7642   27.2607 C   0  0  0  0  0  0  0  0  0  0  0  0
    5.4799  -13.2695   27.0238 O   0  0  0  0  0  0  0  0  0  0  0  0
    7.7858  -13.6562   27.2760 C   0  0  0  0  0  0  0  0  0  0  0  0
    8.2169  -13.9357   25.8831 C   0  0  0  0  0  0  0  0  0  0  0  0
    9.3705  -14.8595   25.7317 C   0  0  2  0  0  0  0  0  0  0  0  0
    9.6547  -15.1692   24.3351 N   0  0  0  0  0  0  0  0  0  0  0  0
    9.3043  -16.0809   26.5368 C   0  0  0  0  0  0  0  0  0  0  0  0
    9.9689  -16.2952   27.5776 O   0  0  0  0  0  0  0  0  0  0  0  0
    8.4532  -17.0968   26.1430 O   0  0  0  0  0  0  0  0  0  0  0  0
  2  4  1  0
  2  1  1  6
  2  3  1  0
  5  4  1  0
  5  6  1  1
  7  5  1  0
  8  7  2  0
  9  7  1  0
 10  9  1  0
 10 11  1  6
 12 11  1  0
 13 12  1  0
 13 14  2  0
 15 10  1  0
 15 24  1  0
 16 15  2  0
 17 13  1  0
 19 18  1  0
 20 19  2  0
 21 19  1  0
 22 21  1  0
 23 22  1  6
 23 25  1  0
 23 24  1  0
 25 27  1  0
 26 25  2  0
M  END
$$$$
