LEQ.pdb
     RDKit          3D

 27 26  0  0  1  0  0  0  0  0999 V2000
    6.5246  -12.3229   20.4312 C   0  0  0  0  0  0  0  0  0  0  0  0
    7.3314  -13.4560   19.8816 C   0  0  1  0  0  0  0  0  0  0  0  0
    8.5010  -12.8269   19.1115 C   0  0  0  0  0  0  0  0  0  0  0  0
    7.8958  -14.3829   20.9139 C   0  0  0  0  0  0  0  0  0  0  0  0
    8.5676  -15.5461   20.2492 C   0  0  2  0  0  0  0  0  0  0  0  0
    7.5478  -16.3492   19.5909 N   0  0  0  0  0  0  0  0  0  0  0  0
    9.2663  -16.4288   21.2243 C   0  0  0  0  0  0  0  0  0  0  0  0
    8.7023  -17.4465   21.7323 O   0  0  0  0  0  0  0  0  0  0  0  0
   10.6020  -16.1882   21.6454 N   0  0  0  0  0  0  0  0  0  0  0  0
   11.2497  -17.0313   22.6331 C   0  0  1  0  0  0  0  0  0  0  0  0
   12.7097  -16.7156   22.7763 C   0  0  0  0  0  0  0  0  0  0  0  0
   13.3749  -17.5856   23.8245 C   0  0  0  0  0  0  0  0  0  0  0  0
   14.7625  -17.9006   23.4150 C   0  0  0  0  0  0  0  0  0  0  0  0
   14.9920  -19.0714   22.9764 O   0  0  0  0  0  0  0  0  0  0  0  0
   10.5955  -16.9060   23.9586 C   0  0  0  0  0  0  0  0  0  0  0  0
   10.4863  -15.8034   24.5599 O   0  0  0  0  0  0  0  0  0  0  0  0
   15.8315  -17.0198   23.4726 O   0  0  0  0  0  0  0  0  0  0  0  0
    6.6716  -21.1513   26.3818 N   0  0  0  0  0  0  0  0  0  0  0  0
    6.8439  -20.2509   27.4581 C   0  0  0  0  0  0  0  0  0  0  0  0
    6.2017  -20.4550   28.5139 O   0  0  0  0  0  0  0  0  0  0  0  0
    7.7468  -19.0759   27.4000 C   0  0  0  0  0  0  0  0  0  0  0  0
    8.3468  -18.9753   26.0457 C   0  0  0  0  0  0  0  0  0  0  0  0
    9.4976  -18.0456   25.9110 C   0  0  2  0  0  0  0  0  0  0  0  0
   10.0747  -18.0661   24.5718 N   0  0  0  0  0  0  0  0  0  0  0  0
   10.5377  -18.1847   26.9325 C   0  0  0  0  0  0  0  0  0  0  0  0
   11.5841  -18.8632   26.8082 O   0  0  0  0  0  0  0  0  0  0  0  0
   10.3812  -17.5303   28.1403 O   0  0  0  0  0  0  0  0  0  0  0  0
  2  4  1  0
  2  1  1  1
  2  3  1  0
  5  4  1  0
  5  6  1  1
  7  5  1  0
  8  7  2  0
  9  7  1  0
 10  9  1  0
 10 11  1  1
 12 11  1  0
 13 12  1  0
 13 14  2  0
 15 10  1  0
 15 24  1  0
 16 15  2  0
 17 13  1  0
 19 18  1  0
 20 19  2  0
 21 19  1  0
 22 21  1  0
 23 22  1  6
 23 25  1  0
 23 24  1  0
 25 27  1  0
 26 25  2  0
M  END
$$$$
