LEQ.pdb
     RDKit          3D

 27 26  0  0  1  0  0  0  0  0999 V2000
    7.0310  -12.3521   20.1027 C   0  0  0  0  0  0  0  0  0  0  0  0
    7.8553  -13.4900   19.5902 C   0  0  1  0  0  0  0  0  0  0  0  0
    8.8828  -12.8849   18.6232 C   0  0  0  0  0  0  0  0  0  0  0  0
    8.5975  -14.2519   20.6447 C   0  0  0  0  0  0  0  0  0  0  0  0
    9.3554  -15.3858   20.0232 C   0  0  2  0  0  0  0  0  0  0  0  0
    8.4242  -16.1847   19.2404 N   0  0  0  0  0  0  0  0  0  0  0  0
    9.9637  -16.2855   21.0423 C   0  0  0  0  0  0  0  0  0  0  0  0
    9.2725  -17.1314   21.6892 O   0  0  0  0  0  0  0  0  0  0  0  0
   11.3500  -16.2537   21.3532 N   0  0  0  0  0  0  0  0  0  0  0  0
   11.9040  -17.0494   22.4329 C   0  0  1  0  0  0  0  0  0  0  0  0
   13.4019  -17.1180   22.3740 C   0  0  0  0  0  0  0  0  0  0  0  0
   14.0445  -15.8269   22.8411 C   0  0  0  0  0  0  0  0  0  0  0  0
   15.5162  -15.9155   22.7052 C   0  0  0  0  0  0  0  0  0  0  0  0
   16.2040  -14.9373   23.1364 O   0  0  0  0  0  0  0  0  0  0  0  0
   11.4958  -16.5177   23.7563 C   0  0  0  0  0  0  0  0  0  0  0  0
   11.6689  -15.3134   24.0865 O   0  0  0  0  0  0  0  0  0  0  0  0
   16.2036  -16.9807   22.1443 O   0  0  0  0  0  0  0  0  0  0  0  0
    6.9120  -14.9075   24.8201 N   0  0  0  0  0  0  0  0  0  0  0  0
    6.8037  -16.2963   25.0624 C   0  0  0  0  0  0  0  0  0  0  0  0
    5.7105  -16.8589   24.8234 O   0  0  0  0  0  0  0  0  0  0  0  0
    7.9195  -17.1208   25.5861 C   0  0  0  0  0  0  0  0  0  0  0  0
    9.0869  -16.2512   25.8782 C   0  0  0  0  0  0  0  0  0  0  0  0
   10.4006  -16.9374   25.9790 C   0  0  2  0  0  0  0  0  0  0  0  0
   10.8901  -17.3936   24.6831 N   0  0  0  0  0  0  0  0  0  0  0  0
   10.4722  -18.0098   26.9737 C   0  0  0  0  0  0  0  0  0  0  0  0
   10.7232  -19.2116   26.7215 O   0  0  0  0  0  0  0  0  0  0  0  0
   10.2477  -17.7051   28.3035 O   0  0  0  0  0  0  0  0  0  0  0  0
  2  4  1  0
  2  1  1  1
  2  3  1  0
  5  4  1  0
  5  6  1  1
  7  5  1  0
  8  7  2  0
  9  7  1  0
 10  9  1  0
 10 11  1  1
 12 11  1  0
 13 12  1  0
 13 14  2  0
 15 10  1  0
 15 24  1  0
 16 15  2  0
 17 13  1  0
 19 18  1  0
 20 19  2  0
 21 19  1  0
 22 21  1  0
 23 22  1  6
 23 25  1  0
 23 24  1  0
 25 27  1  0
 26 25  2  0
M  END
$$$$
