LEQ.pdb
     RDKit          3D

 27 26  0  0  1  0  0  0  0  0999 V2000
    6.8957  -12.2376   20.3852 C   0  0  0  0  0  0  0  0  0  0  0  0
    7.7477  -13.4314   20.0920 C   0  0  1  0  0  0  0  0  0  0  0  0
    9.0383  -12.9010   19.4517 C   0  0  0  0  0  0  0  0  0  0  0  0
    8.1215  -14.2454   21.2925 C   0  0  0  0  0  0  0  0  0  0  0  0
    8.9672  -15.4121   20.8803 C   0  0  2  0  0  0  0  0  0  0  0  0
    8.1733  -16.2698   20.0132 N   0  0  0  0  0  0  0  0  0  0  0  0
    9.4000  -16.2359   22.0432 C   0  0  0  0  0  0  0  0  0  0  0  0
    8.5683  -16.7061   22.8793 O   0  0  0  0  0  0  0  0  0  0  0  0
   10.7650  -16.5459   22.2887 N   0  0  0  0  0  0  0  0  0  0  0  0
   11.1606  -17.4203   23.3772 C   0  0  1  0  0  0  0  0  0  0  0  0
   12.5097  -18.0356   23.1467 C   0  0  0  0  0  0  0  0  0  0  0  0
   12.8675  -19.0327   24.2310 C   0  0  0  0  0  0  0  0  0  0  0  0
   14.2000  -19.6189   23.9604 C   0  0  0  0  0  0  0  0  0  0  0  0
   15.2164  -18.9806   24.3793 O   0  0  0  0  0  0  0  0  0  0  0  0
   11.1745  -16.6949   24.6712 C   0  0  0  0  0  0  0  0  0  0  0  0
   11.7673  -15.5930   24.8251 O   0  0  0  0  0  0  0  0  0  0  0  0
   14.4271  -20.8085   23.2857 O   0  0  0  0  0  0  0  0  0  0  0  0
    8.9421  -12.5413   26.3582 N   0  0  0  0  0  0  0  0  0  0  0  0
    9.1045  -13.7071   27.1415 C   0  0  0  0  0  0  0  0  0  0  0  0
    9.5792  -13.5884   28.2945 O   0  0  0  0  0  0  0  0  0  0  0  0
    8.7417  -15.0643   26.6664 C   0  0  0  0  0  0  0  0  0  0  0  0
    9.3294  -16.0829   27.5726 C   0  0  0  0  0  0  0  0  0  0  0  0
   10.6008  -16.7023   27.1180 C   0  0  2  0  0  0  0  0  0  0  0  0
   10.4980  -17.2596   25.7741 N   0  0  0  0  0  0  0  0  0  0  0  0
   11.1913  -17.6712   28.0437 C   0  0  0  0  0  0  0  0  0  0  0  0
   11.4513  -18.8659   27.7681 O   0  0  0  0  0  0  0  0  0  0  0  0
   11.4953  -17.2677   29.3307 O   0  0  0  0  0  0  0  0  0  0  0  0
  2  4  1  0
  2  1  1  1
  2  3  1  0
  5  4  1  0
  5  6  1  6
  7  5  1  0
  8  7  2  0
  9  7  1  0
 10  9  1  0
 10 11  1  6
 12 11  1  0
 13 12  1  0
 13 14  2  0
 15 10  1  0
 15 24  1  0
 16 15  2  0
 17 13  1  0
 19 18  1  0
 20 19  2  0
 21 19  1  0
 22 21  1  0
 23 22  1  1
 23 25  1  0
 23 24  1  0
 25 27  1  0
 26 25  2  0
M  END
$$$$
