LEQ.pdb
     RDKit          3D

 27 26  0  0  1  0  0  0  0  0999 V2000
    6.6588  -11.6375   27.3194 C   0  0  0  0  0  0  0  0  0  0  0  0
    6.3083  -12.5703   26.2041 C   0  0  1  0  0  0  0  0  0  0  0  0
    6.3848  -11.7509   24.9082 C   0  0  0  0  0  0  0  0  0  0  0  0
    7.2184  -13.7517   26.0649 C   0  0  0  0  0  0  0  0  0  0  0  0
    6.7264  -14.6550   24.9748 C   0  0  2  0  0  0  0  0  0  0  0  0
    5.4896  -15.2792   25.4204 N   0  0  0  0  0  0  0  0  0  0  0  0
    7.6899  -15.7487   24.6683 C   0  0  0  0  0  0  0  0  0  0  0  0
    7.7233  -16.8227   25.3444 O   0  0  0  0  0  0  0  0  0  0  0  0
    8.6280  -15.6588   23.6047 N   0  0  0  0  0  0  0  0  0  0  0  0
    9.5465  -16.7428   23.3095 C   0  0  1  0  0  0  0  0  0  0  0  0
   10.2242  -16.5646   21.9826 C   0  0  0  0  0  0  0  0  0  0  0  0
   11.1653  -17.7115   21.6712 C   0  0  0  0  0  0  0  0  0  0  0  0
   11.7654  -17.5246   20.3306 C   0  0  0  0  0  0  0  0  0  0  0  0
   13.0342  -17.5063   20.2546 O   0  0  0  0  0  0  0  0  0  0  0  0
   10.5793  -16.8748   24.3663 C   0  0  0  0  0  0  0  0  0  0  0  0
   11.2805  -15.9019   24.7550 O   0  0  0  0  0  0  0  0  0  0  0  0
   11.0532  -17.3674   19.1517 O   0  0  0  0  0  0  0  0  0  0  0  0
    9.8603  -20.3908   29.2755 N   0  0  0  0  0  0  0  0  0  0  0  0
   11.2382  -20.0941   29.3877 C   0  0  0  0  0  0  0  0  0  0  0  0
   11.8282  -20.3982   30.4499 O   0  0  0  0  0  0  0  0  0  0  0  0
   12.0204  -19.4401   28.3109 C   0  0  0  0  0  0  0  0  0  0  0  0
   11.1445  -19.1954   27.1373 C   0  0  0  0  0  0  0  0  0  0  0  0
   11.7136  -18.3346   26.0687 C   0  0  2  0  0  0  0  0  0  0  0  0
   10.7862  -18.1386   24.9603 N   0  0  0  0  0  0  0  0  0  0  0  0
   13.0361  -18.7329   25.5818 C   0  0  0  0  0  0  0  0  0  0  0  0
   13.2519  -19.3875   24.5350 O   0  0  0  0  0  0  0  0  0  0  0  0
   14.1538  -18.3759   26.3130 O   0  0  0  0  0  0  0  0  0  0  0  0
  2  4  1  0
  2  1  1  1
  2  3  1  0
  5  4  1  0
  5  6  1  1
  7  5  1  0
  8  7  2  0
  9  7  1  0
 10  9  1  0
 10 11  1  6
 12 11  1  0
 13 12  1  0
 13 14  2  0
 15 10  1  0
 15 24  1  0
 16 15  2  0
 17 13  1  0
 19 18  1  0
 20 19  2  0
 21 19  1  0
 22 21  1  0
 23 22  1  1
 23 25  1  0
 23 24  1  0
 25 27  1  0
 26 25  2  0
M  END
$$$$
