LEQ.pdb
     RDKit          3D

 27 26  0  0  1  0  0  0  0  0999 V2000
    7.4117  -12.0383   19.4873 C   0  0  0  0  0  0  0  0  0  0  0  0
    7.7955  -13.4762   19.3391 C   0  0  1  0  0  0  0  0  0  0  0  0
    9.0225  -13.5086   18.4170 C   0  0  0  0  0  0  0  0  0  0  0  0
    8.1546  -14.1648   20.6199 C   0  0  0  0  0  0  0  0  0  0  0  0
    8.3893  -15.6241   20.3715 C   0  0  2  0  0  0  0  0  0  0  0  0
    7.1417  -16.2175   19.9139 N   0  0  0  0  0  0  0  0  0  0  0  0
    8.7988  -16.3494   21.6062 C   0  0  0  0  0  0  0  0  0  0  0  0
    7.9531  -16.7269   22.4746 O   0  0  0  0  0  0  0  0  0  0  0  0
   10.1559  -16.6629   21.8884 N   0  0  0  0  0  0  0  0  0  0  0  0
   10.5581  -17.2042   23.1733 C   0  0  1  0  0  0  0  0  0  0  0  0
   11.9277  -17.8157   23.1258 C   0  0  0  0  0  0  0  0  0  0  0  0
   12.3330  -18.3964   24.4662 C   0  0  0  0  0  0  0  0  0  0  0  0
   13.7018  -18.9548   24.3832 C   0  0  0  0  0  0  0  0  0  0  0  0
   14.6602  -18.2154   24.7713 O   0  0  0  0  0  0  0  0  0  0  0  0
   10.5303  -16.1615   24.2282 C   0  0  0  0  0  0  0  0  0  0  0  0
   11.1033  -15.0464   24.0954 O   0  0  0  0  0  0  0  0  0  0  0  0
   14.0211  -20.2200   23.9151 O   0  0  0  0  0  0  0  0  0  0  0  0
    6.1705  -13.0783   25.6655 N   0  0  0  0  0  0  0  0  0  0  0  0
    7.0165  -12.6781   26.7253 C   0  0  0  0  0  0  0  0  0  0  0  0
    6.7156  -11.6480   27.3711 O   0  0  0  0  0  0  0  0  0  0  0  0
    8.2434  -13.4167   27.1108 C   0  0  0  0  0  0  0  0  0  0  0  0
    8.4525  -14.5549   26.1807 C   0  0  0  0  0  0  0  0  0  0  0  0
    9.6368  -15.4092   26.4534 C   0  0  2  0  0  0  0  0  0  0  0  0
    9.8357  -16.4271   25.4281 N   0  0  0  0  0  0  0  0  0  0  0  0
    9.6894  -15.9973   27.7935 C   0  0  0  0  0  0  0  0  0  0  0  0
    9.3362  -17.1645   28.0830 O   0  0  0  0  0  0  0  0  0  0  0  0
   10.1584  -15.2295   28.8434 O   0  0  0  0  0  0  0  0  0  0  0  0
  2  4  1  0
  2  1  1  1
  2  3  1  0
  5  4  1  0
  5  6  1  1
  7  5  1  0
  8  7  2  0
  9  7  1  0
 10  9  1  0
 10 11  1  6
 12 11  1  0
 13 12  1  0
 13 14  2  0
 15 10  1  0
 15 24  1  0
 16 15  2  0
 17 13  1  0
 19 18  1  0
 20 19  2  0
 21 19  1  0
 22 21  1  0
 23 22  1  6
 23 25  1  0
 23 24  1  0
 25 27  1  0
 26 25  2  0
M  END
$$$$
