LEQ.pdb
     RDKit          3D

 27 26  0  0  1  0  0  0  0  0999 V2000
    6.6603  -11.6576   26.7820 C   0  0  0  0  0  0  0  0  0  0  0  0
    6.2532  -12.7693   25.8681 C   0  0  1  0  0  0  0  0  0  0  0  0
    5.5648  -12.1144   24.6623 C   0  0  0  0  0  0  0  0  0  0  0  0
    7.3840  -13.6106   25.3611 C   0  0  0  0  0  0  0  0  0  0  0  0
    6.8496  -14.8054   24.6310 C   0  0  2  0  0  0  0  0  0  0  0  0
    5.8315  -15.4320   25.4610 N   0  0  0  0  0  0  0  0  0  0  0  0
    7.9017  -15.8275   24.3723 C   0  0  0  0  0  0  0  0  0  0  0  0
    8.1576  -16.7525   25.2033 O   0  0  0  0  0  0  0  0  0  0  0  0
    8.6816  -15.8311   23.1843 N   0  0  0  0  0  0  0  0  0  0  0  0
    9.7331  -16.8080   22.9701 C   0  0  1  0  0  0  0  0  0  0  0  0
   10.1513  -16.8824   21.5308 C   0  0  0  0  0  0  0  0  0  0  0  0
    8.9708  -16.7307   20.5919 C   0  0  0  0  0  0  0  0  0  0  0  0
    9.4223  -16.8522   19.1870 C   0  0  0  0  0  0  0  0  0  0  0  0
   10.1096  -15.8961   18.7081 O   0  0  0  0  0  0  0  0  0  0  0  0
   10.9226  -16.5087   23.8045 C   0  0  0  0  0  0  0  0  0  0  0  0
   11.4352  -15.3587   23.8678 O   0  0  0  0  0  0  0  0  0  0  0  0
    9.1542  -17.9260   18.3521 O   0  0  0  0  0  0  0  0  0  0  0  0
    9.5487  -15.0133   28.3984 N   0  0  0  0  0  0  0  0  0  0  0  0
   10.6608  -15.6753   28.9676 C   0  0  0  0  0  0  0  0  0  0  0  0
   10.7768  -15.6800   30.2147 O   0  0  0  0  0  0  0  0  0  0  0  0
   11.6980  -16.3643   28.1620 C   0  0  0  0  0  0  0  0  0  0  0  0
   11.1879  -16.5967   26.7872 C   0  0  0  0  0  0  0  0  0  0  0  0
   12.1005  -17.3252   25.8689 C   0  0  2  0  0  0  0  0  0  0  0  0
   11.5044  -17.5517   24.5573 N   0  0  0  0  0  0  0  0  0  0  0  0
   12.6725  -18.5619   26.4056 C   0  0  0  0  0  0  0  0  0  0  0  0
   12.3349  -19.7198   26.0648 O   0  0  0  0  0  0  0  0  0  0  0  0
   13.6630  -18.4791   27.3667 O   0  0  0  0  0  0  0  0  0  0  0  0
  2  4  1  0
  2  1  1  1
  2  3  1  0
  5  4  1  0
  5  6  1  1
  7  5  1  0
  8  7  2  0
  9  7  1  0
 10  9  1  0
 10 11  1  6
 12 11  1  0
 13 12  1  0
 13 14  2  0
 15 10  1  0
 15 24  1  0
 16 15  2  0
 17 13  1  0
 19 18  1  0
 20 19  2  0
 21 19  1  0
 22 21  1  0
 23 22  1  1
 23 25  1  0
 23 24  1  0
 25 27  1  0
 26 25  2  0
M  END
$$$$
