LEQ.pdb
     RDKit          3D

 27 26  0  0  1  0  0  0  0  0999 V2000
    6.9634  -12.3992   20.4702 C   0  0  0  0  0  0  0  0  0  0  0  0
    7.5366  -13.4320   19.5528 C   0  0  1  0  0  0  0  0  0  0  0  0
    8.3430  -12.6732   18.4894 C   0  0  0  0  0  0  0  0  0  0  0  0
    8.4474  -14.4212   20.2127 C   0  0  0  0  0  0  0  0  0  0  0  0
    8.9200  -15.4327   19.2128 C   0  0  2  0  0  0  0  0  0  0  0  0
    7.7719  -16.2092   18.7691 N   0  0  0  0  0  0  0  0  0  0  0  0
    9.9030  -16.3878   19.7957 C   0  0  0  0  0  0  0  0  0  0  0  0
    9.5536  -17.2975   20.6094 O   0  0  0  0  0  0  0  0  0  0  0  0
   11.2875  -16.3409   19.4789 N   0  0  0  0  0  0  0  0  0  0  0  0
   12.2417  -17.2312   20.1135 C   0  0  1  0  0  0  0  0  0  0  0  0
   13.3927  -17.5637   19.2099 C   0  0  0  0  0  0  0  0  0  0  0  0
   12.9401  -18.3132   17.9724 C   0  0  0  0  0  0  0  0  0  0  0  0
   14.1065  -18.6289   17.1166 C   0  0  0  0  0  0  0  0  0  0  0  0
   13.9526  -18.5327   15.8584 O   0  0  0  0  0  0  0  0  0  0  0  0
   12.7675  -16.6469   21.3716 C   0  0  0  0  0  0  0  0  0  0  0  0
   13.1309  -15.4430   21.4607 O   0  0  0  0  0  0  0  0  0  0  0  0
   15.3530  -19.0218   17.5788 O   0  0  0  0  0  0  0  0  0  0  0  0
   11.2327  -19.0345   26.8910 N   0  0  0  0  0  0  0  0  0  0  0  0
   11.4979  -17.6586   27.0801 C   0  0  0  0  0  0  0  0  0  0  0  0
   11.1016  -17.1155   28.1369 O   0  0  0  0  0  0  0  0  0  0  0  0
   12.2215  -16.8254   26.0895 C   0  0  0  0  0  0  0  0  0  0  0  0
   12.6427  -17.6686   24.9424 C   0  0  0  0  0  0  0  0  0  0  0  0
   13.2876  -16.9534   23.8111 C   0  0  2  0  0  0  0  0  0  0  0  0
   12.8655  -17.4701   22.5142 N   0  0  0  0  0  0  0  0  0  0  0  0
   14.7465  -16.8510   23.8853 C   0  0  0  0  0  0  0  0  0  0  0  0
   15.5506  -17.7500   23.5447 O   0  0  0  0  0  0  0  0  0  0  0  0
   15.3119  -15.6847   24.3666 O   0  0  0  0  0  0  0  0  0  0  0  0
  2  4  1  0
  2  1  1  1
  2  3  1  0
  5  4  1  0
  5  6  1  1
  7  5  1  0
  8  7  2  0
  9  7  1  0
 10  9  1  0
 10 11  1  6
 12 11  1  0
 13 12  1  0
 13 14  2  0
 15 10  1  0
 15 24  1  0
 16 15  2  0
 17 13  1  0
 19 18  1  0
 20 19  2  0
 21 19  1  0
 22 21  1  0
 23 22  1  1
 23 25  1  0
 23 24  1  0
 25 27  1  0
 26 25  2  0
M  END
$$$$
