LEQ.pdb
     RDKit          3D

 27 26  0  0  1  0  0  0  0  0999 V2000
    7.6370  -12.0564   19.9128 C   0  0  0  0  0  0  0  0  0  0  0  0
    7.7733  -13.5436   19.8316 C   0  0  1  0  0  0  0  0  0  0  0  0
    8.6579  -13.8357   18.6114 C   0  0  0  0  0  0  0  0  0  0  0  0
    8.4046  -14.1821   21.0305 C   0  0  0  0  0  0  0  0  0  0  0  0
    8.3916  -15.6738   20.8860 C   0  0  2  0  0  0  0  0  0  0  0  0
    7.0076  -16.1123   20.7848 N   0  0  0  0  0  0  0  0  0  0  0  0
    8.9897  -16.3615   22.0640 C   0  0  0  0  0  0  0  0  0  0  0  0
    8.2916  -16.7026   23.0680 O   0  0  0  0  0  0  0  0  0  0  0  0
   10.3733  -16.6776   22.1376 N   0  0  0  0  0  0  0  0  0  0  0  0
   10.9703  -17.1917   23.3562 C   0  0  1  0  0  0  0  0  0  0  0  0
   12.3177  -17.8049   23.1108 C   0  0  0  0  0  0  0  0  0  0  0  0
   12.8658  -18.4782   24.3536 C   0  0  0  0  0  0  0  0  0  0  0  0
   14.2008  -19.0531   24.0713 C   0  0  0  0  0  0  0  0  0  0  0  0
   14.3529  -19.6659   22.9680 O   0  0  0  0  0  0  0  0  0  0  0  0
   11.1029  -16.1267   24.3804 C   0  0  0  0  0  0  0  0  0  0  0  0
   11.3682  -14.9302   24.0848 O   0  0  0  0  0  0  0  0  0  0  0  0
   15.2979  -18.9766   24.9152 O   0  0  0  0  0  0  0  0  0  0  0  0
    6.7532  -13.8596   26.0185 N   0  0  0  0  0  0  0  0  0  0  0  0
    7.5733  -13.1910   26.9563 C   0  0  0  0  0  0  0  0  0  0  0  0
    7.0626  -12.2858   27.6554 O   0  0  0  0  0  0  0  0  0  0  0  0
    9.0087  -13.5071   27.1538 C   0  0  0  0  0  0  0  0  0  0  0  0
    9.4011  -14.6228   26.2563 C   0  0  0  0  0  0  0  0  0  0  0  0
   10.5109  -15.4854   26.7371 C   0  0  2  0  0  0  0  0  0  0  0  0
   10.9255  -16.4650   25.7394 N   0  0  0  0  0  0  0  0  0  0  0  0
   10.2909  -16.1220   28.0374 C   0  0  0  0  0  0  0  0  0  0  0  0
    9.5787  -17.1346   28.2332 O   0  0  0  0  0  0  0  0  0  0  0  0
   10.9009  -15.5863   29.1566 O   0  0  0  0  0  0  0  0  0  0  0  0
  2  4  1  0
  2  1  1  1
  2  3  1  0
  5  4  1  0
  5  6  1  1
  7  5  1  0
  8  7  2  0
  9  7  1  0
 10  9  1  0
 10 11  1  6
 12 11  1  0
 13 12  1  0
 13 14  2  0
 15 10  1  0
 15 24  1  0
 16 15  2  0
 17 13  1  0
 19 18  1  0
 20 19  2  0
 21 19  1  0
 22 21  1  0
 23 22  1  6
 23 25  1  0
 23 24  1  0
 25 27  1  0
 26 25  2  0
M  END
$$$$
