LEQ.pdb
     RDKit          3D

 27 26  0  0  1  0  0  0  0  0999 V2000
    7.2318  -11.7673   19.8461 C   0  0  0  0  0  0  0  0  0  0  0  0
    7.6858  -13.1824   19.6776 C   0  0  1  0  0  0  0  0  0  0  0  0
    8.8909  -13.1448   18.7272 C   0  0  0  0  0  0  0  0  0  0  0  0
    8.1101  -13.8602   20.9442 C   0  0  0  0  0  0  0  0  0  0  0  0
    8.5024  -15.2789   20.6623 C   0  0  2  0  0  0  0  0  0  0  0  0
    7.3276  -15.9930   20.1849 N   0  0  0  0  0  0  0  0  0  0  0  0
    8.9856  -15.9851   21.8814 C   0  0  0  0  0  0  0  0  0  0  0  0
    8.1890  -16.3861   22.7849 O   0  0  0  0  0  0  0  0  0  0  0  0
   10.3626  -16.2530   22.1086 N   0  0  0  0  0  0  0  0  0  0  0  0
   10.8097  -16.9891   23.2765 C   0  0  1  0  0  0  0  0  0  0  0  0
   12.1965  -17.5357   23.1039 C   0  0  0  0  0  0  0  0  0  0  0  0
   13.1516  -16.9905   24.1473 C   0  0  0  0  0  0  0  0  0  0  0  0
   14.4070  -17.7756   24.1443 C   0  0  0  0  0  0  0  0  0  0  0  0
   15.4503  -17.2096   23.6892 O   0  0  0  0  0  0  0  0  0  0  0  0
   10.7720  -16.1411   24.4932 C   0  0  0  0  0  0  0  0  0  0  0  0
   11.4152  -15.0609   24.5876 O   0  0  0  0  0  0  0  0  0  0  0  0
   14.5346  -19.0793   24.5980 O   0  0  0  0  0  0  0  0  0  0  0  0
    6.6298  -12.2355   26.2559 N   0  0  0  0  0  0  0  0  0  0  0  0
    6.9176  -13.6168   26.3477 C   0  0  0  0  0  0  0  0  0  0  0  0
    6.0130  -14.3887   26.7412 O   0  0  0  0  0  0  0  0  0  0  0  0
    8.2374  -14.1981   26.0020 C   0  0  0  0  0  0  0  0  0  0  0  0
    8.6669  -15.1311   27.0741 C   0  0  0  0  0  0  0  0  0  0  0  0
    9.9594  -15.8284   26.8507 C   0  0  2  0  0  0  0  0  0  0  0  0
    9.9858  -16.5590   25.5887 N   0  0  0  0  0  0  0  0  0  0  0  0
   10.4135  -16.6747   27.9562 C   0  0  0  0  0  0  0  0  0  0  0  0
   10.5981  -17.9125   27.8878 O   0  0  0  0  0  0  0  0  0  0  0  0
   10.6646  -16.0929   29.1849 O   0  0  0  0  0  0  0  0  0  0  0  0
  2  4  1  0
  2  1  1  1
  2  3  1  0
  5  4  1  0
  5  6  1  1
  7  5  1  0
  8  7  2  0
  9  7  1  0
 10  9  1  0
 10 11  1  6
 12 11  1  0
 13 12  1  0
 13 14  2  0
 15 10  1  0
 15 24  1  0
 16 15  2  0
 17 13  1  0
 19 18  1  0
 20 19  2  0
 21 19  1  0
 22 21  1  0
 23 22  1  1
 23 25  1  0
 23 24  1  0
 25 27  1  0
 26 25  2  0
M  END
$$$$
