LEQ.pdb
     RDKit          3D

 27 26  0  0  1  0  0  0  0  0999 V2000
    6.5423  -11.3898   26.8832 C   0  0  0  0  0  0  0  0  0  0  0  0
    6.1818  -12.5134   25.9644 C   0  0  1  0  0  0  0  0  0  0  0  0
    5.9845  -11.8947   24.5733 C   0  0  0  0  0  0  0  0  0  0  0  0
    7.2166  -13.5907   25.8546 C   0  0  0  0  0  0  0  0  0  0  0  0
    6.7270  -14.6852   24.9553 C   0  0  2  0  0  0  0  0  0  0  0  0
    5.6294  -15.3696   25.6224 N   0  0  0  0  0  0  0  0  0  0  0  0
    7.7794  -15.7016   24.6765 C   0  0  0  0  0  0  0  0  0  0  0  0
    8.0459  -16.6339   25.4960 O   0  0  0  0  0  0  0  0  0  0  0  0
    8.5477  -15.6915   23.4811 N   0  0  0  0  0  0  0  0  0  0  0  0
    9.5919  -16.6704   23.2420 C   0  0  1  0  0  0  0  0  0  0  0  0
   10.1876  -16.5386   21.8710 C   0  0  0  0  0  0  0  0  0  0  0  0
   11.2165  -17.6176   21.5970 C   0  0  0  0  0  0  0  0  0  0  0  0
   11.7591  -17.4641   20.2279 C   0  0  0  0  0  0  0  0  0  0  0  0
   12.6714  -18.2719   19.8657 O   0  0  0  0  0  0  0  0  0  0  0  0
   10.6731  -16.5602   24.2518 C   0  0  0  0  0  0  0  0  0  0  0  0
   11.2349  -15.4658   24.5278 O   0  0  0  0  0  0  0  0  0  0  0  0
   11.3515  -16.5086   19.3098 O   0  0  0  0  0  0  0  0  0  0  0  0
   11.7066  -19.4210   30.4512 N   0  0  0  0  0  0  0  0  0  0  0  0
   11.6385  -18.1996   29.7423 C   0  0  0  0  0  0  0  0  0  0  0  0
   10.9026  -17.2908   30.1910 O   0  0  0  0  0  0  0  0  0  0  0  0
   12.3945  -17.9400   28.4932 C   0  0  0  0  0  0  0  0  0  0  0  0
   11.4559  -17.8913   27.3439 C   0  0  0  0  0  0  0  0  0  0  0  0
   12.0728  -17.6885   26.0078 C   0  0  2  0  0  0  0  0  0  0  0  0
   11.0902  -17.7255   24.9307 N   0  0  0  0  0  0  0  0  0  0  0  0
   13.2138  -18.5558   25.7069 C   0  0  0  0  0  0  0  0  0  0  0  0
   13.2386  -19.4286   24.8077 O   0  0  0  0  0  0  0  0  0  0  0  0
   14.3679  -18.4278   26.4572 O   0  0  0  0  0  0  0  0  0  0  0  0
  2  4  1  0
  2  1  1  1
  2  3  1  0
  5  4  1  0
  5  6  1  1
  7  5  1  0
  8  7  2  0
  9  7  1  0
 10  9  1  0
 10 11  1  6
 12 11  1  0
 13 12  1  0
 13 14  2  0
 15 10  1  0
 15 24  1  0
 16 15  2  0
 17 13  1  0
 19 18  1  0
 20 19  2  0
 21 19  1  0
 22 21  1  0
 23 22  1  1
 23 25  1  0
 23 24  1  0
 25 27  1  0
 26 25  2  0
M  END
$$$$
