LEQ.pdb
     RDKit          3D

 27 26  0  0  1  0  0  0  0  0999 V2000
    7.7608  -12.1823   25.8902 C   0  0  0  0  0  0  0  0  0  0  0  0
    7.1039  -13.4668   25.4959 C   0  0  1  0  0  0  0  0  0  0  0  0
    5.6980  -13.4462   26.1122 C   0  0  0  0  0  0  0  0  0  0  0  0
    6.9642  -13.6725   24.0189 C   0  0  0  0  0  0  0  0  0  0  0  0
    8.3096  -13.9104   23.4028 C   0  0  2  0  0  0  0  0  0  0  0  0
    8.1414  -14.0130   21.9608 N   0  0  0  0  0  0  0  0  0  0  0  0
    8.9282  -15.1827   23.8687 C   0  0  0  0  0  0  0  0  0  0  0  0
    9.2329  -15.3744   25.0861 O   0  0  0  0  0  0  0  0  0  0  0  0
    9.2149  -16.2568   22.9836 N   0  0  0  0  0  0  0  0  0  0  0  0
    9.8331  -17.4828   23.4534 C   0  0  1  0  0  0  0  0  0  0  0  0
   10.5819  -18.1924   22.3637 C   0  0  0  0  0  0  0  0  0  0  0  0
   11.1102  -19.5363   22.8251 C   0  0  0  0  0  0  0  0  0  0  0  0
   11.7196  -20.2593   21.6857 C   0  0  0  0  0  0  0  0  0  0  0  0
   12.3521  -21.3314   21.9435 O   0  0  0  0  0  0  0  0  0  0  0  0
   10.7576  -17.2196   24.5834 C   0  0  0  0  0  0  0  0  0  0  0  0
   11.5282  -16.2223   24.6115 O   0  0  0  0  0  0  0  0  0  0  0  0
   11.6557  -19.8592   20.3599 O   0  0  0  0  0  0  0  0  0  0  0  0
   10.1352  -13.9069   28.2256 N   0  0  0  0  0  0  0  0  0  0  0  0
   10.8962  -14.6914   29.1225 C   0  0  0  0  0  0  0  0  0  0  0  0
   11.1814  -14.2079   30.2422 O   0  0  0  0  0  0  0  0  0  0  0  0
   11.3745  -16.0586   28.8042 C   0  0  0  0  0  0  0  0  0  0  0  0
   10.9090  -16.4460   27.4486 C   0  0  0  0  0  0  0  0  0  0  0  0
   11.3638  -17.7727   26.9588 C   0  0  2  0  0  0  0  0  0  0  0  0
   10.7762  -18.1205   25.6701 N   0  0  0  0  0  0  0  0  0  0  0  0
   11.2239  -18.8742   27.9135 C   0  0  0  0  0  0  0  0  0  0  0  0
   10.2608  -19.6753   27.9539 O   0  0  0  0  0  0  0  0  0  0  0  0
   12.2139  -19.0708   28.8583 O   0  0  0  0  0  0  0  0  0  0  0  0
  2  4  1  0
  2  1  1  6
  2  3  1  0
  5  4  1  0
  5  6  1  6
  7  5  1  0
  8  7  2  0
  9  7  1  0
 10  9  1  0
 10 11  1  6
 12 11  1  0
 13 12  1  0
 13 14  2  0
 15 10  1  0
 15 24  1  0
 16 15  2  0
 17 13  1  0
 19 18  1  0
 20 19  2  0
 21 19  1  0
 22 21  1  0
 23 22  1  1
 23 25  1  0
 23 24  1  0
 25 27  1  0
 26 25  2  0
M  END
$$$$
