LEQ.pdb
     RDKit          3D

 27 26  0  0  1  0  0  0  0  0999 V2000
    6.0037  -11.4430   26.5229 C   0  0  0  0  0  0  0  0  0  0  0  0
    5.9403  -12.5668   25.5380 C   0  0  1  0  0  0  0  0  0  0  0  0
    6.2166  -11.9545   24.1575 C   0  0  0  0  0  0  0  0  0  0  0  0
    6.9348  -13.6623   25.7712 C   0  0  0  0  0  0  0  0  0  0  0  0
    6.7557  -14.7458   24.7514 C   0  0  2  0  0  0  0  0  0  0  0  0
    5.4948  -15.4219   25.0179 N   0  0  0  0  0  0  0  0  0  0  0  0
    7.8327  -15.7722   24.8214 C   0  0  0  0  0  0  0  0  0  0  0  0
    7.8406  -16.6772   25.7118 O   0  0  0  0  0  0  0  0  0  0  0  0
    8.9142  -15.8027   23.9001 N   0  0  0  0  0  0  0  0  0  0  0  0
    9.9176  -16.8502   23.9422 C   0  0  1  0  0  0  0  0  0  0  0  0
   10.8519  -16.7861   22.7697 C   0  0  0  0  0  0  0  0  0  0  0  0
   11.8485  -17.9283   22.7795 C   0  0  0  0  0  0  0  0  0  0  0  0
   12.7320  -17.8398   21.5946 C   0  0  0  0  0  0  0  0  0  0  0  0
   13.9785  -17.7018   21.8027 O   0  0  0  0  0  0  0  0  0  0  0  0
   10.7090  -16.7862   25.1954 C   0  0  0  0  0  0  0  0  0  0  0  0
   11.4838  -15.8277   25.4604 O   0  0  0  0  0  0  0  0  0  0  0  0
   12.3075  -17.8949   20.2760 O   0  0  0  0  0  0  0  0  0  0  0  0
   10.8046  -14.0961   28.4929 N   0  0  0  0  0  0  0  0  0  0  0  0
   10.7242  -15.3584   29.1247 C   0  0  0  0  0  0  0  0  0  0  0  0
   11.4528  -15.5733   30.1206 O   0  0  0  0  0  0  0  0  0  0  0  0
    9.8206  -16.4417   28.6673 C   0  0  0  0  0  0  0  0  0  0  0  0
   10.5782  -17.7149   28.5714 C   0  0  0  0  0  0  0  0  0  0  0  0
   11.3950  -17.8954   27.3436 C   0  0  2  0  0  0  0  0  0  0  0  0
   10.5909  -17.8392   26.1282 N   0  0  0  0  0  0  0  0  0  0  0  0
   12.2693  -19.0701   27.3403 C   0  0  0  0  0  0  0  0  0  0  0  0
   12.2354  -19.9917   26.4915 O   0  0  0  0  0  0  0  0  0  0  0  0
   13.2151  -19.2033   28.3399 O   0  0  0  0  0  0  0  0  0  0  0  0
  2  4  1  0
  2  1  1  1
  2  3  1  0
  5  4  1  0
  5  6  1  1
  7  5  1  0
  8  7  2  0
  9  7  1  0
 10  9  1  0
 10 11  1  6
 12 11  1  0
 13 12  1  0
 13 14  2  0
 15 10  1  0
 15 24  1  0
 16 15  2  0
 17 13  1  0
 19 18  1  0
 20 19  2  0
 21 19  1  0
 22 21  1  0
 23 22  1  1
 23 25  1  0
 23 24  1  0
 25 27  1  0
 26 25  2  0
M  END
$$$$
