LEQ.pdb
     RDKit          3D

 27 26  0  0  1  0  0  0  0  0999 V2000
    6.5267  -11.3650   26.5152 C   0  0  0  0  0  0  0  0  0  0  0  0
    6.1453  -12.5330   25.6625 C   0  0  1  0  0  0  0  0  0  0  0  0
    5.9569  -11.9917   24.2383 C   0  0  0  0  0  0  0  0  0  0  0  0
    7.1609  -13.6328   25.6144 C   0  0  0  0  0  0  0  0  0  0  0  0
    6.6502  -14.7691   24.7812 C   0  0  2  0  0  0  0  0  0  0  0  0
    5.4447  -15.2909   25.4078 N   0  0  0  0  0  0  0  0  0  0  0  0
    7.6262  -15.8908   24.6950 C   0  0  0  0  0  0  0  0  0  0  0  0
    7.7731  -16.7269   25.6390 O   0  0  0  0  0  0  0  0  0  0  0  0
    8.4508  -16.0945   23.5557 N   0  0  0  0  0  0  0  0  0  0  0  0
    9.5271  -17.0678   23.5623 C   0  0  1  0  0  0  0  0  0  0  0  0
   10.0070  -17.3898   22.1774 C   0  0  0  0  0  0  0  0  0  0  0  0
   10.4833  -16.1518   21.4434 C   0  0  0  0  0  0  0  0  0  0  0  0
   10.9687  -16.5188   20.0935 C   0  0  0  0  0  0  0  0  0  0  0  0
   12.1904  -16.8517   19.9811 O   0  0  0  0  0  0  0  0  0  0  0  0
   10.6750  -16.5941   24.3740 C   0  0  0  0  0  0  0  0  0  0  0  0
   10.8915  -15.3719   24.5946 O   0  0  0  0  0  0  0  0  0  0  0  0
   10.1964  -16.5274   18.9423 O   0  0  0  0  0  0  0  0  0  0  0  0
   10.4595  -14.9187   29.7606 N   0  0  0  0  0  0  0  0  0  0  0  0
   10.7893  -16.2780   29.5544 C   0  0  0  0  0  0  0  0  0  0  0  0
   10.1550  -17.1484   30.1938 O   0  0  0  0  0  0  0  0  0  0  0  0
   11.8495  -16.7256   28.6190 C   0  0  0  0  0  0  0  0  0  0  0  0
   11.2826  -16.8663   27.2541 C   0  0  0  0  0  0  0  0  0  0  0  0
   12.2188  -17.3504   26.2072 C   0  0  2  0  0  0  0  0  0  0  0  0
   11.5601  -17.5481   24.9211 N   0  0  0  0  0  0  0  0  0  0  0  0
   13.0161  -18.5227   26.5738 C   0  0  0  0  0  0  0  0  0  0  0  0
   14.0235  -18.5051   27.3192 O   0  0  0  0  0  0  0  0  0  0  0  0
   12.6562  -19.7600   26.0728 O   0  0  0  0  0  0  0  0  0  0  0  0
  2  4  1  0
  2  1  1  1
  2  3  1  0
  5  4  1  0
  5  6  1  1
  7  5  1  0
  8  7  2  0
  9  7  1  0
 10  9  1  0
 10 11  1  6
 12 11  1  0
 13 12  1  0
 13 14  2  0
 15 10  1  0
 15 24  1  0
 16 15  2  0
 17 13  1  0
 19 18  1  0
 20 19  2  0
 21 19  1  0
 22 21  1  0
 23 22  1  1
 23 25  1  0
 23 24  1  0
 25 27  1  0
 26 25  2  0
M  END
$$$$
