QAH.pdb
     RDKit          3D

 25 25  0  0  1  0  0  0  0  0999 V2000
   16.9034  -12.6384  -14.5340 N   0  0  0  0  0  0  0  0  0  0  0  0
   17.5937  -13.8331  -14.7828 C   0  0  0  0  0  0  0  0  0  0  0  0
   17.1900  -14.8997  -14.2837 O   0  0  0  0  0  0  0  0  0  0  0  0
   18.7942  -13.8190  -15.6346 C   0  0  0  0  0  0  0  0  0  0  0  0
   19.0880  -12.4036  -16.0445 C   0  0  0  0  0  0  0  0  0  0  0  0
   18.3011  -11.9868  -17.2693 C   0  0  2  0  0  0  0  0  0  0  0  0
   18.6551  -12.7778  -18.4093 N   0  0  0  0  0  0  0  0  0  0  0  0
   18.6137  -10.5301  -17.4957 C   0  0  0  0  0  0  0  0  0  0  0  0
   19.5939  -10.2003  -18.2114 O   0  0  0  0  0  0  0  0  0  0  0  0
   16.9502   -7.3004  -16.7446 C   0  0  0  0  0  0  0  0  0  0  0  0
   18.1202   -8.1452  -17.1887 C   0  0  2  0  0  0  0  0  0  0  0  0
   17.8123   -9.5105  -16.9089 N   0  0  0  0  0  0  0  0  0  0  0  0
   19.3986   -7.6945  -16.5947 C   0  0  0  0  0  0  0  0  0  0  0  0
   19.7247   -8.1284  -15.4607 O   0  0  0  0  0  0  0  0  0  0  0  0
   20.2660   -6.7936  -17.2568 N   0  0  0  0  0  0  0  0  0  0  0  0
   21.5161   -6.3154  -16.6821 C   0  0  1  0  0  0  0  0  0  0  0  0
   22.2990   -5.6949  -17.7892 C   0  0  0  0  0  0  0  0  0  0  0  0
   23.5777   -5.1182  -17.3652 C   0  0  0  0  0  0  0  0  0  0  0  0
   24.4846   -5.7610  -16.5403 C   0  0  0  0  0  0  0  0  0  0  0  0
   25.5206   -4.9203  -16.3803 N   0  0  0  0  0  0  0  0  0  0  0  0
   25.2825   -3.7907  -17.0741 C   0  0  0  0  0  0  0  0  0  0  0  0
   24.0933   -3.9067  -17.6795 N   0  0  0  0  0  0  0  0  0  0  0  0
   21.3049   -5.4725  -15.5068 C   0  0  0  0  0  0  0  0  0  0  0  0
   22.0212   -5.6062  -14.5044 O   0  0  0  0  0  0  0  0  0  0  0  0
   20.3021   -4.5154  -15.5007 O   0  0  0  0  0  0  0  0  0  0  0  0
  2  1  1  0
  3  2  2  0
  4  2  1  0
  5  4  1  0
  6  8  1  0
  6  5  1  0
  6  7  1  6
  8  9  2  0
 11 10  1  1
 12 11  1  0
 12  8  1  0
 13 15  1  0
 13 11  1  0
 14 13  2  0
 16 17  1  6
 16 15  1  0
 17 18  1  0
 18 22  1  0
 19 20  1  0
 19 18  2  0
 20 21  1  0
 21 22  2  0
 23 16  1  0
 23 25  1  0
 24 23  2  0
M  END
$$$$
