QAH.pdb
     RDKit          3D

 25 25  0  0  1  0  0  0  0  0999 V2000
   17.6764  -15.4255  -15.8793 N   0  0  0  0  0  0  0  0  0  0  0  0
   16.2893  -15.2667  -16.0071 C   0  0  0  0  0  0  0  0  0  0  0  0
   15.5505  -16.2676  -16.0516 O   0  0  0  0  0  0  0  0  0  0  0  0
   15.7135  -13.9144  -16.0881 C   0  0  0  0  0  0  0  0  0  0  0  0
   16.8288  -12.9080  -16.1240 C   0  0  0  0  0  0  0  0  0  0  0  0
   16.3919  -11.5503  -15.6153 C   0  0  2  0  0  0  0  0  0  0  0  0
   15.0589  -11.2408  -16.0370 N   0  0  0  0  0  0  0  0  0  0  0  0
   17.3835  -10.5561  -16.1621 C   0  0  0  0  0  0  0  0  0  0  0  0
   18.6109  -10.6956  -15.9254 O   0  0  0  0  0  0  0  0  0  0  0  0
   17.2726   -7.7872  -18.6178 C   0  0  0  0  0  0  0  0  0  0  0  0
   17.9349   -8.5889  -17.5230 C   0  0  2  0  0  0  0  0  0  0  0  0
   16.9527   -9.4511  -16.9493 N   0  0  0  0  0  0  0  0  0  0  0  0
   18.6190   -7.7303  -16.5305 C   0  0  0  0  0  0  0  0  0  0  0  0
   17.9861   -7.3673  -15.5066 O   0  0  0  0  0  0  0  0  0  0  0  0
   19.9584   -7.3038  -16.6926 N   0  0  0  0  0  0  0  0  0  0  0  0
   20.6347   -6.4128  -15.7597 C   0  0  1  0  0  0  0  0  0  0  0  0
   22.0634   -6.8363  -15.7056 C   0  0  0  0  0  0  0  0  0  0  0  0
   22.2656   -8.1863  -15.1724 C   0  0  0  0  0  0  0  0  0  0  0  0
   21.2539   -8.9776  -14.6564 C   0  0  0  0  0  0  0  0  0  0  0  0
   21.8271  -10.1302  -14.2709 N   0  0  0  0  0  0  0  0  0  0  0  0
   23.1474  -10.0742  -14.5309 C   0  0  0  0  0  0  0  0  0  0  0  0
   23.4216   -8.8851  -15.0834 N   0  0  0  0  0  0  0  0  0  0  0  0
   20.4040   -5.0024  -16.0665 C   0  0  0  0  0  0  0  0  0  0  0  0
   19.8361   -4.6759  -17.1185 O   0  0  0  0  0  0  0  0  0  0  0  0
   20.8174   -4.0158  -15.1848 O   0  0  0  0  0  0  0  0  0  0  0  0
  2  1  1  0
  3  2  2  0
  4  2  1  0
  5  4  1  0
  6  8  1  0
  6  5  1  0
  6  7  1  6
  8  9  2  0
 11 10  1  6
 12 11  1  0
 12  8  1  0
 13 15  1  0
 13 11  1  0
 14 13  2  0
 16 17  1  6
 16 15  1  0
 17 18  1  0
 18 22  1  0
 19 20  1  0
 19 18  2  0
 20 21  1  0
 21 22  2  0
 23 16  1  0
 23 25  1  0
 24 23  2  0
M  END
$$$$
