QAH.pdb
     RDKit          3D

 25 25  0  0  1  0  0  0  0  0999 V2000
   13.9072  -14.9297  -15.7499 N   0  0  0  0  0  0  0  0  0  0  0  0
   14.9791  -15.0873  -14.8601 C   0  0  0  0  0  0  0  0  0  0  0  0
   15.7780  -16.0301  -15.0100 O   0  0  0  0  0  0  0  0  0  0  0  0
   15.1538  -14.1349  -13.7513 C   0  0  0  0  0  0  0  0  0  0  0  0
   13.9335  -13.2631  -13.6569 C   0  0  0  0  0  0  0  0  0  0  0  0
   14.1956  -11.8554  -14.1496 C   0  0  2  0  0  0  0  0  0  0  0  0
   14.8623  -11.8634  -15.4168 N   0  0  0  0  0  0  0  0  0  0  0  0
   15.0375  -11.1886  -13.0926 C   0  0  0  0  0  0  0  0  0  0  0  0
   14.7367  -11.3119  -11.8776 O   0  0  0  0  0  0  0  0  0  0  0  0
   18.1886   -9.2200  -13.0157 C   0  0  0  0  0  0  0  0  0  0  0  0
   16.9093   -9.7520  -12.4156 C   0  0  2  0  0  0  0  0  0  0  0  0
   16.1779  -10.4142  -13.4470 N   0  0  0  0  0  0  0  0  0  0  0  0
   16.1318   -8.7007  -11.7223 C   0  0  0  0  0  0  0  0  0  0  0  0
   14.9660   -8.4492  -12.1201 O   0  0  0  0  0  0  0  0  0  0  0  0
   16.6532   -7.9693  -10.6288 N   0  0  0  0  0  0  0  0  0  0  0  0
   15.8666   -7.0240   -9.8484 C   0  0  1  0  0  0  0  0  0  0  0  0
   14.6772   -7.7620   -9.3343 C   0  0  0  0  0  0  0  0  0  0  0  0
   13.7883   -6.9516   -8.4972 C   0  0  0  0  0  0  0  0  0  0  0  0
   14.0256   -5.6289   -8.1653 C   0  0  0  0  0  0  0  0  0  0  0  0
   12.9988   -5.2371   -7.3921 N   0  0  0  0  0  0  0  0  0  0  0  0
   12.1447   -6.2672   -7.2389 C   0  0  0  0  0  0  0  0  0  0  0  0
   12.6237   -7.3203   -7.9140 N   0  0  0  0  0  0  0  0  0  0  0  0
   16.6655   -6.3303   -8.8399 C   0  0  0  0  0  0  0  0  0  0  0  0
   17.4863   -6.9555   -8.1536 O   0  0  0  0  0  0  0  0  0  0  0  0
   16.5137   -4.9669   -8.6405 O   0  0  0  0  0  0  0  0  0  0  0  0
  2  1  1  0
  3  2  2  0
  4  2  1  0
  5  4  1  0
  6  8  1  0
  6  5  1  0
  6  7  1  6
  8  9  2  0
 11 10  1  6
 12 11  1  0
 12  8  1  0
 13 15  1  0
 13 11  1  0
 14 13  2  0
 16 17  1  1
 16 15  1  0
 17 18  1  0
 18 22  1  0
 19 20  1  0
 19 18  2  0
 20 21  1  0
 21 22  2  0
 23 16  1  0
 23 25  1  0
 24 23  2  0
M  END
$$$$
