QAH.pdb
     RDKit          3D

 25 25  0  0  1  0  0  0  0  0999 V2000
   28.1682  -26.2344  -16.1637 N   0  0  0  0  0  0  0  0  0  0  0  0
   27.3790  -25.3019  -16.8517 C   0  0  0  0  0  0  0  0  0  0  0  0
   27.6701  -24.0922  -16.8128 O   0  0  0  0  0  0  0  0  0  0  0  0
   26.2083  -25.7599  -17.6176 C   0  0  0  0  0  0  0  0  0  0  0  0
   26.0746  -27.2488  -17.4652 C   0  0  0  0  0  0  0  0  0  0  0  0
   26.9472  -28.0056  -18.4444 C   0  0  2  0  0  0  0  0  0  0  0  0
   26.4902  -27.8322  -19.7903 N   0  0  0  0  0  0  0  0  0  0  0  0
   26.8895  -29.4530  -18.0292 C   0  0  0  0  0  0  0  0  0  0  0  0
   26.0574  -30.2291  -18.5650 O   0  0  0  0  0  0  0  0  0  0  0  0
   28.8927  -31.7183  -15.8877 C   0  0  0  0  0  0  0  0  0  0  0  0
   27.6386  -31.3273  -16.6320 C   0  0  2  0  0  0  0  0  0  0  0  0
   27.7678  -29.9632  -17.0320 N   0  0  0  0  0  0  0  0  0  0  0  0
   26.4113  -31.5998  -15.8510 C   0  0  0  0  0  0  0  0  0  0  0  0
   25.7173  -30.6285  -15.4568 O   0  0  0  0  0  0  0  0  0  0  0  0
   25.9917  -32.9131  -15.5324 N   0  0  0  0  0  0  0  0  0  0  0  0
   24.7595  -33.2091  -14.8145 C   0  0  1  0  0  0  0  0  0  0  0  0
   23.6459  -32.5678  -15.5710 C   0  0  0  0  0  0  0  0  0  0  0  0
   22.3109  -32.9174  -15.0780 C   0  0  0  0  0  0  0  0  0  0  0  0
   21.7970  -32.4987  -13.8627 C   0  0  0  0  0  0  0  0  0  0  0  0
   20.5620  -33.0198  -13.7684 N   0  0  0  0  0  0  0  0  0  0  0  0
   20.3016  -33.7393  -14.8768 C   0  0  0  0  0  0  0  0  0  0  0  0
   21.3699  -33.6799  -15.6826 N   0  0  0  0  0  0  0  0  0  0  0  0
   24.6000  -34.6364  -14.5423 C   0  0  0  0  0  0  0  0  0  0  0  0
   24.9823  -35.4771  -15.3685 O   0  0  0  0  0  0  0  0  0  0  0  0
   24.0201  -35.0644  -13.3582 O   0  0  0  0  0  0  0  0  0  0  0  0
  2  1  1  0
  3  2  2  0
  4  2  1  0
  5  4  1  0
  6  8  1  0
  6  5  1  0
  6  7  1  6
  8  9  2  0
 11 10  1  1
 12 11  1  0
 12  8  1  0
 13 15  1  0
 13 11  1  0
 14 13  2  0
 16 17  1  6
 16 15  1  0
 17 18  1  0
 18 22  1  0
 19 20  1  0
 19 18  2  0
 20 21  1  0
 21 22  2  0
 23 16  1  0
 23 25  1  0
 24 23  2  0
M  END
$$$$
