QAH.pdb
     RDKit          3D

 25 25  0  0  1  0  0  0  0  0999 V2000
   16.7453  -14.8074  -16.5090 N   0  0  0  0  0  0  0  0  0  0  0  0
   17.8926  -15.3122  -15.8809 C   0  0  0  0  0  0  0  0  0  0  0  0
   17.7931  -16.2407  -15.0578 O   0  0  0  0  0  0  0  0  0  0  0  0
   19.2109  -14.7400  -16.1994 C   0  0  0  0  0  0  0  0  0  0  0  0
   19.0293  -13.5859  -17.1443 C   0  0  0  0  0  0  0  0  0  0  0  0
   20.3486  -12.9586  -17.5430 C   0  0  2  0  0  0  0  0  0  0  0  0
   21.4209  -13.9039  -17.4579 N   0  0  0  0  0  0  0  0  0  0  0  0
   20.5651  -11.7997  -16.6045 C   0  0  0  0  0  0  0  0  0  0  0  0
   19.7179  -10.8722  -16.5433 O   0  0  0  0  0  0  0  0  0  0  0  0
   23.1340  -10.8343  -14.0894 C   0  0  0  0  0  0  0  0  0  0  0  0
   21.8935  -10.6070  -14.9196 C   0  0  2  0  0  0  0  0  0  0  0  0
   21.7221  -11.7345  -15.7779 N   0  0  0  0  0  0  0  0  0  0  0  0
   21.9270   -9.3153  -15.6413 C   0  0  0  0  0  0  0  0  0  0  0  0
   22.4977   -9.2624  -16.7603 O   0  0  0  0  0  0  0  0  0  0  0  0
   21.3402   -8.1391  -15.1174 N   0  0  0  0  0  0  0  0  0  0  0  0
   21.2810   -6.8794  -15.8463 C   0  0  1  0  0  0  0  0  0  0  0  0
   20.5645   -7.1465  -17.1265 C   0  0  0  0  0  0  0  0  0  0  0  0
   20.4428   -5.9744  -17.9977 C   0  0  0  0  0  0  0  0  0  0  0  0
   21.3754   -4.9536  -18.0618 C   0  0  0  0  0  0  0  0  0  0  0  0
   20.9151   -4.0693  -18.9627 N   0  0  0  0  0  0  0  0  0  0  0  0
   19.7394   -4.5092  -19.4509 C   0  0  0  0  0  0  0  0  0  0  0  0
   19.4453   -5.6763  -18.8630 N   0  0  0  0  0  0  0  0  0  0  0  0
   20.7426   -5.7890  -15.0354 C   0  0  0  0  0  0  0  0  0  0  0  0
   20.6403   -4.6486  -15.5095 O   0  0  0  0  0  0  0  0  0  0  0  0
   20.3409   -6.0185  -13.7286 O   0  0  0  0  0  0  0  0  0  0  0  0
  2  1  1  0
  3  2  2  0
  4  2  1  0
  5  4  1  0
  6  8  1  0
  6  5  1  0
  6  7  1  1
  8  9  2  0
 11 10  1  6
 12 11  1  0
 12  8  1  0
 13 15  1  0
 13 11  1  0
 14 13  2  0
 16 17  1  6
 16 15  1  0
 17 18  1  0
 18 22  1  0
 19 20  1  0
 19 18  2  0
 20 21  1  0
 21 22  2  0
 23 16  1  0
 23 25  1  0
 24 23  2  0
M  END
$$$$
