QAH.pdb
     RDKit          3D

 25 25  0  0  1  0  0  0  0  0999 V2000
   12.5839  -22.7730   -0.5174 N   0  0  0  0  0  0  0  0  0  0  0  0
   13.9711  -22.7877   -0.3146 C   0  0  0  0  0  0  0  0  0  0  0  0
   14.7344  -23.0647   -1.2581 O   0  0  0  0  0  0  0  0  0  0  0  0
   14.5179  -22.4749    1.0158 C   0  0  0  0  0  0  0  0  0  0  0  0
   13.4055  -21.9882    1.9011 C   0  0  0  0  0  0  0  0  0  0  0  0
   13.5469  -20.5201    2.2442 C   0  0  2  0  0  0  0  0  0  0  0  0
   14.3941  -19.8460    1.3071 N   0  0  0  0  0  0  0  0  0  0  0  0
   14.1196  -20.4659    3.6370 C   0  0  0  0  0  0  0  0  0  0  0  0
   13.7271  -21.2803    4.5114 O   0  0  0  0  0  0  0  0  0  0  0  0
   16.0604  -20.8277    5.7120 C   0  0  0  0  0  0  0  0  0  0  0  0
   15.5756  -19.4493    5.3318 C   0  0  2  0  0  0  0  0  0  0  0  0
   15.1061  -19.5006    3.9849 N   0  0  0  0  0  0  0  0  0  0  0  0
   16.6020  -18.4077    5.5600 C   0  0  0  0  0  0  0  0  0  0  0  0
   17.6585  -18.4405    4.8794 O   0  0  0  0  0  0  0  0  0  0  0  0
   16.4369  -17.3775    6.5159 N   0  0  0  0  0  0  0  0  0  0  0  0
   17.4372  -16.3490    6.7671 C   0  0  1  0  0  0  0  0  0  0  0  0
   16.7522  -15.0305    6.6405 C   0  0  0  0  0  0  0  0  0  0  0  0
   17.5400  -14.0141    5.9377 C   0  0  0  0  0  0  0  0  0  0  0  0
   17.9295  -14.1116    4.6130 C   0  0  0  0  0  0  0  0  0  0  0  0
   18.6299  -12.9987    4.3361 N   0  0  0  0  0  0  0  0  0  0  0  0
   18.6835  -12.2264    5.4381 C   0  0  0  0  0  0  0  0  0  0  0  0
   18.0172  -12.8438    6.4226 N   0  0  0  0  0  0  0  0  0  0  0  0
   18.1624  -16.5679    8.0171 C   0  0  0  0  0  0  0  0  0  0  0  0
   17.7437  -17.3863    8.8481 O   0  0  0  0  0  0  0  0  0  0  0  0
   19.3255  -15.8631    8.2862 O   0  0  0  0  0  0  0  0  0  0  0  0
  2  1  1  0
  3  2  2  0
  4  2  1  0
  5  4  1  0
  6  8  1  0
  6  5  1  0
  6  7  1  6
  8  9  2  0
 11 10  1  6
 12 11  1  0
 12  8  1  0
 13 15  1  0
 13 11  1  0
 14 13  2  0
 16 17  1  1
 16 15  1  0
 17 18  1  0
 18 22  1  0
 19 20  1  0
 19 18  2  0
 20 21  1  0
 21 22  2  0
 23 16  1  0
 23 25  1  0
 24 23  2  0
M  END
$$$$
