QAH.pdb
     RDKit          3D

 25 25  0  0  1  0  0  0  0  0999 V2000
   25.4540  -21.9270  -11.1056 N   0  0  0  0  0  0  0  0  0  0  0  0
   25.7554  -20.5625  -10.9916 C   0  0  0  0  0  0  0  0  0  0  0  0
   25.5271  -19.9625   -9.9250 O   0  0  0  0  0  0  0  0  0  0  0  0
   26.3412  -19.8460  -12.1362 C   0  0  0  0  0  0  0  0  0  0  0  0
   26.4272  -20.7819  -13.3086 C   0  0  0  0  0  0  0  0  0  0  0  0
   27.1416  -20.1576  -14.4889 C   0  0  2  0  0  0  0  0  0  0  0  0
   28.3163  -19.4527  -14.0725 N   0  0  0  0  0  0  0  0  0  0  0  0
   26.1486  -19.2298  -15.1400 C   0  0  0  0  0  0  0  0  0  0  0  0
   25.8147  -18.1617  -14.5661 O   0  0  0  0  0  0  0  0  0  0  0  0
   24.5582  -18.9133  -18.4599 C   0  0  0  0  0  0  0  0  0  0  0  0
   24.6317  -18.6383  -16.9771 C   0  0  2  0  0  0  0  0  0  0  0  0
   25.5760  -19.5429  -16.4050 N   0  0  0  0  0  0  0  0  0  0  0  0
   23.3022  -18.6843  -16.3286 C   0  0  0  0  0  0  0  0  0  0  0  0
   23.1646  -19.3625  -15.2789 O   0  0  0  0  0  0  0  0  0  0  0  0
   22.1816  -17.9932  -16.8471 N   0  0  0  0  0  0  0  0  0  0  0  0
   20.8784  -17.9767  -16.1969 C   0  0  1  0  0  0  0  0  0  0  0  0
   21.0647  -17.3511  -14.8562 C   0  0  0  0  0  0  0  0  0  0  0  0
   19.8176  -17.1487  -14.1137 C   0  0  0  0  0  0  0  0  0  0  0  0
   18.5732  -17.5617  -14.5576 C   0  0  0  0  0  0  0  0  0  0  0  0
   17.6890  -17.1988  -13.6131 N   0  0  0  0  0  0  0  0  0  0  0  0
   18.3435  -16.5812  -12.6110 C   0  0  0  0  0  0  0  0  0  0  0  0
   19.6482  -16.5478  -12.9126 N   0  0  0  0  0  0  0  0  0  0  0  0
   19.8423  -17.3777  -17.0361 C   0  0  0  0  0  0  0  0  0  0  0  0
   20.1536  -16.6871  -18.0168 O   0  0  0  0  0  0  0  0  0  0  0  0
   18.5016  -17.5757  -16.7444 O   0  0  0  0  0  0  0  0  0  0  0  0
  2  1  1  0
  3  2  2  0
  4  2  1  0
  5  4  1  0
  6  8  1  0
  6  5  1  0
  6  7  1  1
  8  9  2  0
 11 10  1  6
 12 11  1  0
 12  8  1  0
 13 15  1  0
 13 11  1  0
 14 13  2  0
 16 17  1  1
 16 15  1  0
 17 18  1  0
 18 22  1  0
 19 20  1  0
 19 18  2  0
 20 21  1  0
 21 22  2  0
 23 16  1  0
 23 25  1  0
 24 23  2  0
M  END
$$$$
