QAH.pdb
     RDKit          3D

 25 25  0  0  1  0  0  0  0  0999 V2000
   17.5753  -15.4314  -16.1599 N   0  0  0  0  0  0  0  0  0  0  0  0
   16.1928  -15.3113  -15.9603 C   0  0  0  0  0  0  0  0  0  0  0  0
   15.5464  -16.2685  -15.4959 O   0  0  0  0  0  0  0  0  0  0  0  0
   15.5124  -14.0515  -16.3018 C   0  0  0  0  0  0  0  0  0  0  0  0
   16.5425  -12.9751  -16.4968 C   0  0  0  0  0  0  0  0  0  0  0  0
   16.7692  -12.1642  -15.2382 C   0  0  2  0  0  0  0  0  0  0  0  0
   15.5299  -11.7179  -14.6765 N   0  0  0  0  0  0  0  0  0  0  0  0
   17.6395  -11.0006  -15.6373 C   0  0  0  0  0  0  0  0  0  0  0  0
   18.7459  -11.2054  -16.1993 O   0  0  0  0  0  0  0  0  0  0  0  0
   17.4389   -7.2922  -15.3680 C   0  0  0  0  0  0  0  0  0  0  0  0
   18.0946   -8.5920  -15.7686 C   0  0  2  0  0  0  0  0  0  0  0  0
   17.2288   -9.6608  -15.3876 N   0  0  0  0  0  0  0  0  0  0  0  0
   19.4661   -8.7217  -15.2279 C   0  0  0  0  0  0  0  0  0  0  0  0
   19.6136   -9.0962  -14.0368 O   0  0  0  0  0  0  0  0  0  0  0  0
   20.6161   -8.4397  -16.0027 N   0  0  0  0  0  0  0  0  0  0  0  0
   21.9763   -8.6092  -15.5100 C   0  0  1  0  0  0  0  0  0  0  0  0
   22.6167   -9.6663  -16.3442 C   0  0  0  0  0  0  0  0  0  0  0  0
   24.0360   -9.8808  -16.0493 C   0  0  0  0  0  0  0  0  0  0  0  0
   24.7121   -9.2771  -15.0031 C   0  0  0  0  0  0  0  0  0  0  0  0
   25.9805   -9.7168  -15.0614 N   0  0  0  0  0  0  0  0  0  0  0  0
   26.1057  -10.5643  -16.1007 C   0  0  0  0  0  0  0  0  0  0  0  0
   24.9171  -10.6684  -16.7095 N   0  0  0  0  0  0  0  0  0  0  0  0
   22.7023   -7.3434  -15.4257 C   0  0  0  0  0  0  0  0  0  0  0  0
   22.4326   -6.4149  -16.2009 O   0  0  0  0  0  0  0  0  0  0  0  0
   23.6991   -7.1679  -14.4785 O   0  0  0  0  0  0  0  0  0  0  0  0
  2  1  1  0
  3  2  2  0
  4  2  1  0
  5  4  1  0
  6  8  1  0
  6  5  1  0
  6  7  1  6
  8  9  2  0
 11 10  1  1
 12 11  1  0
 12  8  1  0
 13 15  1  0
 13 11  1  0
 14 13  2  0
 16 17  1  6
 16 15  1  0
 17 18  1  0
 18 22  1  0
 19 20  1  0
 19 18  2  0
 20 21  1  0
 21 22  2  0
 23 16  1  0
 23 25  1  0
 24 23  2  0
M  END
$$$$
