QAH.pdb
     RDKit          3D

 25 25  0  0  1  0  0  0  0  0999 V2000
   21.6638  -11.3410  -21.5421 N   0  0  0  0  0  0  0  0  0  0  0  0
   22.1341  -12.5474  -21.0044 C   0  0  0  0  0  0  0  0  0  0  0  0
   22.7743  -13.3393  -21.7203 O   0  0  0  0  0  0  0  0  0  0  0  0
   21.8674  -12.8710  -19.5934 C   0  0  0  0  0  0  0  0  0  0  0  0
   21.0059  -11.7936  -18.9975 C   0  0  0  0  0  0  0  0  0  0  0  0
   21.7261  -11.0174  -17.9149 C   0  0  2  0  0  0  0  0  0  0  0  0
   22.2324  -11.8898  -16.8985 N   0  0  0  0  0  0  0  0  0  0  0  0
   20.7202  -10.0469  -17.3519 C   0  0  0  0  0  0  0  0  0  0  0  0
   20.1957   -9.1803  -18.0973 O   0  0  0  0  0  0  0  0  0  0  0  0
   19.0755   -9.5041  -14.0586 C   0  0  0  0  0  0  0  0  0  0  0  0
   19.4035   -9.1433  -15.4876 C   0  0  2  0  0  0  0  0  0  0  0  0
   20.3490  -10.0932  -15.9785 N   0  0  0  0  0  0  0  0  0  0  0  0
   19.8507   -7.7393  -15.6262 C   0  0  0  0  0  0  0  0  0  0  0  0
   21.0726   -7.4775  -15.4878 O   0  0  0  0  0  0  0  0  0  0  0  0
   18.9533   -6.6824  -15.9086 N   0  0  0  0  0  0  0  0  0  0  0  0
   19.3538   -5.2831  -15.9619 C   0  0  1  0  0  0  0  0  0  0  0  0
   19.4811   -4.9176  -17.4020 C   0  0  0  0  0  0  0  0  0  0  0  0
   20.7564   -5.3116  -18.0070 C   0  0  0  0  0  0  0  0  0  0  0  0
   21.7939   -5.9098  -17.3128 C   0  0  0  0  0  0  0  0  0  0  0  0
   22.7817   -6.1146  -18.2004 N   0  0  0  0  0  0  0  0  0  0  0  0
   22.3890   -5.6655  -19.4080 C   0  0  0  0  0  0  0  0  0  0  0  0
   21.1487   -5.1724  -19.2951 N   0  0  0  0  0  0  0  0  0  0  0  0
   18.4827   -4.4213  -15.1651 C   0  0  0  0  0  0  0  0  0  0  0  0
   17.4308   -4.8675  -14.6854 O   0  0  0  0  0  0  0  0  0  0  0  0
   18.8236   -3.0970  -14.9374 O   0  0  0  0  0  0  0  0  0  0  0  0
  2  1  1  0
  3  2  2  0
  4  2  1  0
  5  4  1  0
  6  8  1  0
  6  5  1  0
  6  7  1  1
  8  9  2  0
 11 10  1  1
 12 11  1  0
 12  8  1  0
 13 15  1  0
 13 11  1  0
 14 13  2  0
 16 17  1  6
 16 15  1  0
 17 18  1  0
 18 22  1  0
 19 20  1  0
 19 18  2  0
 20 21  1  0
 21 22  2  0
 23 16  1  0
 23 25  1  0
 24 23  2  0
M  END
$$$$
