QAH.pdb
     RDKit          3D

 25 25  0  0  1  0  0  0  0  0999 V2000
   43.1065   -9.8037   -2.3697 N   0  0  0  0  0  0  0  0  0  0  0  0
   44.4546   -9.5362   -2.0924 C   0  0  0  0  0  0  0  0  0  0  0  0
   44.8848   -9.6514   -0.9300 O   0  0  0  0  0  0  0  0  0  0  0  0
   45.3550   -9.1198   -3.1798 C   0  0  0  0  0  0  0  0  0  0  0  0
   44.5784   -9.0631   -4.4650 C   0  0  0  0  0  0  0  0  0  0  0  0
   44.6445  -10.3669   -5.2323 C   0  0  2  0  0  0  0  0  0  0  0  0
   45.9631  -10.6079   -5.7360 N   0  0  0  0  0  0  0  0  0  0  0  0
   43.6440  -10.2479   -6.3528 C   0  0  0  0  0  0  0  0  0  0  0  0
   43.9428   -9.6176   -7.3994 O   0  0  0  0  0  0  0  0  0  0  0  0
   40.2110  -11.4661   -7.0663 C   0  0  0  0  0  0  0  0  0  0  0  0
   41.3532  -10.4878   -7.2015 C   0  0  2  0  0  0  0  0  0  0  0  0
   42.3545  -10.8413   -6.2477 N   0  0  0  0  0  0  0  0  0  0  0  0
   40.9062   -9.0810   -7.0944 C   0  0  0  0  0  0  0  0  0  0  0  0
   40.7578   -8.5790   -5.9514 O   0  0  0  0  0  0  0  0  0  0  0  0
   40.6403   -8.2817   -8.2313 N   0  0  0  0  0  0  0  0  0  0  0  0
   40.2273   -6.8872   -8.1522 C   0  0  1  0  0  0  0  0  0  0  0  0
   41.2487   -6.1728   -7.3336 C   0  0  0  0  0  0  0  0  0  0  0  0
   40.9961   -4.7370   -7.1847 C   0  0  0  0  0  0  0  0  0  0  0  0
   41.0208   -3.8310   -8.2310 C   0  0  0  0  0  0  0  0  0  0  0  0
   40.7459   -2.6267   -7.7023 N   0  0  0  0  0  0  0  0  0  0  0  0
   40.5545   -2.7611   -6.3759 C   0  0  0  0  0  0  0  0  0  0  0  0
   40.7067   -4.0523   -6.0534 N   0  0  0  0  0  0  0  0  0  0  0  0
   39.9532   -6.3097   -9.4667 C   0  0  0  0  0  0  0  0  0  0  0  0
   40.3112   -6.8997  -10.4960 O   0  0  0  0  0  0  0  0  0  0  0  0
   39.2902   -5.0972   -9.5761 O   0  0  0  0  0  0  0  0  0  0  0  0
  2  1  1  0
  3  2  2  0
  4  2  1  0
  5  4  1  0
  6  8  1  0
  6  5  1  0
  6  7  1  6
  8  9  2  0
 11 10  1  1
 12 11  1  0
 12  8  1  0
 13 15  1  0
 13 11  1  0
 14 13  2  0
 16 17  1  6
 16 15  1  0
 17 18  1  0
 18 22  1  0
 19 20  1  0
 19 18  2  0
 20 21  1  0
 21 22  2  0
 23 16  1  0
 23 25  1  0
 24 23  2  0
M  END
$$$$
