EQF.pdb
     RDKit          3D

 30 30  0  0  1  0  0  0  0  0999 V2000
   14.6507   -8.5006   -7.8472 N   0  0  0  0  0  0  0  0  0  0  0  0
   14.9785   -7.4812   -8.8118 C   0  0  1  0  0  0  0  0  0  0  0  0
   15.2615   -6.1412   -8.2112 C   0  0  0  0  0  0  0  0  0  0  0  0
   14.0551   -5.3882   -7.7705 C   0  0  0  0  0  0  0  0  0  0  0  0
   13.3519   -4.8449   -8.9542 C   0  0  0  0  0  0  0  0  0  0  0  0
   13.9548   -4.8187  -10.0532 O   0  0  0  0  0  0  0  0  0  0  0  0
   16.0859   -7.9917   -9.6492 C   0  0  0  0  0  0  0  0  0  0  0  0
   17.1714   -8.2707   -9.0839 O   0  0  0  0  0  0  0  0  0  0  0  0
   12.0601   -4.3617   -8.9170 O   0  0  0  0  0  0  0  0  0  0  0  0
   16.4088  -11.7401  -14.5714 N   0  0  0  0  0  0  0  0  0  0  0  0
   17.7391  -11.2918  -14.4498 C   0  0  0  0  0  0  0  0  0  0  0  0
   18.6991  -11.7701  -15.0977 O   0  0  0  0  0  0  0  0  0  0  0  0
   18.0254  -10.1834  -13.4953 C   0  0  0  0  0  0  0  0  0  0  0  0
   16.7942   -9.8079  -12.7066 C   0  0  0  0  0  0  0  0  0  0  0  0
   17.1462   -8.6616  -11.7891 C   0  0  2  0  0  0  0  0  0  0  0  0
   16.0013   -8.1876  -11.0558 N   0  0  0  0  0  0  0  0  0  0  0  0
   17.7612   -7.5943  -12.6238 C   0  0  0  0  0  0  0  0  0  0  0  0
   16.9831   -6.9320  -13.3428 O   0  0  0  0  0  0  0  0  0  0  0  0
   19.1414   -7.3646  -12.5870 N   0  0  0  0  0  0  0  0  0  0  0  0
   19.8423   -6.4438  -13.4156 C   0  0  1  0  0  0  0  0  0  0  0  0
   21.1439   -6.0083  -12.7882 C   0  0  0  0  0  0  0  0  0  0  0  0
   21.8246   -5.0051  -13.6421 C   0  0  0  0  0  0  0  0  0  0  0  0
   21.3718   -3.7047  -13.6286 C   0  0  0  0  0  0  0  0  0  0  0  0
   22.0506   -2.8111  -14.4494 C   0  0  0  0  0  0  0  0  0  0  0  0
   23.1121   -3.1789  -15.2358 C   0  0  0  0  0  0  0  0  0  0  0  0
   23.5387   -4.4808  -15.2269 C   0  0  0  0  0  0  0  0  0  0  0  0
   22.8888   -5.3768  -14.4298 C   0  0  0  0  0  0  0  0  0  0  0  0
   20.1033   -6.9490  -14.8083 C   0  0  0  0  0  0  0  0  0  0  0  0
   19.7308   -6.1157  -15.8762 O   0  0  0  0  0  0  0  0  0  0  0  0
   20.6120   -8.0230  -15.0889 O   0  0  0  0  0  0  0  0  0  0  0  0
  2  1  1  1
  2  3  1  0
  3  4  1  0
  5  4  1  0
  5  6  2  0
  7  2  1  0
  7  8  2  0
  9  5  1  0
 10 11  1  0
 11 12  2  0
 11 13  1  0
 13 14  1  0
 15 14  1  6
 15 16  1  0
 16  7  1  0
 17 15  1  0
 18 17  2  0
 19 17  1  0
 20 28  1  0
 20 19  1  0
 21 22  1  0
 20 21  1  1
 22 23  2  0
 23 24  1  0
 25 24  2  0
 26 25  1  0
 27 22  1  0
 27 26  2  0
 28 29  1  0
 30 28  2  0
M  END
$$$$
