EQF.pdb
     RDKit          3D

 30 30  0  0  1  0  0  0  0  0999 V2000
   23.9386  -19.4797  -17.5724 N   0  0  0  0  0  0  0  0  0  0  0  0
   24.8835  -19.0920  -16.5556 C   0  0  1  0  0  0  0  0  0  0  0  0
   25.1353  -17.6196  -16.4861 C   0  0  0  0  0  0  0  0  0  0  0  0
   25.9359  -17.0701  -17.6148 C   0  0  0  0  0  0  0  0  0  0  0  0
   27.3702  -17.3575  -17.3893 C   0  0  0  0  0  0  0  0  0  0  0  0
   27.9398  -16.8393  -16.3998 O   0  0  0  0  0  0  0  0  0  0  0  0
   24.4266  -19.6677  -15.2719 C   0  0  0  0  0  0  0  0  0  0  0  0
   23.2114  -19.5586  -14.9768 O   0  0  0  0  0  0  0  0  0  0  0  0
   28.1225  -18.1699  -18.2125 O   0  0  0  0  0  0  0  0  0  0  0  0
   23.4958  -24.8866  -13.9921 N   0  0  0  0  0  0  0  0  0  0  0  0
   24.6160  -24.4039  -14.6976 C   0  0  0  0  0  0  0  0  0  0  0  0
   25.2599  -25.0806  -15.5327 O   0  0  0  0  0  0  0  0  0  0  0  0
   25.0645  -23.0064  -14.4380 C   0  0  0  0  0  0  0  0  0  0  0  0
   24.1638  -22.3182  -13.4410 C   0  0  0  0  0  0  0  0  0  0  0  0
   24.7209  -20.9424  -13.1645 C   0  0  2  0  0  0  0  0  0  0  0  0
   25.2756  -20.3381  -14.3478 N   0  0  0  0  0  0  0  0  0  0  0  0
   25.7276  -21.0785  -12.0773 C   0  0  0  0  0  0  0  0  0  0  0  0
   26.9075  -20.7921  -12.3720 O   0  0  0  0  0  0  0  0  0  0  0  0
   25.3468  -21.5068  -10.8003 N   0  0  0  0  0  0  0  0  0  0  0  0
   26.0875  -21.2844   -9.6056 C   0  0  1  0  0  0  0  0  0  0  0  0
   26.7110  -19.9103   -9.5839 C   0  0  0  0  0  0  0  0  0  0  0  0
   27.4991  -19.7145   -8.3430 C   0  0  0  0  0  0  0  0  0  0  0  0
   27.0901  -18.7583   -7.4404 C   0  0  0  0  0  0  0  0  0  0  0  0
   27.8691  -18.6224   -6.2970 C   0  0  0  0  0  0  0  0  0  0  0  0
   28.9843  -19.3841   -6.0589 C   0  0  0  0  0  0  0  0  0  0  0  0
   29.3651  -20.3273   -6.9768 C   0  0  0  0  0  0  0  0  0  0  0  0
   28.6170  -20.4799   -8.1070 C   0  0  0  0  0  0  0  0  0  0  0  0
   25.2937  -21.4928   -8.3449 C   0  0  0  0  0  0  0  0  0  0  0  0
   23.9852  -20.9823   -8.3157 O   0  0  0  0  0  0  0  0  0  0  0  0
   25.6911  -22.0686   -7.3442 O   0  0  0  0  0  0  0  0  0  0  0  0
  2  1  1  6
  2  3  1  0
  3  4  1  0
  5  4  1  0
  5  6  2  0
  7  2  1  0
  7  8  2  0
  9  5  1  0
 10 11  1  0
 11 12  2  0
 11 13  1  0
 13 14  1  0
 15 14  1  6
 15 16  1  0
 16  7  1  0
 17 15  1  0
 18 17  2  0
 19 17  1  0
 20 28  1  0
 20 19  1  0
 21 22  1  0
 20 21  1  6
 22 23  2  0
 23 24  1  0
 25 24  2  0
 26 25  1  0
 27 22  1  0
 27 26  2  0
 28 29  1  0
 30 28  2  0
M  END
$$$$
