EQF.pdb
     RDKit          3D

 30 30  0  0  1  0  0  0  0  0999 V2000
   26.5852  -20.5608  -15.4524 N   0  0  0  0  0  0  0  0  0  0  0  0
   26.8300  -19.3576  -14.6977 C   0  0  1  0  0  0  0  0  0  0  0  0
   26.4688  -18.0996  -15.4210 C   0  0  0  0  0  0  0  0  0  0  0  0
   26.9053  -18.0510  -16.8436 C   0  0  0  0  0  0  0  0  0  0  0  0
   28.3540  -17.7543  -16.9062 C   0  0  0  0  0  0  0  0  0  0  0  0
   29.1680  -18.7011  -16.7916 O   0  0  0  0  0  0  0  0  0  0  0  0
   26.1484  -19.4972  -13.3923 C   0  0  0  0  0  0  0  0  0  0  0  0
   25.9116  -18.4532  -12.7369 O   0  0  0  0  0  0  0  0  0  0  0  0
   28.8642  -16.4850  -17.0849 O   0  0  0  0  0  0  0  0  0  0  0  0
   21.2130  -20.9323  -10.9653 N   0  0  0  0  0  0  0  0  0  0  0  0
   21.8716  -20.5601  -12.1541 C   0  0  0  0  0  0  0  0  0  0  0  0
   21.5842  -19.5391  -12.8212 O   0  0  0  0  0  0  0  0  0  0  0  0
   22.9758  -21.4295  -12.6506 C   0  0  0  0  0  0  0  0  0  0  0  0
   23.9408  -21.7759  -11.5426 C   0  0  0  0  0  0  0  0  0  0  0  0
   25.0671  -20.7705  -11.5588 C   0  0  2  0  0  0  0  0  0  0  0  0
   25.7432  -20.7395  -12.8296 N   0  0  0  0  0  0  0  0  0  0  0  0
   25.9869  -21.1123  -10.4402 C   0  0  0  0  0  0  0  0  0  0  0  0
   26.6387  -22.1715  -10.5592 O   0  0  0  0  0  0  0  0  0  0  0  0
   26.0976  -20.2742   -9.3246 N   0  0  0  0  0  0  0  0  0  0  0  0
   26.8570  -20.5606   -8.1554 C   0  0  1  0  0  0  0  0  0  0  0  0
   27.8461  -19.4626   -7.8502 C   0  0  0  0  0  0  0  0  0  0  0  0
   28.3958  -19.6211   -6.4820 C   0  0  0  0  0  0  0  0  0  0  0  0
   27.8153  -18.9212   -5.4479 C   0  0  0  0  0  0  0  0  0  0  0  0
   28.3746  -19.1118   -4.1894 C   0  0  0  0  0  0  0  0  0  0  0  0
   29.4421  -19.9428   -3.9653 C   0  0  0  0  0  0  0  0  0  0  0  0
   29.9974  -20.6253   -5.0155 C   0  0  0  0  0  0  0  0  0  0  0  0
   29.4665  -20.4552   -6.2604 C   0  0  0  0  0  0  0  0  0  0  0  0
   26.0219  -20.8344   -6.9345 C   0  0  0  0  0  0  0  0  0  0  0  0
   26.5572  -21.7038   -5.9695 O   0  0  0  0  0  0  0  0  0  0  0  0
   24.9173  -20.3642   -6.7114 O   0  0  0  0  0  0  0  0  0  0  0  0
  2  1  1  6
  2  3  1  0
  3  4  1  0
  5  4  1  0
  5  6  2  0
  7  2  1  0
  7  8  2  0
  9  5  1  0
 10 11  1  0
 11 12  2  0
 11 13  1  0
 13 14  1  0
 15 14  1  6
 15 16  1  0
 16  7  1  0
 17 15  1  0
 18 17  2  0
 19 17  1  0
 20 28  1  0
 20 19  1  0
 21 22  1  0
 20 21  1  1
 22 23  2  0
 23 24  1  0
 25 24  2  0
 26 25  1  0
 27 22  1  0
 27 26  2  0
 28 29  1  0
 30 28  2  0
M  END
$$$$
