EQF.pdb
     RDKit          3D

 30 30  0  0  1  0  0  0  0  0999 V2000
   20.4683  -11.4572  -18.2849 N   0  0  0  0  0  0  0  0  0  0  0  0
   19.7267  -10.7762  -17.2536 C   0  0  1  0  0  0  0  0  0  0  0  0
   19.9307  -11.3383  -15.8830 C   0  0  0  0  0  0  0  0  0  0  0  0
   19.3161  -12.6759  -15.6599 C   0  0  0  0  0  0  0  0  0  0  0  0
   17.9027  -12.5088  -15.2536 C   0  0  0  0  0  0  0  0  0  0  0  0
   17.5790  -11.4840  -14.6078 O   0  0  0  0  0  0  0  0  0  0  0  0
   20.0441   -9.3344  -17.3469 C   0  0  0  0  0  0  0  0  0  0  0  0
   21.1963   -9.0081  -17.7232 O   0  0  0  0  0  0  0  0  0  0  0  0
   16.9128  -13.4239  -15.5473 O   0  0  0  0  0  0  0  0  0  0  0  0
   15.9611   -6.4855  -18.8950 N   0  0  0  0  0  0  0  0  0  0  0  0
   16.9703   -6.8685  -19.8008 C   0  0  0  0  0  0  0  0  0  0  0  0
   16.7445   -7.3213  -20.9471 O   0  0  0  0  0  0  0  0  0  0  0  0
   18.3915   -6.7283  -19.3739 C   0  0  0  0  0  0  0  0  0  0  0  0
   18.4917   -6.1312  -17.9910 C   0  0  0  0  0  0  0  0  0  0  0  0
   19.5158   -6.9150  -17.2057 C   0  0  2  0  0  0  0  0  0  0  0  0
   19.1275   -8.2912  -17.0374 N   0  0  0  0  0  0  0  0  0  0  0  0
   19.7069   -6.2209  -15.9035 C   0  0  0  0  0  0  0  0  0  0  0  0
   18.8688   -6.4707  -15.0112 O   0  0  0  0  0  0  0  0  0  0  0  0
   20.7774   -5.3393  -15.7140 N   0  0  0  0  0  0  0  0  0  0  0  0
   21.0968   -4.6877  -14.4897 C   0  0  1  0  0  0  0  0  0  0  0  0
   22.4573   -5.0954  -13.9796 C   0  0  0  0  0  0  0  0  0  0  0  0
   22.5318   -6.5669  -13.8111 C   0  0  0  0  0  0  0  0  0  0  0  0
   23.2176   -7.3085  -14.7471 C   0  0  0  0  0  0  0  0  0  0  0  0
   23.2524   -8.6820  -14.5343 C   0  0  0  0  0  0  0  0  0  0  0  0
   22.6472   -9.2867  -13.4626 C   0  0  0  0  0  0  0  0  0  0  0  0
   21.9724   -8.5207  -12.5488 C   0  0  0  0  0  0  0  0  0  0  0  0
   21.9238   -7.1705  -12.7355 C   0  0  0  0  0  0  0  0  0  0  0  0
   21.0169   -3.1870  -14.5555 C   0  0  0  0  0  0  0  0  0  0  0  0
   21.1436   -2.4815  -13.3473 O   0  0  0  0  0  0  0  0  0  0  0  0
   20.8511   -2.5299  -15.5713 O   0  0  0  0  0  0  0  0  0  0  0  0
  2  1  1  6
  2  3  1  0
  3  4  1  0
  5  4  1  0
  5  6  2  0
  7  2  1  0
  7  8  2  0
  9  5  1  0
 10 11  1  0
 11 12  2  0
 11 13  1  0
 13 14  1  0
 15 14  1  6
 15 16  1  0
 16  7  1  0
 17 15  1  0
 18 17  2  0
 19 17  1  0
 20 28  1  0
 20 19  1  0
 21 22  1  0
 20 21  1  6
 22 23  2  0
 23 24  1  0
 25 24  2  0
 26 25  1  0
 27 22  1  0
 27 26  2  0
 28 29  1  0
 30 28  2  0
M  END
$$$$
