EQF.pdb
     RDKit          3D

 30 30  0  0  1  0  0  0  0  0999 V2000
   22.2154  -21.4904  -14.5102 N   0  0  0  0  0  0  0  0  0  0  0  0
   22.2757  -20.7975  -13.2478 C   0  0  1  0  0  0  0  0  0  0  0  0
   21.0659  -20.9870  -12.3894 C   0  0  0  0  0  0  0  0  0  0  0  0
   20.0351  -19.9207  -12.5207 C   0  0  0  0  0  0  0  0  0  0  0  0
   19.2184  -20.1691  -13.7298 C   0  0  0  0  0  0  0  0  0  0  0  0
   18.9714  -21.3542  -14.0566 O   0  0  0  0  0  0  0  0  0  0  0  0
   23.5348  -21.1895  -12.5776 C   0  0  0  0  0  0  0  0  0  0  0  0
   23.7190  -22.4074  -12.3362 O   0  0  0  0  0  0  0  0  0  0  0  0
   18.7090  -19.1629  -14.5245 O   0  0  0  0  0  0  0  0  0  0  0  0
   29.4470  -21.1674  -12.6832 N   0  0  0  0  0  0  0  0  0  0  0  0
   28.4771  -21.2856  -13.6984 C   0  0  0  0  0  0  0  0  0  0  0  0
   28.6840  -21.8460  -14.7998 O   0  0  0  0  0  0  0  0  0  0  0  0
   27.1239  -20.7116  -13.4515 C   0  0  0  0  0  0  0  0  0  0  0  0
   26.9920  -20.2099  -12.0338 C   0  0  0  0  0  0  0  0  0  0  0  0
   25.7019  -20.7418  -11.4572 C   0  0  2  0  0  0  0  0  0  0  0  0
   24.5525  -20.2749  -12.1879 N   0  0  0  0  0  0  0  0  0  0  0  0
   25.6566  -20.3456  -10.0237 C   0  0  0  0  0  0  0  0  0  0  0  0
   24.8550  -19.4358   -9.7227 O   0  0  0  0  0  0  0  0  0  0  0  0
   26.4791  -20.9748   -9.0820 N   0  0  0  0  0  0  0  0  0  0  0  0
   26.8245  -20.4421   -7.8083 C   0  0  1  0  0  0  0  0  0  0  0  0
   27.5910  -21.4404   -6.9758 C   0  0  0  0  0  0  0  0  0  0  0  0
   28.1402  -20.7932   -5.7597 C   0  0  0  0  0  0  0  0  0  0  0  0
   29.0992  -19.8156   -5.9033 C   0  0  0  0  0  0  0  0  0  0  0  0
   29.5746  -19.2465   -4.7272 C   0  0  0  0  0  0  0  0  0  0  0  0
   29.1301  -19.6197   -3.4848 C   0  0  0  0  0  0  0  0  0  0  0  0
   28.1749  -20.5958   -3.3756 C   0  0  0  0  0  0  0  0  0  0  0  0
   27.6926  -21.1697   -4.5151 C   0  0  0  0  0  0  0  0  0  0  0  0
   27.5929  -19.1504   -7.8724 C   0  0  0  0  0  0  0  0  0  0  0  0
   27.1558  -18.0993   -7.0493 O   0  0  0  0  0  0  0  0  0  0  0  0
   28.5650  -18.9385   -8.5803 O   0  0  0  0  0  0  0  0  0  0  0  0
  2  1  1  6
  2  3  1  0
  3  4  1  0
  5  4  1  0
  5  6  2  0
  7  2  1  0
  7  8  2  0
  9  5  1  0
 10 11  1  0
 11 12  2  0
 11 13  1  0
 13 14  1  0
 15 14  1  6
 15 16  1  0
 16  7  1  0
 17 15  1  0
 18 17  2  0
 19 17  1  0
 20 28  1  0
 20 19  1  0
 21 22  1  0
 20 21  1  6
 22 23  2  0
 23 24  1  0
 25 24  2  0
 26 25  1  0
 27 22  1  0
 27 26  2  0
 28 29  1  0
 30 28  2  0
M  END
$$$$
