EQF.pdb
     RDKit          3D

 30 30  0  0  1  0  0  0  0  0999 V2000
   15.2995  -11.6248    3.8582 N   0  0  0  0  0  0  0  0  0  0  0  0
   15.4055  -12.1297    5.2040 C   0  0  1  0  0  0  0  0  0  0  0  0
   14.2296  -12.9413    5.6455 C   0  0  0  0  0  0  0  0  0  0  0  0
   12.9455  -12.1911    5.7162 C   0  0  0  0  0  0  0  0  0  0  0  0
   12.8484  -11.4995    7.0212 C   0  0  0  0  0  0  0  0  0  0  0  0
   13.7068  -11.7492    7.9003 O   0  0  0  0  0  0  0  0  0  0  0  0
   16.6902  -12.8547    5.3141 C   0  0  0  0  0  0  0  0  0  0  0  0
   16.9874  -13.6675    4.4050 O   0  0  0  0  0  0  0  0  0  0  0  0
   11.8590  -10.5882    7.3282 O   0  0  0  0  0  0  0  0  0  0  0  0
   21.7958  -11.5165    8.7383 N   0  0  0  0  0  0  0  0  0  0  0  0
   21.3537  -10.8266    7.5919 C   0  0  0  0  0  0  0  0  0  0  0  0
   21.8163   -9.7234    7.2192 O   0  0  0  0  0  0  0  0  0  0  0  0
   20.2722  -11.4422    6.7716 C   0  0  0  0  0  0  0  0  0  0  0  0
   19.8706  -12.7910    7.3179 C   0  0  0  0  0  0  0  0  0  0  0  0
   18.8622  -13.4060    6.3773 C   0  0  2  0  0  0  0  0  0  0  0  0
   17.6126  -12.6909    6.3848 N   0  0  0  0  0  0  0  0  0  0  0  0
   18.6970  -14.8318    6.7697 C   0  0  0  0  0  0  0  0  0  0  0  0
   17.8312  -15.0737    7.6373 O   0  0  0  0  0  0  0  0  0  0  0  0
   19.4829  -15.8302    6.1826 N   0  0  0  0  0  0  0  0  0  0  0  0
   19.3706  -17.2242    6.4468 C   0  0  1  0  0  0  0  0  0  0  0  0
   18.9010  -17.9858    5.2316 C   0  0  0  0  0  0  0  0  0  0  0  0
   19.6756  -17.5840    4.0326 C   0  0  0  0  0  0  0  0  0  0  0  0
   19.0590  -16.8155    3.0705 C   0  0  0  0  0  0  0  0  0  0  0  0
   19.8368  -16.4707    1.9708 C   0  0  0  0  0  0  0  0  0  0  0  0
   21.1439  -16.8607    1.8295 C   0  0  0  0  0  0  0  0  0  0  0  0
   21.7286  -17.6251    2.8047 C   0  0  0  0  0  0  0  0  0  0  0  0
   20.9862  -17.9766    3.8936 C   0  0  0  0  0  0  0  0  0  0  0  0
   20.6326  -17.8516    6.9729 C   0  0  0  0  0  0  0  0  0  0  0  0
   20.5465  -19.1707    7.4484 O   0  0  0  0  0  0  0  0  0  0  0  0
   21.7262  -17.3105    7.0214 O   0  0  0  0  0  0  0  0  0  0  0  0
  2  1  1  6
  2  3  1  0
  3  4  1  0
  5  4  1  0
  5  6  2  0
  7  2  1  0
  7  8  2  0
  9  5  1  0
 10 11  1  0
 11 12  2  0
 11 13  1  0
 13 14  1  0
 15 14  1  1
 15 16  1  0
 16  7  1  0
 17 15  1  0
 18 17  2  0
 19 17  1  0
 20 28  1  0
 20 19  1  0
 21 22  1  0
 20 21  1  6
 22 23  2  0
 23 24  1  0
 25 24  2  0
 26 25  1  0
 27 22  1  0
 27 26  2  0
 28 29  1  0
 30 28  2  0
M  END
$$$$
