EQF.pdb
     RDKit          3D

 30 30  0  0  1  0  0  0  0  0999 V2000
   32.3489  -30.4225  -19.1737 N   0  0  0  0  0  0  0  0  0  0  0  0
   31.2991  -29.6682  -18.5364 C   0  0  1  0  0  0  0  0  0  0  0  0
   31.0512  -28.3279  -19.1514 C   0  0  0  0  0  0  0  0  0  0  0  0
   31.1693  -28.2912  -20.6352 C   0  0  0  0  0  0  0  0  0  0  0  0
   32.4112  -27.5810  -21.0146 C   0  0  0  0  0  0  0  0  0  0  0  0
   32.6591  -27.4099  -22.2318 O   0  0  0  0  0  0  0  0  0  0  0  0
   30.0926  -30.5228  -18.4919 C   0  0  0  0  0  0  0  0  0  0  0  0
   28.9836  -29.9893  -18.7393 O   0  0  0  0  0  0  0  0  0  0  0  0
   33.3192  -27.0922  -20.0980 O   0  0  0  0  0  0  0  0  0  0  0  0
   29.1826  -36.5819  -19.7661 N   0  0  0  0  0  0  0  0  0  0  0  0
   27.8907  -36.1119  -19.4568 C   0  0  0  0  0  0  0  0  0  0  0  0
   26.8489  -36.7957  -19.5883 O   0  0  0  0  0  0  0  0  0  0  0  0
   27.7508  -34.7199  -18.9426 C   0  0  0  0  0  0  0  0  0  0  0  0
   29.0987  -34.0639  -18.7641 C   0  0  0  0  0  0  0  0  0  0  0  0
   28.8838  -32.6716  -18.2208 C   0  0  2  0  0  0  0  0  0  0  0  0
   30.1065  -31.9123  -18.1863 N   0  0  0  0  0  0  0  0  0  0  0  0
   28.2680  -32.8083  -16.8732 C   0  0  0  0  0  0  0  0  0  0  0  0
   28.9891  -33.2990  -15.9787 O   0  0  0  0  0  0  0  0  0  0  0  0
   26.9482  -32.4009  -16.6459 N   0  0  0  0  0  0  0  0  0  0  0  0
   26.3167  -32.3384  -15.3720 C   0  0  1  0  0  0  0  0  0  0  0  0
   25.9073  -30.9289  -15.0214 C   0  0  0  0  0  0  0  0  0  0  0  0
   24.9058  -30.4204  -15.9897 C   0  0  0  0  0  0  0  0  0  0  0  0
   23.5722  -30.4618  -15.6491 C   0  0  0  0  0  0  0  0  0  0  0  0
   22.6823  -29.9706  -16.5977 C   0  0  0  0  0  0  0  0  0  0  0  0
   23.0844  -29.4690  -17.8089 C   0  0  0  0  0  0  0  0  0  0  0  0
   24.4190  -29.4417  -18.1179 C   0  0  0  0  0  0  0  0  0  0  0  0
   25.3121  -29.9181  -17.2036 C   0  0  0  0  0  0  0  0  0  0  0  0
   25.1308  -33.2530  -15.2306 C   0  0  0  0  0  0  0  0  0  0  0  0
   24.7196  -33.9564  -16.3750 O   0  0  0  0  0  0  0  0  0  0  0  0
   24.4950  -33.4356  -14.2043 O   0  0  0  0  0  0  0  0  0  0  0  0
  2  1  1  6
  2  3  1  0
  3  4  1  0
  5  4  1  0
  5  6  2  0
  7  2  1  0
  7  8  2  0
  9  5  1  0
 10 11  1  0
 11 12  2  0
 11 13  1  0
 13 14  1  0
 15 14  1  1
 15 16  1  0
 16  7  1  0
 17 15  1  0
 18 17  2  0
 19 17  1  0
 20 28  1  0
 20 19  1  0
 21 22  1  0
 20 21  1  6
 22 23  2  0
 23 24  1  0
 25 24  2  0
 26 25  1  0
 27 22  1  0
 27 26  2  0
 28 29  1  0
 30 28  2  0
M  END
$$$$
