EQF.pdb
     RDKit          3D

 30 30  0  0  1  0  0  0  0  0999 V2000
   27.1909  -21.3847  -14.9638 N   0  0  0  0  0  0  0  0  0  0  0  0
   27.2659  -20.0133  -14.5268 C   0  0  1  0  0  0  0  0  0  0  0  0
   26.9079  -19.0161  -15.5821 C   0  0  0  0  0  0  0  0  0  0  0  0
   26.7880  -19.5779  -16.9557 C   0  0  0  0  0  0  0  0  0  0  0  0
   27.7004  -18.8524  -17.8678 C   0  0  0  0  0  0  0  0  0  0  0  0
   28.1143  -19.4378  -18.8965 O   0  0  0  0  0  0  0  0  0  0  0  0
   26.4485  -19.8851  -13.3006 C   0  0  0  0  0  0  0  0  0  0  0  0
   26.1862  -18.7298  -12.8858 O   0  0  0  0  0  0  0  0  0  0  0  0
   28.1251  -17.5581  -17.6489 O   0  0  0  0  0  0  0  0  0  0  0  0
   21.8540  -19.8513  -10.7532 N   0  0  0  0  0  0  0  0  0  0  0  0
   22.0051  -20.0908  -12.1335 C   0  0  0  0  0  0  0  0  0  0  0  0
   21.3329  -19.5141  -13.0199 O   0  0  0  0  0  0  0  0  0  0  0  0
   23.0235  -21.0882  -12.5690 C   0  0  0  0  0  0  0  0  0  0  0  0
   23.8611  -21.5599  -11.4049 C   0  0  0  0  0  0  0  0  0  0  0  0
   25.1411  -20.7594  -11.3826 C   0  0  2  0  0  0  0  0  0  0  0  0
   25.9395  -20.9874  -12.5589 N   0  0  0  0  0  0  0  0  0  0  0  0
   25.8670  -21.1127  -10.1327 C   0  0  0  0  0  0  0  0  0  0  0  0
   26.1416  -22.3208   -9.9708 O   0  0  0  0  0  0  0  0  0  0  0  0
   26.2124  -20.1247   -9.2033 N   0  0  0  0  0  0  0  0  0  0  0  0
   26.7960  -20.3662   -7.9279 C   0  0  1  0  0  0  0  0  0  0  0  0
   27.5818  -19.1739   -7.4397 C   0  0  0  0  0  0  0  0  0  0  0  0
   28.1576  -19.4418   -6.0996 C   0  0  0  0  0  0  0  0  0  0  0  0
   27.6746  -18.7411   -5.0171 C   0  0  0  0  0  0  0  0  0  0  0  0
   28.2536  -19.0367   -3.7882 C   0  0  0  0  0  0  0  0  0  0  0  0
   29.2491  -19.9677   -3.6370 C   0  0  0  0  0  0  0  0  0  0  0  0
   29.7081  -20.6482   -4.7340 C   0  0  0  0  0  0  0  0  0  0  0  0
   29.1559  -20.3759   -5.9512 C   0  0  0  0  0  0  0  0  0  0  0  0
   25.8089  -20.7807   -6.8711 C   0  0  0  0  0  0  0  0  0  0  0  0
   24.4950  -20.2987   -6.9922 O   0  0  0  0  0  0  0  0  0  0  0  0
   26.0538  -21.5013   -5.9162 O   0  0  0  0  0  0  0  0  0  0  0  0
  2  1  1  6
  2  3  1  0
  3  4  1  0
  5  4  1  0
  5  6  2  0
  7  2  1  0
  7  8  2  0
  9  5  1  0
 10 11  1  0
 11 12  2  0
 11 13  1  0
 13 14  1  0
 15 14  1  6
 15 16  1  0
 16  7  1  0
 17 15  1  0
 18 17  2  0
 19 17  1  0
 20 28  1  0
 20 19  1  0
 21 22  1  0
 20 21  1  1
 22 23  2  0
 23 24  1  0
 25 24  2  0
 26 25  1  0
 27 22  1  0
 27 26  2  0
 28 29  1  0
 30 28  2  0
M  END
$$$$
