EQF.pdb
     RDKit          3D

 30 30  0  0  1  0  0  0  0  0999 V2000
   28.4243  -19.3643  -15.2099 N   0  0  0  0  0  0  0  0  0  0  0  0
   27.8629  -18.3337  -14.3732 C   0  0  1  0  0  0  0  0  0  0  0  0
   27.0833  -17.2989  -15.1200 C   0  0  0  0  0  0  0  0  0  0  0  0
   26.0695  -17.8435  -16.0647 C   0  0  0  0  0  0  0  0  0  0  0  0
   26.2056  -17.1721  -17.3767 C   0  0  0  0  0  0  0  0  0  0  0  0
   25.8234  -15.9830  -17.4871 O   0  0  0  0  0  0  0  0  0  0  0  0
   27.0824  -18.9951  -13.3049 C   0  0  0  0  0  0  0  0  0  0  0  0
   26.4829  -18.2669  -12.4766 O   0  0  0  0  0  0  0  0  0  0  0  0
   26.7334  -17.7848  -18.4944 O   0  0  0  0  0  0  0  0  0  0  0  0
   24.4988  -24.7345  -13.0992 N   0  0  0  0  0  0  0  0  0  0  0  0
   23.7250  -23.6080  -13.4424 C   0  0  0  0  0  0  0  0  0  0  0  0
   22.5937  -23.6747  -13.9769 O   0  0  0  0  0  0  0  0  0  0  0  0
   24.2814  -22.2557  -13.1541 C   0  0  0  0  0  0  0  0  0  0  0  0
   25.6375  -22.3498  -12.4976 C   0  0  0  0  0  0  0  0  0  0  0  0
   26.0961  -20.9546  -12.1473 C   0  0  2  0  0  0  0  0  0  0  0  0
   26.9665  -20.4051  -13.1540 N   0  0  0  0  0  0  0  0  0  0  0  0
   26.7511  -21.0217  -10.8129 C   0  0  0  0  0  0  0  0  0  0  0  0
   27.8687  -21.5783  -10.7686 O   0  0  0  0  0  0  0  0  0  0  0  0
   26.1266  -20.4819   -9.6824 N   0  0  0  0  0  0  0  0  0  0  0  0
   26.6176  -20.5771   -8.3499 C   0  0  1  0  0  0  0  0  0  0  0  0
   27.4942  -19.4016   -7.9935 C   0  0  0  0  0  0  0  0  0  0  0  0
   27.9827  -19.5193   -6.5982 C   0  0  0  0  0  0  0  0  0  0  0  0
   28.9905  -20.4157   -6.3208 C   0  0  0  0  0  0  0  0  0  0  0  0
   29.4054  -20.4799   -4.9954 C   0  0  0  0  0  0  0  0  0  0  0  0
   28.8589  -19.7060   -4.0041 C   0  0  0  0  0  0  0  0  0  0  0  0
   27.8573  -18.8234   -4.3126 C   0  0  0  0  0  0  0  0  0  0  0  0
   27.4325  -18.7419   -5.6062 C   0  0  0  0  0  0  0  0  0  0  0  0
   25.5415  -20.7313   -7.3102 C   0  0  0  0  0  0  0  0  0  0  0  0
   25.9016  -21.3377   -6.0952 O   0  0  0  0  0  0  0  0  0  0  0  0
   24.3805  -20.3735   -7.4334 O   0  0  0  0  0  0  0  0  0  0  0  0
  2  1  1  6
  2  3  1  0
  3  4  1  0
  5  4  1  0
  5  6  2  0
  7  2  1  0
  7  8  2  0
  9  5  1  0
 10 11  1  0
 11 12  2  0
 11 13  1  0
 13 14  1  0
 15 14  1  6
 15 16  1  0
 16  7  1  0
 17 15  1  0
 18 17  2  0
 19 17  1  0
 20 28  1  0
 20 19  1  0
 21 22  1  0
 20 21  1  1
 22 23  2  0
 23 24  1  0
 25 24  2  0
 26 25  1  0
 27 22  1  0
 27 26  2  0
 28 29  1  0
 30 28  2  0
M  END
$$$$
