EQF.pdb
     RDKit          3D

 30 30  0  0  1  0  0  0  0  0999 V2000
   21.5055  -32.0331   -3.5049 N   0  0  0  0  0  0  0  0  0  0  0  0
   20.2528  -31.7024   -2.8735 C   0  0  1  0  0  0  0  0  0  0  0  0
   19.8494  -32.6468   -1.7865 C   0  0  0  0  0  0  0  0  0  0  0  0
   19.4665  -34.0078   -2.2533 C   0  0  0  0  0  0  0  0  0  0  0  0
   18.0759  -33.9835   -2.7597 C   0  0  0  0  0  0  0  0  0  0  0  0
   17.2809  -33.1323   -2.2956 O   0  0  0  0  0  0  0  0  0  0  0  0
   20.3311  -30.2949   -2.4254 C   0  0  0  0  0  0  0  0  0  0  0  0
   21.3881  -29.9127   -1.8666 O   0  0  0  0  0  0  0  0  0  0  0  0
   17.6006  -34.8512   -3.7213 O   0  0  0  0  0  0  0  0  0  0  0  0
   16.6284  -25.4782   -3.8876 N   0  0  0  0  0  0  0  0  0  0  0  0
   17.5837  -26.1020   -4.7146 C   0  0  0  0  0  0  0  0  0  0  0  0
   17.6246  -25.9658   -5.9595 O   0  0  0  0  0  0  0  0  0  0  0  0
   18.6075  -26.9760   -4.0747 C   0  0  0  0  0  0  0  0  0  0  0  0
   18.3953  -27.0665   -2.5828 C   0  0  0  0  0  0  0  0  0  0  0  0
   19.4100  -28.0289   -2.0138 C   0  0  2  0  0  0  0  0  0  0  0  0
   19.2849  -29.3441   -2.5862 N   0  0  0  0  0  0  0  0  0  0  0  0
   19.2359  -28.0394   -0.5361 C   0  0  0  0  0  0  0  0  0  0  0  0
   19.8549  -28.9251    0.0912 O   0  0  0  0  0  0  0  0  0  0  0  0
   18.4161  -27.0957    0.0936 N   0  0  0  0  0  0  0  0  0  0  0  0
   18.5775  -26.6293    1.4285 C   0  0  1  0  0  0  0  0  0  0  0  0
   19.9239  -25.9791    1.6329 C   0  0  0  0  0  0  0  0  0  0  0  0
   20.1071  -25.5943    3.0533 C   0  0  0  0  0  0  0  0  0  0  0  0
   19.7528  -24.3236    3.4482 C   0  0  0  0  0  0  0  0  0  0  0  0
   19.9476  -24.0230    4.7915 C   0  0  0  0  0  0  0  0  0  0  0  0
   20.4610  -24.9222    5.6906 C   0  0  0  0  0  0  0  0  0  0  0  0
   20.8040  -26.1789    5.2662 C   0  0  0  0  0  0  0  0  0  0  0  0
   20.6223  -26.4982    3.9526 C   0  0  0  0  0  0  0  0  0  0  0  0
   17.4946  -25.6900    1.8844 C   0  0  0  0  0  0  0  0  0  0  0  0
   16.9231  -25.9290    3.1452 O   0  0  0  0  0  0  0  0  0  0  0  0
   17.0702  -24.7366    1.2503 O   0  0  0  0  0  0  0  0  0  0  0  0
  2  1  1  1
  2  3  1  0
  3  4  1  0
  5  4  1  0
  5  6  2  0
  7  2  1  0
  7  8  2  0
  9  5  1  0
 10 11  1  0
 11 12  2  0
 11 13  1  0
 13 14  1  0
 15 14  1  6
 15 16  1  0
 16  7  1  0
 17 15  1  0
 18 17  2  0
 19 17  1  0
 20 28  1  0
 20 19  1  0
 21 22  1  0
 20 21  1  6
 22 23  2  0
 23 24  1  0
 25 24  2  0
 26 25  1  0
 27 22  1  0
 27 26  2  0
 28 29  1  0
 30 28  2  0
M  END
$$$$
