EQF.pdb
     RDKit          3D

 30 30  0  0  1  0  0  0  0  0999 V2000
   27.0128  -20.3562  -14.9241 N   0  0  0  0  0  0  0  0  0  0  0  0
   27.6394  -19.3769  -14.0722 C   0  0  1  0  0  0  0  0  0  0  0  0
   27.7977  -18.0307  -14.7039 C   0  0  0  0  0  0  0  0  0  0  0  0
   27.3724  -17.9568  -16.1288 C   0  0  0  0  0  0  0  0  0  0  0  0
   28.5482  -18.1523  -17.0063 C   0  0  0  0  0  0  0  0  0  0  0  0
   29.5574  -17.4294  -16.8306 O   0  0  0  0  0  0  0  0  0  0  0  0
   26.8881  -19.3399  -12.7986 C   0  0  0  0  0  0  0  0  0  0  0  0
   27.0965  -18.3780  -12.0196 O   0  0  0  0  0  0  0  0  0  0  0  0
   28.5975  -19.0923  -18.0150 O   0  0  0  0  0  0  0  0  0  0  0  0
   21.3848  -21.5521  -12.9813 N   0  0  0  0  0  0  0  0  0  0  0  0
   21.6645  -20.4608  -12.1349 C   0  0  0  0  0  0  0  0  0  0  0  0
   20.8027  -19.8842  -11.4314 O   0  0  0  0  0  0  0  0  0  0  0  0
   23.0667  -19.9599  -12.0697 C   0  0  0  0  0  0  0  0  0  0  0  0
   23.9043  -20.7965  -11.1328 C   0  0  0  0  0  0  0  0  0  0  0  0
   25.3043  -20.2316  -11.1107 C   0  0  2  0  0  0  0  0  0  0  0  0
   25.9431  -20.3251  -12.3977 N   0  0  0  0  0  0  0  0  0  0  0  0
   26.0610  -20.9546  -10.0530 C   0  0  0  0  0  0  0  0  0  0  0  0
   26.5208  -22.0739  -10.3638 O   0  0  0  0  0  0  0  0  0  0  0  0
   26.2341  -20.3885   -8.7847 N   0  0  0  0  0  0  0  0  0  0  0  0
   26.8298  -21.0414   -7.6691 C   0  0  1  0  0  0  0  0  0  0  0  0
   28.2730  -20.6376   -7.4921 C   0  0  0  0  0  0  0  0  0  0  0  0
   28.4616  -19.9268   -6.2044 C   0  0  0  0  0  0  0  0  0  0  0  0
   28.2509  -18.5667   -6.1595 C   0  0  0  0  0  0  0  0  0  0  0  0
   28.4431  -17.9575   -4.9246 C   0  0  0  0  0  0  0  0  0  0  0  0
   28.8204  -18.6490   -3.8021 C   0  0  0  0  0  0  0  0  0  0  0  0
   29.0223  -20.0019   -3.8797 C   0  0  0  0  0  0  0  0  0  0  0  0
   28.8401  -20.6229   -5.0804 C   0  0  0  0  0  0  0  0  0  0  0  0
   26.0916  -20.8379   -6.3743 C   0  0  0  0  0  0  0  0  0  0  0  0
   26.3313  -21.7621   -5.3438 O   0  0  0  0  0  0  0  0  0  0  0  0
   25.3010  -19.9363   -6.1434 O   0  0  0  0  0  0  0  0  0  0  0  0
  2  1  1  6
  2  3  1  0
  3  4  1  0
  5  4  1  0
  5  6  2  0
  7  2  1  0
  7  8  2  0
  9  5  1  0
 10 11  1  0
 11 12  2  0
 11 13  1  0
 13 14  1  0
 15 14  1  6
 15 16  1  0
 16  7  1  0
 17 15  1  0
 18 17  2  0
 19 17  1  0
 20 28  1  0
 20 19  1  0
 21 22  1  0
 20 21  1  1
 22 23  2  0
 23 24  1  0
 25 24  2  0
 26 25  1  0
 27 22  1  0
 27 26  2  0
 28 29  1  0
 30 28  2  0
M  END
$$$$
