EQF.pdb
     RDKit          3D

 30 30  0  0  1  0  0  0  0  0999 V2000
   24.8389  -24.1182  -17.0323 N   0  0  0  0  0  0  0  0  0  0  0  0
   24.6925  -23.4736  -15.7515 C   0  0  1  0  0  0  0  0  0  0  0  0
   25.0364  -22.0183  -15.7580 C   0  0  0  0  0  0  0  0  0  0  0  0
   25.6212  -21.5215  -17.0339 C   0  0  0  0  0  0  0  0  0  0  0  0
   25.9660  -20.0889  -16.8948 C   0  0  0  0  0  0  0  0  0  0  0  0
   26.4131  -19.4774  -17.8939 O   0  0  0  0  0  0  0  0  0  0  0  0
   23.3240  -23.7484  -15.2619 C   0  0  0  0  0  0  0  0  0  0  0  0
   22.3835  -23.7146  -16.0925 O   0  0  0  0  0  0  0  0  0  0  0  0
   25.8223  -19.3819  -15.7188 O   0  0  0  0  0  0  0  0  0  0  0  0
   21.0321  -27.4712  -10.8432 N   0  0  0  0  0  0  0  0  0  0  0  0
   20.8287  -27.7393  -12.2115 C   0  0  0  0  0  0  0  0  0  0  0  0
   20.4639  -28.8516  -12.6583 O   0  0  0  0  0  0  0  0  0  0  0  0
   21.0601  -26.6374  -13.1882 C   0  0  0  0  0  0  0  0  0  0  0  0
   21.5151  -25.3765  -12.4939 C   0  0  0  0  0  0  0  0  0  0  0  0
   21.6348  -24.2803  -13.5252 C   0  0  2  0  0  0  0  0  0  0  0  0
   23.0031  -24.0487  -13.9087 N   0  0  0  0  0  0  0  0  0  0  0  0
   20.9954  -23.0621  -12.9584 C   0  0  0  0  0  0  0  0  0  0  0  0
   21.1596  -22.8648  -11.7357 O   0  0  0  0  0  0  0  0  0  0  0  0
   20.2541  -22.1990  -13.7737 N   0  0  0  0  0  0  0  0  0  0  0  0
   19.7000  -20.9547  -13.3611 C   0  0  1  0  0  0  0  0  0  0  0  0
   20.7264  -19.8489  -13.3946 C   0  0  0  0  0  0  0  0  0  0  0  0
   21.2272  -19.6437  -14.7753 C   0  0  0  0  0  0  0  0  0  0  0  0
   22.5300  -19.9819  -15.0663 C   0  0  0  0  0  0  0  0  0  0  0  0
   22.9405  -19.7668  -16.3771 C   0  0  0  0  0  0  0  0  0  0  0  0
   22.1150  -19.2494  -17.3422 C   0  0  0  0  0  0  0  0  0  0  0  0
   20.8238  -18.9229  -17.0207 C   0  0  0  0  0  0  0  0  0  0  0  0
   20.3971  -19.1246  -15.7410 C   0  0  0  0  0  0  0  0  0  0  0  0
   18.4869  -20.5343  -14.1451 C   0  0  0  0  0  0  0  0  0  0  0  0
   17.7457  -19.4477  -13.6517 O   0  0  0  0  0  0  0  0  0  0  0  0
   18.0919  -21.0584  -15.1748 O   0  0  0  0  0  0  0  0  0  0  0  0
  2  1  1  6
  2  3  1  0
  3  4  1  0
  5  4  1  0
  5  6  2  0
  7  2  1  0
  7  8  2  0
  9  5  1  0
 10 11  1  0
 11 12  2  0
 11 13  1  0
 13 14  1  0
 15 14  1  1
 15 16  1  0
 16  7  1  0
 17 15  1  0
 18 17  2  0
 19 17  1  0
 20 28  1  0
 20 19  1  0
 21 22  1  0
 20 21  1  6
 22 23  2  0
 23 24  1  0
 25 24  2  0
 26 25  1  0
 27 22  1  0
 27 26  2  0
 28 29  1  0
 30 28  2  0
M  END
$$$$
