EQF.pdb
     RDKit          3D

 30 30  0  0  1  0  0  0  0  0999 V2000
   24.5361  -33.5418   11.8075 N   0  0  0  0  0  0  0  0  0  0  0  0
   23.8522  -32.5820   10.9779 C   0  0  1  0  0  0  0  0  0  0  0  0
   23.1590  -31.4994   11.7418 C   0  0  0  0  0  0  0  0  0  0  0  0
   21.9166  -31.9275   12.4416 C   0  0  0  0  0  0  0  0  0  0  0  0
   20.8027  -32.0023   11.4698 C   0  0  0  0  0  0  0  0  0  0  0  0
   19.8305  -32.7519   11.7248 O   0  0  0  0  0  0  0  0  0  0  0  0
   24.8236  -32.0683    9.9876 C   0  0  0  0  0  0  0  0  0  0  0  0
   25.9767  -31.7780   10.3896 O   0  0  0  0  0  0  0  0  0  0  0  0
   20.7728  -31.2883   10.2897 O   0  0  0  0  0  0  0  0  0  0  0  0
   24.7154  -31.5107    3.6084 N   0  0  0  0  0  0  0  0  0  0  0  0
   25.9507  -30.9513    3.9910 C   0  0  0  0  0  0  0  0  0  0  0  0
   26.7743  -30.4597    3.1847 O   0  0  0  0  0  0  0  0  0  0  0  0
   26.3024  -30.9418    5.4394 C   0  0  0  0  0  0  0  0  0  0  0  0
   25.1855  -31.5148    6.2781 C   0  0  0  0  0  0  0  0  0  0  0  0
   25.5272  -31.3075    7.7341 C   0  0  2  0  0  0  0  0  0  0  0  0
   24.5361  -31.8811    8.6068 N   0  0  0  0  0  0  0  0  0  0  0  0
   25.6886  -29.8443    7.9509 C   0  0  0  0  0  0  0  0  0  0  0  0
   24.6626  -29.2143    8.2846 O   0  0  0  0  0  0  0  0  0  0  0  0
   26.9353  -29.2303    7.7831 N   0  0  0  0  0  0  0  0  0  0  0  0
   27.2133  -27.8566    8.0308 C   0  0  1  0  0  0  0  0  0  0  0  0
   26.8439  -27.4582    9.4387 C   0  0  0  0  0  0  0  0  0  0  0  0
   26.9979  -25.9949    9.6241 C   0  0  0  0  0  0  0  0  0  0  0  0
   26.0224  -25.1569    9.1316 C   0  0  0  0  0  0  0  0  0  0  0  0
   26.2230  -23.7965    9.3369 C   0  0  0  0  0  0  0  0  0  0  0  0
   27.3198  -23.2939    9.9887 C   0  0  0  0  0  0  0  0  0  0  0  0
   28.2728  -24.1542   10.4670 C   0  0  0  0  0  0  0  0  0  0  0  0
   28.0989  -25.4938   10.2782 C   0  0  0  0  0  0  0  0  0  0  0  0
   28.6386  -27.4611    7.7572 C   0  0  0  0  0  0  0  0  0  0  0  0
   28.8504  -26.2887    7.0128 O   0  0  0  0  0  0  0  0  0  0  0  0
   29.6277  -28.0737    8.1280 O   0  0  0  0  0  0  0  0  0  0  0  0
  2  1  1  1
  2  3  1  0
  3  4  1  0
  5  4  1  0
  5  6  2  0
  7  2  1  0
  7  8  2  0
  9  5  1  0
 10 11  1  0
 11 12  2  0
 11 13  1  0
 13 14  1  0
 15 14  1  6
 15 16  1  0
 16  7  1  0
 17 15  1  0
 18 17  2  0
 19 17  1  0
 20 28  1  0
 20 19  1  0
 21 22  1  0
 20 21  1  1
 22 23  2  0
 23 24  1  0
 25 24  2  0
 26 25  1  0
 27 22  1  0
 27 26  2  0
 28 29  1  0
 30 28  2  0
M  END
$$$$
