EQF.pdb
     RDKit          3D

 30 30  0  0  1  0  0  0  0  0999 V2000
   32.5708  -14.0719  -19.2716 N   0  0  0  0  0  0  0  0  0  0  0  0
   33.0772  -12.7881  -19.6871 C   0  0  1  0  0  0  0  0  0  0  0  0
   32.9378  -12.5221  -21.1520 C   0  0  0  0  0  0  0  0  0  0  0  0
   33.7470  -13.4140  -22.0274 C   0  0  0  0  0  0  0  0  0  0  0  0
   33.5170  -13.0563  -23.4451 C   0  0  0  0  0  0  0  0  0  0  0  0
   32.7969  -12.0637  -23.7064 O   0  0  0  0  0  0  0  0  0  0  0  0
   32.4376  -11.7558  -18.8424 C   0  0  0  0  0  0  0  0  0  0  0  0
   31.2777  -11.9786  -18.4173 O   0  0  0  0  0  0  0  0  0  0  0  0
   34.0542  -13.7584  -24.5043 O   0  0  0  0  0  0  0  0  0  0  0  0
   34.7008   -6.7967  -15.5464 N   0  0  0  0  0  0  0  0  0  0  0  0
   33.3108   -6.7704  -15.3170 C   0  0  0  0  0  0  0  0  0  0  0  0
   32.7571   -6.0342  -14.4676 O   0  0  0  0  0  0  0  0  0  0  0  0
   32.4445   -7.6698  -16.1307 C   0  0  0  0  0  0  0  0  0  0  0  0
   33.2708   -8.6115  -16.9730 C   0  0  0  0  0  0  0  0  0  0  0  0
   32.3376   -9.5726  -17.6695 C   0  0  2  0  0  0  0  0  0  0  0  0
   33.0517  -10.5248  -18.4798 N   0  0  0  0  0  0  0  0  0  0  0  0
   31.3769   -8.7633  -18.4672 C   0  0  0  0  0  0  0  0  0  0  0  0
   31.8344   -8.1976  -19.4828 O   0  0  0  0  0  0  0  0  0  0  0  0
   30.0364   -8.6576  -18.0784 N   0  0  0  0  0  0  0  0  0  0  0  0
   29.0027   -8.0587  -18.8519 C   0  0  1  0  0  0  0  0  0  0  0  0
   27.8054   -8.9681  -18.9817 C   0  0  0  0  0  0  0  0  0  0  0  0
   27.2412   -9.2815  -17.6465 C   0  0  0  0  0  0  0  0  0  0  0  0
   26.2582   -8.4654  -17.1327 C   0  0  0  0  0  0  0  0  0  0  0  0
   25.7691   -8.8110  -15.8780 C   0  0  0  0  0  0  0  0  0  0  0  0
   26.2228   -9.8964  -15.1732 C   0  0  0  0  0  0  0  0  0  0  0  0
   27.2019  -10.6889  -15.7121 C   0  0  0  0  0  0  0  0  0  0  0  0
   27.6982  -10.3706  -16.9421 C   0  0  0  0  0  0  0  0  0  0  0  0
   28.5568   -6.7152  -18.3428 C   0  0  0  0  0  0  0  0  0  0  0  0
   27.6975   -5.9674  -19.1650 O   0  0  0  0  0  0  0  0  0  0  0  0
   28.8791   -6.2195  -17.2744 O   0  0  0  0  0  0  0  0  0  0  0  0
  2  1  1  6
  2  3  1  0
  3  4  1  0
  5  4  1  0
  5  6  2  0
  7  2  1  0
  7  8  2  0
  9  5  1  0
 10 11  1  0
 11 12  2  0
 11 13  1  0
 13 14  1  0
 15 14  1  6
 15 16  1  0
 16  7  1  0
 17 15  1  0
 18 17  2  0
 19 17  1  0
 20 28  1  0
 20 19  1  0
 21 22  1  0
 20 21  1  1
 22 23  2  0
 23 24  1  0
 25 24  2  0
 26 25  1  0
 27 22  1  0
 27 26  2  0
 28 29  1  0
 30 28  2  0
M  END
$$$$
