FEC.pdb
     RDKit          3D

 27 27  0  0  1  0  0  0  0  0999 V2000
    5.8704  -17.0149   24.9350 N   0  0  0  0  0  0  0  0  0  0  0  0
    7.0585  -16.2299   24.9967 C   0  0  1  0  0  0  0  0  0  0  0  0
    7.1525  -15.4257   26.2521 C   0  0  0  0  0  0  0  0  0  0  0  0
    6.9234  -13.9924   26.0907 C   0  0  0  0  0  0  0  0  0  0  0  0
    5.7506  -13.3763   26.4606 C   0  0  0  0  0  0  0  0  0  0  0  0
    5.5138  -12.0404   26.3195 C   0  0  0  0  0  0  0  0  0  0  0  0
    6.5133  -11.2548   25.7702 C   0  0  0  0  0  0  0  0  0  0  0  0
    7.7264  -11.8281   25.3760 C   0  0  0  0  0  0  0  0  0  0  0  0
    7.9092  -13.1909   25.5444 C   0  0  0  0  0  0  0  0  0  0  0  0
    8.2934  -17.0735   24.8107 C   0  0  0  0  0  0  0  0  0  0  0  0
    8.4781  -18.1383   25.4569 O   0  0  0  0  0  0  0  0  0  0  0  0
    9.3063  -16.7002   23.8948 N   0  0  0  0  0  0  0  0  0  0  0  0
   10.6279  -17.3457   23.8713 C   0  0  1  0  0  0  0  0  0  0  0  0
   11.3175  -17.1413   22.5705 C   0  0  0  0  0  0  0  0  0  0  0  0
   12.6919  -17.7035   22.5137 C   0  0  0  0  0  0  0  0  0  0  0  0
   13.4202  -17.4620   21.2468 C   0  0  0  0  0  0  0  0  0  0  0  0
   14.6508  -17.6432   21.0831 O   0  0  0  0  0  0  0  0  0  0  0  0
   11.4156  -16.9211   25.0617 C   0  0  0  0  0  0  0  0  0  0  0  0
   11.8548  -15.7513   25.0949 O   0  0  0  0  0  0  0  0  0  0  0  0
   12.6459  -16.9954   20.1673 O   0  0  0  0  0  0  0  0  0  0  0  0
   11.6818  -17.7876   26.1468 N   0  0  0  0  0  0  0  0  0  0  0  0
   12.0127  -17.3686   27.4744 C   0  0  1  0  0  0  0  0  0  0  0  0
   10.9191  -16.5246   28.1045 C   0  0  0  0  0  0  0  0  0  0  0  0
   11.6236  -15.4256   29.3584 S   0  0  0  0  0  0  0  0  0  0  0  0
   12.1641  -18.6146   28.3112 C   0  0  0  0  0  0  0  0  0  0  0  0
   11.6282  -19.6717   27.9016 O   0  0  0  0  0  0  0  0  0  0  0  0
   12.8626  -18.6148   29.4885 O   0  0  0  0  0  0  0  0  0  0  0  0
  2  1  1  1
  3  2  1  0
  3  4  1  0
  4  9  2  0
  5  4  1  0
  5  6  2  0
  6  7  1  0
  7  8  2  0
  9  8  1  0
 10  2  1  0
 10 11  2  0
 12 10  1  0
 13 18  1  0
 13 12  1  0
 13 14  1  6
 15 14  1  0
 16 15  1  0
 17 16  2  0
 18 21  1  0
 19 18  2  0
 20 16  1  0
 21 22  1  0
 22 25  1  0
 23 24  1  0
 22 23  1  1
 25 26  2  0
 25 27  1  0
M  END
$$$$
