FEC.pdb
     RDKit          3D

 27 27  0  0  1  0  0  0  0  0999 V2000
    6.6946  -18.4154   20.8674 N   0  0  0  0  0  0  0  0  0  0  0  0
    7.3008  -17.2805   21.4807 C   0  0  1  0  0  0  0  0  0  0  0  0
    6.3162  -16.2027   21.7975 C   0  0  0  0  0  0  0  0  0  0  0  0
    6.8508  -14.8441   21.7675 C   0  0  0  0  0  0  0  0  0  0  0  0
    6.9966  -14.0728   22.8970 C   0  0  0  0  0  0  0  0  0  0  0  0
    7.4930  -12.8021   22.8937 C   0  0  0  0  0  0  0  0  0  0  0  0
    7.8736  -12.2533   21.6805 C   0  0  0  0  0  0  0  0  0  0  0  0
    7.7474  -12.9921   20.4999 C   0  0  0  0  0  0  0  0  0  0  0  0
    7.2367  -14.2782   20.5660 C   0  0  0  0  0  0  0  0  0  0  0  0
    8.0845  -17.6640   22.7096 C   0  0  0  0  0  0  0  0  0  0  0  0
    8.2183  -18.8634   23.0687 O   0  0  0  0  0  0  0  0  0  0  0  0
    8.7073  -16.6834   23.5187 N   0  0  0  0  0  0  0  0  0  0  0  0
   10.1290  -16.7514   23.8901 C   0  0  1  0  0  0  0  0  0  0  0  0
   11.0059  -16.8571   22.6945 C   0  0  0  0  0  0  0  0  0  0  0  0
   12.4598  -16.8489   23.0018 C   0  0  0  0  0  0  0  0  0  0  0  0
   13.2902  -17.7280   22.1465 C   0  0  0  0  0  0  0  0  0  0  0  0
   13.2406  -18.9816   22.1475 O   0  0  0  0  0  0  0  0  0  0  0  0
   10.4639  -15.6245   24.8043 C   0  0  0  0  0  0  0  0  0  0  0  0
   11.5567  -15.0385   24.6467 O   0  0  0  0  0  0  0  0  0  0  0  0
   14.1906  -17.0777   21.2810 O   0  0  0  0  0  0  0  0  0  0  0  0
    9.5961  -15.1975   25.8357 N   0  0  0  0  0  0  0  0  0  0  0  0
    9.9444  -14.2845   26.8808 C   0  0  1  0  0  0  0  0  0  0  0  0
    8.8041  -13.3459   27.2334 C   0  0  0  0  0  0  0  0  0  0  0  0
    7.8957  -12.8787   25.7392 S   0  0  0  0  0  0  0  0  0  0  0  0
   10.2524  -15.1064   28.1078 C   0  0  0  0  0  0  0  0  0  0  0  0
   10.5887  -14.5039   29.1548 O   0  0  0  0  0  0  0  0  0  0  0  0
   10.1736  -16.4730   28.1014 O   0  0  0  0  0  0  0  0  0  0  0  0
  2  1  1  1
  3  2  1  0
  3  4  1  0
  4  9  2  0
  5  4  1  0
  5  6  2  0
  6  7  1  0
  7  8  2  0
  9  8  1  0
 10  2  1  0
 10 11  2  0
 12 10  1  0
 13 18  1  0
 13 12  1  0
 13 14  1  6
 15 14  1  0
 16 15  1  0
 17 16  2  0
 18 21  1  0
 19 18  2  0
 20 16  1  0
 21 22  1  0
 22 25  1  0
 23 24  1  0
 22 23  1  1
 25 26  2  0
 25 27  1  0
M  END
$$$$
