FEC.pdb
     RDKit          3D

 27 27  0  0  1  0  0  0  0  0999 V2000
    5.7838  -17.9443   24.1134 N   0  0  0  0  0  0  0  0  0  0  0  0
    6.5596  -16.7769   24.3722 C   0  0  1  0  0  0  0  0  0  0  0  0
    6.0129  -15.9601   25.4971 C   0  0  0  0  0  0  0  0  0  0  0  0
    6.7191  -14.7084   25.7568 C   0  0  0  0  0  0  0  0  0  0  0  0
    7.3296  -14.4295   26.9573 C   0  0  0  0  0  0  0  0  0  0  0  0
    7.9944  -13.2682   27.2229 C   0  0  0  0  0  0  0  0  0  0  0  0
    8.0593  -12.3104   26.2247 C   0  0  0  0  0  0  0  0  0  0  0  0
    7.4562  -12.5405   24.9842 C   0  0  0  0  0  0  0  0  0  0  0  0
    6.7952  -13.7395   24.7729 C   0  0  0  0  0  0  0  0  0  0  0  0
    8.0086  -17.1136   24.6135 C   0  0  0  0  0  0  0  0  0  0  0  0
    8.3680  -17.8977   25.5309 O   0  0  0  0  0  0  0  0  0  0  0  0
    9.0349  -16.5570   23.8128 N   0  0  0  0  0  0  0  0  0  0  0  0
   10.4557  -16.8831   24.0093 C   0  0  1  0  0  0  0  0  0  0  0  0
   11.2456  -16.6734   22.7677 C   0  0  0  0  0  0  0  0  0  0  0  0
   12.7025  -16.9217   22.9224 C   0  0  0  0  0  0  0  0  0  0  0  0
   13.5048  -16.7580   21.6881 C   0  0  0  0  0  0  0  0  0  0  0  0
   14.1464  -17.6771   21.1245 O   0  0  0  0  0  0  0  0  0  0  0  0
   10.9767  -16.1603   25.2026 C   0  0  0  0  0  0  0  0  0  0  0  0
   11.0610  -14.9142   25.1503 O   0  0  0  0  0  0  0  0  0  0  0  0
   13.5281  -15.4644   21.1325 O   0  0  0  0  0  0  0  0  0  0  0  0
   11.3760  -16.8285   26.3830 N   0  0  0  0  0  0  0  0  0  0  0  0
   11.9014  -16.1931   27.5524 C   0  0  1  0  0  0  0  0  0  0  0  0
   10.8923  -15.2709   28.2131 C   0  0  0  0  0  0  0  0  0  0  0  0
    9.4752  -16.2239   28.8128 S   0  0  0  0  0  0  0  0  0  0  0  0
   12.2364  -17.2827   28.5404 C   0  0  0  0  0  0  0  0  0  0  0  0
   11.9393  -18.4640   28.2422 O   0  0  0  0  0  0  0  0  0  0  0  0
   12.8473  -17.0129   29.7353 O   0  0  0  0  0  0  0  0  0  0  0  0
  2  1  1  1
  3  2  1  0
  3  4  1  0
  4  9  2  0
  5  4  1  0
  5  6  2  0
  6  7  1  0
  7  8  2  0
  9  8  1  0
 10  2  1  0
 10 11  2  0
 12 10  1  0
 13 18  1  0
 13 12  1  0
 13 14  1  6
 15 14  1  0
 16 15  1  0
 17 16  2  0
 18 21  1  0
 19 18  2  0
 20 16  1  0
 21 22  1  0
 22 25  1  0
 23 24  1  0
 22 23  1  1
 25 26  2  0
 25 27  1  0
M  END
$$$$
