FEC.pdb
     RDKit          3D

 27 27  0  0  1  0  0  0  0  0999 V2000
    5.9236  -16.7884   25.5902 N   0  0  0  0  0  0  0  0  0  0  0  0
    6.6744  -16.4879   24.4165 C   0  0  1  0  0  0  0  0  0  0  0  0
    6.5377  -15.0612   23.9953 C   0  0  0  0  0  0  0  0  0  0  0  0
    7.0528  -14.0802   24.9467 C   0  0  0  0  0  0  0  0  0  0  0  0
    8.2835  -13.4812   24.8106 C   0  0  0  0  0  0  0  0  0  0  0  0
    8.7855  -12.5631   25.6857 C   0  0  0  0  0  0  0  0  0  0  0  0
    8.0110  -12.2116   26.7786 C   0  0  0  0  0  0  0  0  0  0  0  0
    6.7515  -12.7892   26.9673 C   0  0  0  0  0  0  0  0  0  0  0  0
    6.2945  -13.7158   26.0444 C   0  0  0  0  0  0  0  0  0  0  0  0
    8.1263  -16.8601   24.5738 C   0  0  0  0  0  0  0  0  0  0  0  0
    8.5550  -17.4594   25.5948 O   0  0  0  0  0  0  0  0  0  0  0  0
    9.0769  -16.5477   23.5723 N   0  0  0  0  0  0  0  0  0  0  0  0
   10.4923  -16.9342   23.6776 C   0  0  1  0  0  0  0  0  0  0  0  0
   11.2029  -16.7804   22.3811 C   0  0  0  0  0  0  0  0  0  0  0  0
   12.6348  -17.1762   22.4197 C   0  0  0  0  0  0  0  0  0  0  0  0
   13.3545  -17.0660   21.1299 C   0  0  0  0  0  0  0  0  0  0  0  0
   14.6028  -17.0696   21.0043 O   0  0  0  0  0  0  0  0  0  0  0  0
   11.1255  -16.2164   24.8184 C   0  0  0  0  0  0  0  0  0  0  0  0
   11.5297  -15.0483   24.6324 O   0  0  0  0  0  0  0  0  0  0  0  0
   12.5497  -16.9501   19.9803 O   0  0  0  0  0  0  0  0  0  0  0  0
   11.2843  -16.8049   26.0942 N   0  0  0  0  0  0  0  0  0  0  0  0
   11.4903  -16.0858   27.3139 C   0  0  1  0  0  0  0  0  0  0  0  0
   10.3293  -15.1656   27.6466 C   0  0  0  0  0  0  0  0  0  0  0  0
   10.6041  -14.3683   29.2482 S   0  0  0  0  0  0  0  0  0  0  0  0
   11.5940  -17.1051   28.4213 C   0  0  0  0  0  0  0  0  0  0  0  0
   11.2335  -18.2814   28.1788 O   0  0  0  0  0  0  0  0  0  0  0  0
   12.0654  -16.7776   29.6640 O   0  0  0  0  0  0  0  0  0  0  0  0
  2  1  1  1
  3  2  1  0
  3  4  1  0
  4  9  2  0
  5  4  1  0
  5  6  2  0
  6  7  1  0
  7  8  2  0
  9  8  1  0
 10  2  1  0
 10 11  2  0
 12 10  1  0
 13 18  1  0
 13 12  1  0
 13 14  1  6
 15 14  1  0
 16 15  1  0
 17 16  2  0
 18 21  1  0
 19 18  2  0
 20 16  1  0
 21 22  1  0
 22 25  1  0
 23 24  1  0
 22 23  1  1
 25 26  2  0
 25 27  1  0
M  END
$$$$
