FEC.pdb
     RDKit          3D

 27 27  0  0  1  0  0  0  0  0999 V2000
    6.0750  -17.6764   23.7591 N   0  0  0  0  0  0  0  0  0  0  0  0
    6.8483  -16.5703   24.2174 C   0  0  1  0  0  0  0  0  0  0  0  0
    6.2286  -15.8806   25.3887 C   0  0  0  0  0  0  0  0  0  0  0  0
    6.5876  -14.4734   25.5426 C   0  0  0  0  0  0  0  0  0  0  0  0
    7.5675  -13.8653   24.7931 C   0  0  0  0  0  0  0  0  0  0  0  0
    7.9201  -12.5536   24.9191 C   0  0  0  0  0  0  0  0  0  0  0  0
    7.2524  -11.7857   25.8584 C   0  0  0  0  0  0  0  0  0  0  0  0
    6.2470  -12.3518   26.6486 C   0  0  0  0  0  0  0  0  0  0  0  0
    5.9324  -13.6897   26.4750 C   0  0  0  0  0  0  0  0  0  0  0  0
    8.2675  -16.9728   24.5259 C   0  0  0  0  0  0  0  0  0  0  0  0
    8.5418  -17.8301   25.4063 O   0  0  0  0  0  0  0  0  0  0  0  0
    9.3605  -16.3981   23.8337 N   0  0  0  0  0  0  0  0  0  0  0  0
   10.7577  -16.7479   24.1326 C   0  0  1  0  0  0  0  0  0  0  0  0
   11.6280  -16.6104   22.9354 C   0  0  0  0  0  0  0  0  0  0  0  0
   13.0692  -16.8610   23.1969 C   0  0  0  0  0  0  0  0  0  0  0  0
   13.9568  -16.7251   22.0191 C   0  0  0  0  0  0  0  0  0  0  0  0
   15.0447  -16.1002   22.0111 O   0  0  0  0  0  0  0  0  0  0  0  0
   11.2222  -15.9861   25.3250 C   0  0  0  0  0  0  0  0  0  0  0  0
   11.9808  -15.0090   25.1451 O   0  0  0  0  0  0  0  0  0  0  0  0
   13.5187  -17.3548   20.8383 O   0  0  0  0  0  0  0  0  0  0  0  0
   10.8383  -16.3263   26.6426 N   0  0  0  0  0  0  0  0  0  0  0  0
   11.5156  -15.9098   27.8321 C   0  0  1  0  0  0  0  0  0  0  0  0
   11.0372  -14.5564   28.3270 C   0  0  0  0  0  0  0  0  0  0  0  0
    9.3985  -14.1888   27.6520 S   0  0  0  0  0  0  0  0  0  0  0  0
   11.1998  -16.9232   28.9040 C   0  0  0  0  0  0  0  0  0  0  0  0
   11.7286  -16.7765   30.0316 O   0  0  0  0  0  0  0  0  0  0  0  0
   10.3623  -17.9814   28.6749 O   0  0  0  0  0  0  0  0  0  0  0  0
  2  1  1  1
  3  2  1  0
  3  4  1  0
  4  9  2  0
  5  4  1  0
  5  6  2  0
  6  7  1  0
  7  8  2  0
  9  8  1  0
 10  2  1  0
 10 11  2  0
 12 10  1  0
 13 18  1  0
 13 12  1  0
 13 14  1  6
 15 14  1  0
 16 15  1  0
 17 16  2  0
 18 21  1  0
 19 18  2  0
 20 16  1  0
 21 22  1  0
 22 25  1  0
 23 24  1  0
 22 23  1  1
 25 26  2  0
 25 27  1  0
M  END
$$$$
