FEC.pdb
     RDKit          3D

 27 27  0  0  1  0  0  0  0  0999 V2000
    6.0070  -16.4219   25.2443 N   0  0  0  0  0  0  0  0  0  0  0  0
    7.2439  -15.7905   24.9235 C   0  0  1  0  0  0  0  0  0  0  0  0
    7.6597  -14.7852   25.9473 C   0  0  0  0  0  0  0  0  0  0  0  0
    7.0079  -13.4828   25.8400 C   0  0  0  0  0  0  0  0  0  0  0  0
    7.4937  -12.4662   25.0511 C   0  0  0  0  0  0  0  0  0  0  0  0
    6.9027  -11.2422   24.9351 C   0  0  0  0  0  0  0  0  0  0  0  0
    5.7433  -11.0064   25.6549 C   0  0  0  0  0  0  0  0  0  0  0  0
    5.2044  -12.0041   26.4734 C   0  0  0  0  0  0  0  0  0  0  0  0
    5.8491  -13.2278   26.5506 C   0  0  0  0  0  0  0  0  0  0  0  0
    8.3398  -16.7986   24.6911 C   0  0  0  0  0  0  0  0  0  0  0  0
    8.4296  -17.8554   25.3697 O   0  0  0  0  0  0  0  0  0  0  0  0
    9.3229  -16.5972   23.6925 N   0  0  0  0  0  0  0  0  0  0  0  0
   10.6780  -17.1609   23.7920 C   0  0  1  0  0  0  0  0  0  0  0  0
   11.4986  -16.8362   22.5959 C   0  0  0  0  0  0  0  0  0  0  0  0
   12.8072  -17.5385   22.5450 C   0  0  0  0  0  0  0  0  0  0  0  0
   13.6399  -17.2356   21.3581 C   0  0  0  0  0  0  0  0  0  0  0  0
   13.8182  -16.0882   20.8830 O   0  0  0  0  0  0  0  0  0  0  0  0
   11.2928  -16.7648   25.0893 C   0  0  0  0  0  0  0  0  0  0  0  0
   12.0059  -15.7386   25.1180 O   0  0  0  0  0  0  0  0  0  0  0  0
   14.2625  -18.3378   20.7416 O   0  0  0  0  0  0  0  0  0  0  0  0
   11.0997  -17.5026   26.2799 N   0  0  0  0  0  0  0  0  0  0  0  0
   11.6903  -17.1937   27.5460 C   0  0  1  0  0  0  0  0  0  0  0  0
   10.7170  -16.5050   28.4862 C   0  0  0  0  0  0  0  0  0  0  0  0
   10.1390  -14.9520   27.7578 S   0  0  0  0  0  0  0  0  0  0  0  0
   12.0896  -18.5014   28.1835 C   0  0  0  0  0  0  0  0  0  0  0  0
   11.8739  -19.5603   27.5474 O   0  0  0  0  0  0  0  0  0  0  0  0
   12.6725  -18.5546   29.4209 O   0  0  0  0  0  0  0  0  0  0  0  0
  2  1  1  1
  3  2  1  0
  3  4  1  0
  4  9  2  0
  5  4  1  0
  5  6  2  0
  6  7  1  0
  7  8  2  0
  9  8  1  0
 10  2  1  0
 10 11  2  0
 12 10  1  0
 13 18  1  0
 13 12  1  0
 13 14  1  6
 15 14  1  0
 16 15  1  0
 17 16  2  0
 18 21  1  0
 19 18  2  0
 20 16  1  0
 21 22  1  0
 22 25  1  0
 23 24  1  0
 22 23  1  1
 25 26  2  0
 25 27  1  0
M  END
$$$$
