FEC.pdb
     RDKit          3D

 27 27  0  0  1  0  0  0  0  0999 V2000
    5.6387  -17.3337   24.8134 N   0  0  0  0  0  0  0  0  0  0  0  0
    6.6563  -16.3548   24.6192 C   0  0  1  0  0  0  0  0  0  0  0  0
    7.0009  -15.6253   25.8765 C   0  0  0  0  0  0  0  0  0  0  0  0
    6.8829  -14.1715   25.8038 C   0  0  0  0  0  0  0  0  0  0  0  0
    7.7460  -13.3867   25.0751 C   0  0  0  0  0  0  0  0  0  0  0  0
    7.6558  -12.0281   24.9924 C   0  0  0  0  0  0  0  0  0  0  0  0
    6.6342  -11.3986   25.6837 C   0  0  0  0  0  0  0  0  0  0  0  0
    5.7275  -12.1469   26.4410 C   0  0  0  0  0  0  0  0  0  0  0  0
    5.8694  -13.5241   26.4868 C   0  0  0  0  0  0  0  0  0  0  0  0
    7.8910  -16.9517   23.9942 C   0  0  0  0  0  0  0  0  0  0  0  0
    8.4214  -18.0042   24.4373 O   0  0  0  0  0  0  0  0  0  0  0  0
    8.5119  -16.3482   22.8742 N   0  0  0  0  0  0  0  0  0  0  0  0
    9.8624  -16.7186   22.4239 C   0  0  1  0  0  0  0  0  0  0  0  0
   10.2897  -15.9170   21.2473 C   0  0  0  0  0  0  0  0  0  0  0  0
   11.6676  -16.2126   20.7758 C   0  0  0  0  0  0  0  0  0  0  0  0
   11.7589  -17.1935   19.6698 C   0  0  0  0  0  0  0  0  0  0  0  0
   11.6446  -18.4357   19.8036 O   0  0  0  0  0  0  0  0  0  0  0  0
   10.8052  -16.6762   23.5759 C   0  0  0  0  0  0  0  0  0  0  0  0
   10.9300  -15.6004   24.2000 O   0  0  0  0  0  0  0  0  0  0  0  0
   11.9916  -16.6602   18.3875 O   0  0  0  0  0  0  0  0  0  0  0  0
   11.5580  -17.8009   23.9851 N   0  0  0  0  0  0  0  0  0  0  0  0
   12.3877  -17.8582   25.1494 C   0  0  1  0  0  0  0  0  0  0  0  0
   11.6568  -18.4242   26.3539 C   0  0  0  0  0  0  0  0  0  0  0  0
   12.5811  -18.0679   27.8688 S   0  0  0  0  0  0  0  0  0  0  0  0
   13.5341  -18.7873   24.8357 C   0  0  0  0  0  0  0  0  0  0  0  0
   13.3907  -19.6093   23.8996 O   0  0  0  0  0  0  0  0  0  0  0  0
   14.7073  -18.7521   25.5400 O   0  0  0  0  0  0  0  0  0  0  0  0
  2  1  1  1
  3  2  1  0
  3  4  1  0
  4  9  2  0
  5  4  1  0
  5  6  2  0
  6  7  1  0
  7  8  2  0
  9  8  1  0
 10  2  1  0
 10 11  2  0
 12 10  1  0
 13 18  1  0
 13 12  1  0
 13 14  1  6
 15 14  1  0
 16 15  1  0
 17 16  2  0
 18 21  1  0
 19 18  2  0
 20 16  1  0
 21 22  1  0
 22 25  1  0
 23 24  1  0
 22 23  1  1
 25 26  2  0
 25 27  1  0
M  END
$$$$
