FEC.pdb
     RDKit          3D

 27 27  0  0  1  0  0  0  0  0999 V2000
    5.9058  -18.1488   24.0572 N   0  0  0  0  0  0  0  0  0  0  0  0
    6.6032  -16.9125   24.1864 C   0  0  1  0  0  0  0  0  0  0  0  0
    5.9382  -15.9731   25.1387 C   0  0  0  0  0  0  0  0  0  0  0  0
    6.5253  -14.6376   25.2062 C   0  0  0  0  0  0  0  0  0  0  0  0
    7.1518  -14.0413   24.1368 C   0  0  0  0  0  0  0  0  0  0  0  0
    7.7073  -12.7960   24.1760 C   0  0  0  0  0  0  0  0  0  0  0  0
    7.6377  -12.0875   25.3639 C   0  0  0  0  0  0  0  0  0  0  0  0
    7.0124  -12.6449   26.4837 C   0  0  0  0  0  0  0  0  0  0  0  0
    6.4660  -13.9139   26.3832 C   0  0  0  0  0  0  0  0  0  0  0  0
    8.0460  -17.1243   24.5673 C   0  0  0  0  0  0  0  0  0  0  0  0
    8.3780  -17.8091   25.5704 O   0  0  0  0  0  0  0  0  0  0  0  0
    9.0968  -16.5566   23.8072 N   0  0  0  0  0  0  0  0  0  0  0  0
   10.5139  -16.8373   24.0843 C   0  0  1  0  0  0  0  0  0  0  0  0
   11.3486  -16.7169   22.8603 C   0  0  0  0  0  0  0  0  0  0  0  0
   12.7879  -17.0204   23.0712 C   0  0  0  0  0  0  0  0  0  0  0  0
   13.6339  -16.9395   21.8581 C   0  0  0  0  0  0  0  0  0  0  0  0
   14.1036  -17.9287   21.2458 O   0  0  0  0  0  0  0  0  0  0  0  0
   10.9756  -16.0070   25.2312 C   0  0  0  0  0  0  0  0  0  0  0  0
   11.4807  -14.8898   24.9883 O   0  0  0  0  0  0  0  0  0  0  0  0
   13.9126  -15.6433   21.3836 O   0  0  0  0  0  0  0  0  0  0  0  0
   10.8634  -16.4346   26.5742 N   0  0  0  0  0  0  0  0  0  0  0  0
   11.4145  -15.7530   27.7051 C   0  0  1  0  0  0  0  0  0  0  0  0
   10.5243  -14.6228   28.1903 C   0  0  0  0  0  0  0  0  0  0  0  0
    8.8167  -15.2002   28.3548 S   0  0  0  0  0  0  0  0  0  0  0  0
   11.5222  -16.7590   28.8241 C   0  0  0  0  0  0  0  0  0  0  0  0
   11.0800  -17.9155   28.6251 O   0  0  0  0  0  0  0  0  0  0  0  0
   12.0830  -16.4407   30.0316 O   0  0  0  0  0  0  0  0  0  0  0  0
  2  1  1  1
  3  2  1  0
  3  4  1  0
  4  9  2  0
  5  4  1  0
  5  6  2  0
  6  7  1  0
  7  8  2  0
  9  8  1  0
 10  2  1  0
 10 11  2  0
 12 10  1  0
 13 18  1  0
 13 12  1  0
 13 14  1  6
 15 14  1  0
 16 15  1  0
 17 16  2  0
 18 21  1  0
 19 18  2  0
 20 16  1  0
 21 22  1  0
 22 25  1  0
 23 24  1  0
 22 23  1  1
 25 26  2  0
 25 27  1  0
M  END
$$$$
