FEC.pdb
     RDKit          3D

 27 27  0  0  1  0  0  0  0  0999 V2000
    6.0560  -16.4811   25.2005 N   0  0  0  0  0  0  0  0  0  0  0  0
    7.3132  -15.9492   24.7906 C   0  0  1  0  0  0  0  0  0  0  0  0
    7.8950  -15.0082   25.7944 C   0  0  0  0  0  0  0  0  0  0  0  0
    7.2812  -13.6836   25.8334 C   0  0  0  0  0  0  0  0  0  0  0  0
    7.7191  -12.6335   25.0605 C   0  0  0  0  0  0  0  0  0  0  0  0
    7.1622  -11.3884   25.0799 C   0  0  0  0  0  0  0  0  0  0  0  0
    6.0910  -11.1657   25.9289 C   0  0  0  0  0  0  0  0  0  0  0  0
    5.6040  -12.1973   26.7378 C   0  0  0  0  0  0  0  0  0  0  0  0
    6.2104  -13.4412   26.6744 C   0  0  0  0  0  0  0  0  0  0  0  0
    8.2956  -17.0407   24.4517 C   0  0  0  0  0  0  0  0  0  0  0  0
    8.3328  -18.1266   25.0879 O   0  0  0  0  0  0  0  0  0  0  0  0
    9.2262  -16.8888   23.3957 N   0  0  0  0  0  0  0  0  0  0  0  0
   10.3761  -17.7891   23.2196 C   0  0  1  0  0  0  0  0  0  0  0  0
   10.9924  -17.6387   21.8753 C   0  0  0  0  0  0  0  0  0  0  0  0
   10.0494  -17.8448   20.7455 C   0  0  0  0  0  0  0  0  0  0  0  0
   10.6390  -17.6901   19.3956 C   0  0  0  0  0  0  0  0  0  0  0  0
   10.3173  -16.8002   18.5718 O   0  0  0  0  0  0  0  0  0  0  0  0
   11.3238  -17.6215   24.3561 C   0  0  0  0  0  0  0  0  0  0  0  0
   11.7473  -16.4732   24.6100 O   0  0  0  0  0  0  0  0  0  0  0  0
   11.6298  -18.6262   19.0423 O   0  0  0  0  0  0  0  0  0  0  0  0
   11.7578  -18.7069   25.1516 N   0  0  0  0  0  0  0  0  0  0  0  0
   12.1620  -18.6154   26.5211 C   0  0  1  0  0  0  0  0  0  0  0  0
   11.0354  -18.1524   27.4276 C   0  0  0  0  0  0  0  0  0  0  0  0
   11.5596  -18.2198   29.1587 S   0  0  0  0  0  0  0  0  0  0  0  0
   12.5601  -20.0018   26.9629 C   0  0  0  0  0  0  0  0  0  0  0  0
   11.8559  -20.9684   26.5856 O   0  0  0  0  0  0  0  0  0  0  0  0
   13.6554  -20.2224   27.7537 O   0  0  0  0  0  0  0  0  0  0  0  0
  2  1  1  1
  3  2  1  0
  3  4  1  0
  4  9  2  0
  5  4  1  0
  5  6  2  0
  6  7  1  0
  7  8  2  0
  9  8  1  0
 10  2  1  0
 10 11  2  0
 12 10  1  0
 13 18  1  0
 13 12  1  0
 13 14  1  6
 15 14  1  0
 16 15  1  0
 17 16  2  0
 18 21  1  0
 19 18  2  0
 20 16  1  0
 21 22  1  0
 22 25  1  0
 23 24  1  0
 22 23  1  1
 25 26  2  0
 25 27  1  0
M  END
$$$$
