FEC.pdb
     RDKit          3D

 27 27  0  0  1  0  0  0  0  0999 V2000
    6.2764  -16.4696   25.5038 N   0  0  0  0  0  0  0  0  0  0  0  0
    7.4070  -15.9515   24.8074 C   0  0  1  0  0  0  0  0  0  0  0  0
    8.1186  -14.8868   25.5766 C   0  0  0  0  0  0  0  0  0  0  0  0
    7.3152  -13.7105   25.8987 C   0  0  0  0  0  0  0  0  0  0  0  0
    6.4865  -13.0986   24.9873 C   0  0  0  0  0  0  0  0  0  0  0  0
    5.7272  -11.9998   25.2648 C   0  0  0  0  0  0  0  0  0  0  0  0
    5.7936  -11.4660   26.5410 C   0  0  0  0  0  0  0  0  0  0  0  0
    6.6197  -12.0472   27.5081 C   0  0  0  0  0  0  0  0  0  0  0  0
    7.3674  -13.1626   27.1675 C   0  0  0  0  0  0  0  0  0  0  0  0
    8.3618  -17.0456   24.4041 C   0  0  0  0  0  0  0  0  0  0  0  0
    8.3675  -18.1694   24.9718 O   0  0  0  0  0  0  0  0  0  0  0  0
    9.3007  -16.8533   23.3621 N   0  0  0  0  0  0  0  0  0  0  0  0
   10.5646  -17.6022   23.2887 C   0  0  1  0  0  0  0  0  0  0  0  0
   11.3699  -17.2084   22.1029 C   0  0  0  0  0  0  0  0  0  0  0  0
   12.6352  -17.9712   21.9441 C   0  0  0  0  0  0  0  0  0  0  0  0
   13.4327  -17.6274   20.7442 C   0  0  0  0  0  0  0  0  0  0  0  0
   12.9598  -17.4616   19.5941 O   0  0  0  0  0  0  0  0  0  0  0  0
   11.2860  -17.4989   24.5875 C   0  0  0  0  0  0  0  0  0  0  0  0
   11.5639  -16.3602   25.0218 O   0  0  0  0  0  0  0  0  0  0  0  0
   14.8192  -17.4836   20.9433 O   0  0  0  0  0  0  0  0  0  0  0  0
   11.6643  -18.6342   25.3404 N   0  0  0  0  0  0  0  0  0  0  0  0
   12.3080  -18.5992   26.6178 C   0  0  1  0  0  0  0  0  0  0  0  0
   11.4361  -17.9677   27.6884 C   0  0  0  0  0  0  0  0  0  0  0  0
   10.0451  -19.0566   28.0828 S   0  0  0  0  0  0  0  0  0  0  0  0
   12.5667  -20.0280   27.0269 C   0  0  0  0  0  0  0  0  0  0  0  0
   12.1200  -20.9434   26.2954 O   0  0  0  0  0  0  0  0  0  0  0  0
   13.2670  -20.3403   28.1608 O   0  0  0  0  0  0  0  0  0  0  0  0
  2  1  1  1
  3  2  1  0
  3  4  1  0
  4  9  2  0
  5  4  1  0
  5  6  2  0
  6  7  1  0
  7  8  2  0
  9  8  1  0
 10  2  1  0
 10 11  2  0
 12 10  1  0
 13 18  1  0
 13 12  1  0
 13 14  1  6
 15 14  1  0
 16 15  1  0
 17 16  2  0
 18 21  1  0
 19 18  2  0
 20 16  1  0
 21 22  1  0
 22 25  1  0
 23 24  1  0
 22 23  1  1
 25 26  2  0
 25 27  1  0
M  END
$$$$
