FEC.pdb
     RDKit          3D

 27 27  0  0  1  0  0  0  0  0999 V2000
    5.8560  -17.1237   24.7090 N   0  0  0  0  0  0  0  0  0  0  0  0
    6.9834  -16.2595   24.8269 C   0  0  1  0  0  0  0  0  0  0  0  0
    7.0252  -15.5434   26.1372 C   0  0  0  0  0  0  0  0  0  0  0  0
    6.7255  -14.1154   26.0748 C   0  0  0  0  0  0  0  0  0  0  0  0
    5.5729  -13.5701   26.5905 C   0  0  0  0  0  0  0  0  0  0  0  0
    5.2714  -12.2405   26.5439 C   0  0  0  0  0  0  0  0  0  0  0  0
    6.1792  -11.3861   25.9409 C   0  0  0  0  0  0  0  0  0  0  0  0
    7.3678  -11.8857   25.3994 C   0  0  0  0  0  0  0  0  0  0  0  0
    7.6194  -13.2458   25.4770 C   0  0  0  0  0  0  0  0  0  0  0  0
    8.2760  -16.9939   24.5797 C   0  0  0  0  0  0  0  0  0  0  0  0
    8.6326  -17.9739   25.2853 O   0  0  0  0  0  0  0  0  0  0  0  0
    9.1512  -16.6085   23.5358 N   0  0  0  0  0  0  0  0  0  0  0  0
   10.6133  -16.7260   23.6461 C   0  0  1  0  0  0  0  0  0  0  0  0
   11.3016  -16.1802   22.4469 C   0  0  0  0  0  0  0  0  0  0  0  0
   12.7850  -16.2260   22.5213 C   0  0  0  0  0  0  0  0  0  0  0  0
   13.4471  -16.9964   21.4434 C   0  0  0  0  0  0  0  0  0  0  0  0
   13.9349  -16.4955   20.4017 O   0  0  0  0  0  0  0  0  0  0  0  0
   11.0681  -16.1425   24.9386 C   0  0  0  0  0  0  0  0  0  0  0  0
   11.0955  -14.8978   25.0496 O   0  0  0  0  0  0  0  0  0  0  0  0
   13.5173  -18.3900   21.6325 O   0  0  0  0  0  0  0  0  0  0  0  0
   11.4665  -16.9406   26.0356 N   0  0  0  0  0  0  0  0  0  0  0  0
   11.7755  -16.4491   27.3434 C   0  0  1  0  0  0  0  0  0  0  0  0
   10.6094  -15.7092   27.9743 C   0  0  0  0  0  0  0  0  0  0  0  0
   11.1529  -14.8482   29.4708 S   0  0  0  0  0  0  0  0  0  0  0  0
   12.0769  -17.6461   28.2107 C   0  0  0  0  0  0  0  0  0  0  0  0
   12.5146  -17.4433   29.3682 O   0  0  0  0  0  0  0  0  0  0  0  0
   11.8857  -18.9271   27.7675 O   0  0  0  0  0  0  0  0  0  0  0  0
  2  1  1  1
  3  2  1  0
  3  4  1  0
  4  9  2  0
  5  4  1  0
  5  6  2  0
  6  7  1  0
  7  8  2  0
  9  8  1  0
 10  2  1  0
 10 11  2  0
 12 10  1  0
 13 18  1  0
 13 12  1  0
 13 14  1  6
 15 14  1  0
 16 15  1  0
 17 16  2  0
 18 21  1  0
 19 18  2  0
 20 16  1  0
 21 22  1  0
 22 25  1  0
 23 24  1  0
 22 23  1  1
 25 26  2  0
 25 27  1  0
M  END
$$$$
