FEC.pdb
     RDKit          3D

 27 27  0  0  1  0  0  0  0  0999 V2000
    5.9759  -16.6041   25.7189 N   0  0  0  0  0  0  0  0  0  0  0  0
    6.7721  -16.4580   24.5457 C   0  0  1  0  0  0  0  0  0  0  0  0
    6.6349  -15.1078   23.9214 C   0  0  0  0  0  0  0  0  0  0  0  0
    6.6554  -13.9859   24.8561 C   0  0  0  0  0  0  0  0  0  0  0  0
    7.6497  -13.0355   24.8619 C   0  0  0  0  0  0  0  0  0  0  0  0
    7.6902  -11.9797   25.7247 C   0  0  0  0  0  0  0  0  0  0  0  0
    6.6694  -11.8554   26.6524 C   0  0  0  0  0  0  0  0  0  0  0  0
    5.6326  -12.7929   26.6921 C   0  0  0  0  0  0  0  0  0  0  0  0
    5.6451  -13.8441   25.7899 C   0  0  0  0  0  0  0  0  0  0  0  0
    8.2207  -16.7767   24.8127 C   0  0  0  0  0  0  0  0  0  0  0  0
    8.5987  -17.3163   25.8857 O   0  0  0  0  0  0  0  0  0  0  0  0
    9.2253  -16.4791   23.8606 N   0  0  0  0  0  0  0  0  0  0  0  0
   10.6164  -16.9331   24.0111 C   0  0  1  0  0  0  0  0  0  0  0  0
   11.3914  -16.7586   22.7548 C   0  0  0  0  0  0  0  0  0  0  0  0
   11.3930  -17.9513   21.8684 C   0  0  0  0  0  0  0  0  0  0  0  0
   12.1118  -17.7820   20.5845 C   0  0  0  0  0  0  0  0  0  0  0  0
   13.3483  -17.9297   20.4316 O   0  0  0  0  0  0  0  0  0  0  0  0
   11.2274  -16.2917   25.2083 C   0  0  0  0  0  0  0  0  0  0  0  0
   11.9859  -15.3136   25.0340 O   0  0  0  0  0  0  0  0  0  0  0  0
   11.3206  -17.4295   19.4743 O   0  0  0  0  0  0  0  0  0  0  0  0
   10.9815  -16.7466   26.5242 N   0  0  0  0  0  0  0  0  0  0  0  0
   11.6088  -16.2348   27.7040 C   0  0  1  0  0  0  0  0  0  0  0  0
   10.6825  -15.3435   28.5120 C   0  0  0  0  0  0  0  0  0  0  0  0
   10.2141  -13.8885   27.5426 S   0  0  0  0  0  0  0  0  0  0  0  0
   11.9684  -17.4181   28.5678 C   0  0  0  0  0  0  0  0  0  0  0  0
   11.6065  -18.5580   28.1908 O   0  0  0  0  0  0  0  0  0  0  0  0
   12.6697  -17.2754   29.7347 O   0  0  0  0  0  0  0  0  0  0  0  0
  2  1  1  1
  3  2  1  0
  3  4  1  0
  4  9  2  0
  5  4  1  0
  5  6  2  0
  6  7  1  0
  7  8  2  0
  9  8  1  0
 10  2  1  0
 10 11  2  0
 12 10  1  0
 13 18  1  0
 13 12  1  0
 13 14  1  6
 15 14  1  0
 16 15  1  0
 17 16  2  0
 18 21  1  0
 19 18  2  0
 20 16  1  0
 21 22  1  0
 22 25  1  0
 23 24  1  0
 22 23  1  1
 25 26  2  0
 25 27  1  0
M  END
$$$$
