FEC.pdb
     RDKit          3D

 27 27  0  0  1  0  0  0  0  0999 V2000
    5.7741  -18.2437   24.1192 N   0  0  0  0  0  0  0  0  0  0  0  0
    6.4509  -16.9970   24.2587 C   0  0  1  0  0  0  0  0  0  0  0  0
    5.8765  -16.1486   25.3458 C   0  0  0  0  0  0  0  0  0  0  0  0
    6.4205  -14.7961   25.4318 C   0  0  0  0  0  0  0  0  0  0  0  0
    6.5513  -14.1169   26.6206 C   0  0  0  0  0  0  0  0  0  0  0  0
    7.0560  -12.8539   26.7257 C   0  0  0  0  0  0  0  0  0  0  0  0
    7.4618  -12.2148   25.5660 C   0  0  0  0  0  0  0  0  0  0  0  0
    7.3517  -12.8577   24.3291 C   0  0  0  0  0  0  0  0  0  0  0  0
    6.8314  -14.1409   24.2852 C   0  0  0  0  0  0  0  0  0  0  0  0
    7.9326  -17.1871   24.4580 C   0  0  0  0  0  0  0  0  0  0  0  0
    8.3944  -17.9336   25.3607 O   0  0  0  0  0  0  0  0  0  0  0  0
    8.8749  -16.5279   23.6323 N   0  0  0  0  0  0  0  0  0  0  0  0
   10.3211  -16.7799   23.7260 C   0  0  1  0  0  0  0  0  0  0  0  0
   11.0009  -16.5782   22.4197 C   0  0  0  0  0  0  0  0  0  0  0  0
   12.4686  -16.8083   22.4539 C   0  0  0  0  0  0  0  0  0  0  0  0
   13.1735  -16.5763   21.1720 C   0  0  0  0  0  0  0  0  0  0  0  0
   12.6255  -16.1789   20.1157 O   0  0  0  0  0  0  0  0  0  0  0  0
   10.8966  -15.9911   24.8505 C   0  0  0  0  0  0  0  0  0  0  0  0
   11.0896  -14.7682   24.6784 O   0  0  0  0  0  0  0  0  0  0  0  0
   14.5586  -16.8298   21.1730 O   0  0  0  0  0  0  0  0  0  0  0  0
   11.2295  -16.5722   26.0957 N   0  0  0  0  0  0  0  0  0  0  0  0
   11.3200  -15.8662   27.3370 C   0  0  1  0  0  0  0  0  0  0  0  0
   10.0234  -15.1642   27.6996 C   0  0  0  0  0  0  0  0  0  0  0  0
   10.2424  -14.1898   29.2091 S   0  0  0  0  0  0  0  0  0  0  0  0
   11.6002  -16.8868   28.4120 C   0  0  0  0  0  0  0  0  0  0  0  0
   11.1941  -18.0599   28.2348 O   0  0  0  0  0  0  0  0  0  0  0  0
   12.2769  -16.5640   29.5572 O   0  0  0  0  0  0  0  0  0  0  0  0
  2  1  1  1
  3  2  1  0
  3  4  1  0
  4  9  2  0
  5  4  1  0
  5  6  2  0
  6  7  1  0
  7  8  2  0
  9  8  1  0
 10  2  1  0
 10 11  2  0
 12 10  1  0
 13 18  1  0
 13 12  1  0
 13 14  1  6
 15 14  1  0
 16 15  1  0
 17 16  2  0
 18 21  1  0
 19 18  2  0
 20 16  1  0
 21 22  1  0
 22 25  1  0
 23 24  1  0
 22 23  1  1
 25 26  2  0
 25 27  1  0
M  END
$$$$
