FEC.pdb
     RDKit          3D

 27 27  0  0  1  0  0  0  0  0999 V2000
    5.6153  -17.9223   23.6923 N   0  0  0  0  0  0  0  0  0  0  0  0
    6.3978  -16.7840   24.0440 C   0  0  1  0  0  0  0  0  0  0  0  0
    5.9339  -16.1343   25.3066 C   0  0  0  0  0  0  0  0  0  0  0  0
    6.4902  -14.8088   25.5643 C   0  0  0  0  0  0  0  0  0  0  0  0
    6.7142  -13.8856   24.5697 C   0  0  0  0  0  0  0  0  0  0  0  0
    7.2327  -12.6425   24.7859 C   0  0  0  0  0  0  0  0  0  0  0  0
    7.5541  -12.2864   26.0851 C   0  0  0  0  0  0  0  0  0  0  0  0
    7.3476  -13.1856   27.1360 C   0  0  0  0  0  0  0  0  0  0  0  0
    6.8175  -14.4342   26.8547 C   0  0  0  0  0  0  0  0  0  0  0  0
    7.8646  -17.1205   24.1259 C   0  0  0  0  0  0  0  0  0  0  0  0
    8.2900  -18.0908   24.8064 O   0  0  0  0  0  0  0  0  0  0  0  0
    8.8335  -16.3526   23.4362 N   0  0  0  0  0  0  0  0  0  0  0  0
   10.2761  -16.6204   23.5418 C   0  0  1  0  0  0  0  0  0  0  0  0
   11.0554  -15.8397   22.5455 C   0  0  0  0  0  0  0  0  0  0  0  0
   12.5175  -16.1039   22.5721 C   0  0  0  0  0  0  0  0  0  0  0  0
   13.0398  -16.8762   21.4212 C   0  0  0  0  0  0  0  0  0  0  0  0
   13.8301  -17.8466   21.5099 O   0  0  0  0  0  0  0  0  0  0  0  0
   10.7187  -16.4391   24.9521 C   0  0  0  0  0  0  0  0  0  0  0  0
   10.9243  -15.2769   25.3638 O   0  0  0  0  0  0  0  0  0  0  0  0
   12.5978  -16.4656   20.1489 O   0  0  0  0  0  0  0  0  0  0  0  0
   10.9130  -17.5266   25.8347 N   0  0  0  0  0  0  0  0  0  0  0  0
   11.4403  -17.4277   27.1611 C   0  0  1  0  0  0  0  0  0  0  0  0
   10.3641  -17.1362   28.1917 C   0  0  0  0  0  0  0  0  0  0  0  0
    9.0780  -18.4082   28.1277 S   0  0  0  0  0  0  0  0  0  0  0  0
   12.0453  -18.7669   27.5022 C   0  0  0  0  0  0  0  0  0  0  0  0
   11.8883  -19.7111   26.6920 O   0  0  0  0  0  0  0  0  0  0  0  0
   12.7500  -18.9690   28.6582 O   0  0  0  0  0  0  0  0  0  0  0  0
  2  1  1  1
  3  2  1  0
  3  4  1  0
  4  9  2  0
  5  4  1  0
  5  6  2  0
  6  7  1  0
  7  8  2  0
  9  8  1  0
 10  2  1  0
 10 11  2  0
 12 10  1  0
 13 18  1  0
 13 12  1  0
 13 14  1  6
 15 14  1  0
 16 15  1  0
 17 16  2  0
 18 21  1  0
 19 18  2  0
 20 16  1  0
 21 22  1  0
 22 25  1  0
 23 24  1  0
 22 23  1  1
 25 26  2  0
 25 27  1  0
M  END
$$$$
