FEC.pdb
     RDKit          3D

 27 27  0  0  1  0  0  0  0  0999 V2000
    5.8364  -16.6286   24.8859 N   0  0  0  0  0  0  0  0  0  0  0  0
    7.1086  -15.9862   24.9052 C   0  0  1  0  0  0  0  0  0  0  0  0
    7.3713  -15.2677   26.1883 C   0  0  0  0  0  0  0  0  0  0  0  0
    6.9968  -13.8562   26.1980 C   0  0  0  0  0  0  0  0  0  0  0  0
    5.7920  -13.4055   26.6850 C   0  0  0  0  0  0  0  0  0  0  0  0
    5.4203  -12.0931   26.7043 C   0  0  0  0  0  0  0  0  0  0  0  0
    6.3083  -11.1559   26.2034 C   0  0  0  0  0  0  0  0  0  0  0  0
    7.5478  -11.5575   25.6954 C   0  0  0  0  0  0  0  0  0  0  0  0
    7.8698  -12.9048   25.7024 C   0  0  0  0  0  0  0  0  0  0  0  0
    8.2243  -16.9514   24.5971 C   0  0  0  0  0  0  0  0  0  0  0  0
    8.3058  -18.0776   25.1543 O   0  0  0  0  0  0  0  0  0  0  0  0
    9.2365  -16.6288   23.6612 N   0  0  0  0  0  0  0  0  0  0  0  0
   10.4967  -17.3818   23.5688 C   0  0  1  0  0  0  0  0  0  0  0  0
   11.3146  -16.9459   22.4067 C   0  0  0  0  0  0  0  0  0  0  0  0
   12.5971  -17.6808   22.2533 C   0  0  0  0  0  0  0  0  0  0  0  0
   13.4054  -17.2992   21.0723 C   0  0  0  0  0  0  0  0  0  0  0  0
   13.1046  -16.3890   20.2630 O   0  0  0  0  0  0  0  0  0  0  0  0
   11.2071  -17.3348   24.8768 C   0  0  0  0  0  0  0  0  0  0  0  0
   11.7507  -16.2620   25.2175 O   0  0  0  0  0  0  0  0  0  0  0  0
   14.5916  -18.0310   20.8719 O   0  0  0  0  0  0  0  0  0  0  0  0
   11.2876  -18.4518   25.7399 N   0  0  0  0  0  0  0  0  0  0  0  0
   11.9660  -18.4733   26.9994 C   0  0  1  0  0  0  0  0  0  0  0  0
   11.0058  -18.4374   28.1750 C   0  0  0  0  0  0  0  0  0  0  0  0
    9.9780  -16.9496   28.0960 S   0  0  0  0  0  0  0  0  0  0  0  0
   12.7278  -19.7732   27.0744 C   0  0  0  0  0  0  0  0  0  0  0  0
   12.6201  -20.5784   26.1191 O   0  0  0  0  0  0  0  0  0  0  0  0
   13.5204  -20.0864   28.1456 O   0  0  0  0  0  0  0  0  0  0  0  0
  2  1  1  1
  3  2  1  0
  3  4  1  0
  4  9  2  0
  5  4  1  0
  5  6  2  0
  6  7  1  0
  7  8  2  0
  9  8  1  0
 10  2  1  0
 10 11  2  0
 12 10  1  0
 13 18  1  0
 13 12  1  0
 13 14  1  6
 15 14  1  0
 16 15  1  0
 17 16  2  0
 18 21  1  0
 19 18  2  0
 20 16  1  0
 21 22  1  0
 22 25  1  0
 23 24  1  0
 22 23  1  1
 25 26  2  0
 25 27  1  0
M  END
$$$$
