EID.pdb
     RDKit          3D

 26 25  0  0  1  0  0  0  0  0999 V2000
   28.3364  -22.0380  -16.2350 N   0  0  0  0  0  0  0  0  0  0  0  0
   27.4023  -20.9815  -16.0075 C   0  0  1  0  0  0  0  0  0  0  0  0
   26.8540  -20.3752  -17.2652 C   0  0  0  0  0  0  0  0  0  0  0  0
   27.9642  -19.6724  -18.0061 C   0  0  0  0  0  0  0  0  0  0  0  0
   28.5708  -20.5421  -19.0482 C   0  0  0  0  0  0  0  0  0  0  0  0
   29.7824  -20.8712  -19.0577 O   0  0  0  0  0  0  0  0  0  0  0  0
   26.3358  -21.3691  -15.0494 C   0  0  0  0  0  0  0  0  0  0  0  0
   25.8970  -22.5458  -15.1200 O   0  0  0  0  0  0  0  0  0  0  0  0
   27.7239  -20.9988  -20.0521 O   0  0  0  0  0  0  0  0  0  0  0  0
   26.7623  -22.0564  -10.8032 C   0  0  0  0  0  0  0  0  0  0  0  0
   26.6663  -20.6488  -11.3033 C   0  0  0  0  0  0  0  0  0  0  0  0
   25.2473  -20.2657  -11.7091 C   0  0  2  0  0  0  0  0  0  0  0  0
   24.2646  -20.7399  -10.6608 C   0  0  0  0  0  0  0  0  0  0  0  0
   24.8913  -20.9188  -13.0155 C   0  0  2  0  0  0  0  0  0  0  0  0
   25.7964  -20.5085  -14.0822 N   0  0  0  0  0  0  0  0  0  0  0  0
   23.5330  -20.6080  -13.4741 C   0  0  0  0  0  0  0  0  0  0  0  0
   23.1640  -19.4080  -13.4771 O   0  0  0  0  0  0  0  0  0  0  0  0
   22.5970  -21.5769  -13.9189 N   0  0  0  0  0  0  0  0  0  0  0  0
   21.2143  -21.2116  -14.2966 C   0  0  1  0  0  0  0  0  0  0  0  0
   20.5941  -22.3747  -15.0404 C   0  0  0  0  0  0  0  0  0  0  0  0
   19.2232  -22.1093  -15.5266 C   0  0  0  0  0  0  0  0  0  0  0  0
   18.6214  -21.0163  -15.4547 O   0  0  0  0  0  0  0  0  0  0  0  0
   20.4818  -20.9540  -13.0126 C   0  0  0  0  0  0  0  0  0  0  0  0
   20.6097  -21.7975  -12.0606 O   0  0  0  0  0  0  0  0  0  0  0  0
   18.4980  -23.1542  -16.1302 O   0  0  0  0  0  0  0  0  0  0  0  0
   19.6744  -19.8673  -12.7782 O   0  0  0  0  0  0  0  0  0  0  0  0
  2  1  1  6
  2  7  1  0
  3  2  1  0
  4  3  1  0
  5  4  1  0
  6  5  2  0
  7  8  2  0
  9  5  1  0
 10 11  1  0
 12 11  1  0
 12 14  1  0
 12 13  1  1
 14 15  1  6
 15  7  1  0
 16 17  2  0
 16 14  1  0
 18 16  1  0
 19 18  1  0
 19 23  1  0
 19 20  1  1
 21 20  1  0
 21 22  2  0
 23 26  1  0
 24 23  2  0
 25 21  1  0
M  END
$$$$
