EID.pdb
     RDKit          3D

 26 25  0  0  1  0  0  0  0  0999 V2000
   22.2985  -20.0572  -16.8099 N   0  0  0  0  0  0  0  0  0  0  0  0
   21.2486  -19.7997  -15.8762 C   0  0  1  0  0  0  0  0  0  0  0  0
   19.8868  -19.7232  -16.5004 C   0  0  0  0  0  0  0  0  0  0  0  0
   19.7362  -18.4009  -17.2104 C   0  0  0  0  0  0  0  0  0  0  0  0
   18.3723  -18.2293  -17.7767 C   0  0  0  0  0  0  0  0  0  0  0  0
   18.1343  -18.1772  -19.0083 O   0  0  0  0  0  0  0  0  0  0  0  0
   21.2913  -20.7211  -14.7122 C   0  0  0  0  0  0  0  0  0  0  0  0
   21.1104  -21.9451  -14.9387 O   0  0  0  0  0  0  0  0  0  0  0  0
   17.3262  -18.1239  -16.8667 O   0  0  0  0  0  0  0  0  0  0  0  0
   23.3540  -21.3123   -8.8994 C   0  0  0  0  0  0  0  0  0  0  0  0
   22.3610  -21.6699   -9.9609 C   0  0  0  0  0  0  0  0  0  0  0  0
   22.3675  -20.6861  -11.1259 C   0  0  2  0  0  0  0  0  0  0  0  0
   21.8460  -19.3413  -10.6690 C   0  0  0  0  0  0  0  0  0  0  0  0
   21.4744  -21.1862  -12.2270 C   0  0  2  0  0  0  0  0  0  0  0  0
   21.5191  -20.3095  -13.3910 N   0  0  0  0  0  0  0  0  0  0  0  0
   20.0649  -21.2924  -11.8346 C   0  0  0  0  0  0  0  0  0  0  0  0
   19.3224  -20.2938  -12.0005 O   0  0  0  0  0  0  0  0  0  0  0  0
   19.4752  -22.4551  -11.2751 N   0  0  0  0  0  0  0  0  0  0  0  0
   18.0168  -22.5613  -11.0523 C   0  0  1  0  0  0  0  0  0  0  0  0
   17.3799  -23.1429  -12.2961 C   0  0  0  0  0  0  0  0  0  0  0  0
   15.9156  -23.3183  -12.1904 C   0  0  0  0  0  0  0  0  0  0  0  0
   15.2138  -23.0203  -11.2002 O   0  0  0  0  0  0  0  0  0  0  0  0
   17.8361  -23.4855   -9.8842 C   0  0  0  0  0  0  0  0  0  0  0  0
   16.6481  -23.7275   -9.4791 O   0  0  0  0  0  0  0  0  0  0  0  0
   15.2127  -23.8665  -13.2801 O   0  0  0  0  0  0  0  0  0  0  0  0
   18.8624  -24.1000   -9.2081 O   0  0  0  0  0  0  0  0  0  0  0  0
  2  1  1  6
  2  7  1  0
  3  2  1  0
  4  3  1  0
  5  4  1  0
  6  5  2  0
  7  8  2  0
  9  5  1  0
 10 11  1  0
 12 11  1  0
 12 14  1  0
 12 13  1  1
 14 15  1  6
 15  7  1  0
 16 17  2  0
 16 14  1  0
 18 16  1  0
 19 18  1  0
 19 23  1  0
 19 20  1  6
 21 20  1  0
 21 22  2  0
 23 26  1  0
 24 23  2  0
 25 21  1  0
M  END
$$$$
