EID.pdb
     RDKit          3D

 26 25  0  0  1  0  0  0  0  0999 V2000
   18.1336  -12.6451  -17.3888 N   0  0  0  0  0  0  0  0  0  0  0  0
   18.9703  -11.5446  -17.7487 C   0  0  1  0  0  0  0  0  0  0  0  0
   18.2705  -10.4872  -18.5501 C   0  0  0  0  0  0  0  0  0  0  0  0
   17.7637  -11.0892  -19.8370 C   0  0  0  0  0  0  0  0  0  0  0  0
   17.1242  -10.0700  -20.7103 C   0  0  0  0  0  0  0  0  0  0  0  0
   17.7695   -9.2891  -21.4520 O   0  0  0  0  0  0  0  0  0  0  0  0
   19.6998  -10.9863  -16.5817 C   0  0  0  0  0  0  0  0  0  0  0  0
   19.1220  -11.0309  -15.4653 O   0  0  0  0  0  0  0  0  0  0  0  0
   15.7356  -10.0040  -20.6808 O   0  0  0  0  0  0  0  0  0  0  0  0
   22.6745  -12.3219  -13.7458 C   0  0  0  0  0  0  0  0  0  0  0  0
   22.9843  -11.9880  -15.1716 C   0  0  0  0  0  0  0  0  0  0  0  0
   23.0902  -10.4861  -15.4129 C   0  0  2  0  0  0  0  0  0  0  0  0
   23.8114   -9.8270  -14.2576 C   0  0  0  0  0  0  0  0  0  0  0  0
   21.7169   -9.8828  -15.5143 C   0  0  2  0  0  0  0  0  0  0  0  0
   20.9804  -10.4189  -16.6525 N   0  0  0  0  0  0  0  0  0  0  0  0
   21.7286   -8.4242  -15.6705 C   0  0  0  0  0  0  0  0  0  0  0  0
   22.2778   -7.9375  -16.6891 O   0  0  0  0  0  0  0  0  0  0  0  0
   21.1576   -7.5153  -14.7428 N   0  0  0  0  0  0  0  0  0  0  0  0
   21.2015   -6.0521  -14.9549 C   0  0  1  0  0  0  0  0  0  0  0  0
   19.7832   -5.5239  -14.9692 C   0  0  0  0  0  0  0  0  0  0  0  0
   19.6963   -4.0490  -15.0261 C   0  0  0  0  0  0  0  0  0  0  0  0
   20.6390   -3.2712  -15.2869 O   0  0  0  0  0  0  0  0  0  0  0  0
   21.9664   -5.4821  -13.7966 C   0  0  0  0  0  0  0  0  0  0  0  0
   21.8986   -6.0819  -12.6698 O   0  0  0  0  0  0  0  0  0  0  0  0
   18.4595   -3.4270  -14.7699 O   0  0  0  0  0  0  0  0  0  0  0  0
   22.7444   -4.3511  -13.8549 O   0  0  0  0  0  0  0  0  0  0  0  0
  2  1  1  1
  2  7  1  0
  3  2  1  0
  4  3  1  0
  5  4  1  0
  6  5  2  0
  7  8  2  0
  9  5  1  0
 10 11  1  0
 12 11  1  0
 12 14  1  0
 12 13  1  1
 14 15  1  6
 15  7  1  0
 16 17  2  0
 16 14  1  0
 18 16  1  0
 19 18  1  0
 19 23  1  0
 19 20  1  1
 21 20  1  0
 21 22  2  0
 23 26  1  0
 24 23  2  0
 25 21  1  0
M  END
$$$$
