EID.pdb
     RDKit          3D

 26 25  0  0  1  0  0  0  0  0999 V2000
   27.7562  -22.5507  -16.4930 N   0  0  0  0  0  0  0  0  0  0  0  0
   26.9964  -21.4137  -16.0800 C   0  0  1  0  0  0  0  0  0  0  0  0
   26.4092  -20.6309  -17.2168 C   0  0  0  0  0  0  0  0  0  0  0  0
   27.5090  -20.2308  -18.1685 C   0  0  0  0  0  0  0  0  0  0  0  0
   28.1753  -18.9708  -17.7455 C   0  0  0  0  0  0  0  0  0  0  0  0
   29.2703  -18.9374  -17.1324 O   0  0  0  0  0  0  0  0  0  0  0  0
   25.9898  -21.7554  -15.0429 C   0  0  0  0  0  0  0  0  0  0  0  0
   25.4919  -22.9099  -15.0808 O   0  0  0  0  0  0  0  0  0  0  0  0
   27.5247  -17.7831  -18.0612 O   0  0  0  0  0  0  0  0  0  0  0  0
   27.0017  -20.9202   -9.9981 C   0  0  0  0  0  0  0  0  0  0  0  0
   26.3811  -21.4674  -11.2455 C   0  0  0  0  0  0  0  0  0  0  0  0
   25.1038  -20.7323  -11.6367 C   0  0  2  0  0  0  0  0  0  0  0  0
   24.0177  -21.0073  -10.6198 C   0  0  0  0  0  0  0  0  0  0  0  0
   24.6234  -21.2128  -12.9778 C   0  0  2  0  0  0  0  0  0  0  0  0
   25.5676  -20.8751  -14.0361 N   0  0  0  0  0  0  0  0  0  0  0  0
   23.3290  -20.6468  -13.3729 C   0  0  0  0  0  0  0  0  0  0  0  0
   23.2306  -19.3998  -13.4798 O   0  0  0  0  0  0  0  0  0  0  0  0
   22.1687  -21.4162  -13.6456 N   0  0  0  0  0  0  0  0  0  0  0  0
   20.8830  -20.7860  -14.0169 C   0  0  1  0  0  0  0  0  0  0  0  0
   20.0558  -21.7941  -14.7852 C   0  0  0  0  0  0  0  0  0  0  0  0
   18.7095  -21.3052  -15.1525 C   0  0  0  0  0  0  0  0  0  0  0  0
   18.2798  -20.1453  -14.9745 O   0  0  0  0  0  0  0  0  0  0  0  0
   20.2070  -20.4193  -12.7285 C   0  0  0  0  0  0  0  0  0  0  0  0
   19.6849  -19.2570  -12.6257 O   0  0  0  0  0  0  0  0  0  0  0  0
   17.8016  -22.1943  -15.7587 O   0  0  0  0  0  0  0  0  0  0  0  0
   20.1042  -21.2474  -11.6369 O   0  0  0  0  0  0  0  0  0  0  0  0
  2  1  1  6
  2  7  1  0
  3  2  1  0
  4  3  1  0
  5  4  1  0
  6  5  2  0
  7  8  2  0
  9  5  1  0
 10 11  1  0
 12 11  1  0
 12 14  1  0
 12 13  1  1
 14 15  1  6
 15  7  1  0
 16 17  2  0
 16 14  1  0
 18 16  1  0
 19 18  1  0
 19 23  1  0
 19 20  1  1
 21 20  1  0
 21 22  2  0
 23 26  1  0
 24 23  2  0
 25 21  1  0
M  END
$$$$
