EID.pdb
     RDKit          3D

 26 25  0  0  1  0  0  0  0  0999 V2000
   22.2701  -10.3939  -19.2413 N   0  0  0  0  0  0  0  0  0  0  0  0
   20.8585  -10.2890  -19.0492 C   0  0  1  0  0  0  0  0  0  0  0  0
   20.1124  -11.5606  -19.3258 C   0  0  0  0  0  0  0  0  0  0  0  0
   20.5315  -12.6126  -18.3293 C   0  0  0  0  0  0  0  0  0  0  0  0
   19.8213  -13.8996  -18.5521 C   0  0  0  0  0  0  0  0  0  0  0  0
   19.3206  -14.5846  -17.6267 O   0  0  0  0  0  0  0  0  0  0  0  0
   20.5117   -9.6996  -17.7309 C   0  0  0  0  0  0  0  0  0  0  0  0
   19.2951   -9.6749  -17.4124 O   0  0  0  0  0  0  0  0  0  0  0  0
   19.7237  -14.3403  -19.8673 O   0  0  0  0  0  0  0  0  0  0  0  0
   23.3896  -10.6462  -13.3794 C   0  0  0  0  0  0  0  0  0  0  0  0
   22.2293  -10.2791  -14.2509 C   0  0  0  0  0  0  0  0  0  0  0  0
   22.1473   -8.7801  -14.5183 C   0  0  2  0  0  0  0  0  0  0  0  0
   21.7308   -8.0529  -13.2585 C   0  0  0  0  0  0  0  0  0  0  0  0
   21.1215   -8.5020  -15.5815 C   0  0  2  0  0  0  0  0  0  0  0  0
   21.4516   -9.1753  -16.8318 N   0  0  0  0  0  0  0  0  0  0  0  0
   20.9772   -7.0767  -15.8969 C   0  0  0  0  0  0  0  0  0  0  0  0
   21.8438   -6.5364  -16.6271 O   0  0  0  0  0  0  0  0  0  0  0  0
   19.9173   -6.2570  -15.4308 N   0  0  0  0  0  0  0  0  0  0  0  0
   19.6707   -4.9083  -15.9858 C   0  0  1  0  0  0  0  0  0  0  0  0
   19.4639   -5.0319  -17.4801 C   0  0  0  0  0  0  0  0  0  0  0  0
   19.1367   -3.7525  -18.1451 C   0  0  0  0  0  0  0  0  0  0  0  0
   19.2590   -2.6153  -17.6416 O   0  0  0  0  0  0  0  0  0  0  0  0
   18.4256   -4.4007  -15.3199 C   0  0  0  0  0  0  0  0  0  0  0  0
   17.4286   -5.1934  -15.2111 O   0  0  0  0  0  0  0  0  0  0  0  0
   18.6406   -3.7744  -19.4625 O   0  0  0  0  0  0  0  0  0  0  0  0
   18.2729   -3.1336  -14.8110 O   0  0  0  0  0  0  0  0  0  0  0  0
  2  1  1  1
  2  7  1  0
  3  2  1  0
  4  3  1  0
  5  4  1  0
  6  5  2  0
  7  8  2  0
  9  5  1  0
 10 11  1  0
 12 11  1  0
 12 14  1  0
 12 13  1  1
 14 15  1  6
 15  7  1  0
 16 17  2  0
 16 14  1  0
 18 16  1  0
 19 18  1  0
 19 23  1  0
 19 20  1  6
 21 20  1  0
 21 22  2  0
 23 26  1  0
 24 23  2  0
 25 21  1  0
M  END
$$$$
