EID.pdb
     RDKit          3D

 26 25  0  0  1  0  0  0  0  0999 V2000
   28.5012  -21.6589  -16.1154 N   0  0  0  0  0  0  0  0  0  0  0  0
   27.5686  -20.6882  -15.6372 C   0  0  1  0  0  0  0  0  0  0  0  0
   27.1111  -19.7182  -16.6859 C   0  0  0  0  0  0  0  0  0  0  0  0
   28.3086  -19.0068  -17.2649 C   0  0  0  0  0  0  0  0  0  0  0  0
   27.9147  -18.0075  -18.2928 C   0  0  0  0  0  0  0  0  0  0  0  0
   28.4684  -17.9124  -19.4156 O   0  0  0  0  0  0  0  0  0  0  0  0
   26.4372  -21.3084  -14.9017 C   0  0  0  0  0  0  0  0  0  0  0  0
   25.8615  -22.2850  -15.4466 O   0  0  0  0  0  0  0  0  0  0  0  0
   26.8739  -17.1470  -17.9616 O   0  0  0  0  0  0  0  0  0  0  0  0
   25.2837  -19.8522   -9.4667 C   0  0  0  0  0  0  0  0  0  0  0  0
   25.1587  -19.9766  -10.9531 C   0  0  0  0  0  0  0  0  0  0  0  0
   25.1338  -21.4278  -11.4205 C   0  0  2  0  0  0  0  0  0  0  0  0
   26.4665  -22.0850  -11.1355 C   0  0  0  0  0  0  0  0  0  0  0  0
   24.8888  -21.4872  -12.9026 C   0  0  2  0  0  0  0  0  0  0  0  0
   25.9796  -20.8728  -13.6497 N   0  0  0  0  0  0  0  0  0  0  0  0
   23.6580  -20.8069  -13.3200 C   0  0  0  0  0  0  0  0  0  0  0  0
   23.7162  -19.5833  -13.5950 O   0  0  0  0  0  0  0  0  0  0  0  0
   22.3936  -21.4397  -13.4362 N   0  0  0  0  0  0  0  0  0  0  0  0
   21.1803  -20.6936  -13.8353 C   0  0  1  0  0  0  0  0  0  0  0  0
   20.6618  -21.2748  -15.1331 C   0  0  0  0  0  0  0  0  0  0  0  0
   19.3970  -20.6650  -15.5967 C   0  0  0  0  0  0  0  0  0  0  0  0
   18.4502  -21.2719  -16.1418 O   0  0  0  0  0  0  0  0  0  0  0  0
   20.1831  -20.8911  -12.7317 C   0  0  0  0  0  0  0  0  0  0  0  0
   20.4080  -21.8045  -11.8661 O   0  0  0  0  0  0  0  0  0  0  0  0
   19.2034  -19.2809  -15.4273 O   0  0  0  0  0  0  0  0  0  0  0  0
   19.0326  -20.1560  -12.5776 O   0  0  0  0  0  0  0  0  0  0  0  0
  2  1  1  6
  2  7  1  0
  3  2  1  0
  4  3  1  0
  5  4  1  0
  6  5  2  0
  7  8  2  0
  9  5  1  0
 10 11  1  0
 12 11  1  0
 12 14  1  0
 12 13  1  6
 14 15  1  6
 15  7  1  0
 16 17  2  0
 16 14  1  0
 18 16  1  0
 19 18  1  0
 19 23  1  0
 19 20  1  6
 21 20  1  0
 21 22  2  0
 23 26  1  0
 24 23  2  0
 25 21  1  0
M  END
$$$$
