EID.pdb
     RDKit          3D

 26 25  0  0  1  0  0  0  0  0999 V2000
   28.6509  -21.6164  -15.9905 N   0  0  0  0  0  0  0  0  0  0  0  0
   28.0802  -20.5849  -15.1837 C   0  0  1  0  0  0  0  0  0  0  0  0
   27.8949  -19.2829  -15.9052 C   0  0  0  0  0  0  0  0  0  0  0  0
   27.2303  -19.5388  -17.2349 C   0  0  0  0  0  0  0  0  0  0  0  0
   27.0973  -18.2931  -18.0356 C   0  0  0  0  0  0  0  0  0  0  0  0
   28.0774  -17.6208  -18.4401 O   0  0  0  0  0  0  0  0  0  0  0  0
   26.8466  -21.0317  -14.4878 C   0  0  0  0  0  0  0  0  0  0  0  0
   26.2213  -22.0016  -14.9883 O   0  0  0  0  0  0  0  0  0  0  0  0
   25.8046  -17.8777  -18.3355 O   0  0  0  0  0  0  0  0  0  0  0  0
   26.8962  -20.7157   -9.1134 C   0  0  0  0  0  0  0  0  0  0  0  0
   26.5301  -21.2883  -10.4471 C   0  0  0  0  0  0  0  0  0  0  0  0
   25.3458  -20.5728  -11.0879 C   0  0  2  0  0  0  0  0  0  0  0  0
   24.0636  -20.9690  -10.3893 C   0  0  0  0  0  0  0  0  0  0  0  0
   25.2311  -20.9618  -12.5355 C   0  0  2  0  0  0  0  0  0  0  0  0
   26.3451  -20.4412  -13.3188 N   0  0  0  0  0  0  0  0  0  0  0  0
   24.0038  -20.4769  -13.1763 C   0  0  0  0  0  0  0  0  0  0  0  0
   23.8634  -19.2398  -13.3373 O   0  0  0  0  0  0  0  0  0  0  0  0
   22.9536  -21.3150  -13.6315 N   0  0  0  0  0  0  0  0  0  0  0  0
   21.7348  -20.7660  -14.2648 C   0  0  1  0  0  0  0  0  0  0  0  0
   21.2562  -21.7429  -15.3172 C   0  0  0  0  0  0  0  0  0  0  0  0
   19.9618  -21.3739  -15.9293 C   0  0  0  0  0  0  0  0  0  0  0  0
   19.3155  -20.3296  -15.6977 O   0  0  0  0  0  0  0  0  0  0  0  0
   20.7179  -20.6278  -13.1702 C   0  0  0  0  0  0  0  0  0  0  0  0
   19.9937  -19.5748  -13.1431 O   0  0  0  0  0  0  0  0  0  0  0  0
   19.3718  -22.2497  -16.8603 O   0  0  0  0  0  0  0  0  0  0  0  0
   20.5022  -21.5582  -12.1823 O   0  0  0  0  0  0  0  0  0  0  0  0
  2  1  1  6
  2  7  1  0
  3  2  1  0
  4  3  1  0
  5  4  1  0
  6  5  2  0
  7  8  2  0
  9  5  1  0
 10 11  1  0
 12 11  1  0
 12 14  1  0
 12 13  1  1
 14 15  1  6
 15  7  1  0
 16 17  2  0
 16 14  1  0
 18 16  1  0
 19 18  1  0
 19 23  1  0
 19 20  1  6
 21 20  1  0
 21 22  2  0
 23 26  1  0
 24 23  2  0
 25 21  1  0
M  END
$$$$
