EID.pdb
     RDKit          3D

 26 25  0  0  1  0  0  0  0  0999 V2000
   20.8113  -23.1182  -13.9363 N   0  0  0  0  0  0  0  0  0  0  0  0
   20.3837  -21.9179  -13.2906 C   0  0  1  0  0  0  0  0  0  0  0  0
   19.5487  -22.1518  -12.0666 C   0  0  0  0  0  0  0  0  0  0  0  0
   18.6561  -23.3468  -12.2917 C   0  0  0  0  0  0  0  0  0  0  0  0
   17.2369  -23.0461  -11.9666 C   0  0  0  0  0  0  0  0  0  0  0  0
   16.2916  -23.8431  -12.1844 O   0  0  0  0  0  0  0  0  0  0  0  0
   21.5084  -20.9801  -13.0429 C   0  0  0  0  0  0  0  0  0  0  0  0
   21.2310  -19.8750  -12.5100 O   0  0  0  0  0  0  0  0  0  0  0  0
   16.9762  -21.8072  -11.3914 O   0  0  0  0  0  0  0  0  0  0  0  0
   26.0959  -22.2297  -10.6319 C   0  0  0  0  0  0  0  0  0  0  0  0
   24.9360  -21.4734  -11.2002 C   0  0  0  0  0  0  0  0  0  0  0  0
   25.1731  -21.0301  -12.6398 C   0  0  2  0  0  0  0  0  0  0  0  0
   26.3375  -20.0658  -12.6980 C   0  0  0  0  0  0  0  0  0  0  0  0
   23.9545  -20.3267  -13.1693 C   0  0  2  0  0  0  0  0  0  0  0  0
   22.8457  -21.2529  -13.3653 N   0  0  0  0  0  0  0  0  0  0  0  0
   24.1771  -19.6591  -14.4564 C   0  0  0  0  0  0  0  0  0  0  0  0
   25.1117  -18.8252  -14.5423 O   0  0  0  0  0  0  0  0  0  0  0  0
   23.4036  -19.8911  -15.6228 N   0  0  0  0  0  0  0  0  0  0  0  0
   23.8006  -19.3547  -16.9428 C   0  0  1  0  0  0  0  0  0  0  0  0
   25.1385  -19.9514  -17.3234 C   0  0  0  0  0  0  0  0  0  0  0  0
   25.6066  -19.5570  -18.6694 C   0  0  0  0  0  0  0  0  0  0  0  0
   25.0530  -18.7261  -19.4209 O   0  0  0  0  0  0  0  0  0  0  0  0
   22.7360  -19.7845  -17.9088 C   0  0  0  0  0  0  0  0  0  0  0  0
   22.1648  -20.9126  -17.7210 O   0  0  0  0  0  0  0  0  0  0  0  0
   26.7757  -20.1470  -19.1863 O   0  0  0  0  0  0  0  0  0  0  0  0
   22.3221  -19.0493  -18.9933 O   0  0  0  0  0  0  0  0  0  0  0  0
  2  1  1  1
  2  7  1  0
  3  2  1  0
  4  3  1  0
  5  4  1  0
  6  5  2  0
  7  8  2  0
  9  5  1  0
 10 11  1  0
 12 11  1  0
 12 14  1  0
 12 13  1  1
 14 15  1  6
 15  7  1  0
 16 17  2  0
 16 14  1  0
 18 16  1  0
 19 18  1  0
 19 23  1  0
 19 20  1  6
 21 20  1  0
 21 22  2  0
 23 26  1  0
 24 23  2  0
 25 21  1  0
M  END
$$$$
