EID.pdb
     RDKit          3D

 26 25  0  0  1  0  0  0  0  0999 V2000
   19.5375  -15.6124  -16.6636 N   0  0  0  0  0  0  0  0  0  0  0  0
   19.7159  -14.3160  -17.2362 C   0  0  1  0  0  0  0  0  0  0  0  0
   18.4383  -13.6687  -17.6823 C   0  0  0  0  0  0  0  0  0  0  0  0
   17.7319  -14.5773  -18.6574 C   0  0  0  0  0  0  0  0  0  0  0  0
   16.8824  -15.5805  -17.9628 C   0  0  0  0  0  0  0  0  0  0  0  0
   15.9727  -15.2771  -17.1526 O   0  0  0  0  0  0  0  0  0  0  0  0
   20.5346  -13.4267  -16.3733 C   0  0  0  0  0  0  0  0  0  0  0  0
   20.1824  -13.3053  -15.1719 O   0  0  0  0  0  0  0  0  0  0  0  0
   17.1347  -16.9179  -18.2479 O   0  0  0  0  0  0  0  0  0  0  0  0
   26.2857  -11.8250  -15.2537 C   0  0  0  0  0  0  0  0  0  0  0  0
   24.8425  -11.4294  -15.2187 C   0  0  0  0  0  0  0  0  0  0  0  0
   23.9628  -12.3433  -16.0648 C   0  0  2  0  0  0  0  0  0  0  0  0
   24.3797  -12.2617  -17.5170 C   0  0  0  0  0  0  0  0  0  0  0  0
   22.5260  -11.9125  -15.9643 C   0  0  2  0  0  0  0  0  0  0  0  0
   21.6641  -12.7232  -16.8160 N   0  0  0  0  0  0  0  0  0  0  0  0
   22.3057  -10.5150  -16.3520 C   0  0  0  0  0  0  0  0  0  0  0  0
   22.5159  -10.1864  -17.5453 O   0  0  0  0  0  0  0  0  0  0  0  0
   21.8675   -9.4978  -15.4653 N   0  0  0  0  0  0  0  0  0  0  0  0
   21.6732   -8.1016  -15.9132 C   0  0  1  0  0  0  0  0  0  0  0  0
   20.4684   -8.0516  -16.8280 C   0  0  0  0  0  0  0  0  0  0  0  0
   20.0850   -6.6830  -17.2356 C   0  0  0  0  0  0  0  0  0  0  0  0
   19.0847   -6.0532  -16.8299 O   0  0  0  0  0  0  0  0  0  0  0  0
   21.4296   -7.2924  -14.6734 C   0  0  0  0  0  0  0  0  0  0  0  0
   21.3220   -6.0237  -14.7873 O   0  0  0  0  0  0  0  0  0  0  0  0
   20.8922   -5.9942  -18.1609 O   0  0  0  0  0  0  0  0  0  0  0  0
   21.3113   -7.8168  -13.4089 O   0  0  0  0  0  0  0  0  0  0  0  0
  2  1  1  1
  2  7  1  0
  3  2  1  0
  4  3  1  0
  5  4  1  0
  6  5  2  0
  7  8  2  0
  9  5  1  0
 10 11  1  0
 12 11  1  0
 12 14  1  0
 12 13  1  6
 14 15  1  6
 15  7  1  0
 16 17  2  0
 16 14  1  0
 18 16  1  0
 19 18  1  0
 19 23  1  0
 19 20  1  6
 21 20  1  0
 21 22  2  0
 23 26  1  0
 24 23  2  0
 25 21  1  0
M  END
$$$$
