EID.pdb
     RDKit          3D

 26 25  0  0  1  0  0  0  0  0999 V2000
   26.1897  -25.3015  -16.0652 N   0  0  0  0  0  0  0  0  0  0  0  0
   26.0182  -23.8868  -15.9662 C   0  0  1  0  0  0  0  0  0  0  0  0
   25.6336  -23.2304  -17.2590 C   0  0  0  0  0  0  0  0  0  0  0  0
   26.2346  -24.0004  -18.4084 C   0  0  0  0  0  0  0  0  0  0  0  0
   27.6226  -23.5581  -18.7050 C   0  0  0  0  0  0  0  0  0  0  0  0
   28.2077  -22.6419  -18.0768 O   0  0  0  0  0  0  0  0  0  0  0  0
   25.1230  -23.5050  -14.8444 C   0  0  0  0  0  0  0  0  0  0  0  0
   24.1873  -24.2956  -14.5587 O   0  0  0  0  0  0  0  0  0  0  0  0
   28.2805  -24.2145  -19.7393 O   0  0  0  0  0  0  0  0  0  0  0  0
   27.0675  -20.9748  -10.4866 C   0  0  0  0  0  0  0  0  0  0  0  0
   26.1944  -21.8362  -11.3447 C   0  0  0  0  0  0  0  0  0  0  0  0
   25.0719  -21.0509  -12.0145 C   0  0  2  0  0  0  0  0  0  0  0  0
   24.0618  -20.6085  -10.9786 C   0  0  0  0  0  0  0  0  0  0  0  0
   24.3651  -21.9181  -13.0187 C   0  0  2  0  0  0  0  0  0  0  0  0
   25.2595  -22.3277  -14.0946 N   0  0  0  0  0  0  0  0  0  0  0  0
   23.2170  -21.2616  -13.6535 C   0  0  0  0  0  0  0  0  0  0  0  0
   23.4357  -20.3188  -14.4531 O   0  0  0  0  0  0  0  0  0  0  0  0
   21.8634  -21.6200  -13.4257 N   0  0  0  0  0  0  0  0  0  0  0  0
   20.7455  -20.9059  -14.0803 C   0  0  1  0  0  0  0  0  0  0  0  0
   19.6302  -21.8945  -14.3442 C   0  0  0  0  0  0  0  0  0  0  0  0
   18.3989  -21.2758  -14.8803 C   0  0  0  0  0  0  0  0  0  0  0  0
   18.2500  -20.0663  -15.1572 O   0  0  0  0  0  0  0  0  0  0  0  0
   20.2978  -19.8495  -13.1133 C   0  0  0  0  0  0  0  0  0  0  0  0
   20.2836  -20.1334  -11.8670 O   0  0  0  0  0  0  0  0  0  0  0  0
   17.2722  -22.0872  -15.1135 O   0  0  0  0  0  0  0  0  0  0  0  0
   19.8974  -18.5841  -13.4689 O   0  0  0  0  0  0  0  0  0  0  0  0
  2  1  1  6
  2  7  1  0
  3  2  1  0
  4  3  1  0
  5  4  1  0
  6  5  2  0
  7  8  2  0
  9  5  1  0
 10 11  1  0
 12 11  1  0
 12 14  1  0
 12 13  1  1
 14 15  1  6
 15  7  1  0
 16 17  2  0
 16 14  1  0
 18 16  1  0
 19 18  1  0
 19 23  1  0
 19 20  1  1
 21 20  1  0
 21 22  2  0
 23 26  1  0
 24 23  2  0
 25 21  1  0
M  END
$$$$
