EID.pdb
     RDKit          3D

 26 25  0  0  1  0  0  0  0  0999 V2000
   27.5379  -22.3932  -17.2090 N   0  0  0  0  0  0  0  0  0  0  0  0
   26.9391  -21.2432  -16.6095 C   0  0  1  0  0  0  0  0  0  0  0  0
   26.1544  -20.3982  -17.5687 C   0  0  0  0  0  0  0  0  0  0  0  0
   27.0611  -19.9303  -18.6796 C   0  0  0  0  0  0  0  0  0  0  0  0
   27.8105  -18.7030  -18.3021 C   0  0  0  0  0  0  0  0  0  0  0  0
   29.0323  -18.5363  -18.5380 O   0  0  0  0  0  0  0  0  0  0  0  0
   26.1684  -21.5825  -15.3861 C   0  0  0  0  0  0  0  0  0  0  0  0
   25.4215  -22.5934  -15.4370 O   0  0  0  0  0  0  0  0  0  0  0  0
   27.0904  -17.7053  -17.6544 O   0  0  0  0  0  0  0  0  0  0  0  0
   28.6175  -20.9625  -10.8644 C   0  0  0  0  0  0  0  0  0  0  0  0
   27.5900  -21.5950  -11.7502 C   0  0  0  0  0  0  0  0  0  0  0  0
   26.2653  -20.8398  -11.7444 C   0  0  2  0  0  0  0  0  0  0  0  0
   25.4446  -21.2462  -10.5400 C   0  0  0  0  0  0  0  0  0  0  0  0
   25.4784  -21.1710  -12.9818 C   0  0  2  0  0  0  0  0  0  0  0  0
   26.2250  -20.8492  -14.1920 N   0  0  0  0  0  0  0  0  0  0  0  0
   24.2016  -20.4545  -13.0726 C   0  0  0  0  0  0  0  0  0  0  0  0
   24.2090  -19.2733  -13.4979 O   0  0  0  0  0  0  0  0  0  0  0  0
   22.9461  -21.0070  -12.7102 N   0  0  0  0  0  0  0  0  0  0  0  0
   21.6734  -20.3122  -13.0022 C   0  0  1  0  0  0  0  0  0  0  0  0
   21.5531  -20.1353  -14.5005 C   0  0  0  0  0  0  0  0  0  0  0  0
   20.2364  -19.6233  -14.9371 C   0  0  0  0  0  0  0  0  0  0  0  0
   19.3978  -19.0499  -14.2094 O   0  0  0  0  0  0  0  0  0  0  0  0
   20.5808  -21.2013  -12.4853 C   0  0  0  0  0  0  0  0  0  0  0  0
   20.7944  -22.4607  -12.4367 O   0  0  0  0  0  0  0  0  0  0  0  0
   19.8564  -19.7758  -16.2841 O   0  0  0  0  0  0  0  0  0  0  0  0
   19.3530  -20.7602  -12.0541 O   0  0  0  0  0  0  0  0  0  0  0  0
  2  1  1  6
  2  7  1  0
  3  2  1  0
  4  3  1  0
  5  4  1  0
  6  5  2  0
  7  8  2  0
  9  5  1  0
 10 11  1  0
 12 11  1  0
 12 14  1  0
 12 13  1  1
 14 15  1  6
 15  7  1  0
 16 17  2  0
 16 14  1  0
 18 16  1  0
 19 18  1  0
 19 23  1  0
 19 20  1  6
 21 20  1  0
 21 22  2  0
 23 26  1  0
 24 23  2  0
 25 21  1  0
M  END
$$$$
