TNQ.pdb
     RDKit          3D

 25 24  0  0  1  0  0  0  0  0999 V2000
   20.6271  -10.0697  -18.3269 C   0  0  0  0  0  0  0  0  0  0  0  0
   21.2593  -10.5839  -17.0453 C   0  0  1  0  0  0  0  0  0  0  0  0
   22.0351  -11.6839  -17.3730 O   0  0  0  0  0  0  0  0  0  0  0  0
   22.0789   -9.4689  -16.4727 C   0  0  2  0  0  0  0  0  0  0  0  0
   22.9664  -10.0408  -15.4749 N   0  0  0  0  0  0  0  0  0  0  0  0
   21.2839   -8.3842  -15.8656 C   0  0  0  0  0  0  0  0  0  0  0  0
   20.3428   -7.8270  -16.4997 O   0  0  0  0  0  0  0  0  0  0  0  0
   18.6801   -8.3954  -13.3534 N   0  0  0  0  0  0  0  0  0  0  0  0
   19.4639   -8.0344  -12.2279 C   0  0  0  0  0  0  0  0  0  0  0  0
   19.1519   -8.3940  -11.0490 O   0  0  0  0  0  0  0  0  0  0  0  0
   20.6734   -7.2200  -12.4319 C   0  0  0  0  0  0  0  0  0  0  0  0
   20.8848   -6.8744  -13.8848 C   0  0  2  0  0  0  0  0  0  0  0  0
   21.5629   -7.9488  -14.5602 N   0  0  0  0  0  0  0  0  0  0  0  0
   21.6783   -5.6205  -14.0144 C   0  0  0  0  0  0  0  0  0  0  0  0
   22.9095   -5.6490  -13.7126 O   0  0  0  0  0  0  0  0  0  0  0  0
   21.9535   -3.4571  -19.1507 N   0  0  0  0  0  0  0  0  0  0  0  0
   22.6057   -2.3714  -18.5042 C   0  0  0  0  0  0  0  0  0  0  0  0
   23.1814   -1.5082  -19.2008 O   0  0  0  0  0  0  0  0  0  0  0  0
   22.6229   -2.2326  -17.0211 C   0  0  0  0  0  0  0  0  0  0  0  0
   21.8891   -3.3920  -16.4219 C   0  0  0  0  0  0  0  0  0  0  0  0
   21.8736   -3.3305  -14.9255 C   0  0  2  0  0  0  0  0  0  0  0  0
   21.0478   -4.4441  -14.4644 N   0  0  0  0  0  0  0  0  0  0  0  0
   21.2665   -2.1053  -14.3884 C   0  0  0  0  0  0  0  0  0  0  0  0
   19.9116   -2.0695  -14.0049 O   0  0  0  0  0  0  0  0  0  0  0  0
   21.8883   -1.0280  -14.2341 O   0  0  0  0  0  0  0  0  0  0  0  0
  2  1  1  6
  2  3  1  0
  4  2  1  0
  4  6  1  0
  4  5  1  1
  6  7  2  0
  9  8  1  0
 10  9  2  0
 11  9  1  0
 12 11  1  1
 12 14  1  0
 13 12  1  0
 13  6  1  0
 14 15  2  0
 16 17  1  0
 17 19  1  0
 18 17  2  0
 19 20  1  0
 21 20  1  6
 21 23  1  0
 22 14  1  0
 22 21  1  0
 23 25  2  0
 23 24  1  0
M  END
$$$$
