TNQ.pdb
     RDKit          3D

 25 24  0  0  1  0  0  0  0  0999 V2000
   22.3270  -21.0955  -13.3114 C   0  0  0  0  0  0  0  0  0  0  0  0
   23.2556  -21.4549  -12.1646 C   0  0  1  0  0  0  0  0  0  0  0  0
   22.7450  -22.5874  -11.5514 O   0  0  0  0  0  0  0  0  0  0  0  0
   24.6136  -21.6959  -12.7482 C   0  0  2  0  0  0  0  0  0  0  0  0
   25.4980  -22.0834  -11.6628 N   0  0  0  0  0  0  0  0  0  0  0  0
   25.1809  -20.5343  -13.4594 C   0  0  0  0  0  0  0  0  0  0  0  0
   25.5744  -19.5096  -12.8323 O   0  0  0  0  0  0  0  0  0  0  0  0
   28.3145  -18.7381  -17.7344 N   0  0  0  0  0  0  0  0  0  0  0  0
   26.9229  -18.9930  -17.8337 C   0  0  0  0  0  0  0  0  0  0  0  0
   26.1767  -18.3444  -18.6329 O   0  0  0  0  0  0  0  0  0  0  0  0
   26.3267  -20.0392  -16.9864 C   0  0  0  0  0  0  0  0  0  0  0  0
   25.8778  -19.4991  -15.6515 C   0  0  2  0  0  0  0  0  0  0  0  0
   25.2938  -20.5485  -14.8590 N   0  0  0  0  0  0  0  0  0  0  0  0
   24.8886  -18.4010  -15.8371 C   0  0  0  0  0  0  0  0  0  0  0  0
   23.6886  -18.7066  -16.1097 O   0  0  0  0  0  0  0  0  0  0  0  0
   26.1456  -12.3398  -14.8198 N   0  0  0  0  0  0  0  0  0  0  0  0
   24.8788  -12.2863  -15.4635 C   0  0  0  0  0  0  0  0  0  0  0  0
   24.3588  -11.1721  -15.6872 O   0  0  0  0  0  0  0  0  0  0  0  0
   24.1532  -13.5191  -15.8792 C   0  0  0  0  0  0  0  0  0  0  0  0
   25.0208  -14.7058  -15.5947 C   0  0  0  0  0  0  0  0  0  0  0  0
   24.3381  -15.9931  -15.9411 C   0  0  2  0  0  0  0  0  0  0  0  0
   25.3060  -17.0621  -15.7069 N   0  0  0  0  0  0  0  0  0  0  0  0
   23.9359  -16.0906  -17.3507 C   0  0  0  0  0  0  0  0  0  0  0  0
   24.8775  -16.3669  -18.3611 O   0  0  0  0  0  0  0  0  0  0  0  0
   22.7581  -15.9400  -17.7524 O   0  0  0  0  0  0  0  0  0  0  0  0
  2  1  1  6
  2  3  1  0
  4  2  1  0
  4  6  1  0
  4  5  1  1
  6  7  2  0
  9  8  1  0
 10  9  2  0
 11  9  1  0
 12 11  1  6
 12 14  1  0
 13 12  1  0
 13  6  1  0
 14 15  2  0
 16 17  1  0
 17 19  1  0
 18 17  2  0
 19 20  1  0
 21 20  1  6
 21 23  1  0
 22 14  1  0
 22 21  1  0
 23 25  2  0
 23 24  1  0
M  END
$$$$
