TNQ.pdb
     RDKit          3D

 25 24  0  0  1  0  0  0  0  0999 V2000
   21.1125  -10.5211  -19.3548 C   0  0  0  0  0  0  0  0  0  0  0  0
   20.1339  -11.5066  -18.7402 C   0  0  1  0  0  0  0  0  0  0  0  0
   20.5221  -12.7789  -19.1274 O   0  0  0  0  0  0  0  0  0  0  0  0
   20.1945  -11.3287  -17.2544 C   0  0  2  0  0  0  0  0  0  0  0  0
   19.3807  -12.3702  -16.6515 N   0  0  0  0  0  0  0  0  0  0  0  0
   19.7362  -10.0072  -16.7846 C   0  0  0  0  0  0  0  0  0  0  0  0
   18.6329   -9.5220  -17.1660 O   0  0  0  0  0  0  0  0  0  0  0  0
   18.4213   -8.8283  -13.5477 N   0  0  0  0  0  0  0  0  0  0  0  0
   19.6687   -8.3754  -13.0475 C   0  0  0  0  0  0  0  0  0  0  0  0
   19.9709   -8.4648  -11.8158 O   0  0  0  0  0  0  0  0  0  0  0  0
   20.6410   -7.7852  -13.9826 C   0  0  0  0  0  0  0  0  0  0  0  0
   20.2098   -7.9395  -15.4197 C   0  0  2  0  0  0  0  0  0  0  0  0
   20.5267   -9.2593  -15.8972 N   0  0  0  0  0  0  0  0  0  0  0  0
   20.8772   -6.9217  -16.2784 C   0  0  0  0  0  0  0  0  0  0  0  0
   22.1242   -7.0259  -16.4833 O   0  0  0  0  0  0  0  0  0  0  0  0
   21.7446   -5.7734  -22.1317 N   0  0  0  0  0  0  0  0  0  0  0  0
   20.6150   -5.6759  -21.2734 C   0  0  0  0  0  0  0  0  0  0  0  0
   19.5333   -5.2585  -21.7399 O   0  0  0  0  0  0  0  0  0  0  0  0
   20.6829   -6.0566  -19.8349 C   0  0  0  0  0  0  0  0  0  0  0  0
   20.1512   -4.9237  -19.0129 C   0  0  0  0  0  0  0  0  0  0  0  0
   20.7852   -4.8715  -17.6569 C   0  0  2  0  0  0  0  0  0  0  0  0
   20.1144   -5.8776  -16.8369 N   0  0  0  0  0  0  0  0  0  0  0  0
   20.6117   -3.5845  -16.9701 C   0  0  0  0  0  0  0  0  0  0  0  0
   21.4513   -2.4887  -17.2499 O   0  0  0  0  0  0  0  0  0  0  0  0
   19.7290   -3.3674  -16.1071 O   0  0  0  0  0  0  0  0  0  0  0  0
  2  1  1  6
  2  3  1  0
  4  2  1  0
  4  6  1  0
  4  5  1  1
  6  7  2  0
  9  8  1  0
 10  9  2  0
 11  9  1  0
 12 11  1  1
 12 14  1  0
 13 12  1  0
 13  6  1  0
 14 15  2  0
 16 17  1  0
 17 19  1  0
 18 17  2  0
 19 20  1  0
 21 20  1  6
 21 23  1  0
 22 14  1  0
 22 21  1  0
 23 25  2  0
 23 24  1  0
M  END
$$$$
