TNQ.pdb
     RDKit          3D

 25 24  0  0  1  0  0  0  0  0999 V2000
   16.4319  -11.3905  -10.5944 C   0  0  0  0  0  0  0  0  0  0  0  0
   14.9167  -11.4826  -10.5471 C   0  0  1  0  0  0  0  0  0  0  0  0
   14.5888  -12.6901   -9.9524 O   0  0  0  0  0  0  0  0  0  0  0  0
   14.4226  -10.3129   -9.7531 C   0  0  2  0  0  0  0  0  0  0  0  0
   12.9970  -10.4944   -9.5404 N   0  0  0  0  0  0  0  0  0  0  0  0
   14.6663   -9.0041  -10.3891 C   0  0  0  0  0  0  0  0  0  0  0  0
   14.0327   -8.6497  -11.4240 O   0  0  0  0  0  0  0  0  0  0  0  0
   14.5209   -5.6080   -7.2470 N   0  0  0  0  0  0  0  0  0  0  0  0
   14.7350   -5.4501   -8.6401 C   0  0  0  0  0  0  0  0  0  0  0  0
   13.8333   -4.9920   -9.4105 O   0  0  0  0  0  0  0  0  0  0  0  0
   16.0394   -5.8279   -9.2092 C   0  0  0  0  0  0  0  0  0  0  0  0
   15.8978   -6.8030  -10.3512 C   0  0  2  0  0  0  0  0  0  0  0  0
   15.6163   -8.1220   -9.8496 N   0  0  0  0  0  0  0  0  0  0  0  0
   17.1411   -6.8330  -11.1709 C   0  0  0  0  0  0  0  0  0  0  0  0
   18.2014   -7.2895  -10.6465 O   0  0  0  0  0  0  0  0  0  0  0  0
   16.3469   -9.5590  -14.1186 N   0  0  0  0  0  0  0  0  0  0  0  0
   17.7377   -9.7661  -14.3307 C   0  0  0  0  0  0  0  0  0  0  0  0
   18.1838  -10.9335  -14.3310 O   0  0  0  0  0  0  0  0  0  0  0  0
   18.6785   -8.6327  -14.5526 C   0  0  0  0  0  0  0  0  0  0  0  0
   17.9062   -7.3509  -14.5027 C   0  0  0  0  0  0  0  0  0  0  0  0
   18.3001   -6.5064  -13.3301 C   0  0  2  0  0  0  0  0  0  0  0  0
   17.1095   -6.3577  -12.4964 N   0  0  0  0  0  0  0  0  0  0  0  0
   18.7315   -5.1501  -13.6941 C   0  0  0  0  0  0  0  0  0  0  0  0
   20.0380   -4.8991  -14.1567 O   0  0  0  0  0  0  0  0  0  0  0  0
   17.9924   -4.1402  -13.6237 O   0  0  0  0  0  0  0  0  0  0  0  0
  2  1  1  1
  2  3  1  0
  4  2  1  0
  4  6  1  0
  4  5  1  6
  6  7  2  0
  9  8  1  0
 10  9  2  0
 11  9  1  0
 12 11  1  1
 12 14  1  0
 13 12  1  0
 13  6  1  0
 14 15  2  0
 16 17  1  0
 17 19  1  0
 18 17  2  0
 19 20  1  0
 21 20  1  6
 21 23  1  0
 22 14  1  0
 22 21  1  0
 23 25  2  0
 23 24  1  0
M  END
$$$$
