TNQ.pdb
     RDKit          3D

 25 24  0  0  1  0  0  0  0  0999 V2000
   16.2022  -10.3433  -10.8504 C   0  0  0  0  0  0  0  0  0  0  0  0
   14.7192  -10.3779  -10.5251 C   0  0  1  0  0  0  0  0  0  0  0  0
   14.4111  -11.6636  -10.1111 O   0  0  0  0  0  0  0  0  0  0  0  0
   14.4744   -9.3670   -9.4476 C   0  0  2  0  0  0  0  0  0  0  0  0
   13.0677   -9.4336   -9.0911 N   0  0  0  0  0  0  0  0  0  0  0  0
   14.8254   -7.9844   -9.8248 C   0  0  0  0  0  0  0  0  0  0  0  0
   14.1714   -7.3595  -10.7078 O   0  0  0  0  0  0  0  0  0  0  0  0
   13.9885   -4.7044   -9.1686 N   0  0  0  0  0  0  0  0  0  0  0  0
   14.9576   -4.5084   -8.1518 C   0  0  0  0  0  0  0  0  0  0  0  0
   14.7101   -3.8204   -7.1117 O   0  0  0  0  0  0  0  0  0  0  0  0
   16.2880   -5.1200   -8.3063 C   0  0  0  0  0  0  0  0  0  0  0  0
   16.3646   -6.0091   -9.5223 C   0  0  2  0  0  0  0  0  0  0  0  0
   15.9029   -7.3338   -9.2024 N   0  0  0  0  0  0  0  0  0  0  0  0
   17.7616   -6.0751  -10.0351 C   0  0  0  0  0  0  0  0  0  0  0  0
   18.5807   -6.8555   -9.4626 O   0  0  0  0  0  0  0  0  0  0  0  0
   20.8933   -8.7599  -11.6488 N   0  0  0  0  0  0  0  0  0  0  0  0
   21.1813   -8.1725  -12.9114 C   0  0  0  0  0  0  0  0  0  0  0  0
   22.2096   -8.5289  -13.5257 O   0  0  0  0  0  0  0  0  0  0  0  0
   20.2934   -7.1448  -13.5235 C   0  0  0  0  0  0  0  0  0  0  0  0
   19.1704   -6.8551  -12.5765 C   0  0  0  0  0  0  0  0  0  0  0  0
   19.3841   -5.5734  -11.8317 C   0  0  2  0  0  0  0  0  0  0  0  0
   18.1357   -5.2763  -11.1333 N   0  0  0  0  0  0  0  0  0  0  0  0
   19.6650   -4.4224  -12.7002 C   0  0  0  0  0  0  0  0  0  0  0  0
   20.9865   -4.0142  -12.9668 O   0  0  0  0  0  0  0  0  0  0  0  0
   18.7768   -3.7339  -13.2556 O   0  0  0  0  0  0  0  0  0  0  0  0
  2  1  1  1
  2  3  1  0
  4  2  1  0
  4  6  1  0
  4  5  1  6
  6  7  2  0
  9  8  1  0
 10  9  2  0
 11  9  1  0
 12 11  1  1
 12 14  1  0
 13 12  1  0
 13  6  1  0
 14 15  2  0
 16 17  1  0
 17 19  1  0
 18 17  2  0
 19 20  1  0
 21 20  1  6
 21 23  1  0
 22 14  1  0
 22 21  1  0
 23 25  2  0
 23 24  1  0
M  END
$$$$
