TNQ.pdb
     RDKit          3D

 25 24  0  0  1  0  0  0  0  0999 V2000
   15.1715  -13.1748  -17.0528 C   0  0  0  0  0  0  0  0  0  0  0  0
   15.7902  -14.1017  -16.0210 C   0  0  1  0  0  0  0  0  0  0  0  0
   15.2861  -15.3726  -16.2439 O   0  0  0  0  0  0  0  0  0  0  0  0
   17.2756  -14.0463  -16.2044 C   0  0  2  0  0  0  0  0  0  0  0  0
   17.8521  -15.1638  -15.4768 N   0  0  0  0  0  0  0  0  0  0  0  0
   17.8943  -12.7864  -15.7496 C   0  0  0  0  0  0  0  0  0  0  0  0
   17.7250  -12.3605  -14.5714 O   0  0  0  0  0  0  0  0  0  0  0  0
   22.2387  -11.9934  -17.9399 N   0  0  0  0  0  0  0  0  0  0  0  0
   21.5866  -11.2727  -16.9071 C   0  0  0  0  0  0  0  0  0  0  0  0
   21.9868  -11.3170  -15.7012 O   0  0  0  0  0  0  0  0  0  0  0  0
   20.4126  -10.4496  -17.2424 C   0  0  0  0  0  0  0  0  0  0  0  0
   19.2423  -10.7364  -16.3350 C   0  0  2  0  0  0  0  0  0  0  0  0
   18.6895  -12.0323  -16.6274 N   0  0  0  0  0  0  0  0  0  0  0  0
   18.1896   -9.6946  -16.4937 C   0  0  0  0  0  0  0  0  0  0  0  0
   17.4324   -9.7485  -17.5093 O   0  0  0  0  0  0  0  0  0  0  0  0
   13.5293   -8.7122  -16.0078 N   0  0  0  0  0  0  0  0  0  0  0  0
   13.6296   -7.4104  -15.4445 C   0  0  0  0  0  0  0  0  0  0  0  0
   12.6569   -6.6316  -15.5405 O   0  0  0  0  0  0  0  0  0  0  0  0
   14.8597   -6.9476  -14.7433 C   0  0  0  0  0  0  0  0  0  0  0  0
   15.8891   -8.0327  -14.8132 C   0  0  0  0  0  0  0  0  0  0  0  0
   17.0377   -7.6570  -15.6979 C   0  0  2  0  0  0  0  0  0  0  0  0
   18.0619   -8.6839  -15.5211 N   0  0  0  0  0  0  0  0  0  0  0  0
   17.6623   -6.3745  -15.3467 C   0  0  0  0  0  0  0  0  0  0  0  0
   18.8452   -6.3232  -14.5838 O   0  0  0  0  0  0  0  0  0  0  0  0
   17.2047   -5.2586  -15.6884 O   0  0  0  0  0  0  0  0  0  0  0  0
  2  1  1  6
  2  3  1  0
  4  2  1  0
  4  6  1  0
  4  5  1  1
  6  7  2  0
  9  8  1  0
 10  9  2  0
 11  9  1  0
 12 11  1  6
 12 14  1  0
 13 12  1  0
 13  6  1  0
 14 15  2  0
 16 17  1  0
 17 19  1  0
 18 17  2  0
 19 20  1  0
 21 20  1  1
 21 23  1  0
 22 14  1  0
 22 21  1  0
 23 25  2  0
 23 24  1  0
M  END
$$$$
