TNQ.pdb
     RDKit          3D

 25 24  0  0  1  0  0  0  0  0999 V2000
   17.8735  -12.7767  -18.4974 C   0  0  0  0  0  0  0  0  0  0  0  0
   18.4042  -14.0127  -17.7922 C   0  0  1  0  0  0  0  0  0  0  0  0
   17.6377  -15.0910  -18.2033 O   0  0  0  0  0  0  0  0  0  0  0  0
   19.8426  -14.1655  -18.1803 C   0  0  2  0  0  0  0  0  0  0  0  0
   20.3098  -15.4355  -17.6518 N   0  0  0  0  0  0  0  0  0  0  0  0
   20.7168  -13.0776  -17.7016 C   0  0  0  0  0  0  0  0  0  0  0  0
   20.8104  -12.8050  -16.4708 O   0  0  0  0  0  0  0  0  0  0  0  0
   24.5794  -12.6331  -18.5312 N   0  0  0  0  0  0  0  0  0  0  0  0
   24.3253  -11.6888  -19.5583 C   0  0  0  0  0  0  0  0  0  0  0  0
   25.0754  -11.5896  -20.5800 O   0  0  0  0  0  0  0  0  0  0  0  0
   23.1588  -10.7985  -19.4369 C   0  0  0  0  0  0  0  0  0  0  0  0
   22.2750  -11.1787  -18.2752 C   0  0  2  0  0  0  0  0  0  0  0  0
   21.4665  -12.3194  -18.6153 N   0  0  0  0  0  0  0  0  0  0  0  0
   21.3971  -10.0385  -17.8905 C   0  0  0  0  0  0  0  0  0  0  0  0
   20.3713   -9.7990  -18.5963 O   0  0  0  0  0  0  0  0  0  0  0  0
   17.4836  -10.2034  -14.5598 N   0  0  0  0  0  0  0  0  0  0  0  0
   17.5615   -8.7894  -14.4310 C   0  0  0  0  0  0  0  0  0  0  0  0
   16.6626   -8.1870  -13.8057 O   0  0  0  0  0  0  0  0  0  0  0  0
   18.6828   -8.0049  -15.0194 C   0  0  0  0  0  0  0  0  0  0  0  0
   19.6145   -8.9476  -15.7159 C   0  0  0  0  0  0  0  0  0  0  0  0
   20.7870   -8.2337  -16.3150 C   0  0  2  0  0  0  0  0  0  0  0  0
   21.7246   -9.2609  -16.7627 N   0  0  0  0  0  0  0  0  0  0  0  0
   21.5152   -7.3855  -15.3618 C   0  0  0  0  0  0  0  0  0  0  0  0
   21.0020   -6.1388  -14.9539 O   0  0  0  0  0  0  0  0  0  0  0  0
   22.6176   -7.6958  -14.8522 O   0  0  0  0  0  0  0  0  0  0  0  0
  2  1  1  6
  2  3  1  0
  4  2  1  0
  4  6  1  0
  4  5  1  1
  6  7  2  0
  9  8  1  0
 10  9  2  0
 11  9  1  0
 12 11  1  6
 12 14  1  0
 13 12  1  0
 13  6  1  0
 14 15  2  0
 16 17  1  0
 17 19  1  0
 18 17  2  0
 19 20  1  0
 21 20  1  1
 21 23  1  0
 22 14  1  0
 22 21  1  0
 23 25  2  0
 23 24  1  0
M  END
$$$$
