TNQ.pdb
     RDKit          3D

 25 24  0  0  1  0  0  0  0  0999 V2000
   16.7593  -11.2894  -11.1940 C   0  0  0  0  0  0  0  0  0  0  0  0
   15.2420  -11.3226  -11.1374 C   0  0  1  0  0  0  0  0  0  0  0  0
   14.8621  -12.6232  -10.8486 O   0  0  0  0  0  0  0  0  0  0  0  0
   14.8135  -10.3622  -10.0712 C   0  0  2  0  0  0  0  0  0  0  0  0
   13.3791  -10.5096   -9.8949 N   0  0  0  0  0  0  0  0  0  0  0  0
   15.1349   -8.9521  -10.3630 C   0  0  0  0  0  0  0  0  0  0  0  0
   14.6324   -8.3576  -11.3591 O   0  0  0  0  0  0  0  0  0  0  0  0
   14.4861   -5.6070   -7.0053 N   0  0  0  0  0  0  0  0  0  0  0  0
   15.0390   -5.5551   -8.3103 C   0  0  0  0  0  0  0  0  0  0  0  0
   14.3933   -5.0751   -9.2947 O   0  0  0  0  0  0  0  0  0  0  0  0
   16.4001   -6.0720   -8.5300 C   0  0  0  0  0  0  0  0  0  0  0  0
   16.4931   -6.9074   -9.7824 C   0  0  2  0  0  0  0  0  0  0  0  0
   16.0134   -8.2403   -9.5303 N   0  0  0  0  0  0  0  0  0  0  0  0
   17.8993   -6.9644  -10.2702 C   0  0  0  0  0  0  0  0  0  0  0  0
   18.7745   -7.5105   -9.5328 O   0  0  0  0  0  0  0  0  0  0  0  0
   19.7731  -10.2612  -14.0879 N   0  0  0  0  0  0  0  0  0  0  0  0
   20.9227   -9.4245  -14.1108 C   0  0  0  0  0  0  0  0  0  0  0  0
   21.9514   -9.8233  -14.6978 O   0  0  0  0  0  0  0  0  0  0  0  0
   20.9369   -8.0866  -13.4559 C   0  0  0  0  0  0  0  0  0  0  0  0
   19.6320   -7.8837  -12.7503 C   0  0  0  0  0  0  0  0  0  0  0  0
   19.5803   -6.5667  -12.0389 C   0  0  2  0  0  0  0  0  0  0  0  0
   18.2204   -6.4151  -11.5268 N   0  0  0  0  0  0  0  0  0  0  0  0
   19.8333   -5.4114  -12.9104 C   0  0  0  0  0  0  0  0  0  0  0  0
   18.7727   -4.6843  -13.4851 O   0  0  0  0  0  0  0  0  0  0  0  0
   20.9791   -4.9949  -13.2019 O   0  0  0  0  0  0  0  0  0  0  0  0
  2  1  1  1
  2  3  1  0
  4  2  1  0
  4  6  1  0
  4  5  1  6
  6  7  2  0
  9  8  1  0
 10  9  2  0
 11  9  1  0
 12 11  1  1
 12 14  1  0
 13 12  1  0
 13  6  1  0
 14 15  2  0
 16 17  1  0
 17 19  1  0
 18 17  2  0
 19 20  1  0
 21 20  1  6
 21 23  1  0
 22 14  1  0
 22 21  1  0
 23 25  2  0
 23 24  1  0
M  END
$$$$
