TNQ.pdb
     RDKit          3D

 25 24  0  0  1  0  0  0  0  0999 V2000
   15.4114  -10.0499  -16.7851 C   0  0  0  0  0  0  0  0  0  0  0  0
   15.1211  -11.0490  -15.6786 C   0  0  1  0  0  0  0  0  0  0  0  0
   14.0043  -11.7775  -16.0546 O   0  0  0  0  0  0  0  0  0  0  0  0
   16.3333  -11.9157  -15.5299 C   0  0  2  0  0  0  0  0  0  0  0  0
   16.0202  -12.9497  -14.5587 N   0  0  0  0  0  0  0  0  0  0  0  0
   17.5470  -11.1904  -15.1080 C   0  0  0  0  0  0  0  0  0  0  0  0
   17.6208  -10.6405  -13.9722 O   0  0  0  0  0  0  0  0  0  0  0  0
   23.2127  -10.6954  -14.9952 N   0  0  0  0  0  0  0  0  0  0  0  0
   22.3001  -10.3266  -16.0162 C   0  0  0  0  0  0  0  0  0  0  0  0
   22.5216   -9.3443  -16.7923 O   0  0  0  0  0  0  0  0  0  0  0  0
   21.0610  -11.1047  -16.1813 C   0  0  0  0  0  0  0  0  0  0  0  0
   19.8482  -10.3460  -15.7032 C   0  0  2  0  0  0  0  0  0  0  0  0
   18.6511  -11.0983  -15.9707 N   0  0  0  0  0  0  0  0  0  0  0  0
   19.7653   -9.0172  -16.3710 C   0  0  0  0  0  0  0  0  0  0  0  0
   19.3786   -8.9690  -17.5777 O   0  0  0  0  0  0  0  0  0  0  0  0
   16.3743   -4.7677  -15.1697 N   0  0  0  0  0  0  0  0  0  0  0  0
   17.3106   -3.9720  -15.8855 C   0  0  0  0  0  0  0  0  0  0  0  0
   17.0257   -2.7821  -16.1402 O   0  0  0  0  0  0  0  0  0  0  0  0
   18.6210   -4.5148  -16.3406 C   0  0  0  0  0  0  0  0  0  0  0  0
   18.7350   -5.9372  -15.8871 C   0  0  0  0  0  0  0  0  0  0  0  0
   20.0272   -6.5595  -16.3187 C   0  0  2  0  0  0  0  0  0  0  0  0
   20.1154   -7.8571  -15.6532 N   0  0  0  0  0  0  0  0  0  0  0  0
   21.2165   -5.7974  -15.9150 C   0  0  0  0  0  0  0  0  0  0  0  0
   21.5626   -4.5912  -16.5548 O   0  0  0  0  0  0  0  0  0  0  0  0
   21.9932   -6.1506  -14.9967 O   0  0  0  0  0  0  0  0  0  0  0  0
  2  1  1  6
  2  3  1  0
  4  2  1  0
  4  6  1  0
  4  5  1  1
  6  7  2  0
  9  8  1  0
 10  9  2  0
 11  9  1  0
 12 11  1  6
 12 14  1  0
 13 12  1  0
 13  6  1  0
 14 15  2  0
 16 17  1  0
 17 19  1  0
 18 17  2  0
 19 20  1  0
 21 20  1  1
 21 23  1  0
 22 14  1  0
 22 21  1  0
 23 25  2  0
 23 24  1  0
M  END
$$$$
