TNQ.pdb
     RDKit          3D

 25 24  0  0  1  0  0  0  0  0999 V2000
   26.4002  -20.0359  -17.1962 C   0  0  0  0  0  0  0  0  0  0  0  0
   26.8217  -20.4944  -15.8110 C   0  0  1  0  0  0  0  0  0  0  0  0
   27.8291  -21.4322  -15.9688 O   0  0  0  0  0  0  0  0  0  0  0  0
   27.2922  -19.2848  -15.0639 C   0  0  2  0  0  0  0  0  0  0  0  0
   27.8052  -19.7308  -13.7800 N   0  0  0  0  0  0  0  0  0  0  0  0
   26.2505  -18.2613  -14.8531 C   0  0  0  0  0  0  0  0  0  0  0  0
   25.2796  -18.4655  -14.0697 O   0  0  0  0  0  0  0  0  0  0  0  0
   25.3718  -12.2602  -16.1632 N   0  0  0  0  0  0  0  0  0  0  0  0
   25.0167  -13.5407  -15.6676 C   0  0  0  0  0  0  0  0  0  0  0  0
   23.9215  -13.7437  -15.0547 O   0  0  0  0  0  0  0  0  0  0  0  0
   25.9438  -14.6666  -15.8698 C   0  0  0  0  0  0  0  0  0  0  0  0
   25.3443  -15.9794  -15.4313 C   0  0  2  0  0  0  0  0  0  0  0  0
   26.3216  -17.0313  -15.5265 N   0  0  0  0  0  0  0  0  0  0  0  0
   24.1591  -16.3187  -16.2672 C   0  0  0  0  0  0  0  0  0  0  0  0
   24.3520  -16.7830  -17.4313 O   0  0  0  0  0  0  0  0  0  0  0  0
   18.9952  -19.8004  -17.5537 N   0  0  0  0  0  0  0  0  0  0  0  0
   19.4728  -19.1094  -16.4062 C   0  0  0  0  0  0  0  0  0  0  0  0
   19.8803  -19.7699  -15.4266 O   0  0  0  0  0  0  0  0  0  0  0  0
   19.5018  -17.6217  -16.3373 C   0  0  0  0  0  0  0  0  0  0  0  0
   20.7520  -17.1981  -15.6306 C   0  0  0  0  0  0  0  0  0  0  0  0
   21.7113  -16.5130  -16.5545 C   0  0  2  0  0  0  0  0  0  0  0  0
   22.8647  -16.1172  -15.7497 N   0  0  0  0  0  0  0  0  0  0  0  0
   21.1781  -15.2847  -17.1588 C   0  0  0  0  0  0  0  0  0  0  0  0
   21.4725  -14.0178  -16.6183 O   0  0  0  0  0  0  0  0  0  0  0  0
   20.4414  -15.2687  -18.1728 O   0  0  0  0  0  0  0  0  0  0  0  0
  2  1  1  6
  2  3  1  0
  4  2  1  0
  4  6  1  0
  4  5  1  1
  6  7  2  0
  9  8  1  0
 10  9  2  0
 11  9  1  0
 12 11  1  6
 12 14  1  0
 13 12  1  0
 13  6  1  0
 14 15  2  0
 16 17  1  0
 17 19  1  0
 18 17  2  0
 19 20  1  0
 21 20  1  1
 21 23  1  0
 22 14  1  0
 22 21  1  0
 23 25  2  0
 23 24  1  0
M  END
$$$$
