QLW.pdb
     RDKit          3D

 32 33  0  0  1  0  0  0  0  0999 V2000
   12.0127  -20.5708   16.9734 N   0  0  0  0  0  0  0  0  0  0  0  0
   10.8980  -21.4450   17.2917 C   0  0  0  0  0  0  0  0  0  0  0  0
   11.0148  -22.6173   16.8855 O   0  0  0  0  0  0  0  0  0  0  0  0
    9.7464  -20.9268   18.0349 C   0  0  0  0  0  0  0  0  0  0  0  0
    9.8550  -19.5091   18.4619 C   0  0  0  0  0  0  0  0  0  0  0  0
    9.6839  -19.2979   19.9421 C   0  0  2  0  0  0  0  0  0  0  0  0
    8.4691  -19.8086   20.4790 N   0  0  0  0  0  0  0  0  0  0  0  0
    9.8817  -17.8544   20.2796 C   0  0  0  0  0  0  0  0  0  0  0  0
   10.9098  -17.2498   19.8623 O   0  0  0  0  0  0  0  0  0  0  0  0
    8.4842  -12.8299   20.4541 C   0  0  0  0  0  0  0  0  0  0  0  0
    7.8236  -13.5919   21.5977 C   0  0  1  0  0  0  0  0  0  0  0  0
    6.3503  -13.1526   21.5569 C   0  0  0  0  0  0  0  0  0  0  0  0
    7.8191  -15.0625   21.2766 C   0  0  0  0  0  0  0  0  0  0  0  0
    9.1845  -15.6979   21.3527 C   0  0  2  0  0  0  0  0  0  0  0  0
    8.9698  -17.1234   21.0501 N   0  0  0  0  0  0  0  0  0  0  0  0
    9.7827  -15.6175   22.7165 C   0  0  0  0  0  0  0  0  0  0  0  0
   10.4370  -14.5912   23.0507 O   0  0  0  0  0  0  0  0  0  0  0  0
    9.6426  -16.6625   23.6623 N   0  0  0  0  0  0  0  0  0  0  0  0
   10.2634  -16.6608   24.9866 C   0  0  1  0  0  0  0  0  0  0  0  0
   10.0225  -15.3771   25.6868 C   0  0  0  0  0  0  0  0  0  0  0  0
    8.5939  -15.0458   25.7935 C   0  0  0  0  0  0  0  0  0  0  0  0
    7.5097  -15.9260   25.6622 C   0  0  0  0  0  0  0  0  0  0  0  0
    6.3722  -15.2470   25.7774 N   0  0  0  0  0  0  0  0  0  0  0  0
    6.6349  -13.9517   25.9816 C   0  0  0  0  0  0  0  0  0  0  0  0
    5.7823  -12.8700   26.1803 C   0  0  0  0  0  0  0  0  0  0  0  0
    6.3213  -11.6339   26.3968 C   0  0  0  0  0  0  0  0  0  0  0  0
    7.6932  -11.4423   26.4207 C   0  0  0  0  0  0  0  0  0  0  0  0
    8.5065  -12.5378   26.2183 C   0  0  0  0  0  0  0  0  0  0  0  0
    8.0054  -13.7992   25.9965 C   0  0  0  0  0  0  0  0  0  0  0  0
    9.7948  -17.8229   25.7220 C   0  0  0  0  0  0  0  0  0  0  0  0
   10.2005  -18.0734   26.9102 O   0  0  0  0  0  0  0  0  0  0  0  0
    8.8771  -18.7577   25.2367 O   0  0  0  0  0  0  0  0  0  0  0  0
  2  1  1  0
  2  4  1  0
  3  2  2  0
  5  4  1  0
  6  5  1  0
  6  7  1  6
  8  6  1  0
  9  8  2  0
 11 10  1  6
 11 12  1  0
 11 13  1  0
 14 13  1  1
 14 15  1  0
 15  8  1  0
 16 18  1  0
 16 14  1  0
 17 16  2  0
 19 30  1  0
 19 18  1  0
 19 20  1  1
 21 29  1  0
 21 20  1  0
 22 21  2  0
 23 22  1  0
 23 24  1  0
 24 25  1  0
 24 29  2  0
 25 26  2  0
 26 27  1  0
 28 27  2  0
 29 28  1  0
 30 32  1  0
 31 30  2  0
M  END
$$$$
