QLW.pdb
     RDKit          3D

 32 33  0  0  1  0  0  0  0  0999 V2000
    6.2484  -20.4699   23.7364 N   0  0  0  0  0  0  0  0  0  0  0  0
    6.4047  -21.2563   22.5260 C   0  0  0  0  0  0  0  0  0  0  0  0
    5.7273  -22.3015   22.4853 O   0  0  0  0  0  0  0  0  0  0  0  0
    7.3110  -20.8038   21.4673 C   0  0  0  0  0  0  0  0  0  0  0  0
    7.9895  -19.5089   21.7260 C   0  0  0  0  0  0  0  0  0  0  0  0
    8.1074  -18.6236   20.5147 C   0  0  2  0  0  0  0  0  0  0  0  0
    8.4998  -19.2955   19.3233 N   0  0  0  0  0  0  0  0  0  0  0  0
    8.9934  -17.4573   20.8172 C   0  0  0  0  0  0  0  0  0  0  0  0
   10.2221  -17.5137   20.5280 O   0  0  0  0  0  0  0  0  0  0  0  0
    6.7276  -12.7417   20.2867 C   0  0  0  0  0  0  0  0  0  0  0  0
    7.7174  -13.9006   20.2409 C   0  0  1  0  0  0  0  0  0  0  0  0
    8.7050  -13.5238   19.1237 C   0  0  0  0  0  0  0  0  0  0  0  0
    8.5251  -13.9136   21.5110 C   0  0  0  0  0  0  0  0  0  0  0  0
    9.4081  -15.1282   21.6487 C   0  0  2  0  0  0  0  0  0  0  0  0
    8.5236  -16.2831   21.4172 N   0  0  0  0  0  0  0  0  0  0  0  0
    9.9801  -15.2730   23.0184 C   0  0  0  0  0  0  0  0  0  0  0  0
   10.8071  -14.4188   23.4421 O   0  0  0  0  0  0  0  0  0  0  0  0
    9.6259  -16.3463   23.8721 N   0  0  0  0  0  0  0  0  0  0  0  0
   10.0963  -16.4904   25.2494 C   0  0  1  0  0  0  0  0  0  0  0  0
    8.9851  -16.8633   26.1561 C   0  0  0  0  0  0  0  0  0  0  0  0
    7.7956  -16.0175   25.9772 C   0  0  0  0  0  0  0  0  0  0  0  0
    6.5713  -16.3909   25.4036 C   0  0  0  0  0  0  0  0  0  0  0  0
    5.7567  -15.3401   25.3767 N   0  0  0  0  0  0  0  0  0  0  0  0
    6.3703  -14.2759   25.9053 C   0  0  0  0  0  0  0  0  0  0  0  0
    5.9211  -12.9750   26.1113 C   0  0  0  0  0  0  0  0  0  0  0  0
    6.7563  -12.0732   26.7067 C   0  0  0  0  0  0  0  0  0  0  0  0
    8.0341  -12.4313   27.1049 C   0  0  0  0  0  0  0  0  0  0  0  0
    8.4447  -13.7292   26.8828 C   0  0  0  0  0  0  0  0  0  0  0  0
    7.6362  -14.6683   26.2864 C   0  0  0  0  0  0  0  0  0  0  0  0
   11.2037  -17.4308   25.2672 C   0  0  0  0  0  0  0  0  0  0  0  0
   11.5157  -18.1196   24.2341 O   0  0  0  0  0  0  0  0  0  0  0  0
   12.0265  -17.6738   26.3696 O   0  0  0  0  0  0  0  0  0  0  0  0
  2  1  1  0
  2  4  1  0
  3  2  2  0
  5  4  1  0
  6  5  1  0
  6  7  1  6
  8  6  1  0
  9  8  2  0
 11 10  1  1
 11 12  1  0
 11 13  1  0
 14 13  1  1
 14 15  1  0
 15  8  1  0
 16 18  1  0
 16 14  1  0
 17 16  2  0
 19 30  1  0
 19 18  1  0
 19 20  1  1
 21 29  1  0
 21 20  1  0
 22 21  2  0
 23 22  1  0
 23 24  1  0
 24 25  1  0
 24 29  2  0
 25 26  2  0
 26 27  1  0
 28 27  2  0
 29 28  1  0
 30 32  1  0
 31 30  2  0
M  END
$$$$
