QLW.pdb
     RDKit          3D

 32 33  0  0  1  0  0  0  0  0999 V2000
   12.1189  -21.9923   20.4475 N   0  0  0  0  0  0  0  0  0  0  0  0
   12.1306  -21.8007   19.0084 C   0  0  0  0  0  0  0  0  0  0  0  0
   12.4093  -22.8172   18.3435 O   0  0  0  0  0  0  0  0  0  0  0  0
   11.8323  -20.4836   18.4397 C   0  0  0  0  0  0  0  0  0  0  0  0
   11.5534  -19.4148   19.4316 C   0  0  0  0  0  0  0  0  0  0  0  0
   10.6879  -18.3005   18.9078 C   0  0  2  0  0  0  0  0  0  0  0  0
   11.0735  -17.7969   17.6340 N   0  0  0  0  0  0  0  0  0  0  0  0
   10.5783  -17.2138   19.9295 C   0  0  0  0  0  0  0  0  0  0  0  0
   11.5798  -16.4838   20.1759 O   0  0  0  0  0  0  0  0  0  0  0  0
    6.2066  -14.0737   20.2028 C   0  0  0  0  0  0  0  0  0  0  0  0
    7.6611  -14.5303   20.2376 C   0  0  1  0  0  0  0  0  0  0  0  0
    8.4708  -13.2342   20.4107 C   0  0  0  0  0  0  0  0  0  0  0  0
    7.9001  -15.3301   21.4901 C   0  0  0  0  0  0  0  0  0  0  0  0
    9.3100  -15.8515   21.6098 C   0  0  2  0  0  0  0  0  0  0  0  0
    9.4009  -16.9586   20.6424 N   0  0  0  0  0  0  0  0  0  0  0  0
    9.6040  -16.4142   22.9592 C   0  0  0  0  0  0  0  0  0  0  0  0
    9.7861  -17.6563   23.0905 O   0  0  0  0  0  0  0  0  0  0  0  0
    9.6874  -15.5973   24.1133 N   0  0  0  0  0  0  0  0  0  0  0  0
    9.9966  -16.0965   25.4528 C   0  0  1  0  0  0  0  0  0  0  0  0
    9.5247  -15.1545   26.4950 C   0  0  0  0  0  0  0  0  0  0  0  0
    8.1185  -14.7639   26.3152 C   0  0  0  0  0  0  0  0  0  0  0  0
    7.0564  -15.5883   25.9157 C   0  0  0  0  0  0  0  0  0  0  0  0
    5.9451  -14.8641   25.8226 N   0  0  0  0  0  0  0  0  0  0  0  0
    6.2041  -13.5913   26.1411 C   0  0  0  0  0  0  0  0  0  0  0  0
    5.3676  -12.4814   26.2093 C   0  0  0  0  0  0  0  0  0  0  0  0
    5.8918  -11.2806   26.5949 C   0  0  0  0  0  0  0  0  0  0  0  0
    7.2333  -11.1521   26.9162 C   0  0  0  0  0  0  0  0  0  0  0  0
    8.0317  -12.2739   26.8353 C   0  0  0  0  0  0  0  0  0  0  0  0
    7.5448  -13.5014   26.4513 C   0  0  0  0  0  0  0  0  0  0  0  0
    9.4509  -17.4363   25.5879 C   0  0  0  0  0  0  0  0  0  0  0  0
    9.7845  -18.2019   26.5583 O   0  0  0  0  0  0  0  0  0  0  0  0
    8.5295  -18.0147   24.7116 O   0  0  0  0  0  0  0  0  0  0  0  0
  2  1  1  0
  2  4  1  0
  3  2  2  0
  5  4  1  0
  6  5  1  0
  6  7  1  6
  8  6  1  0
  9  8  2  0
 11 10  1  1
 11 12  1  0
 11 13  1  0
 14 13  1  1
 14 15  1  0
 15  8  1  0
 16 18  1  0
 16 14  1  0
 17 16  2  0
 19 30  1  0
 19 18  1  0
 19 20  1  1
 21 29  1  0
 21 20  1  0
 22 21  2  0
 23 22  1  0
 23 24  1  0
 24 25  1  0
 24 29  2  0
 25 26  2  0
 26 27  1  0
 28 27  2  0
 29 28  1  0
 30 32  1  0
 31 30  2  0
M  END
$$$$
