QLW.pdb
     RDKit          3D

 32 33  0  0  1  0  0  0  0  0999 V2000
   10.1811  -18.0017   15.2133 N   0  0  0  0  0  0  0  0  0  0  0  0
    9.5844  -19.2020   15.7714 C   0  0  0  0  0  0  0  0  0  0  0  0
    9.2055  -20.0416   14.9322 O   0  0  0  0  0  0  0  0  0  0  0  0
    9.4608  -19.3545   17.2235 C   0  0  0  0  0  0  0  0  0  0  0  0
    9.8156  -18.1519   18.0184 C   0  0  0  0  0  0  0  0  0  0  0  0
    9.6656  -18.3312   19.5051 C   0  0  2  0  0  0  0  0  0  0  0  0
    8.4039  -18.8438   19.9177 N   0  0  0  0  0  0  0  0  0  0  0  0
   10.0109  -17.0591   20.2117 C   0  0  0  0  0  0  0  0  0  0  0  0
   11.1746  -16.5790   20.1022 O   0  0  0  0  0  0  0  0  0  0  0  0
    6.1220  -13.5629   20.2101 C   0  0  0  0  0  0  0  0  0  0  0  0
    7.4691  -14.2732   20.1352 C   0  0  1  0  0  0  0  0  0  0  0  0
    8.3382  -13.3651   19.2490 C   0  0  0  0  0  0  0  0  0  0  0  0
    8.1157  -14.2552   21.4944 C   0  0  0  0  0  0  0  0  0  0  0  0
    9.4086  -15.0288   21.5546 C   0  0  2  0  0  0  0  0  0  0  0  0
    9.0945  -16.3589   21.0050 N   0  0  0  0  0  0  0  0  0  0  0  0
    9.8972  -15.2276   22.9495 C   0  0  0  0  0  0  0  0  0  0  0  0
   10.4094  -14.2582   23.5747 O   0  0  0  0  0  0  0  0  0  0  0  0
    9.8072  -16.4788   23.6072 N   0  0  0  0  0  0  0  0  0  0  0  0
   10.1804  -16.7019   25.0036 C   0  0  1  0  0  0  0  0  0  0  0  0
    9.0105  -16.5454   25.8998 C   0  0  0  0  0  0  0  0  0  0  0  0
    9.0277  -15.2766   26.6427 C   0  0  0  0  0  0  0  0  0  0  0  0
    9.8141  -14.9620   27.7607 C   0  0  0  0  0  0  0  0  0  0  0  0
    9.5160  -13.7360   28.1804 N   0  0  0  0  0  0  0  0  0  0  0  0
    8.5679  -13.2065   27.3999 C   0  0  0  0  0  0  0  0  0  0  0  0
    7.9558  -11.9572   27.4308 C   0  0  0  0  0  0  0  0  0  0  0  0
    7.0199  -11.6554   26.4830 C   0  0  0  0  0  0  0  0  0  0  0  0
    6.6731  -12.5675   25.4995 C   0  0  0  0  0  0  0  0  0  0  0  0
    7.2999  -13.7962   25.5019 C   0  0  0  0  0  0  0  0  0  0  0  0
    8.2471  -14.1408   26.4376 C   0  0  0  0  0  0  0  0  0  0  0  0
   10.8279  -17.9981   25.1112 C   0  0  0  0  0  0  0  0  0  0  0  0
   11.2234  -18.4590   26.2383 O   0  0  0  0  0  0  0  0  0  0  0  0
   11.0748  -18.8582   24.0386 O   0  0  0  0  0  0  0  0  0  0  0  0
  2  1  1  0
  2  4  1  0
  3  2  2  0
  5  4  1  0
  6  5  1  0
  6  7  1  6
  8  6  1  0
  9  8  2  0
 11 10  1  1
 11 12  1  0
 11 13  1  0
 14 13  1  1
 14 15  1  0
 15  8  1  0
 16 18  1  0
 16 14  1  0
 17 16  2  0
 19 30  1  0
 19 18  1  0
 19 20  1  1
 21 29  1  0
 21 20  1  0
 22 21  2  0
 23 22  1  0
 23 24  1  0
 24 25  1  0
 24 29  2  0
 25 26  2  0
 26 27  1  0
 28 27  2  0
 29 28  1  0
 30 32  1  0
 31 30  2  0
M  END
$$$$
