QLW.pdb
     RDKit          3D

 32 33  0  0  1  0  0  0  0  0999 V2000
   12.5115  -17.4666   16.0537 N   0  0  0  0  0  0  0  0  0  0  0  0
   11.7210  -18.6560   16.3154 C   0  0  0  0  0  0  0  0  0  0  0  0
   11.6270  -19.4477   15.3576 O   0  0  0  0  0  0  0  0  0  0  0  0
   11.1008  -18.8521   17.6283 C   0  0  0  0  0  0  0  0  0  0  0  0
   11.2853  -17.7350   18.5884 C   0  0  0  0  0  0  0  0  0  0  0  0
   10.6926  -17.9886   19.9483 C   0  0  2  0  0  0  0  0  0  0  0  0
    9.4175  -18.6200   19.9327 N   0  0  0  0  0  0  0  0  0  0  0  0
   10.6810  -16.7236   20.7459 C   0  0  0  0  0  0  0  0  0  0  0  0
   11.7450  -16.0537   20.8717 O   0  0  0  0  0  0  0  0  0  0  0  0
    6.2449  -13.8081   20.3101 C   0  0  0  0  0  0  0  0  0  0  0  0
    7.6743  -14.3332   20.3878 C   0  0  1  0  0  0  0  0  0  0  0  0
    8.5297  -13.2270   19.7476 C   0  0  0  0  0  0  0  0  0  0  0  0
    8.1021  -14.3958   21.8296 C   0  0  0  0  0  0  0  0  0  0  0  0
    9.5078  -14.9081   22.0172 C   0  0  2  0  0  0  0  0  0  0  0  0
    9.5302  -16.2332   21.3741 N   0  0  0  0  0  0  0  0  0  0  0  0
    9.8635  -15.1038   23.4522 C   0  0  0  0  0  0  0  0  0  0  0  0
   10.4882  -14.1968   24.0689 O   0  0  0  0  0  0  0  0  0  0  0  0
    9.5228  -16.2837   24.1578 N   0  0  0  0  0  0  0  0  0  0  0  0
    9.9002  -16.5491   25.5457 C   0  0  1  0  0  0  0  0  0  0  0  0
    8.7124  -16.8824   26.3668 C   0  0  0  0  0  0  0  0  0  0  0  0
    7.6410  -15.8819   26.2513 C   0  0  0  0  0  0  0  0  0  0  0  0
    6.3466  -16.0833   25.7499 C   0  0  0  0  0  0  0  0  0  0  0  0
    5.6826  -14.9313   25.7639 N   0  0  0  0  0  0  0  0  0  0  0  0
    6.4645  -13.9620   26.2515 C   0  0  0  0  0  0  0  0  0  0  0  0
    6.2092  -12.6127   26.4761 C   0  0  0  0  0  0  0  0  0  0  0  0
    7.1919  -11.8348   27.0187 C   0  0  0  0  0  0  0  0  0  0  0  0
    8.4296  -12.3648   27.3457 C   0  0  0  0  0  0  0  0  0  0  0  0
    8.6463  -13.7059   27.1072 C   0  0  0  0  0  0  0  0  0  0  0  0
    7.6847  -14.5244   26.5623 C   0  0  0  0  0  0  0  0  0  0  0  0
   10.9263  -17.5775   25.5607 C   0  0  0  0  0  0  0  0  0  0  0  0
   11.4449  -17.9920   26.6555 O   0  0  0  0  0  0  0  0  0  0  0  0
   11.4373  -18.2116   24.4257 O   0  0  0  0  0  0  0  0  0  0  0  0
  2  1  1  0
  2  4  1  0
  3  2  2  0
  5  4  1  0
  6  5  1  0
  6  7  1  6
  8  6  1  0
  9  8  2  0
 11 10  1  1
 11 12  1  0
 11 13  1  0
 14 13  1  1
 14 15  1  0
 15  8  1  0
 16 18  1  0
 16 14  1  0
 17 16  2  0
 19 30  1  0
 19 18  1  0
 19 20  1  1
 21 29  1  0
 21 20  1  0
 22 21  2  0
 23 22  1  0
 23 24  1  0
 24 25  1  0
 24 29  2  0
 25 26  2  0
 26 27  1  0
 28 27  2  0
 29 28  1  0
 30 32  1  0
 31 30  2  0
M  END
$$$$
