QLW.pdb
     RDKit          3D

 32 33  0  0  1  0  0  0  0  0999 V2000
   13.0268  -18.6916   16.9304 N   0  0  0  0  0  0  0  0  0  0  0  0
   11.8635  -19.5581   16.8654 C   0  0  0  0  0  0  0  0  0  0  0  0
   11.9691  -20.5247   16.0860 O   0  0  0  0  0  0  0  0  0  0  0  0
   10.6805  -19.2625   17.6779 C   0  0  0  0  0  0  0  0  0  0  0  0
   10.7567  -18.0123   18.4749 C   0  0  0  0  0  0  0  0  0  0  0  0
   10.2717  -18.1561   19.8923 C   0  0  2  0  0  0  0  0  0  0  0  0
    9.0254  -18.8292   20.0287 N   0  0  0  0  0  0  0  0  0  0  0  0
   10.2643  -16.8223   20.5687 C   0  0  0  0  0  0  0  0  0  0  0  0
   11.3039  -16.1044   20.5473 O   0  0  0  0  0  0  0  0  0  0  0  0
    5.9992  -13.7798   19.9437 C   0  0  0  0  0  0  0  0  0  0  0  0
    7.4402  -14.2543   20.0974 C   0  0  1  0  0  0  0  0  0  0  0  0
    8.2931  -13.0652   19.6243 C   0  0  0  0  0  0  0  0  0  0  0  0
    7.7533  -14.4238   21.5600 C   0  0  0  0  0  0  0  0  0  0  0  0
    9.1372  -14.9636   21.8191 C   0  0  2  0  0  0  0  0  0  0  0  0
    9.1437  -16.3176   21.2390 N   0  0  0  0  0  0  0  0  0  0  0  0
    9.4397  -15.1008   23.2730 C   0  0  0  0  0  0  0  0  0  0  0  0
    9.7445  -14.0772   23.9456 O   0  0  0  0  0  0  0  0  0  0  0  0
    9.3976  -16.3520   23.9356 N   0  0  0  0  0  0  0  0  0  0  0  0
    9.8045  -16.5602   25.3248 C   0  0  1  0  0  0  0  0  0  0  0  0
    8.6327  -16.8418   26.1872 C   0  0  0  0  0  0  0  0  0  0  0  0
    7.6523  -15.7459   26.1918 C   0  0  0  0  0  0  0  0  0  0  0  0
    6.2950  -15.8244   25.8470 C   0  0  0  0  0  0  0  0  0  0  0  0
    5.7466  -14.6160   25.9314 N   0  0  0  0  0  0  0  0  0  0  0  0
    6.6664  -13.7255   26.3177 C   0  0  0  0  0  0  0  0  0  0  0  0
    6.5650  -12.3593   26.5621 C   0  0  0  0  0  0  0  0  0  0  0  0
    7.6724  -11.6781   26.9806 C   0  0  0  0  0  0  0  0  0  0  0  0
    8.8855  -12.3218   27.1635 C   0  0  0  0  0  0  0  0  0  0  0  0
    8.9478  -13.6762   26.9099 C   0  0  0  0  0  0  0  0  0  0  0  0
    7.8575  -14.3997   26.4868 C   0  0  0  0  0  0  0  0  0  0  0  0
   10.8189  -17.5997   25.3621 C   0  0  0  0  0  0  0  0  0  0  0  0
   11.1416  -18.2602   24.3139 O   0  0  0  0  0  0  0  0  0  0  0  0
   11.5349  -17.9755   26.5012 O   0  0  0  0  0  0  0  0  0  0  0  0
  2  1  1  0
  2  4  1  0
  3  2  2  0
  5  4  1  0
  6  5  1  0
  6  7  1  6
  8  6  1  0
  9  8  2  0
 11 10  1  1
 11 12  1  0
 11 13  1  0
 14 13  1  1
 14 15  1  0
 15  8  1  0
 16 18  1  0
 16 14  1  0
 17 16  2  0
 19 30  1  0
 19 18  1  0
 19 20  1  1
 21 29  1  0
 21 20  1  0
 22 21  2  0
 23 22  1  0
 23 24  1  0
 24 25  1  0
 24 29  2  0
 25 26  2  0
 26 27  1  0
 28 27  2  0
 29 28  1  0
 30 32  1  0
 31 30  2  0
M  END
$$$$
