QLW.pdb
     RDKit          3D

 32 33  0  0  1  0  0  0  0  0999 V2000
    8.5163  -18.9932   16.3403 N   0  0  0  0  0  0  0  0  0  0  0  0
    9.1788  -19.8508   17.3065 C   0  0  0  0  0  0  0  0  0  0  0  0
    8.5780  -20.9103   17.5702 O   0  0  0  0  0  0  0  0  0  0  0  0
   10.4567  -19.4434   17.8965 C   0  0  0  0  0  0  0  0  0  0  0  0
   10.4440  -18.1298   18.5881 C   0  0  0  0  0  0  0  0  0  0  0  0
   10.2646  -18.2218   20.0795 C   0  0  2  0  0  0  0  0  0  0  0  0
    9.1038  -18.9318   20.4959 N   0  0  0  0  0  0  0  0  0  0  0  0
   10.3348  -16.8577   20.6887 C   0  0  0  0  0  0  0  0  0  0  0  0
   11.3734  -16.1554   20.5316 O   0  0  0  0  0  0  0  0  0  0  0  0
    6.2366  -13.7080   20.1674 C   0  0  0  0  0  0  0  0  0  0  0  0
    7.6683  -14.2159   20.2990 C   0  0  1  0  0  0  0  0  0  0  0  0
    8.5378  -13.0739   19.7466 C   0  0  0  0  0  0  0  0  0  0  0  0
    8.0226  -14.3285   21.7576 C   0  0  0  0  0  0  0  0  0  0  0  0
    9.3756  -14.9482   22.0009 C   0  0  2  0  0  0  0  0  0  0  0  0
    9.2896  -16.3076   21.4400 N   0  0  0  0  0  0  0  0  0  0  0  0
    9.6951  -15.0844   23.4512 C   0  0  0  0  0  0  0  0  0  0  0  0
   10.0098  -14.0607   24.1190 O   0  0  0  0  0  0  0  0  0  0  0  0
    9.6584  -16.3348   24.1155 N   0  0  0  0  0  0  0  0  0  0  0  0
    9.9738  -16.5227   25.5313 C   0  0  1  0  0  0  0  0  0  0  0  0
    8.7583  -16.8636   26.3076 C   0  0  0  0  0  0  0  0  0  0  0  0
    7.7010  -15.8491   26.1851 C   0  0  0  0  0  0  0  0  0  0  0  0
    6.4096  -16.0319   25.6691 C   0  0  0  0  0  0  0  0  0  0  0  0
    5.7601  -14.8717   25.6812 N   0  0  0  0  0  0  0  0  0  0  0  0
    6.5489  -13.9145   26.1813 C   0  0  0  0  0  0  0  0  0  0  0  0
    6.3082  -12.5630   26.4091 C   0  0  0  0  0  0  0  0  0  0  0  0
    7.2949  -11.8000   26.9656 C   0  0  0  0  0  0  0  0  0  0  0  0
    8.5222  -12.3470   27.3033 C   0  0  0  0  0  0  0  0  0  0  0  0
    8.7244  -13.6897   27.0612 C   0  0  0  0  0  0  0  0  0  0  0  0
    7.7585  -14.4936   26.5025 C   0  0  0  0  0  0  0  0  0  0  0  0
   11.0340  -17.5095   25.6452 C   0  0  0  0  0  0  0  0  0  0  0  0
   11.4909  -18.1249   24.6197 O   0  0  0  0  0  0  0  0  0  0  0  0
   11.6563  -17.8778   26.8405 O   0  0  0  0  0  0  0  0  0  0  0  0
  2  1  1  0
  2  4  1  0
  3  2  2  0
  5  4  1  0
  6  5  1  0
  6  7  1  6
  8  6  1  0
  9  8  2  0
 11 10  1  1
 11 12  1  0
 11 13  1  0
 14 13  1  1
 14 15  1  0
 15  8  1  0
 16 18  1  0
 16 14  1  0
 17 16  2  0
 19 30  1  0
 19 18  1  0
 19 20  1  1
 21 29  1  0
 21 20  1  0
 22 21  2  0
 23 22  1  0
 23 24  1  0
 24 25  1  0
 24 29  2  0
 25 26  2  0
 26 27  1  0
 28 27  2  0
 29 28  1  0
 30 32  1  0
 31 30  2  0
M  END
$$$$
