QLW.pdb
     RDKit          3D

 32 33  0  0  1  0  0  0  0  0999 V2000
    9.6652  -20.5265   23.7587 N   0  0  0  0  0  0  0  0  0  0  0  0
   10.2366  -21.1286   22.5675 C   0  0  0  0  0  0  0  0  0  0  0  0
   11.1579  -21.9410   22.7775 O   0  0  0  0  0  0  0  0  0  0  0  0
    9.7272  -20.7637   21.2429 C   0  0  0  0  0  0  0  0  0  0  0  0
    8.6031  -19.7940   21.2424 C   0  0  0  0  0  0  0  0  0  0  0  0
    8.6546  -18.7935   20.1194 C   0  0  2  0  0  0  0  0  0  0  0  0
    9.3066  -19.2548   18.9417 N   0  0  0  0  0  0  0  0  0  0  0  0
    9.2308  -17.5032   20.6092 C   0  0  0  0  0  0  0  0  0  0  0  0
   10.4454  -17.2359   20.3857 O   0  0  0  0  0  0  0  0  0  0  0  0
    6.2537  -13.1402   20.0839 C   0  0  0  0  0  0  0  0  0  0  0  0
    7.4406  -14.0970   20.1147 C   0  0  1  0  0  0  0  0  0  0  0  0
    8.5700  -13.3377   19.3983 C   0  0  0  0  0  0  0  0  0  0  0  0
    7.9030  -14.2680   21.5369 C   0  0  0  0  0  0  0  0  0  0  0  0
    9.0413  -15.2459   21.6847 C   0  0  2  0  0  0  0  0  0  0  0  0
    8.4803  -16.5575   21.3175 N   0  0  0  0  0  0  0  0  0  0  0  0
    9.5338  -15.3496   23.0885 C   0  0  0  0  0  0  0  0  0  0  0  0
   10.2359  -14.4195   23.5732 O   0  0  0  0  0  0  0  0  0  0  0  0
    9.2398  -16.4665   23.9085 N   0  0  0  0  0  0  0  0  0  0  0  0
    9.7677  -16.6559   25.2592 C   0  0  1  0  0  0  0  0  0  0  0  0
    8.6723  -16.8632   26.2356 C   0  0  0  0  0  0  0  0  0  0  0  0
    7.6139  -15.8481   26.1285 C   0  0  0  0  0  0  0  0  0  0  0  0
    6.3212  -16.0256   25.6139 C   0  0  0  0  0  0  0  0  0  0  0  0
    5.6709  -14.8661   25.6418 N   0  0  0  0  0  0  0  0  0  0  0  0
    6.4604  -13.9145   26.1514 C   0  0  0  0  0  0  0  0  0  0  0  0
    6.2194  -12.5660   26.3964 C   0  0  0  0  0  0  0  0  0  0  0  0
    7.2071  -11.8091   26.9593 C   0  0  0  0  0  0  0  0  0  0  0  0
    8.4357  -12.3592   27.2870 C   0  0  0  0  0  0  0  0  0  0  0  0
    8.6383  -13.6988   27.0280 C   0  0  0  0  0  0  0  0  0  0  0  0
    7.6714  -14.4965   26.4622 C   0  0  0  0  0  0  0  0  0  0  0  0
   10.7374  -17.7375   25.2328 C   0  0  0  0  0  0  0  0  0  0  0  0
   11.3892  -18.0801   26.2802 O   0  0  0  0  0  0  0  0  0  0  0  0
   11.0498  -18.5017   24.1059 O   0  0  0  0  0  0  0  0  0  0  0  0
  2  1  1  0
  2  4  1  0
  3  2  2  0
  5  4  1  0
  6  5  1  0
  6  7  1  6
  8  6  1  0
  9  8  2  0
 11 10  1  1
 11 12  1  0
 11 13  1  0
 14 13  1  1
 14 15  1  0
 15  8  1  0
 16 18  1  0
 16 14  1  0
 17 16  2  0
 19 30  1  0
 19 18  1  0
 19 20  1  1
 21 29  1  0
 21 20  1  0
 22 21  2  0
 23 22  1  0
 23 24  1  0
 24 25  1  0
 24 29  2  0
 25 26  2  0
 26 27  1  0
 28 27  2  0
 29 28  1  0
 30 32  1  0
 31 30  2  0
M  END
$$$$
