QLW.pdb
     RDKit          3D

 32 33  0  0  1  0  0  0  0  0999 V2000
   11.7789  -18.3301   16.1422 N   0  0  0  0  0  0  0  0  0  0  0  0
   10.6593  -19.2206   16.3902 C   0  0  0  0  0  0  0  0  0  0  0  0
   10.4035  -20.0159   15.4656 O   0  0  0  0  0  0  0  0  0  0  0  0
    9.9206  -19.1386   17.6531 C   0  0  0  0  0  0  0  0  0  0  0  0
   10.3161  -18.0205   18.5459 C   0  0  0  0  0  0  0  0  0  0  0  0
    9.9542  -18.2305   19.9916 C   0  0  2  0  0  0  0  0  0  0  0  0
    8.7044  -18.8768   20.2037 N   0  0  0  0  0  0  0  0  0  0  0  0
   10.0487  -16.9368   20.7361 C   0  0  0  0  0  0  0  0  0  0  0  0
   11.1104  -16.2548   20.6725 O   0  0  0  0  0  0  0  0  0  0  0  0
    5.8884  -13.8858   20.2125 C   0  0  0  0  0  0  0  0  0  0  0  0
    7.3145  -14.4068   20.3543 C   0  0  1  0  0  0  0  0  0  0  0  0
    8.1964  -13.2852   19.7802 C   0  0  0  0  0  0  0  0  0  0  0  0
    7.6673  -14.4950   21.8149 C   0  0  0  0  0  0  0  0  0  0  0  0
    9.0396  -15.0668   22.0677 C   0  0  2  0  0  0  0  0  0  0  0  0
    9.0018  -16.4324   21.5165 N   0  0  0  0  0  0  0  0  0  0  0  0
    9.3578  -15.1816   23.5201 C   0  0  0  0  0  0  0  0  0  0  0  0
    9.6581  -14.1461   24.1762 O   0  0  0  0  0  0  0  0  0  0  0  0
    9.3358  -16.4244   24.1993 N   0  0  0  0  0  0  0  0  0  0  0  0
    9.8351  -16.6267   25.5590 C   0  0  1  0  0  0  0  0  0  0  0  0
    8.7197  -16.8498   26.5089 C   0  0  0  0  0  0  0  0  0  0  0  0
    7.6660  -15.8299   26.4000 C   0  0  0  0  0  0  0  0  0  0  0  0
    6.3585  -16.0124   25.9264 C   0  0  0  0  0  0  0  0  0  0  0  0
    5.7175  -14.8473   25.9371 N   0  0  0  0  0  0  0  0  0  0  0  0
    6.5275  -13.8873   26.3960 C   0  0  0  0  0  0  0  0  0  0  0  0
    6.3031  -12.5302   26.6066 C   0  0  0  0  0  0  0  0  0  0  0  0
    7.3113  -11.7646   27.1194 C   0  0  0  0  0  0  0  0  0  0  0  0
    8.5444  -12.3146   27.4299 C   0  0  0  0  0  0  0  0  0  0  0  0
    8.7301  -13.6629   27.2060 C   0  0  0  0  0  0  0  0  0  0  0  0
    7.7424  -14.4694   26.6911 C   0  0  0  0  0  0  0  0  0  0  0  0
   10.8101  -17.7037   25.5416 C   0  0  0  0  0  0  0  0  0  0  0  0
   11.4725  -18.0260   26.5887 O   0  0  0  0  0  0  0  0  0  0  0  0
   11.1168  -18.4845   24.4246 O   0  0  0  0  0  0  0  0  0  0  0  0
  2  1  1  0
  2  4  1  0
  3  2  2  0
  5  4  1  0
  6  5  1  0
  6  7  1  6
  8  6  1  0
  9  8  2  0
 11 10  1  1
 11 12  1  0
 11 13  1  0
 14 13  1  1
 14 15  1  0
 15  8  1  0
 16 18  1  0
 16 14  1  0
 17 16  2  0
 19 30  1  0
 19 18  1  0
 19 20  1  1
 21 29  1  0
 21 20  1  0
 22 21  2  0
 23 22  1  0
 23 24  1  0
 24 25  1  0
 24 29  2  0
 25 26  2  0
 26 27  1  0
 28 27  2  0
 29 28  1  0
 30 32  1  0
 31 30  2  0
M  END
$$$$
