QLW.pdb
     RDKit          3D

 32 33  0  0  1  0  0  0  0  0999 V2000
   11.2666  -19.0919   15.9043 N   0  0  0  0  0  0  0  0  0  0  0  0
    9.8836  -19.1080   16.3461 C   0  0  0  0  0  0  0  0  0  0  0  0
    9.0382  -19.1374   15.4311 O   0  0  0  0  0  0  0  0  0  0  0  0
    9.5688  -19.0856   17.7770 C   0  0  0  0  0  0  0  0  0  0  0  0
   10.4233  -18.1921   18.5989 C   0  0  0  0  0  0  0  0  0  0  0  0
   10.0788  -18.1885   20.0639 C   0  0  2  0  0  0  0  0  0  0  0  0
    8.8086  -18.7482   20.3773 N   0  0  0  0  0  0  0  0  0  0  0  0
   10.2367  -16.8106   20.6236 C   0  0  0  0  0  0  0  0  0  0  0  0
   11.3084  -16.1725   20.4214 O   0  0  0  0  0  0  0  0  0  0  0  0
    6.5070  -13.2757   20.1216 C   0  0  0  0  0  0  0  0  0  0  0  0
    7.8428  -13.9956   20.2716 C   0  0  1  0  0  0  0  0  0  0  0  0
    8.8712  -13.0406   19.6426 C   0  0  0  0  0  0  0  0  0  0  0  0
    8.2016  -14.0763   21.7313 C   0  0  0  0  0  0  0  0  0  0  0  0
    9.4613  -14.8614   21.9974 C   0  0  2  0  0  0  0  0  0  0  0  0
    9.2398  -16.1784   21.3760 N   0  0  0  0  0  0  0  0  0  0  0  0
    9.7018  -15.0899   23.4514 C   0  0  0  0  0  0  0  0  0  0  0  0
   10.0950  -14.1342   24.1759 O   0  0  0  0  0  0  0  0  0  0  0  0
    9.5035  -16.3548   24.0571 N   0  0  0  0  0  0  0  0  0  0  0  0
    9.8200  -16.6562   25.4529 C   0  0  1  0  0  0  0  0  0  0  0  0
    8.5990  -17.0199   26.2099 C   0  0  0  0  0  0  0  0  0  0  0  0
    7.5243  -16.0261   26.0693 C   0  0  0  0  0  0  0  0  0  0  0  0
    6.2866  -16.2035   25.4337 C   0  0  0  0  0  0  0  0  0  0  0  0
    5.6025  -15.0639   25.4717 N   0  0  0  0  0  0  0  0  0  0  0  0
    6.3168  -14.1259   26.1030 C   0  0  0  0  0  0  0  0  0  0  0  0
    6.0160  -12.8010   26.4037 C   0  0  0  0  0  0  0  0  0  0  0  0
    6.9288  -12.0556   27.0941 C   0  0  0  0  0  0  0  0  0  0  0  0
    8.1402  -12.5946   27.4959 C   0  0  0  0  0  0  0  0  0  0  0  0
    8.4036  -13.9108   27.1784 C   0  0  0  0  0  0  0  0  0  0  0  0
    7.5130  -14.6962   26.4846 C   0  0  0  0  0  0  0  0  0  0  0  0
   10.8524  -17.6779   25.4861 C   0  0  0  0  0  0  0  0  0  0  0  0
   11.3585  -18.0847   26.5896 O   0  0  0  0  0  0  0  0  0  0  0  0
   11.3831  -18.3131   24.3608 O   0  0  0  0  0  0  0  0  0  0  0  0
  2  1  1  0
  2  4  1  0
  3  2  2  0
  5  4  1  0
  6  5  1  0
  6  7  1  6
  8  6  1  0
  9  8  2  0
 11 10  1  1
 11 12  1  0
 11 13  1  0
 14 13  1  1
 14 15  1  0
 15  8  1  0
 16 18  1  0
 16 14  1  0
 17 16  2  0
 19 30  1  0
 19 18  1  0
 19 20  1  1
 21 29  1  0
 21 20  1  0
 22 21  2  0
 23 22  1  0
 23 24  1  0
 24 25  1  0
 24 29  2  0
 25 26  2  0
 26 27  1  0
 28 27  2  0
 29 28  1  0
 30 32  1  0
 31 30  2  0
M  END
$$$$
