QLW.pdb
     RDKit          3D

 32 33  0  0  1  0  0  0  0  0999 V2000
   14.1408  -19.8531   15.9940 N   0  0  0  0  0  0  0  0  0  0  0  0
   13.1401  -18.8183   15.8047 C   0  0  0  0  0  0  0  0  0  0  0  0
   13.3402  -18.0627   14.8341 O   0  0  0  0  0  0  0  0  0  0  0  0
   12.0032  -18.7182   16.7237 C   0  0  0  0  0  0  0  0  0  0  0  0
   12.2449  -17.9067   17.9431 C   0  0  0  0  0  0  0  0  0  0  0  0
   11.5971  -18.4558   19.1856 C   0  0  2  0  0  0  0  0  0  0  0  0
   10.5616  -19.4023   18.9474 N   0  0  0  0  0  0  0  0  0  0  0  0
   11.1393  -17.3343   20.0627 C   0  0  0  0  0  0  0  0  0  0  0  0
   11.9611  -16.4426   20.4178 O   0  0  0  0  0  0  0  0  0  0  0  0
    7.9615  -13.4767   21.1761 C   0  0  0  0  0  0  0  0  0  0  0  0
    7.4005  -14.7086   21.8782 C   0  0  1  0  0  0  0  0  0  0  0  0
    5.8977  -14.6909   21.5516 C   0  0  0  0  0  0  0  0  0  0  0  0
    7.9460  -15.9468   21.2189 C   0  0  0  0  0  0  0  0  0  0  0  0
    9.4209  -16.1530   21.4556 C   0  0  2  0  0  0  0  0  0  0  0  0
    9.8217  -17.2189   20.5211 N   0  0  0  0  0  0  0  0  0  0  0  0
    9.7219  -16.6338   22.8348 C   0  0  0  0  0  0  0  0  0  0  0  0
    9.9488  -17.8596   23.0320 O   0  0  0  0  0  0  0  0  0  0  0  0
    9.7630  -15.7557   23.9455 N   0  0  0  0  0  0  0  0  0  0  0  0
   10.1339  -16.1618   25.3007 C   0  0  1  0  0  0  0  0  0  0  0  0
    9.8465  -15.0850   26.2775 C   0  0  0  0  0  0  0  0  0  0  0  0
    8.4524  -14.6210   26.2201 C   0  0  0  0  0  0  0  0  0  0  0  0
    7.3038  -15.4115   26.0684 C   0  0  0  0  0  0  0  0  0  0  0  0
    6.2310  -14.6275   26.0152 N   0  0  0  0  0  0  0  0  0  0  0  0
    6.5986  -13.3464   26.1249 C   0  0  0  0  0  0  0  0  0  0  0  0
    5.8401  -12.1799   26.1446 C   0  0  0  0  0  0  0  0  0  0  0  0
    6.4750  -10.9804   26.2976 C   0  0  0  0  0  0  0  0  0  0  0  0
    7.8521  -10.9082   26.4320 C   0  0  0  0  0  0  0  0  0  0  0  0
    8.5706  -12.0853   26.4061 C   0  0  0  0  0  0  0  0  0  0  0  0
    7.9713  -13.3137   26.2537 C   0  0  0  0  0  0  0  0  0  0  0  0
    9.4728  -17.4187   25.6075 C   0  0  0  0  0  0  0  0  0  0  0  0
    9.8350  -18.1427   26.5993 O   0  0  0  0  0  0  0  0  0  0  0  0
    8.4025  -17.9542   24.8868 O   0  0  0  0  0  0  0  0  0  0  0  0
  2  1  1  0
  2  4  1  0
  3  2  2  0
  5  4  1  0
  6  5  1  0
  6  7  1  6
  8  6  1  0
  9  8  2  0
 11 10  1  6
 11 12  1  0
 11 13  1  0
 14 13  1  1
 14 15  1  0
 15  8  1  0
 16 18  1  0
 16 14  1  0
 17 16  2  0
 19 30  1  0
 19 18  1  0
 19 20  1  1
 21 29  1  0
 21 20  1  0
 22 21  2  0
 23 22  1  0
 23 24  1  0
 24 25  1  0
 24 29  2  0
 25 26  2  0
 26 27  1  0
 28 27  2  0
 29 28  1  0
 30 32  1  0
 31 30  2  0
M  END
$$$$
