QLW.pdb
     RDKit          3D

 32 33  0  0  1  0  0  0  0  0999 V2000
    9.2656  -18.2397   16.1620 N   0  0  0  0  0  0  0  0  0  0  0  0
   10.0195  -19.3641   16.6869 C   0  0  0  0  0  0  0  0  0  0  0  0
   10.1191  -20.3379   15.9157 O   0  0  0  0  0  0  0  0  0  0  0  0
   10.5930  -19.3001   18.0337 C   0  0  0  0  0  0  0  0  0  0  0  0
   10.2474  -18.0836   18.8113 C   0  0  0  0  0  0  0  0  0  0  0  0
   10.3621  -18.2537   20.3023 C   0  0  2  0  0  0  0  0  0  0  0  0
    9.3632  -19.0831   20.8845 N   0  0  0  0  0  0  0  0  0  0  0  0
   10.4351  -16.9155   20.9661 C   0  0  0  0  0  0  0  0  0  0  0  0
   11.5164  -16.2624   20.9397 O   0  0  0  0  0  0  0  0  0  0  0  0
    6.1912  -13.7820   20.4863 C   0  0  0  0  0  0  0  0  0  0  0  0
    7.6406  -14.2495   20.5613 C   0  0  1  0  0  0  0  0  0  0  0  0
    8.4589  -13.0658   20.0186 C   0  0  0  0  0  0  0  0  0  0  0  0
    8.0412  -14.3935   22.0051 C   0  0  0  0  0  0  0  0  0  0  0  0
    9.4192  -14.9772   22.1906 C   0  0  2  0  0  0  0  0  0  0  0  0
    9.3465  -16.3373   21.6297 N   0  0  0  0  0  0  0  0  0  0  0  0
    9.8018  -15.1075   23.6261 C   0  0  0  0  0  0  0  0  0  0  0  0
   10.2101  -14.0934   24.2569 O   0  0  0  0  0  0  0  0  0  0  0  0
    9.7235  -16.3417   24.3166 N   0  0  0  0  0  0  0  0  0  0  0  0
   10.0530  -16.5142   25.7311 C   0  0  1  0  0  0  0  0  0  0  0  0
    8.8445  -16.8407   26.5242 C   0  0  0  0  0  0  0  0  0  0  0  0
    7.7385  -15.9002   26.2905 C   0  0  0  0  0  0  0  0  0  0  0  0
    6.5112  -16.1758   25.6700 C   0  0  0  0  0  0  0  0  0  0  0  0
    5.7897  -15.0609   25.6020 N   0  0  0  0  0  0  0  0  0  0  0  0
    6.4688  -14.0462   26.1475 C   0  0  0  0  0  0  0  0  0  0  0  0
    6.1227  -12.7102   26.3254 C   0  0  0  0  0  0  0  0  0  0  0  0
    7.0062  -11.8752   26.9480 C   0  0  0  0  0  0  0  0  0  0  0  0
    8.2322  -12.3347   27.4008 C   0  0  0  0  0  0  0  0  0  0  0  0
    8.5409  -13.6647   27.2052 C   0  0  0  0  0  0  0  0  0  0  0  0
    7.6809  -14.5391   26.5830 C   0  0  0  0  0  0  0  0  0  0  0  0
   11.1103  -17.5042   25.8455 C   0  0  0  0  0  0  0  0  0  0  0  0
   11.5160  -18.1728   24.8318 O   0  0  0  0  0  0  0  0  0  0  0  0
   11.7832  -17.8200   27.0282 O   0  0  0  0  0  0  0  0  0  0  0  0
  2  1  1  0
  2  4  1  0
  3  2  2  0
  5  4  1  0
  6  5  1  0
  6  7  1  1
  8  6  1  0
  9  8  2  0
 11 10  1  1
 11 12  1  0
 11 13  1  0
 14 13  1  1
 14 15  1  0
 15  8  1  0
 16 18  1  0
 16 14  1  0
 17 16  2  0
 19 30  1  0
 19 18  1  0
 19 20  1  1
 21 29  1  0
 21 20  1  0
 22 21  2  0
 23 22  1  0
 23 24  1  0
 24 25  1  0
 24 29  2  0
 25 26  2  0
 26 27  1  0
 28 27  2  0
 29 28  1  0
 30 32  1  0
 31 30  2  0
M  END
$$$$
