QNR.pdb
     RDKit          3D

 29 28  0  0  1  0  0  0  0  0999 V2000
   28.6712  -26.7982  -15.7643 N   0  0  0  0  0  0  0  0  0  0  0  0
   29.0028  -26.5620  -17.1373 C   0  0  0  0  0  0  0  0  0  0  0  0
   29.5679  -27.4702  -17.7599 O   0  0  0  0  0  0  0  0  0  0  0  0
   28.6358  -25.2425  -17.6916 C   0  0  0  0  0  0  0  0  0  0  0  0
   27.8688  -24.4054  -16.7206 C   0  0  0  0  0  0  0  0  0  0  0  0
   26.3801  -24.4998  -16.9611 C   0  0  2  0  0  0  0  0  0  0  0  0
   26.0693  -24.2092  -18.3655 N   0  0  0  0  0  0  0  0  0  0  0  0
   25.6532  -23.5055  -16.1360 C   0  0  0  0  0  0  0  0  0  0  0  0
   25.8277  -23.4777  -14.8839 O   0  0  0  0  0  0  0  0  0  0  0  0
   23.9884  -18.4085  -15.0349 N   0  0  0  0  0  0  0  0  0  0  0  0
   23.2986  -19.2479  -15.9879 C   0  0  0  0  0  0  0  0  0  0  0  0
   22.0989  -18.9639  -16.1833 O   0  0  0  0  0  0  0  0  0  0  0  0
   24.0761  -20.3253  -16.6099 C   0  0  0  0  0  0  0  0  0  0  0  0
   24.1022  -21.6120  -15.8584 C   0  0  2  0  0  0  0  0  0  0  0  0
   24.7693  -22.5869  -16.7181 N   0  0  0  0  0  0  0  0  0  0  0  0
   22.6952  -22.0892  -15.6040 C   0  0  0  0  0  0  0  0  0  0  0  0
   22.0507  -22.6297  -16.5216 O   0  0  0  0  0  0  0  0  0  0  0  0
   18.3266  -24.9098   -8.2635 N   0  0  0  0  0  0  0  0  0  0  0  0
   17.5201  -25.0715   -9.4070 C   0  0  0  0  0  0  0  0  0  0  0  0
   16.3948  -25.6929   -9.3041 N   0  0  0  0  0  0  0  0  0  0  0  0
   17.8696  -24.5869  -10.6920 N   0  0  0  0  0  0  0  0  0  0  0  0
   19.1400  -24.0192  -10.9698 C   0  0  0  0  0  0  0  0  0  0  0  0
   19.2893  -23.5490  -12.4108 C   0  0  0  0  0  0  0  0  0  0  0  0
   20.6248  -22.9079  -12.6456 C   0  0  0  0  0  0  0  0  0  0  0  0
   20.7442  -22.5178  -14.0967 C   0  0  2  0  0  0  0  0  0  0  0  0
   22.0782  -21.9395  -14.3404 N   0  0  0  0  0  0  0  0  0  0  0  0
   19.7859  -21.4702  -14.4438 C   0  0  0  0  0  0  0  0  0  0  0  0
   18.5743  -21.7705  -15.0181 O   0  0  0  0  0  0  0  0  0  0  0  0
   20.0454  -20.2663  -14.2293 O   0  0  0  0  0  0  0  0  0  0  0  0
  2  1  1  0
  3  2  2  0
  4  2  1  0
  5  4  1  0
  6  5  1  0
  6  7  1  6
  8  6  1  0
  9  8  2  0
 10 11  1  0
 11 13  1  0
 12 11  2  0
 14 13  1  6
 14 15  1  0
 15  8  1  0
 16 14  1  0
 16 17  2  0
 18 19  1  0
 19 20  2  0
 21 22  1  0
 21 19  1  0
 23 24  1  0
 23 22  1  0
 25 24  1  1
 25 26  1  0
 26 16  1  0
 27 25  1  0
 28 27  1  0
 29 27  2  0
M  END
$$$$
