QNR.pdb
     RDKit          3D

 29 28  0  0  1  0  0  0  0  0999 V2000
   30.5245  -19.3013  -18.5449 N   0  0  0  0  0  0  0  0  0  0  0  0
   29.7688  -18.4153  -17.7112 C   0  0  0  0  0  0  0  0  0  0  0  0
   30.0197  -17.2050  -17.7772 O   0  0  0  0  0  0  0  0  0  0  0  0
   28.7475  -19.0326  -16.8400 C   0  0  0  0  0  0  0  0  0  0  0  0
   28.7035  -20.5199  -16.9725 C   0  0  0  0  0  0  0  0  0  0  0  0
   27.2861  -21.0224  -17.1199 C   0  0  2  0  0  0  0  0  0  0  0  0
   26.4351  -19.9857  -17.7151 N   0  0  0  0  0  0  0  0  0  0  0  0
   26.7096  -21.3566  -15.7956 C   0  0  0  0  0  0  0  0  0  0  0  0
   27.1958  -22.3076  -15.1187 O   0  0  0  0  0  0  0  0  0  0  0  0
   25.1970  -22.0889  -11.4477 N   0  0  0  0  0  0  0  0  0  0  0  0
   25.5948  -20.7084  -11.6044 C   0  0  0  0  0  0  0  0  0  0  0  0
   25.9594  -20.1331  -10.5583 O   0  0  0  0  0  0  0  0  0  0  0  0
   25.5260  -20.1461  -12.9576 C   0  0  0  0  0  0  0  0  0  0  0  0
   25.0330  -21.0760  -14.0128 C   0  0  2  0  0  0  0  0  0  0  0  0
   25.6281  -20.6353  -15.2723 N   0  0  0  0  0  0  0  0  0  0  0  0
   23.5344  -20.9699  -14.1343 C   0  0  0  0  0  0  0  0  0  0  0  0
   23.0315  -20.0271  -14.7729 O   0  0  0  0  0  0  0  0  0  0  0  0
   17.6307  -26.5283  -15.2782 N   0  0  0  0  0  0  0  0  0  0  0  0
   17.7126  -26.3366  -13.8852 C   0  0  0  0  0  0  0  0  0  0  0  0
   17.3827  -27.3001  -13.0940 N   0  0  0  0  0  0  0  0  0  0  0  0
   18.1422  -25.1292  -13.2804 N   0  0  0  0  0  0  0  0  0  0  0  0
   18.3626  -23.9426  -14.0265 C   0  0  0  0  0  0  0  0  0  0  0  0
   19.0485  -22.8439  -13.2251 C   0  0  0  0  0  0  0  0  0  0  0  0
   20.5363  -23.0325  -13.1929 C   0  0  0  0  0  0  0  0  0  0  0  0
   21.2111  -21.7661  -13.6541 C   0  0  2  0  0  0  0  0  0  0  0  0
   22.6727  -21.9195  -13.5380 N   0  0  0  0  0  0  0  0  0  0  0  0
   20.8593  -20.6362  -12.7963 C   0  0  0  0  0  0  0  0  0  0  0  0
   19.7316  -19.8861  -13.0276 O   0  0  0  0  0  0  0  0  0  0  0  0
   21.5805  -20.3180  -11.8260 O   0  0  0  0  0  0  0  0  0  0  0  0
  2  1  1  0
  3  2  2  0
  4  2  1  0
  5  4  1  0
  6  5  1  0
  6  7  1  1
  8  6  1  0
  9  8  2  0
 10 11  1  0
 11 13  1  0
 12 11  2  0
 14 13  1  1
 14 15  1  0
 15  8  1  0
 16 14  1  0
 16 17  2  0
 18 19  1  0
 19 20  2  0
 21 22  1  0
 21 19  1  0
 23 24  1  0
 23 22  1  0
 25 24  1  1
 25 26  1  0
 26 16  1  0
 27 25  1  0
 28 27  1  0
 29 27  2  0
M  END
$$$$
