QNR.pdb
     RDKit          3D

 29 28  0  0  1  0  0  0  0  0999 V2000
   20.3131  -22.6013  -16.9412 N   0  0  0  0  0  0  0  0  0  0  0  0
   20.4698  -21.7745  -15.7823 C   0  0  0  0  0  0  0  0  0  0  0  0
   19.4453  -21.3571  -15.2273 O   0  0  0  0  0  0  0  0  0  0  0  0
   21.8542  -21.4926  -15.3499 C   0  0  0  0  0  0  0  0  0  0  0  0
   21.9756  -20.1914  -14.6261 C   0  0  0  0  0  0  0  0  0  0  0  0
   21.5027  -19.0363  -15.4778 C   0  0  2  0  0  0  0  0  0  0  0  0
   21.8329  -19.2716  -16.8880 N   0  0  0  0  0  0  0  0  0  0  0  0
   22.1760  -17.7789  -15.0734 C   0  0  0  0  0  0  0  0  0  0  0  0
   22.0714  -17.3626  -13.8839 O   0  0  0  0  0  0  0  0  0  0  0  0
   24.9320  -13.5386  -14.7683 N   0  0  0  0  0  0  0  0  0  0  0  0
   25.6839  -14.5959  -15.4051 C   0  0  0  0  0  0  0  0  0  0  0  0
   26.9143  -14.4032  -15.4899 O   0  0  0  0  0  0  0  0  0  0  0  0
   24.9260  -15.7611  -15.8742 C   0  0  0  0  0  0  0  0  0  0  0  0
   23.4672  -15.7407  -15.5699 C   0  0  2  0  0  0  0  0  0  0  0  0
   22.9329  -17.0346  -15.9882 N   0  0  0  0  0  0  0  0  0  0  0  0
   22.7873  -14.6642  -16.3766 C   0  0  0  0  0  0  0  0  0  0  0  0
   22.6809  -14.7909  -17.6104 O   0  0  0  0  0  0  0  0  0  0  0  0
   16.0907   -9.0209  -14.5832 N   0  0  0  0  0  0  0  0  0  0  0  0
   16.4733   -8.8948  -15.9329 C   0  0  0  0  0  0  0  0  0  0  0  0
   15.7525   -8.1826  -16.7304 N   0  0  0  0  0  0  0  0  0  0  0  0
   17.6225   -9.5122  -16.4865 N   0  0  0  0  0  0  0  0  0  0  0  0
   18.4921  -10.3271  -15.7165 C   0  0  0  0  0  0  0  0  0  0  0  0
   19.6112  -10.9578  -16.5349 C   0  0  0  0  0  0  0  0  0  0  0  0
   20.4697  -11.8557  -15.6944 C   0  0  0  0  0  0  0  0  0  0  0  0
   21.4953  -12.5298  -16.5694 C   0  0  2  0  0  0  0  0  0  0  0  0
   22.2608  -13.5016  -15.7676 N   0  0  0  0  0  0  0  0  0  0  0  0
   22.4748  -11.5690  -17.0733 C   0  0  0  0  0  0  0  0  0  0  0  0
   22.3467  -11.0030  -18.3187 O   0  0  0  0  0  0  0  0  0  0  0  0
   23.4623  -11.2370  -16.3824 O   0  0  0  0  0  0  0  0  0  0  0  0
  2  1  1  0
  3  2  2  0
  4  2  1  0
  5  4  1  0
  6  5  1  0
  6  7  1  6
  8  6  1  0
  9  8  2  0
 10 11  1  0
 11 13  1  0
 12 11  2  0
 14 13  1  6
 14 15  1  0
 15  8  1  0
 16 14  1  0
 16 17  2  0
 18 19  1  0
 19 20  2  0
 21 22  1  0
 21 19  1  0
 23 24  1  0
 23 22  1  0
 25 24  1  1
 25 26  1  0
 26 16  1  0
 27 25  1  0
 28 27  1  0
 29 27  2  0
M  END
$$$$
