QNR.pdb
     RDKit          3D

 29 28  0  0  1  0  0  0  0  0999 V2000
   10.7555  -22.2008   -7.5993 N   0  0  0  0  0  0  0  0  0  0  0  0
   11.6325  -22.4903   -8.6938 C   0  0  0  0  0  0  0  0  0  0  0  0
   11.1253  -22.8810   -9.7531 O   0  0  0  0  0  0  0  0  0  0  0  0
   13.0776  -22.2937   -8.4569 C   0  0  0  0  0  0  0  0  0  0  0  0
   13.7238  -23.4860   -7.8304 C   0  0  0  0  0  0  0  0  0  0  0  0
   14.7515  -23.0825   -6.7988 C   0  0  2  0  0  0  0  0  0  0  0  0
   16.1062  -23.3542   -7.2928 N   0  0  0  0  0  0  0  0  0  0  0  0
   14.5744  -23.8637   -5.5513 C   0  0  0  0  0  0  0  0  0  0  0  0
   13.4745  -23.8166   -4.9293 O   0  0  0  0  0  0  0  0  0  0  0  0
   18.5199  -26.3870   -2.6109 N   0  0  0  0  0  0  0  0  0  0  0  0
   17.7688  -26.0954   -3.8107 C   0  0  0  0  0  0  0  0  0  0  0  0
   18.3912  -25.4717   -4.6949 O   0  0  0  0  0  0  0  0  0  0  0  0
   16.3776  -26.5590   -3.8533 C   0  0  0  0  0  0  0  0  0  0  0  0
   15.3448  -25.4847   -3.8640 C   0  0  2  0  0  0  0  0  0  0  0  0
   15.6081  -24.6609   -5.0416 N   0  0  0  0  0  0  0  0  0  0  0  0
   15.4887  -24.6190   -2.6385 C   0  0  0  0  0  0  0  0  0  0  0  0
   16.2477  -23.6328   -2.6644 O   0  0  0  0  0  0  0  0  0  0  0  0
   11.0113  -18.6426   -0.7460 N   0  0  0  0  0  0  0  0  0  0  0  0
   11.5172  -19.3332   -1.8645 C   0  0  0  0  0  0  0  0  0  0  0  0
   11.0522  -19.0645   -3.0368 N   0  0  0  0  0  0  0  0  0  0  0  0
   12.5252  -20.3264   -1.7869 N   0  0  0  0  0  0  0  0  0  0  0  0
   13.0481  -20.7826   -0.5493 C   0  0  0  0  0  0  0  0  0  0  0  0
   14.1797  -21.7898   -0.7064 C   0  0  0  0  0  0  0  0  0  0  0  0
   13.8294  -23.1124   -0.0917 C   0  0  0  0  0  0  0  0  0  0  0  0
   14.9900  -24.0610   -0.2506 C   0  0  2  0  0  0  0  0  0  0  0  0
   14.7796  -24.8965   -1.4468 N   0  0  0  0  0  0  0  0  0  0  0  0
   15.0726  -24.9897    0.8750 C   0  0  0  0  0  0  0  0  0  0  0  0
   15.3833  -24.5542    2.1406 O   0  0  0  0  0  0  0  0  0  0  0  0
   14.8649  -26.2120    0.7152 O   0  0  0  0  0  0  0  0  0  0  0  0
  2  1  1  0
  3  2  2  0
  4  2  1  0
  5  4  1  0
  6  5  1  0
  6  7  1  6
  8  6  1  0
  9  8  2  0
 10 11  1  0
 11 13  1  0
 12 11  2  0
 14 13  1  1
 14 15  1  0
 15  8  1  0
 16 14  1  0
 16 17  2  0
 18 19  1  0
 19 20  2  0
 21 22  1  0
 21 19  1  0
 23 24  1  0
 23 22  1  0
 25 24  1  1
 25 26  1  0
 26 16  1  0
 27 25  1  0
 28 27  1  0
 29 27  2  0
M  END
$$$$
