QNR.pdb
     RDKit          3D

 29 28  0  0  1  0  0  0  0  0999 V2000
   25.1032  -23.4618  -20.6987 N   0  0  0  0  0  0  0  0  0  0  0  0
   25.9828  -24.2337  -19.8731 C   0  0  0  0  0  0  0  0  0  0  0  0
   27.1056  -23.7710  -19.6343 O   0  0  0  0  0  0  0  0  0  0  0  0
   25.4644  -25.5249  -19.3759 C   0  0  0  0  0  0  0  0  0  0  0  0
   24.7297  -25.3883  -18.0824 C   0  0  0  0  0  0  0  0  0  0  0  0
   25.6507  -24.9612  -16.9632 C   0  0  2  0  0  0  0  0  0  0  0  0
   26.3228  -26.1281  -16.3803 N   0  0  0  0  0  0  0  0  0  0  0  0
   24.8837  -24.3079  -15.8757 C   0  0  0  0  0  0  0  0  0  0  0  0
   24.2276  -25.0128  -15.0562 O   0  0  0  0  0  0  0  0  0  0  0  0
   23.2507  -20.9017  -12.4118 N   0  0  0  0  0  0  0  0  0  0  0  0
   24.2153  -20.2213  -13.2457 C   0  0  0  0  0  0  0  0  0  0  0  0
   24.5100  -19.0621  -12.8887 O   0  0  0  0  0  0  0  0  0  0  0  0
   24.7324  -20.9603  -14.4027 C   0  0  0  0  0  0  0  0  0  0  0  0
   24.1769  -22.3308  -14.5874 C   0  0  2  0  0  0  0  0  0  0  0  0
   24.8697  -22.9138  -15.7340 N   0  0  0  0  0  0  0  0  0  0  0  0
   22.7071  -22.2520  -14.9120 C   0  0  0  0  0  0  0  0  0  0  0  0
   22.3437  -22.0276  -16.0812 O   0  0  0  0  0  0  0  0  0  0  0  0
   17.3501  -25.6471   -9.8051 N   0  0  0  0  0  0  0  0  0  0  0  0
   16.6632  -24.5344  -10.3284 C   0  0  0  0  0  0  0  0  0  0  0  0
   15.4632  -24.2861   -9.9268 N   0  0  0  0  0  0  0  0  0  0  0  0
   17.2137  -23.6493  -11.2886 N   0  0  0  0  0  0  0  0  0  0  0  0
   17.3052  -23.9831  -12.6647 C   0  0  0  0  0  0  0  0  0  0  0  0
   18.0239  -22.9282  -13.4955 C   0  0  0  0  0  0  0  0  0  0  0  0
   19.4593  -22.7864  -13.0839 C   0  0  0  0  0  0  0  0  0  0  0  0
   20.2898  -22.4141  -14.2854 C   0  0  2  0  0  0  0  0  0  0  0  0
   21.7172  -22.4269  -13.9172 N   0  0  0  0  0  0  0  0  0  0  0  0
   20.0035  -21.0498  -14.7246 C   0  0  0  0  0  0  0  0  0  0  0  0
   18.9081  -20.7639  -15.5033 O   0  0  0  0  0  0  0  0  0  0  0  0
   20.7531  -20.1019  -14.4049 O   0  0  0  0  0  0  0  0  0  0  0  0
  2  1  1  0
  3  2  2  0
  4  2  1  0
  5  4  1  0
  6  5  1  0
  6  7  1  1
  8  6  1  0
  9  8  2  0
 10 11  1  0
 11 13  1  0
 12 11  2  0
 14 13  1  6
 14 15  1  0
 15  8  1  0
 16 14  1  0
 16 17  2  0
 18 19  1  0
 19 20  2  0
 21 22  1  0
 21 19  1  0
 23 24  1  0
 23 22  1  0
 25 24  1  1
 25 26  1  0
 26 16  1  0
 27 25  1  0
 28 27  1  0
 29 27  2  0
M  END
$$$$
