QNR.pdb
     RDKit          3D

 29 28  0  0  1  0  0  0  0  0999 V2000
   19.7854  -27.1798   -9.5427 N   0  0  0  0  0  0  0  0  0  0  0  0
   19.8011  -28.6008   -9.7201 C   0  0  0  0  0  0  0  0  0  0  0  0
   19.6762  -29.3103   -8.7136 O   0  0  0  0  0  0  0  0  0  0  0  0
   19.9659  -29.0958  -11.1024 C   0  0  0  0  0  0  0  0  0  0  0  0
   20.0571  -27.9886  -12.1012 C   0  0  0  0  0  0  0  0  0  0  0  0
   18.7134  -27.6920  -12.7255 C   0  0  2  0  0  0  0  0  0  0  0  0
   18.3548  -28.7388  -13.6893 N   0  0  0  0  0  0  0  0  0  0  0  0
   18.7531  -26.4085  -13.4662 C   0  0  0  0  0  0  0  0  0  0  0  0
   19.0481  -26.3995  -14.6958 O   0  0  0  0  0  0  0  0  0  0  0  0
   16.2525  -21.7935  -15.2220 N   0  0  0  0  0  0  0  0  0  0  0  0
   17.1038  -21.9615  -14.0663 C   0  0  0  0  0  0  0  0  0  0  0  0
   17.6767  -20.9269  -13.6670 O   0  0  0  0  0  0  0  0  0  0  0  0
   17.1976  -23.3117  -13.5002 C   0  0  0  0  0  0  0  0  0  0  0  0
   18.5359  -23.9587  -13.6061 C   0  0  2  0  0  0  0  0  0  0  0  0
   18.4680  -25.1936  -12.8284 N   0  0  0  0  0  0  0  0  0  0  0  0
   19.5880  -23.0702  -12.9932 C   0  0  0  0  0  0  0  0  0  0  0  0
   19.7671  -23.0838  -11.7614 O   0  0  0  0  0  0  0  0  0  0  0  0
   25.4656  -24.6337  -15.2873 N   0  0  0  0  0  0  0  0  0  0  0  0
   25.5646  -23.4492  -16.0431 C   0  0  0  0  0  0  0  0  0  0  0  0
   25.8347  -23.5233  -17.3019 N   0  0  0  0  0  0  0  0  0  0  0  0
   25.3839  -22.1522  -15.5016 N   0  0  0  0  0  0  0  0  0  0  0  0
   24.7426  -21.9323  -14.2551 C   0  0  0  0  0  0  0  0  0  0  0  0
   23.3123  -22.4539  -14.2115 C   0  0  0  0  0  0  0  0  0  0  0  0
   22.6530  -22.1451  -12.9001 C   0  0  0  0  0  0  0  0  0  0  0  0
   21.3974  -21.3484  -13.1468 C   0  0  2  0  0  0  0  0  0  0  0  0
   20.3866  -22.2118  -13.7840 N   0  0  0  0  0  0  0  0  0  0  0  0
   21.6397  -20.2566  -14.0878 C   0  0  0  0  0  0  0  0  0  0  0  0
   22.3590  -19.1441  -13.7233 O   0  0  0  0  0  0  0  0  0  0  0  0
   21.1940  -20.3043  -15.2548 O   0  0  0  0  0  0  0  0  0  0  0  0
  2  1  1  0
  3  2  2  0
  4  2  1  0
  5  4  1  0
  6  5  1  0
  6  7  1  6
  8  6  1  0
  9  8  2  0
 10 11  1  0
 11 13  1  0
 12 11  2  0
 14 13  1  1
 14 15  1  0
 15  8  1  0
 16 14  1  0
 16 17  2  0
 18 19  1  0
 19 20  2  0
 21 22  1  0
 21 19  1  0
 23 24  1  0
 23 22  1  0
 25 24  1  6
 25 26  1  0
 26 16  1  0
 27 25  1  0
 28 27  1  0
 29 27  2  0
M  END
$$$$
