QNR.pdb
     RDKit          3D

 29 28  0  0  1  0  0  0  0  0999 V2000
   19.4347  -14.4362  -17.0926 N   0  0  0  0  0  0  0  0  0  0  0  0
   18.6588  -14.9252  -15.9927 C   0  0  0  0  0  0  0  0  0  0  0  0
   18.3431  -16.1220  -15.9950 O   0  0  0  0  0  0  0  0  0  0  0  0
   18.3027  -13.9469  -14.9443 C   0  0  0  0  0  0  0  0  0  0  0  0
   18.7910  -12.5697  -15.2550 C   0  0  0  0  0  0  0  0  0  0  0  0
   17.6911  -11.5443  -15.1071 C   0  0  2  0  0  0  0  0  0  0  0  0
   17.0553  -11.2854  -16.4040 N   0  0  0  0  0  0  0  0  0  0  0  0
   18.2400  -10.2553  -14.6224 C   0  0  0  0  0  0  0  0  0  0  0  0
   18.7028  -10.1691  -13.4488 O   0  0  0  0  0  0  0  0  0  0  0  0
   21.4980   -8.5007  -14.7448 N   0  0  0  0  0  0  0  0  0  0  0  0
   21.1142   -7.6720  -15.8649 C   0  0  0  0  0  0  0  0  0  0  0  0
   22.0422   -7.3444  -16.6328 O   0  0  0  0  0  0  0  0  0  0  0  0
   19.6955   -7.3139  -15.9715 C   0  0  0  0  0  0  0  0  0  0  0  0
   18.8117   -7.8767  -14.9118 C   0  0  2  0  0  0  0  0  0  0  0  0
   18.2578   -9.1197  -15.4434 N   0  0  0  0  0  0  0  0  0  0  0  0
   17.6718   -6.9304  -14.6347 C   0  0  0  0  0  0  0  0  0  0  0  0
   16.6338   -6.9966  -15.3185 O   0  0  0  0  0  0  0  0  0  0  0  0
   12.6896   -7.8572   -8.6467 N   0  0  0  0  0  0  0  0  0  0  0  0
   13.8889   -7.1278   -8.5291 C   0  0  0  0  0  0  0  0  0  0  0  0
   14.4845   -7.0706   -7.3868 N   0  0  0  0  0  0  0  0  0  0  0  0
   14.4987   -6.4364   -9.6054 N   0  0  0  0  0  0  0  0  0  0  0  0
   13.7567   -5.9471  -10.7114 C   0  0  0  0  0  0  0  0  0  0  0  0
   14.6050   -5.1758  -11.7140 C   0  0  0  0  0  0  0  0  0  0  0  0
   15.7579   -5.9983  -12.2082 C   0  0  0  0  0  0  0  0  0  0  0  0
   16.5428   -5.2026  -13.2196 C   0  0  2  0  0  0  0  0  0  0  0  0
   17.7467   -5.9585  -13.6101 N   0  0  0  0  0  0  0  0  0  0  0  0
   17.0277   -3.9489  -12.6459 C   0  0  0  0  0  0  0  0  0  0  0  0
   16.2781   -2.7987  -12.7027 O   0  0  0  0  0  0  0  0  0  0  0  0
   18.1447   -3.8879  -12.0880 O   0  0  0  0  0  0  0  0  0  0  0  0
  2  1  1  0
  3  2  2  0
  4  2  1  0
  5  4  1  0
  6  5  1  0
  6  7  1  6
  8  6  1  0
  9  8  2  0
 10 11  1  0
 11 13  1  0
 12 11  2  0
 14 13  1  6
 14 15  1  0
 15  8  1  0
 16 14  1  0
 16 17  2  0
 18 19  1  0
 19 20  2  0
 21 22  1  0
 21 19  1  0
 23 24  1  0
 23 22  1  0
 25 24  1  1
 25 26  1  0
 26 16  1  0
 27 25  1  0
 28 27  1  0
 29 27  2  0
M  END
$$$$
