QNR.pdb
     RDKit          3D

 29 28  0  0  1  0  0  0  0  0999 V2000
   28.4209  -15.8891  -20.2019 N   0  0  0  0  0  0  0  0  0  0  0  0
   29.6156  -16.4836  -19.6821 C   0  0  0  0  0  0  0  0  0  0  0  0
   30.5769  -16.6158  -20.4504 O   0  0  0  0  0  0  0  0  0  0  0  0
   29.5921  -16.8884  -18.2613 C   0  0  0  0  0  0  0  0  0  0  0  0
   28.2646  -16.6505  -17.6188 C   0  0  0  0  0  0  0  0  0  0  0  0
   27.6066  -17.9470  -17.2075 C   0  0  2  0  0  0  0  0  0  0  0  0
   27.4769  -18.8436  -18.3618 N   0  0  0  0  0  0  0  0  0  0  0  0
   26.2400  -17.6982  -16.6893 C   0  0  0  0  0  0  0  0  0  0  0  0
   26.0771  -16.9798  -15.6615 O   0  0  0  0  0  0  0  0  0  0  0  0
   23.7195  -15.3741  -17.7062 N   0  0  0  0  0  0  0  0  0  0  0  0
   22.8986  -16.3263  -18.4191 C   0  0  0  0  0  0  0  0  0  0  0  0
   22.2777  -15.8700  -19.4011 O   0  0  0  0  0  0  0  0  0  0  0  0
   22.8877  -17.7038  -17.9145 C   0  0  0  0  0  0  0  0  0  0  0  0
   23.7928  -17.9701  -16.7608 C   0  0  2  0  0  0  0  0  0  0  0  0
   25.1144  -18.2462  -17.3191 N   0  0  0  0  0  0  0  0  0  0  0  0
   23.3290  -19.1943  -16.0136 C   0  0  0  0  0  0  0  0  0  0  0  0
   23.4566  -20.3192  -16.5310 O   0  0  0  0  0  0  0  0  0  0  0  0
   26.1213  -20.7858   -8.7439 N   0  0  0  0  0  0  0  0  0  0  0  0
   24.7714  -20.9621   -9.1058 C   0  0  0  0  0  0  0  0  0  0  0  0
   23.8910  -21.1616   -8.1850 N   0  0  0  0  0  0  0  0  0  0  0  0
   24.3049  -20.9350  -10.4437 N   0  0  0  0  0  0  0  0  0  0  0  0
   25.1623  -20.6648  -11.5416 C   0  0  0  0  0  0  0  0  0  0  0  0
   24.4319  -20.6007  -12.8766 C   0  0  0  0  0  0  0  0  0  0  0  0
   22.9557  -20.4134  -12.6886 C   0  0  0  0  0  0  0  0  0  0  0  0
   22.2875  -20.3207  -14.0366 C   0  0  2  0  0  0  0  0  0  0  0  0
   22.7466  -19.1024  -14.7282 N   0  0  0  0  0  0  0  0  0  0  0  0
   20.8390  -20.1803  -13.9008 C   0  0  0  0  0  0  0  0  0  0  0  0
   20.0382  -21.2619  -13.6235 O   0  0  0  0  0  0  0  0  0  0  0  0
   20.2864  -19.0674  -14.0374 O   0  0  0  0  0  0  0  0  0  0  0  0
  2  1  1  0
  3  2  2  0
  4  2  1  0
  5  4  1  0
  6  5  1  0
  6  7  1  6
  8  6  1  0
  9  8  2  0
 10 11  1  0
 11 13  1  0
 12 11  2  0
 14 13  1  6
 14 15  1  0
 15  8  1  0
 16 14  1  0
 16 17  2  0
 18 19  1  0
 19 20  2  0
 21 22  1  0
 21 19  1  0
 23 24  1  0
 23 22  1  0
 25 24  1  1
 25 26  1  0
 26 16  1  0
 27 25  1  0
 28 27  1  0
 29 27  2  0
M  END
$$$$
