QNR.pdb
     RDKit          3D

 29 28  0  0  1  0  0  0  0  0999 V2000
   16.1640  -12.6529  -14.9277 N   0  0  0  0  0  0  0  0  0  0  0  0
   16.4141  -12.2802  -16.2877 C   0  0  0  0  0  0  0  0  0  0  0  0
   15.7171  -12.8020  -17.1674 O   0  0  0  0  0  0  0  0  0  0  0  0
   17.4917  -11.2962  -16.5192 C   0  0  0  0  0  0  0  0  0  0  0  0
   18.1148  -10.8181  -15.2485 C   0  0  0  0  0  0  0  0  0  0  0  0
   19.2489   -9.8556  -15.5142 C   0  0  2  0  0  0  0  0  0  0  0  0
   20.3865  -10.5594  -16.1174 N   0  0  0  0  0  0  0  0  0  0  0  0
   19.7284   -9.2506  -14.2485 C   0  0  0  0  0  0  0  0  0  0  0  0
   20.8131   -9.6458  -13.7326 O   0  0  0  0  0  0  0  0  0  0  0  0
   20.9431   -5.8755  -10.7205 N   0  0  0  0  0  0  0  0  0  0  0  0
   21.5279   -6.0023  -12.0360 C   0  0  0  0  0  0  0  0  0  0  0  0
   22.5945   -5.3780  -12.2114 O   0  0  0  0  0  0  0  0  0  0  0  0
   20.8111   -6.8394  -13.0043 C   0  0  0  0  0  0  0  0  0  0  0  0
   19.6101   -7.5452  -12.4749 C   0  0  2  0  0  0  0  0  0  0  0  0
   18.9997   -8.2411  -13.6053 N   0  0  0  0  0  0  0  0  0  0  0  0
   18.6168   -6.5443  -11.9424 C   0  0  0  0  0  0  0  0  0  0  0  0
   17.9611   -5.8431  -12.7348 O   0  0  0  0  0  0  0  0  0  0  0  0
   12.3940  -10.4699   -7.9047 N   0  0  0  0  0  0  0  0  0  0  0  0
   12.0078   -9.1194   -8.0096 C   0  0  0  0  0  0  0  0  0  0  0  0
   10.7870   -8.7897   -7.7571 N   0  0  0  0  0  0  0  0  0  0  0  0
   12.8898   -8.0749   -8.3828 N   0  0  0  0  0  0  0  0  0  0  0  0
   14.2092   -8.3229   -8.8422 C   0  0  0  0  0  0  0  0  0  0  0  0
   14.9949   -7.0518   -9.1370 C   0  0  0  0  0  0  0  0  0  0  0  0
   16.3594   -7.3606   -9.6780 C   0  0  0  0  0  0  0  0  0  0  0  0
   17.0549   -6.0745  -10.0445 C   0  0  2  0  0  0  0  0  0  0  0  0
   18.4049   -6.3758  -10.5544 N   0  0  0  0  0  0  0  0  0  0  0  0
   17.2520   -5.2262   -8.8708 C   0  0  0  0  0  0  0  0  0  0  0  0
   16.3440   -4.2526   -8.5309 O   0  0  0  0  0  0  0  0  0  0  0  0
   18.2589   -5.3620   -8.1424 O   0  0  0  0  0  0  0  0  0  0  0  0
  2  1  1  0
  3  2  2  0
  4  2  1  0
  5  4  1  0
  6  5  1  0
  6  7  1  1
  8  6  1  0
  9  8  2  0
 10 11  1  0
 11 13  1  0
 12 11  2  0
 14 13  1  6
 14 15  1  0
 15  8  1  0
 16 14  1  0
 16 17  2  0
 18 19  1  0
 19 20  2  0
 21 22  1  0
 21 19  1  0
 23 24  1  0
 23 22  1  0
 25 24  1  1
 25 26  1  0
 26 16  1  0
 27 25  1  0
 28 27  1  0
 29 27  2  0
M  END
$$$$
