QNR.pdb
     RDKit          3D

 29 28  0  0  1  0  0  0  0  0999 V2000
   25.3461  -26.0367  -16.4488 N   0  0  0  0  0  0  0  0  0  0  0  0
   26.2837  -26.0317  -17.5314 C   0  0  0  0  0  0  0  0  0  0  0  0
   26.9145  -27.0730  -17.7544 O   0  0  0  0  0  0  0  0  0  0  0  0
   26.4134  -24.7716  -18.2918 C   0  0  0  0  0  0  0  0  0  0  0  0
   25.5089  -23.6978  -17.7814 C   0  0  0  0  0  0  0  0  0  0  0  0
   24.8623  -22.9325  -18.9125 C   0  0  2  0  0  0  0  0  0  0  0  0
   25.8737  -22.1841  -19.6677 N   0  0  0  0  0  0  0  0  0  0  0  0
   23.8885  -21.9461  -18.3866 C   0  0  0  0  0  0  0  0  0  0  0  0
   24.2604  -20.7627  -18.1415 O   0  0  0  0  0  0  0  0  0  0  0  0
   18.7180  -19.6287  -18.2666 N   0  0  0  0  0  0  0  0  0  0  0  0
   19.2499  -20.7184  -17.4804 C   0  0  0  0  0  0  0  0  0  0  0  0
   18.7380  -20.8652  -16.3514 O   0  0  0  0  0  0  0  0  0  0  0  0
   20.3178  -21.5187  -18.0898 C   0  0  0  0  0  0  0  0  0  0  0  0
   21.6737  -21.3317  -17.5004 C   0  0  2  0  0  0  0  0  0  0  0  0
   22.5525  -22.2991  -18.1533 N   0  0  0  0  0  0  0  0  0  0  0  0
   21.6418  -21.6407  -16.0254 C   0  0  0  0  0  0  0  0  0  0  0  0
   21.4080  -22.8018  -15.6424 O   0  0  0  0  0  0  0  0  0  0  0  0
   24.3454  -20.2034   -8.4331 N   0  0  0  0  0  0  0  0  0  0  0  0
   25.5234  -20.5025   -9.1450 C   0  0  0  0  0  0  0  0  0  0  0  0
   26.5189  -21.0375   -8.5238 N   0  0  0  0  0  0  0  0  0  0  0  0
   25.6929  -20.2492  -10.5290 N   0  0  0  0  0  0  0  0  0  0  0  0
   24.6821  -19.6434  -11.3194 C   0  0  0  0  0  0  0  0  0  0  0  0
   23.8121  -20.6492  -12.0619 C   0  0  0  0  0  0  0  0  0  0  0  0
   22.7664  -19.9660  -12.8923 C   0  0  0  0  0  0  0  0  0  0  0  0
   21.9545  -21.0025  -13.6261 C   0  0  2  0  0  0  0  0  0  0  0  0
   21.8719  -20.6404  -15.0527 N   0  0  0  0  0  0  0  0  0  0  0  0
   20.5756  -21.0345  -13.1423 C   0  0  0  0  0  0  0  0  0  0  0  0
   20.1523  -21.9898  -12.2501 O   0  0  0  0  0  0  0  0  0  0  0  0
   19.7390  -20.1911  -13.5318 O   0  0  0  0  0  0  0  0  0  0  0  0
  2  1  1  0
  3  2  2  0
  4  2  1  0
  5  4  1  0
  6  5  1  0
  6  7  1  1
  8  6  1  0
  9  8  2  0
 10 11  1  0
 11 13  1  0
 12 11  2  0
 14 13  1  6
 14 15  1  0
 15  8  1  0
 16 14  1  0
 16 17  2  0
 18 19  1  0
 19 20  2  0
 21 22  1  0
 21 19  1  0
 23 24  1  0
 23 22  1  0
 25 24  1  1
 25 26  1  0
 26 16  1  0
 27 25  1  0
 28 27  1  0
 29 27  2  0
M  END
$$$$
