QNR.pdb
     RDKit          3D

 29 28  0  0  1  0  0  0  0  0999 V2000
   27.3318  -26.6033  -16.4275 N   0  0  0  0  0  0  0  0  0  0  0  0
   28.5357  -27.1053  -17.0190 C   0  0  0  0  0  0  0  0  0  0  0  0
   28.4793  -28.1898  -17.6128 O   0  0  0  0  0  0  0  0  0  0  0  0
   29.7476  -26.2741  -16.8658 C   0  0  0  0  0  0  0  0  0  0  0  0
   29.4701  -24.9759  -16.1807 C   0  0  0  0  0  0  0  0  0  0  0  0
   29.0959  -23.8956  -17.1687 C   0  0  2  0  0  0  0  0  0  0  0  0
   30.2098  -23.6346  -18.0876 N   0  0  0  0  0  0  0  0  0  0  0  0
   28.7997  -22.6244  -16.4658 C   0  0  0  0  0  0  0  0  0  0  0  0
   28.9874  -22.5356  -15.2185 O   0  0  0  0  0  0  0  0  0  0  0  0
   28.1121  -17.2064  -15.4656 N   0  0  0  0  0  0  0  0  0  0  0  0
   27.4158  -17.9603  -16.4832 C   0  0  0  0  0  0  0  0  0  0  0  0
   26.3012  -17.5083  -16.8174 O   0  0  0  0  0  0  0  0  0  0  0  0
   28.0886  -19.1565  -17.0016 C   0  0  0  0  0  0  0  0  0  0  0  0
   27.6459  -20.4488  -16.4058 C   0  0  2  0  0  0  0  0  0  0  0  0
   28.3120  -21.5085  -17.1593 N   0  0  0  0  0  0  0  0  0  0  0  0
   26.1569  -20.6113  -16.5750 C   0  0  0  0  0  0  0  0  0  0  0  0
   25.7139  -21.3312  -17.4888 O   0  0  0  0  0  0  0  0  0  0  0  0
   24.3699  -21.0445   -8.3630 N   0  0  0  0  0  0  0  0  0  0  0  0
   23.3139  -20.8637   -9.2775 C   0  0  0  0  0  0  0  0  0  0  0  0
   22.0969  -20.9955   -8.8719 N   0  0  0  0  0  0  0  0  0  0  0  0
   23.5026  -20.5398  -10.6442 N   0  0  0  0  0  0  0  0  0  0  0  0
   24.7875  -20.4995  -11.2446 C   0  0  0  0  0  0  0  0  0  0  0  0
   24.7633  -20.0247  -12.6916 C   0  0  0  0  0  0  0  0  0  0  0  0
   24.8170  -21.1768  -13.6505 C   0  0  0  0  0  0  0  0  0  0  0  0
   24.2375  -20.7522  -14.9756 C   0  0  2  0  0  0  0  0  0  0  0  0
   25.2378  -19.9634  -15.7176 N   0  0  0  0  0  0  0  0  0  0  0  0
   23.0886  -19.8677  -14.7918 C   0  0  0  0  0  0  0  0  0  0  0  0
   21.8362  -20.3671  -14.5270 O   0  0  0  0  0  0  0  0  0  0  0  0
   23.2142  -18.6267  -14.8743 O   0  0  0  0  0  0  0  0  0  0  0  0
  2  1  1  0
  3  2  2  0
  4  2  1  0
  5  4  1  0
  6  5  1  0
  6  7  1  6
  8  6  1  0
  9  8  2  0
 10 11  1  0
 11 13  1  0
 12 11  2  0
 14 13  1  6
 14 15  1  0
 15  8  1  0
 16 14  1  0
 16 17  2  0
 18 19  1  0
 19 20  2  0
 21 22  1  0
 21 19  1  0
 23 24  1  0
 23 22  1  0
 25 24  1  1
 25 26  1  0
 26 16  1  0
 27 25  1  0
 28 27  1  0
 29 27  2  0
M  END
$$$$
