QNR.pdb
     RDKit          3D

 29 28  0  0  1  0  0  0  0  0999 V2000
   19.5248  -26.5420  -17.0988 N   0  0  0  0  0  0  0  0  0  0  0  0
   18.6543  -25.6622  -16.3783 C   0  0  0  0  0  0  0  0  0  0  0  0
   17.6957  -26.1629  -15.7764 O   0  0  0  0  0  0  0  0  0  0  0  0
   18.9833  -24.2223  -16.4189 C   0  0  0  0  0  0  0  0  0  0  0  0
   20.1567  -23.9264  -17.2948 C   0  0  0  0  0  0  0  0  0  0  0  0
   21.2801  -23.2798  -16.5182 C   0  0  2  0  0  0  0  0  0  0  0  0
   21.3579  -23.8438  -15.1658 N   0  0  0  0  0  0  0  0  0  0  0  0
   21.0445  -21.8233  -16.3733 C   0  0  0  0  0  0  0  0  0  0  0  0
   20.8094  -21.1183  -17.3964 O   0  0  0  0  0  0  0  0  0  0  0  0
   20.1641  -17.1338  -14.5619 N   0  0  0  0  0  0  0  0  0  0  0  0
   19.6910  -18.0996  -13.5965 C   0  0  0  0  0  0  0  0  0  0  0  0
   19.0172  -17.6317  -12.6556 O   0  0  0  0  0  0  0  0  0  0  0  0
   20.0516  -19.5026  -13.8280 C   0  0  0  0  0  0  0  0  0  0  0  0
   20.8811  -19.7589  -15.0393 C   0  0  2  0  0  0  0  0  0  0  0  0
   21.0765  -21.2047  -15.1162 N   0  0  0  0  0  0  0  0  0  0  0  0
   22.2311  -19.1058  -14.8873 C   0  0  0  0  0  0  0  0  0  0  0  0
   22.9512  -19.3950  -13.9140 O   0  0  0  0  0  0  0  0  0  0  0  0
   24.6807  -23.9815  -15.8711 N   0  0  0  0  0  0  0  0  0  0  0  0
   24.7092  -23.3366  -14.6192 C   0  0  0  0  0  0  0  0  0  0  0  0
   24.0551  -23.8452  -13.6311 N   0  0  0  0  0  0  0  0  0  0  0  0
   25.4238  -22.1392  -14.3664 N   0  0  0  0  0  0  0  0  0  0  0  0
   26.0628  -21.4040  -15.3980 C   0  0  0  0  0  0  0  0  0  0  0  0
   25.6404  -19.9415  -15.4481 C   0  0  0  0  0  0  0  0  0  0  0  0
   24.4847  -19.7335  -16.3814 C   0  0  0  0  0  0  0  0  0  0  0  0
   24.0792  -18.2819  -16.3596 C   0  0  2  0  0  0  0  0  0  0  0  0
   22.7095  -18.1638  -15.8273 N   0  0  0  0  0  0  0  0  0  0  0  0
   24.0316  -17.7253  -17.7102 C   0  0  0  0  0  0  0  0  0  0  0  0
   25.1654  -17.2646  -18.3347 O   0  0  0  0  0  0  0  0  0  0  0  0
   22.9518  -17.6499  -18.3356 O   0  0  0  0  0  0  0  0  0  0  0  0
  2  1  1  0
  3  2  2  0
  4  2  1  0
  5  4  1  0
  6  5  1  0
  6  7  1  1
  8  6  1  0
  9  8  2  0
 10 11  1  0
 11 13  1  0
 12 11  2  0
 14 13  1  1
 14 15  1  0
 15  8  1  0
 16 14  1  0
 16 17  2  0
 18 19  1  0
 19 20  2  0
 21 22  1  0
 21 19  1  0
 23 24  1  0
 23 22  1  0
 25 24  1  6
 25 26  1  0
 26 16  1  0
 27 25  1  0
 28 27  1  0
 29 27  2  0
M  END
$$$$
