YTK.pdb
     RDKit          3D

 29 29  0  0  1  0  0  0  0  0999 V2000
   19.4706  -23.1949   -9.9627 O   0  0  0  0  0  0  0  0  0  0  0  0
   20.4718  -22.4648  -10.5897 C   0  0  0  0  0  0  0  0  0  0  0  0
   21.1070  -21.3941  -10.0240 C   0  0  0  0  0  0  0  0  0  0  0  0
   22.0991  -20.6793  -10.6590 C   0  0  0  0  0  0  0  0  0  0  0  0
   22.4968  -21.0403  -11.9408 C   0  0  0  0  0  0  0  0  0  0  0  0
   23.5591  -20.2997  -12.6594 C   0  0  0  0  0  0  0  0  0  0  0  0
   24.8605  -21.0921  -12.6929 C   0  0  2  0  0  0  0  0  0  0  0  0
   25.3354  -21.2208  -11.3508 N   0  0  0  0  0  0  0  0  0  0  0  0
   25.8480  -20.3869  -13.5282 C   0  0  0  0  0  0  0  0  0  0  0  0
   27.0457  -20.2523  -13.1048 O   0  0  0  0  0  0  0  0  0  0  0  0
   21.8587  -22.1182  -12.5130 C   0  0  0  0  0  0  0  0  0  0  0  0
   20.8669  -22.8324  -11.8774 C   0  0  0  0  0  0  0  0  0  0  0  0
   28.0230  -21.0817  -14.6024 C   0  0  0  0  0  0  0  0  0  0  0  0
   27.5686  -20.5209  -15.9344 C   0  0  1  0  0  0  0  0  0  0  0  0
   26.8980  -21.5469  -16.6359 O   0  0  0  0  0  0  0  0  0  0  0  0
   26.6040  -19.4081  -15.7288 C   0  0  2  0  0  0  0  0  0  0  0  0
   25.5694  -19.8276  -14.8037 N   0  0  0  0  0  0  0  0  0  0  0  0
   26.0501  -18.8160  -16.9512 C   0  0  0  0  0  0  0  0  0  0  0  0
   25.0534  -19.3881  -17.4668 O   0  0  0  0  0  0  0  0  0  0  0  0
   26.5640  -17.6656  -17.5650 N   0  0  0  0  0  0  0  0  0  0  0  0
   25.8693  -17.0676  -18.8024 C   0  0  1  0  0  0  0  0  0  0  0  0
   26.1280  -15.6523  -18.6904 C   0  0  0  0  0  0  0  0  0  0  0  0
   25.5890  -14.5976  -19.5212 C   0  0  0  0  0  0  0  0  0  0  0  0
   25.8271  -13.1727  -19.4184 C   0  0  0  0  0  0  0  0  0  0  0  0
   25.2354  -12.1289  -20.2386 C   0  0  0  0  0  0  0  0  0  0  0  0
   25.5494  -10.7737  -19.8265 N   0  0  0  0  0  0  0  0  0  0  0  0
   26.2511  -17.8984  -19.9116 C   0  0  0  0  0  0  0  0  0  0  0  0
   25.4110  -18.0172  -20.8837 O   0  0  0  0  0  0  0  0  0  0  0  0
   27.4219  -18.5989  -20.1083 O   0  0  0  0  0  0  0  0  0  0  0  0
  2 12  2  0
  2  1  1  0
  3  2  1  0
  4  5  1  0
  4  3  2  0
  5 11  2  0
  6  5  1  0
  7  9  1  0
  7  6  1  0
  7  8  1  1
  9 10  2  0
 11 12  1  0
 14 13  1  1
 14 15  1  0
 16 14  1  0
 16 17  1  1
 17  9  1  0
 18 16  1  0
 19 18  2  0
 20 18  1  0
 21 20  1  0
 21 22  1  6
 23 22  1  0
 24 25  1  0
 24 23  1  0
 26 25  1  0
 27 21  1  0
 27 29  1  0
 28 27  2  0
M  END
$$$$
