YTK.pdb
     RDKit          3D

 29 29  0  0  1  0  0  0  0  0999 V2000
   23.3992  -15.6602  -25.5634 O   0  0  0  0  0  0  0  0  0  0  0  0
   23.2021  -15.1630  -24.2818 C   0  0  0  0  0  0  0  0  0  0  0  0
   22.6282  -15.8745  -23.2647 C   0  0  0  0  0  0  0  0  0  0  0  0
   22.4392  -15.3672  -21.9977 C   0  0  0  0  0  0  0  0  0  0  0  0
   22.8419  -14.0691  -21.7072 C   0  0  0  0  0  0  0  0  0  0  0  0
   22.6578  -13.4847  -20.3588 C   0  0  0  0  0  0  0  0  0  0  0  0
   23.8579  -13.7697  -19.4636 C   0  0  2  0  0  0  0  0  0  0  0  0
   23.8805  -15.1718  -19.1863 N   0  0  0  0  0  0  0  0  0  0  0  0
   23.7398  -12.9951  -18.2161 C   0  0  0  0  0  0  0  0  0  0  0  0
   23.1906  -13.5308  -17.1947 O   0  0  0  0  0  0  0  0  0  0  0  0
   23.4201  -13.3503  -22.7297 C   0  0  0  0  0  0  0  0  0  0  0  0
   23.6087  -13.8583  -23.9961 C   0  0  0  0  0  0  0  0  0  0  0  0
   25.2238   -9.8401  -14.9467 C   0  0  0  0  0  0  0  0  0  0  0  0
   25.3527  -10.7374  -16.1605 C   0  0  1  0  0  0  0  0  0  0  0  0
   25.7844  -12.0085  -15.7218 O   0  0  0  0  0  0  0  0  0  0  0  0
   24.0322  -10.9113  -16.8216 C   0  0  2  0  0  0  0  0  0  0  0  0
   24.2002  -11.6616  -18.0508 N   0  0  0  0  0  0  0  0  0  0  0  0
   23.2574   -9.6820  -17.0221 C   0  0  0  0  0  0  0  0  0  0  0  0
   23.5642   -8.9636  -18.0102 O   0  0  0  0  0  0  0  0  0  0  0  0
   22.2107   -9.2722  -16.1850 N   0  0  0  0  0  0  0  0  0  0  0  0
   21.4602   -7.9570  -16.4647 C   0  0  1  0  0  0  0  0  0  0  0  0
   20.0693   -8.3385  -16.4142 C   0  0  0  0  0  0  0  0  0  0  0  0
   18.9215   -7.4875  -16.6417 C   0  0  0  0  0  0  0  0  0  0  0  0
   17.5211   -7.8173  -16.4758 C   0  0  0  0  0  0  0  0  0  0  0  0
   16.3839   -6.9584  -16.7612 C   0  0  0  0  0  0  0  0  0  0  0  0
   15.1075   -7.4509  -16.2783 N   0  0  0  0  0  0  0  0  0  0  0  0
   22.0810   -6.9619  -15.6336 C   0  0  0  0  0  0  0  0  0  0  0  0
   22.5716   -7.3501  -14.5051 O   0  0  0  0  0  0  0  0  0  0  0  0
   22.2507   -5.6150  -15.8725 O   0  0  0  0  0  0  0  0  0  0  0  0
  2 12  2  0
  2  1  1  0
  3  2  1  0
  4  5  1  0
  4  3  2  0
  5 11  2  0
  6  5  1  0
  7  9  1  0
  7  6  1  0
  7  8  1  1
  9 10  2  0
 11 12  1  0
 14 13  1  1
 14 15  1  0
 16 14  1  0
 16 17  1  6
 17  9  1  0
 18 16  1  0
 19 18  2  0
 20 18  1  0
 21 20  1  0
 21 22  1  1
 23 22  1  0
 24 25  1  0
 24 23  1  0
 26 25  1  0
 27 21  1  0
 27 29  1  0
 28 27  2  0
M  END
$$$$
