YTK.pdb
     RDKit          3D

 29 29  0  0  1  0  0  0  0  0999 V2000
   24.2109  -19.8724   -7.4571 O   0  0  0  0  0  0  0  0  0  0  0  0
   24.4040  -20.3166   -8.7587 C   0  0  0  0  0  0  0  0  0  0  0  0
   23.3882  -20.6205   -9.6223 C   0  0  0  0  0  0  0  0  0  0  0  0
   23.5958  -21.0605  -10.9114 C   0  0  0  0  0  0  0  0  0  0  0  0
   24.8924  -21.2134  -11.3878 C   0  0  0  0  0  0  0  0  0  0  0  0
   25.1604  -21.6833  -12.7664 C   0  0  0  0  0  0  0  0  0  0  0  0
   25.5408  -20.5255  -13.6817 C   0  0  2  0  0  0  0  0  0  0  0  0
   24.4471  -19.6056  -13.7100 N   0  0  0  0  0  0  0  0  0  0  0  0
   25.8254  -21.0363  -15.0338 C   0  0  0  0  0  0  0  0  0  0  0  0
   25.2692  -20.4844  -16.0427 O   0  0  0  0  0  0  0  0  0  0  0  0
   25.9173  -20.9081  -10.5201 C   0  0  0  0  0  0  0  0  0  0  0  0
   25.7089  -20.4683   -9.2314 C   0  0  0  0  0  0  0  0  0  0  0  0
   27.0046  -19.9478  -16.9510 C   0  0  0  0  0  0  0  0  0  0  0  0
   27.8996  -21.1539  -17.1490 C   0  0  1  0  0  0  0  0  0  0  0  0
   29.0781  -20.9532  -16.3971 O   0  0  0  0  0  0  0  0  0  0  0  0
   27.2384  -22.3826  -16.6347 C   0  0  2  0  0  0  0  0  0  0  0  0
   26.6934  -22.1245  -15.3162 N   0  0  0  0  0  0  0  0  0  0  0  0
   28.0525  -23.6023  -16.6708 C   0  0  0  0  0  0  0  0  0  0  0  0
   28.8482  -23.7912  -15.7129 O   0  0  0  0  0  0  0  0  0  0  0  0
   27.9917  -24.5527  -17.6991 N   0  0  0  0  0  0  0  0  0  0  0  0
   28.6015  -25.9528  -17.5015 C   0  0  1  0  0  0  0  0  0  0  0  0
   28.0181  -26.7342  -18.5653 C   0  0  0  0  0  0  0  0  0  0  0  0
   28.3339  -28.1010  -18.9193 C   0  0  0  0  0  0  0  0  0  0  0  0
   27.8176  -28.8762  -20.0284 C   0  0  0  0  0  0  0  0  0  0  0  0
   28.1513  -30.2511  -20.3606 C   0  0  0  0  0  0  0  0  0  0  0  0
   27.4311  -30.7999  -21.4943 N   0  0  0  0  0  0  0  0  0  0  0  0
   30.0091  -25.7467  -17.2958 C   0  0  0  0  0  0  0  0  0  0  0  0
   30.6273  -26.5801  -16.5288 O   0  0  0  0  0  0  0  0  0  0  0  0
   30.8291  -24.7712  -17.8212 O   0  0  0  0  0  0  0  0  0  0  0  0
  2 12  2  0
  2  1  1  0
  3  2  1  0
  4  5  1  0
  4  3  2  0
  5 11  2  0
  6  5  1  0
  7  9  1  0
  7  6  1  0
  7  8  1  6
  9 10  2  0
 11 12  1  0
 14 13  1  1
 14 15  1  0
 16 14  1  0
 16 17  1  1
 17  9  1  0
 18 16  1  0
 19 18  2  0
 20 18  1  0
 21 20  1  0
 21 22  1  6
 23 22  1  0
 24 25  1  0
 24 23  1  0
 26 25  1  0
 27 21  1  0
 27 29  1  0
 28 27  2  0
M  END
$$$$
