YTK.pdb
     RDKit          3D

 29 29  0  0  1  0  0  0  0  0999 V2000
   17.1200  -14.3069  -16.4888 O   0  0  0  0  0  0  0  0  0  0  0  0
   17.3907  -12.9798  -16.1821 C   0  0  0  0  0  0  0  0  0  0  0  0
   18.5912  -12.3691  -16.4186 C   0  0  0  0  0  0  0  0  0  0  0  0
   18.8448  -11.0508  -16.1084 C   0  0  0  0  0  0  0  0  0  0  0  0
   17.8499  -10.2758  -15.5244 C   0  0  0  0  0  0  0  0  0  0  0  0
   18.0799   -8.8551  -15.1752 C   0  0  0  0  0  0  0  0  0  0  0  0
   18.7802   -8.7226  -13.8280 C   0  0  2  0  0  0  0  0  0  0  0  0
   17.8739   -9.1601  -12.8128 N   0  0  0  0  0  0  0  0  0  0  0  0
   19.1686   -7.3187  -13.6080 C   0  0  0  0  0  0  0  0  0  0  0  0
   18.4254   -6.5674  -12.8903 O   0  0  0  0  0  0  0  0  0  0  0  0
   16.6400  -10.8884  -15.2850 C   0  0  0  0  0  0  0  0  0  0  0  0
   16.3873  -12.2065  -15.5954 C   0  0  0  0  0  0  0  0  0  0  0  0
   22.5681   -3.7619  -13.5742 C   0  0  0  0  0  0  0  0  0  0  0  0
   22.1700   -5.2075  -13.7910 C   0  0  1  0  0  0  0  0  0  0  0  0
   22.5744   -5.9479  -12.6583 O   0  0  0  0  0  0  0  0  0  0  0  0
   20.6924   -5.3286  -13.9068 C   0  0  2  0  0  0  0  0  0  0  0  0
   20.3364   -6.7138  -14.1443 N   0  0  0  0  0  0  0  0  0  0  0  0
   20.0556   -4.4186  -14.8650 C   0  0  0  0  0  0  0  0  0  0  0  0
   20.0583   -4.7649  -16.0760 O   0  0  0  0  0  0  0  0  0  0  0  0
   19.4541   -3.2040  -14.5086 N   0  0  0  0  0  0  0  0  0  0  0  0
   18.9150   -2.2546  -15.5946 C   0  0  1  0  0  0  0  0  0  0  0  0
   17.4842   -2.4288  -15.5228 C   0  0  0  0  0  0  0  0  0  0  0  0
   16.4767   -1.6892  -16.2519 C   0  0  0  0  0  0  0  0  0  0  0  0
   15.0373   -1.8266  -16.1703 C   0  0  0  0  0  0  0  0  0  0  0  0
   14.0467   -1.0877  -16.9351 C   0  0  0  0  0  0  0  0  0  0  0  0
   12.6678   -1.4430  -16.6570 N   0  0  0  0  0  0  0  0  0  0  0  0
   19.6121   -1.0104  -15.4149 C   0  0  0  0  0  0  0  0  0  0  0  0
   20.3527   -0.8888  -14.3653 O   0  0  0  0  0  0  0  0  0  0  0  0
   19.6218    0.1037  -16.2265 O   0  0  0  0  0  0  0  0  0  0  0  0
  2 12  2  0
  2  1  1  0
  3  2  1  0
  4  5  1  0
  4  3  2  0
  5 11  2  0
  6  5  1  0
  7  9  1  0
  7  6  1  0
  7  8  1  1
  9 10  2  0
 11 12  1  0
 14 13  1  1
 14 15  1  0
 16 14  1  0
 16 17  1  6
 17  9  1  0
 18 16  1  0
 19 18  2  0
 20 18  1  0
 21 20  1  0
 21 22  1  1
 23 22  1  0
 24 25  1  0
 24 23  1  0
 26 25  1  0
 27 21  1  0
 27 29  1  0
 28 27  2  0
M  END
$$$$
