YTK.pdb
     RDKit          3D

 29 29  0  0  1  0  0  0  0  0999 V2000
   16.0860  -15.2733  -21.6029 O   0  0  0  0  0  0  0  0  0  0  0  0
   16.5936  -14.4976  -20.5688 C   0  0  0  0  0  0  0  0  0  0  0  0
   16.3271  -14.7170  -19.2456 C   0  0  0  0  0  0  0  0  0  0  0  0
   16.8384  -13.9383  -18.2304 C   0  0  0  0  0  0  0  0  0  0  0  0
   17.6706  -12.8676  -18.5346 C   0  0  0  0  0  0  0  0  0  0  0  0
   18.2418  -12.0054  -17.4746 C   0  0  0  0  0  0  0  0  0  0  0  0
   19.6987  -12.3583  -17.1993 C   0  0  2  0  0  0  0  0  0  0  0  0
   19.7374  -13.6712  -16.6352 N   0  0  0  0  0  0  0  0  0  0  0  0
   20.2787  -11.3752  -16.2680 C   0  0  0  0  0  0  0  0  0  0  0  0
   19.9714  -11.4277  -15.0292 O   0  0  0  0  0  0  0  0  0  0  0  0
   17.9406  -12.6443  -19.8664 C   0  0  0  0  0  0  0  0  0  0  0  0
   17.4290  -13.4234  -20.8807 C   0  0  0  0  0  0  0  0  0  0  0  0
   23.4859  -11.1899  -15.2788 C   0  0  0  0  0  0  0  0  0  0  0  0
   23.2525   -9.7296  -15.6077 C   0  0  1  0  0  0  0  0  0  0  0  0
   23.8167   -9.4706  -16.8762 O   0  0  0  0  0  0  0  0  0  0  0  0
   21.7961   -9.4417  -15.6928 C   0  0  2  0  0  0  0  0  0  0  0  0
   21.1783  -10.3431  -16.6457 N   0  0  0  0  0  0  0  0  0  0  0  0
   21.4411   -8.0404  -15.9421 C   0  0  0  0  0  0  0  0  0  0  0  0
   21.4566   -7.6474  -17.1387 O   0  0  0  0  0  0  0  0  0  0  0  0
   21.0911   -7.1314  -14.9344 N   0  0  0  0  0  0  0  0  0  0  0  0
   20.8859   -5.6419  -15.2672 C   0  0  1  0  0  0  0  0  0  0  0  0
   19.4517   -5.4822  -15.2548 C   0  0  0  0  0  0  0  0  0  0  0  0
   18.7118   -4.2432  -15.1515 C   0  0  0  0  0  0  0  0  0  0  0  0
   17.2750   -4.0617  -15.1403 C   0  0  0  0  0  0  0  0  0  0  0  0
   16.5565   -2.8003  -15.0708 C   0  0  0  0  0  0  0  0  0  0  0  0
   17.3236   -1.6861  -14.5463 N   0  0  0  0  0  0  0  0  0  0  0  0
   21.8111   -4.9193  -14.4377 C   0  0  0  0  0  0  0  0  0  0  0  0
   21.3473   -3.9324  -13.7480 O   0  0  0  0  0  0  0  0  0  0  0  0
   23.1593   -5.1359  -14.2493 O   0  0  0  0  0  0  0  0  0  0  0  0
  2 12  2  0
  2  1  1  0
  3  2  1  0
  4  5  1  0
  4  3  2  0
  5 11  2  0
  6  5  1  0
  7  9  1  0
  7  6  1  0
  7  8  1  1
  9 10  2  0
 11 12  1  0
 14 13  1  6
 14 15  1  0
 16 14  1  0
 16 17  1  6
 17  9  1  0
 18 16  1  0
 19 18  2  0
 20 18  1  0
 21 20  1  0
 21 22  1  1
 23 22  1  0
 24 25  1  0
 24 23  1  0
 26 25  1  0
 27 21  1  0
 27 29  1  0
 28 27  2  0
M  END
$$$$
