YTK.pdb
     RDKit          3D

 29 29  0  0  1  0  0  0  0  0999 V2000
   14.7832  -21.8133  -15.5906 O   0  0  0  0  0  0  0  0  0  0  0  0
   14.9342  -20.4403  -15.4461 C   0  0  0  0  0  0  0  0  0  0  0  0
   14.7573  -19.5400  -16.4601 C   0  0  0  0  0  0  0  0  0  0  0  0
   14.9108  -18.1800  -16.3012 C   0  0  0  0  0  0  0  0  0  0  0  0
   15.2631  -17.6660  -15.0589 C   0  0  0  0  0  0  0  0  0  0  0  0
   15.4381  -16.2111  -14.8443 C   0  0  0  0  0  0  0  0  0  0  0  0
   16.7775  -15.7286  -15.3884 C   0  0  2  0  0  0  0  0  0  0  0  0
   17.8145  -16.4287  -14.6972 N   0  0  0  0  0  0  0  0  0  0  0  0
   16.9024  -14.2758  -15.1789 C   0  0  0  0  0  0  0  0  0  0  0  0
   17.1973  -13.8326  -14.0177 O   0  0  0  0  0  0  0  0  0  0  0  0
   15.4418  -18.5705  -14.0360 C   0  0  0  0  0  0  0  0  0  0  0  0
   15.2881  -19.9301  -14.1957 C   0  0  0  0  0  0  0  0  0  0  0  0
   19.3062  -12.0271  -16.3604 C   0  0  0  0  0  0  0  0  0  0  0  0
   18.0095  -11.3641  -16.7777 C   0  0  1  0  0  0  0  0  0  0  0  0
   17.7568  -11.7052  -18.1247 O   0  0  0  0  0  0  0  0  0  0  0  0
   16.8771  -11.8759  -15.9613 C   0  0  2  0  0  0  0  0  0  0  0  0
   16.7162  -13.2982  -16.1923 N   0  0  0  0  0  0  0  0  0  0  0  0
   15.6138  -11.1436  -16.1010 C   0  0  0  0  0  0  0  0  0  0  0  0
   14.7596  -11.6170  -16.8964 O   0  0  0  0  0  0  0  0  0  0  0  0
   15.3130   -9.9639  -15.4066 N   0  0  0  0  0  0  0  0  0  0  0  0
   14.0023   -9.2069  -15.6901 C   0  0  1  0  0  0  0  0  0  0  0  0
   13.6444   -8.6491  -14.4082 C   0  0  0  0  0  0  0  0  0  0  0  0
   12.6725   -7.6091  -14.1489 C   0  0  0  0  0  0  0  0  0  0  0  0
   12.3178   -7.0187  -12.8749 C   0  0  0  0  0  0  0  0  0  0  0  0
   11.2843   -6.0261  -12.6321 C   0  0  0  0  0  0  0  0  0  0  0  0
   11.1551   -5.6010  -11.2510 N   0  0  0  0  0  0  0  0  0  0  0  0
   14.2326   -8.4518  -16.8913 C   0  0  0  0  0  0  0  0  0  0  0  0
   15.4542   -8.1583  -17.1854 O   0  0  0  0  0  0  0  0  0  0  0  0
   13.3190   -7.9907  -17.8148 O   0  0  0  0  0  0  0  0  0  0  0  0
  2 12  2  0
  2  1  1  0
  3  2  1  0
  4  5  1  0
  4  3  2  0
  5 11  2  0
  6  5  1  0
  7  9  1  0
  7  6  1  0
  7  8  1  1
  9 10  2  0
 11 12  1  0
 14 13  1  1
 14 15  1  0
 16 14  1  0
 16 17  1  6
 17  9  1  0
 18 16  1  0
 19 18  2  0
 20 18  1  0
 21 20  1  0
 21 22  1  1
 23 22  1  0
 24 25  1  0
 24 23  1  0
 26 25  1  0
 27 21  1  0
 27 29  1  0
 28 27  2  0
M  END
$$$$
