YTK.pdb
     RDKit          3D

 29 29  0  0  1  0  0  0  0  0999 V2000
   24.9899  -19.7157   -7.6453 O   0  0  0  0  0  0  0  0  0  0  0  0
   25.2607  -20.2248   -8.9087 C   0  0  0  0  0  0  0  0  0  0  0  0
   26.5185  -20.3467   -9.4313 C   0  0  0  0  0  0  0  0  0  0  0  0
   26.7714  -20.8540  -10.6871 C   0  0  0  0  0  0  0  0  0  0  0  0
   25.7151  -21.2716  -11.4880 C   0  0  0  0  0  0  0  0  0  0  0  0
   25.9421  -21.8230  -12.8436 C   0  0  0  0  0  0  0  0  0  0  0  0
   26.2247  -20.7153  -13.8516 C   0  0  2  0  0  0  0  0  0  0  0  0
   25.0837  -19.8553  -13.8960 N   0  0  0  0  0  0  0  0  0  0  0  0
   26.4824  -21.3055  -15.1764 C   0  0  0  0  0  0  0  0  0  0  0  0
   25.8112  -20.9004  -16.1849 O   0  0  0  0  0  0  0  0  0  0  0  0
   24.4473  -21.1498  -10.9642 C   0  0  0  0  0  0  0  0  0  0  0  0
   24.1954  -20.6426   -9.7085 C   0  0  0  0  0  0  0  0  0  0  0  0
   27.1117  -20.5163  -17.5309 C   0  0  0  0  0  0  0  0  0  0  0  0
   28.1829  -21.5856  -17.5942 C   0  0  1  0  0  0  0  0  0  0  0  0
   29.3702  -21.0493  -17.0492 O   0  0  0  0  0  0  0  0  0  0  0  0
   27.7957  -22.7597  -16.7679 C   0  0  2  0  0  0  0  0  0  0  0  0
   27.4449  -22.3183  -15.4322 N   0  0  0  0  0  0  0  0  0  0  0  0
   28.7564  -23.8681  -16.7528 C   0  0  0  0  0  0  0  0  0  0  0  0
   29.6412  -23.8501  -15.8565 O   0  0  0  0  0  0  0  0  0  0  0  0
   28.7410  -24.9286  -17.6689 N   0  0  0  0  0  0  0  0  0  0  0  0
   29.6757  -26.1371  -17.4760 C   0  0  1  0  0  0  0  0  0  0  0  0
   28.7772  -27.2662  -17.4586 C   0  0  0  0  0  0  0  0  0  0  0  0
   29.1250  -28.6561  -17.2567 C   0  0  0  0  0  0  0  0  0  0  0  0
   28.2593  -29.8135  -17.3487 C   0  0  0  0  0  0  0  0  0  0  0  0
   28.6284  -31.1988  -17.1099 C   0  0  0  0  0  0  0  0  0  0  0  0
   27.5331  -32.1471  -17.1879 N   0  0  0  0  0  0  0  0  0  0  0  0
   30.7605  -25.9508  -18.4005 C   0  0  0  0  0  0  0  0  0  0  0  0
   30.5709  -25.1389  -19.3853 O   0  0  0  0  0  0  0  0  0  0  0  0
   32.0184  -26.5142  -18.3871 O   0  0  0  0  0  0  0  0  0  0  0  0
  2 12  2  0
  2  1  1  0
  3  2  1  0
  4  5  1  0
  4  3  2  0
  5 11  2  0
  6  5  1  0
  7  9  1  0
  7  6  1  0
  7  8  1  6
  9 10  2  0
 11 12  1  0
 14 13  1  1
 14 15  1  0
 16 14  1  0
 16 17  1  1
 17  9  1  0
 18 16  1  0
 19 18  2  0
 20 18  1  0
 21 20  1  0
 21 22  1  6
 23 22  1  0
 24 25  1  0
 24 23  1  0
 26 25  1  0
 27 21  1  0
 27 29  1  0
 28 27  2  0
M  END
$$$$
