YTK.pdb
     RDKit          3D

 29 29  0  0  1  0  0  0  0  0999 V2000
   10.3999  -13.8623    4.7776 O   0  0  0  0  0  0  0  0  0  0  0  0
   11.7319  -14.0579    5.1181 C   0  0  0  0  0  0  0  0  0  0  0  0
   12.4604  -15.1577    4.7578 C   0  0  0  0  0  0  0  0  0  0  0  0
   13.7820  -15.3377    5.1034 C   0  0  0  0  0  0  0  0  0  0  0  0
   14.4362  -14.3698    5.8563 C   0  0  0  0  0  0  0  0  0  0  0  0
   15.8558  -14.5231    6.2492 C   0  0  0  0  0  0  0  0  0  0  0  0
   16.7712  -13.7020    5.3488 C   0  0  2  0  0  0  0  0  0  0  0  0
   16.6513  -14.2069    4.0169 N   0  0  0  0  0  0  0  0  0  0  0  0
   18.1613  -13.8125    5.8234 C   0  0  0  0  0  0  0  0  0  0  0  0
   18.9441  -14.6629    5.2793 O   0  0  0  0  0  0  0  0  0  0  0  0
   13.7049  -13.2612    6.2205 C   0  0  0  0  0  0  0  0  0  0  0  0
   12.3836  -13.0820    5.8745 C   0  0  0  0  0  0  0  0  0  0  0  0
   20.6225  -10.9105    6.2103 C   0  0  0  0  0  0  0  0  0  0  0  0
   20.6290  -11.7167    7.4929 C   0  0  1  0  0  0  0  0  0  0  0  0
   19.7545  -11.0907    8.4083 O   0  0  0  0  0  0  0  0  0  0  0  0
   20.1177  -13.0911    7.2463 C   0  0  2  0  0  0  0  0  0  0  0  0
   18.7196  -13.0278    6.8674 N   0  0  0  0  0  0  0  0  0  0  0  0
   20.3591  -14.0591    8.3216 C   0  0  0  0  0  0  0  0  0  0  0  0
   19.3722  -14.3875    9.0320 O   0  0  0  0  0  0  0  0  0  0  0  0
   21.6104  -14.6282    8.5948 N   0  0  0  0  0  0  0  0  0  0  0  0
   21.7772  -15.6160    9.7644 C   0  0  1  0  0  0  0  0  0  0  0  0
   21.9718  -16.8889    9.1131 C   0  0  0  0  0  0  0  0  0  0  0  0
   22.1673  -18.1741    9.7483 C   0  0  0  0  0  0  0  0  0  0  0  0
   21.2857  -19.3229    9.7247 C   0  0  0  0  0  0  0  0  0  0  0  0
   21.5043  -20.6026   10.3780 C   0  0  0  0  0  0  0  0  0  0  0  0
   20.4242  -21.5597   10.2281 N   0  0  0  0  0  0  0  0  0  0  0  0
   22.7003  -14.9979   10.6766 C   0  0  0  0  0  0  0  0  0  0  0  0
   23.5645  -14.1761   10.1837 O   0  0  0  0  0  0  0  0  0  0  0  0
   22.7973  -15.1427   12.0439 O   0  0  0  0  0  0  0  0  0  0  0  0
  2 12  2  0
  2  1  1  0
  3  2  1  0
  4  5  1  0
  4  3  2  0
  5 11  2  0
  6  5  1  0
  7  9  1  0
  7  6  1  0
  7  8  1  6
  9 10  2  0
 11 12  1  0
 14 13  1  6
 14 15  1  0
 16 14  1  0
 16 17  1  1
 17  9  1  0
 18 16  1  0
 19 18  2  0
 20 18  1  0
 21 20  1  0
 21 22  1  6
 23 22  1  0
 24 25  1  0
 24 23  1  0
 26 25  1  0
 27 21  1  0
 27 29  1  0
 28 27  2  0
M  END
$$$$
