YTK.pdb
     RDKit          3D

 29 29  0  0  1  0  0  0  0  0999 V2000
   18.1740  -19.9297  -16.7905 O   0  0  0  0  0  0  0  0  0  0  0  0
   18.5974  -18.6077  -16.7494 C   0  0  0  0  0  0  0  0  0  0  0  0
   19.8249  -18.1835  -17.1774 C   0  0  0  0  0  0  0  0  0  0  0  0
   20.2308  -16.8677  -17.1301 C   0  0  0  0  0  0  0  0  0  0  0  0
   19.3713  -15.8982  -16.6271 C   0  0  0  0  0  0  0  0  0  0  0  0
   19.7672  -14.4728  -16.5585 C   0  0  0  0  0  0  0  0  0  0  0  0
   19.3478  -13.7207  -17.8160 C   0  0  2  0  0  0  0  0  0  0  0  0
   20.0951  -14.2455  -18.9158 N   0  0  0  0  0  0  0  0  0  0  0  0
   19.6156  -12.2823  -17.6450 C   0  0  0  0  0  0  0  0  0  0  0  0
   20.6411  -11.7644  -18.2035 O   0  0  0  0  0  0  0  0  0  0  0  0
   18.1344  -16.3227  -16.1953 C   0  0  0  0  0  0  0  0  0  0  0  0
   17.7294  -17.6385  -16.2429 C   0  0  0  0  0  0  0  0  0  0  0  0
   20.2258  -10.1401  -18.9700 C   0  0  0  0  0  0  0  0  0  0  0  0
   19.1519   -9.4119  -18.1880 C   0  0  1  0  0  0  0  0  0  0  0  0
   17.9165   -9.6232  -18.8389 O   0  0  0  0  0  0  0  0  0  0  0  0
   19.0405   -9.9691  -16.8139 C   0  0  2  0  0  0  0  0  0  0  0  0
   18.8028  -11.3975  -16.8874 N   0  0  0  0  0  0  0  0  0  0  0  0
   18.0852   -9.2912  -15.9310 C   0  0  0  0  0  0  0  0  0  0  0  0
   16.8685   -9.5892  -16.0633 O   0  0  0  0  0  0  0  0  0  0  0  0
   18.4501   -8.3447  -14.9639 N   0  0  0  0  0  0  0  0  0  0  0  0
   17.3708   -7.6187  -14.1397 C   0  0  1  0  0  0  0  0  0  0  0  0
   17.9289   -7.5715  -12.8097 C   0  0  0  0  0  0  0  0  0  0  0  0
   17.3049   -7.0363  -11.6192 C   0  0  0  0  0  0  0  0  0  0  0  0
   16.4714   -7.7319  -10.6605 C   0  0  0  0  0  0  0  0  0  0  0  0
   15.7310   -7.1404   -9.5586 C   0  0  0  0  0  0  0  0  0  0  0  0
   14.8898   -8.0633   -8.8201 N   0  0  0  0  0  0  0  0  0  0  0  0
   16.9788   -6.4761  -14.9189 C   0  0  0  0  0  0  0  0  0  0  0  0
   15.7151   -6.2606  -15.0659 O   0  0  0  0  0  0  0  0  0  0  0  0
   17.7726   -5.5368  -15.5413 O   0  0  0  0  0  0  0  0  0  0  0  0
  2 12  2  0
  2  1  1  0
  3  2  1  0
  4  5  1  0
  4  3  2  0
  5 11  2  0
  6  5  1  0
  7  9  1  0
  7  6  1  0
  7  8  1  6
  9 10  2  0
 11 12  1  0
 14 13  1  6
 14 15  1  0
 16 14  1  0
 16 17  1  6
 17  9  1  0
 18 16  1  0
 19 18  2  0
 20 18  1  0
 21 20  1  0
 21 22  1  1
 23 22  1  0
 24 25  1  0
 24 23  1  0
 26 25  1  0
 27 21  1  0
 27 29  1  0
 28 27  2  0
M  END
$$$$
