YTK.pdb
     RDKit          3D

 29 29  0  0  1  0  0  0  0  0999 V2000
   25.7327  -20.4932   -5.7603 O   0  0  0  0  0  0  0  0  0  0  0  0
   25.7373  -20.3268   -7.1390 C   0  0  0  0  0  0  0  0  0  0  0  0
   24.6938  -20.6674   -7.9546 C   0  0  0  0  0  0  0  0  0  0  0  0
   24.7132  -20.4962   -9.3216 C   0  0  0  0  0  0  0  0  0  0  0  0
   25.8366  -19.9520   -9.9327 C   0  0  0  0  0  0  0  0  0  0  0  0
   25.8994  -19.7505  -11.3986 C   0  0  0  0  0  0  0  0  0  0  0  0
   25.6939  -21.0622  -12.1470 C   0  0  2  0  0  0  0  0  0  0  0  0
   26.8456  -21.8807  -11.9306 N   0  0  0  0  0  0  0  0  0  0  0  0
   25.5124  -20.7895  -13.5832 C   0  0  0  0  0  0  0  0  0  0  0  0
   26.5248  -20.4696  -14.2937 O   0  0  0  0  0  0  0  0  0  0  0  0
   26.8890  -19.6081   -9.1138 C   0  0  0  0  0  0  0  0  0  0  0  0
   26.8686  -19.7796   -7.7471 C   0  0  0  0  0  0  0  0  0  0  0  0
   24.1796  -21.8181  -17.8803 C   0  0  0  0  0  0  0  0  0  0  0  0
   24.3534  -21.9743  -16.3835 C   0  0  1  0  0  0  0  0  0  0  0  0
   25.6854  -22.3734  -16.1364 O   0  0  0  0  0  0  0  0  0  0  0  0
   24.1355  -20.6741  -15.6957 C   0  0  2  0  0  0  0  0  0  0  0  0
   24.2672  -20.8549  -14.2632 N   0  0  0  0  0  0  0  0  0  0  0  0
   22.9023  -19.9660  -16.0557 C   0  0  0  0  0  0  0  0  0  0  0  0
   21.8829  -20.1918  -15.3511 O   0  0  0  0  0  0  0  0  0  0  0  0
   22.8013  -19.0661  -17.1254 N   0  0  0  0  0  0  0  0  0  0  0  0
   21.4938  -18.2897  -17.3681 C   0  0  1  0  0  0  0  0  0  0  0  0
   21.9355  -17.0525  -17.9654 C   0  0  0  0  0  0  0  0  0  0  0  0
   21.1373  -15.8739  -18.2245 C   0  0  0  0  0  0  0  0  0  0  0  0
   21.5252  -14.6739  -18.9365 C   0  0  0  0  0  0  0  0  0  0  0  0
   20.6883  -13.5201  -19.2204 C   0  0  0  0  0  0  0  0  0  0  0  0
   21.3094  -12.5003  -20.0446 N   0  0  0  0  0  0  0  0  0  0  0  0
   20.5828  -19.2254  -17.9688 C   0  0  0  0  0  0  0  0  0  0  0  0
   21.0875  -20.1675  -18.6918 O   0  0  0  0  0  0  0  0  0  0  0  0
   19.2087  -19.2803  -17.8756 O   0  0  0  0  0  0  0  0  0  0  0  0
  2 12  2  0
  2  1  1  0
  3  2  1  0
  4  5  1  0
  4  3  2  0
  5 11  2  0
  6  5  1  0
  7  9  1  0
  7  6  1  0
  7  8  1  6
  9 10  2  0
 11 12  1  0
 14 13  1  6
 14 15  1  0
 16 14  1  0
 16 17  1  1
 17  9  1  0
 18 16  1  0
 19 18  2  0
 20 18  1  0
 21 20  1  0
 21 22  1  6
 23 22  1  0
 24 25  1  0
 24 23  1  0
 26 25  1  0
 27 21  1  0
 27 29  1  0
 28 27  2  0
M  END
$$$$
