YTK.pdb
     RDKit          3D

 29 29  0  0  1  0  0  0  0  0999 V2000
   28.3728  -19.9473   -3.7488 O   0  0  0  0  0  0  0  0  0  0  0  0
   27.8197  -19.9025   -5.0218 C   0  0  0  0  0  0  0  0  0  0  0  0
   27.0064  -20.8733   -5.5376 C   0  0  0  0  0  0  0  0  0  0  0  0
   26.4650  -20.8148   -6.8032 C   0  0  0  0  0  0  0  0  0  0  0  0
   26.7410  -19.7261   -7.6219 C   0  0  0  0  0  0  0  0  0  0  0  0
   26.1797  -19.6231   -8.9885 C   0  0  0  0  0  0  0  0  0  0  0  0
   26.6272  -20.7905   -9.8602 C   0  0  2  0  0  0  0  0  0  0  0  0
   28.0563  -20.8002   -9.8878 N   0  0  0  0  0  0  0  0  0  0  0  0
   26.0822  -20.6307  -11.2194 C   0  0  0  0  0  0  0  0  0  0  0  0
   26.8240  -20.1464  -12.1397 O   0  0  0  0  0  0  0  0  0  0  0  0
   27.5598  -18.7470   -7.1050 C   0  0  0  0  0  0  0  0  0  0  0  0
   28.1007  -18.8063   -5.8395 C   0  0  0  0  0  0  0  0  0  0  0  0
   26.6136  -21.5910  -13.6353 C   0  0  0  0  0  0  0  0  0  0  0  0
   25.1462  -21.9441  -13.7655 C   0  0  1  0  0  0  0  0  0  0  0  0
   24.9563  -23.2344  -13.2237 O   0  0  0  0  0  0  0  0  0  0  0  0
   24.3113  -20.9965  -12.9807 C   0  0  2  0  0  0  0  0  0  0  0  0
   24.7601  -20.9815  -11.6021 N   0  0  0  0  0  0  0  0  0  0  0  0
   22.8612  -21.1887  -13.0912 C   0  0  0  0  0  0  0  0  0  0  0  0
   22.2562  -21.6022  -12.0668 O   0  0  0  0  0  0  0  0  0  0  0  0
   22.1264  -20.9401  -14.2584 N   0  0  0  0  0  0  0  0  0  0  0  0
   20.5948  -21.1002  -14.2625 C   0  0  1  0  0  0  0  0  0  0  0  0
   20.1371  -20.0004  -15.0770 C   0  0  0  0  0  0  0  0  0  0  0  0
   18.8185  -19.8244  -15.6457 C   0  0  0  0  0  0  0  0  0  0  0  0
   17.6390  -19.2769  -15.0081 C   0  0  0  0  0  0  0  0  0  0  0  0
   16.3144  -19.1458  -15.5916 C   0  0  0  0  0  0  0  0  0  0  0  0
   16.2057  -18.1591  -16.6498 N   0  0  0  0  0  0  0  0  0  0  0  0
   20.3424  -22.4910  -14.5239 C   0  0  0  0  0  0  0  0  0  0  0  0
   21.2501  -23.1518  -15.1599 O   0  0  0  0  0  0  0  0  0  0  0  0
   19.2495  -23.2550  -14.1750 O   0  0  0  0  0  0  0  0  0  0  0  0
  2 12  2  0
  2  1  1  0
  3  2  1  0
  4  5  1  0
  4  3  2  0
  5 11  2  0
  6  5  1  0
  7  9  1  0
  7  6  1  0
  7  8  1  6
  9 10  2  0
 11 12  1  0
 14 13  1  1
 14 15  1  0
 16 14  1  0
 16 17  1  1
 17  9  1  0
 18 16  1  0
 19 18  2  0
 20 18  1  0
 21 20  1  0
 21 22  1  6
 23 22  1  0
 24 25  1  0
 24 23  1  0
 26 25  1  0
 27 21  1  0
 27 29  1  0
 28 27  2  0
M  END
$$$$
