YTK.pdb
     RDKit          3D

 29 29  0  0  1  0  0  0  0  0999 V2000
   28.4722  -12.4476  -17.3607 O   0  0  0  0  0  0  0  0  0  0  0  0
   27.7512  -13.5602  -16.9472 C   0  0  0  0  0  0  0  0  0  0  0  0
   27.5485  -13.8975  -15.6376 C   0  0  0  0  0  0  0  0  0  0  0  0
   26.8306  -15.0052  -15.2428 C   0  0  0  0  0  0  0  0  0  0  0  0
   26.2714  -15.8423  -16.2009 C   0  0  0  0  0  0  0  0  0  0  0  0
   25.4923  -17.0430  -15.8204 C   0  0  0  0  0  0  0  0  0  0  0  0
   26.4082  -18.1903  -15.4110 C   0  0  2  0  0  0  0  0  0  0  0  0
   27.0974  -18.6447  -16.5780 N   0  0  0  0  0  0  0  0  0  0  0  0
   25.6068  -19.2781  -14.8241 C   0  0  0  0  0  0  0  0  0  0  0  0
   24.9793  -20.0810  -15.5946 O   0  0  0  0  0  0  0  0  0  0  0  0
   26.4741  -15.5051  -17.5206 C   0  0  0  0  0  0  0  0  0  0  0  0
   27.1919  -14.3974  -17.9145 C   0  0  0  0  0  0  0  0  0  0  0  0
   24.5516  -22.2331  -11.0255 C   0  0  0  0  0  0  0  0  0  0  0  0
   25.3654  -21.1171  -11.6477 C   0  0  1  0  0  0  0  0  0  0  0  0
   26.6239  -21.6437  -12.0131 O   0  0  0  0  0  0  0  0  0  0  0  0
   24.7066  -20.6198  -12.8846 C   0  0  2  0  0  0  0  0  0  0  0  0
   25.4704  -19.5148  -13.4303 N   0  0  0  0  0  0  0  0  0  0  0  0
   23.2804  -20.3011  -12.7582 C   0  0  0  0  0  0  0  0  0  0  0  0
   22.9755  -19.2912  -12.0700 O   0  0  0  0  0  0  0  0  0  0  0  0
   22.2562  -21.0499  -13.3538 N   0  0  0  0  0  0  0  0  0  0  0  0
   20.7866  -20.6148  -13.2046 C   0  0  1  0  0  0  0  0  0  0  0  0
   20.2323  -20.8220  -14.5208 C   0  0  0  0  0  0  0  0  0  0  0  0
   18.9139  -20.4449  -14.9824 C   0  0  0  0  0  0  0  0  0  0  0  0
   18.3040  -20.7290  -16.2649 C   0  0  0  0  0  0  0  0  0  0  0  0
   17.0006  -20.2829  -16.7278 C   0  0  0  0  0  0  0  0  0  0  0  0
   16.6640  -20.6759  -18.0833 N   0  0  0  0  0  0  0  0  0  0  0  0
   20.3120  -21.2300  -11.9952 C   0  0  0  0  0  0  0  0  0  0  0  0
   20.8178  -22.3715  -11.6694 O   0  0  0  0  0  0  0  0  0  0  0  0
   19.3791  -20.7648  -11.0934 O   0  0  0  0  0  0  0  0  0  0  0  0
  2 12  2  0
  2  1  1  0
  3  2  1  0
  4  5  1  0
  4  3  2  0
  5 11  2  0
  6  5  1  0
  7  9  1  0
  7  6  1  0
  7  8  1  6
  9 10  2  0
 11 12  1  0
 14 13  1  6
 14 15  1  0
 16 14  1  0
 16 17  1  1
 17  9  1  0
 18 16  1  0
 19 18  2  0
 20 18  1  0
 21 20  1  0
 21 22  1  6
 23 22  1  0
 24 25  1  0
 24 23  1  0
 26 25  1  0
 27 21  1  0
 27 29  1  0
 28 27  2  0
M  END
$$$$
