YSL.pdb
     RDKit          3D

 27 27  0  0  1  0  0  0  0  0999 V2000
   27.3532  -31.9452  -18.1922 O   0  0  0  0  0  0  0  0  0  0  0  0
   27.3277  -30.6447  -17.6914 C   0  0  0  0  0  0  0  0  0  0  0  0
   28.2475  -30.1690  -16.7841 C   0  0  0  0  0  0  0  0  0  0  0  0
   28.2030  -28.8720  -16.2995 C   0  0  0  0  0  0  0  0  0  0  0  0
   27.2130  -28.0085  -16.7254 C   0  0  0  0  0  0  0  0  0  0  0  0
   27.1129  -26.6131  -16.2446 C   0  0  0  0  0  0  0  0  0  0  0  0
   27.5791  -25.6225  -17.3174 C   0  0  2  0  0  0  0  0  0  0  0  0
   29.0255  -25.7496  -17.3682 N   0  0  0  0  0  0  0  0  0  0  0  0
   27.2124  -24.2778  -16.8291 C   0  0  0  0  0  0  0  0  0  0  0  0
   28.0165  -23.6067  -16.1427 O   0  0  0  0  0  0  0  0  0  0  0  0
   26.2892  -28.4805  -17.6344 C   0  0  0  0  0  0  0  0  0  0  0  0
   26.3405  -29.7820  -18.1155 C   0  0  0  0  0  0  0  0  0  0  0  0
   23.3302  -22.3256  -17.5874 O   0  0  0  0  0  0  0  0  0  0  0  0
   24.6053  -21.8055  -17.7370 C   0  0  0  0  0  0  0  0  0  0  0  0
   25.5353  -22.4251  -16.7254 C   0  0  2  0  0  0  0  0  0  0  0  0
   25.9381  -23.7326  -17.1359 N   0  0  0  0  0  0  0  0  0  0  0  0
   24.9971  -22.4042  -15.3591 C   0  0  0  0  0  0  0  0  0  0  0  0
   24.5588  -23.5108  -14.8962 O   0  0  0  0  0  0  0  0  0  0  0  0
   25.3421  -22.2010  -10.2301 C   0  0  0  0  0  0  0  0  0  0  0  0
   24.9791  -20.8296  -10.8127 C   0  0  1  0  0  0  0  0  0  0  0  0
   25.6282  -19.7430   -9.9558 C   0  0  0  0  0  0  0  0  0  0  0  0
   25.4551  -20.7631  -12.2287 C   0  0  0  0  0  0  0  0  0  0  0  0
   24.4912  -21.4121  -13.1584 C   0  0  2  0  0  0  0  0  0  0  0  0
   24.9424  -21.2464  -14.5519 N   0  0  0  0  0  0  0  0  0  0  0  0
   23.1393  -20.8101  -13.0307 C   0  0  0  0  0  0  0  0  0  0  0  0
   22.1045  -21.2971  -12.2667 O   0  0  0  0  0  0  0  0  0  0  0  0
   22.8525  -19.7322  -13.6755 O   0  0  0  0  0  0  0  0  0  0  0  0
  2  1  1  0
  3  2  2  0
  4  3  1  0
  5  4  2  0
  5 11  1  0
  6  5  1  0
  7  9  1  0
  7  6  1  0
  7  8  1  1
  9 10  2  0
 11 12  2  0
 12  2  1  0
 15 14  1  6
 14 13  1  0
 16 15  1  0
 16  9  1  0
 17 15  1  0
 18 17  2  0
 20 19  1  1
 21 20  1  0
 22 20  1  0
 23 22  1  1
 23 24  1  0
 24 17  1  0
 25 23  1  0
 26 25  1  0
 27 25  2  0
M  END
$$$$
