YSL.pdb
     RDKit          3D

 27 27  0  0  1  0  0  0  0  0999 V2000
   29.2079  -11.6094  -15.9389 O   0  0  0  0  0  0  0  0  0  0  0  0
   28.1791  -10.6709  -15.9984 C   0  0  0  0  0  0  0  0  0  0  0  0
   27.1003  -10.6809  -15.1432 C   0  0  0  0  0  0  0  0  0  0  0  0
   26.0886   -9.7377  -15.2205 C   0  0  0  0  0  0  0  0  0  0  0  0
   26.1413   -8.7446  -16.1786 C   0  0  0  0  0  0  0  0  0  0  0  0
   25.0923   -7.7099  -16.3112 C   0  0  0  0  0  0  0  0  0  0  0  0
   23.8371   -8.2764  -16.9844 C   0  0  2  0  0  0  0  0  0  0  0  0
   24.2626   -8.7193  -18.3009 N   0  0  0  0  0  0  0  0  0  0  0  0
   22.8922   -7.1491  -17.1174 C   0  0  0  0  0  0  0  0  0  0  0  0
   23.0715   -6.2651  -17.9860 O   0  0  0  0  0  0  0  0  0  0  0  0
   27.2202   -8.7304  -17.0378 C   0  0  0  0  0  0  0  0  0  0  0  0
   28.2303   -9.6794  -16.9539 C   0  0  0  0  0  0  0  0  0  0  0  0
   19.4075   -7.0721  -14.7321 O   0  0  0  0  0  0  0  0  0  0  0  0
   19.3906   -6.6555  -16.0531 C   0  0  0  0  0  0  0  0  0  0  0  0
   20.7347   -6.0868  -16.4301 C   0  0  2  0  0  0  0  0  0  0  0  0
   21.7670   -7.0587  -16.2567 N   0  0  0  0  0  0  0  0  0  0  0  0
   21.0347   -4.8190  -15.7524 C   0  0  0  0  0  0  0  0  0  0  0  0
   21.8302   -4.8738  -14.7548 O   0  0  0  0  0  0  0  0  0  0  0  0
   23.3323   -0.2985  -15.1818 C   0  0  0  0  0  0  0  0  0  0  0  0
   21.8870   -0.1072  -15.6574 C   0  0  1  0  0  0  0  0  0  0  0  0
   21.8284    1.1121  -16.5773 C   0  0  0  0  0  0  0  0  0  0  0  0
   21.4420   -1.3462  -16.3667 C   0  0  0  0  0  0  0  0  0  0  0  0
   20.9577   -2.3777  -15.4095 C   0  0  2  0  0  0  0  0  0  0  0  0
   20.4983   -3.5716  -16.1417 N   0  0  0  0  0  0  0  0  0  0  0  0
   19.8248   -1.8627  -14.5987 C   0  0  0  0  0  0  0  0  0  0  0  0
   19.9178   -1.2700  -13.3610 O   0  0  0  0  0  0  0  0  0  0  0  0
   18.6201   -1.9560  -15.0457 O   0  0  0  0  0  0  0  0  0  0  0  0
  2  1  1  0
  3  2  2  0
  4  3  1  0
  5  4  2  0
  5 11  1  0
  6  5  1  0
  7  9  1  0
  7  6  1  0
  7  8  1  6
  9 10  2  0
 11 12  2  0
 12  2  1  0
 15 14  1  1
 14 13  1  0
 16 15  1  0
 16  9  1  0
 17 15  1  0
 18 17  2  0
 20 19  1  6
 21 20  1  0
 22 20  1  0
 23 22  1  6
 23 24  1  0
 24 17  1  0
 25 23  1  0
 26 25  1  0
 27 25  2  0
M  END
$$$$
