YSL.pdb
     RDKit          3D

 27 27  0  0  1  0  0  0  0  0999 V2000
   30.6667  -16.3990  -18.9307 O   0  0  0  0  0  0  0  0  0  0  0  0
   29.8404  -16.7278  -17.8575 C   0  0  0  0  0  0  0  0  0  0  0  0
   30.1658  -17.6837  -16.9218 C   0  0  0  0  0  0  0  0  0  0  0  0
   29.3288  -17.9944  -15.8626 C   0  0  0  0  0  0  0  0  0  0  0  0
   28.1227  -17.3373  -15.7189 C   0  0  0  0  0  0  0  0  0  0  0  0
   27.1869  -17.6247  -14.6098 C   0  0  0  0  0  0  0  0  0  0  0  0
   26.4629  -18.9582  -14.8269 C   0  0  2  0  0  0  0  0  0  0  0  0
   25.5964  -18.7531  -15.9748 N   0  0  0  0  0  0  0  0  0  0  0  0
   25.6456  -19.1891  -13.6186 C   0  0  0  0  0  0  0  0  0  0  0  0
   24.4437  -18.8394  -13.5846 O   0  0  0  0  0  0  0  0  0  0  0  0
   27.7923  -16.3787  -16.6539 C   0  0  0  0  0  0  0  0  0  0  0  0
   28.6367  -16.0729  -17.7128 C   0  0  0  0  0  0  0  0  0  0  0  0
   24.9871  -22.3117  -12.4057 O   0  0  0  0  0  0  0  0  0  0  0  0
   24.3935  -21.2323  -11.7721 C   0  0  0  0  0  0  0  0  0  0  0  0
   25.4466  -20.2373  -11.3564 C   0  0  2  0  0  0  0  0  0  0  0  0
   26.2197  -19.8128  -12.4800 N   0  0  0  0  0  0  0  0  0  0  0  0
   26.2812  -20.7118  -10.2451 C   0  0  0  0  0  0  0  0  0  0  0  0
   26.9772  -21.7617  -10.4554 O   0  0  0  0  0  0  0  0  0  0  0  0
   28.7743  -18.5420   -6.0185 C   0  0  0  0  0  0  0  0  0  0  0  0
   28.2973  -19.4711   -7.1414 C   0  0  1  0  0  0  0  0  0  0  0  0
   29.4315  -20.4302   -7.5023 C   0  0  0  0  0  0  0  0  0  0  0  0
   27.0852  -20.2124   -6.6752 C   0  0  0  0  0  0  0  0  0  0  0  0
   26.4296  -20.9427   -7.7939 C   0  0  2  0  0  0  0  0  0  0  0  0
   26.3493  -20.0777   -8.9847 N   0  0  0  0  0  0  0  0  0  0  0  0
   25.0522  -21.3583   -7.4249 C   0  0  0  0  0  0  0  0  0  0  0  0
   23.8936  -20.9791   -8.0619 O   0  0  0  0  0  0  0  0  0  0  0  0
   24.8653  -22.1441   -6.4213 O   0  0  0  0  0  0  0  0  0  0  0  0
  2  1  1  0
  3  2  2  0
  4  3  1  0
  5  4  2  0
  5 11  1  0
  6  5  1  0
  7  9  1  0
  7  6  1  0
  7  8  1  6
  9 10  2  0
 11 12  2  0
 12  2  1  0
 15 14  1  6
 14 13  1  0
 16 15  1  0
 16  9  1  0
 17 15  1  0
 18 17  2  0
 20 19  1  1
 21 20  1  0
 22 20  1  0
 23 22  1  1
 23 24  1  0
 24 17  1  0
 25 23  1  0
 26 25  1  0
 27 25  2  0
M  END
$$$$
