YSL.pdb
     RDKit          3D

 27 27  0  0  1  0  0  0  0  0999 V2000
   21.0536  -28.1822  -10.3740 O   0  0  0  0  0  0  0  0  0  0  0  0
   21.6446  -29.1619   -9.5780 C   0  0  0  0  0  0  0  0  0  0  0  0
   22.9953  -29.4281   -9.5898 C   0  0  0  0  0  0  0  0  0  0  0  0
   23.5613  -30.4071   -8.7896 C   0  0  0  0  0  0  0  0  0  0  0  0
   22.7654  -31.1541   -7.9438 C   0  0  0  0  0  0  0  0  0  0  0  0
   23.3106  -32.2126   -7.0659 C   0  0  0  0  0  0  0  0  0  0  0  0
   23.5358  -33.5150   -7.8422 C   0  0  2  0  0  0  0  0  0  0  0  0
   22.2103  -34.0326   -8.1351 N   0  0  0  0  0  0  0  0  0  0  0  0
   24.2381  -34.4317   -6.9215 C   0  0  0  0  0  0  0  0  0  0  0  0
   23.5939  -35.1900   -6.1612 O   0  0  0  0  0  0  0  0  0  0  0  0
   21.4115  -30.8911   -7.9284 C   0  0  0  0  0  0  0  0  0  0  0  0
   20.8516  -29.9081   -8.7335 C   0  0  0  0  0  0  0  0  0  0  0  0
   28.4907  -34.4795   -6.7271 O   0  0  0  0  0  0  0  0  0  0  0  0
   27.7550  -35.6533   -6.7299 C   0  0  0  0  0  0  0  0  0  0  0  0
   26.3969  -35.4104   -6.1229 C   0  0  2  0  0  0  0  0  0  0  0  0
   25.6570  -34.4602   -6.8911 N   0  0  0  0  0  0  0  0  0  0  0  0
   26.4567  -35.0590   -4.6982 C   0  0  0  0  0  0  0  0  0  0  0  0
   26.5509  -33.8173   -4.4151 O   0  0  0  0  0  0  0  0  0  0  0  0
   23.2768  -36.5411   -0.5298 C   0  0  0  0  0  0  0  0  0  0  0  0
   24.1714  -35.7348   -1.4793 C   0  0  1  0  0  0  0  0  0  0  0  0
   24.1038  -34.2594   -1.0857 C   0  0  0  0  0  0  0  0  0  0  0  0
   25.5692  -36.2586   -1.3900 C   0  0  0  0  0  0  0  0  0  0  0  0
   26.4942  -35.4949   -2.2709 C   0  0  2  0  0  0  0  0  0  0  0  0
   26.4161  -36.0062   -3.6512 N   0  0  0  0  0  0  0  0  0  0  0  0
   27.8991  -35.6204   -1.8053 C   0  0  0  0  0  0  0  0  0  0  0  0
   28.5004  -34.8593   -0.8301 O   0  0  0  0  0  0  0  0  0  0  0  0
   28.6734  -36.5058   -2.3308 O   0  0  0  0  0  0  0  0  0  0  0  0
  2  1  1  0
  3  2  2  0
  4  3  1  0
  5  4  2  0
  5 11  1  0
  6  5  1  0
  7  9  1  0
  7  6  1  0
  7  8  1  1
  9 10  2  0
 11 12  2  0
 12  2  1  0
 15 14  1  6
 14 13  1  0
 16 15  1  0
 16  9  1  0
 17 15  1  0
 18 17  2  0
 20 19  1  1
 21 20  1  0
 22 20  1  0
 23 22  1  1
 23 24  1  0
 24 17  1  0
 25 23  1  0
 26 25  1  0
 27 25  2  0
M  END
$$$$
