YSL.pdb
     RDKit          3D

 27 27  0  0  1  0  0  0  0  0999 V2000
   24.5485  -14.0748  -21.1307 O   0  0  0  0  0  0  0  0  0  0  0  0
   23.9249  -12.9879  -20.5204 C   0  0  0  0  0  0  0  0  0  0  0  0
   23.1051  -12.1128  -21.1968 C   0  0  0  0  0  0  0  0  0  0  0  0
   22.4953  -11.0386  -20.5697 C   0  0  0  0  0  0  0  0  0  0  0  0
   22.7010  -10.8171  -19.2222 C   0  0  0  0  0  0  0  0  0  0  0  0
   22.0782   -9.6882  -18.4969 C   0  0  0  0  0  0  0  0  0  0  0  0
   20.8427  -10.1466  -17.7139 C   0  0  2  0  0  0  0  0  0  0  0  0
   19.8888  -10.5970  -18.7127 N   0  0  0  0  0  0  0  0  0  0  0  0
   20.3186   -8.9492  -17.0262 C   0  0  0  0  0  0  0  0  0  0  0  0
   19.6176   -8.1147  -17.6429 O   0  0  0  0  0  0  0  0  0  0  0  0
   23.5215  -11.6912  -18.5402 C   0  0  0  0  0  0  0  0  0  0  0  0
   24.1292  -12.7657  -19.1760 C   0  0  0  0  0  0  0  0  0  0  0  0
   20.8612   -8.5073  -12.8514 O   0  0  0  0  0  0  0  0  0  0  0  0
   19.7209   -8.0674  -13.5033 C   0  0  0  0  0  0  0  0  0  0  0  0
   20.0633   -7.6430  -14.9086 C   0  0  2  0  0  0  0  0  0  0  0  0
   20.6071   -8.7340  -15.6531 N   0  0  0  0  0  0  0  0  0  0  0  0
   20.9144   -6.4472  -14.9582 C   0  0  0  0  0  0  0  0  0  0  0  0
   22.1584   -6.6347  -15.1775 O   0  0  0  0  0  0  0  0  0  0  0  0
   22.3410   -1.6005  -17.5741 C   0  0  0  0  0  0  0  0  0  0  0  0
   22.2539   -2.1322  -16.1383 C   0  0  1  0  0  0  0  0  0  0  0  0
   21.7277   -1.0194  -15.2320 C   0  0  0  0  0  0  0  0  0  0  0  0
   21.3513   -3.3243  -16.1167 C   0  0  0  0  0  0  0  0  0  0  0  0
   21.4229   -4.0381  -14.8129 C   0  0  2  0  0  0  0  0  0  0  0  0
   20.4342   -5.1309  -14.7793 N   0  0  0  0  0  0  0  0  0  0  0  0
   21.1380   -3.1160  -13.6838 C   0  0  0  0  0  0  0  0  0  0  0  0
   22.0721   -2.4331  -12.9401 O   0  0  0  0  0  0  0  0  0  0  0  0
   19.9206   -2.9004  -13.3218 O   0  0  0  0  0  0  0  0  0  0  0  0
  2  1  1  0
  3  2  2  0
  4  3  1  0
  5  4  2  0
  5 11  1  0
  6  5  1  0
  7  9  1  0
  7  6  1  0
  7  8  1  6
  9 10  2  0
 11 12  2  0
 12  2  1  0
 15 14  1  1
 14 13  1  0
 16 15  1  0
 16  9  1  0
 17 15  1  0
 18 17  2  0
 20 19  1  6
 21 20  1  0
 22 20  1  0
 23 22  1  6
 23 24  1  0
 24 17  1  0
 25 23  1  0
 26 25  1  0
 27 25  2  0
M  END
$$$$
