YSL.pdb
     RDKit          3D

 27 27  0  0  1  0  0  0  0  0999 V2000
   13.5461   -4.1241  -19.3363 O   0  0  0  0  0  0  0  0  0  0  0  0
   13.6566   -5.0930  -18.3405 C   0  0  0  0  0  0  0  0  0  0  0  0
   12.8355   -5.1351  -17.2363 C   0  0  0  0  0  0  0  0  0  0  0  0
   12.9634   -6.1078  -16.2583 C   0  0  0  0  0  0  0  0  0  0  0  0
   13.9393   -7.0783  -16.3721 C   0  0  0  0  0  0  0  0  0  0  0  0
   14.1255   -8.1424  -15.3615 C   0  0  0  0  0  0  0  0  0  0  0  0
   14.7927   -9.3786  -15.9748 C   0  0  2  0  0  0  0  0  0  0  0  0
   13.8738  -10.4790  -15.7396 N   0  0  0  0  0  0  0  0  0  0  0  0
   16.0400   -9.5978  -15.2148 C   0  0  0  0  0  0  0  0  0  0  0  0
   16.0634  -10.3825  -14.2392 O   0  0  0  0  0  0  0  0  0  0  0  0
   14.7645   -7.0403  -17.4767 C   0  0  0  0  0  0  0  0  0  0  0  0
   14.6299   -6.0619  -18.4527 C   0  0  0  0  0  0  0  0  0  0  0  0
   20.0266  -10.9127  -14.4297 O   0  0  0  0  0  0  0  0  0  0  0  0
   18.7829  -10.6717  -14.9901 C   0  0  0  0  0  0  0  0  0  0  0  0
   18.4978   -9.1915  -14.9917 C   0  0  2  0  0  0  0  0  0  0  0  0
   17.2286   -8.9167  -15.5867 N   0  0  0  0  0  0  0  0  0  0  0  0
   19.5816   -8.3965  -15.5836 C   0  0  0  0  0  0  0  0  0  0  0  0
   19.6235   -8.3398  -16.8587 O   0  0  0  0  0  0  0  0  0  0  0  0
   21.7602   -3.6923  -13.7071 C   0  0  0  0  0  0  0  0  0  0  0  0
   21.1872   -4.7596  -14.6475 C   0  0  1  0  0  0  0  0  0  0  0  0
   20.9259   -4.1241  -16.0129 C   0  0  0  0  0  0  0  0  0  0  0  0
   22.1621   -5.8889  -14.7503 C   0  0  0  0  0  0  0  0  0  0  0  0
   21.6180   -7.0051  -15.5706 C   0  0  2  0  0  0  0  0  0  0  0  0
   20.5564   -7.7081  -14.8280 N   0  0  0  0  0  0  0  0  0  0  0  0
   22.6807   -7.9866  -15.9074 C   0  0  0  0  0  0  0  0  0  0  0  0
   22.7349   -9.2966  -15.4915 O   0  0  0  0  0  0  0  0  0  0  0  0
   23.6698   -7.6322  -16.6528 O   0  0  0  0  0  0  0  0  0  0  0  0
  2  1  1  0
  3  2  2  0
  4  3  1  0
  5  4  2  0
  5 11  1  0
  6  5  1  0
  7  9  1  0
  7  6  1  0
  7  8  1  1
  9 10  2  0
 11 12  2  0
 12  2  1  0
 15 14  1  6
 14 13  1  0
 16 15  1  0
 16  9  1  0
 17 15  1  0
 18 17  2  0
 20 19  1  1
 21 20  1  0
 22 20  1  0
 23 22  1  1
 23 24  1  0
 24 17  1  0
 25 23  1  0
 26 25  1  0
 27 25  2  0
M  END
$$$$
