YSL.pdb
     RDKit          3D

 27 27  0  0  1  0  0  0  0  0999 V2000
   38.0593  -34.5938  -18.8224 O   0  0  0  0  0  0  0  0  0  0  0  0
   38.1301  -33.7302  -17.7307 C   0  0  0  0  0  0  0  0  0  0  0  0
   38.0791  -34.1620  -16.4244 C   0  0  0  0  0  0  0  0  0  0  0  0
   38.1513  -33.2854  -15.3542 C   0  0  0  0  0  0  0  0  0  0  0  0
   38.2788  -31.9288  -15.5793 C   0  0  0  0  0  0  0  0  0  0  0  0
   38.3607  -30.9436  -14.4788 C   0  0  0  0  0  0  0  0  0  0  0  0
   36.9645  -30.5220  -14.0073 C   0  0  2  0  0  0  0  0  0  0  0  0
   36.2215  -31.7569  -13.8242 N   0  0  0  0  0  0  0  0  0  0  0  0
   36.3712  -29.7408  -15.1114 C   0  0  0  0  0  0  0  0  0  0  0  0
   35.1287  -29.6814  -15.2555 O   0  0  0  0  0  0  0  0  0  0  0  0
   38.3304  -31.4914  -16.8863 C   0  0  0  0  0  0  0  0  0  0  0  0
   38.2574  -32.3764  -17.9537 C   0  0  0  0  0  0  0  0  0  0  0  0
   35.2357  -26.2586  -17.2373 O   0  0  0  0  0  0  0  0  0  0  0  0
   35.7422  -27.1445  -16.3006 C   0  0  0  0  0  0  0  0  0  0  0  0
   36.7122  -28.0912  -16.9602 C   0  0  2  0  0  0  0  0  0  0  0  0
   37.2098  -29.0473  -16.0229 N   0  0  0  0  0  0  0  0  0  0  0  0
   37.7868  -27.4019  -17.6862 C   0  0  0  0  0  0  0  0  0  0  0  0
   38.7017  -26.8582  -16.9803 O   0  0  0  0  0  0  0  0  0  0  0  0
   40.4683  -29.3093  -21.8476 C   0  0  0  0  0  0  0  0  0  0  0  0
   40.1030  -28.5816  -20.5481 C   0  0  1  0  0  0  0  0  0  0  0  0
   41.3682  -28.4086  -19.7080 C   0  0  0  0  0  0  0  0  0  0  0  0
   39.4903  -27.2605  -20.8880 C   0  0  0  0  0  0  0  0  0  0  0  0
   38.9858  -26.5654  -19.6727 C   0  0  2  0  0  0  0  0  0  0  0  0
   37.8552  -27.3137  -19.0943 N   0  0  0  0  0  0  0  0  0  0  0  0
   38.5197  -25.1931  -19.9981 C   0  0  0  0  0  0  0  0  0  0  0  0
   37.2200  -24.7458  -19.9480 O   0  0  0  0  0  0  0  0  0  0  0  0
   39.3680  -24.2979  -20.3704 O   0  0  0  0  0  0  0  0  0  0  0  0
  2  1  1  0
  3  2  2  0
  4  3  1  0
  5  4  2  0
  5 11  1  0
  6  5  1  0
  7  9  1  0
  7  6  1  0
  7  8  1  6
  9 10  2  0
 11 12  2  0
 12  2  1  0
 15 14  1  1
 14 13  1  0
 16 15  1  0
 16  9  1  0
 17 15  1  0
 18 17  2  0
 20 19  1  6
 21 20  1  0
 22 20  1  0
 23 22  1  6
 23 24  1  0
 24 17  1  0
 25 23  1  0
 26 25  1  0
 27 25  2  0
M  END
$$$$
