YSL.pdb
     RDKit          3D

 27 27  0  0  1  0  0  0  0  0999 V2000
   20.3218  -11.2005  -16.4563 O   0  0  0  0  0  0  0  0  0  0  0  0
   20.8696  -12.4539  -16.1891 C   0  0  0  0  0  0  0  0  0  0  0  0
   22.2166  -12.6610  -15.9942 C   0  0  0  0  0  0  0  0  0  0  0  0
   22.7395  -13.9163  -15.7297 C   0  0  0  0  0  0  0  0  0  0  0  0
   21.9023  -15.0119  -15.6541 C   0  0  0  0  0  0  0  0  0  0  0  0
   22.4003  -16.3766  -15.3751 C   0  0  0  0  0  0  0  0  0  0  0  0
   23.1959  -16.9299  -16.5628 C   0  0  2  0  0  0  0  0  0  0  0  0
   22.2198  -17.1731  -17.6110 N   0  0  0  0  0  0  0  0  0  0  0  0
   23.7766  -18.2113  -16.1134 C   0  0  0  0  0  0  0  0  0  0  0  0
   23.0403  -19.1348  -15.6976 O   0  0  0  0  0  0  0  0  0  0  0  0
   20.5518  -14.8095  -15.8487 C   0  0  0  0  0  0  0  0  0  0  0  0
   20.0354  -13.5481  -16.1134 C   0  0  0  0  0  0  0  0  0  0  0  0
   28.0491  -18.8604  -15.7297 O   0  0  0  0  0  0  0  0  0  0  0  0
   27.1829  -19.7532  -16.3392 C   0  0  0  0  0  0  0  0  0  0  0  0
   25.8060  -19.6246  -15.7394 C   0  0  2  0  0  0  0  0  0  0  0  0
   25.1821  -18.4069  -16.1497 N   0  0  0  0  0  0  0  0  0  0  0  0
   25.7938  -19.8006  -14.2814 C   0  0  0  0  0  0  0  0  0  0  0  0
   25.6857  -18.7423  -13.5747 O   0  0  0  0  0  0  0  0  0  0  0  0
   25.6044  -19.5949   -9.4681 C   0  0  0  0  0  0  0  0  0  0  0  0
   24.6240  -20.5677  -10.1347 C   0  0  1  0  0  0  0  0  0  0  0  0
   23.2132  -20.2705   -9.6268 C   0  0  0  0  0  0  0  0  0  0  0  0
   24.7137  -20.4055  -11.6186 C   0  0  0  0  0  0  0  0  0  0  0  0
   25.9335  -21.0598  -12.1652 C   0  0  2  0  0  0  0  0  0  0  0  0
   25.8935  -21.0544  -13.6386 N   0  0  0  0  0  0  0  0  0  0  0  0
   26.0342  -22.4687  -11.7060 C   0  0  0  0  0  0  0  0  0  0  0  0
   26.6709  -22.9065  -10.5681 O   0  0  0  0  0  0  0  0  0  0  0  0
   25.4959  -23.4108  -12.4005 O   0  0  0  0  0  0  0  0  0  0  0  0
  2  1  1  0
  3  2  2  0
  4  3  1  0
  5  4  2  0
  5 11  1  0
  6  5  1  0
  7  9  1  0
  7  6  1  0
  7  8  1  6
  9 10  2  0
 11 12  2  0
 12  2  1  0
 15 14  1  1
 14 13  1  0
 16 15  1  0
 16  9  1  0
 17 15  1  0
 18 17  2  0
 20 19  1  1
 21 20  1  0
 22 20  1  0
 23 22  1  1
 23 24  1  0
 24 17  1  0
 25 23  1  0
 26 25  1  0
 27 25  2  0
M  END
$$$$
