YSL.pdb
     RDKit          3D

 27 27  0  0  1  0  0  0  0  0999 V2000
   17.4705  -13.4526  -15.4347 O   0  0  0  0  0  0  0  0  0  0  0  0
   18.3374  -14.5153  -15.1860 C   0  0  0  0  0  0  0  0  0  0  0  0
   17.9327  -15.6980  -14.6090 C   0  0  0  0  0  0  0  0  0  0  0  0
   18.8121  -16.7415  -14.3710 C   0  0  0  0  0  0  0  0  0  0  0  0
   20.1436  -16.6155  -14.7149 C   0  0  0  0  0  0  0  0  0  0  0  0
   21.1304  -17.6937  -14.4860 C   0  0  0  0  0  0  0  0  0  0  0  0
   21.5869  -18.3172  -15.8097 C   0  0  2  0  0  0  0  0  0  0  0  0
   20.4293  -19.0225  -16.3324 N   0  0  0  0  0  0  0  0  0  0  0  0
   22.6497  -19.2846  -15.4689 C   0  0  0  0  0  0  0  0  0  0  0  0
   22.3709  -20.3650  -14.9004 O   0  0  0  0  0  0  0  0  0  0  0  0
   20.5538  -15.4325  -15.2932 C   0  0  0  0  0  0  0  0  0  0  0  0
   19.6662  -14.3910  -15.5286 C   0  0  0  0  0  0  0  0  0  0  0  0
   26.6849  -18.1216  -15.4197 O   0  0  0  0  0  0  0  0  0  0  0  0
   26.3872  -19.3482  -15.9904 C   0  0  0  0  0  0  0  0  0  0  0  0
   25.0819  -19.8667  -15.4432 C   0  0  2  0  0  0  0  0  0  0  0  0
   24.0029  -18.9953  -15.7849 N   0  0  0  0  0  0  0  0  0  0  0  0
   25.1358  -20.1598  -14.0051 C   0  0  0  0  0  0  0  0  0  0  0  0
   24.7602  -19.2304  -13.2138 O   0  0  0  0  0  0  0  0  0  0  0  0
   22.2606  -20.1038  -10.7715 C   0  0  0  0  0  0  0  0  0  0  0  0
   23.7571  -20.1095  -11.1066 C   0  0  1  0  0  0  0  0  0  0  0  0
   24.5373  -19.6244   -9.8850 C   0  0  0  0  0  0  0  0  0  0  0  0
   24.1614  -21.4957  -11.4955 C   0  0  0  0  0  0  0  0  0  0  0  0
   25.5606  -21.5334  -12.0010 C   0  0  2  0  0  0  0  0  0  0  0  0
   25.5727  -21.3910  -13.4681 N   0  0  0  0  0  0  0  0  0  0  0  0
   26.2197  -22.8176  -11.6511 C   0  0  0  0  0  0  0  0  0  0  0  0
   26.4620  -23.8643  -12.5100 O   0  0  0  0  0  0  0  0  0  0  0  0
   26.6197  -23.0266  -10.4444 O   0  0  0  0  0  0  0  0  0  0  0  0
  2  1  1  0
  3  2  2  0
  4  3  1  0
  5  4  2  0
  5 11  1  0
  6  5  1  0
  7  9  1  0
  7  6  1  0
  7  8  1  1
  9 10  2  0
 11 12  2  0
 12  2  1  0
 15 14  1  1
 14 13  1  0
 16 15  1  0
 16  9  1  0
 17 15  1  0
 18 17  2  0
 20 19  1  1
 21 20  1  0
 22 20  1  0
 23 22  1  6
 23 24  1  0
 24 17  1  0
 25 23  1  0
 26 25  1  0
 27 25  2  0
M  END
$$$$
