YSL.pdb
     RDKit          3D

 27 27  0  0  1  0  0  0  0  0999 V2000
   18.9583  -15.5422  -15.4024 O   0  0  0  0  0  0  0  0  0  0  0  0
   19.6044  -16.4348  -14.5490 C   0  0  0  0  0  0  0  0  0  0  0  0
   20.9598  -16.6721  -14.5935 C   0  0  0  0  0  0  0  0  0  0  0  0
   21.5812  -17.5643  -13.7350 C   0  0  0  0  0  0  0  0  0  0  0  0
   20.8381  -18.2505  -12.7948 C   0  0  0  0  0  0  0  0  0  0  0  0
   21.4438  -19.2154  -11.8511 C   0  0  0  0  0  0  0  0  0  0  0  0
   22.3353  -20.2233  -12.5852 C   0  0  2  0  0  0  0  0  0  0  0  0
   21.4329  -21.2225  -13.1307 N   0  0  0  0  0  0  0  0  0  0  0  0
   23.2002  -20.8384  -11.5581 C   0  0  0  0  0  0  0  0  0  0  0  0
   22.7108  -21.5653  -10.6635 O   0  0  0  0  0  0  0  0  0  0  0  0
   19.4797  -18.0161  -12.7463 C   0  0  0  0  0  0  0  0  0  0  0  0
   18.8642  -17.1202  -13.6103 C   0  0  0  0  0  0  0  0  0  0  0  0
   27.0452  -21.5119  -12.6833 O   0  0  0  0  0  0  0  0  0  0  0  0
   26.3158  -22.2994  -11.8077 C   0  0  0  0  0  0  0  0  0  0  0  0
   25.5299  -21.4261  -10.8634 C   0  0  2  0  0  0  0  0  0  0  0  0
   24.6009  -20.6090  -11.5773 N   0  0  0  0  0  0  0  0  0  0  0  0
   26.3815  -20.6484   -9.9540 C   0  0  0  0  0  0  0  0  0  0  0  0
   26.4456  -19.3899  -10.1608 O   0  0  0  0  0  0  0  0  0  0  0  0
   27.7330  -19.7738   -4.5543 C   0  0  0  0  0  0  0  0  0  0  0  0
   27.6081  -19.4928   -6.0568 C   0  0  1  0  0  0  0  0  0  0  0  0
   28.2971  -18.1644   -6.3683 C   0  0  0  0  0  0  0  0  0  0  0  0
   28.2324  -20.6207   -6.8145 C   0  0  0  0  0  0  0  0  0  0  0  0
   28.1768  -20.3870   -8.2831 C   0  0  2  0  0  0  0  0  0  0  0  0
   27.1154  -21.2125   -8.8871 N   0  0  0  0  0  0  0  0  0  0  0  0
   29.4671  -20.7402   -8.9286 C   0  0  0  0  0  0  0  0  0  0  0  0
   30.5791  -19.9348   -9.0107 O   0  0  0  0  0  0  0  0  0  0  0  0
   29.6141  -21.8944   -9.4816 O   0  0  0  0  0  0  0  0  0  0  0  0
  2  1  1  0
  3  2  2  0
  4  3  1  0
  5  4  2  0
  5 11  1  0
  6  5  1  0
  7  9  1  0
  7  6  1  0
  7  8  1  1
  9 10  2  0
 11 12  2  0
 12  2  1  0
 15 14  1  6
 14 13  1  0
 16 15  1  0
 16  9  1  0
 17 15  1  0
 18 17  2  0
 20 19  1  1
 21 20  1  0
 22 20  1  0
 23 22  1  1
 23 24  1  0
 24 17  1  0
 25 23  1  0
 26 25  1  0
 27 25  2  0
M  END
$$$$
