YSL.pdb
     RDKit          3D

 27 27  0  0  1  0  0  0  0  0999 V2000
   19.1267  -18.6341  -14.5848 O   0  0  0  0  0  0  0  0  0  0  0  0
   20.1688  -19.1859  -13.8417 C   0  0  0  0  0  0  0  0  0  0  0  0
   21.3067  -18.4873  -13.5063 C   0  0  0  0  0  0  0  0  0  0  0  0
   22.3305  -19.0561  -12.7665 C   0  0  0  0  0  0  0  0  0  0  0  0
   22.2299  -20.3657  -12.3398 C   0  0  0  0  0  0  0  0  0  0  0  0
   23.2889  -21.0283  -11.5474 C   0  0  0  0  0  0  0  0  0  0  0  0
   24.5709  -21.2003  -12.3700 C   0  0  2  0  0  0  0  0  0  0  0  0
   24.3319  -22.3413  -13.2369 N   0  0  0  0  0  0  0  0  0  0  0  0
   25.6432  -21.5207  -11.4063 C   0  0  0  0  0  0  0  0  0  0  0  0
   25.6661  -22.6278  -10.8216 O   0  0  0  0  0  0  0  0  0  0  0  0
   21.0917  -21.0697  -12.6734 C   0  0  0  0  0  0  0  0  0  0  0  0
   20.0698  -20.4924  -13.4153 C   0  0  0  0  0  0  0  0  0  0  0  0
   29.0669  -21.0326  -12.2069 O   0  0  0  0  0  0  0  0  0  0  0  0
   29.0706  -20.5406  -10.9120 C   0  0  0  0  0  0  0  0  0  0  0  0
   27.7502  -20.8337  -10.2468 C   0  0  2  0  0  0  0  0  0  0  0  0
   26.6620  -20.5705  -11.1339 N   0  0  0  0  0  0  0  0  0  0  0  0
   27.5959  -20.1607   -8.9506 C   0  0  0  0  0  0  0  0  0  0  0  0
   26.9457  -19.0615   -8.9465 O   0  0  0  0  0  0  0  0  0  0  0  0
   28.1131  -21.9894   -3.5063 C   0  0  0  0  0  0  0  0  0  0  0  0
   27.5262  -21.2092   -4.6890 C   0  0  1  0  0  0  0  0  0  0  0  0
   26.4497  -20.2583   -4.1663 C   0  0  0  0  0  0  0  0  0  0  0  0
   28.6275  -20.4623   -5.3714 C   0  0  0  0  0  0  0  0  0  0  0  0
   28.1335  -19.7470   -6.5792 C   0  0  2  0  0  0  0  0  0  0  0  0
   28.1198  -20.6590   -7.7372 N   0  0  0  0  0  0  0  0  0  0  0  0
   29.0046  -18.5894   -6.9070 C   0  0  0  0  0  0  0  0  0  0  0  0
   28.9363  -17.3380   -6.3401 O   0  0  0  0  0  0  0  0  0  0  0  0
   29.9252  -18.7106   -7.8000 O   0  0  0  0  0  0  0  0  0  0  0  0
  2  1  1  0
  3  2  2  0
  4  3  1  0
  5  4  2  0
  5 11  1  0
  6  5  1  0
  7  9  1  0
  7  6  1  0
  7  8  1  6
  9 10  2  0
 11 12  2  0
 12  2  1  0
 15 14  1  6
 14 13  1  0
 16 15  1  0
 16  9  1  0
 17 15  1  0
 18 17  2  0
 20 19  1  1
 21 20  1  0
 22 20  1  0
 23 22  1  1
 23 24  1  0
 24 17  1  0
 25 23  1  0
 26 25  1  0
 27 25  2  0
M  END
$$$$
