YSL.pdb
     RDKit          3D

 27 27  0  0  1  0  0  0  0  0999 V2000
   30.5689  -15.1302  -18.9331 O   0  0  0  0  0  0  0  0  0  0  0  0
   29.7506  -15.7625  -17.9987 C   0  0  0  0  0  0  0  0  0  0  0  0
   29.9987  -17.0269  -17.5137 C   0  0  0  0  0  0  0  0  0  0  0  0
   29.1713  -17.6363  -16.5847 C   0  0  0  0  0  0  0  0  0  0  0  0
   28.0545  -16.9741  -16.1142 C   0  0  0  0  0  0  0  0  0  0  0  0
   27.1334  -17.5717  -15.1228 C   0  0  0  0  0  0  0  0  0  0  0  0
   26.3992  -18.7832  -15.7082 C   0  0  2  0  0  0  0  0  0  0  0  0
   25.4792  -18.2460  -16.6960 N   0  0  0  0  0  0  0  0  0  0  0  0
   25.6400  -19.3872  -14.5946 C   0  0  0  0  0  0  0  0  0  0  0  0
   24.5505  -18.8940  -14.2233 O   0  0  0  0  0  0  0  0  0  0  0  0
   27.8017  -15.7071  -16.5972 C   0  0  0  0  0  0  0  0  0  0  0  0
   28.6359  -15.1030  -17.5284 C   0  0  0  0  0  0  0  0  0  0  0  0
   24.4950  -23.3390  -12.3256 O   0  0  0  0  0  0  0  0  0  0  0  0
   25.2860  -22.6998  -13.2661 C   0  0  0  0  0  0  0  0  0  0  0  0
   25.4076  -21.2363  -12.9265 C   0  0  2  0  0  0  0  0  0  0  0  0
   26.1426  -20.5380  -13.9328 N   0  0  0  0  0  0  0  0  0  0  0  0
   25.9359  -20.9998  -11.5767 C   0  0  0  0  0  0  0  0  0  0  0  0
   27.2035  -20.8923  -11.4654 O   0  0  0  0  0  0  0  0  0  0  0  0
   28.6947  -20.6130   -7.5071 C   0  0  0  0  0  0  0  0  0  0  0  0
   27.3262  -19.9213   -7.5341 C   0  0  1  0  0  0  0  0  0  0  0  0
   27.4884  -18.4885   -7.0271 C   0  0  0  0  0  0  0  0  0  0  0  0
   26.7974  -19.9473   -8.9326 C   0  0  0  0  0  0  0  0  0  0  0  0
   25.7918  -21.0292   -9.1146 C   0  0  2  0  0  0  0  0  0  0  0  0
   25.1282  -20.8884  -10.4233 N   0  0  0  0  0  0  0  0  0  0  0  0
   24.7519  -20.9744   -8.0555 C   0  0  0  0  0  0  0  0  0  0  0  0
   23.3977  -20.8408   -8.2560 O   0  0  0  0  0  0  0  0  0  0  0  0
   25.0929  -21.0519   -6.8156 O   0  0  0  0  0  0  0  0  0  0  0  0
  2  1  1  0
  3  2  2  0
  4  3  1  0
  5  4  2  0
  5 11  1  0
  6  5  1  0
  7  9  1  0
  7  6  1  0
  7  8  1  6
  9 10  2  0
 11 12  2  0
 12  2  1  0
 15 14  1  6
 14 13  1  0
 16 15  1  0
 16  9  1  0
 17 15  1  0
 18 17  2  0
 20 19  1  6
 21 20  1  0
 22 20  1  0
 23 22  1  1
 23 24  1  0
 24 17  1  0
 25 23  1  0
 26 25  1  0
 27 25  2  0
M  END
$$$$
