YSL.pdb
     RDKit          3D

 27 27  0  0  1  0  0  0  0  0999 V2000
   18.1605  -12.7555  -16.3756 O   0  0  0  0  0  0  0  0  0  0  0  0
   18.9521  -13.8571  -16.0554 C   0  0  0  0  0  0  0  0  0  0  0  0
   18.6667  -14.7127  -15.0153 C   0  0  0  0  0  0  0  0  0  0  0  0
   19.4681  -15.8020  -14.7149 C   0  0  0  0  0  0  0  0  0  0  0  0
   20.5960  -16.0593  -15.4691 C   0  0  0  0  0  0  0  0  0  0  0  0
   21.4905  -17.2058  -15.1978 C   0  0  0  0  0  0  0  0  0  0  0  0
   22.0559  -17.7876  -16.4983 C   0  0  2  0  0  0  0  0  0  0  0  0
   20.9186  -18.3537  -17.2031 N   0  0  0  0  0  0  0  0  0  0  0  0
   22.9853  -18.8650  -16.1023 C   0  0  0  0  0  0  0  0  0  0  0  0
   22.5548  -20.0040  -15.8105 O   0  0  0  0  0  0  0  0  0  0  0  0
   20.8861  -15.2049  -16.5123 C   0  0  0  0  0  0  0  0  0  0  0  0
   20.0778  -14.1150  -16.8070 C   0  0  0  0  0  0  0  0  0  0  0  0
   27.4407  -18.5549  -15.9632 O   0  0  0  0  0  0  0  0  0  0  0  0
   26.5877  -19.4428  -16.5980 C   0  0  0  0  0  0  0  0  0  0  0  0
   25.3413  -19.6374  -15.7731 C   0  0  2  0  0  0  0  0  0  0  0  0
   24.3817  -18.6159  -16.0491 N   0  0  0  0  0  0  0  0  0  0  0  0
   25.6165  -19.7788  -14.3374 C   0  0  0  0  0  0  0  0  0  0  0  0
   25.5900  -18.7104  -13.6383 O   0  0  0  0  0  0  0  0  0  0  0  0
   25.6171  -19.4014   -9.4332 C   0  0  0  0  0  0  0  0  0  0  0  0
   25.0942  -20.7031  -10.0528 C   0  0  1  0  0  0  0  0  0  0  0  0
   23.7544  -21.0532   -9.4057 C   0  0  0  0  0  0  0  0  0  0  0  0
   24.9527  -20.5145  -11.5295 C   0  0  0  0  0  0  0  0  0  0  0  0
   26.1620  -20.9865  -12.2572 C   0  0  2  0  0  0  0  0  0  0  0  0
   25.9024  -21.0106  -13.7080 N   0  0  0  0  0  0  0  0  0  0  0  0
   26.5417  -22.3568  -11.8280 C   0  0  0  0  0  0  0  0  0  0  0  0
   27.3726  -22.6764  -10.7796 O   0  0  0  0  0  0  0  0  0  0  0  0
   26.0817  -23.3793  -12.4625 O   0  0  0  0  0  0  0  0  0  0  0  0
  2  1  1  0
  3  2  2  0
  4  3  1  0
  5  4  2  0
  5 11  1  0
  6  5  1  0
  7  9  1  0
  7  6  1  0
  7  8  1  6
  9 10  2  0
 11 12  2  0
 12  2  1  0
 15 14  1  6
 14 13  1  0
 16 15  1  0
 16  9  1  0
 17 15  1  0
 18 17  2  0
 20 19  1  1
 21 20  1  0
 22 20  1  0
 23 22  1  1
 23 24  1  0
 24 17  1  0
 25 23  1  0
 26 25  1  0
 27 25  2  0
M  END
$$$$
