YSL.pdb
     RDKit          3D

 27 27  0  0  1  0  0  0  0  0999 V2000
   33.8027   -5.7053   -4.9847 O   0  0  0  0  0  0  0  0  0  0  0  0
   35.0070   -6.1353   -5.5392 C   0  0  0  0  0  0  0  0  0  0  0  0
   35.3086   -7.4622   -5.7481 C   0  0  0  0  0  0  0  0  0  0  0  0
   36.5125   -7.8671   -6.3010 C   0  0  0  0  0  0  0  0  0  0  0  0
   37.4576   -6.9274   -6.6629 C   0  0  0  0  0  0  0  0  0  0  0  0
   38.7608   -7.2972   -7.2574 C   0  0  0  0  0  0  0  0  0  0  0  0
   38.9465   -6.6478   -8.6334 C   0  0  2  0  0  0  0  0  0  0  0  0
   38.0831   -7.3879   -9.5375 N   0  0  0  0  0  0  0  0  0  0  0  0
   40.3598   -6.8603   -9.0060 C   0  0  0  0  0  0  0  0  0  0  0  0
   40.7293   -7.9419   -9.5174 O   0  0  0  0  0  0  0  0  0  0  0  0
   37.1600   -5.5967   -6.4556 C   0  0  0  0  0  0  0  0  0  0  0  0
   35.9509   -5.1989   -5.9008 C   0  0  0  0  0  0  0  0  0  0  0  0
   43.2521   -4.0073   -7.8825 O   0  0  0  0  0  0  0  0  0  0  0  0
   43.4224   -4.6826   -9.0800 C   0  0  0  0  0  0  0  0  0  0  0  0
   42.7123   -6.0111   -9.0266 C   0  0  2  0  0  0  0  0  0  0  0  0
   41.3155   -5.8340   -8.7858 N   0  0  0  0  0  0  0  0  0  0  0  0
   43.3301   -6.9575   -8.0889 C   0  0  0  0  0  0  0  0  0  0  0  0
   42.8431   -6.9997   -6.9091 O   0  0  0  0  0  0  0  0  0  0  0  0
   44.5082  -10.7347   -5.1485 C   0  0  0  0  0  0  0  0  0  0  0  0
   45.2299  -10.9256   -6.4882 C   0  0  1  0  0  0  0  0  0  0  0  0
   45.1481  -12.3992   -6.8861 C   0  0  0  0  0  0  0  0  0  0  0  0
   44.5871  -10.0482   -7.5144 C   0  0  0  0  0  0  0  0  0  0  0  0
   44.9867   -8.6251   -7.3416 C   0  0  2  0  0  0  0  0  0  0  0  0
   44.4115   -7.8032   -8.4216 N   0  0  0  0  0  0  0  0  0  0  0  0
   46.4642   -8.4777   -7.3791 C   0  0  0  0  0  0  0  0  0  0  0  0
   47.3011   -8.4253   -6.2889 O   0  0  0  0  0  0  0  0  0  0  0  0
   47.0718   -8.3826   -8.5112 O   0  0  0  0  0  0  0  0  0  0  0  0
  2  1  1  0
  3  2  2  0
  4  3  1  0
  5  4  2  0
  5 11  1  0
  6  5  1  0
  7  9  1  0
  7  6  1  0
  7  8  1  6
  9 10  2  0
 11 12  2  0
 12  2  1  0
 15 14  1  1
 14 13  1  0
 16 15  1  0
 16  9  1  0
 17 15  1  0
 18 17  2  0
 20 19  1  1
 21 20  1  0
 22 20  1  0
 23 22  1  6
 23 24  1  0
 24 17  1  0
 25 23  1  0
 26 25  1  0
 27 25  2  0
M  END
$$$$
