KHL.pdb
     RDKit          3D

 28 28  0  0  1  0  0  0  0  0999 V2000
    9.1454  -16.3678   19.4659 N   0  0  0  0  0  0  0  0  0  0  0  0
    8.7220  -15.3956   20.4565 C   0  0  1  0  0  0  0  0  0  0  0  0
    7.3430  -14.8658   20.1661 C   0  0  0  0  0  0  0  0  0  0  0  0
    7.2187  -14.5503   18.7095 C   0  0  0  0  0  0  0  0  0  0  0  0
    8.2012  -13.5262   18.2446 C   0  0  0  0  0  0  0  0  0  0  0  0
    7.9788  -13.1891   16.7785 C   0  0  0  0  0  0  0  0  0  0  0  0
    9.0810  -12.3653   16.3360 N   0  0  0  0  0  0  0  0  0  0  0  0
    8.7453  -16.0580   21.7953 C   0  0  0  0  0  0  0  0  0  0  0  0
    7.9416  -15.7606   22.6882 O   0  0  0  0  0  0  0  0  0  0  0  0
    9.7206  -17.0513   22.0326 N   0  0  0  0  0  0  0  0  0  0  0  0
    9.7775  -17.8626   23.2300 C   0  0  1  0  0  0  0  0  0  0  0  0
   10.5606  -19.1108   22.8798 C   0  0  0  0  0  0  0  0  0  0  0  0
    9.7320  -20.0942   22.1534 C   0  0  0  0  0  0  0  0  0  0  0  0
    8.5075  -20.5288   22.6266 C   0  0  0  0  0  0  0  0  0  0  0  0
    8.0014  -21.4107   21.7568 N   0  0  0  0  0  0  0  0  0  0  0  0
    8.8717  -21.5501   20.7404 C   0  0  0  0  0  0  0  0  0  0  0  0
    9.9191  -20.7388   21.0024 N   0  0  0  0  0  0  0  0  0  0  0  0
   10.4117  -17.0902   24.3078 C   0  0  0  0  0  0  0  0  0  0  0  0
   11.4846  -16.4760   24.0640 O   0  0  0  0  0  0  0  0  0  0  0  0
   10.7273  -13.2637   27.9572 C   0  0  0  0  0  0  0  0  0  0  0  0
   10.0069  -14.4894   28.4769 C   0  0  1  0  0  0  0  0  0  0  0  0
    8.8030  -13.9664   29.2677 C   0  0  0  0  0  0  0  0  0  0  0  0
    9.4675  -15.3460   27.3861 C   0  0  0  0  0  0  0  0  0  0  0  0
   10.4610  -16.2251   26.6944 C   0  0  2  0  0  0  0  0  0  0  0  0
    9.8689  -17.0007   25.6253 N   0  0  0  0  0  0  0  0  0  0  0  0
   11.3123  -17.0286   27.5778 C   0  0  0  0  0  0  0  0  0  0  0  0
   12.6648  -16.7696   27.7494 O   0  0  0  0  0  0  0  0  0  0  0  0
   10.8643  -18.0213   28.2482 O   0  0  0  0  0  0  0  0  0  0  0  0
  2  1  1  6
  2  3  1  0
  3  4  1  0
  4  5  1  0
  5  6  1  0
  6  7  1  0
  8  2  1  0
  8  9  2  0
 10  8  1  0
 11 10  1  0
 11 12  1  6
 13 17  1  0
 13 12  1  0
 14 13  2  0
 15 14  1  0
 15 16  1  0
 16 17  2  0
 18 11  1  0
 19 18  2  0
 21 20  1  6
 21 22  1  0
 23 21  1  0
 24 23  1  1
 24 25  1  0
 25 18  1  0
 26 24  1  0
 27 26  1  0
 28 26  2  0
M  END
$$$$
