KHL.pdb
     RDKit          3D

 28 28  0  0  1  0  0  0  0  0999 V2000
    8.3615  -16.9802   18.8106 N   0  0  0  0  0  0  0  0  0  0  0  0
    9.0650  -17.6962   19.8587 C   0  0  1  0  0  0  0  0  0  0  0  0
   10.5152  -17.2982   19.9313 C   0  0  0  0  0  0  0  0  0  0  0  0
   10.7042  -15.9576   19.2957 C   0  0  0  0  0  0  0  0  0  0  0  0
   12.1296  -15.5126   19.2767 C   0  0  0  0  0  0  0  0  0  0  0  0
   12.2485  -14.1008   18.7242 C   0  0  0  0  0  0  0  0  0  0  0  0
   13.6526  -13.7655   18.6500 N   0  0  0  0  0  0  0  0  0  0  0  0
    8.3868  -17.4012   21.1567 C   0  0  0  0  0  0  0  0  0  0  0  0
    7.7026  -16.3834   21.3226 O   0  0  0  0  0  0  0  0  0  0  0  0
    8.5417  -18.3220   22.2161 N   0  0  0  0  0  0  0  0  0  0  0  0
    7.9637  -18.1494   23.5319 C   0  0  1  0  0  0  0  0  0  0  0  0
    8.4557  -19.3009   24.3838 C   0  0  0  0  0  0  0  0  0  0  0  0
    7.9403  -19.2222   25.7657 C   0  0  0  0  0  0  0  0  0  0  0  0
    6.5980  -19.0498   26.0500 C   0  0  0  0  0  0  0  0  0  0  0  0
    6.4430  -19.0166   27.3786 N   0  0  0  0  0  0  0  0  0  0  0  0
    7.6523  -19.1634   27.9497 C   0  0  0  0  0  0  0  0  0  0  0  0
    8.5501  -19.2870   26.9485 N   0  0  0  0  0  0  0  0  0  0  0  0
    8.3695  -16.8436   24.0709 C   0  0  0  0  0  0  0  0  0  0  0  0
    8.3718  -15.8442   23.3032 O   0  0  0  0  0  0  0  0  0  0  0  0
    8.1601  -12.2304   25.9409 C   0  0  0  0  0  0  0  0  0  0  0  0
    7.3771  -13.3224   26.6380 C   0  0  1  0  0  0  0  0  0  0  0  0
    5.9080  -12.8909   26.5779 C   0  0  0  0  0  0  0  0  0  0  0  0
    7.4708  -14.6334   25.9398 C   0  0  0  0  0  0  0  0  0  0  0  0
    8.7657  -15.3659   26.0973 C   0  0  2  0  0  0  0  0  0  0  0  0
    8.7637  -16.6500   25.4294 N   0  0  0  0  0  0  0  0  0  0  0  0
    9.2863  -15.4361   27.4664 C   0  0  0  0  0  0  0  0  0  0  0  0
    8.7449  -16.2765   28.4289 O   0  0  0  0  0  0  0  0  0  0  0  0
   10.2736  -14.7270   27.8640 O   0  0  0  0  0  0  0  0  0  0  0  0
  2  1  1  6
  2  3  1  0
  3  4  1  0
  4  5  1  0
  5  6  1  0
  6  7  1  0
  8  2  1  0
  8  9  2  0
 10  8  1  0
 11 10  1  0
 11 12  1  1
 13 17  1  0
 13 12  1  0
 14 13  2  0
 15 14  1  0
 15 16  1  0
 16 17  2  0
 18 11  1  0
 19 18  2  0
 21 20  1  6
 21 22  1  0
 23 21  1  0
 24 23  1  1
 24 25  1  0
 25 18  1  0
 26 24  1  0
 27 26  1  0
 28 26  2  0
M  END
$$$$
