KHL.pdb
     RDKit          3D

 28 28  0  0  1  0  0  0  0  0999 V2000
    6.4312  -16.5910   19.1582 N   0  0  0  0  0  0  0  0  0  0  0  0
    7.1503  -15.8109   20.1484 C   0  0  1  0  0  0  0  0  0  0  0  0
    6.8362  -14.3426   20.0390 C   0  0  0  0  0  0  0  0  0  0  0  0
    7.5921  -13.7476   18.8938 C   0  0  0  0  0  0  0  0  0  0  0  0
    9.0508  -13.5895   19.1719 C   0  0  0  0  0  0  0  0  0  0  0  0
    9.7535  -12.9108   18.0065 C   0  0  0  0  0  0  0  0  0  0  0  0
   11.1004  -12.5892   18.4213 N   0  0  0  0  0  0  0  0  0  0  0  0
    6.7706  -16.3170   21.5017 C   0  0  0  0  0  0  0  0  0  0  0  0
    5.6582  -16.8094   21.7293 O   0  0  0  0  0  0  0  0  0  0  0  0
    7.7214  -16.2229   22.5415 N   0  0  0  0  0  0  0  0  0  0  0  0
    7.4897  -16.6771   23.8962 C   0  0  1  0  0  0  0  0  0  0  0  0
    7.7851  -18.1624   23.9195 C   0  0  0  0  0  0  0  0  0  0  0  0
    7.6217  -18.7345   25.2713 C   0  0  0  0  0  0  0  0  0  0  0  0
    8.6975  -19.0372   26.0857 C   0  0  0  0  0  0  0  0  0  0  0  0
    8.2348  -19.5368   27.2375 N   0  0  0  0  0  0  0  0  0  0  0  0
    6.8909  -19.5606   27.1791 C   0  0  0  0  0  0  0  0  0  0  0  0
    6.5386  -19.0673   25.9723 N   0  0  0  0  0  0  0  0  0  0  0  0
    8.3543  -15.9219   24.8141 C   0  0  0  0  0  0  0  0  0  0  0  0
    9.5985  -15.9227   24.6146 O   0  0  0  0  0  0  0  0  0  0  0  0
    5.9683  -11.6645   27.2808 C   0  0  0  0  0  0  0  0  0  0  0  0
    6.8636  -12.6255   26.5282 C   0  0  1  0  0  0  0  0  0  0  0  0
    7.5748  -11.7887   25.4594 C   0  0  0  0  0  0  0  0  0  0  0  0
    7.9237  -13.2183   27.3881 C   0  0  0  0  0  0  0  0  0  0  0  0
    8.6735  -14.3711   26.7990 C   0  0  2  0  0  0  0  0  0  0  0  0
    7.8512  -15.1830   25.9273 N   0  0  0  0  0  0  0  0  0  0  0  0
    9.4531  -15.1675   27.7521 C   0  0  0  0  0  0  0  0  0  0  0  0
   10.4907  -14.6305   28.5009 O   0  0  0  0  0  0  0  0  0  0  0  0
    9.2284  -16.4100   27.9559 O   0  0  0  0  0  0  0  0  0  0  0  0
  2  1  1  6
  2  3  1  0
  3  4  1  0
  4  5  1  0
  5  6  1  0
  6  7  1  0
  8  2  1  0
  8  9  2  0
 10  8  1  0
 11 10  1  0
 11 12  1  6
 13 17  1  0
 13 12  1  0
 14 13  2  0
 15 14  1  0
 15 16  1  0
 16 17  2  0
 18 11  1  0
 19 18  2  0
 21 20  1  1
 21 22  1  0
 23 21  1  0
 24 23  1  1
 24 25  1  0
 25 18  1  0
 26 24  1  0
 27 26  1  0
 28 26  2  0
M  END
$$$$
