KHL.pdb
     RDKit          3D

 28 28  0  0  1  0  0  0  0  0999 V2000
   10.1208  -14.1207   19.1751 N   0  0  0  0  0  0  0  0  0  0  0  0
    9.1877  -13.2850   19.9078 C   0  0  1  0  0  0  0  0  0  0  0  0
    8.1303  -12.7048   19.0067 C   0  0  0  0  0  0  0  0  0  0  0  0
    7.5885  -13.7722   18.1100 C   0  0  0  0  0  0  0  0  0  0  0  0
    8.3213  -13.8773   16.8130 C   0  0  0  0  0  0  0  0  0  0  0  0
    7.6541  -14.8895   15.8950 C   0  0  0  0  0  0  0  0  0  0  0  0
    8.3677  -14.8929   14.6379 N   0  0  0  0  0  0  0  0  0  0  0  0
    8.5531  -14.1210   20.9708 C   0  0  0  0  0  0  0  0  0  0  0  0
    7.4848  -13.8001   21.5070 O   0  0  0  0  0  0  0  0  0  0  0  0
    9.2052  -15.3103   21.3640 N   0  0  0  0  0  0  0  0  0  0  0  0
    8.6826  -16.2348   22.3475 C   0  0  1  0  0  0  0  0  0  0  0  0
    9.2974  -17.5870   22.0516 C   0  0  0  0  0  0  0  0  0  0  0  0
    8.7749  -18.6370   22.9493 C   0  0  0  0  0  0  0  0  0  0  0  0
    7.5614  -18.5210   23.6021 C   0  0  0  0  0  0  0  0  0  0  0  0
    7.3639  -19.6219   24.3366 N   0  0  0  0  0  0  0  0  0  0  0  0
    8.4206  -20.4377   24.1693 C   0  0  0  0  0  0  0  0  0  0  0  0
    9.2682  -19.8179   23.3200 N   0  0  0  0  0  0  0  0  0  0  0  0
    9.0205  -15.7510   23.6937 C   0  0  0  0  0  0  0  0  0  0  0  0
   10.2118  -15.4214   23.9389 O   0  0  0  0  0  0  0  0  0  0  0  0
    5.6310  -12.6032   26.6843 C   0  0  0  0  0  0  0  0  0  0  0  0
    6.8763  -13.2168   26.0808 C   0  0  1  0  0  0  0  0  0  0  0  0
    8.0015  -12.2034   26.3165 C   0  0  0  0  0  0  0  0  0  0  0  0
    7.2828  -14.4782   26.7578 C   0  0  0  0  0  0  0  0  0  0  0  0
    8.3849  -15.2466   26.0996 C   0  0  2  0  0  0  0  0  0  0  0  0
    8.0600  -15.6351   24.7436 N   0  0  0  0  0  0  0  0  0  0  0  0
    8.9427  -16.3485   26.8902 C   0  0  0  0  0  0  0  0  0  0  0  0
    9.8312  -16.1420   27.9360 O   0  0  0  0  0  0  0  0  0  0  0  0
    8.6474  -17.5729   26.6679 O   0  0  0  0  0  0  0  0  0  0  0  0
  2  1  1  6
  2  3  1  0
  3  4  1  0
  4  5  1  0
  5  6  1  0
  6  7  1  0
  8  2  1  0
  8  9  2  0
 10  8  1  0
 11 10  1  0
 11 12  1  6
 13 17  1  0
 13 12  1  0
 14 13  2  0
 15 14  1  0
 15 16  1  0
 16 17  2  0
 18 11  1  0
 19 18  2  0
 21 20  1  1
 21 22  1  0
 23 21  1  0
 24 23  1  1
 24 25  1  0
 25 18  1  0
 26 24  1  0
 27 26  1  0
 28 26  2  0
M  END
$$$$
