KHL.pdb
     RDKit          3D

 28 28  0  0  1  0  0  0  0  0999 V2000
    9.5445  -19.1772   21.5060 N   0  0  0  0  0  0  0  0  0  0  0  0
   10.1913  -18.0799   20.8105 C   0  0  1  0  0  0  0  0  0  0  0  0
    9.6927  -17.9429   19.3966 C   0  0  0  0  0  0  0  0  0  0  0  0
   10.4934  -18.8230   18.4904 C   0  0  0  0  0  0  0  0  0  0  0  0
   10.8960  -18.1475   17.2208 C   0  0  0  0  0  0  0  0  0  0  0  0
   11.5044  -19.1442   16.2467 C   0  0  0  0  0  0  0  0  0  0  0  0
   12.0286  -18.4064   15.1197 N   0  0  0  0  0  0  0  0  0  0  0  0
    9.9208  -16.8243   21.5734 C   0  0  0  0  0  0  0  0  0  0  0  0
   10.3129  -15.7192   21.1777 O   0  0  0  0  0  0  0  0  0  0  0  0
    9.1946  -16.9192   22.7808 N   0  0  0  0  0  0  0  0  0  0  0  0
    8.8111  -15.7807   23.5883 C   0  0  1  0  0  0  0  0  0  0  0  0
    7.3696  -15.9976   23.9993 C   0  0  0  0  0  0  0  0  0  0  0  0
    6.8568  -14.8798   24.8171 C   0  0  0  0  0  0  0  0  0  0  0  0
    7.3625  -13.5962   24.7227 C   0  0  0  0  0  0  0  0  0  0  0  0
    6.7013  -12.8117   25.5817 N   0  0  0  0  0  0  0  0  0  0  0  0
    5.7864  -13.5619   26.2221 C   0  0  0  0  0  0  0  0  0  0  0  0
    5.8984  -14.8187   25.7408 N   0  0  0  0  0  0  0  0  0  0  0  0
    9.7124  -15.6827   24.7452 C   0  0  0  0  0  0  0  0  0  0  0  0
   10.6432  -14.8337   24.7193 O   0  0  0  0  0  0  0  0  0  0  0  0
    9.9232  -12.9174   28.2186 C   0  0  0  0  0  0  0  0  0  0  0  0
   10.4212  -14.0127   27.3000 C   0  0  1  0  0  0  0  0  0  0  0  0
   11.9014  -13.7081   27.0458 C   0  0  0  0  0  0  0  0  0  0  0  0
   10.3594  -15.3615   27.9258 C   0  0  0  0  0  0  0  0  0  0  0  0
   10.5341  -16.5210   26.9966 C   0  0  2  0  0  0  0  0  0  0  0  0
    9.5848  -16.5068   25.9040 N   0  0  0  0  0  0  0  0  0  0  0  0
   10.6414  -17.8335   27.6418 C   0  0  0  0  0  0  0  0  0  0  0  0
    9.8587  -18.9163   27.2664 O   0  0  0  0  0  0  0  0  0  0  0  0
   11.4633  -18.0669   28.5935 O   0  0  0  0  0  0  0  0  0  0  0  0
  2  1  1  1
  2  3  1  0
  3  4  1  0
  4  5  1  0
  5  6  1  0
  6  7  1  0
  8  2  1  0
  8  9  2  0
 10  8  1  0
 11 10  1  0
 11 12  1  1
 13 17  1  0
 13 12  1  0
 14 13  2  0
 15 14  1  0
 15 16  1  0
 16 17  2  0
 18 11  1  0
 19 18  2  0
 21 20  1  1
 21 22  1  0
 23 21  1  0
 24 23  1  1
 24 25  1  0
 25 18  1  0
 26 24  1  0
 27 26  1  0
 28 26  2  0
M  END
$$$$
