KHL.pdb
     RDKit          3D

 28 28  0  0  1  0  0  0  0  0999 V2000
    7.7224  -20.7059   23.3336 N   0  0  0  0  0  0  0  0  0  0  0  0
    7.7297  -19.4880   24.1226 C   0  0  1  0  0  0  0  0  0  0  0  0
    8.4471  -19.6750   25.4330 C   0  0  0  0  0  0  0  0  0  0  0  0
    7.5275  -20.3099   26.4270 C   0  0  0  0  0  0  0  0  0  0  0  0
    7.4348  -21.7929   26.2776 C   0  0  0  0  0  0  0  0  0  0  0  0
    7.5765  -22.4826   27.6254 C   0  0  0  0  0  0  0  0  0  0  0  0
    6.3647  -22.2488   28.3779 N   0  0  0  0  0  0  0  0  0  0  0  0
    8.3983  -18.4201   23.3200 C   0  0  0  0  0  0  0  0  0  0  0  0
    9.6144  -18.4363   23.0910 O   0  0  0  0  0  0  0  0  0  0  0  0
    7.6040  -17.3674   22.8148 N   0  0  0  0  0  0  0  0  0  0  0  0
    8.1295  -16.2318   22.0873 C   0  0  1  0  0  0  0  0  0  0  0  0
    7.0817  -15.8392   21.0666 C   0  0  0  0  0  0  0  0  0  0  0  0
    7.4710  -14.6278   20.3168 C   0  0  0  0  0  0  0  0  0  0  0  0
    8.6895  -13.9998   20.4993 C   0  0  0  0  0  0  0  0  0  0  0  0
    8.7500  -12.9390   19.6859 N   0  0  0  0  0  0  0  0  0  0  0  0
    7.6012  -12.8739   18.9888 C   0  0  0  0  0  0  0  0  0  0  0  0
    6.8363  -13.9125   19.3890 N   0  0  0  0  0  0  0  0  0  0  0  0
    8.4221  -15.1451   23.0326 C   0  0  0  0  0  0  0  0  0  0  0  0
    8.3440  -13.9534   22.6306 O   0  0  0  0  0  0  0  0  0  0  0  0
    7.9716  -11.3124   26.2273 C   0  0  0  0  0  0  0  0  0  0  0  0
    7.2699  -12.6202   26.5253 C   0  0  1  0  0  0  0  0  0  0  0  0
    5.7756  -12.2888   26.5991 C   0  0  0  0  0  0  0  0  0  0  0  0
    7.4364  -13.6236   25.4389 C   0  0  0  0  0  0  0  0  0  0  0  0
    8.7358  -14.3650   25.4284 C   0  0  2  0  0  0  0  0  0  0  0  0
    8.7926  -15.3741   24.3923 N   0  0  0  0  0  0  0  0  0  0  0  0
    9.1877  -14.8607   26.7325 C   0  0  0  0  0  0  0  0  0  0  0  0
   10.1984  -14.2439   27.4563 O   0  0  0  0  0  0  0  0  0  0  0  0
    8.6803  -15.8946   27.2888 O   0  0  0  0  0  0  0  0  0  0  0  0
  2  1  1  6
  2  3  1  0
  3  4  1  0
  4  5  1  0
  5  6  1  0
  6  7  1  0
  8  2  1  0
  8  9  2  0
 10  8  1  0
 11 10  1  0
 11 12  1  6
 13 17  1  0
 13 12  1  0
 14 13  2  0
 15 14  1  0
 15 16  1  0
 16 17  2  0
 18 11  1  0
 19 18  2  0
 21 20  1  6
 21 22  1  0
 23 21  1  0
 24 23  1  1
 24 25  1  0
 25 18  1  0
 26 24  1  0
 27 26  1  0
 28 26  2  0
M  END
$$$$
