KHL.pdb
     RDKit          3D

 28 28  0  0  1  0  0  0  0  0999 V2000
    6.3625  -16.1124   19.9736 N   0  0  0  0  0  0  0  0  0  0  0  0
    7.5086  -15.4200   20.5329 C   0  0  1  0  0  0  0  0  0  0  0  0
    7.2287  -13.9558   20.7443 C   0  0  0  0  0  0  0  0  0  0  0  0
    7.1677  -13.2567   19.4236 C   0  0  0  0  0  0  0  0  0  0  0  0
    8.5101  -13.0657   18.7977 C   0  0  0  0  0  0  0  0  0  0  0  0
    8.3898  -12.3280   17.4734 C   0  0  0  0  0  0  0  0  0  0  0  0
    9.7083  -12.2415   16.8873 N   0  0  0  0  0  0  0  0  0  0  0  0
    7.8526  -16.0692   21.8336 C   0  0  0  0  0  0  0  0  0  0  0  0
    6.9825  -16.4824   22.6107 O   0  0  0  0  0  0  0  0  0  0  0  0
    9.2168  -16.2075   22.1715 N   0  0  0  0  0  0  0  0  0  0  0  0
    9.6958  -16.9233   23.3348 C   0  0  1  0  0  0  0  0  0  0  0  0
   11.0666  -17.4644   22.9856 C   0  0  0  0  0  0  0  0  0  0  0  0
   11.6435  -18.2557   24.0913 C   0  0  0  0  0  0  0  0  0  0  0  0
   12.7499  -17.8366   24.8071 C   0  0  0  0  0  0  0  0  0  0  0  0
   13.0329  -18.7579   25.7354 N   0  0  0  0  0  0  0  0  0  0  0  0
   12.1352  -19.7544   25.6302 C   0  0  0  0  0  0  0  0  0  0  0  0
   11.2979  -19.4278   24.6222 N   0  0  0  0  0  0  0  0  0  0  0  0
    9.7336  -16.0080   24.4842 C   0  0  0  0  0  0  0  0  0  0  0  0
   10.3825  -14.9326   24.3826 O   0  0  0  0  0  0  0  0  0  0  0  0
    5.9271  -13.3033   26.8330 C   0  0  0  0  0  0  0  0  0  0  0  0
    7.3015  -13.7775   26.4116 C   0  0  1  0  0  0  0  0  0  0  0  0
    8.2334  -12.5732   26.5841 C   0  0  0  0  0  0  0  0  0  0  0  0
    7.8298  -14.8605   27.2850 C   0  0  0  0  0  0  0  0  0  0  0  0
    9.1544  -15.4315   26.8882 C   0  0  2  0  0  0  0  0  0  0  0  0
    9.0674  -16.2786   25.7177 N   0  0  0  0  0  0  0  0  0  0  0  0
    9.9287  -16.0391   27.9754 C   0  0  0  0  0  0  0  0  0  0  0  0
    9.9625  -17.4092   28.1928 O   0  0  0  0  0  0  0  0  0  0  0  0
   10.6238  -15.3460   28.7953 O   0  0  0  0  0  0  0  0  0  0  0  0
  2  1  1  1
  2  3  1  0
  3  4  1  0
  4  5  1  0
  5  6  1  0
  6  7  1  0
  8  2  1  0
  8  9  2  0
 10  8  1  0
 11 10  1  0
 11 12  1  6
 13 17  1  0
 13 12  1  0
 14 13  2  0
 15 14  1  0
 15 16  1  0
 16 17  2  0
 18 11  1  0
 19 18  2  0
 21 20  1  1
 21 22  1  0
 23 21  1  0
 24 23  1  1
 24 25  1  0
 25 18  1  0
 26 24  1  0
 27 26  1  0
 28 26  2  0
M  END
$$$$
