KHL.pdb
     RDKit          3D

 28 28  0  0  1  0  0  0  0  0999 V2000
    6.7546  -17.0231   20.7683 N   0  0  0  0  0  0  0  0  0  0  0  0
    7.9670  -16.2933   21.0899 C   0  0  1  0  0  0  0  0  0  0  0  0
    7.7392  -14.8051   21.0937 C   0  0  0  0  0  0  0  0  0  0  0  0
    7.5135  -14.3243   19.6956 C   0  0  0  0  0  0  0  0  0  0  0  0
    8.2160  -13.0411   19.3953 C   0  0  0  0  0  0  0  0  0  0  0  0
    7.8636  -12.5443   18.0020 C   0  0  0  0  0  0  0  0  0  0  0  0
    8.6314  -11.3467   17.7458 N   0  0  0  0  0  0  0  0  0  0  0  0
    8.4358  -16.7437   22.4349 C   0  0  0  0  0  0  0  0  0  0  0  0
    7.6474  -16.9782   23.3595 O   0  0  0  0  0  0  0  0  0  0  0  0
    9.8240  -16.9013   22.6406 N   0  0  0  0  0  0  0  0  0  0  0  0
   10.4218  -17.2415   23.9141 C   0  0  1  0  0  0  0  0  0  0  0  0
   11.8363  -17.7012   23.6282 C   0  0  0  0  0  0  0  0  0  0  0  0
   11.8699  -19.0782   23.0951 C   0  0  0  0  0  0  0  0  0  0  0  0
   10.7250  -19.8301   22.9048 C   0  0  0  0  0  0  0  0  0  0  0  0
   11.0746  -21.0251   22.4149 N   0  0  0  0  0  0  0  0  0  0  0  0
   12.4136  -21.0552   22.2875 C   0  0  0  0  0  0  0  0  0  0  0  0
   12.8778  -19.8587   22.7076 N   0  0  0  0  0  0  0  0  0  0  0  0
   10.3848  -16.0657   24.7953 C   0  0  0  0  0  0  0  0  0  0  0  0
   10.5373  -14.9222   24.2882 O   0  0  0  0  0  0  0  0  0  0  0  0
    9.1583  -11.9763   27.3002 C   0  0  0  0  0  0  0  0  0  0  0  0
    8.1467  -13.0961   27.1811 C   0  0  1  0  0  0  0  0  0  0  0  0
    6.9624  -12.5124   26.4032 C   0  0  0  0  0  0  0  0  0  0  0  0
    8.6555  -14.2500   26.3910 C   0  0  0  0  0  0  0  0  0  0  0  0
    9.7428  -15.0523   27.0330 C   0  0  2  0  0  0  0  0  0  0  0  0
   10.1834  -16.1554   26.2059 N   0  0  0  0  0  0  0  0  0  0  0  0
    9.4966  -15.4457   28.4242 C   0  0  0  0  0  0  0  0  0  0  0  0
    8.6747  -16.5107   28.7647 O   0  0  0  0  0  0  0  0  0  0  0  0
   10.0230  -14.8327   29.4156 O   0  0  0  0  0  0  0  0  0  0  0  0
  2  1  1  1
  2  3  1  0
  3  4  1  0
  4  5  1  0
  5  6  1  0
  6  7  1  0
  8  2  1  0
  8  9  2  0
 10  8  1  0
 11 10  1  0
 11 12  1  6
 13 17  1  0
 13 12  1  0
 14 13  2  0
 15 14  1  0
 15 16  1  0
 16 17  2  0
 18 11  1  0
 19 18  2  0
 21 20  1  6
 21 22  1  0
 23 21  1  0
 24 23  1  6
 24 25  1  0
 25 18  1  0
 26 24  1  0
 27 26  1  0
 28 26  2  0
M  END
$$$$
