KHL.pdb
     RDKit          3D

 28 28  0  0  1  0  0  0  0  0999 V2000
    9.7040  -15.9011   17.9646 N   0  0  0  0  0  0  0  0  0  0  0  0
   10.4564  -16.1597   19.1783 C   0  0  1  0  0  0  0  0  0  0  0  0
   11.5152  -15.1154   19.4128 C   0  0  0  0  0  0  0  0  0  0  0  0
   12.7961  -15.5401   18.7680 C   0  0  0  0  0  0  0  0  0  0  0  0
   13.9350  -14.6201   19.0625 C   0  0  0  0  0  0  0  0  0  0  0  0
   15.1619  -14.9997   18.2482 C   0  0  0  0  0  0  0  0  0  0  0  0
   16.1471  -13.9542   18.4084 N   0  0  0  0  0  0  0  0  0  0  0  0
    9.4963  -16.1823   20.3226 C   0  0  0  0  0  0  0  0  0  0  0  0
    8.4971  -15.4527   20.3547 O   0  0  0  0  0  0  0  0  0  0  0  0
    9.7515  -17.0687   21.3919 N   0  0  0  0  0  0  0  0  0  0  0  0
    8.8176  -17.3352   22.4651 C   0  0  1  0  0  0  0  0  0  0  0  0
    9.1348  -18.7193   22.9917 C   0  0  0  0  0  0  0  0  0  0  0  0
    8.3219  -19.0561   24.1780 C   0  0  0  0  0  0  0  0  0  0  0  0
    7.1377  -18.4074   24.4765 C   0  0  0  0  0  0  0  0  0  0  0  0
    6.6365  -18.9287   25.6023 N   0  0  0  0  0  0  0  0  0  0  0  0
    7.4706  -19.8937   26.0301 C   0  0  0  0  0  0  0  0  0  0  0  0
    8.4909  -19.9545   25.1473 N   0  0  0  0  0  0  0  0  0  0  0  0
    8.9595  -16.2993   23.4981 C   0  0  0  0  0  0  0  0  0  0  0  0
   10.0993  -15.8051   23.7095 O   0  0  0  0  0  0  0  0  0  0  0  0
    5.9853  -12.6890   27.1857 C   0  0  0  0  0  0  0  0  0  0  0  0
    7.0122  -12.5830   26.0785 C   0  0  1  0  0  0  0  0  0  0  0  0
    8.3802  -12.6721   26.7634 C   0  0  0  0  0  0  0  0  0  0  0  0
    6.9379  -13.7138   25.1140 C   0  0  0  0  0  0  0  0  0  0  0  0
    7.9732  -14.7813   25.2785 C   0  0  2  0  0  0  0  0  0  0  0  0
    7.8634  -15.8222   24.2787 N   0  0  0  0  0  0  0  0  0  0  0  0
    8.1209  -15.3101   26.6383 C   0  0  0  0  0  0  0  0  0  0  0  0
    9.2390  -15.0572   27.4204 O   0  0  0  0  0  0  0  0  0  0  0  0
    7.2289  -16.0396   27.1932 O   0  0  0  0  0  0  0  0  0  0  0  0
  2  1  1  6
  2  3  1  0
  3  4  1  0
  4  5  1  0
  5  6  1  0
  6  7  1  0
  8  2  1  0
  8  9  2  0
 10  8  1  0
 11 10  1  0
 11 12  1  1
 13 17  1  0
 13 12  1  0
 14 13  2  0
 15 14  1  0
 15 16  1  0
 16 17  2  0
 18 11  1  0
 19 18  2  0
 21 20  1  1
 21 22  1  0
 23 21  1  0
 24 23  1  1
 24 25  1  0
 25 18  1  0
 26 24  1  0
 27 26  1  0
 28 26  2  0
M  END
$$$$
