IST.pdb
     RDKit          3D

 22 21  0  0  1  0  0  0  0  0999 V2000
   26.4931  -13.9587  -15.9826 C   0  0  0  0  0  0  0  0  0  0  0  0
   24.9688  -14.0077  -15.8473 C   0  0  0  0  0  0  0  0  0  0  0  0
   24.3787  -12.6498  -15.9697 C   0  0  2  0  0  0  0  0  0  0  0  0
   25.0493  -11.6524  -15.0416 C   0  0  0  0  0  0  0  0  0  0  0  0
   22.9042  -12.6026  -15.9200 C   0  0  2  0  0  0  0  0  0  0  0  0
   22.4011  -13.5064  -16.9964 N   0  0  0  0  0  0  0  0  0  0  0  0
   22.2051  -11.3503  -16.0865 C   0  0  0  0  0  0  0  0  0  0  0  0
   22.2169  -10.7864  -17.2495 O   0  0  0  0  0  0  0  0  0  0  0  0
   18.7249  -10.4552  -15.4674 O   0  0  0  0  0  0  0  0  0  0  0  0
   19.4248   -9.3861  -14.8887 C   0  0  0  0  0  0  0  0  0  0  0  0
   20.8476   -9.3314  -15.4092 C   0  0  2  0  0  0  0  0  0  0  0  0
   21.4661  -10.6083  -15.1289 N   0  0  0  0  0  0  0  0  0  0  0  0
   21.5831   -8.1638  -14.8986 C   0  0  0  0  0  0  0  0  0  0  0  0
   22.2350   -8.2645  -13.7961 O   0  0  0  0  0  0  0  0  0  0  0  0
   21.7500   -4.0955  -16.6734 C   0  0  0  0  0  0  0  0  0  0  0  0
   22.9108   -4.8146  -16.0198 C   0  0  1  0  0  0  0  0  0  0  0  0
   23.8143   -3.8703  -15.4834 O   0  0  0  0  0  0  0  0  0  0  0  0
   22.4994   -5.8169  -14.9994 C   0  0  2  0  0  0  0  0  0  0  0  0
   21.6606   -6.8851  -15.4983 N   0  0  0  0  0  0  0  0  0  0  0  0
   21.8027   -5.0610  -13.9089 C   0  0  0  0  0  0  0  0  0  0  0  0
   20.5963   -5.2610  -13.6604 O   0  0  0  0  0  0  0  0  0  0  0  0
   22.4862   -4.1237  -13.1569 O   0  0  0  0  0  0  0  0  0  0  0  0
  2  1  1  0
  3  2  1  0
  3  5  1  0
  3  4  1  1
  5  7  1  0
  5  6  1  6
  7 12  1  0
  7  8  2  0
 11 10  1  1
 10  9  1  0
 11 13  1  0
 12 11  1  0
 13 14  2  0
 16 15  1  1
 16 18  1  0
 17 16  1  0
 18 20  1  0
 19 13  1  0
 18 19  1  6
 20 22  1  0
 21 20  2  0
M  END
$$$$
