IST.pdb
     RDKit          3D

 22 21  0  0  1  0  0  0  0  0999 V2000
   17.8885  -14.3225  -15.3567 C   0  0  0  0  0  0  0  0  0  0  0  0
   17.8579  -13.7976  -16.7945 C   0  0  0  0  0  0  0  0  0  0  0  0
   18.3531  -12.3985  -16.8621 C   0  0  2  0  0  0  0  0  0  0  0  0
   19.7946  -12.2823  -16.3989 C   0  0  0  0  0  0  0  0  0  0  0  0
   17.4579  -11.3893  -16.2629 C   0  0  2  0  0  0  0  0  0  0  0  0
   16.1158  -11.5664  -16.8922 N   0  0  0  0  0  0  0  0  0  0  0  0
   17.7676   -9.9827  -16.3641 C   0  0  0  0  0  0  0  0  0  0  0  0
   18.1146   -9.5081  -17.5152 O   0  0  0  0  0  0  0  0  0  0  0  0
   16.3212   -6.9147  -14.1937 O   0  0  0  0  0  0  0  0  0  0  0  0
   16.9412   -6.7391  -15.4397 C   0  0  0  0  0  0  0  0  0  0  0  0
   18.1672   -7.6229  -15.5586 C   0  0  2  0  0  0  0  0  0  0  0  0
   17.7437   -8.9900  -15.3504 N   0  0  0  0  0  0  0  0  0  0  0  0
   19.2629   -7.1761  -14.6841 C   0  0  0  0  0  0  0  0  0  0  0  0
   19.2864   -7.5619  -13.4588 O   0  0  0  0  0  0  0  0  0  0  0  0
   23.0168   -7.8183  -14.3870 C   0  0  0  0  0  0  0  0  0  0  0  0
   22.7572   -6.3323  -14.5135 C   0  0  1  0  0  0  0  0  0  0  0  0
   23.0702   -5.9044  -15.8230 O   0  0  0  0  0  0  0  0  0  0  0  0
   21.3797   -5.9271  -14.1216 C   0  0  2  0  0  0  0  0  0  0  0  0
   20.3402   -6.3325  -15.0427 N   0  0  0  0  0  0  0  0  0  0  0  0
   21.3970   -4.4367  -13.9642 C   0  0  0  0  0  0  0  0  0  0  0  0
   20.7492   -3.7032  -14.7384 O   0  0  0  0  0  0  0  0  0  0  0  0
   22.1352   -3.8457  -12.9559 O   0  0  0  0  0  0  0  0  0  0  0  0
  2  1  1  0
  3  2  1  0
  3  5  1  0
  3  4  1  1
  5  7  1  0
  5  6  1  6
  7 12  1  0
  7  8  2  0
 11 10  1  1
 10  9  1  0
 11 13  1  0
 12 11  1  0
 13 14  2  0
 16 15  1  6
 16 18  1  0
 17 16  1  0
 18 20  1  0
 19 13  1  0
 18 19  1  6
 20 22  1  0
 21 20  2  0
M  END
$$$$
