IST.pdb
     RDKit          3D

 22 21  0  0  1  0  0  0  0  0999 V2000
   16.1456  -11.6868  -18.9410 C   0  0  0  0  0  0  0  0  0  0  0  0
   17.5221  -12.1673  -18.4739 C   0  0  0  0  0  0  0  0  0  0  0  0
   18.0751  -11.2670  -17.4295 C   0  0  2  0  0  0  0  0  0  0  0  0
   18.0461   -9.8111  -17.8601 C   0  0  0  0  0  0  0  0  0  0  0  0
   19.3713  -11.6890  -16.8633 C   0  0  2  0  0  0  0  0  0  0  0  0
   19.1876  -13.0725  -16.3334 N   0  0  0  0  0  0  0  0  0  0  0  0
   19.9892  -10.9300  -15.8017 C   0  0  0  0  0  0  0  0  0  0  0  0
   19.3727  -10.8373  -14.6694 O   0  0  0  0  0  0  0  0  0  0  0  0
   23.8982  -10.2067  -15.2017 O   0  0  0  0  0  0  0  0  0  0  0  0
   22.9637  -10.0175  -14.1726 C   0  0  0  0  0  0  0  0  0  0  0  0
   21.6853   -9.4081  -14.7136 C   0  0  2  0  0  0  0  0  0  0  0  0
   21.2300  -10.2416  -15.8043 N   0  0  0  0  0  0  0  0  0  0  0  0
   21.8456   -7.9846  -15.0497 C   0  0  0  0  0  0  0  0  0  0  0  0
   22.2983   -7.6592  -16.2072 O   0  0  0  0  0  0  0  0  0  0  0  0
   19.5523   -5.2288  -15.9217 C   0  0  0  0  0  0  0  0  0  0  0  0
   20.4152   -4.7550  -14.7716 C   0  0  1  0  0  0  0  0  0  0  0  0
   19.6670   -4.7804  -13.5736 O   0  0  0  0  0  0  0  0  0  0  0  0
   21.6945   -5.5027  -14.6321 C   0  0  2  0  0  0  0  0  0  0  0  0
   21.5523   -6.8808  -14.2152 N   0  0  0  0  0  0  0  0  0  0  0  0
   22.5367   -4.7378  -13.6564 C   0  0  0  0  0  0  0  0  0  0  0  0
   22.8846   -5.2484  -12.5723 O   0  0  0  0  0  0  0  0  0  0  0  0
   22.9433   -3.4474  -13.9404 O   0  0  0  0  0  0  0  0  0  0  0  0
  2  1  1  0
  3  2  1  0
  3  5  1  0
  3  4  1  6
  5  7  1  0
  5  6  1  1
  7 12  1  0
  7  8  2  0
 11 10  1  6
 10  9  1  0
 11 13  1  0
 12 11  1  0
 13 14  2  0
 16 15  1  6
 16 18  1  0
 17 16  1  0
 18 20  1  0
 19 13  1  0
 18 19  1  1
 20 22  1  0
 21 20  2  0
M  END
$$$$
