IST.pdb
     RDKit          3D

 22 21  0  0  1  0  0  0  0  0999 V2000
   19.8164  -11.6989  -21.5207 C   0  0  0  0  0  0  0  0  0  0  0  0
   20.5174  -12.0746  -20.2125 C   0  0  0  0  0  0  0  0  0  0  0  0
   20.2898  -11.0412  -19.1697 C   0  0  2  0  0  0  0  0  0  0  0  0
   20.6017   -9.6439  -19.6759 C   0  0  0  0  0  0  0  0  0  0  0  0
   20.8885  -11.3390  -17.8538 C   0  0  2  0  0  0  0  0  0  0  0  0
   20.3846  -12.6813  -17.4376 N   0  0  0  0  0  0  0  0  0  0  0  0
   20.6650  -10.4592  -16.7309 C   0  0  0  0  0  0  0  0  0  0  0  0
   19.4498  -10.2485  -16.3440 O   0  0  0  0  0  0  0  0  0  0  0  0
   21.3481   -8.5591  -12.5196 O   0  0  0  0  0  0  0  0  0  0  0  0
   21.5962   -9.4527  -13.5720 C   0  0  0  0  0  0  0  0  0  0  0  0
   21.2594   -8.8173  -14.9066 C   0  0  2  0  0  0  0  0  0  0  0  0
   21.6163   -9.7605  -15.9434 N   0  0  0  0  0  0  0  0  0  0  0  0
   21.8581   -7.4815  -15.0545 C   0  0  0  0  0  0  0  0  0  0  0  0
   23.0939   -7.3803  -15.3909 O   0  0  0  0  0  0  0  0  0  0  0  0
   20.6195   -4.2148  -17.1230 C   0  0  0  0  0  0  0  0  0  0  0  0
   20.9972   -3.9173  -15.6876 C   0  0  1  0  0  0  0  0  0  0  0  0
   19.8298   -3.6847  -14.9269 O   0  0  0  0  0  0  0  0  0  0  0  0
   21.8565   -4.9601  -15.0635 C   0  0  2  0  0  0  0  0  0  0  0  0
   21.2112   -6.2389  -14.8591 N   0  0  0  0  0  0  0  0  0  0  0  0
   22.3417   -4.3969  -13.7622 C   0  0  0  0  0  0  0  0  0  0  0  0
   23.0314   -3.3575  -13.7313 O   0  0  0  0  0  0  0  0  0  0  0  0
   22.0341   -5.0222  -12.5683 O   0  0  0  0  0  0  0  0  0  0  0  0
  2  1  1  0
  3  2  1  0
  3  5  1  0
  3  4  1  6
  5  7  1  0
  5  6  1  1
  7 12  1  0
  7  8  2  0
 11 10  1  1
 10  9  1  0
 11 13  1  0
 12 11  1  0
 13 14  2  0
 16 15  1  6
 16 18  1  0
 17 16  1  0
 18 20  1  0
 19 13  1  0
 18 19  1  1
 20 22  1  0
 21 20  2  0
M  END
$$$$
