IST.pdb
     RDKit          3D

 22 21  0  0  1  0  0  0  0  0999 V2000
   17.4625  -11.3693  -17.4988 C   0  0  0  0  0  0  0  0  0  0  0  0
   18.8624  -10.8216  -17.2080 C   0  0  0  0  0  0  0  0  0  0  0  0
   18.8741  -10.0275  -15.9525 C   0  0  2  0  0  0  0  0  0  0  0  0
   17.7238   -9.0379  -15.8947 C   0  0  0  0  0  0  0  0  0  0  0  0
   20.1795   -9.4357  -15.5997 C   0  0  2  0  0  0  0  0  0  0  0  0
   21.1437  -10.5648  -15.4434 N   0  0  0  0  0  0  0  0  0  0  0  0
   20.3188   -8.6206  -14.4161 C   0  0  0  0  0  0  0  0  0  0  0  0
   20.2231   -9.1899  -13.2596 O   0  0  0  0  0  0  0  0  0  0  0  0
   21.8119   -4.7345  -11.9787 O   0  0  0  0  0  0  0  0  0  0  0  0
   21.6919   -5.4544  -13.1767 C   0  0  0  0  0  0  0  0  0  0  0  0
   20.6069   -6.5072  -13.0641 C   0  0  2  0  0  0  0  0  0  0  0  0
   20.5621   -7.2260  -14.3183 N   0  0  0  0  0  0  0  0  0  0  0  0
   19.3207   -5.9376  -12.6327 C   0  0  0  0  0  0  0  0  0  0  0  0
   18.5452   -5.4032  -13.5066 O   0  0  0  0  0  0  0  0  0  0  0  0
   16.3063   -7.2532   -9.9678 C   0  0  0  0  0  0  0  0  0  0  0  0
   16.8938   -5.8750   -9.7509 C   0  0  1  0  0  0  0  0  0  0  0  0
   17.7799   -5.9033   -8.6511 O   0  0  0  0  0  0  0  0  0  0  0  0
   17.5438   -5.3014  -10.9608 C   0  0  2  0  0  0  0  0  0  0  0  0
   18.8123   -5.9015  -11.3133 N   0  0  0  0  0  0  0  0  0  0  0  0
   17.7039   -3.8327  -10.7089 C   0  0  0  0  0  0  0  0  0  0  0  0
   18.8362   -3.3103  -10.6623 O   0  0  0  0  0  0  0  0  0  0  0  0
   16.5959   -3.0277  -10.5212 O   0  0  0  0  0  0  0  0  0  0  0  0
  2  1  1  0
  3  2  1  0
  3  5  1  0
  3  4  1  6
  5  7  1  0
  5  6  1  1
  7 12  1  0
  7  8  2  0
 11 10  1  6
 10  9  1  0
 11 13  1  0
 12 11  1  0
 13 14  2  0
 16 15  1  6
 16 18  1  0
 17 16  1  0
 18 20  1  0
 19 13  1  0
 18 19  1  1
 20 22  1  0
 21 20  2  0
M  END
$$$$
