IST.pdb
     RDKit          3D

 22 21  0  0  1  0  0  0  0  0999 V2000
   21.4661  -13.3990  -18.1756 C   0  0  0  0  0  0  0  0  0  0  0  0
   22.2609  -12.1832  -17.6917 C   0  0  0  0  0  0  0  0  0  0  0  0
   21.4205  -11.3005  -16.8421 C   0  0  2  0  0  0  0  0  0  0  0  0
   20.0903  -10.9772  -17.4992 C   0  0  0  0  0  0  0  0  0  0  0  0
   22.1120  -10.1162  -16.2961 C   0  0  2  0  0  0  0  0  0  0  0  0
   23.3089  -10.6118  -15.5543 N   0  0  0  0  0  0  0  0  0  0  0  0
   21.4265   -9.2163  -15.3989 C   0  0  0  0  0  0  0  0  0  0  0  0
   20.7582   -9.7179  -14.4127 O   0  0  0  0  0  0  0  0  0  0  0  0
   22.1957   -5.2926  -14.6003 O   0  0  0  0  0  0  0  0  0  0  0  0
   21.4055   -6.0877  -13.7570 C   0  0  0  0  0  0  0  0  0  0  0  0
   20.5177   -7.0118  -14.5672 C   0  0  2  0  0  0  0  0  0  0  0  0
   21.3736   -7.7986  -15.4276 N   0  0  0  0  0  0  0  0  0  0  0  0
   19.4441   -6.2846  -15.2624 C   0  0  0  0  0  0  0  0  0  0  0  0
   19.6446   -5.8603  -16.4584 O   0  0  0  0  0  0  0  0  0  0  0  0
   15.2846   -6.9420  -15.5484 C   0  0  0  0  0  0  0  0  0  0  0  0
   15.7486   -5.5682  -15.1136 C   0  0  1  0  0  0  0  0  0  0  0  0
   15.5457   -5.4152  -13.7240 O   0  0  0  0  0  0  0  0  0  0  0  0
   17.1529   -5.2585  -15.4974 C   0  0  2  0  0  0  0  0  0  0  0  0
   18.1615   -5.9786  -14.7506 N   0  0  0  0  0  0  0  0  0  0  0  0
   17.3281   -3.7790  -15.3348 C   0  0  0  0  0  0  0  0  0  0  0  0
   18.1386   -3.3171  -14.5061 O   0  0  0  0  0  0  0  0  0  0  0  0
   16.5909   -2.8962  -16.1017 O   0  0  0  0  0  0  0  0  0  0  0  0
  2  1  1  0
  3  2  1  0
  3  5  1  0
  3  4  1  6
  5  7  1  0
  5  6  1  1
  7 12  1  0
  7  8  2  0
 11 10  1  6
 10  9  1  0
 11 13  1  0
 12 11  1  0
 13 14  2  0
 16 15  1  1
 16 18  1  0
 17 16  1  0
 18 20  1  0
 19 13  1  0
 18 19  1  1
 20 22  1  0
 21 20  2  0
M  END
$$$$
