IST.pdb
     RDKit          3D

 22 21  0  0  1  0  0  0  0  0999 V2000
   20.7215  -12.8897  -17.5999 C   0  0  0  0  0  0  0  0  0  0  0  0
   21.5366  -13.2330  -16.3501 C   0  0  0  0  0  0  0  0  0  0  0  0
   22.7180  -14.0648  -16.6959 C   0  0  2  0  0  0  0  0  0  0  0  0
   22.3390  -15.2671  -17.5424 C   0  0  0  0  0  0  0  0  0  0  0  0
   23.6017  -14.3972  -15.5612 C   0  0  2  0  0  0  0  0  0  0  0  0
   24.1083  -13.1063  -15.0085 N   0  0  0  0  0  0  0  0  0  0  0  0
   24.7617  -15.2344  -15.7566 C   0  0  0  0  0  0  0  0  0  0  0  0
   25.6956  -14.8205  -16.5486 O   0  0  0  0  0  0  0  0  0  0  0  0
   27.5364  -19.1158  -14.6971 O   0  0  0  0  0  0  0  0  0  0  0  0
   26.4075  -18.3246  -14.4380 C   0  0  0  0  0  0  0  0  0  0  0  0
   26.2242  -17.2796  -15.5210 C   0  0  2  0  0  0  0  0  0  0  0  0
   25.0545  -16.4989  -15.1832 N   0  0  0  0  0  0  0  0  0  0  0  0
   26.2037  -17.8711  -16.8680 C   0  0  0  0  0  0  0  0  0  0  0  0
   25.1318  -18.4415  -17.2878 O   0  0  0  0  0  0  0  0  0  0  0  0
   28.0580  -18.7600  -21.4341 C   0  0  0  0  0  0  0  0  0  0  0  0
   28.2348  -18.1451  -20.0621 C   0  0  1  0  0  0  0  0  0  0  0  0
   28.2999  -16.7386  -20.1759 O   0  0  0  0  0  0  0  0  0  0  0  0
   27.2013  -18.5657  -19.0771 C   0  0  2  0  0  0  0  0  0  0  0  0
   27.2693  -17.8928  -17.7980 N   0  0  0  0  0  0  0  0  0  0  0  0
   27.3471  -20.0473  -18.9051 C   0  0  0  0  0  0  0  0  0  0  0  0
   28.0185  -20.5203  -17.9656 O   0  0  0  0  0  0  0  0  0  0  0  0
   26.7396  -20.9198  -19.7887 O   0  0  0  0  0  0  0  0  0  0  0  0
  2  1  1  0
  3  2  1  0
  3  5  1  0
  3  4  1  1
  5  7  1  0
  5  6  1  6
  7 12  1  0
  7  8  2  0
 11 10  1  1
 10  9  1  0
 11 13  1  0
 12 11  1  0
 13 14  2  0
 16 15  1  6
 16 18  1  0
 17 16  1  0
 18 20  1  0
 19 13  1  0
 18 19  1  1
 20 22  1  0
 21 20  2  0
M  END
$$$$
