IST.pdb
     RDKit          3D

 22 21  0  0  1  0  0  0  0  0999 V2000
   21.4788  -14.2997  -18.7838 C   0  0  0  0  0  0  0  0  0  0  0  0
   20.4598  -13.9189  -17.7065 C   0  0  0  0  0  0  0  0  0  0  0  0
   20.3462  -12.4432  -17.5778 C   0  0  2  0  0  0  0  0  0  0  0  0
   21.7059  -11.7745  -17.4788 C   0  0  0  0  0  0  0  0  0  0  0  0
   19.3841  -11.9770  -16.5600 C   0  0  2  0  0  0  0  0  0  0  0  0
   18.0628  -12.5854  -16.8959 N   0  0  0  0  0  0  0  0  0  0  0  0
   19.1417  -10.5661  -16.3726 C   0  0  0  0  0  0  0  0  0  0  0  0
   18.9599   -9.8267  -17.4171 O   0  0  0  0  0  0  0  0  0  0  0  0
   16.6152   -8.7495  -14.6957 O   0  0  0  0  0  0  0  0  0  0  0  0
   17.7478   -8.0485  -14.2557 C   0  0  0  0  0  0  0  0  0  0  0  0
   18.9541   -8.3875  -15.1092 C   0  0  2  0  0  0  0  0  0  0  0  0
   19.0618   -9.8288  -15.1628 N   0  0  0  0  0  0  0  0  0  0  0  0
   20.1699   -7.6940  -14.6558 C   0  0  0  0  0  0  0  0  0  0  0  0
   20.8644   -8.2019  -13.7016 O   0  0  0  0  0  0  0  0  0  0  0  0
   23.4290   -6.7733  -16.6209 C   0  0  0  0  0  0  0  0  0  0  0  0
   22.8756   -5.5730  -15.8830 C   0  0  1  0  0  0  0  0  0  0  0  0
   22.2540   -4.6960  -16.7997 O   0  0  0  0  0  0  0  0  0  0  0  0
   21.9637   -5.9252  -14.7606 C   0  0  2  0  0  0  0  0  0  0  0  0
   20.6891   -6.4797  -15.1624 N   0  0  0  0  0  0  0  0  0  0  0  0
   21.7684   -4.6762  -13.9556 C   0  0  0  0  0  0  0  0  0  0  0  0
   22.7260   -4.1412  -13.3607 O   0  0  0  0  0  0  0  0  0  0  0  0
   20.5189   -4.0934  -13.8558 O   0  0  0  0  0  0  0  0  0  0  0  0
  2  1  1  0
  3  2  1  0
  3  5  1  0
  3  4  1  1
  5  7  1  0
  5  6  1  6
  7 12  1  0
  7  8  2  0
 11 10  1  1
 10  9  1  0
 11 13  1  0
 12 11  1  0
 13 14  2  0
 16 15  1  6
 16 18  1  0
 17 16  1  0
 18 20  1  0
 19 13  1  0
 18 19  1  6
 20 22  1  0
 21 20  2  0
M  END
$$$$
