IST.pdb
     RDKit          3D

 22 21  0  0  1  0  0  0  0  0999 V2000
   16.3966  -14.4197  -17.9045 C   0  0  0  0  0  0  0  0  0  0  0  0
   17.8443  -13.9430  -17.7598 C   0  0  0  0  0  0  0  0  0  0  0  0
   17.9176  -12.6988  -16.9512 C   0  0  2  0  0  0  0  0  0  0  0  0
   16.9401  -11.6445  -17.4397 C   0  0  0  0  0  0  0  0  0  0  0  0
   19.2809  -12.1797  -16.7257 C   0  0  2  0  0  0  0  0  0  0  0  0
   20.0734  -13.2848  -16.1096 N   0  0  0  0  0  0  0  0  0  0  0  0
   19.4949  -11.0189  -15.8942 C   0  0  0  0  0  0  0  0  0  0  0  0
   19.0393  -11.0334  -14.6846 O   0  0  0  0  0  0  0  0  0  0  0  0
   21.7698   -7.1737  -14.2800 O   0  0  0  0  0  0  0  0  0  0  0  0
   21.6579   -8.3156  -15.0871 C   0  0  0  0  0  0  0  0  0  0  0  0
   20.2018   -8.6613  -15.3293 C   0  0  2  0  0  0  0  0  0  0  0  0
   20.1644   -9.8082  -16.2096 N   0  0  0  0  0  0  0  0  0  0  0  0
   19.4237   -7.5017  -15.7928 C   0  0  0  0  0  0  0  0  0  0  0  0
   19.5488   -7.1062  -17.0088 O   0  0  0  0  0  0  0  0  0  0  0  0
   15.4566   -6.5466  -15.6501 C   0  0  0  0  0  0  0  0  0  0  0  0
   16.3782   -5.4885  -15.0820 C   0  0  1  0  0  0  0  0  0  0  0  0
   16.3030   -5.4997  -13.6713 O   0  0  0  0  0  0  0  0  0  0  0  0
   17.7852   -5.6002  -15.5543 C   0  0  2  0  0  0  0  0  0  0  0  0
   18.5166   -6.7321  -15.0277 N   0  0  0  0  0  0  0  0  0  0  0  0
   18.4650   -4.3146  -15.1920 C   0  0  0  0  0  0  0  0  0  0  0  0
   18.0958   -3.2319  -15.6907 O   0  0  0  0  0  0  0  0  0  0  0  0
   19.5184   -4.3053  -14.2968 O   0  0  0  0  0  0  0  0  0  0  0  0
  2  1  1  0
  3  2  1  0
  3  5  1  0
  3  4  1  6
  5  7  1  0
  5  6  1  1
  7 12  1  0
  7  8  2  0
 11 10  1  6
 10  9  1  0
 11 13  1  0
 12 11  1  0
 13 14  2  0
 16 15  1  6
 16 18  1  0
 17 16  1  0
 18 20  1  0
 19 13  1  0
 18 19  1  1
 20 22  1  0
 21 20  2  0
M  END
$$$$
