IST.pdb
     RDKit          3D

 22 21  0  0  1  0  0  0  0  0999 V2000
   28.7953  -19.8943   -3.4672 C   0  0  0  0  0  0  0  0  0  0  0  0
   28.1828  -19.1316   -4.6450 C   0  0  0  0  0  0  0  0  0  0  0  0
   28.0626  -20.0046   -5.8410 C   0  0  2  0  0  0  0  0  0  0  0  0
   29.3360  -20.7894   -6.1027 C   0  0  0  0  0  0  0  0  0  0  0  0
   27.5187  -19.3446   -7.0441 C   0  0  2  0  0  0  0  0  0  0  0  0
   26.3244  -18.5607   -6.6109 N   0  0  0  0  0  0  0  0  0  0  0  0
   27.0957  -20.1273   -8.1813 C   0  0  0  0  0  0  0  0  0  0  0  0
   27.9739  -20.8522   -8.7931 O   0  0  0  0  0  0  0  0  0  0  0  0
   23.2309  -20.2674   -9.9458 O   0  0  0  0  0  0  0  0  0  0  0  0
   24.0665  -21.3940   -9.9235 C   0  0  0  0  0  0  0  0  0  0  0  0
   25.5248  -20.9817   -9.9645 C   0  0  2  0  0  0  0  0  0  0  0  0
   25.8033  -20.2358   -8.7571 N   0  0  0  0  0  0  0  0  0  0  0  0
   25.8722  -20.2864  -11.2137 C   0  0  0  0  0  0  0  0  0  0  0  0
   25.7446  -19.0096  -11.2788 O   0  0  0  0  0  0  0  0  0  0  0  0
   28.8047  -21.3604  -14.0086 C   0  0  0  0  0  0  0  0  0  0  0  0
   28.0960  -20.0247  -13.9350 C   0  0  1  0  0  0  0  0  0  0  0  0
   28.3053  -19.3083  -15.1344 O   0  0  0  0  0  0  0  0  0  0  0  0
   26.6478  -20.1297  -13.6077 C   0  0  2  0  0  0  0  0  0  0  0  0
   26.3475  -20.8789  -12.4069 N   0  0  0  0  0  0  0  0  0  0  0  0
   25.9803  -20.7474  -14.7989 C   0  0  0  0  0  0  0  0  0  0  0  0
   25.3279  -21.8056  -14.6908 O   0  0  0  0  0  0  0  0  0  0  0  0
   26.0771  -20.1545  -16.0440 O   0  0  0  0  0  0  0  0  0  0  0  0
  2  1  1  0
  3  2  1  0
  3  5  1  0
  3  4  1  6
  5  7  1  0
  5  6  1  1
  7 12  1  0
  7  8  2  0
 11 10  1  6
 10  9  1  0
 11 13  1  0
 12 11  1  0
 13 14  2  0
 16 15  1  6
 16 18  1  0
 17 16  1  0
 18 20  1  0
 19 13  1  0
 18 19  1  1
 20 22  1  0
 21 20  2  0
M  END
$$$$
