IST.pdb
     RDKit          3D

 22 21  0  0  1  0  0  0  0  0999 V2000
   11.9477  -14.9272  -11.8348 C   0  0  0  0  0  0  0  0  0  0  0  0
   13.3244  -14.6874  -12.4602 C   0  0  0  0  0  0  0  0  0  0  0  0
   13.9780  -13.4917  -11.8682 C   0  0  2  0  0  0  0  0  0  0  0  0
   13.0582  -12.2836  -11.8653 C   0  0  0  0  0  0  0  0  0  0  0  0
   15.3314  -13.2014  -12.3808 C   0  0  2  0  0  0  0  0  0  0  0  0
   16.1713  -14.4043  -12.1046 N   0  0  0  0  0  0  0  0  0  0  0  0
   16.0757  -12.0681  -11.8843 C   0  0  0  0  0  0  0  0  0  0  0  0
   16.5970  -12.1411  -10.7037 O   0  0  0  0  0  0  0  0  0  0  0  0
   19.0071   -8.3674  -12.2555 O   0  0  0  0  0  0  0  0  0  0  0  0
   18.1799   -9.3331  -12.8479 C   0  0  0  0  0  0  0  0  0  0  0  0
   17.0741   -9.7486  -11.8977 C   0  0  2  0  0  0  0  0  0  0  0  0
   16.3429  -10.8291  -12.5220 N   0  0  0  0  0  0  0  0  0  0  0  0
   16.2472   -8.6082  -11.4727 C   0  0  0  0  0  0  0  0  0  0  0  0
   15.2305   -8.2702  -12.1818 O   0  0  0  0  0  0  0  0  0  0  0  0
   14.5651   -7.4038   -7.7818 C   0  0  0  0  0  0  0  0  0  0  0  0
   15.4728   -6.4350   -8.5091 C   0  0  1  0  0  0  0  0  0  0  0  0
   16.7423   -6.4159   -7.8895 O   0  0  0  0  0  0  0  0  0  0  0  0
   15.5826   -6.6954   -9.9704 C   0  0  2  0  0  0  0  0  0  0  0  0
   16.4458   -7.7998  -10.3291 N   0  0  0  0  0  0  0  0  0  0  0  0
   16.0607   -5.4224  -10.6005 C   0  0  0  0  0  0  0  0  0  0  0  0
   17.1644   -5.3695  -11.1801 O   0  0  0  0  0  0  0  0  0  0  0  0
   15.2851   -4.2792  -10.5491 O   0  0  0  0  0  0  0  0  0  0  0  0
  2  1  1  0
  3  2  1  0
  3  5  1  0
  3  4  1  6
  5  7  1  0
  5  6  1  1
  7 12  1  0
  7  8  2  0
 11 10  1  6
 10  9  1  0
 11 13  1  0
 12 11  1  0
 13 14  2  0
 16 15  1  1
 16 18  1  0
 17 16  1  0
 18 20  1  0
 19 13  1  0
 18 19  1  1
 20 22  1  0
 21 20  2  0
M  END
$$$$
