HRG.pdb
     RDKit          3D

 26 26  0  0  1  0  0  0  0  0999 V2000
   26.0749  -22.4895  -19.3987 N   0  0  0  0  0  0  0  0  0  0  0  0
   25.9381  -21.1812  -18.7946 C   0  0  1  0  0  0  0  0  0  0  0  0
   24.8599  -20.4471  -19.5205 C   0  0  0  0  0  0  0  0  0  0  0  0
   25.4924  -19.8556  -20.7494 C   0  0  0  0  0  0  0  0  0  0  0  0
   26.8530  -19.7499  -21.0083 C   0  0  0  0  0  0  0  0  0  0  0  0
   27.0162  -19.1704  -22.1988 N   0  0  0  0  0  0  0  0  0  0  0  0
   25.8073  -18.8984  -22.7169 C   0  0  0  0  0  0  0  0  0  0  0  0
   24.8899  -19.3210  -21.8236 N   0  0  0  0  0  0  0  0  0  0  0  0
   25.7674  -21.2686  -17.3403 C   0  0  0  0  0  0  0  0  0  0  0  0
   24.8007  -21.9419  -16.8771 O   0  0  0  0  0  0  0  0  0  0  0  0
   30.8099  -22.0716  -10.9640 N   0  0  0  0  0  0  0  0  0  0  0  0
   29.6698  -21.6558  -10.2115 C   0  0  0  0  0  0  0  0  0  0  0  0
   29.7010  -21.7500   -8.9287 N   0  0  0  0  0  0  0  0  0  0  0  0
   28.5106  -21.1428  -10.8574 N   0  0  0  0  0  0  0  0  0  0  0  0
   28.5593  -20.7743  -12.2574 C   0  0  0  0  0  0  0  0  0  0  0  0
   27.2348  -20.1532  -12.7165 C   0  0  0  0  0  0  0  0  0  0  0  0
   27.3764  -19.8828  -14.1815 C   0  0  0  0  0  0  0  0  0  0  0  0
   26.2616  -20.4276  -15.0176 C   0  0  2  0  0  0  0  0  0  0  0  0
   26.6156  -20.6470  -16.3929 N   0  0  0  0  0  0  0  0  0  0  0  0
   25.1153  -19.5097  -14.9401 C   0  0  0  0  0  0  0  0  0  0  0  0
   25.1537  -18.4198  -15.5602 O   0  0  0  0  0  0  0  0  0  0  0  0
   28.9423  -21.4686   -8.2917 N   0  0  0  0  0  0  0  0  0  0  0  0
   23.9398  -19.7744  -14.1963 C   0  0  0  0  0  0  0  0  0  0  0  0
   23.8635  -20.8278  -13.2015 C   0  0  0  0  0  0  0  0  0  0  0  0
   22.5441  -20.8594  -12.5389 O   0  0  0  0  0  0  0  0  0  0  0  0
   22.2172  -21.7596  -11.5404 O   0  0  0  0  0  0  0  0  0  0  0  0
  2  1  1  6
  3  2  1  0
  4  3  1  0
  5  4  2  0
  6  7  1  0
  6  5  1  0
  7  8  2  0
  8  4  1  0
  9 10  2  0
  9  2  1  0
 11 12  1  0
 12 14  1  0
 13 12  2  0
 14 15  1  0
 16 15  1  0
 17 16  1  0
 18 19  1  0
 18 17  1  1
 19  9  1  0
 20 18  1  0
 21 20  2  0
 22 20  1  0
 23 22  1  0
 24 25  1  0
 24 23  1  0
 26 24  2  0
M  END
$$$$
