HRG.pdb
     RDKit          3D

 26 26  0  0  1  0  0  0  0  0999 V2000
   25.0401  -20.9096  -10.7935 N   0  0  0  0  0  0  0  0  0  0  0  0
   24.7112  -20.8133  -12.2000 C   0  0  1  0  0  0  0  0  0  0  0  0
   23.4961  -19.9564  -12.3331 C   0  0  0  0  0  0  0  0  0  0  0  0
   22.3344  -20.8854  -12.5502 C   0  0  0  0  0  0  0  0  0  0  0  0
   21.1862  -20.9675  -11.7728 C   0  0  0  0  0  0  0  0  0  0  0  0
   20.3915  -21.9087  -12.2848 N   0  0  0  0  0  0  0  0  0  0  0  0
   20.9877  -22.4370  -13.3662 C   0  0  0  0  0  0  0  0  0  0  0  0
   22.1691  -21.8043  -13.5151 N   0  0  0  0  0  0  0  0  0  0  0  0
   25.8657  -20.3928  -13.0012 C   0  0  0  0  0  0  0  0  0  0  0  0
   26.4676  -19.3229  -12.6924 O   0  0  0  0  0  0  0  0  0  0  0  0
   31.2900  -24.9616  -17.5844 N   0  0  0  0  0  0  0  0  0  0  0  0
   30.8043  -24.5975  -16.2919 C   0  0  0  0  0  0  0  0  0  0  0  0
   31.0285  -25.3826  -15.2975 N   0  0  0  0  0  0  0  0  0  0  0  0
   30.0826  -23.3878  -16.0922 N   0  0  0  0  0  0  0  0  0  0  0  0
   29.8504  -22.4862  -17.2018 C   0  0  0  0  0  0  0  0  0  0  0  0
   29.1085  -21.2235  -16.7479 C   0  0  0  0  0  0  0  0  0  0  0  0
   27.9659  -21.6831  -15.8979 C   0  0  0  0  0  0  0  0  0  0  0  0
   27.4882  -20.6673  -14.9087 C   0  0  2  0  0  0  0  0  0  0  0  0
   26.3717  -21.1032  -14.1160 N   0  0  0  0  0  0  0  0  0  0  0  0
   27.1364  -19.4326  -15.6257 C   0  0  0  0  0  0  0  0  0  0  0  0
   26.0610  -19.3772  -16.2694 O   0  0  0  0  0  0  0  0  0  0  0  0
   30.7388  -25.2099  -14.3245 N   0  0  0  0  0  0  0  0  0  0  0  0
   27.9455  -18.2706  -15.6424 C   0  0  0  0  0  0  0  0  0  0  0  0
   27.5337  -17.0393  -16.2902 C   0  0  0  0  0  0  0  0  0  0  0  0
   27.8767  -17.0361  -17.7265 O   0  0  0  0  0  0  0  0  0  0  0  0
   27.7744  -15.9138  -18.5292 O   0  0  0  0  0  0  0  0  0  0  0  0
  2  1  1  1
  3  2  1  0
  4  3  1  0
  5  4  2  0
  6  7  1  0
  6  5  1  0
  7  8  2  0
  8  4  1  0
  9 10  2  0
  9  2  1  0
 11 12  1  0
 12 14  1  0
 13 12  2  0
 14 15  1  0
 16 15  1  0
 17 16  1  0
 18 19  1  0
 18 17  1  6
 19  9  1  0
 20 18  1  0
 21 20  2  0
 22 20  1  0
 23 22  1  0
 24 25  1  0
 24 23  1  0
 26 24  2  0
M  END
$$$$
