HRG.pdb
     RDKit          3D

 26 26  0  0  1  0  0  0  0  0999 V2000
   28.8067  -21.0475  -17.6181 N   0  0  0  0  0  0  0  0  0  0  0  0
   28.0926  -20.0735  -16.8200 C   0  0  1  0  0  0  0  0  0  0  0  0
   27.3350  -19.1821  -17.7473 C   0  0  0  0  0  0  0  0  0  0  0  0
   28.3331  -18.2261  -18.3386 C   0  0  0  0  0  0  0  0  0  0  0  0
   28.5207  -16.8987  -17.9750 C   0  0  0  0  0  0  0  0  0  0  0  0
   29.4962  -16.3851  -18.7263 N   0  0  0  0  0  0  0  0  0  0  0  0
   29.9444  -17.3358  -19.5625 C   0  0  0  0  0  0  0  0  0  0  0  0
   29.2271  -18.4504  -19.3149 N   0  0  0  0  0  0  0  0  0  0  0  0
   27.2915  -20.7124  -15.7704 C   0  0  0  0  0  0  0  0  0  0  0  0
   26.5539  -21.6947  -16.0760 O   0  0  0  0  0  0  0  0  0  0  0  0
   22.2602  -19.7367   -9.8415 N   0  0  0  0  0  0  0  0  0  0  0  0
   22.8677  -20.8419   -9.1718 C   0  0  0  0  0  0  0  0  0  0  0  0
   22.2916  -21.3343   -8.1321 N   0  0  0  0  0  0  0  0  0  0  0  0
   24.0910  -21.4002   -9.6365 N   0  0  0  0  0  0  0  0  0  0  0  0
   24.7754  -20.8137  -10.7703 C   0  0  0  0  0  0  0  0  0  0  0  0
   26.1487  -21.4601  -10.9875 C   0  0  0  0  0  0  0  0  0  0  0  0
   26.8548  -20.6268  -12.0106 C   0  0  0  0  0  0  0  0  0  0  0  0
   26.4062  -20.8698  -13.4171 C   0  0  2  0  0  0  0  0  0  0  0  0
   27.2770  -20.3096  -14.4135 N   0  0  0  0  0  0  0  0  0  0  0  0
   25.0484  -20.3304  -13.5841 C   0  0  0  0  0  0  0  0  0  0  0  0
   24.8348  -19.1148  -13.3594 O   0  0  0  0  0  0  0  0  0  0  0  0
   22.6420  -22.1268   -7.5755 N   0  0  0  0  0  0  0  0  0  0  0  0
   23.9349  -21.1047  -13.9913 C   0  0  0  0  0  0  0  0  0  0  0  0
   22.6014  -20.5486  -14.1245 C   0  0  0  0  0  0  0  0  0  0  0  0
   21.6042  -21.3327  -13.3686 O   0  0  0  0  0  0  0  0  0  0  0  0
   20.2739  -20.9679  -13.2616 O   0  0  0  0  0  0  0  0  0  0  0  0
  2  1  1  6
  3  2  1  0
  4  3  1  0
  5  4  2  0
  6  7  1  0
  6  5  1  0
  7  8  2  0
  8  4  1  0
  9 10  2  0
  9  2  1  0
 11 12  1  0
 12 14  1  0
 13 12  2  0
 14 15  1  0
 16 15  1  0
 17 16  1  0
 18 19  1  0
 18 17  1  1
 19  9  1  0
 20 18  1  0
 21 20  2  0
 22 20  1  0
 23 22  1  0
 24 25  1  0
 24 23  1  0
 26 24  2  0
M  END
$$$$
