HRG.pdb
     RDKit          3D

 26 26  0  0  1  0  0  0  0  0999 V2000
   25.1026  -23.2782  -20.5273 N   0  0  0  0  0  0  0  0  0  0  0  0
   23.7004  -22.9235  -20.5866 C   0  0  1  0  0  0  0  0  0  0  0  0
   22.9121  -24.1804  -20.7517 C   0  0  0  0  0  0  0  0  0  0  0  0
   23.1674  -24.6695  -22.1501 C   0  0  0  0  0  0  0  0  0  0  0  0
   22.5243  -24.2420  -23.3047 C   0  0  0  0  0  0  0  0  0  0  0  0
   23.0270  -24.9097  -24.3444 N   0  0  0  0  0  0  0  0  0  0  0  0
   23.9727  -25.7537  -23.9002 C   0  0  0  0  0  0  0  0  0  0  0  0
   24.0468  -25.5962  -22.5630 N   0  0  0  0  0  0  0  0  0  0  0  0
   23.3044  -22.0793  -19.4543 C   0  0  0  0  0  0  0  0  0  0  0  0
   23.7250  -22.3715  -18.2967 O   0  0  0  0  0  0  0  0  0  0  0  0
   18.3665  -15.1844  -17.9569 N   0  0  0  0  0  0  0  0  0  0  0  0
   19.5292  -14.7182  -17.2714 C   0  0  0  0  0  0  0  0  0  0  0  0
   19.4802  -13.5884  -16.6577 N   0  0  0  0  0  0  0  0  0  0  0  0
   20.7298  -15.4813  -17.2584 N   0  0  0  0  0  0  0  0  0  0  0  0
   20.9809  -16.4624  -18.2941 C   0  0  0  0  0  0  0  0  0  0  0  0
   21.3383  -17.8272  -17.6938 C   0  0  0  0  0  0  0  0  0  0  0  0
   21.6586  -18.7282  -18.8449 C   0  0  0  0  0  0  0  0  0  0  0  0
   22.1325  -20.0901  -18.4461 C   0  0  2  0  0  0  0  0  0  0  0  0
   22.4717  -20.9391  -19.5548 N   0  0  0  0  0  0  0  0  0  0  0  0
   21.0956  -20.7344  -17.6262 C   0  0  0  0  0  0  0  0  0  0  0  0
   20.1422  -21.3250  -18.1883 O   0  0  0  0  0  0  0  0  0  0  0  0
   20.2816  -13.1129  -16.2193 N   0  0  0  0  0  0  0  0  0  0  0  0
   21.0956  -20.7364  -16.2101 C   0  0  0  0  0  0  0  0  0  0  0  0
   19.9997  -21.2771  -15.4281 C   0  0  0  0  0  0  0  0  0  0  0  0
   20.2282  -21.1105  -13.9786 O   0  0  0  0  0  0  0  0  0  0  0  0
   19.2631  -21.3730  -13.0226 O   0  0  0  0  0  0  0  0  0  0  0  0
  2  1  1  1
  3  2  1  0
  4  3  1  0
  5  4  2  0
  6  7  1  0
  6  5  1  0
  7  8  2  0
  8  4  1  0
  9 10  2  0
  9  2  1  0
 11 12  1  0
 12 14  1  0
 13 12  2  0
 14 15  1  0
 16 15  1  0
 17 16  1  0
 18 19  1  0
 18 17  1  6
 19  9  1  0
 20 18  1  0
 21 20  2  0
 22 20  1  0
 23 22  1  0
 24 25  1  0
 24 23  1  0
 26 24  2  0
M  END
$$$$
