HRG.pdb
     RDKit          3D

 26 26  0  0  1  0  0  0  0  0999 V2000
   24.8066  -18.2729  -16.3317 N   0  0  0  0  0  0  0  0  0  0  0  0
   23.7702  -19.2747  -16.1980 C   0  0  1  0  0  0  0  0  0  0  0  0
   22.5820  -18.8177  -16.9776 C   0  0  0  0  0  0  0  0  0  0  0  0
   22.1318  -17.5234  -16.3594 C   0  0  0  0  0  0  0  0  0  0  0  0
   21.0648  -17.3524  -15.4866 C   0  0  0  0  0  0  0  0  0  0  0  0
   20.9850  -16.0616  -15.1593 N   0  0  0  0  0  0  0  0  0  0  0  0
   21.9641  -15.3937  -15.7912 C   0  0  0  0  0  0  0  0  0  0  0  0
   22.6536  -16.2965  -16.5177 N   0  0  0  0  0  0  0  0  0  0  0  0
   24.2625  -20.6150  -16.5336 C   0  0  0  0  0  0  0  0  0  0  0  0
   23.4859  -21.4223  -17.1232 O   0  0  0  0  0  0  0  0  0  0  0  0
   32.2120  -24.6352  -15.7183 N   0  0  0  0  0  0  0  0  0  0  0  0
   31.3922  -25.6064  -16.3693 C   0  0  0  0  0  0  0  0  0  0  0  0
   31.9131  -26.7305  -16.7161 N   0  0  0  0  0  0  0  0  0  0  0  0
   30.0187  -25.3485  -16.6357 N   0  0  0  0  0  0  0  0  0  0  0  0
   29.4383  -24.0662  -16.2936 C   0  0  0  0  0  0  0  0  0  0  0  0
   27.9385  -24.0311  -16.6103 C   0  0  0  0  0  0  0  0  0  0  0  0
   27.4715  -22.6421  -16.3071 C   0  0  0  0  0  0  0  0  0  0  0  0
   25.9978  -22.4402  -16.4681 C   0  0  2  0  0  0  0  0  0  0  0  0
   25.5649  -21.0883  -16.2449 N   0  0  0  0  0  0  0  0  0  0  0  0
   25.2897  -23.3462  -15.5514 C   0  0  0  0  0  0  0  0  0  0  0  0
   25.1238  -23.0083  -14.3547 O   0  0  0  0  0  0  0  0  0  0  0  0
   31.4321  -27.4730  -17.2433 N   0  0  0  0  0  0  0  0  0  0  0  0
   24.7675  -24.6062  -15.9322 C   0  0  0  0  0  0  0  0  0  0  0  0
   24.1960  -25.5376  -14.9776 C   0  0  0  0  0  0  0  0  0  0  0  0
   22.7229  -25.5804  -15.0706 O   0  0  0  0  0  0  0  0  0  0  0  0
   21.9419  -26.4661  -14.3496 O   0  0  0  0  0  0  0  0  0  0  0  0
  2  1  1  6
  3  2  1  0
  4  3  1  0
  5  4  2  0
  6  7  1  0
  6  5  1  0
  7  8  2  0
  8  4  1  0
  9 10  2  0
  9  2  1  0
 11 12  1  0
 12 14  1  0
 13 12  2  0
 14 15  1  0
 16 15  1  0
 17 16  1  0
 18 19  1  0
 18 17  1  1
 19  9  1  0
 20 18  1  0
 21 20  2  0
 22 20  1  0
 23 22  1  0
 24 25  1  0
 24 23  1  0
 26 24  2  0
M  END
$$$$
