HRG.pdb
     RDKit          3D

 26 26  0  0  1  0  0  0  0  0999 V2000
   22.8636  -16.3778  -18.0896 N   0  0  0  0  0  0  0  0  0  0  0  0
   23.4984  -17.5994  -18.5371 C   0  0  1  0  0  0  0  0  0  0  0  0
   24.9170  -17.2848  -18.8792 C   0  0  0  0  0  0  0  0  0  0  0  0
   24.8792  -16.2286  -19.9483 C   0  0  0  0  0  0  0  0  0  0  0  0
   24.7066  -14.8640  -19.7551 C   0  0  0  0  0  0  0  0  0  0  0  0
   24.7307  -14.2590  -20.9438 N   0  0  0  0  0  0  0  0  0  0  0  0
   24.9128  -15.1868  -21.8977 C   0  0  0  0  0  0  0  0  0  0  0  0
   25.0014  -16.3805  -21.2767 N   0  0  0  0  0  0  0  0  0  0  0  0
   23.3127  -18.6924  -17.5766 C   0  0  0  0  0  0  0  0  0  0  0  0
   23.7770  -19.8368  -17.8547 O   0  0  0  0  0  0  0  0  0  0  0  0
   22.0767  -19.9143   -9.0232 N   0  0  0  0  0  0  0  0  0  0  0  0
   23.0444  -20.8583   -9.4831 C   0  0  0  0  0  0  0  0  0  0  0  0
   23.8197  -21.4243   -8.6264 N   0  0  0  0  0  0  0  0  0  0  0  0
   23.1599  -21.1782  -10.8646 N   0  0  0  0  0  0  0  0  0  0  0  0
   23.1127  -20.1288  -11.8619 C   0  0  0  0  0  0  0  0  0  0  0  0
   23.3579  -20.6861  -13.2691 C   0  0  0  0  0  0  0  0  0  0  0  0
   23.3956  -19.5093  -14.1927 C   0  0  0  0  0  0  0  0  0  0  0  0
   22.5017  -19.6354  -15.3859 C   0  0  2  0  0  0  0  0  0  0  0  0
   22.6415  -18.5672  -16.3368 N   0  0  0  0  0  0  0  0  0  0  0  0
   21.1060  -19.7147  -14.9294 C   0  0  0  0  0  0  0  0  0  0  0  0
   20.4705  -18.6578  -14.6995 O   0  0  0  0  0  0  0  0  0  0  0  0
   24.5462  -22.1197   -8.8480 N   0  0  0  0  0  0  0  0  0  0  0  0
   20.4091  -20.9303  -14.7253 C   0  0  0  0  0  0  0  0  0  0  0  0
   19.0142  -20.9758  -14.3284 C   0  0  0  0  0  0  0  0  0  0  0  0
   18.5351  -22.3640  -14.1732 O   0  0  0  0  0  0  0  0  0  0  0  0
   17.2565  -22.6834  -13.7520 O   0  0  0  0  0  0  0  0  0  0  0  0
  2  1  1  1
  3  2  1  0
  4  3  1  0
  5  4  2  0
  6  7  1  0
  6  5  1  0
  7  8  2  0
  8  4  1  0
  9 10  2  0
  9  2  1  0
 11 12  1  0
 12 14  1  0
 13 12  2  0
 14 15  1  0
 16 15  1  0
 17 16  1  0
 18 19  1  0
 18 17  1  1
 19  9  1  0
 20 18  1  0
 21 20  2  0
 22 20  1  0
 23 22  1  0
 24 25  1  0
 24 23  1  0
 26 24  2  0
M  END
$$$$
