HRG.pdb
     RDKit          3D

 26 26  0  0  1  0  0  0  0  0999 V2000
   27.5882  -21.0102  -16.0959 N   0  0  0  0  0  0  0  0  0  0  0  0
   26.6419  -20.0153  -15.6374 C   0  0  1  0  0  0  0  0  0  0  0  0
   25.9822  -19.4177  -16.8358 C   0  0  0  0  0  0  0  0  0  0  0  0
   27.0456  -18.6604  -17.5812 C   0  0  0  0  0  0  0  0  0  0  0  0
   27.7032  -19.0771  -18.7316 C   0  0  0  0  0  0  0  0  0  0  0  0
   28.5742  -18.1324  -19.0902 N   0  0  0  0  0  0  0  0  0  0  0  0
   28.5012  -17.1202  -18.2103 C   0  0  0  0  0  0  0  0  0  0  0  0
   27.5668  -17.4559  -17.2979 N   0  0  0  0  0  0  0  0  0  0  0  0
   25.7297  -20.5579  -14.6250 C   0  0  0  0  0  0  0  0  0  0  0  0
   25.5050  -21.8036  -14.6084 O   0  0  0  0  0  0  0  0  0  0  0  0
   22.4663  -19.9875   -7.5042 N   0  0  0  0  0  0  0  0  0  0  0  0
   22.4133  -21.3517   -7.9229 C   0  0  0  0  0  0  0  0  0  0  0  0
   21.3120  -22.0031   -7.7880 N   0  0  0  0  0  0  0  0  0  0  0  0
   23.5530  -21.9931   -8.4830 N   0  0  0  0  0  0  0  0  0  0  0  0
   24.3371  -21.3261   -9.5021 C   0  0  0  0  0  0  0  0  0  0  0  0
   23.5257  -20.2277  -10.1994 C   0  0  0  0  0  0  0  0  0  0  0  0
   24.4015  -19.6706  -11.2774 C   0  0  0  0  0  0  0  0  0  0  0  0
   24.2372  -20.3353  -12.6077 C   0  0  2  0  0  0  0  0  0  0  0  0
   25.0662  -19.7833  -13.6435 N   0  0  0  0  0  0  0  0  0  0  0  0
   22.8243  -20.2575  -13.0080 C   0  0  0  0  0  0  0  0  0  0  0  0
   22.3099  -19.1379  -13.2437 O   0  0  0  0  0  0  0  0  0  0  0  0
   21.1549  -22.9766   -8.0849 N   0  0  0  0  0  0  0  0  0  0  0  0
   21.9800  -21.3854  -13.1504 C   0  0  0  0  0  0  0  0  0  0  0  0
   20.5516  -21.2702  -13.3777 C   0  0  0  0  0  0  0  0  0  0  0  0
   20.2406  -21.0602  -14.8060 O   0  0  0  0  0  0  0  0  0  0  0  0
   18.9517  -20.9269  -15.2909 O   0  0  0  0  0  0  0  0  0  0  0  0
  2  1  1  6
  3  2  1  0
  4  3  1  0
  5  4  2  0
  6  7  1  0
  6  5  1  0
  7  8  2  0
  8  4  1  0
  9 10  2  0
  9  2  1  0
 11 12  1  0
 12 14  1  0
 13 12  2  0
 14 15  1  0
 16 15  1  0
 17 16  1  0
 18 19  1  0
 18 17  1  1
 19  9  1  0
 20 18  1  0
 21 20  2  0
 22 20  1  0
 23 22  1  0
 24 25  1  0
 24 23  1  0
 26 24  2  0
M  END
$$$$
