HRG.pdb
     RDKit          3D

 26 26  0  0  1  0  0  0  0  0999 V2000
   26.3480  -19.6603  -19.4269 N   0  0  0  0  0  0  0  0  0  0  0  0
   25.8996  -18.7202  -18.4217 C   0  0  1  0  0  0  0  0  0  0  0  0
   25.2392  -17.5775  -19.1191 C   0  0  0  0  0  0  0  0  0  0  0  0
   26.3202  -16.8416  -19.8608 C   0  0  0  0  0  0  0  0  0  0  0  0
   26.7371  -17.0807  -21.1640 C   0  0  0  0  0  0  0  0  0  0  0  0
   27.7146  -16.2233  -21.4626 N   0  0  0  0  0  0  0  0  0  0  0  0
   27.9428  -15.4391  -20.3963 C   0  0  0  0  0  0  0  0  0  0  0  0
   27.0868  -15.8272  -19.4295 N   0  0  0  0  0  0  0  0  0  0  0  0
   25.0917  -19.3744  -17.3868 C   0  0  0  0  0  0  0  0  0  0  0  0
   24.2700  -20.2742  -17.7298 O   0  0  0  0  0  0  0  0  0  0  0  0
   26.2218  -20.6171   -8.6798 N   0  0  0  0  0  0  0  0  0  0  0  0
   24.8406  -20.9218   -8.8765 C   0  0  0  0  0  0  0  0  0  0  0  0
   24.1146  -21.2129   -7.8550 N   0  0  0  0  0  0  0  0  0  0  0  0
   24.2629  -20.9068  -10.1766 N   0  0  0  0  0  0  0  0  0  0  0  0
   24.9230  -20.2065  -11.2592 C   0  0  0  0  0  0  0  0  0  0  0  0
   24.1690  -20.3882  -12.5819 C   0  0  0  0  0  0  0  0  0  0  0  0
   24.9488  -19.6470  -13.6220 C   0  0  0  0  0  0  0  0  0  0  0  0
   24.3707  -19.7307  -14.9994 C   0  0  2  0  0  0  0  0  0  0  0  0
   25.1589  -19.0736  -16.0053 N   0  0  0  0  0  0  0  0  0  0  0  0
   23.0141  -19.1632  -14.9821 C   0  0  0  0  0  0  0  0  0  0  0  0
   22.8659  -17.9175  -14.9735 O   0  0  0  0  0  0  0  0  0  0  0  0
   23.1089  -21.4329   -7.8816 N   0  0  0  0  0  0  0  0  0  0  0  0
   21.8316  -19.9421  -14.9744 C   0  0  0  0  0  0  0  0  0  0  0  0
   20.5079  -19.3545  -14.8868 C   0  0  0  0  0  0  0  0  0  0  0  0
   19.7169  -19.6047  -16.1085 O   0  0  0  0  0  0  0  0  0  0  0  0
   18.3588  -19.3560  -16.1981 O   0  0  0  0  0  0  0  0  0  0  0  0
  2  1  1  6
  3  2  1  0
  4  3  1  0
  5  4  2  0
  6  7  1  0
  6  5  1  0
  7  8  2  0
  8  4  1  0
  9 10  2  0
  9  2  1  0
 11 12  1  0
 12 14  1  0
 13 12  2  0
 14 15  1  0
 16 15  1  0
 17 16  1  0
 18 19  1  0
 18 17  1  1
 19  9  1  0
 20 18  1  0
 21 20  2  0
 22 20  1  0
 23 22  1  0
 24 25  1  0
 24 23  1  0
 26 24  2  0
M  END
$$$$
