HRG.pdb
     RDKit          3D

 26 26  0  0  1  0  0  0  0  0999 V2000
   20.7544  -28.1569  -11.0759 N   0  0  0  0  0  0  0  0  0  0  0  0
   19.4882  -28.2703  -10.3836 C   0  0  1  0  0  0  0  0  0  0  0  0
   19.3808  -29.6565   -9.8402 C   0  0  0  0  0  0  0  0  0  0  0  0
   19.0962  -30.5575  -11.0095 C   0  0  0  0  0  0  0  0  0  0  0  0
   20.0209  -31.3295  -11.7013 C   0  0  0  0  0  0  0  0  0  0  0  0
   19.3846  -31.9894  -12.6705 N   0  0  0  0  0  0  0  0  0  0  0  0
   18.0808  -31.6696  -12.6278 C   0  0  0  0  0  0  0  0  0  0  0  0
   17.9206  -30.7974  -11.6120 N   0  0  0  0  0  0  0  0  0  0  0  0
   19.3072  -27.1961   -9.4011 C   0  0  0  0  0  0  0  0  0  0  0  0
   20.2630  -26.9131   -8.6209 O   0  0  0  0  0  0  0  0  0  0  0  0
   19.5220  -22.0974  -12.7578 N   0  0  0  0  0  0  0  0  0  0  0  0
   18.1132  -22.0295  -12.5350 C   0  0  0  0  0  0  0  0  0  0  0  0
   17.3423  -21.7025  -13.5118 N   0  0  0  0  0  0  0  0  0  0  0  0
   17.5568  -22.3170  -11.2576 N   0  0  0  0  0  0  0  0  0  0  0  0
   18.4034  -22.7994  -10.1858 C   0  0  0  0  0  0  0  0  0  0  0  0
   17.6305  -22.8947   -8.8651 C   0  0  0  0  0  0  0  0  0  0  0  0
   17.0403  -24.2690   -8.8151 C   0  0  0  0  0  0  0  0  0  0  0  0
   17.9873  -25.3279   -8.3457 C   0  0  2  0  0  0  0  0  0  0  0  0
   18.1237  -26.4341   -9.2526 N   0  0  0  0  0  0  0  0  0  0  0  0
   17.5437  -25.8152   -7.0310 C   0  0  0  0  0  0  0  0  0  0  0  0
   16.7854  -26.8125   -6.9657 O   0  0  0  0  0  0  0  0  0  0  0  0
   16.3159  -21.6340  -13.4641 N   0  0  0  0  0  0  0  0  0  0  0  0
   17.9207  -25.2243   -5.8007 C   0  0  0  0  0  0  0  0  0  0  0  0
   17.3880  -25.6647   -4.5250 C   0  0  0  0  0  0  0  0  0  0  0  0
   18.3787  -26.4486   -3.7602 O   0  0  0  0  0  0  0  0  0  0  0  0
   18.1730  -26.8689   -2.4582 O   0  0  0  0  0  0  0  0  0  0  0  0
  2  1  1  1
  3  2  1  0
  4  3  1  0
  5  4  2  0
  6  7  1  0
  6  5  1  0
  7  8  2  0
  8  4  1  0
  9 10  2  0
  9  2  1  0
 11 12  1  0
 12 14  1  0
 13 12  2  0
 14 15  1  0
 16 15  1  0
 17 16  1  0
 18 19  1  0
 18 17  1  6
 19  9  1  0
 20 18  1  0
 21 20  2  0
 22 20  1  0
 23 22  1  0
 24 25  1  0
 24 23  1  0
 26 24  2  0
M  END
$$$$
