HRG.pdb
     RDKit          3D

 26 26  0  0  1  0  0  0  0  0999 V2000
   15.0718  -22.7947  -10.7167 N   0  0  0  0  0  0  0  0  0  0  0  0
   14.7871  -22.9517   -9.3061 C   0  0  1  0  0  0  0  0  0  0  0  0
   13.3070  -23.0564   -9.1420 C   0  0  0  0  0  0  0  0  0  0  0  0
   12.7490  -21.6794   -9.3710 C   0  0  0  0  0  0  0  0  0  0  0  0
   13.2729  -20.7053  -10.2113 C   0  0  0  0  0  0  0  0  0  0  0  0
   12.4972  -19.6221  -10.1435 N   0  0  0  0  0  0  0  0  0  0  0  0
   11.4905  -19.8639   -9.2879 C   0  0  0  0  0  0  0  0  0  0  0  0
   11.6571  -21.1197   -8.8259 N   0  0  0  0  0  0  0  0  0  0  0  0
   15.5625  -24.0466   -8.7132 C   0  0  0  0  0  0  0  0  0  0  0  0
   15.4449  -25.2110   -9.1956 O   0  0  0  0  0  0  0  0  0  0  0  0
   19.2870  -27.3025  -11.7863 N   0  0  0  0  0  0  0  0  0  0  0  0
   19.5392  -25.9203  -12.0410 C   0  0  0  0  0  0  0  0  0  0  0  0
   19.8176  -25.5479  -13.2407 N   0  0  0  0  0  0  0  0  0  0  0  0
   19.4861  -24.9587  -10.9938 N   0  0  0  0  0  0  0  0  0  0  0  0
   19.1558  -25.3685   -9.6443 C   0  0  0  0  0  0  0  0  0  0  0  0
   19.1008  -24.1661   -8.6946 C   0  0  0  0  0  0  0  0  0  0  0  0
   18.7593  -24.7070   -7.3418 C   0  0  0  0  0  0  0  0  0  0  0  0
   17.2989  -24.9529   -7.1288 C   0  0  2  0  0  0  0  0  0  0  0  0
   16.4512  -23.9021   -7.6210 N   0  0  0  0  0  0  0  0  0  0  0  0
   17.0544  -25.1571   -5.6932 C   0  0  0  0  0  0  0  0  0  0  0  0
   16.9032  -24.1617   -4.9448 O   0  0  0  0  0  0  0  0  0  0  0  0
   20.0093  -24.5798  -13.5350 N   0  0  0  0  0  0  0  0  0  0  0  0
   16.9750  -26.4301   -5.0782 C   0  0  0  0  0  0  0  0  0  0  0  0
   16.6962  -26.6005   -3.6646 C   0  0  0  0  0  0  0  0  0  0  0  0
   17.9215  -26.4867   -2.8481 O   0  0  0  0  0  0  0  0  0  0  0  0
   17.9350  -26.6413   -1.4733 O   0  0  0  0  0  0  0  0  0  0  0  0
  2  1  1  6
  3  2  1  0
  4  3  1  0
  5  4  2  0
  6  7  1  0
  6  5  1  0
  7  8  2  0
  8  4  1  0
  9 10  2  0
  9  2  1  0
 11 12  1  0
 12 14  1  0
 13 12  2  0
 14 15  1  0
 16 15  1  0
 17 16  1  0
 18 19  1  0
 18 17  1  1
 19  9  1  0
 20 18  1  0
 21 20  2  0
 22 20  1  0
 23 22  1  0
 24 25  1  0
 24 23  1  0
 26 24  2  0
M  END
$$$$
