HRG.pdb
     RDKit          3D

 26 26  0  0  1  0  0  0  0  0999 V2000
   26.4576  -35.1944  -10.3839 N   0  0  0  0  0  0  0  0  0  0  0  0
   26.3174  -34.1361   -9.4062 C   0  0  1  0  0  0  0  0  0  0  0  0
   24.8918  -33.6933   -9.4053 C   0  0  0  0  0  0  0  0  0  0  0  0
   24.7809  -32.5972   -8.3824 C   0  0  0  0  0  0  0  0  0  0  0  0
   24.0870  -32.6564   -7.1806 C   0  0  0  0  0  0  0  0  0  0  0  0
   24.2255  -31.4886   -6.5508 N   0  0  0  0  0  0  0  0  0  0  0  0
   24.9852  -30.6777   -7.3052 C   0  0  0  0  0  0  0  0  0  0  0  0
   25.3156  -31.3660   -8.4166 N   0  0  0  0  0  0  0  0  0  0  0  0
   26.8524  -34.5294   -8.0983 C   0  0  0  0  0  0  0  0  0  0  0  0
   26.6581  -35.7110   -7.6878 O   0  0  0  0  0  0  0  0  0  0  0  0
   34.0248  -32.8031   -8.4188 N   0  0  0  0  0  0  0  0  0  0  0  0
   33.9982  -34.1629   -7.9839 C   0  0  0  0  0  0  0  0  0  0  0  0
   35.0490  -34.8886   -8.1408 N   0  0  0  0  0  0  0  0  0  0  0  0
   32.8344  -34.7197   -7.3841 N   0  0  0  0  0  0  0  0  0  0  0  0
   31.7790  -33.8539   -6.8999 C   0  0  0  0  0  0  0  0  0  0  0  0
   30.6006  -34.6660   -6.3496 C   0  0  0  0  0  0  0  0  0  0  0  0
   29.6042  -33.6754   -5.8345 C   0  0  0  0  0  0  0  0  0  0  0  0
   28.1778  -34.0954   -6.0003 C   0  0  2  0  0  0  0  0  0  0  0  0
   27.5847  -33.6749   -7.2398 N   0  0  0  0  0  0  0  0  0  0  0  0
   27.3930  -33.5731   -4.8717 C   0  0  0  0  0  0  0  0  0  0  0  0
   26.8872  -32.4276   -4.9488 O   0  0  0  0  0  0  0  0  0  0  0  0
   35.1569  -35.8596   -7.8154 N   0  0  0  0  0  0  0  0  0  0  0  0
   27.1606  -34.2889   -3.6722 C   0  0  0  0  0  0  0  0  0  0  0  0
   26.3517  -33.7608   -2.5897 C   0  0  0  0  0  0  0  0  0  0  0  0
   26.2508  -34.7148   -1.4670 O   0  0  0  0  0  0  0  0  0  0  0  0
   25.6790  -34.3957   -0.2483 O   0  0  0  0  0  0  0  0  0  0  0  0
  2  1  1  6
  3  2  1  0
  4  3  1  0
  5  4  2  0
  6  7  1  0
  6  5  1  0
  7  8  2  0
  8  4  1  0
  9 10  2  0
  9  2  1  0
 11 12  1  0
 12 14  1  0
 13 12  2  0
 14 15  1  0
 16 15  1  0
 17 16  1  0
 18 19  1  0
 18 17  1  1
 19  9  1  0
 20 18  1  0
 21 20  2  0
 22 20  1  0
 23 22  1  0
 24 25  1  0
 24 23  1  0
 26 24  2  0
M  END
$$$$
