GGS.pdb
     RDKit          3D

 15 14  0  0  1  0  0  0  0  0999 V2000
   17.3268  -12.6141  -16.0368 N   0  0  0  0  0  0  0  0  0  0  0  0
   17.1695  -11.1524  -16.0747 C   0  0  0  0  0  0  0  0  0  0  0  0
   18.5084  -10.4960  -15.9523 C   0  0  0  0  0  0  0  0  0  0  0  0
   19.2221  -10.7363  -14.9563 O   0  0  0  0  0  0  0  0  0  0  0  0
   19.0096   -9.5993  -16.9328 N   0  0  0  0  0  0  0  0  0  0  0  0
   20.2073   -8.8366  -16.8312 C   0  0  0  0  0  0  0  0  0  0  0  0
   20.1909   -7.6739  -15.9564 C   0  0  0  0  0  0  0  0  0  0  0  0
   19.0853   -7.0947  -15.8061 O   0  0  0  0  0  0  0  0  0  0  0  0
   22.4666   -4.7509  -12.7480 O   0  0  0  0  0  0  0  0  0  0  0  0
   22.5159   -5.8512  -13.5739 C   0  0  0  0  0  0  0  0  0  0  0  0
   21.3124   -5.9524  -14.4764 C   0  0  2  0  0  0  0  0  0  0  0  0
   21.3134   -7.1645  -15.2759 N   0  0  0  0  0  0  0  0  0  0  0  0
   21.2205   -4.7127  -15.3004 C   0  0  0  0  0  0  0  0  0  0  0  0
   21.8329   -4.5463  -16.3651 O   0  0  0  0  0  0  0  0  0  0  0  0
   20.3905   -3.7152  -14.8089 O   0  0  0  0  0  0  0  0  0  0  0  0
  2  1  1  0
  3  2  1  0
  4  3  2  0
  5  3  1  0
  6  5  1  0
  7  6  1  0
  7 12  1  0
  8  7  2  0
 10  9  1  0
 11 12  1  0
 11 10  1  6
 13 15  1  0
 13 11  1  0
 14 13  2  0
M  END
$$$$
