GGS.pdb
     RDKit          3D

 15 14  0  0  1  0  0  0  0  0999 V2000
   18.9519  -11.8203  -16.5656 N   0  0  0  0  0  0  0  0  0  0  0  0
   17.6543  -11.1715  -16.3246 C   0  0  0  0  0  0  0  0  0  0  0  0
   17.7898   -9.6910  -16.4923 C   0  0  0  0  0  0  0  0  0  0  0  0
   16.8255   -8.9496  -16.2103 O   0  0  0  0  0  0  0  0  0  0  0  0
   18.9836   -9.0841  -16.9648 N   0  0  0  0  0  0  0  0  0  0  0  0
   19.1933   -7.6880  -17.1485 C   0  0  0  0  0  0  0  0  0  0  0  0
   19.4591   -6.8871  -15.9631 C   0  0  0  0  0  0  0  0  0  0  0  0
   18.4723   -6.3164  -15.4331 O   0  0  0  0  0  0  0  0  0  0  0  0
   21.9947   -7.8264  -13.0268 O   0  0  0  0  0  0  0  0  0  0  0  0
   21.0260   -6.8524  -12.9371 C   0  0  0  0  0  0  0  0  0  0  0  0
   20.9785   -5.9686  -14.1577 C   0  0  2  0  0  0  0  0  0  0  0  0
   20.7283   -6.7140  -15.3783 N   0  0  0  0  0  0  0  0  0  0  0  0
   22.2294   -5.1588  -14.2171 C   0  0  0  0  0  0  0  0  0  0  0  0
   23.0403   -5.2116  -15.1532 O   0  0  0  0  0  0  0  0  0  0  0  0
   22.4581   -4.3118  -13.1421 O   0  0  0  0  0  0  0  0  0  0  0  0
  2  1  1  0
  3  2  1  0
  4  3  2  0
  5  3  1  0
  6  5  1  0
  7  6  1  0
  7 12  1  0
  8  7  2  0
 10  9  1  0
 11 12  1  0
 11 10  1  1
 13 15  1  0
 13 11  1  0
 14 13  2  0
M  END
$$$$
