GGS.pdb
     RDKit          3D

 15 14  0  0  1  0  0  0  0  0999 V2000
   21.0571  -11.1563  -19.1047 N   0  0  0  0  0  0  0  0  0  0  0  0
   20.7900   -9.9692  -19.9306 C   0  0  0  0  0  0  0  0  0  0  0  0
   21.5895   -8.8102  -19.4246 C   0  0  0  0  0  0  0  0  0  0  0  0
   21.4660   -7.6936  -19.9696 O   0  0  0  0  0  0  0  0  0  0  0  0
   22.4949   -8.9264  -18.3368 N   0  0  0  0  0  0  0  0  0  0  0  0
   23.2869   -7.8749  -17.7949 C   0  0  0  0  0  0  0  0  0  0  0  0
   22.5926   -6.7990  -17.1037 C   0  0  0  0  0  0  0  0  0  0  0  0
   22.2860   -5.7912  -17.7899 O   0  0  0  0  0  0  0  0  0  0  0  0
   19.7158   -7.2957  -14.5165 O   0  0  0  0  0  0  0  0  0  0  0  0
   20.5486   -6.3166  -14.0236 C   0  0  0  0  0  0  0  0  0  0  0  0
   21.4852   -5.7712  -15.0717 C   0  0  2  0  0  0  0  0  0  0  0  0
   22.2448   -6.8132  -15.7393 N   0  0  0  0  0  0  0  0  0  0  0  0
   22.3512   -4.7281  -14.4504 C   0  0  0  0  0  0  0  0  0  0  0  0
   23.5821   -4.8284  -14.3441 O   0  0  0  0  0  0  0  0  0  0  0  0
   21.6994   -3.5978  -13.9781 O   0  0  0  0  0  0  0  0  0  0  0  0
  2  1  1  0
  3  2  1  0
  4  3  2  0
  5  3  1  0
  6  5  1  0
  7  6  1  0
  7 12  1  0
  8  7  2  0
 10  9  1  0
 11 12  1  0
 11 10  1  1
 13 15  1  0
 13 11  1  0
 14 13  2  0
M  END
$$$$
