GGS.pdb
     RDKit          3D

 15 14  0  0  1  0  0  0  0  0999 V2000
   17.6207  -11.1872  -17.5894 N   0  0  0  0  0  0  0  0  0  0  0  0
   19.0070  -10.8575  -17.2259 C   0  0  0  0  0  0  0  0  0  0  0  0
   19.0144   -9.8314  -16.1371 C   0  0  0  0  0  0  0  0  0  0  0  0
   18.2426   -8.8525  -16.2097 O   0  0  0  0  0  0  0  0  0  0  0  0
   19.8726   -9.9236  -15.0094 N   0  0  0  0  0  0  0  0  0  0  0  0
   19.9228   -9.0058  -13.9223 C   0  0  0  0  0  0  0  0  0  0  0  0
   20.9987   -8.0261  -13.9196 C   0  0  0  0  0  0  0  0  0  0  0  0
   22.0909   -8.3868  -13.4121 O   0  0  0  0  0  0  0  0  0  0  0  0
   21.2326   -4.8584  -16.6012 O   0  0  0  0  0  0  0  0  0  0  0  0
   22.3216   -5.3811  -15.9407 C   0  0  0  0  0  0  0  0  0  0  0  0
   22.0019   -5.7807  -14.5225 C   0  0  2  0  0  0  0  0  0  0  0  0
   20.8995   -6.7223  -14.4420 N   0  0  0  0  0  0  0  0  0  0  0  0
   21.7747   -4.5491  -13.7127 C   0  0  0  0  0  0  0  0  0  0  0  0
   22.6628   -3.7263  -13.4464 O   0  0  0  0  0  0  0  0  0  0  0  0
   20.4806   -4.3536  -13.2518 O   0  0  0  0  0  0  0  0  0  0  0  0
  2  1  1  0
  3  2  1  0
  4  3  2  0
  5  3  1  0
  6  5  1  0
  7  6  1  0
  7 12  1  0
  8  7  2  0
 10  9  1  0
 11 12  1  0
 11 10  1  6
 13 15  1  0
 13 11  1  0
 14 13  2  0
M  END
$$$$
