GGS.pdb
     RDKit          3D

 15 14  0  0  1  0  0  0  0  0999 V2000
   20.4361  -16.3200  -16.8868 N   0  0  0  0  0  0  0  0  0  0  0  0
   21.0182  -15.0270  -17.2767 C   0  0  0  0  0  0  0  0  0  0  0  0
   20.1610  -13.9117  -16.7668 C   0  0  0  0  0  0  0  0  0  0  0  0
   18.9248  -14.0709  -16.6931 O   0  0  0  0  0  0  0  0  0  0  0  0
   20.6997  -12.6631  -16.3575 N   0  0  0  0  0  0  0  0  0  0  0  0
   19.9770  -11.6074  -15.7331 C   0  0  0  0  0  0  0  0  0  0  0  0
   20.7250  -10.4234  -15.3381 C   0  0  0  0  0  0  0  0  0  0  0  0
   21.3589  -10.4903  -14.2545 O   0  0  0  0  0  0  0  0  0  0  0  0
   21.8809   -7.5397  -17.9960 O   0  0  0  0  0  0  0  0  0  0  0  0
   21.5911   -7.0021  -16.7623 C   0  0  0  0  0  0  0  0  0  0  0  0
   21.5275   -8.0458  -15.6761 C   0  0  2  0  0  0  0  0  0  0  0  0
   20.7865   -9.2276  -16.0790 N   0  0  0  0  0  0  0  0  0  0  0  0
   20.9910   -7.4187  -14.4339 C   0  0  0  0  0  0  0  0  0  0  0  0
   19.8987   -7.7158  -13.9286 O   0  0  0  0  0  0  0  0  0  0  0  0
   21.7936   -6.4527  -13.8440 O   0  0  0  0  0  0  0  0  0  0  0  0
  2  1  1  0
  3  2  1  0
  4  3  2  0
  5  3  1  0
  6  5  1  0
  7  6  1  0
  7 12  1  0
  8  7  2  0
 10  9  1  0
 11 12  1  0
 11 10  1  6
 13 15  1  0
 13 11  1  0
 14 13  2  0
M  END
$$$$
