GGS.pdb
     RDKit          3D

 15 14  0  0  1  0  0  0  0  0999 V2000
   26.5610  -16.0823  -18.1261 N   0  0  0  0  0  0  0  0  0  0  0  0
   25.3387  -15.9273  -17.3232 C   0  0  0  0  0  0  0  0  0  0  0  0
   25.3147  -16.9534  -16.2345 C   0  0  0  0  0  0  0  0  0  0  0  0
   25.7266  -16.6506  -15.0954 O   0  0  0  0  0  0  0  0  0  0  0  0
   24.8374  -18.2744  -16.4434 N   0  0  0  0  0  0  0  0  0  0  0  0
   24.7130  -19.2836  -15.4471 C   0  0  0  0  0  0  0  0  0  0  0  0
   23.4166  -19.4366  -14.8043 C   0  0  0  0  0  0  0  0  0  0  0  0
   23.3299  -20.3133  -13.9075 O   0  0  0  0  0  0  0  0  0  0  0  0
   18.9527  -17.6579  -13.8895 O   0  0  0  0  0  0  0  0  0  0  0  0
   20.1627  -17.5439  -14.5361 C   0  0  0  0  0  0  0  0  0  0  0  0
   20.9950  -18.7967  -14.4326 C   0  0  2  0  0  0  0  0  0  0  0  0
   22.2717  -18.6777  -15.1139 N   0  0  0  0  0  0  0  0  0  0  0  0
   20.1866  -19.9551  -14.9108 C   0  0  0  0  0  0  0  0  0  0  0  0
   19.3594  -20.5545  -14.2087 O   0  0  0  0  0  0  0  0  0  0  0  0
   20.4057  -20.3501  -16.2228 O   0  0  0  0  0  0  0  0  0  0  0  0
  2  1  1  0
  3  2  1  0
  4  3  2  0
  5  3  1  0
  6  5  1  0
  7  6  1  0
  7 12  1  0
  8  7  2  0
 10  9  1  0
 11 12  1  0
 11 10  1  6
 13 15  1  0
 13 11  1  0
 14 13  2  0
M  END
$$$$
