GGS.pdb
     RDKit          3D

 15 14  0  0  1  0  0  0  0  0999 V2000
   17.2691  -12.1529  -18.0458 N   0  0  0  0  0  0  0  0  0  0  0  0
   17.1022  -10.7181  -17.7704 C   0  0  0  0  0  0  0  0  0  0  0  0
   18.4416  -10.0532  -17.7200 C   0  0  0  0  0  0  0  0  0  0  0  0
   19.3102  -10.3558  -18.5643 O   0  0  0  0  0  0  0  0  0  0  0  0
   18.7723   -9.0797  -16.7404 N   0  0  0  0  0  0  0  0  0  0  0  0
   19.9653   -8.3036  -16.7053 C   0  0  0  0  0  0  0  0  0  0  0  0
   20.0281   -7.2117  -15.7457 C   0  0  0  0  0  0  0  0  0  0  0  0
   18.9309   -6.7379  -15.3554 O   0  0  0  0  0  0  0  0  0  0  0  0
   22.6635   -4.4062  -12.7060 O   0  0  0  0  0  0  0  0  0  0  0  0
   22.6219   -5.4301  -13.6253 C   0  0  0  0  0  0  0  0  0  0  0  0
   21.2756   -5.5555  -14.2923 C   0  0  2  0  0  0  0  0  0  0  0  0
   21.2178   -6.6611  -15.2316 N   0  0  0  0  0  0  0  0  0  0  0  0
   20.9196   -4.2467  -14.9124 C   0  0  0  0  0  0  0  0  0  0  0  0
   21.3121   -3.8851  -16.0312 O   0  0  0  0  0  0  0  0  0  0  0  0
   20.1004   -3.4185  -14.1584 O   0  0  0  0  0  0  0  0  0  0  0  0
  2  1  1  0
  3  2  1  0
  4  3  2  0
  5  3  1  0
  6  5  1  0
  7  6  1  0
  7 12  1  0
  8  7  2  0
 10  9  1  0
 11 12  1  0
 11 10  1  6
 13 15  1  0
 13 11  1  0
 14 13  2  0
M  END
$$$$
