GGS.pdb
     RDKit          3D

 15 14  0  0  1  0  0  0  0  0999 V2000
   18.3032  -12.8880  -15.4709 N   0  0  0  0  0  0  0  0  0  0  0  0
   17.2799  -11.8940  -15.8280 C   0  0  0  0  0  0  0  0  0  0  0  0
   17.9228  -10.5599  -16.0409 C   0  0  0  0  0  0  0  0  0  0  0  0
   17.2347   -9.5229  -15.9402 O   0  0  0  0  0  0  0  0  0  0  0  0
   19.3002  -10.4198  -16.3568 N   0  0  0  0  0  0  0  0  0  0  0  0
   19.9659   -9.1992  -16.6626 C   0  0  0  0  0  0  0  0  0  0  0  0
   20.2201   -8.2794  -15.5641 C   0  0  0  0  0  0  0  0  0  0  0  0
   19.8708   -8.6577  -14.4172 O   0  0  0  0  0  0  0  0  0  0  0  0
   22.3051   -5.8704  -12.5309 O   0  0  0  0  0  0  0  0  0  0  0  0
   22.1351   -6.6637  -13.6430 C   0  0  0  0  0  0  0  0  0  0  0  0
   21.1037   -6.1133  -14.5951 C   0  0  2  0  0  0  0  0  0  0  0  0
   20.8241   -7.0146  -15.6986 N   0  0  0  0  0  0  0  0  0  0  0  0
   21.5359   -4.7590  -15.0458 C   0  0  0  0  0  0  0  0  0  0  0  0
   21.9419   -4.5109  -16.1904 O   0  0  0  0  0  0  0  0  0  0  0  0
   21.4626   -3.7493  -14.0968 O   0  0  0  0  0  0  0  0  0  0  0  0
  2  1  1  0
  3  2  1  0
  4  3  2  0
  5  3  1  0
  6  5  1  0
  7  6  1  0
  7 12  1  0
  8  7  2  0
 10  9  1  0
 11 12  1  0
 11 10  1  1
 13 15  1  0
 13 11  1  0
 14 13  2  0
M  END
$$$$
