GGS.pdb
     RDKit          3D

 15 14  0  0  1  0  0  0  0  0999 V2000
   19.3444  -12.8409  -16.7766 N   0  0  0  0  0  0  0  0  0  0  0  0
   19.0397  -11.6773  -17.6226 C   0  0  0  0  0  0  0  0  0  0  0  0
   19.2017  -10.4188  -16.8298 C   0  0  0  0  0  0  0  0  0  0  0  0
   18.6537   -9.3687  -17.2248 O   0  0  0  0  0  0  0  0  0  0  0  0
   19.9618  -10.3661  -15.6314 N   0  0  0  0  0  0  0  0  0  0  0  0
   20.0919   -9.2361  -14.7754 C   0  0  0  0  0  0  0  0  0  0  0  0
   20.9357   -8.1417  -15.2314 C   0  0  0  0  0  0  0  0  0  0  0  0
   21.7992   -8.4183  -16.1023 O   0  0  0  0  0  0  0  0  0  0  0  0
   19.9865   -5.0046  -16.7254 O   0  0  0  0  0  0  0  0  0  0  0  0
   20.9296   -4.5846  -15.8148 C   0  0  0  0  0  0  0  0  0  0  0  0
   21.7057   -5.7296  -15.2149 C   0  0  2  0  0  0  0  0  0  0  0  0
   20.8484   -6.8140  -14.7707 N   0  0  0  0  0  0  0  0  0  0  0  0
   22.5849   -5.2026  -14.1316 C   0  0  0  0  0  0  0  0  0  0  0  0
   22.4045   -5.4295  -12.9264 O   0  0  0  0  0  0  0  0  0  0  0  0
   23.6535   -4.4184  -14.5423 O   0  0  0  0  0  0  0  0  0  0  0  0
  2  1  1  0
  3  2  1  0
  4  3  2  0
  5  3  1  0
  6  5  1  0
  7  6  1  0
  7 12  1  0
  8  7  2  0
 10  9  1  0
 11 12  1  0
 11 10  1  1
 13 15  1  0
 13 11  1  0
 14 13  2  0
M  END
$$$$
