GGS.pdb
     RDKit          3D

 15 14  0  0  1  0  0  0  0  0999 V2000
   23.0411  -13.6383  -19.7250 N   0  0  0  0  0  0  0  0  0  0  0  0
   23.3819  -12.2338  -19.9967 C   0  0  0  0  0  0  0  0  0  0  0  0
   23.7041  -11.5339  -18.7141 C   0  0  0  0  0  0  0  0  0  0  0  0
   24.6957  -11.8972  -18.0480 O   0  0  0  0  0  0  0  0  0  0  0  0
   22.9205  -10.4601  -18.2147 N   0  0  0  0  0  0  0  0  0  0  0  0
   23.1300   -9.7769  -16.9835 C   0  0  0  0  0  0  0  0  0  0  0  0
   22.2130   -8.6975  -16.6499 C   0  0  0  0  0  0  0  0  0  0  0  0
   21.3549   -8.3958  -17.5177 O   0  0  0  0  0  0  0  0  0  0  0  0
   21.2783   -7.6414  -12.7503 O   0  0  0  0  0  0  0  0  0  0  0  0
   20.4598   -7.3780  -13.8253 C   0  0  0  0  0  0  0  0  0  0  0  0
   21.2325   -6.9881  -15.0599 C   0  0  2  0  0  0  0  0  0  0  0  0
   22.2217   -7.9816  -15.4373 N   0  0  0  0  0  0  0  0  0  0  0  0
   21.8191   -5.6324  -14.8548 C   0  0  0  0  0  0  0  0  0  0  0  0
   23.0368   -5.4130  -14.7790 O   0  0  0  0  0  0  0  0  0  0  0  0
   20.9132   -4.5867  -14.7483 O   0  0  0  0  0  0  0  0  0  0  0  0
  2  1  1  0
  3  2  1  0
  4  3  2  0
  5  3  1  0
  6  5  1  0
  7  6  1  0
  7 12  1  0
  8  7  2  0
 10  9  1  0
 11 12  1  0
 11 10  1  1
 13 15  1  0
 13 11  1  0
 14 13  2  0
M  END
$$$$
