GGS.pdb
     RDKit          3D

 15 14  0  0  1  0  0  0  0  0999 V2000
   18.3756  -12.8902  -15.9371 N   0  0  0  0  0  0  0  0  0  0  0  0
   19.6170  -12.2195  -16.3514 C   0  0  0  0  0  0  0  0  0  0  0  0
   19.3527  -10.7657  -16.5864 C   0  0  0  0  0  0  0  0  0  0  0  0
   18.3306  -10.4205  -17.2150 O   0  0  0  0  0  0  0  0  0  0  0  0
   20.2256   -9.7476  -16.1192 N   0  0  0  0  0  0  0  0  0  0  0  0
   20.0570   -8.3482  -16.3186 C   0  0  0  0  0  0  0  0  0  0  0  0
   20.9718   -7.4557  -15.6230 C   0  0  0  0  0  0  0  0  0  0  0  0
   21.7892   -7.9890  -14.8306 O   0  0  0  0  0  0  0  0  0  0  0  0
   22.8163   -2.9363  -15.0502 O   0  0  0  0  0  0  0  0  0  0  0  0
   21.8944   -3.7639  -15.6505 C   0  0  0  0  0  0  0  0  0  0  0  0
   21.9555   -5.1760  -15.1259 C   0  0  2  0  0  0  0  0  0  0  0  0
   21.0030   -6.0566  -15.7783 N   0  0  0  0  0  0  0  0  0  0  0  0
   21.7999   -5.1480  -13.6429 C   0  0  0  0  0  0  0  0  0  0  0  0
   20.7031   -5.1383  -13.0655 O   0  0  0  0  0  0  0  0  0  0  0  0
   22.9764   -5.1326  -12.9075 O   0  0  0  0  0  0  0  0  0  0  0  0
  2  1  1  0
  3  2  1  0
  4  3  2  0
  5  3  1  0
  6  5  1  0
  7  6  1  0
  7 12  1  0
  8  7  2  0
 10  9  1  0
 11 12  1  0
 11 10  1  6
 13 15  1  0
 13 11  1  0
 14 13  2  0
M  END
$$$$
