NQR.pdb
     RDKit          3D

 29 28  0  0  1  0  0  0  0  0999 V2000
   16.8723  -15.3285   16.9248 N   0  0  0  0  0  0  0  0  0  0  0  0
   16.3598  -14.1023   16.4283 C   0  0  0  0  0  0  0  0  0  0  0  0
   17.1048  -13.3143   15.8017 O   0  0  0  0  0  0  0  0  0  0  0  0
   14.9418  -13.7481   16.6498 C   0  0  0  0  0  0  0  0  0  0  0  0
   14.2532  -14.9681   17.2419 C   0  0  2  0  0  0  0  0  0  0  0  0
   13.4657  -15.6183   16.2352 N   0  0  0  0  0  0  0  0  0  0  0  0
   13.4571  -14.6119   18.4498 C   0  0  0  0  0  0  0  0  0  0  0  0
   14.0864  -14.2662   19.4719 O   0  0  0  0  0  0  0  0  0  0  0  0
    7.9979  -11.6910   18.9930 N   0  0  0  0  0  0  0  0  0  0  0  0
    7.9573  -13.0249   18.4628 C   0  0  0  0  0  0  0  0  0  0  0  0
    6.8877  -13.3163   17.8217 O   0  0  0  0  0  0  0  0  0  0  0  0
    9.0471  -13.9896   18.6296 C   0  0  0  0  0  0  0  0  0  0  0  0
   10.1931  -13.4147   19.3679 C   0  0  0  0  0  0  0  0  0  0  0  0
   11.2874  -14.3509   19.7061 C   0  0  2  0  0  0  0  0  0  0  0  0
   12.0542  -14.6504   18.4817 N   0  0  0  0  0  0  0  0  0  0  0  0
   11.0751  -15.5244   20.5166 C   0  0  0  0  0  0  0  0  0  0  0  0
   11.0842  -16.6776   20.0283 O   0  0  0  0  0  0  0  0  0  0  0  0
   11.0652  -21.0592   26.0478 N   0  0  0  0  0  0  0  0  0  0  0  0
   12.0961  -20.3289   26.7125 C   0  0  0  0  0  0  0  0  0  0  0  0
   12.4758  -20.6186   27.9116 N   0  0  0  0  0  0  0  0  0  0  0  0
   12.7277  -19.2445   26.0614 N   0  0  0  0  0  0  0  0  0  0  0  0
   12.0907  -17.9486   26.0505 C   0  0  0  0  0  0  0  0  0  0  0  0
   11.2317  -17.9226   24.7771 C   0  0  0  0  0  0  0  0  0  0  0  0
   11.3995  -16.6899   23.9662 C   0  0  0  0  0  0  0  0  0  0  0  0
   10.5989  -16.6993   22.6995 C   0  0  2  0  0  0  0  0  0  0  0  0
   10.8371  -15.4687   21.9327 N   0  0  0  0  0  0  0  0  0  0  0  0
    9.1442  -16.7925   22.9136 C   0  0  0  0  0  0  0  0  0  0  0  0
    8.5515  -18.0124   23.1989 O   0  0  0  0  0  0  0  0  0  0  0  0
    8.4069  -15.7954   22.8470 O   0  0  0  0  0  0  0  0  0  0  0  0
  2  1  1  0
  3  2  2  0
  4  2  1  0
  5  6  1  6
  5  4  1  0
  7  5  1  0
  8  7  2  0
  9 10  1  0
 10 12  1  0
 10 11  2  0
 12 13  1  0
 14 13  1  6
 14 15  1  0
 15  7  1  0
 16 14  1  0
 16 17  2  0
 18 19  1  0
 19 20  2  0
 21 22  1  0
 21 19  1  0
 23 24  1  0
 23 22  1  0
 25 24  1  1
 25 26  1  0
 26 16  1  0
 27 25  1  0
 28 27  1  0
 29 27  2  0
M  END
$$$$
