NQR.pdb
     RDKit          3D

 29 28  0  0  1  0  0  0  0  0999 V2000
    6.6022  -13.1426   17.9765 N   0  0  0  0  0  0  0  0  0  0  0  0
    7.8489  -13.5764   17.4566 C   0  0  0  0  0  0  0  0  0  0  0  0
    8.0323  -13.6299   16.2188 O   0  0  0  0  0  0  0  0  0  0  0  0
    8.9385  -13.9692   18.3751 C   0  0  0  0  0  0  0  0  0  0  0  0
    9.5379  -15.2629   17.8459 C   0  0  2  0  0  0  0  0  0  0  0  0
    8.5455  -16.2980   17.8547 N   0  0  0  0  0  0  0  0  0  0  0  0
   10.7667  -15.6419   18.5984 C   0  0  0  0  0  0  0  0  0  0  0  0
   11.3303  -16.7099   18.2789 O   0  0  0  0  0  0  0  0  0  0  0  0
   15.2195  -15.3426   17.4568 N   0  0  0  0  0  0  0  0  0  0  0  0
   15.1977  -14.4762   18.6018 C   0  0  0  0  0  0  0  0  0  0  0  0
   16.2235  -14.5657   19.3632 O   0  0  0  0  0  0  0  0  0  0  0  0
   14.0978  -13.5526   18.8900 C   0  0  0  0  0  0  0  0  0  0  0  0
   13.4256  -13.8674   20.1699 C   0  0  0  0  0  0  0  0  0  0  0  0
   12.6392  -15.1199   20.2032 C   0  0  2  0  0  0  0  0  0  0  0  0
   11.3035  -14.8597   19.6331 N   0  0  0  0  0  0  0  0  0  0  0  0
   12.5778  -15.9609   21.3729 C   0  0  0  0  0  0  0  0  0  0  0  0
   13.6096  -16.3270   21.9809 O   0  0  0  0  0  0  0  0  0  0  0  0
   13.0150  -23.1481   23.5620 N   0  0  0  0  0  0  0  0  0  0  0  0
   12.7079  -22.6821   22.2480 C   0  0  0  0  0  0  0  0  0  0  0  0
   13.1724  -23.2594   21.1912 N   0  0  0  0  0  0  0  0  0  0  0  0
   11.8803  -21.5491   22.0744 N   0  0  0  0  0  0  0  0  0  0  0  0
   10.8539  -21.2582   23.0476 C   0  0  0  0  0  0  0  0  0  0  0  0
   11.1621  -19.8435   23.5610 C   0  0  0  0  0  0  0  0  0  0  0  0
   11.0535  -18.7911   22.5189 C   0  0  0  0  0  0  0  0  0  0  0  0
   11.3510  -17.4149   23.0320 C   0  0  2  0  0  0  0  0  0  0  0  0
   11.3440  -16.4435   21.9296 N   0  0  0  0  0  0  0  0  0  0  0  0
   12.6607  -17.2958   23.6961 C   0  0  0  0  0  0  0  0  0  0  0  0
   12.7433  -16.9205   25.0277 O   0  0  0  0  0  0  0  0  0  0  0  0
   13.7232  -17.5242   23.0952 O   0  0  0  0  0  0  0  0  0  0  0  0
  2  1  1  0
  3  2  2  0
  4  2  1  0
  5  6  1  1
  5  4  1  0
  7  5  1  0
  8  7  2  0
  9 10  1  0
 10 12  1  0
 10 11  2  0
 12 13  1  0
 14 13  1  1
 14 15  1  0
 15  7  1  0
 16 14  1  0
 16 17  2  0
 18 19  1  0
 19 20  2  0
 21 22  1  0
 21 19  1  0
 23 24  1  0
 23 22  1  0
 25 24  1  6
 25 26  1  0
 26 16  1  0
 27 25  1  0
 28 27  1  0
 29 27  2  0
M  END
$$$$
