NQR.pdb
     RDKit          3D

 29 28  0  0  1  0  0  0  0  0999 V2000
   11.8828  -15.5261   11.9682 N   0  0  0  0  0  0  0  0  0  0  0  0
   12.3153  -16.0335   13.2204 C   0  0  0  0  0  0  0  0  0  0  0  0
   12.9588  -17.1064   13.2785 O   0  0  0  0  0  0  0  0  0  0  0  0
   12.0069  -15.2974   14.4647 C   0  0  0  0  0  0  0  0  0  0  0  0
   11.5257  -16.3134   15.4891 C   0  0  2  0  0  0  0  0  0  0  0  0
   10.2821  -16.8844   15.0606 N   0  0  0  0  0  0  0  0  0  0  0  0
   11.4418  -15.7158   16.8513 C   0  0  0  0  0  0  0  0  0  0  0  0
   12.5053  -15.3169   17.3708 O   0  0  0  0  0  0  0  0  0  0  0  0
    6.5145  -12.8801   19.4889 N   0  0  0  0  0  0  0  0  0  0  0  0
    7.1514  -12.8784   18.2019 C   0  0  0  0  0  0  0  0  0  0  0  0
    6.5671  -12.1642   17.3138 O   0  0  0  0  0  0  0  0  0  0  0  0
    8.3768  -13.6263   17.9105 C   0  0  0  0  0  0  0  0  0  0  0  0
    8.9061  -14.3180   19.1066 C   0  0  0  0  0  0  0  0  0  0  0  0
   10.1832  -15.0432   18.9293 C   0  0  2  0  0  0  0  0  0  0  0  0
   10.2362  -15.5877   17.5590 N   0  0  0  0  0  0  0  0  0  0  0  0
   10.6805  -15.9792   19.9069 C   0  0  0  0  0  0  0  0  0  0  0  0
   10.7213  -17.2109   19.6844 O   0  0  0  0  0  0  0  0  0  0  0  0
   16.3855  -13.0985   19.1595 N   0  0  0  0  0  0  0  0  0  0  0  0
   15.9404  -14.3159   19.7576 C   0  0  0  0  0  0  0  0  0  0  0  0
   15.5625  -15.3275   19.0506 N   0  0  0  0  0  0  0  0  0  0  0  0
   15.8934  -14.4369   21.1654 N   0  0  0  0  0  0  0  0  0  0  0  0
   15.4329  -15.6690   21.7616 C   0  0  0  0  0  0  0  0  0  0  0  0
   13.9199  -15.4908   21.9588 C   0  0  0  0  0  0  0  0  0  0  0  0
   13.1595  -16.7662   21.9444 C   0  0  0  0  0  0  0  0  0  0  0  0
   11.6857  -16.5808   22.1429 C   0  0  2  0  0  0  0  0  0  0  0  0
   11.1627  -15.5818   21.2009 N   0  0  0  0  0  0  0  0  0  0  0  0
   11.3184  -16.1246   23.4947 C   0  0  0  0  0  0  0  0  0  0  0  0
   11.6472  -16.8830   24.6072 O   0  0  0  0  0  0  0  0  0  0  0  0
   10.7094  -15.0589   23.6838 O   0  0  0  0  0  0  0  0  0  0  0  0
  2  1  1  0
  3  2  2  0
  4  2  1  0
  5  6  1  6
  5  4  1  0
  7  5  1  0
  8  7  2  0
  9 10  1  0
 10 12  1  0
 10 11  2  0
 12 13  1  0
 14 13  1  1
 14 15  1  0
 15  7  1  0
 16 14  1  0
 16 17  2  0
 18 19  1  0
 19 20  2  0
 21 22  1  0
 21 19  1  0
 23 24  1  0
 23 22  1  0
 25 24  1  1
 25 26  1  0
 26 16  1  0
 27 25  1  0
 28 27  1  0
 29 27  2  0
M  END
$$$$
