NQR.pdb
     RDKit          3D

 29 28  0  0  1  0  0  0  0  0999 V2000
    1.5564  -19.4890   21.6254 N   0  0  0  0  0  0  0  0  0  0  0  0
    2.1802  -19.5790   20.3545 C   0  0  0  0  0  0  0  0  0  0  0  0
    1.5634  -20.0715   19.3821 O   0  0  0  0  0  0  0  0  0  0  0  0
    3.5641  -19.0923   20.1722 C   0  0  0  0  0  0  0  0  0  0  0  0
    4.0458  -18.5706   21.5171 C   0  0  2  0  0  0  0  0  0  0  0  0
    3.0363  -17.7400   22.1064 N   0  0  0  0  0  0  0  0  0  0  0  0
    5.3581  -17.8761   21.3939 C   0  0  0  0  0  0  0  0  0  0  0  0
    6.3688  -18.5856   21.2061 O   0  0  0  0  0  0  0  0  0  0  0  0
    7.2110  -12.8002   18.3259 N   0  0  0  0  0  0  0  0  0  0  0  0
    8.3123  -13.4560   18.9734 C   0  0  0  0  0  0  0  0  0  0  0  0
    9.4226  -13.3961   18.3380 O   0  0  0  0  0  0  0  0  0  0  0  0
    8.1941  -14.1416   20.2625 C   0  0  0  0  0  0  0  0  0  0  0  0
    6.9186  -14.8812   20.3863 C   0  0  0  0  0  0  0  0  0  0  0  0
    6.8195  -15.8260   21.5202 C   0  0  2  0  0  0  0  0  0  0  0  0
    5.4985  -16.4821   21.4803 N   0  0  0  0  0  0  0  0  0  0  0  0
    7.2079  -15.4649   22.8610 C   0  0  0  0  0  0  0  0  0  0  0  0
    6.3756  -15.0660   23.7074 O   0  0  0  0  0  0  0  0  0  0  0  0
    7.9508  -22.1027   27.3310 N   0  0  0  0  0  0  0  0  0  0  0  0
    8.1537  -21.0363   28.2582 C   0  0  0  0  0  0  0  0  0  0  0  0
    8.0850  -21.2168   29.5344 N   0  0  0  0  0  0  0  0  0  0  0  0
    8.4291  -19.7320   27.7875 N   0  0  0  0  0  0  0  0  0  0  0  0
    8.0066  -19.3470   26.4613 C   0  0  0  0  0  0  0  0  0  0  0  0
    8.5638  -17.9317   26.2463 C   0  0  0  0  0  0  0  0  0  0  0  0
    8.2820  -17.3751   24.8986 C   0  0  0  0  0  0  0  0  0  0  0  0
    8.8638  -16.0106   24.6864 C   0  0  2  0  0  0  0  0  0  0  0  0
    8.5645  -15.5302   23.3305 N   0  0  0  0  0  0  0  0  0  0  0  0
   10.3276  -15.9549   24.8443 C   0  0  0  0  0  0  0  0  0  0  0  0
   10.8955  -15.8234   26.1017 O   0  0  0  0  0  0  0  0  0  0  0  0
   11.0948  -16.0228   23.8702 O   0  0  0  0  0  0  0  0  0  0  0  0
  2  1  1  0
  3  2  2  0
  4  2  1  0
  5  6  1  6
  5  4  1  0
  7  5  1  0
  8  7  2  0
  9 10  1  0
 10 12  1  0
 10 11  2  0
 12 13  1  0
 14 13  1  6
 14 15  1  0
 15  7  1  0
 16 14  1  0
 16 17  2  0
 18 19  1  0
 19 20  2  0
 21 22  1  0
 21 19  1  0
 23 24  1  0
 23 22  1  0
 25 24  1  6
 25 26  1  0
 26 16  1  0
 27 25  1  0
 28 27  1  0
 29 27  2  0
M  END
$$$$
