NQR.pdb
     RDKit          3D

 29 28  0  0  1  0  0  0  0  0999 V2000
    6.2790  -19.6596   12.6934 N   0  0  0  0  0  0  0  0  0  0  0  0
    6.3682  -18.6053   13.6384 C   0  0  0  0  0  0  0  0  0  0  0  0
    5.4127  -17.8096   13.7884 O   0  0  0  0  0  0  0  0  0  0  0  0
    7.5921  -18.4399   14.4507 C   0  0  0  0  0  0  0  0  0  0  0  0
    8.0628  -17.0038   14.2805 C   0  0  2  0  0  0  0  0  0  0  0  0
    8.8999  -16.9006   13.1208 N   0  0  0  0  0  0  0  0  0  0  0  0
    8.7290  -16.4989   15.5138 C   0  0  0  0  0  0  0  0  0  0  0  0
    9.9779  -16.4876   15.5293 O   0  0  0  0  0  0  0  0  0  0  0  0
    6.3028  -12.5402   19.7066 N   0  0  0  0  0  0  0  0  0  0  0  0
    7.5629  -12.9057   20.2905 C   0  0  0  0  0  0  0  0  0  0  0  0
    7.9057  -12.2089   21.3089 O   0  0  0  0  0  0  0  0  0  0  0  0
    8.4022  -13.9908   19.7768 C   0  0  0  0  0  0  0  0  0  0  0  0
    7.8564  -14.5776   18.5331 C   0  0  0  0  0  0  0  0  0  0  0  0
    8.6993  -15.5941   17.8664 C   0  0  2  0  0  0  0  0  0  0  0  0
    8.0196  -16.0454   16.6370 N   0  0  0  0  0  0  0  0  0  0  0  0
    9.3045  -16.6867   18.5867 C   0  0  0  0  0  0  0  0  0  0  0  0
    8.7908  -17.8286   18.6128 O   0  0  0  0  0  0  0  0  0  0  0  0
   13.6808  -22.0124   19.1068 N   0  0  0  0  0  0  0  0  0  0  0  0
   14.4712  -21.8838   20.2886 C   0  0  0  0  0  0  0  0  0  0  0  0
   14.8008  -22.9050   21.0059 N   0  0  0  0  0  0  0  0  0  0  0  0
   14.9091  -20.6079   20.7118 N   0  0  0  0  0  0  0  0  0  0  0  0
   14.5274  -19.4358   19.9597 C   0  0  0  0  0  0  0  0  0  0  0  0
   13.1076  -19.0878   20.4317 C   0  0  0  0  0  0  0  0  0  0  0  0
   12.4994  -17.9424   19.7082 C   0  0  0  0  0  0  0  0  0  0  0  0
   11.0697  -17.6952   20.0830 C   0  0  2  0  0  0  0  0  0  0  0  0
   10.5300  -16.5575   19.3259 N   0  0  0  0  0  0  0  0  0  0  0  0
   10.8714  -17.3892   21.5105 C   0  0  0  0  0  0  0  0  0  0  0  0
   11.0957  -18.3580   22.4759 O   0  0  0  0  0  0  0  0  0  0  0  0
   10.5013  -16.2678   21.8950 O   0  0  0  0  0  0  0  0  0  0  0  0
  2  1  1  0
  3  2  2  0
  4  2  1  0
  5  6  1  6
  5  4  1  0
  7  5  1  0
  8  7  2  0
  9 10  1  0
 10 12  1  0
 10 11  2  0
 12 13  1  0
 14 13  1  1
 14 15  1  0
 15  7  1  0
 16 14  1  0
 16 17  2  0
 18 19  1  0
 19 20  2  0
 21 22  1  0
 21 19  1  0
 23 24  1  0
 23 22  1  0
 25 24  1  1
 25 26  1  0
 26 16  1  0
 27 25  1  0
 28 27  1  0
 29 27  2  0
M  END
$$$$
