NQR.pdb
     RDKit          3D

 29 28  0  0  1  0  0  0  0  0999 V2000
    7.2233  -11.9827   18.9046 N   0  0  0  0  0  0  0  0  0  0  0  0
    7.5205  -13.2194   18.2763 C   0  0  0  0  0  0  0  0  0  0  0  0
    7.6453  -13.2811   17.0316 O   0  0  0  0  0  0  0  0  0  0  0  0
    7.6832  -14.4433   19.0892 C   0  0  0  0  0  0  0  0  0  0  0  0
    9.1494  -14.5395   19.4817 C   0  0  2  0  0  0  0  0  0  0  0  0
    9.9766  -14.2784   18.3399 N   0  0  0  0  0  0  0  0  0  0  0  0
    9.4568  -15.8483   20.1238 C   0  0  0  0  0  0  0  0  0  0  0  0
    8.6925  -16.2369   21.0322 O   0  0  0  0  0  0  0  0  0  0  0  0
   10.6693  -21.5143   20.3396 N   0  0  0  0  0  0  0  0  0  0  0  0
   10.0022  -20.8686   19.2440 C   0  0  0  0  0  0  0  0  0  0  0  0
    9.0929  -21.5713   18.6788 O   0  0  0  0  0  0  0  0  0  0  0  0
   10.3214  -19.5107   18.7966 C   0  0  0  0  0  0  0  0  0  0  0  0
   11.3914  -18.8922   19.6099 C   0  0  0  0  0  0  0  0  0  0  0  0
   10.9685  -17.8222   20.5397 C   0  0  2  0  0  0  0  0  0  0  0  0
   10.5521  -16.6447   19.7541 N   0  0  0  0  0  0  0  0  0  0  0  0
   11.7443  -17.4570   21.6989 C   0  0  0  0  0  0  0  0  0  0  0  0
   12.2375  -16.3137   21.8329 O   0  0  0  0  0  0  0  0  0  0  0  0
    7.7661  -14.1752   27.7247 N   0  0  0  0  0  0  0  0  0  0  0  0
    9.0613  -14.4010   28.2807 C   0  0  0  0  0  0  0  0  0  0  0  0
    9.4713  -13.7794   29.3349 N   0  0  0  0  0  0  0  0  0  0  0  0
    9.9434  -15.3213   27.6692 N   0  0  0  0  0  0  0  0  0  0  0  0
    9.7617  -15.6696   26.2796 C   0  0  0  0  0  0  0  0  0  0  0  0
   10.8426  -16.7173   25.9730 C   0  0  0  0  0  0  0  0  0  0  0  0
   10.8369  -17.1897   24.5652 C   0  0  0  0  0  0  0  0  0  0  0  0
   12.1100  -17.8699   24.1622 C   0  0  2  0  0  0  0  0  0  0  0  0
   12.0136  -18.3629   22.7814 N   0  0  0  0  0  0  0  0  0  0  0  0
   12.4605  -19.0271   25.0039 C   0  0  0  0  0  0  0  0  0  0  0  0
   13.1333  -18.8479   26.2023 O   0  0  0  0  0  0  0  0  0  0  0  0
   12.1700  -20.1888   24.6747 O   0  0  0  0  0  0  0  0  0  0  0  0
  2  1  1  0
  3  2  2  0
  4  2  1  0
  5  6  1  6
  5  4  1  0
  7  5  1  0
  8  7  2  0
  9 10  1  0
 10 12  1  0
 10 11  2  0
 12 13  1  0
 14 13  1  6
 14 15  1  0
 15  7  1  0
 16 14  1  0
 16 17  2  0
 18 19  1  0
 19 20  2  0
 21 22  1  0
 21 19  1  0
 23 24  1  0
 23 22  1  0
 25 24  1  1
 25 26  1  0
 26 16  1  0
 27 25  1  0
 28 27  1  0
 29 27  2  0
M  END
$$$$
