NQR.pdb
     RDKit          3D

 29 28  0  0  1  0  0  0  0  0999 V2000
    7.1905  -13.0790   16.7800 N   0  0  0  0  0  0  0  0  0  0  0  0
    8.3430  -13.5459   17.4628 C   0  0  0  0  0  0  0  0  0  0  0  0
    9.4542  -13.5653   16.8852 O   0  0  0  0  0  0  0  0  0  0  0  0
    8.2372  -14.0137   18.8610 C   0  0  0  0  0  0  0  0  0  0  0  0
    9.6457  -14.3136   19.3502 C   0  0  2  0  0  0  0  0  0  0  0  0
   10.4477  -14.7897   18.2611 N   0  0  0  0  0  0  0  0  0  0  0  0
    9.6326  -15.2545   20.5053 C   0  0  0  0  0  0  0  0  0  0  0  0
    8.7389  -15.0985   21.3640 O   0  0  0  0  0  0  0  0  0  0  0  0
    8.4408  -20.1427   21.8526 N   0  0  0  0  0  0  0  0  0  0  0  0
    8.7899  -19.7680   20.5110 C   0  0  0  0  0  0  0  0  0  0  0  0
    7.9861  -20.1911   19.6082 O   0  0  0  0  0  0  0  0  0  0  0  0
    9.9680  -18.9617   20.1824 C   0  0  0  0  0  0  0  0  0  0  0  0
   10.7327  -18.5738   21.3882 C   0  0  0  0  0  0  0  0  0  0  0  0
   10.5709  -17.1750   21.8416 C   0  0  2  0  0  0  0  0  0  0  0  0
   10.5688  -16.2885   20.6621 N   0  0  0  0  0  0  0  0  0  0  0  0
   11.3342  -16.6255   22.9345 C   0  0  0  0  0  0  0  0  0  0  0  0
   12.3783  -17.1741   23.3554 O   0  0  0  0  0  0  0  0  0  0  0  0
    5.9383  -12.4570   27.4612 N   0  0  0  0  0  0  0  0  0  0  0  0
    6.2834  -12.0018   26.1529 C   0  0  0  0  0  0  0  0  0  0  0  0
    6.4357  -10.7490   25.8823 N   0  0  0  0  0  0  0  0  0  0  0  0
    6.4587  -12.9324   25.1031 N   0  0  0  0  0  0  0  0  0  0  0  0
    6.5427  -14.3421   25.4047 C   0  0  0  0  0  0  0  0  0  0  0  0
    8.0242  -14.6104   25.7101 C   0  0  0  0  0  0  0  0  0  0  0  0
    8.7418  -15.3194   24.6204 C   0  0  0  0  0  0  0  0  0  0  0  0
   10.2085  -15.4802   24.8821 C   0  0  2  0  0  0  0  0  0  0  0  0
   10.9641  -15.4199   23.6234 N   0  0  0  0  0  0  0  0  0  0  0  0
   10.5627  -16.7548   25.5306 C   0  0  0  0  0  0  0  0  0  0  0  0
   11.4633  -16.7825   26.5837 O   0  0  0  0  0  0  0  0  0  0  0  0
   10.0739  -17.8354   25.1623 O   0  0  0  0  0  0  0  0  0  0  0  0
  2  1  1  0
  3  2  2  0
  4  2  1  0
  5  6  1  6
  5  4  1  0
  7  5  1  0
  8  7  2  0
  9 10  1  0
 10 12  1  0
 10 11  2  0
 12 13  1  0
 14 13  1  6
 14 15  1  0
 15  7  1  0
 16 14  1  0
 16 17  2  0
 18 19  1  0
 19 20  2  0
 21 22  1  0
 21 19  1  0
 23 24  1  0
 23 22  1  0
 25 24  1  6
 25 26  1  0
 26 16  1  0
 27 25  1  0
 28 27  1  0
 29 27  2  0
M  END
$$$$
