NQR.pdb
     RDKit          3D

 29 28  0  0  1  0  0  0  0  0999 V2000
    6.8933  -14.9816   16.4984 N   0  0  0  0  0  0  0  0  0  0  0  0
    8.3085  -14.9440   16.5903 C   0  0  0  0  0  0  0  0  0  0  0  0
    9.0109  -15.0420   15.5580 O   0  0  0  0  0  0  0  0  0  0  0  0
    8.9616  -14.7899   17.9075 C   0  0  0  0  0  0  0  0  0  0  0  0
    8.0155  -13.9981   18.7968 C   0  0  2  0  0  0  0  0  0  0  0  0
    7.9077  -12.6518   18.3149 N   0  0  0  0  0  0  0  0  0  0  0  0
    8.4293  -14.0628   20.2265 C   0  0  0  0  0  0  0  0  0  0  0  0
    9.6219  -13.8036   20.4924 O   0  0  0  0  0  0  0  0  0  0  0  0
    5.5264  -12.5839   26.1760 N   0  0  0  0  0  0  0  0  0  0  0  0
    5.9522  -13.9048   25.8072 C   0  0  0  0  0  0  0  0  0  0  0  0
    5.1971  -14.8500   26.2274 O   0  0  0  0  0  0  0  0  0  0  0  0
    7.1521  -14.1691   25.0095 C   0  0  0  0  0  0  0  0  0  0  0  0
    6.8807  -14.1082   23.5563 C   0  0  0  0  0  0  0  0  0  0  0  0
    7.9911  -14.5148   22.6674 C   0  0  2  0  0  0  0  0  0  0  0  0
    7.5467  -14.3984   21.2653 N   0  0  0  0  0  0  0  0  0  0  0  0
    8.7637  -15.7105   22.8964 C   0  0  0  0  0  0  0  0  0  0  0  0
    8.7080  -16.6938   22.1230 O   0  0  0  0  0  0  0  0  0  0  0  0
   16.2060  -14.3980   20.2672 N   0  0  0  0  0  0  0  0  0  0  0  0
   16.2458  -15.7626   20.6842 C   0  0  0  0  0  0  0  0  0  0  0  0
   17.2175  -16.5486   20.3619 N   0  0  0  0  0  0  0  0  0  0  0  0
   15.1948  -16.2946   21.4660 N   0  0  0  0  0  0  0  0  0  0  0  0
   14.0067  -15.5069   21.6968 C   0  0  0  0  0  0  0  0  0  0  0  0
   13.0379  -16.4331   22.4475 C   0  0  0  0  0  0  0  0  0  0  0  0
   11.7142  -15.8189   22.7232 C   0  0  0  0  0  0  0  0  0  0  0  0
   10.9724  -16.4850   23.8420 C   0  0  2  0  0  0  0  0  0  0  0  0
    9.6488  -15.8714   24.0170 N   0  0  0  0  0  0  0  0  0  0  0  0
   11.6560  -16.4013   25.1444 C   0  0  0  0  0  0  0  0  0  0  0  0
   12.6140  -17.3383   25.4981 O   0  0  0  0  0  0  0  0  0  0  0  0
   11.4021  -15.5008   25.9610 O   0  0  0  0  0  0  0  0  0  0  0  0
  2  1  1  0
  3  2  2  0
  4  2  1  0
  5  6  1  6
  5  4  1  0
  7  5  1  0
  8  7  2  0
  9 10  1  0
 10 12  1  0
 10 11  2  0
 12 13  1  0
 14 13  1  1
 14 15  1  0
 15  7  1  0
 16 14  1  0
 16 17  2  0
 18 19  1  0
 19 20  2  0
 21 22  1  0
 21 19  1  0
 23 24  1  0
 23 22  1  0
 25 24  1  6
 25 26  1  0
 26 16  1  0
 27 25  1  0
 28 27  1  0
 29 27  2  0
M  END
$$$$
