NQR.pdb
     RDKit          3D

 29 28  0  0  1  0  0  0  0  0999 V2000
   10.8576  -20.4383   19.6708 N   0  0  0  0  0  0  0  0  0  0  0  0
   10.5355  -19.6015   18.5715 C   0  0  0  0  0  0  0  0  0  0  0  0
   10.7476  -19.9892   17.3996 O   0  0  0  0  0  0  0  0  0  0  0  0
    9.9482  -18.2651   18.8048 C   0  0  0  0  0  0  0  0  0  0  0  0
    9.7272  -18.1182   20.3023 C   0  0  2  0  0  0  0  0  0  0  0  0
    8.4955  -18.7499   20.6764 N   0  0  0  0  0  0  0  0  0  0  0  0
    9.7897  -16.6909   20.7249 C   0  0  0  0  0  0  0  0  0  0  0  0
   10.8677  -16.0853   20.5476 O   0  0  0  0  0  0  0  0  0  0  0  0
    7.2786  -11.6863   19.0664 N   0  0  0  0  0  0  0  0  0  0  0  0
    7.2379  -13.1155   18.9323 C   0  0  0  0  0  0  0  0  0  0  0  0
    7.1181  -13.5394   17.7299 O   0  0  0  0  0  0  0  0  0  0  0  0
    7.3289  -14.0325   20.0711 C   0  0  0  0  0  0  0  0  0  0  0  0
    8.4039  -13.6484   21.0123 C   0  0  0  0  0  0  0  0  0  0  0  0
    8.8538  -14.6981   21.9526 C   0  0  2  0  0  0  0  0  0  0  0  0
    8.7043  -16.0150   21.3043 N   0  0  0  0  0  0  0  0  0  0  0  0
    8.4444  -14.7219   23.3350 C   0  0  0  0  0  0  0  0  0  0  0  0
    7.2987  -14.3649   23.6930 O   0  0  0  0  0  0  0  0  0  0  0  0
    5.9613  -22.1071   24.3440 N   0  0  0  0  0  0  0  0  0  0  0  0
    6.1101  -21.7023   25.7049 C   0  0  0  0  0  0  0  0  0  0  0  0
    5.6596  -22.4132   26.6834 N   0  0  0  0  0  0  0  0  0  0  0  0
    6.7580  -20.4844   26.0141 N   0  0  0  0  0  0  0  0  0  0  0  0
    7.0863  -19.5605   24.9539 C   0  0  0  0  0  0  0  0  0  0  0  0
    7.7459  -18.3577   25.6454 C   0  0  0  0  0  0  0  0  0  0  0  0
    8.2284  -17.3157   24.7037 C   0  0  0  0  0  0  0  0  0  0  0  0
    8.8403  -16.1326   25.3904 C   0  0  2  0  0  0  0  0  0  0  0  0
    9.3060  -15.1499   24.4023 N   0  0  0  0  0  0  0  0  0  0  0  0
    9.9990  -16.4672   26.2367 C   0  0  0  0  0  0  0  0  0  0  0  0
    9.8330  -16.7208   27.5892 O   0  0  0  0  0  0  0  0  0  0  0  0
   11.1501  -16.5333   25.7754 O   0  0  0  0  0  0  0  0  0  0  0  0
  2  1  1  0
  3  2  2  0
  4  2  1  0
  5  6  1  6
  5  4  1  0
  7  5  1  0
  8  7  2  0
  9 10  1  0
 10 12  1  0
 10 11  2  0
 12 13  1  0
 14 13  1  6
 14 15  1  0
 15  7  1  0
 16 14  1  0
 16 17  2  0
 18 19  1  0
 19 20  2  0
 21 22  1  0
 21 19  1  0
 23 24  1  0
 23 22  1  0
 25 24  1  6
 25 26  1  0
 26 16  1  0
 27 25  1  0
 28 27  1  0
 29 27  2  0
M  END
$$$$
