NQR.pdb
     RDKit          3D

 29 28  0  0  1  0  0  0  0  0999 V2000
   16.4560  -16.3577   16.5077 N   0  0  0  0  0  0  0  0  0  0  0  0
   16.4205  -14.9629   16.2517 C   0  0  0  0  0  0  0  0  0  0  0  0
   17.2288  -14.4484   15.4450 O   0  0  0  0  0  0  0  0  0  0  0  0
   15.4285  -14.1085   16.9381 C   0  0  0  0  0  0  0  0  0  0  0  0
   14.3912  -15.0267   17.5656 C   0  0  2  0  0  0  0  0  0  0  0  0
   13.7945  -15.8494   16.5541 N   0  0  0  0  0  0  0  0  0  0  0  0
   13.3821  -14.2564   18.3454 C   0  0  0  0  0  0  0  0  0  0  0  0
   13.8053  -13.5014   19.2461 O   0  0  0  0  0  0  0  0  0  0  0  0
    7.0024  -14.5510   17.6903 N   0  0  0  0  0  0  0  0  0  0  0  0
    7.3291  -13.8008   18.8704 C   0  0  0  0  0  0  0  0  0  0  0  0
    6.4408  -13.8349   19.7923 O   0  0  0  0  0  0  0  0  0  0  0  0
    8.5784  -13.0520   19.0265 C   0  0  0  0  0  0  0  0  0  0  0  0
    9.6995  -13.6773   18.2909 C   0  0  0  0  0  0  0  0  0  0  0  0
   11.0119  -13.6717   18.9735 C   0  0  2  0  0  0  0  0  0  0  0  0
   12.0010  -14.3462   18.1111 N   0  0  0  0  0  0  0  0  0  0  0  0
   11.1609  -14.0355   20.3608 C   0  0  0  0  0  0  0  0  0  0  0  0
   11.0375  -13.1970   21.2827 O   0  0  0  0  0  0  0  0  0  0  0  0
    5.7988  -14.4794   25.8928 N   0  0  0  0  0  0  0  0  0  0  0  0
    6.9208  -13.6196   26.0922 C   0  0  0  0  0  0  0  0  0  0  0  0
    6.8702  -12.6008   26.8830 N   0  0  0  0  0  0  0  0  0  0  0  0
    8.1318  -13.8656   25.4054 N   0  0  0  0  0  0  0  0  0  0  0  0
    8.1418  -14.7626   24.2737 C   0  0  0  0  0  0  0  0  0  0  0  0
    9.5917  -14.7690   23.7661 C   0  0  0  0  0  0  0  0  0  0  0  0
    9.8020  -15.6156   22.5643 C   0  0  0  0  0  0  0  0  0  0  0  0
   11.2455  -15.7703   22.1925 C   0  0  2  0  0  0  0  0  0  0  0  0
   11.4609  -15.3721   20.7946 N   0  0  0  0  0  0  0  0  0  0  0  0
   11.7518  -17.1474   22.3258 C   0  0  0  0  0  0  0  0  0  0  0  0
   12.9266  -17.4018   23.0157 O   0  0  0  0  0  0  0  0  0  0  0  0
   11.1526  -18.1165   21.8317 O   0  0  0  0  0  0  0  0  0  0  0  0
  2  1  1  0
  3  2  2  0
  4  2  1  0
  5  6  1  6
  5  4  1  0
  7  5  1  0
  8  7  2  0
  9 10  1  0
 10 12  1  0
 10 11  2  0
 12 13  1  0
 14 13  1  6
 14 15  1  0
 15  7  1  0
 16 14  1  0
 16 17  2  0
 18 19  1  0
 19 20  2  0
 21 22  1  0
 21 19  1  0
 23 24  1  0
 23 22  1  0
 25 24  1  6
 25 26  1  0
 26 16  1  0
 27 25  1  0
 28 27  1  0
 29 27  2  0
M  END
$$$$
