NQR.pdb
     RDKit          3D

 29 28  0  0  1  0  0  0  0  0999 V2000
    6.6938  -19.9656   17.8605 N   0  0  0  0  0  0  0  0  0  0  0  0
    6.5718  -20.3725   19.2141 C   0  0  0  0  0  0  0  0  0  0  0  0
    5.8422  -21.3441   19.5178 O   0  0  0  0  0  0  0  0  0  0  0  0
    7.3056  -19.6494   20.2742 C   0  0  0  0  0  0  0  0  0  0  0  0
    8.0124  -18.4727   19.6193 C   0  0  2  0  0  0  0  0  0  0  0  0
    9.1105  -18.9446   18.8270 N   0  0  0  0  0  0  0  0  0  0  0  0
    8.4287  -17.4575   20.6272 C   0  0  0  0  0  0  0  0  0  0  0  0
    9.4874  -17.6706   21.2547 O   0  0  0  0  0  0  0  0  0  0  0  0
    8.0655  -11.3613   19.9880 N   0  0  0  0  0  0  0  0  0  0  0  0
    7.7811  -12.6279   19.3739 C   0  0  0  0  0  0  0  0  0  0  0  0
    7.9674  -12.6652   18.1074 O   0  0  0  0  0  0  0  0  0  0  0  0
    7.3170  -13.7980   20.1230 C   0  0  0  0  0  0  0  0  0  0  0  0
    8.0493  -13.9717   21.3968 C   0  0  0  0  0  0  0  0  0  0  0  0
    8.0762  -15.3424   21.9525 C   0  0  2  0  0  0  0  0  0  0  0  0
    7.6896  -16.2940   20.8933 N   0  0  0  0  0  0  0  0  0  0  0  0
    7.4803  -15.6708   23.2238 C   0  0  0  0  0  0  0  0  0  0  0  0
    6.2699  -15.9743   23.3297 O   0  0  0  0  0  0  0  0  0  0  0  0
    5.6268  -21.6057   22.9718 N   0  0  0  0  0  0  0  0  0  0  0  0
    5.8145  -22.0010   24.3306 C   0  0  0  0  0  0  0  0  0  0  0  0
    4.9951  -22.7971   24.9311 N   0  0  0  0  0  0  0  0  0  0  0  0
    6.9188  -21.5101   25.0643 N   0  0  0  0  0  0  0  0  0  0  0  0
    7.8152  -20.5567   24.4539 C   0  0  0  0  0  0  0  0  0  0  0  0
    7.4844  -19.2051   25.1048 C   0  0  0  0  0  0  0  0  0  0  0  0
    8.3762  -18.0985   24.6744 C   0  0  0  0  0  0  0  0  0  0  0  0
    8.1080  -16.8083   25.3880 C   0  0  2  0  0  0  0  0  0  0  0  0
    8.2156  -15.6756   24.4583 N   0  0  0  0  0  0  0  0  0  0  0  0
    9.0365  -16.5367   26.4992 C   0  0  0  0  0  0  0  0  0  0  0  0
    8.7912  -17.0502   27.7630 O   0  0  0  0  0  0  0  0  0  0  0  0
   10.0582  -15.8476   26.3458 O   0  0  0  0  0  0  0  0  0  0  0  0
  2  1  1  0
  3  2  2  0
  4  2  1  0
  5  6  1  1
  5  4  1  0
  7  5  1  0
  8  7  2  0
  9 10  1  0
 10 12  1  0
 10 11  2  0
 12 13  1  0
 14 13  1  6
 14 15  1  0
 15  7  1  0
 16 14  1  0
 16 17  2  0
 18 19  1  0
 19 20  2  0
 21 22  1  0
 21 19  1  0
 23 24  1  0
 23 22  1  0
 25 24  1  6
 25 26  1  0
 26 16  1  0
 27 25  1  0
 28 27  1  0
 29 27  2  0
M  END
$$$$
