NQR.pdb
     RDKit          3D

 29 28  0  0  1  0  0  0  0  0999 V2000
   13.6483  -18.1055   16.0757 N   0  0  0  0  0  0  0  0  0  0  0  0
   12.2563  -17.9228   15.8723 C   0  0  0  0  0  0  0  0  0  0  0  0
   11.7656  -18.0368   14.7257 O   0  0  0  0  0  0  0  0  0  0  0  0
   11.3772  -17.5950   17.0147 C   0  0  0  0  0  0  0  0  0  0  0  0
   10.9610  -18.9068   17.6620 C   0  0  2  0  0  0  0  0  0  0  0  0
    9.9801  -19.5617   16.8464 N   0  0  0  0  0  0  0  0  0  0  0  0
   10.4954  -18.7001   19.0621 C   0  0  0  0  0  0  0  0  0  0  0  0
    9.3907  -18.1401   19.2240 O   0  0  0  0  0  0  0  0  0  0  0  0
   12.4013  -21.9653   24.0709 N   0  0  0  0  0  0  0  0  0  0  0  0
   11.6559  -20.8897   24.6623 C   0  0  0  0  0  0  0  0  0  0  0  0
   11.5490  -20.9470   25.9372 O   0  0  0  0  0  0  0  0  0  0  0  0
   11.0604  -19.8012   23.8836 C   0  0  0  0  0  0  0  0  0  0  0  0
   11.3366  -19.9345   22.4362 C   0  0  0  0  0  0  0  0  0  0  0  0
   10.7548  -18.8926   21.5621 C   0  0  2  0  0  0  0  0  0  0  0  0
   11.2376  -19.1021   20.1837 N   0  0  0  0  0  0  0  0  0  0  0  0
   10.7415  -17.4980   21.9284 C   0  0  0  0  0  0  0  0  0  0  0  0
   11.7424  -16.7620   21.7712 O   0  0  0  0  0  0  0  0  0  0  0  0
    9.2290  -14.7488   18.5228 N   0  0  0  0  0  0  0  0  0  0  0  0
    8.2455  -13.7421   18.2836 C   0  0  0  0  0  0  0  0  0  0  0  0
    8.2685  -13.0001   17.2278 N   0  0  0  0  0  0  0  0  0  0  0  0
    7.2111  -13.5260   19.2229 N   0  0  0  0  0  0  0  0  0  0  0  0
    7.5391  -13.3414   20.6170 C   0  0  0  0  0  0  0  0  0  0  0  0
    8.0548  -14.7045   21.1027 C   0  0  0  0  0  0  0  0  0  0  0  0
    8.3543  -14.7484   22.5566 C   0  0  0  0  0  0  0  0  0  0  0  0
    9.6517  -15.4273   22.8751 C   0  0  2  0  0  0  0  0  0  0  0  0
    9.5945  -16.8463   22.4982 N   0  0  0  0  0  0  0  0  0  0  0  0
   10.0153  -15.3802   24.3021 C   0  0  0  0  0  0  0  0  0  0  0  0
   10.5908  -14.2420   24.8446 O   0  0  0  0  0  0  0  0  0  0  0  0
    9.8220  -16.3449   25.0597 O   0  0  0  0  0  0  0  0  0  0  0  0
  2  1  1  0
  3  2  2  0
  4  2  1  0
  5  6  1  6
  5  4  1  0
  7  5  1  0
  8  7  2  0
  9 10  1  0
 10 12  1  0
 10 11  2  0
 12 13  1  0
 14 13  1  1
 14 15  1  0
 15  7  1  0
 16 14  1  0
 16 17  2  0
 18 19  1  0
 19 20  2  0
 21 22  1  0
 21 19  1  0
 23 24  1  0
 23 22  1  0
 25 24  1  1
 25 26  1  0
 26 16  1  0
 27 25  1  0
 28 27  1  0
 29 27  2  0
M  END
$$$$
