NQR.pdb
     RDKit          3D

 29 28  0  0  1  0  0  0  0  0999 V2000
   12.7618  -17.3236   16.7913 N   0  0  0  0  0  0  0  0  0  0  0  0
   11.6161  -17.6209   17.5734 C   0  0  0  0  0  0  0  0  0  0  0  0
   11.1869  -18.7954   17.6431 O   0  0  0  0  0  0  0  0  0  0  0  0
   10.9217  -16.5435   18.3098 C   0  0  0  0  0  0  0  0  0  0  0  0
   10.6711  -17.0447   19.7237 C   0  0  2  0  0  0  0  0  0  0  0  0
    9.6895  -18.0898   19.7024 N   0  0  0  0  0  0  0  0  0  0  0  0
   10.2999  -15.9295   20.6393 C   0  0  0  0  0  0  0  0  0  0  0  0
   11.2301  -15.3039   21.1903 O   0  0  0  0  0  0  0  0  0  0  0  0
    6.1085  -14.1527   18.9845 N   0  0  0  0  0  0  0  0  0  0  0  0
    7.3213  -13.4124   18.7766 C   0  0  0  0  0  0  0  0  0  0  0  0
    7.5643  -13.1105   17.5560 O   0  0  0  0  0  0  0  0  0  0  0  0
    8.2206  -13.0210   19.8646 C   0  0  0  0  0  0  0  0  0  0  0  0
    7.7517  -13.5108   21.1797 C   0  0  0  0  0  0  0  0  0  0  0  0
    8.6231  -14.4952   21.8580 C   0  0  2  0  0  0  0  0  0  0  0  0
    8.9703  -15.5636   20.9015 N   0  0  0  0  0  0  0  0  0  0  0  0
    8.3245  -15.0143   23.1697 C   0  0  0  0  0  0  0  0  0  0  0  0
    8.0322  -14.2638   24.1286 O   0  0  0  0  0  0  0  0  0  0  0  0
    4.3275  -20.4086   21.5961 N   0  0  0  0  0  0  0  0  0  0  0  0
    3.5892  -19.1946   21.7339 C   0  0  0  0  0  0  0  0  0  0  0  0
    2.7833  -18.7760   20.8167 N   0  0  0  0  0  0  0  0  0  0  0  0
    3.7369  -18.4045   22.8970 N   0  0  0  0  0  0  0  0  0  0  0  0
    4.6961  -18.7898   23.9053 C   0  0  0  0  0  0  0  0  0  0  0  0
    5.9536  -17.9555   23.6177 C   0  0  0  0  0  0  0  0  0  0  0  0
    7.0245  -18.1161   24.6338 C   0  0  0  0  0  0  0  0  0  0  0  0
    7.8799  -16.8959   24.7925 C   0  0  2  0  0  0  0  0  0  0  0  0
    8.3390  -16.4169   23.4815 N   0  0  0  0  0  0  0  0  0  0  0  0
    9.0847  -17.1142   25.6118 C   0  0  0  0  0  0  0  0  0  0  0  0
    9.0045  -17.1149   26.9955 O   0  0  0  0  0  0  0  0  0  0  0  0
   10.2002  -17.3029   25.0995 O   0  0  0  0  0  0  0  0  0  0  0  0
  2  1  1  0
  3  2  2  0
  4  2  1  0
  5  6  1  6
  5  4  1  0
  7  5  1  0
  8  7  2  0
  9 10  1  0
 10 12  1  0
 10 11  2  0
 12 13  1  0
 14 13  1  6
 14 15  1  0
 15  7  1  0
 16 14  1  0
 16 17  2  0
 18 19  1  0
 19 20  2  0
 21 22  1  0
 21 19  1  0
 23 24  1  0
 23 22  1  0
 25 24  1  6
 25 26  1  0
 26 16  1  0
 27 25  1  0
 28 27  1  0
 29 27  2  0
M  END
$$$$
