NQR.pdb
     RDKit          3D

 29 28  0  0  1  0  0  0  0  0999 V2000
   15.0206  -14.6092   14.5002 N   0  0  0  0  0  0  0  0  0  0  0  0
   15.4849  -14.7646   15.8317 C   0  0  0  0  0  0  0  0  0  0  0  0
   16.4248  -15.5528   16.0846 O   0  0  0  0  0  0  0  0  0  0  0  0
   14.8592  -13.9965   16.9290 C   0  0  0  0  0  0  0  0  0  0  0  0
   14.4134  -14.9931   17.9878 C   0  0  2  0  0  0  0  0  0  0  0  0
   13.9403  -16.1918   17.3589 N   0  0  0  0  0  0  0  0  0  0  0  0
   13.4072  -14.3951   18.9096 C   0  0  0  0  0  0  0  0  0  0  0  0
   13.7300  -13.3507   19.5140 O   0  0  0  0  0  0  0  0  0  0  0  0
    7.8049  -12.5123   18.1700 N   0  0  0  0  0  0  0  0  0  0  0  0
    8.1729  -13.8525   17.8087 C   0  0  0  0  0  0  0  0  0  0  0  0
    7.3787  -14.4239   16.9823 O   0  0  0  0  0  0  0  0  0  0  0  0
    9.3629  -14.5280   18.3318 C   0  0  0  0  0  0  0  0  0  0  0  0
   10.0981  -13.6897   19.3043 C   0  0  0  0  0  0  0  0  0  0  0  0
   11.1692  -14.3649   20.0693 C   0  0  2  0  0  0  0  0  0  0  0  0
   12.1357  -14.9510   19.1209 N   0  0  0  0  0  0  0  0  0  0  0  0
   10.8885  -15.2463   21.1754 C   0  0  0  0  0  0  0  0  0  0  0  0
   10.9858  -16.4906   21.0725 O   0  0  0  0  0  0  0  0  0  0  0  0
    9.8001  -14.5885   30.2082 N   0  0  0  0  0  0  0  0  0  0  0  0
   10.1646  -15.8873   29.7413 C   0  0  0  0  0  0  0  0  0  0  0  0
   10.6469  -16.7877   30.5304 N   0  0  0  0  0  0  0  0  0  0  0  0
   10.0113  -16.2171   28.3751 N   0  0  0  0  0  0  0  0  0  0  0  0
   10.1132  -15.1811   27.3743 C   0  0  0  0  0  0  0  0  0  0  0  0
    9.8743  -15.8831   26.0290 C   0  0  0  0  0  0  0  0  0  0  0  0
   10.0095  -14.9865   24.8529 C   0  0  0  0  0  0  0  0  0  0  0  0
   10.2446  -15.7230   23.5691 C   0  0  2  0  0  0  0  0  0  0  0  0
   10.4779  -14.7764   22.4698 N   0  0  0  0  0  0  0  0  0  0  0  0
    9.1202  -16.5823   23.1596 C   0  0  0  0  0  0  0  0  0  0  0  0
    8.2774  -16.1954   22.1295 O   0  0  0  0  0  0  0  0  0  0  0  0
    8.8900  -17.6691   23.7146 O   0  0  0  0  0  0  0  0  0  0  0  0
  2  1  1  0
  3  2  2  0
  4  2  1  0
  5  6  1  6
  5  4  1  0
  7  5  1  0
  8  7  2  0
  9 10  1  0
 10 12  1  0
 10 11  2  0
 12 13  1  0
 14 13  1  6
 14 15  1  0
 15  7  1  0
 16 14  1  0
 16 17  2  0
 18 19  1  0
 19 20  2  0
 21 22  1  0
 21 19  1  0
 23 24  1  0
 23 22  1  0
 25 24  1  1
 25 26  1  0
 26 16  1  0
 27 25  1  0
 28 27  1  0
 29 27  2  0
M  END
$$$$
