NQR.pdb
     RDKit          3D

 29 28  0  0  1  0  0  0  0  0999 V2000
    8.2517  -13.1348   15.9446 N   0  0  0  0  0  0  0  0  0  0  0  0
    8.9580  -14.3250   15.6333 C   0  0  0  0  0  0  0  0  0  0  0  0
    8.4157  -15.2188   14.9437 O   0  0  0  0  0  0  0  0  0  0  0  0
   10.3394  -14.5166   16.1234 C   0  0  0  0  0  0  0  0  0  0  0  0
   10.3646  -15.8086   16.9254 C   0  0  2  0  0  0  0  0  0  0  0  0
    9.2439  -15.8480   17.8191 N   0  0  0  0  0  0  0  0  0  0  0  0
   11.6651  -15.9873   17.6301 C   0  0  0  0  0  0  0  0  0  0  0  0
   12.5876  -16.5476   17.0014 O   0  0  0  0  0  0  0  0  0  0  0  0
   15.9004  -13.7460   16.6564 N   0  0  0  0  0  0  0  0  0  0  0  0
   16.4107  -14.1668   17.9311 C   0  0  0  0  0  0  0  0  0  0  0  0
   17.6596  -13.9467   18.1095 O   0  0  0  0  0  0  0  0  0  0  0  0
   15.5808  -14.7969   18.9607 C   0  0  0  0  0  0  0  0  0  0  0  0
   14.1570  -14.8669   18.5643 C   0  0  0  0  0  0  0  0  0  0  0  0
   13.2390  -15.4982   19.5374 C   0  0  2  0  0  0  0  0  0  0  0  0
   11.8876  -15.5588   18.9482 N   0  0  0  0  0  0  0  0  0  0  0  0
   13.2102  -15.1190   20.9283 C   0  0  0  0  0  0  0  0  0  0  0  0
   13.4585  -13.9497   21.3017 O   0  0  0  0  0  0  0  0  0  0  0  0
    6.4071  -13.7228   18.5979 N   0  0  0  0  0  0  0  0  0  0  0  0
    7.3110  -13.4743   19.6745 C   0  0  0  0  0  0  0  0  0  0  0  0
    7.6424  -12.2778   20.0274 N   0  0  0  0  0  0  0  0  0  0  0  0
    7.8815  -14.5561   20.3837 N   0  0  0  0  0  0  0  0  0  0  0  0
    8.7242  -14.2958   21.5271 C   0  0  0  0  0  0  0  0  0  0  0  0
    9.1661  -15.6764   22.0358 C   0  0  0  0  0  0  0  0  0  0  0  0
   10.5032  -16.0961   21.5447 C   0  0  0  0  0  0  0  0  0  0  0  0
   11.5650  -16.0498   22.6013 C   0  0  2  0  0  0  0  0  0  0  0  0
   12.8998  -16.0394   21.9873 N   0  0  0  0  0  0  0  0  0  0  0  0
   11.5326  -17.1928   23.5302 C   0  0  0  0  0  0  0  0  0  0  0  0
   11.1469  -17.0168   24.8498 O   0  0  0  0  0  0  0  0  0  0  0  0
   11.8453  -18.3393   23.1697 O   0  0  0  0  0  0  0  0  0  0  0  0
  2  1  1  0
  3  2  2  0
  4  2  1  0
  5  6  1  1
  5  4  1  0
  7  5  1  0
  8  7  2  0
  9 10  1  0
 10 12  1  0
 10 11  2  0
 12 13  1  0
 14 13  1  6
 14 15  1  0
 15  7  1  0
 16 14  1  0
 16 17  2  0
 18 19  1  0
 19 20  2  0
 21 22  1  0
 21 19  1  0
 23 24  1  0
 23 22  1  0
 25 24  1  6
 25 26  1  0
 26 16  1  0
 27 25  1  0
 28 27  1  0
 29 27  2  0
M  END
$$$$
