VMK.pdb
     RDKit          3D

 25 24  0  0  1  0  0  0  0  0999 V2000
   19.6865  -14.2215  -16.6693 C   0  0  0  0  0  0  0  0  0  0  0  0
   18.4626  -13.4670  -16.2468 C   0  0  2  0  0  0  0  0  0  0  0  0
   17.1804  -14.0861  -16.7378 C   0  0  0  0  0  0  0  0  0  0  0  0
   18.5377  -11.9937  -16.6198 C   0  0  2  0  0  0  0  0  0  0  0  0
   18.7080  -11.9814  -18.0711 N   0  0  0  0  0  0  0  0  0  0  0  0
   19.7291  -11.4159  -15.9450 C   0  0  0  0  0  0  0  0  0  0  0  0
   19.7587  -11.2730  -14.6720 O   0  0  0  0  0  0  0  0  0  0  0  0
   27.3458  -10.4585  -15.1636 C   0  0  0  0  0  0  0  0  0  0  0  0
   26.0150  -11.0674  -16.2273 S   0  0  0  0  0  0  0  0  0  0  0  0
   24.4329  -10.3936  -15.6089 C   0  0  0  0  0  0  0  0  0  0  0  0
   23.3002  -10.9377  -16.4151 C   0  0  0  0  0  0  0  0  0  0  0  0
   21.9729  -10.3453  -15.9214 C   0  0  2  0  0  0  0  0  0  0  0  0
   20.8997  -10.9874  -16.6280 N   0  0  0  0  0  0  0  0  0  0  0  0
   22.0226   -8.8747  -16.1078 C   0  0  0  0  0  0  0  0  0  0  0  0
   21.8812   -8.4950  -17.3232 O   0  0  0  0  0  0  0  0  0  0  0  0
   22.2088   -7.9694  -15.0431 N   0  0  0  0  0  0  0  0  0  0  0  0
   21.9438   -6.5675  -15.2360 C   0  0  1  0  0  0  0  0  0  0  0  0
   20.5164   -6.4573  -15.6597 C   0  0  0  0  0  0  0  0  0  0  0  0
   19.9272   -5.1037  -15.6680 C   0  0  0  0  0  0  0  0  0  0  0  0
   18.8077   -4.8752  -16.6324 C   0  0  0  0  0  0  0  0  0  0  0  0
   18.4240   -3.4068  -16.5763 C   0  0  0  0  0  0  0  0  0  0  0  0
   17.2082   -3.1777  -17.3394 N   0  0  0  0  0  0  0  0  0  0  0  0
   22.3228   -5.8197  -14.0566 C   0  0  0  0  0  0  0  0  0  0  0  0
   22.8531   -4.5304  -14.2386 O   0  0  0  0  0  0  0  0  0  0  0  0
   22.2320   -6.1956  -12.8655 O   0  0  0  0  0  0  0  0  0  0  0  0
  2  4  1  0
  2  1  1  6
  3  2  1  0
  4  5  1  6
  6  4  1  0
  6  7  2  0
  9  8  1  0
 10  9  1  0
 11 10  1  0
 12 11  1  6
 13 12  1  0
 13  6  1  0
 14 15  2  0
 14 12  1  0
 16 14  1  0
 17 16  1  0
 17 23  1  0
 17 18  1  1
 19 18  1  0
 20 19  1  0
 21 22  1  0
 21 20  1  0
 23 24  1  0
 25 23  2  0
M  END
$$$$
