VMK.pdb
     RDKit          3D

 25 24  0  0  1  0  0  0  0  0999 V2000
   17.0588  -12.0767  -16.2143 C   0  0  0  0  0  0  0  0  0  0  0  0
   17.8176  -12.1776  -17.5026 C   0  0  2  0  0  0  0  0  0  0  0  0
   17.0422  -12.8572  -18.6004 C   0  0  0  0  0  0  0  0  0  0  0  0
   19.1836  -12.8220  -17.3167 C   0  0  2  0  0  0  0  0  0  0  0  0
   18.9017  -14.1556  -16.7901 N   0  0  0  0  0  0  0  0  0  0  0  0
   19.9350  -12.0116  -16.3231 C   0  0  0  0  0  0  0  0  0  0  0  0
   20.0219  -12.3856  -15.1006 O   0  0  0  0  0  0  0  0  0  0  0  0
   26.1203  -10.6376  -15.7399 C   0  0  0  0  0  0  0  0  0  0  0  0
   25.3428   -9.0077  -15.8488 S   0  0  0  0  0  0  0  0  0  0  0  0
   23.6320   -9.1454  -15.2213 C   0  0  0  0  0  0  0  0  0  0  0  0
   22.7739   -9.8292  -16.2337 C   0  0  0  0  0  0  0  0  0  0  0  0
   21.3866  -10.1121  -15.6404 C   0  0  2  0  0  0  0  0  0  0  0  0
   20.6010  -10.7942  -16.6308 N   0  0  0  0  0  0  0  0  0  0  0  0
   20.8031   -8.8254  -15.1892 C   0  0  0  0  0  0  0  0  0  0  0  0
   20.3011   -8.1179  -16.1320 O   0  0  0  0  0  0  0  0  0  0  0  0
   20.7985   -8.4126  -13.8411 N   0  0  0  0  0  0  0  0  0  0  0  0
   20.0889   -7.2205  -13.4560 C   0  0  1  0  0  0  0  0  0  0  0  0
   19.2996   -7.5685  -12.2375 C   0  0  0  0  0  0  0  0  0  0  0  0
   18.4925   -6.4884  -11.6363 C   0  0  0  0  0  0  0  0  0  0  0  0
   17.6766   -6.8595  -10.4397 C   0  0  0  0  0  0  0  0  0  0  0  0
   16.7326   -5.7101  -10.1327 C   0  0  0  0  0  0  0  0  0  0  0  0
   16.0766   -5.9291   -8.8541 N   0  0  0  0  0  0  0  0  0  0  0  0
   21.0078   -6.1098  -13.3301 C   0  0  0  0  0  0  0  0  0  0  0  0
   20.5216   -4.8203  -13.6079 O   0  0  0  0  0  0  0  0  0  0  0  0
   22.2134   -6.1645  -12.9954 O   0  0  0  0  0  0  0  0  0  0  0  0
  2  4  1  0
  2  1  1  1
  3  2  1  0
  4  5  1  1
  6  4  1  0
  6  7  2  0
  9  8  1  0
 10  9  1  0
 11 10  1  0
 12 11  1  6
 13 12  1  0
 13  6  1  0
 14 15  2  0
 14 12  1  0
 16 14  1  0
 17 16  1  0
 17 23  1  0
 17 18  1  1
 19 18  1  0
 20 19  1  0
 21 22  1  0
 21 20  1  0
 23 24  1  0
 25 23  2  0
M  END
$$$$
