VMK.pdb
     RDKit          3D

 25 24  0  0  1  0  0  0  0  0999 V2000
   17.3940  -16.0414  -17.9978 C   0  0  0  0  0  0  0  0  0  0  0  0
   18.7619  -15.4743  -17.7675 C   0  0  2  0  0  0  0  0  0  0  0  0
   19.1992  -15.5365  -16.3277 C   0  0  0  0  0  0  0  0  0  0  0  0
   18.9008  -14.0640  -18.3220 C   0  0  2  0  0  0  0  0  0  0  0  0
   19.5862  -14.2290  -19.6020 N   0  0  0  0  0  0  0  0  0  0  0  0
   19.7379  -13.2848  -17.3731 C   0  0  0  0  0  0  0  0  0  0  0  0
   19.3201  -13.0223  -16.1906 O   0  0  0  0  0  0  0  0  0  0  0  0
   26.8599  -10.9548  -15.0916 C   0  0  0  0  0  0  0  0  0  0  0  0
   25.8925  -11.8645  -16.3203 S   0  0  0  0  0  0  0  0  0  0  0  0
   24.1198  -11.6210  -15.9490 C   0  0  0  0  0  0  0  0  0  0  0  0
   23.2868  -12.3434  -16.9557 C   0  0  0  0  0  0  0  0  0  0  0  0
   21.7986  -12.0670  -16.7006 C   0  0  2  0  0  0  0  0  0  0  0  0
   21.0305  -12.7810  -17.6823 N   0  0  0  0  0  0  0  0  0  0  0  0
   21.5884  -10.5990  -16.7217 C   0  0  0  0  0  0  0  0  0  0  0  0
   21.6583  -10.0759  -17.8891 O   0  0  0  0  0  0  0  0  0  0  0  0
   21.3333   -9.8408  -15.5606 N   0  0  0  0  0  0  0  0  0  0  0  0
   21.0775   -8.4279  -15.6657 C   0  0  1  0  0  0  0  0  0  0  0  0
   19.6064   -8.2745  -15.8687 C   0  0  0  0  0  0  0  0  0  0  0  0
   19.0906   -6.8960  -15.9838 C   0  0  0  0  0  0  0  0  0  0  0  0
   17.6179   -6.7564  -16.2011 C   0  0  0  0  0  0  0  0  0  0  0  0
   17.3135   -5.2931  -16.4703 C   0  0  0  0  0  0  0  0  0  0  0  0
   15.9349   -5.1404  -16.9051 N   0  0  0  0  0  0  0  0  0  0  0  0
   21.6451   -7.7310  -14.5317 C   0  0  0  0  0  0  0  0  0  0  0  0
   21.9230   -6.3603  -14.6751 O   0  0  0  0  0  0  0  0  0  0  0  0
   21.9246   -8.2175  -13.4121 O   0  0  0  0  0  0  0  0  0  0  0  0
  2  4  1  0
  2  1  1  1
  3  2  1  0
  4  5  1  6
  6  4  1  0
  6  7  2  0
  9  8  1  0
 10  9  1  0
 11 10  1  0
 12 11  1  6
 13 12  1  0
 13  6  1  0
 14 15  2  0
 14 12  1  0
 16 14  1  0
 17 16  1  0
 17 23  1  0
 17 18  1  1
 19 18  1  0
 20 19  1  0
 21 22  1  0
 21 20  1  0
 23 24  1  0
 25 23  2  0
M  END
$$$$
