VMK.pdb
     RDKit          3D

 25 24  0  0  1  0  0  0  0  0999 V2000
   23.7018  -30.1621  -19.5510 C   0  0  0  0  0  0  0  0  0  0  0  0
   22.7946  -28.9739  -19.4471 C   0  0  2  0  0  0  0  0  0  0  0  0
   22.9511  -28.0018  -20.5868 C   0  0  0  0  0  0  0  0  0  0  0  0
   22.9211  -28.2692  -18.1044 C   0  0  2  0  0  0  0  0  0  0  0  0
   24.2193  -27.6001  -18.1518 N   0  0  0  0  0  0  0  0  0  0  0  0
   22.9033  -29.3096  -17.0435 C   0  0  0  0  0  0  0  0  0  0  0  0
   21.8522  -30.0097  -16.8269 O   0  0  0  0  0  0  0  0  0  0  0  0
   28.2609  -33.6241  -16.0642 C   0  0  0  0  0  0  0  0  0  0  0  0
   27.5895  -32.3560  -14.9623 S   0  0  0  0  0  0  0  0  0  0  0  0
   25.9620  -31.8361  -15.6109 C   0  0  0  0  0  0  0  0  0  0  0  0
   25.3006  -30.9137  -14.6409 C   0  0  0  0  0  0  0  0  0  0  0  0
   23.8909  -30.5576  -15.1334 C   0  0  2  0  0  0  0  0  0  0  0  0
   24.0118  -29.6099  -16.2060 N   0  0  0  0  0  0  0  0  0  0  0  0
   23.1061  -30.0620  -13.9766 C   0  0  0  0  0  0  0  0  0  0  0  0
   23.6143  -29.0381  -13.3980 O   0  0  0  0  0  0  0  0  0  0  0  0
   21.9045  -30.6619  -13.5475 N   0  0  0  0  0  0  0  0  0  0  0  0
   21.2373  -30.1735  -12.3688 C   0  0  1  0  0  0  0  0  0  0  0  0
   21.0458  -28.7058  -12.5640 C   0  0  0  0  0  0  0  0  0  0  0  0
   20.3537  -27.9754  -11.4838 C   0  0  0  0  0  0  0  0  0  0  0  0
   20.2006  -26.5004  -11.6748 C   0  0  0  0  0  0  0  0  0  0  0  0
   19.4448  -25.9423  -10.4816 C   0  0  0  0  0  0  0  0  0  0  0  0
   19.3913  -24.4916  -10.5569 N   0  0  0  0  0  0  0  0  0  0  0  0
   20.0424  -30.9483  -12.1130 C   0  0  0  0  0  0  0  0  0  0  0  0
   19.4260  -30.8097  -10.8571 O   0  0  0  0  0  0  0  0  0  0  0  0
   19.4805  -31.7467  -12.8975 O   0  0  0  0  0  0  0  0  0  0  0  0
  2  4  1  0
  2  1  1  6
  3  2  1  0
  4  5  1  6
  6  4  1  0
  6  7  2  0
  9  8  1  0
 10  9  1  0
 11 10  1  0
 12 11  1  1
 13 12  1  0
 13  6  1  0
 14 15  2  0
 14 12  1  0
 16 14  1  0
 17 16  1  0
 17 23  1  0
 17 18  1  6
 19 18  1  0
 20 19  1  0
 21 22  1  0
 21 20  1  0
 23 24  1  0
 25 23  2  0
M  END
$$$$
