VMK.pdb
     RDKit          3D

 25 24  0  0  1  0  0  0  0  0999 V2000
   20.9065  -21.1912  -11.4631 C   0  0  0  0  0  0  0  0  0  0  0  0
   20.6892  -20.5805  -12.8142 C   0  0  2  0  0  0  0  0  0  0  0  0
   19.3699  -20.9580  -13.4347 C   0  0  0  0  0  0  0  0  0  0  0  0
   21.8430  -20.8627  -13.7653 C   0  0  2  0  0  0  0  0  0  0  0  0
   21.8501  -22.3149  -13.9273 N   0  0  0  0  0  0  0  0  0  0  0  0
   23.0938  -20.3999  -13.1098 C   0  0  0  0  0  0  0  0  0  0  0  0
   23.3393  -19.1500  -12.9706 O   0  0  0  0  0  0  0  0  0  0  0  0
   26.7749  -19.7342   -7.0438 C   0  0  0  0  0  0  0  0  0  0  0  0
   26.4417  -21.0706   -8.2168 S   0  0  0  0  0  0  0  0  0  0  0  0
   26.0999  -20.3273   -9.8509 C   0  0  0  0  0  0  0  0  0  0  0  0
   25.7210  -21.3943  -10.8242 C   0  0  0  0  0  0  0  0  0  0  0  0
   25.3705  -20.7665  -12.1805 C   0  0  2  0  0  0  0  0  0  0  0  0
   24.0920  -21.2720  -12.5967 N   0  0  0  0  0  0  0  0  0  0  0  0
   26.4729  -21.0617  -13.1278 C   0  0  0  0  0  0  0  0  0  0  0  0
   26.5518  -22.2928  -13.4735 O   0  0  0  0  0  0  0  0  0  0  0  0
   27.3592  -20.0765  -13.6091 N   0  0  0  0  0  0  0  0  0  0  0  0
   28.1833  -20.3492  -14.7577 C   0  0  1  0  0  0  0  0  0  0  0  0
   29.0273  -21.5297  -14.4068 C   0  0  0  0  0  0  0  0  0  0  0  0
   29.8229  -22.1269  -15.4976 C   0  0  0  0  0  0  0  0  0  0  0  0
   30.5694  -23.3785  -15.1636 C   0  0  0  0  0  0  0  0  0  0  0  0
   31.2353  -23.8874  -16.4301 C   0  0  0  0  0  0  0  0  0  0  0  0
   32.0479  -25.0557  -16.1336 N   0  0  0  0  0  0  0  0  0  0  0  0
   27.3633  -20.4760  -15.9431 C   0  0  0  0  0  0  0  0  0  0  0  0
   26.2639  -19.6099  -16.0770 O   0  0  0  0  0  0  0  0  0  0  0  0
   27.5219  -21.2860  -16.8850 O   0  0  0  0  0  0  0  0  0  0  0  0
  2  4  1  0
  2  1  1  1
  3  2  1  0
  4  5  1  1
  6  4  1  0
  6  7  2  0
  9  8  1  0
 10  9  1  0
 11 10  1  0
 12 11  1  1
 13 12  1  0
 13  6  1  0
 14 15  2  0
 14 12  1  0
 16 14  1  0
 17 16  1  0
 17 23  1  0
 17 18  1  1
 19 18  1  0
 20 19  1  0
 21 22  1  0
 21 20  1  0
 23 24  1  0
 25 23  2  0
M  END
$$$$
