VMK.pdb
     RDKit          3D

 25 24  0  0  1  0  0  0  0  0999 V2000
   18.5046  -19.5689  -17.7245 C   0  0  0  0  0  0  0  0  0  0  0  0
   19.6302  -18.6622  -17.3290 C   0  0  2  0  0  0  0  0  0  0  0  0
   19.9942  -17.6624  -18.3951 C   0  0  0  0  0  0  0  0  0  0  0  0
   20.8547  -19.4353  -16.8617 C   0  0  2  0  0  0  0  0  0  0  0  0
   20.3240  -20.5129  -16.0296 N   0  0  0  0  0  0  0  0  0  0  0  0
   21.6930  -18.5110  -16.0547 C   0  0  0  0  0  0  0  0  0  0  0  0
   21.2310  -17.9623  -14.9929 O   0  0  0  0  0  0  0  0  0  0  0  0
   28.0488  -18.2611  -15.6706 C   0  0  0  0  0  0  0  0  0  0  0  0
   27.7548  -16.5359  -15.2117 S   0  0  0  0  0  0  0  0  0  0  0  0
   25.9541  -16.2938  -15.0152 C   0  0  0  0  0  0  0  0  0  0  0  0
   25.2161  -17.3878  -15.7135 C   0  0  0  0  0  0  0  0  0  0  0  0
   23.7082  -17.1011  -15.6904 C   0  0  2  0  0  0  0  0  0  0  0  0
   23.0339  -18.1672  -16.3774 N   0  0  0  0  0  0  0  0  0  0  0  0
   23.4808  -15.7616  -16.2853 C   0  0  0  0  0  0  0  0  0  0  0  0
   23.8347  -14.7867  -15.5331 O   0  0  0  0  0  0  0  0  0  0  0  0
   22.9243  -15.5726  -17.5668 N   0  0  0  0  0  0  0  0  0  0  0  0
   22.6982  -14.2404  -18.0638 C   0  0  1  0  0  0  0  0  0  0  0  0
   23.6730  -14.0280  -19.1745 C   0  0  0  0  0  0  0  0  0  0  0  0
   23.5889  -12.7437  -19.8974 C   0  0  0  0  0  0  0  0  0  0  0  0
   24.5986  -12.5251  -20.9782 C   0  0  0  0  0  0  0  0  0  0  0  0
   24.4246  -11.1146  -21.5136 C   0  0  0  0  0  0  0  0  0  0  0  0
   23.2003  -11.0222  -22.2919 N   0  0  0  0  0  0  0  0  0  0  0  0
   21.3008  -14.0595  -18.3928 C   0  0  0  0  0  0  0  0  0  0  0  0
   20.6300  -12.9603  -17.8284 O   0  0  0  0  0  0  0  0  0  0  0  0
   20.6030  -14.7846  -19.1383 O   0  0  0  0  0  0  0  0  0  0  0  0
  2  4  1  0
  2  1  1  6
  3  2  1  0
  4  5  1  1
  6  4  1  0
  6  7  2  0
  9  8  1  0
 10  9  1  0
 11 10  1  0
 12 11  1  6
 13 12  1  0
 13  6  1  0
 14 15  2  0
 14 12  1  0
 16 14  1  0
 17 16  1  0
 17 23  1  0
 17 18  1  6
 19 18  1  0
 20 19  1  0
 21 22  1  0
 21 20  1  0
 23 24  1  0
 25 23  2  0
M  END
$$$$
