VMK.pdb
     RDKit          3D

 25 24  0  0  1  0  0  0  0  0999 V2000
   30.2532  -32.1925  -15.6579 C   0  0  0  0  0  0  0  0  0  0  0  0
   29.3681  -32.1036  -16.8638 C   0  0  2  0  0  0  0  0  0  0  0  0
   29.8126  -31.0603  -17.8550 C   0  0  0  0  0  0  0  0  0  0  0  0
   27.9047  -31.9168  -16.4909 C   0  0  2  0  0  0  0  0  0  0  0  0
   27.8180  -30.5500  -15.9813 N   0  0  0  0  0  0  0  0  0  0  0  0
   27.5807  -32.8983  -15.4231 C   0  0  0  0  0  0  0  0  0  0  0  0
   27.5791  -34.1566  -15.6653 O   0  0  0  0  0  0  0  0  0  0  0  0
   28.3570  -32.6019   -8.8847 C   0  0  0  0  0  0  0  0  0  0  0  0
   26.6695  -33.2367   -9.0352 S   0  0  0  0  0  0  0  0  0  0  0  0
   26.4622  -33.9213  -10.7168 C   0  0  0  0  0  0  0  0  0  0  0  0
   26.9426  -32.9345  -11.7290 C   0  0  0  0  0  0  0  0  0  0  0  0
   26.8344  -33.5336  -13.1382 C   0  0  2  0  0  0  0  0  0  0  0  0
   27.2569  -32.5405  -14.0861 N   0  0  0  0  0  0  0  0  0  0  0  0
   25.4419  -34.0036  -13.3375 C   0  0  0  0  0  0  0  0  0  0  0  0
   24.5577  -33.0821  -13.2359 O   0  0  0  0  0  0  0  0  0  0  0  0
   25.1148  -35.3467  -13.6153 N   0  0  0  0  0  0  0  0  0  0  0  0
   23.7605  -35.7031  -13.9493 C   0  0  1  0  0  0  0  0  0  0  0  0
   23.8438  -36.7399  -15.0204 C   0  0  0  0  0  0  0  0  0  0  0  0
   22.5654  -37.2609  -15.5433 C   0  0  0  0  0  0  0  0  0  0  0  0
   22.6621  -38.2743  -16.6383 C   0  0  0  0  0  0  0  0  0  0  0  0
   21.2556  -38.7160  -17.0031 C   0  0  0  0  0  0  0  0  0  0  0  0
   21.3047  -39.7539  -18.0197 N   0  0  0  0  0  0  0  0  0  0  0  0
   23.0308  -36.0710  -12.7552 C   0  0  0  0  0  0  0  0  0  0  0  0
   21.8761  -35.3345  -12.4379 O   0  0  0  0  0  0  0  0  0  0  0  0
   23.3146  -36.9896  -11.9527 O   0  0  0  0  0  0  0  0  0  0  0  0
  2  4  1  0
  2  1  1  1
  3  2  1  0
  4  5  1  1
  6  4  1  0
  6  7  2  0
  9  8  1  0
 10  9  1  0
 11 10  1  0
 12 11  1  1
 13 12  1  0
 13  6  1  0
 14 15  2  0
 14 12  1  0
 16 14  1  0
 17 16  1  0
 17 23  1  0
 17 18  1  6
 19 18  1  0
 20 19  1  0
 21 22  1  0
 21 20  1  0
 23 24  1  0
 25 23  2  0
M  END
$$$$
