VMK.pdb
     RDKit          3D

 25 24  0  0  1  0  0  0  0  0999 V2000
   15.6598   -9.6750  -14.2583 C   0  0  0  0  0  0  0  0  0  0  0  0
   16.5355  -10.2853  -15.3101 C   0  0  2  0  0  0  0  0  0  0  0  0
   17.6249  -11.1592  -14.7465 C   0  0  0  0  0  0  0  0  0  0  0  0
   17.1060   -9.2423  -16.2599 C   0  0  2  0  0  0  0  0  0  0  0  0
   17.6510  -10.0097  -17.3776 N   0  0  0  0  0  0  0  0  0  0  0  0
   18.1869   -8.5186  -15.5414 C   0  0  0  0  0  0  0  0  0  0  0  0
   17.9135   -7.7058  -14.5893 O   0  0  0  0  0  0  0  0  0  0  0  0
   24.4900   -9.8061  -14.5600 C   0  0  0  0  0  0  0  0  0  0  0  0
   23.1273  -10.6102  -13.6828 S   0  0  0  0  0  0  0  0  0  0  0  0
   21.6287   -9.5847  -13.8883 C   0  0  0  0  0  0  0  0  0  0  0  0
   21.8305   -8.6087  -15.0000 C   0  0  0  0  0  0  0  0  0  0  0  0
   20.5460   -7.7995  -15.2272 C   0  0  2  0  0  0  0  0  0  0  0  0
   19.5702   -8.6601  -15.8358 N   0  0  0  0  0  0  0  0  0  0  0  0
   20.8866   -6.6055  -16.0385 C   0  0  0  0  0  0  0  0  0  0  0  0
   21.7527   -5.8327  -15.4964 O   0  0  0  0  0  0  0  0  0  0  0  0
   20.3102   -6.3401  -17.2975 N   0  0  0  0  0  0  0  0  0  0  0  0
   20.6479   -5.1314  -18.0031 C   0  0  1  0  0  0  0  0  0  0  0  0
   20.3373   -5.3765  -19.4427 C   0  0  0  0  0  0  0  0  0  0  0  0
   20.5697   -4.2550  -20.3741 C   0  0  0  0  0  0  0  0  0  0  0  0
   20.2711   -4.5187  -21.8152 C   0  0  0  0  0  0  0  0  0  0  0  0
   20.6702   -3.2915  -22.6159 C   0  0  0  0  0  0  0  0  0  0  0  0
   20.6269   -3.5864  -24.0387 N   0  0  0  0  0  0  0  0  0  0  0  0
   19.9948   -3.9950  -17.3900 C   0  0  0  0  0  0  0  0  0  0  0  0
   20.7600   -2.8356  -17.1735 O   0  0  0  0  0  0  0  0  0  0  0  0
   18.8003   -3.9222  -17.0208 O   0  0  0  0  0  0  0  0  0  0  0  0
  2  4  1  0
  2  1  1  1
  3  2  1  0
  4  5  1  6
  6  4  1  0
  6  7  2  0
  9  8  1  0
 10  9  1  0
 11 10  1  0
 12 11  1  6
 13 12  1  0
 13  6  1  0
 14 15  2  0
 14 12  1  0
 16 14  1  0
 17 16  1  0
 17 23  1  0
 17 18  1  6
 19 18  1  0
 20 19  1  0
 21 22  1  0
 21 20  1  0
 23 24  1  0
 25 23  2  0
M  END
$$$$
