VMK.pdb
     RDKit          3D

 25 24  0  0  1  0  0  0  0  0999 V2000
   28.5873  -20.4434  -13.9656 C   0  0  0  0  0  0  0  0  0  0  0  0
   28.0078  -19.9363  -15.2512 C   0  0  2  0  0  0  0  0  0  0  0  0
   28.9512  -19.0519  -16.0234 C   0  0  0  0  0  0  0  0  0  0  0  0
   26.6622  -19.2558  -15.0468 C   0  0  2  0  0  0  0  0  0  0  0  0
   26.9613  -18.0588  -14.2638 N   0  0  0  0  0  0  0  0  0  0  0  0
   25.7967  -20.1862  -14.2764 C   0  0  0  0  0  0  0  0  0  0  0  0
   25.4248  -21.3052  -14.7777 O   0  0  0  0  0  0  0  0  0  0  0  0
   26.4951  -19.4281   -8.1635 C   0  0  0  0  0  0  0  0  0  0  0  0
   26.0300  -21.1340   -8.5465 S   0  0  0  0  0  0  0  0  0  0  0  0
   25.8552  -21.2875  -10.3591 C   0  0  0  0  0  0  0  0  0  0  0  0
   24.5670  -20.6736  -10.7982 C   0  0  0  0  0  0  0  0  0  0  0  0
   24.4051  -20.8241  -12.3173 C   0  0  2  0  0  0  0  0  0  0  0  0
   25.3229  -19.9265  -12.9617 N   0  0  0  0  0  0  0  0  0  0  0  0
   22.9827  -20.5801  -12.6594 C   0  0  0  0  0  0  0  0  0  0  0  0
   22.6603  -19.3412  -12.7089 O   0  0  0  0  0  0  0  0  0  0  0  0
   22.0619  -21.6181  -12.9095 N   0  0  0  0  0  0  0  0  0  0  0  0
   20.6965  -21.3042  -13.2413 C   0  0  1  0  0  0  0  0  0  0  0  0
   20.0766  -22.5682  -13.7381 C   0  0  0  0  0  0  0  0  0  0  0  0
   18.6483  -22.5090  -14.1068 C   0  0  0  0  0  0  0  0  0  0  0  0
   18.0102  -23.8048  -14.4931 C   0  0  0  0  0  0  0  0  0  0  0  0
   16.5829  -23.5211  -14.9274 C   0  0  0  0  0  0  0  0  0  0  0  0
   15.9615  -24.7359  -15.4288 N   0  0  0  0  0  0  0  0  0  0  0  0
   20.0427  -20.6665  -12.1190 C   0  0  0  0  0  0  0  0  0  0  0  0
   20.3747  -21.1099  -10.8268 O   0  0  0  0  0  0  0  0  0  0  0  0
   19.1959  -19.7450  -12.1653 O   0  0  0  0  0  0  0  0  0  0  0  0
  2  4  1  0
  2  1  1  1
  3  2  1  0
  4  5  1  1
  6  4  1  0
  6  7  2  0
  9  8  1  0
 10  9  1  0
 11 10  1  0
 12 11  1  1
 13 12  1  0
 13  6  1  0
 14 15  2  0
 14 12  1  0
 16 14  1  0
 17 16  1  0
 17 23  1  0
 17 18  1  1
 19 18  1  0
 20 19  1  0
 21 22  1  0
 21 20  1  0
 23 24  1  0
 25 23  2  0
M  END
$$$$
