VMK.pdb
     RDKit          3D

 25 24  0  0  1  0  0  0  0  0999 V2000
   19.8668  -17.4608  -18.2524 C   0  0  0  0  0  0  0  0  0  0  0  0
   19.0765  -16.1925  -18.3632 C   0  0  2  0  0  0  0  0  0  0  0  0
   18.4696  -15.9843  -19.7258 C   0  0  0  0  0  0  0  0  0  0  0  0
   19.8791  -14.9747  -17.9290 C   0  0  2  0  0  0  0  0  0  0  0  0
   20.3311  -15.2858  -16.5747 N   0  0  0  0  0  0  0  0  0  0  0  0
   18.9609  -13.8062  -17.9222 C   0  0  0  0  0  0  0  0  0  0  0  0
   18.4860  -13.3370  -19.0159 O   0  0  0  0  0  0  0  0  0  0  0  0
   14.8924  -13.8579  -13.7822 C   0  0  0  0  0  0  0  0  0  0  0  0
   14.1463  -13.1159  -15.2540 S   0  0  0  0  0  0  0  0  0  0  0  0
   15.4697  -12.8144  -16.4777 C   0  0  0  0  0  0  0  0  0  0  0  0
   16.5847  -12.0523  -15.8415 C   0  0  0  0  0  0  0  0  0  0  0  0
   17.7607  -11.9282  -16.8203 C   0  0  2  0  0  0  0  0  0  0  0  0
   18.5426  -13.1308  -16.7436 N   0  0  0  0  0  0  0  0  0  0  0  0
   18.5155  -10.6961  -16.4859 C   0  0  0  0  0  0  0  0  0  0  0  0
   19.4515  -10.8707  -15.6287 O   0  0  0  0  0  0  0  0  0  0  0  0
   18.2316   -9.4396  -17.0592 N   0  0  0  0  0  0  0  0  0  0  0  0
   19.0662   -8.3060  -16.7576 C   0  0  1  0  0  0  0  0  0  0  0  0
   18.9857   -7.3914  -17.9350 C   0  0  0  0  0  0  0  0  0  0  0  0
   19.7533   -7.7812  -19.1342 C   0  0  0  0  0  0  0  0  0  0  0  0
   19.7345   -6.8149  -20.2750 C   0  0  0  0  0  0  0  0  0  0  0  0
   20.5377   -7.4120  -21.4173 C   0  0  0  0  0  0  0  0  0  0  0  0
   20.6705   -6.4452  -22.4947 N   0  0  0  0  0  0  0  0  0  0  0  0
   18.6974   -7.7393  -15.4783 C   0  0  0  0  0  0  0  0  0  0  0  0
   19.6472   -6.9437  -14.8139 O   0  0  0  0  0  0  0  0  0  0  0  0
   17.6060   -7.8785  -14.8799 O   0  0  0  0  0  0  0  0  0  0  0  0
  2  4  1  0
  2  1  1  6
  3  2  1  0
  4  5  1  1
  6  4  1  0
  6  7  2  0
  9  8  1  0
 10  9  1  0
 11 10  1  0
 12 11  1  1
 13 12  1  0
 13  6  1  0
 14 15  2  0
 14 12  1  0
 16 14  1  0
 17 16  1  0
 17 23  1  0
 17 18  1  6
 19 18  1  0
 20 19  1  0
 21 22  1  0
 21 20  1  0
 23 24  1  0
 25 23  2  0
M  END
$$$$
