VMK.pdb
     RDKit          3D

 25 24  0  0  1  0  0  0  0  0999 V2000
   17.6219  -11.6394  -20.1234 C   0  0  0  0  0  0  0  0  0  0  0  0
   18.3175  -11.0046  -18.9578 C   0  0  2  0  0  0  0  0  0  0  0  0
   18.6998   -9.5682  -19.2007 C   0  0  0  0  0  0  0  0  0  0  0  0
   19.5149  -11.8186  -18.4895 C   0  0  2  0  0  0  0  0  0  0  0  0
   18.9541  -13.0958  -18.0540 N   0  0  0  0  0  0  0  0  0  0  0  0
   20.1332  -11.0979  -17.3463 C   0  0  0  0  0  0  0  0  0  0  0  0
   19.5402  -11.0326  -16.2123 O   0  0  0  0  0  0  0  0  0  0  0  0
   26.1805  -11.0197  -16.0661 C   0  0  0  0  0  0  0  0  0  0  0  0
   25.6914  -10.0269  -14.6349 S   0  0  0  0  0  0  0  0  0  0  0  0
   23.9469   -9.5279  -14.8524 C   0  0  0  0  0  0  0  0  0  0  0  0
   23.3811  -10.1796  -16.0707 C   0  0  0  0  0  0  0  0  0  0  0  0
   21.9204   -9.7495  -16.2652 C   0  0  2  0  0  0  0  0  0  0  0  0
   21.3926  -10.4419  -17.4076 N   0  0  0  0  0  0  0  0  0  0  0  0
   21.8834   -8.2717  -16.3857 C   0  0  0  0  0  0  0  0  0  0  0  0
   22.4392   -7.8180  -17.4472 O   0  0  0  0  0  0  0  0  0  0  0  0
   21.2890   -7.4348  -15.4192 N   0  0  0  0  0  0  0  0  0  0  0  0
   21.2200   -6.0141  -15.6421 C   0  0  1  0  0  0  0  0  0  0  0  0
   19.7873   -5.6260  -15.4821 C   0  0  0  0  0  0  0  0  0  0  0  0
   19.4802   -4.1826  -15.5223 C   0  0  0  0  0  0  0  0  0  0  0  0
   18.0601   -3.8003  -15.2529 C   0  0  0  0  0  0  0  0  0  0  0  0
   17.9467   -2.2893  -15.3554 C   0  0  0  0  0  0  0  0  0  0  0  0
   16.5675   -1.8761  -15.1547 N   0  0  0  0  0  0  0  0  0  0  0  0
   22.1696   -5.3277  -14.7930 C   0  0  0  0  0  0  0  0  0  0  0  0
   22.6808   -4.0968  -15.2403 O   0  0  0  0  0  0  0  0  0  0  0  0
   22.5996   -5.7113  -13.6810 O   0  0  0  0  0  0  0  0  0  0  0  0
  2  4  1  0
  2  1  1  6
  3  2  1  0
  4  5  1  1
  6  4  1  0
  6  7  2  0
  9  8  1  0
 10  9  1  0
 11 10  1  0
 12 11  1  6
 13 12  1  0
 13  6  1  0
 14 15  2  0
 14 12  1  0
 16 14  1  0
 17 16  1  0
 17 23  1  0
 17 18  1  1
 19 18  1  0
 20 19  1  0
 21 22  1  0
 21 20  1  0
 23 24  1  0
 25 23  2  0
M  END
$$$$
