VMK.pdb
     RDKit          3D

 25 24  0  0  1  0  0  0  0  0999 V2000
   14.9465  -19.0685    4.6883 C   0  0  0  0  0  0  0  0  0  0  0  0
   14.6936  -18.2468    3.4610 C   0  0  2  0  0  0  0  0  0  0  0  0
   13.6386  -18.8307    2.5586 C   0  0  0  0  0  0  0  0  0  0  0  0
   15.9730  -17.9545    2.6907 C   0  0  2  0  0  0  0  0  0  0  0  0
   16.3957  -19.2483    2.1589 N   0  0  0  0  0  0  0  0  0  0  0  0
   16.9733  -17.4301    3.6566 C   0  0  0  0  0  0  0  0  0  0  0  0
   17.9273  -18.1718    4.0826 O   0  0  0  0  0  0  0  0  0  0  0  0
   20.7529  -11.2368    6.6083 C   0  0  0  0  0  0  0  0  0  0  0  0
   19.3309  -11.7961    5.6397 S   0  0  0  0  0  0  0  0  0  0  0  0
   19.2305  -13.6164    5.7672 C   0  0  0  0  0  0  0  0  0  0  0  0
   18.1195  -14.1244    4.9090 C   0  0  0  0  0  0  0  0  0  0  0  0
   17.9994  -15.6479    5.0539 C   0  0  2  0  0  0  0  0  0  0  0  0
   16.9609  -16.1061    4.1736 N   0  0  0  0  0  0  0  0  0  0  0  0
   17.7597  -15.9612    6.4836 C   0  0  0  0  0  0  0  0  0  0  0  0
   16.5415  -15.8196    6.8544 O   0  0  0  0  0  0  0  0  0  0  0  0
   18.7802  -16.3792    7.3620 N   0  0  0  0  0  0  0  0  0  0  0  0
   18.4572  -16.7530    8.7143 C   0  0  1  0  0  0  0  0  0  0  0  0
   18.6382  -18.2323    8.8030 C   0  0  0  0  0  0  0  0  0  0  0  0
   17.4386  -19.0641    8.5832 C   0  0  0  0  0  0  0  0  0  0  0  0
   17.6405  -20.5445    8.6379 C   0  0  0  0  0  0  0  0  0  0  0  0
   16.3210  -21.2172    8.3019 C   0  0  0  0  0  0  0  0  0  0  0  0
   16.4268  -22.6535    8.4994 N   0  0  0  0  0  0  0  0  0  0  0  0
   19.2207  -15.9557    9.6498 C   0  0  0  0  0  0  0  0  0  0  0  0
   20.3626  -15.2920    9.1682 O   0  0  0  0  0  0  0  0  0  0  0  0
   18.9777  -15.7844   10.8664 O   0  0  0  0  0  0  0  0  0  0  0  0
  2  4  1  0
  2  1  1  1
  3  2  1  0
  4  5  1  1
  6  4  1  0
  6  7  2  0
  9  8  1  0
 10  9  1  0
 11 10  1  0
 12 11  1  1
 13 12  1  0
 13  6  1  0
 14 15  2  0
 14 12  1  0
 16 14  1  0
 17 16  1  0
 17 23  1  0
 17 18  1  6
 19 18  1  0
 20 19  1  0
 21 22  1  0
 21 20  1  0
 23 24  1  0
 25 23  2  0
M  END
$$$$
