VMK.pdb
     RDKit          3D

 25 24  0  0  1  0  0  0  0  0999 V2000
   28.8824  -22.2056  -15.3253 C   0  0  0  0  0  0  0  0  0  0  0  0
   28.0884  -21.7841  -16.5243 C   0  0  2  0  0  0  0  0  0  0  0  0
   28.9387  -21.2413  -17.6426 C   0  0  0  0  0  0  0  0  0  0  0  0
   26.9728  -20.8141  -16.1636 C   0  0  2  0  0  0  0  0  0  0  0  0
   27.6497  -19.5493  -15.8852 N   0  0  0  0  0  0  0  0  0  0  0  0
   26.3002  -21.3310  -14.9434 C   0  0  0  0  0  0  0  0  0  0  0  0
   25.6544  -22.4374  -14.9676 O   0  0  0  0  0  0  0  0  0  0  0  0
   24.9313  -21.1723   -7.2170 C   0  0  0  0  0  0  0  0  0  0  0  0
   25.9096  -20.4818   -8.5732 S   0  0  0  0  0  0  0  0  0  0  0  0
   25.2369  -21.1196  -10.1480 C   0  0  0  0  0  0  0  0  0  0  0  0
   26.0597  -20.6212  -11.2899 C   0  0  0  0  0  0  0  0  0  0  0  0
   25.4516  -21.0907  -12.6189 C   0  0  2  0  0  0  0  0  0  0  0  0
   26.3146  -20.6677  -13.6863 N   0  0  0  0  0  0  0  0  0  0  0  0
   24.0710  -20.5570  -12.7123 C   0  0  0  0  0  0  0  0  0  0  0  0
   24.0076  -19.2815  -12.8158 O   0  0  0  0  0  0  0  0  0  0  0  0
   22.9248  -21.3778  -12.6900 N   0  0  0  0  0  0  0  0  0  0  0  0
   21.6275  -20.8094  -12.9484 C   0  0  1  0  0  0  0  0  0  0  0  0
   21.2906  -21.1410  -14.3645 C   0  0  0  0  0  0  0  0  0  0  0  0
   19.9589  -20.7249  -14.8469 C   0  0  0  0  0  0  0  0  0  0  0  0
   19.5666  -21.2081  -16.2063 C   0  0  0  0  0  0  0  0  0  0  0  0
   18.2386  -20.5692  -16.5733 C   0  0  0  0  0  0  0  0  0  0  0  0
   17.7718  -21.0832  -17.8503 N   0  0  0  0  0  0  0  0  0  0  0  0
   20.6812  -21.2454  -11.9444 C   0  0  0  0  0  0  0  0  0  0  0  0
   19.7429  -20.3093  -11.4755 O   0  0  0  0  0  0  0  0  0  0  0  0
   20.5988  -22.3853  -11.4323 O   0  0  0  0  0  0  0  0  0  0  0  0
  2  4  1  0
  2  1  1  1
  3  2  1  0
  4  5  1  1
  6  4  1  0
  6  7  2  0
  9  8  1  0
 10  9  1  0
 11 10  1  0
 12 11  1  1
 13 12  1  0
 13  6  1  0
 14 15  2  0
 14 12  1  0
 16 14  1  0
 17 16  1  0
 17 23  1  0
 17 18  1  6
 19 18  1  0
 20 19  1  0
 21 22  1  0
 21 20  1  0
 23 24  1  0
 25 23  2  0
M  END
$$$$
