VMK.pdb
     RDKit          3D

 25 24  0  0  1  0  0  0  0  0999 V2000
   20.9252  -14.9426  -22.2655 C   0  0  0  0  0  0  0  0  0  0  0  0
   21.3529  -14.2497  -21.0075 C   0  0  2  0  0  0  0  0  0  0  0  0
   21.3014  -12.7477  -21.1062 C   0  0  0  0  0  0  0  0  0  0  0  0
   22.7176  -14.7208  -20.5268 C   0  0  2  0  0  0  0  0  0  0  0  0
   22.5361  -16.1352  -20.2074 N   0  0  0  0  0  0  0  0  0  0  0  0
   23.0602  -13.9453  -19.3063 C   0  0  0  0  0  0  0  0  0  0  0  0
   22.4466  -14.1542  -18.2009 O   0  0  0  0  0  0  0  0  0  0  0  0
   28.3470  -11.3511  -14.4525 C   0  0  0  0  0  0  0  0  0  0  0  0
   27.9905  -12.0608  -16.0781 S   0  0  0  0  0  0  0  0  0  0  0  0
   26.2213  -11.7895  -16.4468 C   0  0  0  0  0  0  0  0  0  0  0  0
   25.8755  -12.4114  -17.7593 C   0  0  0  0  0  0  0  0  0  0  0  0
   24.3720  -12.2621  -18.0306 C   0  0  2  0  0  0  0  0  0  0  0  0
   24.0639  -12.9400  -19.2589 N   0  0  0  0  0  0  0  0  0  0  0  0
   24.0433  -10.8158  -18.0413 C   0  0  0  0  0  0  0  0  0  0  0  0
   24.4220  -10.1997  -19.0989 O   0  0  0  0  0  0  0  0  0  0  0  0
   23.3723  -10.1707  -16.9823 N   0  0  0  0  0  0  0  0  0  0  0  0
   23.0330   -8.7756  -17.0892 C   0  0  1  0  0  0  0  0  0  0  0  0
   21.6420   -8.6334  -16.5660 C   0  0  0  0  0  0  0  0  0  0  0  0
   20.5471   -8.7282  -17.5517 C   0  0  0  0  0  0  0  0  0  0  0  0
   19.1571   -8.7024  -17.0015 C   0  0  0  0  0  0  0  0  0  0  0  0
   18.1845   -8.8351  -18.1602 C   0  0  0  0  0  0  0  0  0  0  0  0
   16.8168   -8.7190  -17.6815 N   0  0  0  0  0  0  0  0  0  0  0  0
   24.0457   -7.9640  -16.4492 C   0  0  0  0  0  0  0  0  0  0  0  0
   23.9647   -6.5691  -16.6050 O   0  0  0  0  0  0  0  0  0  0  0  0
   25.0081   -8.3683  -15.7574 O   0  0  0  0  0  0  0  0  0  0  0  0
  2  4  1  0
  2  1  1  6
  3  2  1  0
  4  5  1  1
  6  4  1  0
  6  7  2  0
  9  8  1  0
 10  9  1  0
 11 10  1  0
 12 11  1  6
 13 12  1  0
 13  6  1  0
 14 15  2  0
 14 12  1  0
 16 14  1  0
 17 16  1  0
 17 23  1  0
 17 18  1  1
 19 18  1  0
 20 19  1  0
 21 22  1  0
 21 20  1  0
 23 24  1  0
 25 23  2  0
M  END
$$$$
