TWC.pdb
     RDKit          3D

 28 29  0  0  1  0  0  0  0  0999 V2000
   17.5609  -10.4619  -18.7409 C   0  0  0  0  0  0  0  0  0  0  0  0
   17.0489  -11.4145  -17.6587 C   0  0  1  0  0  0  0  0  0  0  0  0
   16.3054  -12.3977  -18.2622 O   0  0  0  0  0  0  0  0  0  0  0  0
   18.1746  -11.9155  -16.7874 C   0  0  2  0  0  0  0  0  0  0  0  0
   17.6741  -12.8984  -15.8201 N   0  0  0  0  0  0  0  0  0  0  0  0
   18.9343  -10.8669  -16.1124 C   0  0  0  0  0  0  0  0  0  0  0  0
   18.3799  -10.2888  -15.1113 O   0  0  0  0  0  0  0  0  0  0  0  0
   20.2340  -10.4900  -16.5322 N   0  0  0  0  0  0  0  0  0  0  0  0
   20.9618   -9.5036  -15.7613 C   0  0  1  0  0  0  0  0  0  0  0  0
   22.4518   -9.7729  -15.7541 C   0  0  0  0  0  0  0  0  0  0  0  0
   22.8335  -11.0392  -15.1470 C   0  0  0  0  0  0  0  0  0  0  0  0
   22.3797  -11.5452  -13.9548 C   0  0  0  0  0  0  0  0  0  0  0  0
   22.9370  -12.7258  -13.7048 N   0  0  0  0  0  0  0  0  0  0  0  0
   23.7658  -13.0332  -14.7104 C   0  0  0  0  0  0  0  0  0  0  0  0
   24.5580  -14.1427  -14.8959 C   0  0  0  0  0  0  0  0  0  0  0  0
   25.3337  -14.2343  -16.0237 C   0  0  0  0  0  0  0  0  0  0  0  0
   25.3008  -13.2120  -16.9447 C   0  0  0  0  0  0  0  0  0  0  0  0
   24.5008  -12.1009  -16.7485 C   0  0  0  0  0  0  0  0  0  0  0  0
   23.7129  -11.9879  -15.6217 C   0  0  0  0  0  0  0  0  0  0  0  0
   20.7683   -8.1840  -16.4017 C   0  0  0  0  0  0  0  0  0  0  0  0
   20.6910   -8.1143  -17.6486 O   0  0  0  0  0  0  0  0  0  0  0  0
   20.6649   -6.9782  -15.6587 N   0  0  0  0  0  0  0  0  0  0  0  0
   20.2966   -5.7432  -16.3075 C   0  0  1  0  0  0  0  0  0  0  0  0
   18.9511   -5.8509  -16.9961 C   0  0  0  0  0  0  0  0  0  0  0  0
   18.3675   -4.2048  -17.5060 S   0  0  0  0  0  0  0  0  0  0  0  0
   20.3149   -4.6006  -15.3515 C   0  0  0  0  0  0  0  0  0  0  0  0
   20.3465   -4.7870  -14.1109 O   0  0  0  0  0  0  0  0  0  0  0  0
   20.2979   -3.2691  -15.7874 O   0  0  0  0  0  0  0  0  0  0  0  0
  2  1  1  6
  2  3  1  0
  2  4  1  0
  4  6  1  0
  4  5  1  1
  6  7  2  0
  8  9  1  0
  8  6  1  0
 10 11  1  0
  9 10  1  6
 11 12  2  0
 13 12  1  0
 14 13  1  0
 15 14  2  0
 16 15  1  0
 17 18  1  0
 17 16  2  0
 18 19  2  0
 19 14  1  0
 19 11  1  0
 20  9  1  0
 20 21  2  0
 22 20  1  0
 23 22  1  0
 23 26  1  0
 23 24  1  1
 25 24  1  0
 26 28  1  0
 27 26  2  0
M  END
$$$$
