TWC.pdb
     RDKit          3D

 28 29  0  0  1  0  0  0  0  0999 V2000
   18.8765  -11.8015  -22.1792 C   0  0  0  0  0  0  0  0  0  0  0  0
   18.7044  -10.8273  -21.0123 C   0  0  1  0  0  0  0  0  0  0  0  0
   17.6114  -10.0365  -21.2646 O   0  0  0  0  0  0  0  0  0  0  0  0
   18.6707  -11.5520  -19.6890 C   0  0  2  0  0  0  0  0  0  0  0  0
   17.5569  -12.5064  -19.6567 N   0  0  0  0  0  0  0  0  0  0  0  0
   18.6378  -10.6799  -18.5184 C   0  0  0  0  0  0  0  0  0  0  0  0
   17.4877  -10.2963  -18.1013 O   0  0  0  0  0  0  0  0  0  0  0  0
   19.8191  -10.2639  -17.8561 N   0  0  0  0  0  0  0  0  0  0  0  0
   19.7088   -9.3864  -16.7094 C   0  0  1  0  0  0  0  0  0  0  0  0
   20.9363   -9.4480  -15.8250 C   0  0  0  0  0  0  0  0  0  0  0  0
   20.9114   -8.5336  -14.6932 C   0  0  0  0  0  0  0  0  0  0  0  0
   20.3389   -8.7636  -13.4674 C   0  0  0  0  0  0  0  0  0  0  0  0
   20.5030   -7.7133  -12.6695 N   0  0  0  0  0  0  0  0  0  0  0  0
   21.1802   -6.7685  -13.3338 C   0  0  0  0  0  0  0  0  0  0  0  0
   21.5836   -5.5178  -12.9265 C   0  0  0  0  0  0  0  0  0  0  0  0
   22.2760   -4.7170  -13.7990 C   0  0  0  0  0  0  0  0  0  0  0  0
   22.5514   -5.1849  -15.0638 C   0  0  0  0  0  0  0  0  0  0  0  0
   22.1412   -6.4440  -15.4633 C   0  0  0  0  0  0  0  0  0  0  0  0
   21.4436   -7.2659  -14.6023 C   0  0  0  0  0  0  0  0  0  0  0  0
   19.6057   -7.9951  -17.2023 C   0  0  0  0  0  0  0  0  0  0  0  0
   20.2574   -7.6546  -18.2146 O   0  0  0  0  0  0  0  0  0  0  0  0
   18.7919   -7.0163  -16.5727 N   0  0  0  0  0  0  0  0  0  0  0  0
   18.7044   -5.6784  -17.1056 C   0  0  1  0  0  0  0  0  0  0  0  0
   17.4847   -5.5046  -17.9877 C   0  0  0  0  0  0  0  0  0  0  0  0
   17.2280   -3.7453  -18.3735 S   0  0  0  0  0  0  0  0  0  0  0  0
   18.7253   -4.6584  -16.0198 C   0  0  0  0  0  0  0  0  0  0  0  0
   18.1825   -4.8750  -14.9093 O   0  0  0  0  0  0  0  0  0  0  0  0
   19.3483   -3.4141  -16.1836 O   0  0  0  0  0  0  0  0  0  0  0  0
  2  1  1  6
  2  3  1  0
  2  4  1  0
  4  6  1  0
  4  5  1  6
  6  7  2  0
  8  9  1  0
  8  6  1  0
 10 11  1  0
  9 10  1  1
 11 12  2  0
 13 12  1  0
 14 13  1  0
 15 14  2  0
 16 15  1  0
 17 18  1  0
 17 16  2  0
 18 19  2  0
 19 14  1  0
 19 11  1  0
 20  9  1  0
 20 21  2  0
 22 20  1  0
 23 22  1  0
 23 26  1  0
 23 24  1  1
 25 24  1  0
 26 28  1  0
 27 26  2  0
M  END
$$$$
