TWC.pdb
     RDKit          3D

 28 29  0  0  1  0  0  0  0  0999 V2000
   28.1257  -19.6056  -16.4380 C   0  0  0  0  0  0  0  0  0  0  0  0
   27.2150  -19.9082  -15.2465 C   0  0  1  0  0  0  0  0  0  0  0  0
   25.9247  -20.0143  -15.7023 O   0  0  0  0  0  0  0  0  0  0  0  0
   27.7103  -21.0983  -14.4620 C   0  0  2  0  0  0  0  0  0  0  0  0
   27.6192  -22.3185  -15.2715 N   0  0  0  0  0  0  0  0  0  0  0  0
   27.0604  -21.2871  -13.1680 C   0  0  0  0  0  0  0  0  0  0  0  0
   26.2094  -22.2410  -13.0694 O   0  0  0  0  0  0  0  0  0  0  0  0
   27.3463  -20.4596  -12.0541 N   0  0  0  0  0  0  0  0  0  0  0  0
   26.6269  -20.6761  -10.8161 C   0  0  1  0  0  0  0  0  0  0  0  0
   27.2573  -19.9371   -9.6546 C   0  0  0  0  0  0  0  0  0  0  0  0
   26.7194  -20.2922   -8.3498 C   0  0  0  0  0  0  0  0  0  0  0  0
   25.5405  -20.9494   -8.1017 C   0  0  0  0  0  0  0  0  0  0  0  0
   25.3597  -21.1092   -6.7945 N   0  0  0  0  0  0  0  0  0  0  0  0
   26.3995  -20.5699   -6.1461 C   0  0  0  0  0  0  0  0  0  0  0  0
   26.6565  -20.4919   -4.7967 C   0  0  0  0  0  0  0  0  0  0  0  0
   27.8070  -19.8818   -4.3652 C   0  0  0  0  0  0  0  0  0  0  0  0
   28.6787  -19.3612   -5.2945 C   0  0  0  0  0  0  0  0  0  0  0  0
   28.4108  -19.4450   -6.6489 C   0  0  0  0  0  0  0  0  0  0  0  0
   27.2599  -20.0540   -7.1050 C   0  0  0  0  0  0  0  0  0  0  0  0
   25.2597  -20.1341  -10.9770 C   0  0  0  0  0  0  0  0  0  0  0  0
   25.1102  -18.9658  -11.3991 O   0  0  0  0  0  0  0  0  0  0  0  0
   24.0949  -20.8868  -10.6712 N   0  0  0  0  0  0  0  0  0  0  0  0
   22.7862  -20.3957  -11.0288 C   0  0  1  0  0  0  0  0  0  0  0  0
   22.4183  -20.7643  -12.4518 C   0  0  0  0  0  0  0  0  0  0  0  0
   22.4555  -22.5704  -12.6675 S   0  0  0  0  0  0  0  0  0  0  0  0
   21.7477  -20.8692  -10.0712 C   0  0  0  0  0  0  0  0  0  0  0  0
   22.0234  -21.6861   -9.1594 O   0  0  0  0  0  0  0  0  0  0  0  0
   20.4194  -20.4286  -10.1407 O   0  0  0  0  0  0  0  0  0  0  0  0
  2  1  1  6
  2  3  1  0
  2  4  1  0
  4  6  1  0
  4  5  1  6
  6  7  2  0
  8  9  1  0
  8  6  1  0
 10 11  1  0
  9 10  1  1
 11 12  2  0
 13 12  1  0
 14 13  1  0
 15 14  2  0
 16 15  1  0
 17 18  1  0
 17 16  2  0
 18 19  2  0
 19 14  1  0
 19 11  1  0
 20  9  1  0
 20 21  2  0
 22 20  1  0
 23 22  1  0
 23 26  1  0
 23 24  1  6
 25 24  1  0
 26 28  1  0
 27 26  2  0
M  END
$$$$
