TWC.pdb
     RDKit          3D

 28 29  0  0  1  0  0  0  0  0999 V2000
   28.7944  -22.5823  -19.3353 C   0  0  0  0  0  0  0  0  0  0  0  0
   28.4886  -22.8301  -17.8569 C   0  0  1  0  0  0  0  0  0  0  0  0
   29.6760  -22.8812  -17.1705 O   0  0  0  0  0  0  0  0  0  0  0  0
   27.4913  -21.8302  -17.3249 C   0  0  2  0  0  0  0  0  0  0  0  0
   27.9231  -20.4627  -17.6346 N   0  0  0  0  0  0  0  0  0  0  0  0
   27.1918  -21.9677  -15.9024 C   0  0  0  0  0  0  0  0  0  0  0  0
   26.8431  -23.1280  -15.4828 O   0  0  0  0  0  0  0  0  0  0  0  0
   27.2782  -20.8741  -15.0058 N   0  0  0  0  0  0  0  0  0  0  0  0
   26.9765  -21.0890  -13.6058 C   0  0  1  0  0  0  0  0  0  0  0  0
   27.6597  -20.0740  -12.7138 C   0  0  0  0  0  0  0  0  0  0  0  0
   28.1418  -20.6092  -11.4493 C   0  0  0  0  0  0  0  0  0  0  0  0
   29.1389  -21.5368  -11.2800 C   0  0  0  0  0  0  0  0  0  0  0  0
   29.3210  -21.7982   -9.9895 N   0  0  0  0  0  0  0  0  0  0  0  0
   28.4614  -21.0615   -9.2747 C   0  0  0  0  0  0  0  0  0  0  0  0
   28.2764  -20.9911   -7.9132 C   0  0  0  0  0  0  0  0  0  0  0  0
   27.3187  -20.1491   -7.4071 C   0  0  0  0  0  0  0  0  0  0  0  0
   26.5644  -19.3931   -8.2755 C   0  0  0  0  0  0  0  0  0  0  0  0
   26.7585  -19.4714   -9.6426 C   0  0  0  0  0  0  0  0  0  0  0  0
   27.7158  -20.3115  -10.1732 C   0  0  0  0  0  0  0  0  0  0  0  0
   25.5196  -20.9135  -13.4163 C   0  0  0  0  0  0  0  0  0  0  0  0
   24.9542  -19.9132  -13.9114 O   0  0  0  0  0  0  0  0  0  0  0  0
   24.7233  -21.8384  -12.6902 N   0  0  0  0  0  0  0  0  0  0  0  0
   23.2988  -21.6455  -12.5672 C   0  0  1  0  0  0  0  0  0  0  0  0
   22.5354  -22.9313  -12.8121 C   0  0  0  0  0  0  0  0  0  0  0  0
   22.8583  -23.5488  -14.4927 S   0  0  0  0  0  0  0  0  0  0  0  0
   22.9419  -21.0586  -11.2450 C   0  0  0  0  0  0  0  0  0  0  0  0
   23.8019  -20.9073  -10.3438 O   0  0  0  0  0  0  0  0  0  0  0  0
   21.6363  -20.6491  -10.9440 O   0  0  0  0  0  0  0  0  0  0  0  0
  2  1  1  6
  2  3  1  0
  2  4  1  0
  4  6  1  0
  4  5  1  1
  6  7  2  0
  8  9  1  0
  8  6  1  0
 10 11  1  0
  9 10  1  1
 11 12  2  0
 13 12  1  0
 14 13  1  0
 15 14  2  0
 16 15  1  0
 17 18  1  0
 17 16  2  0
 18 19  2  0
 19 14  1  0
 19 11  1  0
 20  9  1  0
 20 21  2  0
 22 20  1  0
 23 22  1  0
 23 26  1  0
 23 24  1  1
 25 24  1  0
 26 28  1  0
 27 26  2  0
M  END
$$$$
