TWC.pdb
     RDKit          3D

 28 29  0  0  1  0  0  0  0  0999 V2000
   21.1348  -34.5502  -12.7035 C   0  0  0  0  0  0  0  0  0  0  0  0
   20.7522  -33.6475  -11.5291 C   0  0  1  0  0  0  0  0  0  0  0  0
   20.6745  -34.4184  -10.3962 O   0  0  0  0  0  0  0  0  0  0  0  0
   21.6748  -32.4579  -11.4245 C   0  0  2  0  0  0  0  0  0  0  0  0
   23.0631  -32.9007  -11.2542 N   0  0  0  0  0  0  0  0  0  0  0  0
   21.3095  -31.4938  -10.3904 C   0  0  0  0  0  0  0  0  0  0  0  0
   22.1948  -31.2140   -9.5062 O   0  0  0  0  0  0  0  0  0  0  0  0
   20.0327  -30.8811  -10.3497 N   0  0  0  0  0  0  0  0  0  0  0  0
   19.7531  -29.9102   -9.3122 C   0  0  1  0  0  0  0  0  0  0  0  0
   18.8255  -28.8143   -9.7930 C   0  0  0  0  0  0  0  0  0  0  0  0
   18.7264  -27.6713   -8.8977 C   0  0  0  0  0  0  0  0  0  0  0  0
   19.6449  -26.6619   -8.7541 C   0  0  0  0  0  0  0  0  0  0  0  0
   19.2337  -25.7801   -7.8483 N   0  0  0  0  0  0  0  0  0  0  0  0
   18.0464  -26.1737   -7.3711 C   0  0  0  0  0  0  0  0  0  0  0  0
   17.2357  -25.5899   -6.4251 C   0  0  0  0  0  0  0  0  0  0  0  0
   16.0463  -26.1892   -6.0961 C   0  0  0  0  0  0  0  0  0  0  0  0
   15.6915  -27.3628   -6.7216 C   0  0  0  0  0  0  0  0  0  0  0  0
   16.5139  -27.9414   -7.6713 C   0  0  0  0  0  0  0  0  0  0  0  0
   17.7143  -27.3560   -8.0174 C   0  0  0  0  0  0  0  0  0  0  0  0
   19.0578  -30.6051   -8.2064 C   0  0  0  0  0  0  0  0  0  0  0  0
   18.0409  -31.2894   -8.4571 O   0  0  0  0  0  0  0  0  0  0  0  0
   19.4959  -30.5308   -6.8576 N   0  0  0  0  0  0  0  0  0  0  0  0
   18.7267  -31.1394   -5.7994 C   0  0  1  0  0  0  0  0  0  0  0  0
   19.4995  -32.2448   -5.1087 C   0  0  0  0  0  0  0  0  0  0  0  0
   18.5081  -32.9653   -3.7641 S   0  0  0  0  0  0  0  0  0  0  0  0
   18.2572  -30.1238   -4.8155 C   0  0  0  0  0  0  0  0  0  0  0  0
   18.9713  -29.1416   -4.4991 O   0  0  0  0  0  0  0  0  0  0  0  0
   17.0026  -30.2143   -4.1983 O   0  0  0  0  0  0  0  0  0  0  0  0
  2  1  1  6
  2  3  1  0
  2  4  1  0
  4  6  1  0
  4  5  1  1
  6  7  2  0
  8  9  1  0
  8  6  1  0
 10 11  1  0
  9 10  1  6
 11 12  2  0
 13 12  1  0
 14 13  1  0
 15 14  2  0
 16 15  1  0
 17 18  1  0
 17 16  2  0
 18 19  2  0
 19 14  1  0
 19 11  1  0
 20  9  1  0
 20 21  2  0
 22 20  1  0
 23 22  1  0
 23 26  1  0
 23 24  1  1
 25 24  1  0
 26 28  1  0
 27 26  2  0
M  END
$$$$
