TWC.pdb
     RDKit          3D

 28 29  0  0  1  0  0  0  0  0999 V2000
   19.5748   -9.2075  -19.4956 C   0  0  0  0  0  0  0  0  0  0  0  0
   19.7383  -10.6141  -18.9166 C   0  0  1  0  0  0  0  0  0  0  0  0
   18.9868  -11.4829  -19.6677 O   0  0  0  0  0  0  0  0  0  0  0  0
   21.1937  -10.9889  -18.7806 C   0  0  2  0  0  0  0  0  0  0  0  0
   21.3238  -12.3679  -18.2969 N   0  0  0  0  0  0  0  0  0  0  0  0
   21.9827  -10.0762  -17.9579 C   0  0  0  0  0  0  0  0  0  0  0  0
   21.9658  -10.2621  -16.6894 O   0  0  0  0  0  0  0  0  0  0  0  0
   22.7434   -9.0219  -18.5209 N   0  0  0  0  0  0  0  0  0  0  0  0
   23.4899   -8.1475  -17.6404 C   0  0  1  0  0  0  0  0  0  0  0  0
   24.6516   -7.4831  -18.3487 C   0  0  0  0  0  0  0  0  0  0  0  0
   25.8555   -8.2968  -18.4281 C   0  0  0  0  0  0  0  0  0  0  0  0
   25.9142   -9.6645  -18.5242 C   0  0  0  0  0  0  0  0  0  0  0  0
   27.1769  -10.0764  -18.5770 N   0  0  0  0  0  0  0  0  0  0  0  0
   27.9819   -9.0082  -18.5183 C   0  0  0  0  0  0  0  0  0  0  0  0
   29.3556   -8.9336  -18.5394 C   0  0  0  0  0  0  0  0  0  0  0  0
   29.9638   -7.7061  -18.4659 C   0  0  0  0  0  0  0  0  0  0  0  0
   29.1836   -6.5760  -18.3725 C   0  0  0  0  0  0  0  0  0  0  0  0
   27.8033   -6.6621  -18.3520 C   0  0  0  0  0  0  0  0  0  0  0  0
   27.1708   -7.8861  -18.4248 C   0  0  0  0  0  0  0  0  0  0  0  0
   22.5865   -7.0652  -17.1917 C   0  0  0  0  0  0  0  0  0  0  0  0
   22.0039   -6.3608  -18.0459 O   0  0  0  0  0  0  0  0  0  0  0  0
   22.3466   -6.7850  -15.8203 N   0  0  0  0  0  0  0  0  0  0  0  0
   21.5505   -5.6468  -15.4299 C   0  0  1  0  0  0  0  0  0  0  0  0
   20.1352   -6.0497  -15.0685 C   0  0  0  0  0  0  0  0  0  0  0  0
   19.2487   -4.6470  -14.3223 S   0  0  0  0  0  0  0  0  0  0  0  0
   22.1899   -4.8928  -14.3152 C   0  0  0  0  0  0  0  0  0  0  0  0
   21.7372   -3.7878  -13.9296 O   0  0  0  0  0  0  0  0  0  0  0  0
   23.3217   -5.3771  -13.6462 O   0  0  0  0  0  0  0  0  0  0  0  0
  2  1  1  6
  2  3  1  0
  2  4  1  0
  4  6  1  0
  4  5  1  1
  6  7  2  0
  8  9  1  0
  8  6  1  0
 10 11  1  0
  9 10  1  6
 11 12  2  0
 13 12  1  0
 14 13  1  0
 15 14  2  0
 16 15  1  0
 17 18  1  0
 17 16  2  0
 18 19  2  0
 19 14  1  0
 19 11  1  0
 20  9  1  0
 20 21  2  0
 22 20  1  0
 23 22  1  0
 23 26  1  0
 23 24  1  1
 25 24  1  0
 26 28  1  0
 27 26  2  0
M  END
$$$$
