TWC.pdb
     RDKit          3D

 28 29  0  0  1  0  0  0  0  0999 V2000
   24.2481  -25.8257  -17.5453 C   0  0  0  0  0  0  0  0  0  0  0  0
   24.5922  -24.8752  -16.3970 C   0  0  1  0  0  0  0  0  0  0  0  0
   24.8572  -25.6244  -15.2779 O   0  0  0  0  0  0  0  0  0  0  0  0
   25.6851  -23.9108  -16.7878 C   0  0  2  0  0  0  0  0  0  0  0  0
   26.8844  -24.6416  -17.2123 N   0  0  0  0  0  0  0  0  0  0  0  0
   26.0174  -22.9217  -15.7663 C   0  0  0  0  0  0  0  0  0  0  0  0
   27.2192  -22.9166  -15.3196 O   0  0  0  0  0  0  0  0  0  0  0  0
   25.0635  -21.9958  -15.2764 N   0  0  0  0  0  0  0  0  0  0  0  0
   25.5056  -20.9286  -14.4031 C   0  0  1  0  0  0  0  0  0  0  0  0
   24.9831  -19.5779  -14.8449 C   0  0  0  0  0  0  0  0  0  0  0  0
   25.6632  -19.0167  -16.0026 C   0  0  0  0  0  0  0  0  0  0  0  0
   25.0773  -18.5805  -17.1644 C   0  0  0  0  0  0  0  0  0  0  0  0
   25.9966  -18.1277  -18.0110 N   0  0  0  0  0  0  0  0  0  0  0  0
   27.2030  -18.2486  -17.4431 C   0  0  0  0  0  0  0  0  0  0  0  0
   28.4466  -17.9169  -17.9291 C   0  0  0  0  0  0  0  0  0  0  0  0
   29.5541  -18.1376  -17.1501 C   0  0  0  0  0  0  0  0  0  0  0  0
   29.3943  -18.6870  -15.8982 C   0  0  0  0  0  0  0  0  0  0  0  0
   28.1394  -19.0169  -15.4191 C   0  0  0  0  0  0  0  0  0  0  0  0
   27.0122  -18.8036  -16.1855 C   0  0  0  0  0  0  0  0  0  0  0  0
   24.9548  -21.1801  -13.0531 C   0  0  0  0  0  0  0  0  0  0  0  0
   23.8812  -21.8123  -12.9382 O   0  0  0  0  0  0  0  0  0  0  0  0
   25.5952  -20.7322  -11.8674 N   0  0  0  0  0  0  0  0  0  0  0  0
   24.9742  -20.9218  -10.5789 C   0  0  1  0  0  0  0  0  0  0  0  0
   25.8584  -20.4274   -9.4520 C   0  0  0  0  0  0  0  0  0  0  0  0
   24.9170  -20.3480   -7.8971 S   0  0  0  0  0  0  0  0  0  0  0  0
   23.6315  -20.2787  -10.5227 C   0  0  0  0  0  0  0  0  0  0  0  0
   23.4218  -19.1571  -11.0450 O   0  0  0  0  0  0  0  0  0  0  0  0
   22.5426  -20.8905   -9.8878 O   0  0  0  0  0  0  0  0  0  0  0  0
  2  1  1  6
  2  3  1  0
  2  4  1  0
  4  6  1  0
  4  5  1  1
  6  7  2  0
  8  9  1  0
  8  6  1  0
 10 11  1  0
  9 10  1  6
 11 12  2  0
 13 12  1  0
 14 13  1  0
 15 14  2  0
 16 15  1  0
 17 18  1  0
 17 16  2  0
 18 19  2  0
 19 14  1  0
 19 11  1  0
 20  9  1  0
 20 21  2  0
 22 20  1  0
 23 22  1  0
 23 26  1  0
 23 24  1  1
 25 24  1  0
 26 28  1  0
 27 26  2  0
M  END
$$$$
