TWC.pdb
     RDKit          3D

 28 29  0  0  1  0  0  0  0  0999 V2000
   27.4125  -16.2343  -19.0484 C   0  0  0  0  0  0  0  0  0  0  0  0
   26.6586  -17.2196  -18.1534 C   0  0  1  0  0  0  0  0  0  0  0  0
   25.5220  -17.6205  -18.8101 O   0  0  0  0  0  0  0  0  0  0  0  0
   27.5545  -18.3433  -17.6930 C   0  0  2  0  0  0  0  0  0  0  0  0
   28.0283  -19.1232  -18.8418 N   0  0  0  0  0  0  0  0  0  0  0  0
   26.9640  -19.2174  -16.6834 C   0  0  0  0  0  0  0  0  0  0  0  0
   26.4049  -20.2964  -17.0921 O   0  0  0  0  0  0  0  0  0  0  0  0
   26.9981  -18.9029  -15.3023 N   0  0  0  0  0  0  0  0  0  0  0  0
   26.3988  -19.8229  -14.3582 C   0  0  1  0  0  0  0  0  0  0  0  0
   26.9922  -19.6832  -12.9721 C   0  0  0  0  0  0  0  0  0  0  0  0
   26.4211  -20.5794  -11.9778 C   0  0  0  0  0  0  0  0  0  0  0  0
   26.0241  -21.8777  -12.1780 C   0  0  0  0  0  0  0  0  0  0  0  0
   25.5481  -22.4006  -11.0524 N   0  0  0  0  0  0  0  0  0  0  0  0
   25.6147  -21.4767  -10.0857 C   0  0  0  0  0  0  0  0  0  0  0  0
   25.2422  -21.5517   -8.7633 C   0  0  0  0  0  0  0  0  0  0  0  0
   25.4094  -20.4565   -7.9542 C   0  0  0  0  0  0  0  0  0  0  0  0
   25.9470  -19.3063   -8.4857 C   0  0  0  0  0  0  0  0  0  0  0  0
   26.3181  -19.2414   -9.8165 C   0  0  0  0  0  0  0  0  0  0  0  0
   26.1588  -20.3306  -10.6482 C   0  0  0  0  0  0  0  0  0  0  0  0
   24.9609  -19.4936  -14.2435 C   0  0  0  0  0  0  0  0  0  0  0  0
   24.6177  -18.3029  -14.0707 O   0  0  0  0  0  0  0  0  0  0  0  0
   23.9398  -20.4775  -14.3213 N   0  0  0  0  0  0  0  0  0  0  0  0
   22.5542  -20.1157  -14.1452 C   0  0  1  0  0  0  0  0  0  0  0  0
   21.6595  -20.8184  -15.1461 C   0  0  0  0  0  0  0  0  0  0  0  0
   22.3866  -20.7364  -16.8118 S   0  0  0  0  0  0  0  0  0  0  0  0
   22.0980  -20.3741  -12.7506 C   0  0  0  0  0  0  0  0  0  0  0  0
   22.8049  -21.0223  -11.9414 O   0  0  0  0  0  0  0  0  0  0  0  0
   20.8644  -19.9092  -12.2762 O   0  0  0  0  0  0  0  0  0  0  0  0
  2  1  1  6
  2  3  1  0
  2  4  1  0
  4  6  1  0
  4  5  1  6
  6  7  2  0
  8  9  1  0
  8  6  1  0
 10 11  1  0
  9 10  1  1
 11 12  2  0
 13 12  1  0
 14 13  1  0
 15 14  2  0
 16 15  1  0
 17 18  1  0
 17 16  2  0
 18 19  2  0
 19 14  1  0
 19 11  1  0
 20  9  1  0
 20 21  2  0
 22 20  1  0
 23 22  1  0
 23 26  1  0
 23 24  1  6
 25 24  1  0
 26 28  1  0
 27 26  2  0
M  END
$$$$
