TWC.pdb
     RDKit          3D

 28 29  0  0  1  0  0  0  0  0999 V2000
   27.6308  -18.2869  -12.4737 C   0  0  0  0  0  0  0  0  0  0  0  0
   28.4069  -19.3227  -13.2893 C   0  0  1  0  0  0  0  0  0  0  0  0
   29.4425  -18.6861  -13.9266 O   0  0  0  0  0  0  0  0  0  0  0  0
   28.8142  -20.5013  -12.4395 C   0  0  2  0  0  0  0  0  0  0  0  0
   29.5876  -21.4620  -13.2341 N   0  0  0  0  0  0  0  0  0  0  0  0
   27.7101  -21.1678  -11.7545 C   0  0  0  0  0  0  0  0  0  0  0  0
   27.0744  -22.0728  -12.4032 O   0  0  0  0  0  0  0  0  0  0  0  0
   27.3417  -20.8415  -10.4260 N   0  0  0  0  0  0  0  0  0  0  0  0
   26.1236  -21.4010   -9.8781 C   0  0  1  0  0  0  0  0  0  0  0  0
   26.0997  -21.3412   -8.3653 C   0  0  0  0  0  0  0  0  0  0  0  0
   26.8277  -20.2181   -7.7940 C   0  0  0  0  0  0  0  0  0  0  0  0
   26.8948  -18.9439   -8.2991 C   0  0  0  0  0  0  0  0  0  0  0  0
   27.6477  -18.1714   -7.5225 N   0  0  0  0  0  0  0  0  0  0  0  0
   28.0960  -18.9009   -6.4932 C   0  0  0  0  0  0  0  0  0  0  0  0
   28.9026  -18.5404   -5.4385 C   0  0  0  0  0  0  0  0  0  0  0  0
   29.2313  -19.4775   -4.4921 C   0  0  0  0  0  0  0  0  0  0  0  0
   28.7452  -20.7589   -4.6205 C   0  0  0  0  0  0  0  0  0  0  0  0
   27.9350  -21.1108   -5.6847 C   0  0  0  0  0  0  0  0  0  0  0  0
   27.5920  -20.1846   -6.6479 C   0  0  0  0  0  0  0  0  0  0  0  0
   24.9859  -20.5850  -10.3568 C   0  0  0  0  0  0  0  0  0  0  0  0
   25.1455  -19.3568  -10.5339 O   0  0  0  0  0  0  0  0  0  0  0  0
   23.7060  -21.1372  -10.6279 N   0  0  0  0  0  0  0  0  0  0  0  0
   22.6746  -20.3373  -11.2428 C   0  0  1  0  0  0  0  0  0  0  0  0
   22.9346  -20.1265  -12.7207 C   0  0  0  0  0  0  0  0  0  0  0  0
   23.6333  -21.6340  -13.4617 S   0  0  0  0  0  0  0  0  0  0  0  0
   21.3243  -20.9259  -11.0189 C   0  0  0  0  0  0  0  0  0  0  0  0
   21.1846  -22.0758  -10.5364 O   0  0  0  0  0  0  0  0  0  0  0  0
   20.1504  -20.2290  -11.3342 O   0  0  0  0  0  0  0  0  0  0  0  0
  2  1  1  1
  2  3  1  0
  2  4  1  0
  4  6  1  0
  4  5  1  6
  6  7  2  0
  8  9  1  0
  8  6  1  0
 10 11  1  0
  9 10  1  1
 11 12  2  0
 13 12  1  0
 14 13  1  0
 15 14  2  0
 16 15  1  0
 17 18  1  0
 17 16  2  0
 18 19  2  0
 19 14  1  0
 19 11  1  0
 20  9  1  0
 20 21  2  0
 22 20  1  0
 23 22  1  0
 23 26  1  0
 23 24  1  6
 25 24  1  0
 26 28  1  0
 27 26  2  0
M  END
$$$$
