TWC.pdb
     RDKit          3D

 28 29  0  0  1  0  0  0  0  0999 V2000
   18.0162   -8.2095  -19.5862 C   0  0  0  0  0  0  0  0  0  0  0  0
   17.0479   -9.2157  -18.9615 C   0  0  1  0  0  0  0  0  0  0  0  0
   15.9609   -9.3440  -19.7896 O   0  0  0  0  0  0  0  0  0  0  0  0
   17.7424  -10.5117  -18.6215 C   0  0  2  0  0  0  0  0  0  0  0  0
   16.7722  -11.5006  -18.1386 N   0  0  0  0  0  0  0  0  0  0  0  0
   18.8542  -10.3784  -17.6843 C   0  0  0  0  0  0  0  0  0  0  0  0
   18.5649  -10.2014  -16.4479 O   0  0  0  0  0  0  0  0  0  0  0  0
   20.2055  -10.4401  -18.1057 N   0  0  0  0  0  0  0  0  0  0  0  0
   21.2535  -10.1691  -17.1439 C   0  0  1  0  0  0  0  0  0  0  0  0
   22.5849  -10.7479  -17.5742 C   0  0  0  0  0  0  0  0  0  0  0  0
   23.6562  -10.5852  -16.6027 C   0  0  0  0  0  0  0  0  0  0  0  0
   23.5855  -10.8393  -15.2560 C   0  0  0  0  0  0  0  0  0  0  0  0
   24.7501  -10.5817  -14.6692 N   0  0  0  0  0  0  0  0  0  0  0  0
   25.6156  -10.1548  -15.5972 C   0  0  0  0  0  0  0  0  0  0  0  0
   26.9309   -9.7715  -15.4703 C   0  0  0  0  0  0  0  0  0  0  0  0
   27.6237   -9.3660  -16.5828 C   0  0  0  0  0  0  0  0  0  0  0  0
   26.9852   -9.3525  -17.8021 C   0  0  0  0  0  0  0  0  0  0  0  0
   25.6626   -9.7399  -17.9187 C   0  0  0  0  0  0  0  0  0  0  0  0
   24.9469  -10.1511  -16.8132 C   0  0  0  0  0  0  0  0  0  0  0  0
   21.4319   -8.7028  -17.0579 C   0  0  0  0  0  0  0  0  0  0  0  0
   21.5350   -8.0361  -18.1116 O   0  0  0  0  0  0  0  0  0  0  0  0
   21.4922   -8.0083  -15.8207 N   0  0  0  0  0  0  0  0  0  0  0  0
   21.6948   -6.5802  -15.7874 C   0  0  1  0  0  0  0  0  0  0  0  0
   20.4256   -5.8423  -15.4119 C   0  0  0  0  0  0  0  0  0  0  0  0
   19.1251   -6.1515  -16.6461 S   0  0  0  0  0  0  0  0  0  0  0  0
   22.8140   -6.2111  -14.8759 C   0  0  0  0  0  0  0  0  0  0  0  0
   23.4857   -7.0864  -14.2781 O   0  0  0  0  0  0  0  0  0  0  0  0
   23.1702   -4.8763  -14.6423 O   0  0  0  0  0  0  0  0  0  0  0  0
  2  1  1  6
  2  3  1  0
  2  4  1  0
  4  6  1  0
  4  5  1  1
  6  7  2  0
  8  9  1  0
  8  6  1  0
 10 11  1  0
  9 10  1  6
 11 12  2  0
 13 12  1  0
 14 13  1  0
 15 14  2  0
 16 15  1  0
 17 18  1  0
 17 16  2  0
 18 19  2  0
 19 14  1  0
 19 11  1  0
 20  9  1  0
 20 21  2  0
 22 20  1  0
 23 22  1  0
 23 26  1  0
 23 24  1  1
 25 24  1  0
 26 28  1  0
 27 26  2  0
M  END
$$$$
