TWC.pdb
     RDKit          3D

 28 29  0  0  1  0  0  0  0  0999 V2000
   17.7599  -12.7603  -16.2270 C   0  0  0  0  0  0  0  0  0  0  0  0
   18.6045  -11.4882  -16.1342 C   0  0  1  0  0  0  0  0  0  0  0  0
   18.8859  -11.2493  -14.8122 O   0  0  0  0  0  0  0  0  0  0  0  0
   19.8120  -11.5608  -17.0364 C   0  0  2  0  0  0  0  0  0  0  0  0
   20.6625  -12.6963  -16.6623 N   0  0  0  0  0  0  0  0  0  0  0  0
   20.5946  -10.3299  -17.1055 C   0  0  0  0  0  0  0  0  0  0  0  0
   21.7700  -10.3492  -16.5937 O   0  0  0  0  0  0  0  0  0  0  0  0
   20.0923   -9.1515  -17.7108 N   0  0  0  0  0  0  0  0  0  0  0  0
   20.9661   -8.0045  -17.8452 C   0  0  1  0  0  0  0  0  0  0  0  0
   20.6265   -7.1697  -19.0620 C   0  0  0  0  0  0  0  0  0  0  0  0
   20.9024   -7.8184  -20.3352 C   0  0  0  0  0  0  0  0  0  0  0  0
   22.0143   -8.5568  -20.6538 C   0  0  0  0  0  0  0  0  0  0  0  0
   21.9382   -9.0022  -21.9038 N   0  0  0  0  0  0  0  0  0  0  0  0
   20.7889   -8.5779  -22.4437 C   0  0  0  0  0  0  0  0  0  0  0  0
   20.2737   -8.7843  -23.7027 C   0  0  0  0  0  0  0  0  0  0  0  0
   19.0576   -8.2400  -24.0294 C   0  0  0  0  0  0  0  0  0  0  0  0
   18.3803   -7.4988  -23.0879 C   0  0  0  0  0  0  0  0  0  0  0  0
   18.9072   -7.2973  -21.8251 C   0  0  0  0  0  0  0  0  0  0  0  0
   20.1284   -7.8353  -21.4751 C   0  0  0  0  0  0  0  0  0  0  0  0
   20.7721   -7.1365  -16.6629 C   0  0  0  0  0  0  0  0  0  0  0  0
   19.6344   -7.0463  -16.1500 O   0  0  0  0  0  0  0  0  0  0  0  0
   21.8293   -6.3921  -16.0756 N   0  0  0  0  0  0  0  0  0  0  0  0
   21.6028   -5.6014  -14.8903 C   0  0  1  0  0  0  0  0  0  0  0  0
   21.5094   -6.4655  -13.6490 C   0  0  0  0  0  0  0  0  0  0  0  0
   21.5563   -5.4313  -12.1529 S   0  0  0  0  0  0  0  0  0  0  0  0
   22.6472   -4.5510  -14.7298 C   0  0  0  0  0  0  0  0  0  0  0  0
   22.5648   -3.6795  -13.8307 O   0  0  0  0  0  0  0  0  0  0  0  0
   23.7666   -4.4844  -15.5699 O   0  0  0  0  0  0  0  0  0  0  0  0
  2  1  1  1
  2  3  1  0
  2  4  1  0
  4  6  1  0
  4  5  1  1
  6  7  2  0
  8  9  1  0
  8  6  1  0
 10 11  1  0
  9 10  1  6
 11 12  2  0
 13 12  1  0
 14 13  1  0
 15 14  2  0
 16 15  1  0
 17 18  1  0
 17 16  2  0
 18 19  2  0
 19 14  1  0
 19 11  1  0
 20  9  1  0
 20 21  2  0
 22 20  1  0
 23 22  1  0
 23 26  1  0
 23 24  1  1
 25 24  1  0
 26 28  1  0
 27 26  2  0
M  END
$$$$
