TWC.pdb
     RDKit          3D

 28 29  0  0  1  0  0  0  0  0999 V2000
   29.9651  -18.9440  -13.8048 C   0  0  0  0  0  0  0  0  0  0  0  0
   28.8165  -19.7066  -13.1417 C   0  0  1  0  0  0  0  0  0  0  0  0
   28.3739  -20.6693  -14.0141 O   0  0  0  0  0  0  0  0  0  0  0  0
   29.2096  -20.2192  -11.7779 C   0  0  2  0  0  0  0  0  0  0  0  0
   30.3335  -21.1558  -11.8878 N   0  0  0  0  0  0  0  0  0  0  0  0
   28.1163  -20.8118  -11.0124 C   0  0  0  0  0  0  0  0  0  0  0  0
   28.1245  -22.0850  -10.8621 O   0  0  0  0  0  0  0  0  0  0  0  0
   27.0793  -20.0272  -10.4500 N   0  0  0  0  0  0  0  0  0  0  0  0
   25.9264  -20.6926   -9.8800 C   0  0  1  0  0  0  0  0  0  0  0  0
   25.4668  -20.0352   -8.5958 C   0  0  0  0  0  0  0  0  0  0  0  0
   26.5453  -19.5834   -7.7293 C   0  0  0  0  0  0  0  0  0  0  0  0
   27.2492  -18.4109   -7.8420 C   0  0  0  0  0  0  0  0  0  0  0  0
   28.1637  -18.3196   -6.8815 N   0  0  0  0  0  0  0  0  0  0  0  0
   28.0938  -19.4144   -6.1140 C   0  0  0  0  0  0  0  0  0  0  0  0
   28.8322  -19.7679   -5.0082 C   0  0  0  0  0  0  0  0  0  0  0  0
   28.5732  -20.9593   -4.3793 C   0  0  0  0  0  0  0  0  0  0  0  0
   27.5787  -21.7743   -4.8705 C   0  0  0  0  0  0  0  0  0  0  0  0
   26.8422  -21.4094   -5.9829 C   0  0  0  0  0  0  0  0  0  0  0  0
   27.0858  -20.2160   -6.6310 C   0  0  0  0  0  0  0  0  0  0  0  0
   24.8078  -20.5812  -10.8420 C   0  0  0  0  0  0  0  0  0  0  0  0
   24.4890  -19.4542  -11.2820 O   0  0  0  0  0  0  0  0  0  0  0  0
   24.0702  -21.7071  -11.2949 N   0  0  0  0  0  0  0  0  0  0  0  0
   23.0239  -21.5550  -12.2766 C   0  0  1  0  0  0  0  0  0  0  0  0
   23.0754  -22.6478  -13.3252 C   0  0  0  0  0  0  0  0  0  0  0  0
   24.4657  -23.7746  -12.9972 S   0  0  0  0  0  0  0  0  0  0  0  0
   21.6806  -21.4968  -11.6347 C   0  0  0  0  0  0  0  0  0  0  0  0
   21.5341  -21.7047  -10.4059 O   0  0  0  0  0  0  0  0  0  0  0  0
   20.5212  -21.2087  -12.3668 O   0  0  0  0  0  0  0  0  0  0  0  0
  2  1  1  6
  2  3  1  0
  2  4  1  0
  4  6  1  0
  4  5  1  6
  6  7  2  0
  8  9  1  0
  8  6  1  0
 10 11  1  0
  9 10  1  1
 11 12  2  0
 13 12  1  0
 14 13  1  0
 15 14  2  0
 16 15  1  0
 17 18  1  0
 17 16  2  0
 18 19  2  0
 19 14  1  0
 19 11  1  0
 20  9  1  0
 20 21  2  0
 22 20  1  0
 23 22  1  0
 23 26  1  0
 23 24  1  6
 25 24  1  0
 26 28  1  0
 27 26  2  0
M  END
$$$$
