TIL.pdb
     RDKit          3D

 24 23  0  0  1  0  0  0  0  0999 V2000
   22.1026  -14.6640  -21.0655 C   0  0  0  0  0  0  0  0  0  0  0  0
   22.3327  -13.6670  -19.9790 C   0  0  1  0  0  0  0  0  0  0  0  0
   21.1388  -13.0856  -19.5745 O   0  0  0  0  0  0  0  0  0  0  0  0
   22.9998  -14.2691  -18.7616 C   0  0  2  0  0  0  0  0  0  0  0  0
   22.1339  -15.3089  -18.1779 N   0  0  0  0  0  0  0  0  0  0  0  0
   23.3193  -13.2683  -17.7181 C   0  0  0  0  0  0  0  0  0  0  0  0
   22.4783  -13.0665  -16.7819 O   0  0  0  0  0  0  0  0  0  0  0  0
   28.3996  -12.3708  -15.8164 C   0  0  0  0  0  0  0  0  0  0  0  0
   26.9206  -12.5036  -15.9303 C   0  0  0  0  0  0  0  0  0  0  0  0
   26.1845  -11.2816  -16.3540 C   0  0  2  0  0  0  0  0  0  0  0  0
   26.3009  -10.2758  -15.1995 C   0  0  0  0  0  0  0  0  0  0  0  0
   24.7365  -11.4810  -16.6553 C   0  0  2  0  0  0  0  0  0  0  0  0
   24.5044  -12.4955  -17.6634 N   0  0  0  0  0  0  0  0  0  0  0  0
   24.0030  -10.2267  -16.9576 C   0  0  0  0  0  0  0  0  0  0  0  0
   24.2292   -9.5403  -17.9854 O   0  0  0  0  0  0  0  0  0  0  0  0
   18.5345   -8.5740  -17.3626 C   0  0  0  0  0  0  0  0  0  0  0  0
   19.9118   -7.9114  -17.2250 C   0  0  2  0  0  0  0  0  0  0  0  0
   20.2550   -7.1804  -18.4807 C   0  0  0  0  0  0  0  0  0  0  0  0
   20.8722   -9.0074  -16.8877 C   0  0  0  0  0  0  0  0  0  0  0  0
   22.2290   -8.5305  -16.4666 C   0  0  2  0  0  0  0  0  0  0  0  0
   22.9854   -9.7299  -16.0778 N   0  0  0  0  0  0  0  0  0  0  0  0
   22.2541   -7.6030  -15.3400 C   0  0  0  0  0  0  0  0  0  0  0  0
   22.3590   -8.0306  -14.1722 O   0  0  0  0  0  0  0  0  0  0  0  0
   22.1626   -6.2462  -15.5497 O   0  0  0  0  0  0  0  0  0  0  0  0
  2  1  1  6
  3  2  1  0
  4  6  1  0
  4  2  1  0
  4  5  1  1
  6  7  2  0
  8  9  1  0
  9 10  1  0
 10 11  1  1
 12 10  1  0
 12 13  1  6
 13  6  1  0
 14 15  2  0
 14 12  1  0
 17 16  1  6
 17 18  1  0
 17 19  1  0
 20 19  1  1
 20 22  1  0
 20 21  1  0
 21 14  1  0
 22 24  1  0
 23 22  2  0
M  END
$$$$
