TIL.pdb
     RDKit          3D

 24 23  0  0  1  0  0  0  0  0999 V2000
   12.2196   -9.6826  -13.4285 C   0  0  0  0  0  0  0  0  0  0  0  0
   12.3526  -11.1687  -13.3960 C   0  0  1  0  0  0  0  0  0  0  0  0
   11.3409  -11.7762  -14.1269 O   0  0  0  0  0  0  0  0  0  0  0  0
   13.6805  -11.6511  -13.9380 C   0  0  2  0  0  0  0  0  0  0  0  0
   13.7732  -13.1160  -13.8073 N   0  0  0  0  0  0  0  0  0  0  0  0
   14.8442  -11.0338  -13.2617 C   0  0  0  0  0  0  0  0  0  0  0  0
   15.1906  -11.4686  -12.1148 O   0  0  0  0  0  0  0  0  0  0  0  0
   19.8326   -9.8589  -15.0357 C   0  0  0  0  0  0  0  0  0  0  0  0
   18.5826  -10.1400  -14.2764 C   0  0  0  0  0  0  0  0  0  0  0  0
   17.8548   -8.9529  -13.7514 C   0  0  2  0  0  0  0  0  0  0  0  0
   18.8229   -8.2264  -12.8063 C   0  0  0  0  0  0  0  0  0  0  0  0
   16.6031   -9.2539  -12.9964 C   0  0  2  0  0  0  0  0  0  0  0  0
   15.6281   -9.9779  -13.7865 N   0  0  0  0  0  0  0  0  0  0  0  0
   16.0020   -8.0739  -12.3264 C   0  0  0  0  0  0  0  0  0  0  0  0
   15.3328   -7.2103  -12.9467 O   0  0  0  0  0  0  0  0  0  0  0  0
   14.9106   -6.4509   -6.5598 C   0  0  0  0  0  0  0  0  0  0  0  0
   14.5627   -6.1016   -8.0131 C   0  0  2  0  0  0  0  0  0  0  0  0
   13.0815   -6.0122   -8.1767 C   0  0  0  0  0  0  0  0  0  0  0  0
   15.1969   -7.1579   -8.8612 C   0  0  0  0  0  0  0  0  0  0  0  0
   15.4408   -6.7448  -10.2810 C   0  0  2  0  0  0  0  0  0  0  0  0
   16.1586   -7.8592  -10.9172 N   0  0  0  0  0  0  0  0  0  0  0  0
   16.2410   -5.5378  -10.4620 C   0  0  0  0  0  0  0  0  0  0  0  0
   17.4873   -5.6022  -10.4729 O   0  0  0  0  0  0  0  0  0  0  0  0
   15.6332   -4.3140  -10.6229 O   0  0  0  0  0  0  0  0  0  0  0  0
  2  1  1  6
  3  2  1  0
  4  6  1  0
  4  2  1  0
  4  5  1  1
  6  7  2  0
  8  9  1  0
  9 10  1  0
 10 11  1  1
 12 10  1  0
 12 13  1  6
 13  6  1  0
 14 15  2  0
 14 12  1  0
 17 16  1  1
 17 18  1  0
 17 19  1  0
 20 19  1  1
 20 22  1  0
 20 21  1  0
 21 14  1  0
 22 24  1  0
 23 22  2  0
M  END
$$$$
