TIL.pdb
     RDKit          3D

 24 23  0  0  1  0  0  0  0  0999 V2000
   20.1497  -10.2412  -19.3186 C   0  0  0  0  0  0  0  0  0  0  0  0
   19.6102  -11.3838  -18.5244 C   0  0  1  0  0  0  0  0  0  0  0  0
   18.8744  -12.2454  -19.3262 O   0  0  0  0  0  0  0  0  0  0  0  0
   20.6949  -12.1872  -17.8406 C   0  0  2  0  0  0  0  0  0  0  0  0
   20.1029  -13.3544  -17.1631 N   0  0  0  0  0  0  0  0  0  0  0  0
   21.4681  -11.3997  -16.8534 C   0  0  0  0  0  0  0  0  0  0  0  0
   20.8782  -10.9792  -15.8047 O   0  0  0  0  0  0  0  0  0  0  0  0
   26.8201  -12.1237  -15.5716 C   0  0  0  0  0  0  0  0  0  0  0  0
   25.3619  -11.8211  -15.5700 C   0  0  0  0  0  0  0  0  0  0  0  0
   24.9807  -10.4356  -15.9569 C   0  0  2  0  0  0  0  0  0  0  0  0
   25.5705   -9.5030  -14.8890 C   0  0  0  0  0  0  0  0  0  0  0  0
   23.5132  -10.1778  -16.0429 C   0  0  2  0  0  0  0  0  0  0  0  0
   22.8383  -11.0628  -16.9705 N   0  0  0  0  0  0  0  0  0  0  0  0
   23.1616   -8.7562  -16.2836 C   0  0  0  0  0  0  0  0  0  0  0  0
   23.2155   -8.2283  -17.4224 O   0  0  0  0  0  0  0  0  0  0  0  0
   20.3566   -4.3748  -15.1262 C   0  0  0  0  0  0  0  0  0  0  0  0
   20.3364   -5.2656  -16.3757 C   0  0  2  0  0  0  0  0  0  0  0  0
   18.9469   -5.3603  -16.9134 C   0  0  0  0  0  0  0  0  0  0  0  0
   20.9096   -6.5832  -15.9602 C   0  0  0  0  0  0  0  0  0  0  0  0
   22.3390   -6.5208  -15.5143 C   0  0  2  0  0  0  0  0  0  0  0  0
   22.7372   -7.9035  -15.2116 N   0  0  0  0  0  0  0  0  0  0  0  0
   22.5987   -5.7120  -14.3276 C   0  0  0  0  0  0  0  0  0  0  0  0
   22.4822   -6.2074  -13.1880 O   0  0  0  0  0  0  0  0  0  0  0  0
   22.9750   -4.3941  -14.4487 O   0  0  0  0  0  0  0  0  0  0  0  0
  2  1  1  6
  3  2  1  0
  4  6  1  0
  4  2  1  0
  4  5  1  1
  6  7  2  0
  8  9  1  0
  9 10  1  0
 10 11  1  1
 12 10  1  0
 12 13  1  6
 13  6  1  0
 14 15  2  0
 14 12  1  0
 17 16  1  1
 17 18  1  0
 17 19  1  0
 20 19  1  1
 20 22  1  0
 20 21  1  0
 21 14  1  0
 22 24  1  0
 23 22  2  0
M  END
$$$$
