TIL.pdb
     RDKit          3D

 24 23  0  0  1  0  0  0  0  0999 V2000
   20.8101  -11.1543  -22.1218 C   0  0  0  0  0  0  0  0  0  0  0  0
   20.6674  -10.3126  -20.8977 C   0  0  1  0  0  0  0  0  0  0  0  0
   19.5437   -9.5016  -20.9782 O   0  0  0  0  0  0  0  0  0  0  0  0
   20.5670  -11.1326  -19.6300 C   0  0  2  0  0  0  0  0  0  0  0  0
   19.3757  -11.9982  -19.6856 N   0  0  0  0  0  0  0  0  0  0  0  0
   20.5022  -10.3042  -18.4044 C   0  0  0  0  0  0  0  0  0  0  0  0
   19.3610  -10.0279  -17.9087 O   0  0  0  0  0  0  0  0  0  0  0  0
   23.4827  -11.2273  -14.1059 C   0  0  0  0  0  0  0  0  0  0  0  0
   22.4085  -10.7760  -15.0333 C   0  0  0  0  0  0  0  0  0  0  0  0
   22.4620   -9.3489  -15.4518 C   0  0  2  0  0  0  0  0  0  0  0  0
   22.1519   -8.5124  -14.2020 C   0  0  0  0  0  0  0  0  0  0  0  0
   21.4987   -8.9615  -16.5238 C   0  0  2  0  0  0  0  0  0  0  0  0
   21.6211   -9.7780  -17.7144 N   0  0  0  0  0  0  0  0  0  0  0  0
   21.5033   -7.5130  -16.8469 C   0  0  0  0  0  0  0  0  0  0  0  0
   22.4167   -6.9713  -17.5184 O   0  0  0  0  0  0  0  0  0  0  0  0
   17.4340   -3.6012  -18.4752 C   0  0  0  0  0  0  0  0  0  0  0  0
   18.9366   -3.7138  -18.1846 C   0  0  2  0  0  0  0  0  0  0  0  0
   19.7197   -3.4219  -19.4217 C   0  0  0  0  0  0  0  0  0  0  0  0
   19.1571   -5.0920  -17.6467 C   0  0  0  0  0  0  0  0  0  0  0  0
   20.4261   -5.2537  -16.8661 C   0  0  2  0  0  0  0  0  0  0  0  0
   20.4495   -6.6484  -16.4013 N   0  0  0  0  0  0  0  0  0  0  0  0
   20.5658   -4.3917  -15.6968 C   0  0  0  0  0  0  0  0  0  0  0  0
   20.0040   -4.6886  -14.6226 O   0  0  0  0  0  0  0  0  0  0  0  0
   21.3178   -3.2413  -15.7624 O   0  0  0  0  0  0  0  0  0  0  0  0
  2  1  1  6
  3  2  1  0
  4  6  1  0
  4  2  1  0
  4  5  1  6
  6  7  2  0
  8  9  1  0
  9 10  1  0
 10 11  1  1
 12 10  1  0
 12 13  1  6
 13  6  1  0
 14 15  2  0
 14 12  1  0
 17 16  1  6
 17 18  1  0
 17 19  1  0
 20 19  1  1
 20 22  1  0
 20 21  1  0
 21 14  1  0
 22 24  1  0
 23 22  2  0
M  END
$$$$
