TIL.pdb
     RDKit          3D

 24 23  0  0  1  0  0  0  0  0999 V2000
   21.5344  -10.9082  -20.9323 C   0  0  0  0  0  0  0  0  0  0  0  0
   21.0828  -12.2131  -20.3662 C   0  0  1  0  0  0  0  0  0  0  0  0
   20.7392  -13.1024  -21.3751 O   0  0  0  0  0  0  0  0  0  0  0  0
   22.1322  -12.8699  -19.4962 C   0  0  2  0  0  0  0  0  0  0  0  0
   21.6438  -14.1767  -19.0214 N   0  0  0  0  0  0  0  0  0  0  0  0
   22.5172  -12.0471  -18.3268 C   0  0  0  0  0  0  0  0  0  0  0  0
   21.7001  -11.9404  -17.3545 O   0  0  0  0  0  0  0  0  0  0  0  0
   27.5397  -11.7199  -16.1364 C   0  0  0  0  0  0  0  0  0  0  0  0
   26.0636  -11.7129  -16.3347 C   0  0  0  0  0  0  0  0  0  0  0  0
   25.4605  -10.4066  -16.7144 C   0  0  2  0  0  0  0  0  0  0  0  0
   25.6178   -9.4802  -15.4999 C   0  0  0  0  0  0  0  0  0  0  0  0
   24.0146  -10.4537  -17.0814 C   0  0  2  0  0  0  0  0  0  0  0  0
   23.7419  -11.3507  -18.1860 N   0  0  0  0  0  0  0  0  0  0  0  0
   23.3997   -9.1193  -17.2911 C   0  0  0  0  0  0  0  0  0  0  0  0
   23.7118   -8.3729  -18.2524 O   0  0  0  0  0  0  0  0  0  0  0  0
   18.4877   -6.6170  -18.2779 C   0  0  0  0  0  0  0  0  0  0  0  0
   19.8411   -6.1960  -17.6896 C   0  0  2  0  0  0  0  0  0  0  0  0
   20.5551   -5.2961  -18.6431 C   0  0  0  0  0  0  0  0  0  0  0  0
   20.5804   -7.4617  -17.3918 C   0  0  0  0  0  0  0  0  0  0  0  0
   21.8538   -7.2666  -16.6260 C   0  0  2  0  0  0  0  0  0  0  0  0
   22.4048   -8.6097  -16.3930 N   0  0  0  0  0  0  0  0  0  0  0  0
   21.7203   -6.6084  -15.3303 C   0  0  0  0  0  0  0  0  0  0  0  0
   21.5640   -5.3720  -15.2632 O   0  0  0  0  0  0  0  0  0  0  0  0
   21.7648   -7.3409  -14.1665 O   0  0  0  0  0  0  0  0  0  0  0  0
  2  1  1  6
  3  2  1  0
  4  6  1  0
  4  2  1  0
  4  5  1  1
  6  7  2  0
  8  9  1  0
  9 10  1  0
 10 11  1  1
 12 10  1  0
 12 13  1  6
 13  6  1  0
 14 15  2  0
 14 12  1  0
 17 16  1  6
 17 18  1  0
 17 19  1  0
 20 19  1  1
 20 22  1  0
 20 21  1  0
 21 14  1  0
 22 24  1  0
 23 22  2  0
M  END
$$$$
