TIL.pdb
     RDKit          3D

 24 23  0  0  1  0  0  0  0  0999 V2000
   22.0308  -12.3142  -20.5508 C   0  0  0  0  0  0  0  0  0  0  0  0
   21.3776  -13.5134  -19.9488 C   0  0  1  0  0  0  0  0  0  0  0  0
   20.9955  -14.4184  -20.9296 O   0  0  0  0  0  0  0  0  0  0  0  0
   22.2704  -14.2355  -18.9633 C   0  0  2  0  0  0  0  0  0  0  0  0
   21.5839  -15.4339  -18.4494 N   0  0  0  0  0  0  0  0  0  0  0  0
   22.6796  -13.3886  -17.8197 C   0  0  0  0  0  0  0  0  0  0  0  0
   21.8016  -13.0505  -16.9599 O   0  0  0  0  0  0  0  0  0  0  0  0
   27.6652  -13.4760  -15.3955 C   0  0  0  0  0  0  0  0  0  0  0  0
   26.1988  -13.3349  -15.6140 C   0  0  0  0  0  0  0  0  0  0  0  0
   25.7363  -12.0128  -16.1167 C   0  0  2  0  0  0  0  0  0  0  0  0
   25.9361  -11.0119  -14.9694 C   0  0  0  0  0  0  0  0  0  0  0  0
   24.3069  -11.9561  -16.5420 C   0  0  2  0  0  0  0  0  0  0  0  0
   23.9912  -12.9083  -17.5874 N   0  0  0  0  0  0  0  0  0  0  0  0
   23.8290  -10.5917  -16.8775 C   0  0  0  0  0  0  0  0  0  0  0  0
   24.0620  -10.0452  -17.9846 O   0  0  0  0  0  0  0  0  0  0  0  0
   20.2327   -6.7557  -16.7068 C   0  0  0  0  0  0  0  0  0  0  0  0
   20.8644   -7.4937  -17.8948 C   0  0  2  0  0  0  0  0  0  0  0  0
   19.8329   -7.7528  -18.9425 C   0  0  0  0  0  0  0  0  0  0  0  0
   21.4778   -8.7385  -17.3366 C   0  0  0  0  0  0  0  0  0  0  0  0
   22.5720   -8.4945  -16.3421 C   0  0  2  0  0  0  0  0  0  0  0  0
   23.0668   -9.8194  -15.9400 N   0  0  0  0  0  0  0  0  0  0  0  0
   22.1813   -7.7783  -15.1319 C   0  0  0  0  0  0  0  0  0  0  0  0
   21.7473   -8.4017  -14.1416 O   0  0  0  0  0  0  0  0  0  0  0  0
   22.2859   -6.4080  -15.0663 O   0  0  0  0  0  0  0  0  0  0  0  0
  2  1  1  6
  3  2  1  0
  4  6  1  0
  4  2  1  0
  4  5  1  1
  6  7  2  0
  8  9  1  0
  9 10  1  0
 10 11  1  1
 12 10  1  0
 12 13  1  6
 13  6  1  0
 14 15  2  0
 14 12  1  0
 17 16  1  1
 17 18  1  0
 17 19  1  0
 20 19  1  6
 20 22  1  0
 20 21  1  0
 21 14  1  0
 22 24  1  0
 23 22  2  0
M  END
$$$$
