TIL.pdb
     RDKit          3D

 24 23  0  0  1  0  0  0  0  0999 V2000
   24.8747  -19.3800  -13.7314 C   0  0  0  0  0  0  0  0  0  0  0  0
   25.4622  -19.7884  -12.4217 C   0  0  1  0  0  0  0  0  0  0  0  0
   24.4734  -19.9570  -11.4622 O   0  0  0  0  0  0  0  0  0  0  0  0
   26.2572  -21.0728  -12.5100 C   0  0  2  0  0  0  0  0  0  0  0  0
   25.3647  -22.1919  -12.8604 N   0  0  0  0  0  0  0  0  0  0  0  0
   26.9718  -21.4027  -11.2558 C   0  0  0  0  0  0  0  0  0  0  0  0
   26.4510  -22.2468  -10.4553 O   0  0  0  0  0  0  0  0  0  0  0  0
   32.3471  -22.2201  -10.7979 C   0  0  0  0  0  0  0  0  0  0  0  0
   30.8667  -22.2070  -10.6362 C   0  0  0  0  0  0  0  0  0  0  0  0
   30.3235  -21.2215   -9.6624 C   0  0  2  0  0  0  0  0  0  0  0  0
   30.8626  -21.6245   -8.2822 C   0  0  0  0  0  0  0  0  0  0  0  0
   28.8346  -21.1581   -9.5817 C   0  0  2  0  0  0  0  0  0  0  0  0
   28.2131  -20.8525  -10.8543 N   0  0  0  0  0  0  0  0  0  0  0  0
   28.3241  -20.2846   -8.4959 C   0  0  0  0  0  0  0  0  0  0  0  0
   28.0150  -19.0813   -8.6831 O   0  0  0  0  0  0  0  0  0  0  0  0
   24.9092  -20.6768   -5.7473 C   0  0  0  0  0  0  0  0  0  0  0  0
   26.0766  -21.5968   -5.3656 C   0  0  2  0  0  0  0  0  0  0  0  0
   25.6580  -22.5290   -4.2772 C   0  0  0  0  0  0  0  0  0  0  0  0
   27.2100  -20.6988   -4.9830 C   0  0  0  0  0  0  0  0  0  0  0  0
   27.7300  -19.8504   -6.1035 C   0  0  2  0  0  0  0  0  0  0  0  0
   28.1566  -20.7792   -7.1604 N   0  0  0  0  0  0  0  0  0  0  0  0
   28.8660  -18.9945   -5.7768 C   0  0  0  0  0  0  0  0  0  0  0  0
   30.0306  -19.3696   -6.0232 O   0  0  0  0  0  0  0  0  0  0  0  0
   28.6691  -17.7641   -5.1934 O   0  0  0  0  0  0  0  0  0  0  0  0
  2  1  1  6
  3  2  1  0
  4  6  1  0
  4  2  1  0
  4  5  1  1
  6  7  2  0
  8  9  1  0
  9 10  1  0
 10 11  1  1
 12 10  1  0
 12 13  1  6
 13  6  1  0
 14 15  2  0
 14 12  1  0
 17 16  1  1
 17 18  1  0
 17 19  1  0
 20 19  1  1
 20 22  1  0
 20 21  1  0
 21 14  1  0
 22 24  1  0
 23 22  2  0
M  END
$$$$
