TIL.pdb
     RDKit          3D

 24 23  0  0  1  0  0  0  0  0999 V2000
   24.4849  -24.7102  -15.5981 C   0  0  0  0  0  0  0  0  0  0  0  0
   25.6480  -25.2162  -16.3846 C   0  0  1  0  0  0  0  0  0  0  0  0
   25.2350  -26.0953  -17.3762 O   0  0  0  0  0  0  0  0  0  0  0  0
   26.4412  -24.1063  -17.0392 C   0  0  2  0  0  0  0  0  0  0  0  0
   27.6363  -24.6644  -17.6964 N   0  0  0  0  0  0  0  0  0  0  0  0
   26.8637  -23.0533  -16.0877 C   0  0  0  0  0  0  0  0  0  0  0  0
   27.8837  -23.2623  -15.3526 O   0  0  0  0  0  0  0  0  0  0  0  0
   27.5807  -17.8154  -17.1347 C   0  0  0  0  0  0  0  0  0  0  0  0
   27.6296  -19.1735  -16.5255 C   0  0  0  0  0  0  0  0  0  0  0  0
   26.6515  -19.4374  -15.4355 C   0  0  2  0  0  0  0  0  0  0  0  0
   27.0219  -18.5009  -14.2762 C   0  0  0  0  0  0  0  0  0  0  0  0
   26.6349  -20.8371  -14.9178 C   0  0  2  0  0  0  0  0  0  0  0  0
   26.2221  -21.8028  -15.9159 N   0  0  0  0  0  0  0  0  0  0  0  0
   25.8857  -21.0037  -13.6476 C   0  0  0  0  0  0  0  0  0  0  0  0
   24.6375  -21.1423  -13.6103 O   0  0  0  0  0  0  0  0  0  0  0  0
   24.5943  -20.8252   -8.8894 C   0  0  0  0  0  0  0  0  0  0  0  0
   26.0989  -20.6056   -8.6819 C   0  0  2  0  0  0  0  0  0  0  0  0
   26.3396  -19.2690   -8.0621 C   0  0  0  0  0  0  0  0  0  0  0  0
   26.7350  -20.7665  -10.0261 C   0  0  0  0  0  0  0  0  0  0  0  0
   25.7629  -20.9731  -11.1478 C   0  0  2  0  0  0  0  0  0  0  0  0
   26.5604  -21.0146  -12.3823 N   0  0  0  0  0  0  0  0  0  0  0  0
   24.7483  -19.9363  -11.3070 C   0  0  0  0  0  0  0  0  0  0  0  0
   25.0609  -18.8079  -11.7391 O   0  0  0  0  0  0  0  0  0  0  0  0
   23.4349  -20.1881  -10.9833 O   0  0  0  0  0  0  0  0  0  0  0  0
  2  1  1  6
  3  2  1  0
  4  6  1  0
  4  2  1  0
  4  5  1  1
  6  7  2  0
  8  9  1  0
  9 10  1  0
 10 11  1  1
 12 10  1  0
 12 13  1  6
 13  6  1  0
 14 15  2  0
 14 12  1  0
 17 16  1  6
 17 18  1  0
 17 19  1  0
 20 19  1  1
 20 22  1  0
 20 21  1  0
 21 14  1  0
 22 24  1  0
 23 22  2  0
M  END
$$$$
