TIL.pdb
     RDKit          3D

 24 23  0  0  1  0  0  0  0  0999 V2000
   22.1464  -15.8192  -17.5733 C   0  0  0  0  0  0  0  0  0  0  0  0
   22.6103  -16.9319  -16.6935 C   0  0  1  0  0  0  0  0  0  0  0  0
   21.5425  -17.5243  -16.0334 O   0  0  0  0  0  0  0  0  0  0  0  0
   23.3518  -18.0103  -17.4530 C   0  0  2  0  0  0  0  0  0  0  0  0
   22.4497  -18.6471  -18.4288 N   0  0  0  0  0  0  0  0  0  0  0  0
   23.9218  -19.0554  -16.5723 C   0  0  0  0  0  0  0  0  0  0  0  0
   23.2145  -20.0790  -16.2956 O   0  0  0  0  0  0  0  0  0  0  0  0
   28.5838  -20.0336  -17.3967 C   0  0  0  0  0  0  0  0  0  0  0  0
   27.5603  -20.8327  -16.6674 C   0  0  0  0  0  0  0  0  0  0  0  0
   27.1748  -20.3297  -15.3209 C   0  0  2  0  0  0  0  0  0  0  0  0
   27.6070  -21.4024  -14.3107 C   0  0  0  0  0  0  0  0  0  0  0  0
   25.7178  -20.0687  -15.1301 C   0  0  2  0  0  0  0  0  0  0  0  0
   25.2143  -19.0212  -15.9952 N   0  0  0  0  0  0  0  0  0  0  0  0
   25.3218  -19.8528  -13.7162 C   0  0  0  0  0  0  0  0  0  0  0  0
   25.6864  -18.8477  -13.0563 O   0  0  0  0  0  0  0  0  0  0  0  0
   20.8445  -21.5468  -10.0433 C   0  0  0  0  0  0  0  0  0  0  0  0
   22.1915  -20.8118  -10.0607 C   0  0  2  0  0  0  0  0  0  0  0  0
   22.0129  -19.4064   -9.5897 C   0  0  0  0  0  0  0  0  0  0  0  0
   22.7063  -20.9138  -11.4614 C   0  0  0  0  0  0  0  0  0  0  0  0
   24.1512  -20.5474  -11.6156 C   0  0  2  0  0  0  0  0  0  0  0  0
   24.4915  -20.7953  -13.0244 N   0  0  0  0  0  0  0  0  0  0  0  0
   25.0888  -21.3029  -10.7909 C   0  0  0  0  0  0  0  0  0  0  0  0
   25.5500  -22.3903  -11.1939 O   0  0  0  0  0  0  0  0  0  0  0  0
   25.4767  -20.8273   -9.5594 O   0  0  0  0  0  0  0  0  0  0  0  0
  2  1  1  6
  3  2  1  0
  4  6  1  0
  4  2  1  0
  4  5  1  6
  6  7  2  0
  8  9  1  0
  9 10  1  0
 10 11  1  1
 12 10  1  0
 12 13  1  6
 13  6  1  0
 14 15  2  0
 14 12  1  0
 17 16  1  6
 17 18  1  0
 17 19  1  0
 20 19  1  6
 20 22  1  0
 20 21  1  0
 21 14  1  0
 22 24  1  0
 23 22  2  0
M  END
$$$$
