TIL.pdb
     RDKit          3D

 24 23  0  0  1  0  0  0  0  0999 V2000
   21.1982  -11.3207  -21.6317 C   0  0  0  0  0  0  0  0  0  0  0  0
   21.2519  -10.6630  -20.2931 C   0  0  1  0  0  0  0  0  0  0  0  0
   20.4502   -9.5302  -20.2615 O   0  0  0  0  0  0  0  0  0  0  0  0
   20.8166  -11.5799  -19.1709 C   0  0  2  0  0  0  0  0  0  0  0  0
   19.4244  -12.0119  -19.3875 N   0  0  0  0  0  0  0  0  0  0  0  0
   20.9228  -10.9538  -17.8332 C   0  0  0  0  0  0  0  0  0  0  0  0
   19.8603  -10.5463  -17.2591 O   0  0  0  0  0  0  0  0  0  0  0  0
   23.9762  -12.8993  -13.8638 C   0  0  0  0  0  0  0  0  0  0  0  0
   22.9719  -12.2185  -14.7274 C   0  0  0  0  0  0  0  0  0  0  0  0
   23.1278  -10.7460  -14.8764 C   0  0  2  0  0  0  0  0  0  0  0  0
   22.9030  -10.1372  -13.4846 C   0  0  0  0  0  0  0  0  0  0  0  0
   22.1795  -10.0969  -15.8286 C   0  0  2  0  0  0  0  0  0  0  0  0
   22.1276  -10.7621  -17.1146 N   0  0  0  0  0  0  0  0  0  0  0  0
   22.3751   -8.6328  -15.9737 C   0  0  0  0  0  0  0  0  0  0  0  0
   22.4165   -7.8539  -14.9888 O   0  0  0  0  0  0  0  0  0  0  0  0
   25.5822   -7.1318  -17.7947 C   0  0  0  0  0  0  0  0  0  0  0  0
   24.6021   -7.2825  -18.9659 C   0  0  2  0  0  0  0  0  0  0  0  0
   25.2968   -6.9899  -20.2546 C   0  0  0  0  0  0  0  0  0  0  0  0
   23.4599   -6.3606  -18.6778 C   0  0  0  0  0  0  0  0  0  0  0  0
   22.8057   -6.5860  -17.3485 C   0  0  2  0  0  0  0  0  0  0  0  0
   22.5283   -8.0275  -17.2646 N   0  0  0  0  0  0  0  0  0  0  0  0
   21.5488   -5.8767  -17.1316 C   0  0  0  0  0  0  0  0  0  0  0  0
   20.4584   -6.4691  -17.2647 O   0  0  0  0  0  0  0  0  0  0  0  0
   21.5487   -4.5471  -16.7779 O   0  0  0  0  0  0  0  0  0  0  0  0
  2  1  1  6
  3  2  1  0
  4  6  1  0
  4  2  1  0
  4  5  1  6
  6  7  2  0
  8  9  1  0
  9 10  1  0
 10 11  1  1
 12 10  1  0
 12 13  1  6
 13  6  1  0
 14 15  2  0
 14 12  1  0
 17 16  1  1
 17 18  1  0
 17 19  1  0
 20 19  1  6
 20 22  1  0
 20 21  1  0
 21 14  1  0
 22 24  1  0
 23 22  2  0
M  END
$$$$
