TIL.pdb
     RDKit          3D

 24 23  0  0  1  0  0  0  0  0999 V2000
   28.6751  -18.4015  -16.1527 C   0  0  0  0  0  0  0  0  0  0  0  0
   27.5235  -19.0032  -15.4185 C   0  0  1  0  0  0  0  0  0  0  0  0
   26.4698  -19.2753  -16.2802 O   0  0  0  0  0  0  0  0  0  0  0  0
   27.8893  -20.2847  -14.7019 C   0  0  2  0  0  0  0  0  0  0  0  0
   28.2171  -21.3328  -15.6846 N   0  0  0  0  0  0  0  0  0  0  0  0
   26.8156  -20.7804  -13.8109 C   0  0  0  0  0  0  0  0  0  0  0  0
   26.1436  -21.8029  -14.1678 O   0  0  0  0  0  0  0  0  0  0  0  0
   27.0078  -20.4730   -8.3736 C   0  0  0  0  0  0  0  0  0  0  0  0
   26.5997  -21.0297   -9.6932 C   0  0  0  0  0  0  0  0  0  0  0  0
   25.4322  -20.3774  -10.3459 C   0  0  2  0  0  0  0  0  0  0  0  0
   24.1776  -20.9201   -9.6463 C   0  0  0  0  0  0  0  0  0  0  0  0
   25.2962  -20.6300  -11.8105 C   0  0  2  0  0  0  0  0  0  0  0  0
   26.4582  -20.2080  -12.5660 N   0  0  0  0  0  0  0  0  0  0  0  0
   24.0376  -20.1095  -12.4001 C   0  0  0  0  0  0  0  0  0  0  0  0
   23.7575  -18.8850  -12.4270 O   0  0  0  0  0  0  0  0  0  0  0  0
   20.9660  -20.7889  -17.2566 C   0  0  0  0  0  0  0  0  0  0  0  0
   20.8188  -20.1613  -15.8640 C   0  0  2  0  0  0  0  0  0  0  0  0
   20.7377  -18.6751  -15.9792 C   0  0  0  0  0  0  0  0  0  0  0  0
   21.9895  -20.6377  -15.0640 C   0  0  0  0  0  0  0  0  0  0  0  0
   21.8561  -20.4216  -13.5870 C   0  0  2  0  0  0  0  0  0  0  0  0
   23.0654  -20.9925  -12.9759 N   0  0  0  0  0  0  0  0  0  0  0  0
   20.6991  -21.0487  -12.9561 C   0  0  0  0  0  0  0  0  0  0  0  0
   20.7493  -22.2400  -12.5876 O   0  0  0  0  0  0  0  0  0  0  0  0
   19.5388  -20.3360  -12.7590 O   0  0  0  0  0  0  0  0  0  0  0  0
  2  1  1  6
  3  2  1  0
  4  6  1  0
  4  2  1  0
  4  5  1  6
  6  7  2  0
  8  9  1  0
  9 10  1  0
 10 11  1  1
 12 10  1  0
 12 13  1  6
 13  6  1  0
 14 15  2  0
 14 12  1  0
 17 16  1  6
 17 18  1  0
 17 19  1  0
 20 19  1  6
 20 22  1  0
 20 21  1  0
 21 14  1  0
 22 24  1  0
 23 22  2  0
M  END
$$$$
