TIL.pdb
     RDKit          3D

 24 23  0  0  1  0  0  0  0  0999 V2000
   22.3479  -15.1626  -14.4394 C   0  0  0  0  0  0  0  0  0  0  0  0
   21.9215  -16.0163  -15.5869 C   0  0  1  0  0  0  0  0  0  0  0  0
   21.8920  -17.3568  -15.2274 O   0  0  0  0  0  0  0  0  0  0  0  0
   20.5566  -15.6417  -16.1218 C   0  0  2  0  0  0  0  0  0  0  0  0
   20.1853  -16.5448  -17.2255 N   0  0  0  0  0  0  0  0  0  0  0  0
   20.4829  -14.2424  -16.6004 C   0  0  0  0  0  0  0  0  0  0  0  0
   21.2556  -13.8742  -17.5448 O   0  0  0  0  0  0  0  0  0  0  0  0
   16.3425  -12.4583  -18.1248 C   0  0  0  0  0  0  0  0  0  0  0  0
   17.7590  -12.0046  -18.1996 C   0  0  0  0  0  0  0  0  0  0  0  0
   18.3080  -11.3680  -16.9716 C   0  0  2  0  0  0  0  0  0  0  0  0
   18.4351   -9.8678  -17.2734 C   0  0  0  0  0  0  0  0  0  0  0  0
   19.6433  -11.8711  -16.5342 C   0  0  2  0  0  0  0  0  0  0  0  0
   19.6094  -13.2505  -16.0924 N   0  0  0  0  0  0  0  0  0  0  0  0
   20.3277  -10.9948  -15.5512 C   0  0  0  0  0  0  0  0  0  0  0  0
   19.8991  -10.8231  -14.3827 O   0  0  0  0  0  0  0  0  0  0  0  0
   24.1026  -11.4923  -14.0336 C   0  0  0  0  0  0  0  0  0  0  0  0
   24.3107  -10.7852  -15.3796 C   0  0  2  0  0  0  0  0  0  0  0  0
   25.7673  -10.7119  -15.6986 C   0  0  0  0  0  0  0  0  0  0  0  0
   23.6561   -9.4460  -15.2549 C   0  0  0  0  0  0  0  0  0  0  0  0
   22.2120   -9.4999  -14.8582 C   0  0  2  0  0  0  0  0  0  0  0  0
   21.5295  -10.2909  -15.8929 N   0  0  0  0  0  0  0  0  0  0  0  0
   21.5323   -8.2121  -14.7608 C   0  0  0  0  0  0  0  0  0  0  0  0
   20.9900   -7.7067  -15.7648 O   0  0  0  0  0  0  0  0  0  0  0  0
   21.4801   -7.5384  -13.5622 O   0  0  0  0  0  0  0  0  0  0  0  0
  2  1  1  1
  3  2  1  0
  4  6  1  0
  4  2  1  0
  4  5  1  6
  6  7  2  0
  8  9  1  0
  9 10  1  0
 10 11  1  6
 12 10  1  0
 12 13  1  1
 13  6  1  0
 14 15  2  0
 14 12  1  0
 17 16  1  1
 17 18  1  0
 17 19  1  0
 20 19  1  6
 20 22  1  0
 20 21  1  0
 21 14  1  0
 22 24  1  0
 23 22  2  0
M  END
$$$$
