TIL.pdb
     RDKit          3D

 24 23  0  0  1  0  0  0  0  0999 V2000
   28.7766  -18.5264  -16.2890 C   0  0  0  0  0  0  0  0  0  0  0  0
   27.5742  -19.1007  -15.6168 C   0  0  1  0  0  0  0  0  0  0  0  0
   26.5516  -19.3234  -16.5287 O   0  0  0  0  0  0  0  0  0  0  0  0
   27.8654  -20.4051  -14.9074 C   0  0  2  0  0  0  0  0  0  0  0  0
   28.2101  -21.4457  -15.8924 N   0  0  0  0  0  0  0  0  0  0  0  0
   26.7343  -20.8829  -14.0798 C   0  0  0  0  0  0  0  0  0  0  0  0
   26.0361  -21.8629  -14.4998 O   0  0  0  0  0  0  0  0  0  0  0  0
   26.7171  -20.4903   -8.5976 C   0  0  0  0  0  0  0  0  0  0  0  0
   26.4048  -21.0726   -9.9322 C   0  0  0  0  0  0  0  0  0  0  0  0
   25.2421  -20.4812  -10.6485 C   0  0  2  0  0  0  0  0  0  0  0  0
   23.9803  -21.0483   -9.9818 C   0  0  0  0  0  0  0  0  0  0  0  0
   25.1729  -20.7799  -12.1091 C   0  0  2  0  0  0  0  0  0  0  0  0
   26.3478  -20.3369  -12.8318 N   0  0  0  0  0  0  0  0  0  0  0  0
   23.9205  -20.3230  -12.7614 C   0  0  0  0  0  0  0  0  0  0  0  0
   23.6718  -19.1104  -12.9764 O   0  0  0  0  0  0  0  0  0  0  0  0
   19.2165  -21.4920  -15.1716 C   0  0  0  0  0  0  0  0  0  0  0  0
   20.4430  -21.0836  -15.9986 C   0  0  2  0  0  0  0  0  0  0  0  0
   20.4071  -21.7548  -17.3317 C   0  0  0  0  0  0  0  0  0  0  0  0
   21.6406  -21.4439  -15.1780 C   0  0  0  0  0  0  0  0  0  0  0  0
   21.7078  -20.7542  -13.8492 C   0  0  2  0  0  0  0  0  0  0  0  0
   22.9185  -21.2578  -13.1840 N   0  0  0  0  0  0  0  0  0  0  0  0
   20.5781  -20.9878  -12.9553 C   0  0  0  0  0  0  0  0  0  0  0  0
   20.5284  -22.0212  -12.2572 O   0  0  0  0  0  0  0  0  0  0  0  0
   19.5538  -20.0731  -12.8699 O   0  0  0  0  0  0  0  0  0  0  0  0
  2  1  1  6
  3  2  1  0
  4  6  1  0
  4  2  1  0
  4  5  1  6
  6  7  2  0
  8  9  1  0
  9 10  1  0
 10 11  1  1
 12 10  1  0
 12 13  1  6
 13  6  1  0
 14 15  2  0
 14 12  1  0
 17 16  1  1
 17 18  1  0
 17 19  1  0
 20 19  1  6
 20 22  1  0
 20 21  1  0
 21 14  1  0
 22 24  1  0
 23 22  2  0
M  END
$$$$
