WNW.pdb
     RDKit          3D

 37 40  0  0  1  0  0  0  0  0999 V2000
    9.1128  -17.8855   20.8046 N   0  0  0  0  0  0  0  0  0  0  0  0
    9.6279  -16.7440   21.5654 C   0  0  1  0  0  0  0  0  0  0  0  0
    8.4652  -16.1389   22.2573 C   0  0  0  0  0  0  0  0  0  0  0  0
    7.5291  -15.3703   21.4508 C   0  0  0  0  0  0  0  0  0  0  0  0
    6.1688  -15.5510   21.3629 C   0  0  0  0  0  0  0  0  0  0  0  0
    5.6731  -14.6359   20.4924 N   0  0  0  0  0  0  0  0  0  0  0  0
    6.7159  -13.8898   20.0404 C   0  0  0  0  0  0  0  0  0  0  0  0
    6.7180  -12.8339   19.1469 C   0  0  0  0  0  0  0  0  0  0  0  0
    7.9434  -12.2491   18.8732 C   0  0  0  0  0  0  0  0  0  0  0  0
    9.1109  -12.6760   19.4456 C   0  0  0  0  0  0  0  0  0  0  0  0
    9.1130  -13.7186   20.3291 C   0  0  0  0  0  0  0  0  0  0  0  0
    7.8906  -14.3270   20.6230 C   0  0  0  0  0  0  0  0  0  0  0  0
   10.7240  -17.2334   22.4296 C   0  0  0  0  0  0  0  0  0  0  0  0
   10.7968  -18.4705   22.6112 O   0  0  0  0  0  0  0  0  0  0  0  0
   15.0026  -16.3276   21.6602 N   0  0  0  0  0  0  0  0  0  0  0  0
   14.4286  -15.5020   22.6328 C   0  0  0  0  0  0  0  0  0  0  0  0
   14.4675  -14.2321   22.3197 O   0  0  0  0  0  0  0  0  0  0  0  0
   13.8070  -15.7868   23.9024 C   0  0  0  0  0  0  0  0  0  0  0  0
   12.7074  -16.7960   24.0049 C   0  0  2  0  0  0  0  0  0  0  0  0
   11.6590  -16.3823   23.0346 N   0  0  0  0  0  0  0  0  0  0  0  0
   12.0936  -16.9290   25.3243 C   0  0  0  0  0  0  0  0  0  0  0  0
   12.8624  -17.2898   26.2969 O   0  0  0  0  0  0  0  0  0  0  0  0
   10.7534  -16.7012   25.6903 N   0  0  0  0  0  0  0  0  0  0  0  0
   10.2646  -16.9416   27.0471 C   0  0  1  0  0  0  0  0  0  0  0  0
    8.7544  -17.0902   27.0236 C   0  0  0  0  0  0  0  0  0  0  0  0
    8.0250  -15.9380   26.5167 C   0  0  0  0  0  0  0  0  0  0  0  0
    6.8708  -16.0627   25.7291 C   0  0  0  0  0  0  0  0  0  0  0  0
    6.3983  -14.8411   25.4419 N   0  0  0  0  0  0  0  0  0  0  0  0
    7.1860  -13.8910   26.0023 C   0  0  0  0  0  0  0  0  0  0  0  0
    7.1038  -12.5160   25.9729 C   0  0  0  0  0  0  0  0  0  0  0  0
    8.0651  -11.7937   26.6323 C   0  0  0  0  0  0  0  0  0  0  0  0
    9.0774  -12.4624   27.2994 C   0  0  0  0  0  0  0  0  0  0  0  0
    9.1339  -13.8400   27.3118 C   0  0  0  0  0  0  0  0  0  0  0  0
    8.1890  -14.5893   26.6637 C   0  0  0  0  0  0  0  0  0  0  0  0
   11.0040  -17.9738   27.7353 C   0  0  0  0  0  0  0  0  0  0  0  0
   11.8152  -18.8946   27.0528 O   0  0  0  0  0  0  0  0  0  0  0  0
   10.9899  -18.1452   28.9966 O   0  0  0  0  0  0  0  0  0  0  0  0
  2  3  1  0
  2  1  1  1
  3  4  1  0
  4  5  2  0
  5  6  1  0
  7  6  1  0
  8  7  2  0
  9  8  1  0
 10 11  1  0
 10  9  2  0
 11 12  2  0
 12  4  1  0
 12  7  1  0
 13 14  2  0
 13  2  1  0
 16 15  1  0
 16 18  1  0
 17 16  2  0
 19 18  1  1
 19 20  1  0
 20 13  1  0
 21 19  1  0
 21 22  2  0
 23 21  1  0
 24 23  1  0
 24 25  1  6
 25 26  1  0
 26 34  1  0
 26 27  2  0
 27 28  1  0
 29 28  1  0
 29 30  2  0
 31 30  1  0
 32 31  2  0
 33 34  2  0
 33 32  1  0
 34 29  1  0
 35 24  1  0
 36 35  1  0
 37 35  2  0
M  END
$$$$
