WNW.pdb
     RDKit          3D

 37 40  0  0  1  0  0  0  0  0999 V2000
    8.9466  -18.1693   21.0214 N   0  0  0  0  0  0  0  0  0  0  0  0
    9.3606  -17.0201   21.8309 C   0  0  1  0  0  0  0  0  0  0  0  0
    8.1381  -16.5100   22.4957 C   0  0  0  0  0  0  0  0  0  0  0  0
    7.1954  -15.7573   21.6818 C   0  0  0  0  0  0  0  0  0  0  0  0
    5.9026  -16.1093   21.3728 C   0  0  0  0  0  0  0  0  0  0  0  0
    5.3755  -15.1415   20.5812 N   0  0  0  0  0  0  0  0  0  0  0  0
    6.3320  -14.1930   20.3975 C   0  0  0  0  0  0  0  0  0  0  0  0
    6.2726  -13.0144   19.6757 C   0  0  0  0  0  0  0  0  0  0  0  0
    7.4123  -12.2272   19.6697 C   0  0  0  0  0  0  0  0  0  0  0  0
    8.5551  -12.5752   20.3372 C   0  0  0  0  0  0  0  0  0  0  0  0
    8.6176  -13.7386   21.0517 C   0  0  0  0  0  0  0  0  0  0  0  0
    7.4823  -14.5517   21.0745 C   0  0  0  0  0  0  0  0  0  0  0  0
   10.4550  -17.4643   22.7214 C   0  0  0  0  0  0  0  0  0  0  0  0
   10.4441  -18.6638   23.0821 O   0  0  0  0  0  0  0  0  0  0  0  0
   15.6649  -15.6388   25.3465 N   0  0  0  0  0  0  0  0  0  0  0  0
   15.0567  -16.3110   24.2810 C   0  0  0  0  0  0  0  0  0  0  0  0
   15.8010  -17.2631   23.7796 O   0  0  0  0  0  0  0  0  0  0  0  0
   13.7748  -16.1527   23.6399 C   0  0  0  0  0  0  0  0  0  0  0  0
   12.6093  -16.9992   24.0439 C   0  0  2  0  0  0  0  0  0  0  0  0
   11.4763  -16.6115   23.1619 N   0  0  0  0  0  0  0  0  0  0  0  0
   12.1832  -16.8640   25.4351 C   0  0  0  0  0  0  0  0  0  0  0  0
   13.0271  -17.2183   26.3457 O   0  0  0  0  0  0  0  0  0  0  0  0
   10.9572  -16.3790   25.9290 N   0  0  0  0  0  0  0  0  0  0  0  0
   10.3976  -16.8291   27.2025 C   0  0  1  0  0  0  0  0  0  0  0  0
    8.9053  -17.0584   27.0482 C   0  0  0  0  0  0  0  0  0  0  0  0
    8.1488  -15.9157   26.5598 C   0  0  0  0  0  0  0  0  0  0  0  0
    6.9763  -16.0554   25.8022 C   0  0  0  0  0  0  0  0  0  0  0  0
    6.4815  -14.8399   25.5266 N   0  0  0  0  0  0  0  0  0  0  0  0
    7.2715  -13.8796   26.0661 C   0  0  0  0  0  0  0  0  0  0  0  0
    7.1716  -12.5058   26.0381 C   0  0  0  0  0  0  0  0  0  0  0  0
    8.1405  -11.7711   26.6721 C   0  0  0  0  0  0  0  0  0  0  0  0
    9.1778  -12.4267   27.3133 C   0  0  0  0  0  0  0  0  0  0  0  0
    9.2518  -13.8034   27.3249 C   0  0  0  0  0  0  0  0  0  0  0  0
    8.2998  -14.5649   26.7018 C   0  0  0  0  0  0  0  0  0  0  0  0
   11.1568  -17.9018   27.8013 C   0  0  0  0  0  0  0  0  0  0  0  0
   11.4764  -19.0749   27.0990 O   0  0  0  0  0  0  0  0  0  0  0  0
   11.5968  -17.8880   28.9957 O   0  0  0  0  0  0  0  0  0  0  0  0
  2  3  1  0
  2  1  1  1
  3  4  1  0
  4  5  2  0
  5  6  1  0
  7  6  1  0
  8  7  2  0
  9  8  1  0
 10 11  1  0
 10  9  2  0
 11 12  2  0
 12  4  1  0
 12  7  1  0
 13 14  2  0
 13  2  1  0
 16 15  1  0
 16 18  1  0
 17 16  2  0
 19 18  1  1
 19 20  1  0
 20 13  1  0
 21 19  1  0
 21 22  2  0
 23 21  1  0
 24 23  1  0
 24 25  1  6
 25 26  1  0
 26 34  1  0
 26 27  2  0
 27 28  1  0
 29 28  1  0
 29 30  2  0
 31 30  1  0
 32 31  2  0
 33 34  2  0
 33 32  1  0
 34 29  1  0
 35 24  1  0
 36 35  1  0
 37 35  2  0
M  END
$$$$
