WNW.pdb
     RDKit          3D

 37 40  0  0  1  0  0  0  0  0999 V2000
    8.5674  -18.1512   21.9267 N   0  0  0  0  0  0  0  0  0  0  0  0
    9.2962  -16.9995   22.4651 C   0  0  1  0  0  0  0  0  0  0  0  0
    8.3024  -16.1728   23.1901 C   0  0  0  0  0  0  0  0  0  0  0  0
    7.4564  -15.2918   22.3990 C   0  0  0  0  0  0  0  0  0  0  0  0
    6.0932  -15.1424   22.4995 C   0  0  0  0  0  0  0  0  0  0  0  0
    5.6950  -14.2352   21.5724 N   0  0  0  0  0  0  0  0  0  0  0  0
    6.8010  -13.8217   20.8987 C   0  0  0  0  0  0  0  0  0  0  0  0
    6.9103  -12.9033   19.8700 C   0  0  0  0  0  0  0  0  0  0  0  0
    8.1819  -12.6702   19.3727 C   0  0  0  0  0  0  0  0  0  0  0  0
    9.2934  -13.3044   19.8577 C   0  0  0  0  0  0  0  0  0  0  0  0
    9.1896  -14.2122   20.8740 C   0  0  0  0  0  0  0  0  0  0  0  0
    7.9186  -14.4664   21.3942 C   0  0  0  0  0  0  0  0  0  0  0  0
   10.4296  -17.5141   23.2640 C   0  0  0  0  0  0  0  0  0  0  0  0
   10.2641  -18.6105   23.8467 O   0  0  0  0  0  0  0  0  0  0  0  0
   14.2599  -17.6149   21.5225 N   0  0  0  0  0  0  0  0  0  0  0  0
   14.5565  -16.6926   22.5318 C   0  0  0  0  0  0  0  0  0  0  0  0
   15.5582  -15.9055   22.2332 O   0  0  0  0  0  0  0  0  0  0  0  0
   13.9691  -16.4492   23.8260 C   0  0  0  0  0  0  0  0  0  0  0  0
   12.7730  -17.2249   24.2797 C   0  0  2  0  0  0  0  0  0  0  0  0
   11.6496  -16.8350   23.3865 N   0  0  0  0  0  0  0  0  0  0  0  0
   12.3645  -17.0022   25.6650 C   0  0  0  0  0  0  0  0  0  0  0  0
   13.0859  -17.5487   26.5858 O   0  0  0  0  0  0  0  0  0  0  0  0
   11.2764  -16.2478   26.1434 N   0  0  0  0  0  0  0  0  0  0  0  0
   10.9638  -16.1484   27.5682 C   0  0  1  0  0  0  0  0  0  0  0  0
   10.3229  -14.8028   27.8544 C   0  0  0  0  0  0  0  0  0  0  0  0
    9.0764  -14.5462   27.1494 C   0  0  0  0  0  0  0  0  0  0  0  0
    8.2071  -15.5744   26.7556 C   0  0  0  0  0  0  0  0  0  0  0  0
    7.1299  -15.0390   26.1630 N   0  0  0  0  0  0  0  0  0  0  0  0
    7.2331  -13.6876   26.1376 C   0  0  0  0  0  0  0  0  0  0  0  0
    6.3870  -12.7259   25.6301 C   0  0  0  0  0  0  0  0  0  0  0  0
    6.7609  -11.4108   25.7361 C   0  0  0  0  0  0  0  0  0  0  0  0
    7.9643  -11.0946   26.3433 C   0  0  0  0  0  0  0  0  0  0  0  0
    8.7909  -12.0788   26.8425 C   0  0  0  0  0  0  0  0  0  0  0  0
    8.4457  -13.4006   26.7526 C   0  0  0  0  0  0  0  0  0  0  0  0
   10.2742  -17.3123   28.0740 C   0  0  0  0  0  0  0  0  0  0  0  0
    9.8028  -18.3289   27.2280 O   0  0  0  0  0  0  0  0  0  0  0  0
   10.0316  -17.5221   29.3058 O   0  0  0  0  0  0  0  0  0  0  0  0
  2  3  1  0
  2  1  1  1
  3  4  1  0
  4  5  2  0
  5  6  1  0
  7  6  1  0
  8  7  2  0
  9  8  1  0
 10 11  1  0
 10  9  2  0
 11 12  2  0
 12  4  1  0
 12  7  1  0
 13 14  2  0
 13  2  1  0
 16 15  1  0
 16 18  1  0
 17 16  2  0
 19 18  1  6
 19 20  1  0
 20 13  1  0
 21 19  1  0
 21 22  2  0
 23 21  1  0
 24 23  1  0
 24 25  1  6
 25 26  1  0
 26 34  1  0
 26 27  2  0
 27 28  1  0
 29 28  1  0
 29 30  2  0
 31 30  1  0
 32 31  2  0
 33 34  2  0
 33 32  1  0
 34 29  1  0
 35 24  1  0
 36 35  1  0
 37 35  2  0
M  END
$$$$
