WNW.pdb
     RDKit          3D

 37 40  0  0  1  0  0  0  0  0999 V2000
    9.8211  -16.1447   20.9520 N   0  0  0  0  0  0  0  0  0  0  0  0
    9.0294  -15.9625   22.1715 C   0  0  1  0  0  0  0  0  0  0  0  0
    7.6059  -16.0089   21.7612 C   0  0  0  0  0  0  0  0  0  0  0  0
    7.2112  -15.2057   20.6137 C   0  0  0  0  0  0  0  0  0  0  0  0
    6.3278  -15.5578   19.6206 C   0  0  0  0  0  0  0  0  0  0  0  0
    6.2520  -14.5326   18.7351 N   0  0  0  0  0  0  0  0  0  0  0  0
    7.0817  -13.5483   19.1721 C   0  0  0  0  0  0  0  0  0  0  0  0
    7.3424  -12.3087   18.6164 C   0  0  0  0  0  0  0  0  0  0  0  0
    8.2393  -11.4972   19.2916 C   0  0  0  0  0  0  0  0  0  0  0  0
    8.8518  -11.8792   20.4542 C   0  0  0  0  0  0  0  0  0  0  0  0
    8.5966  -13.1029   21.0066 C   0  0  0  0  0  0  0  0  0  0  0  0
    7.6960  -13.9416   20.3460 C   0  0  0  0  0  0  0  0  0  0  0  0
    9.4638  -16.9830   23.1501 C   0  0  0  0  0  0  0  0  0  0  0  0
    8.5854  -17.4554   23.9079 O   0  0  0  0  0  0  0  0  0  0  0  0
   13.5232  -19.3478   21.4669 N   0  0  0  0  0  0  0  0  0  0  0  0
   12.6710  -19.5004   22.5657 C   0  0  0  0  0  0  0  0  0  0  0  0
   11.7509  -20.4124   22.3822 O   0  0  0  0  0  0  0  0  0  0  0  0
   12.6191  -18.8476   23.8505 C   0  0  0  0  0  0  0  0  0  0  0  0
   11.3403  -18.2592   24.3569 C   0  0  2  0  0  0  0  0  0  0  0  0
   10.7889  -17.4277   23.2540 N   0  0  0  0  0  0  0  0  0  0  0  0
   11.4581  -17.4272   25.5524 C   0  0  0  0  0  0  0  0  0  0  0  0
   12.5105  -16.6857   25.6515 O   0  0  0  0  0  0  0  0  0  0  0  0
   10.5568  -17.3122   26.6278 N   0  0  0  0  0  0  0  0  0  0  0  0
   10.9367  -16.7018   27.9009 C   0  0  1  0  0  0  0  0  0  0  0  0
   10.3168  -15.3205   28.0064 C   0  0  0  0  0  0  0  0  0  0  0  0
    8.9627  -15.2064   27.4870 C   0  0  0  0  0  0  0  0  0  0  0  0
    8.0919  -16.3031   27.4032 C   0  0  0  0  0  0  0  0  0  0  0  0
    6.9093  -15.8921   26.9230 N   0  0  0  0  0  0  0  0  0  0  0  0
    6.9420  -14.5597   26.6762 C   0  0  0  0  0  0  0  0  0  0  0  0
    5.9804  -13.7093   26.1759 C   0  0  0  0  0  0  0  0  0  0  0  0
    6.3027  -12.3858   26.0178 C   0  0  0  0  0  0  0  0  0  0  0  0
    7.5712  -11.9508   26.3621 C   0  0  0  0  0  0  0  0  0  0  0  0
    8.5134  -12.8252   26.8609 C   0  0  0  0  0  0  0  0  0  0  0  0
    8.2222  -14.1521   27.0311 C   0  0  0  0  0  0  0  0  0  0  0  0
   10.7412  -17.5847   29.0270 C   0  0  0  0  0  0  0  0  0  0  0  0
   11.2180  -17.2762   30.3111 O   0  0  0  0  0  0  0  0  0  0  0  0
   10.1342  -18.7018   28.9645 O   0  0  0  0  0  0  0  0  0  0  0  0
  2  3  1  0
  2  1  1  6
  3  4  1  0
  4  5  2  0
  5  6  1  0
  7  6  1  0
  8  7  2  0
  9  8  1  0
 10 11  1  0
 10  9  2  0
 11 12  2  0
 12  4  1  0
 12  7  1  0
 13 14  2  0
 13  2  1  0
 16 15  1  0
 16 18  1  0
 17 16  2  0
 19 18  1  6
 19 20  1  0
 20 13  1  0
 21 19  1  0
 21 22  2  0
 23 21  1  0
 24 23  1  0
 24 25  1  1
 25 26  1  0
 26 34  1  0
 26 27  2  0
 27 28  1  0
 29 28  1  0
 29 30  2  0
 31 30  1  0
 32 31  2  0
 33 34  2  0
 33 32  1  0
 34 29  1  0
 35 24  1  0
 36 35  1  0
 37 35  2  0
M  END
$$$$
