WNW.pdb
     RDKit          3D

 37 40  0  0  1  0  0  0  0  0999 V2000
    8.2819  -17.9577   20.9443 N   0  0  0  0  0  0  0  0  0  0  0  0
    9.1709  -16.9419   21.5143 C   0  0  1  0  0  0  0  0  0  0  0  0
    8.2974  -15.9069   22.1165 C   0  0  0  0  0  0  0  0  0  0  0  0
    7.5480  -15.0501   21.2099 C   0  0  0  0  0  0  0  0  0  0  0  0
    6.1876  -15.0454   21.0095 C   0  0  0  0  0  0  0  0  0  0  0  0
    5.8986  -14.1068   20.0732 N   0  0  0  0  0  0  0  0  0  0  0  0
    7.0694  -13.5303   19.6923 C   0  0  0  0  0  0  0  0  0  0  0  0
    7.2930  -12.5219   18.7723 C   0  0  0  0  0  0  0  0  0  0  0  0
    8.6068  -12.1228   18.5894 C   0  0  0  0  0  0  0  0  0  0  0  0
    9.6518  -12.6826   19.2730 C   0  0  0  0  0  0  0  0  0  0  0  0
    9.4349  -13.6790   20.1830 C   0  0  0  0  0  0  0  0  0  0  0  0
    8.1192  -14.1009   20.3870 C   0  0  0  0  0  0  0  0  0  0  0  0
   10.1085  -17.6244   22.4323 C   0  0  0  0  0  0  0  0  0  0  0  0
    9.6779  -18.6306   23.0414 O   0  0  0  0  0  0  0  0  0  0  0  0
   14.6402  -14.9808   23.7195 N   0  0  0  0  0  0  0  0  0  0  0  0
   14.1457  -16.0366   22.9463 C   0  0  0  0  0  0  0  0  0  0  0  0
   14.0561  -15.7462   21.6737 O   0  0  0  0  0  0  0  0  0  0  0  0
   13.7223  -17.3724   23.2868 C   0  0  0  0  0  0  0  0  0  0  0  0
   12.3213  -17.6371   23.7399 C   0  0  2  0  0  0  0  0  0  0  0  0
   11.4271  -17.1953   22.6368 N   0  0  0  0  0  0  0  0  0  0  0  0
   11.9161  -16.9569   24.9681 C   0  0  0  0  0  0  0  0  0  0  0  0
   12.5659  -15.8889   25.2907 O   0  0  0  0  0  0  0  0  0  0  0  0
   10.8847  -17.3074   25.8601 N   0  0  0  0  0  0  0  0  0  0  0  0
   10.8232  -16.7844   27.2240 C   0  0  1  0  0  0  0  0  0  0  0  0
   10.3707  -15.3360   27.1922 C   0  0  0  0  0  0  0  0  0  0  0  0
    9.0307  -15.1155   26.6705 C   0  0  0  0  0  0  0  0  0  0  0  0
    8.1708  -16.1703   26.3297 C   0  0  0  0  0  0  0  0  0  0  0  0
    6.9989  -15.6679   25.9146 N   0  0  0  0  0  0  0  0  0  0  0  0
    7.0284  -14.3134   25.9588 C   0  0  0  0  0  0  0  0  0  0  0  0
    6.0747  -13.3771   25.6241 C   0  0  0  0  0  0  0  0  0  0  0  0
    6.3914  -12.0499   25.7613 C   0  0  0  0  0  0  0  0  0  0  0  0
    7.6466  -11.6968   26.2267 C   0  0  0  0  0  0  0  0  0  0  0  0
    8.5811  -12.6562   26.5542 C   0  0  0  0  0  0  0  0  0  0  0  0
    8.2953  -13.9892   26.4290 C   0  0  0  0  0  0  0  0  0  0  0  0
   10.1183  -17.6609   28.1299 C   0  0  0  0  0  0  0  0  0  0  0  0
    9.4926  -18.8401   27.6947 O   0  0  0  0  0  0  0  0  0  0  0  0
    9.9977  -17.4523   29.3799 O   0  0  0  0  0  0  0  0  0  0  0  0
  2  3  1  0
  2  1  1  1
  3  4  1  0
  4  5  2  0
  5  6  1  0
  7  6  1  0
  8  7  2  0
  9  8  1  0
 10 11  1  0
 10  9  2  0
 11 12  2  0
 12  4  1  0
 12  7  1  0
 13 14  2  0
 13  2  1  0
 16 15  1  0
 16 18  1  0
 17 16  2  0
 19 18  1  6
 19 20  1  0
 20 13  1  0
 21 19  1  0
 21 22  2  0
 23 21  1  0
 24 23  1  0
 24 25  1  6
 25 26  1  0
 26 34  1  0
 26 27  2  0
 27 28  1  0
 29 28  1  0
 29 30  2  0
 31 30  1  0
 32 31  2  0
 33 34  2  0
 33 32  1  0
 34 29  1  0
 35 24  1  0
 36 35  1  0
 37 35  2  0
M  END
$$$$
