WNW.pdb
     RDKit          3D

 37 40  0  0  1  0  0  0  0  0999 V2000
    8.0634  -17.7589   21.1133 N   0  0  0  0  0  0  0  0  0  0  0  0
    8.8578  -16.7466   21.8144 C   0  0  1  0  0  0  0  0  0  0  0  0
    7.8997  -15.7374   22.3246 C   0  0  0  0  0  0  0  0  0  0  0  0
    7.2397  -14.8840   21.3480 C   0  0  0  0  0  0  0  0  0  0  0  0
    5.9426  -14.9844   20.9026 C   0  0  0  0  0  0  0  0  0  0  0  0
    5.7304  -14.0068   19.9860 N   0  0  0  0  0  0  0  0  0  0  0  0
    6.8860  -13.3018   19.8603 C   0  0  0  0  0  0  0  0  0  0  0  0
    7.1659  -12.2106   19.0575 C   0  0  0  0  0  0  0  0  0  0  0  0
    8.4444  -11.6842   19.1418 C   0  0  0  0  0  0  0  0  0  0  0  0
    9.4032  -12.1996   19.9711 C   0  0  0  0  0  0  0  0  0  0  0  0
    9.1305  -13.2774   20.7660 C   0  0  0  0  0  0  0  0  0  0  0  0
    7.8487  -13.8283   20.7006 C   0  0  0  0  0  0  0  0  0  0  0  0
    9.6821  -17.4401   22.8281 C   0  0  0  0  0  0  0  0  0  0  0  0
    9.1206  -18.3313   23.5058 O   0  0  0  0  0  0  0  0  0  0  0  0
   14.2918  -17.3659   21.4577 N   0  0  0  0  0  0  0  0  0  0  0  0
   13.7657  -17.9640   22.6077 C   0  0  0  0  0  0  0  0  0  0  0  0
   13.7186  -19.2695   22.5347 O   0  0  0  0  0  0  0  0  0  0  0  0
   13.2722  -17.4154   23.8466 C   0  0  0  0  0  0  0  0  0  0  0  0
   11.8336  -17.5656   24.2288 C   0  0  2  0  0  0  0  0  0  0  0  0
   11.0339  -17.1422   23.0485 N   0  0  0  0  0  0  0  0  0  0  0  0
   11.4032  -16.7848   25.3866 C   0  0  0  0  0  0  0  0  0  0  0  0
   11.9286  -15.6148   25.5351 O   0  0  0  0  0  0  0  0  0  0  0  0
   10.4658  -17.1363   26.3764 N   0  0  0  0  0  0  0  0  0  0  0  0
   10.6612  -16.8053   27.7871 C   0  0  1  0  0  0  0  0  0  0  0  0
    9.8798  -15.5493   28.1265 C   0  0  0  0  0  0  0  0  0  0  0  0
    8.8001  -15.2225   27.2079 C   0  0  0  0  0  0  0  0  0  0  0  0
    7.9173  -16.1906   26.7063 C   0  0  0  0  0  0  0  0  0  0  0  0
    7.0109  -15.5952   25.9177 N   0  0  0  0  0  0  0  0  0  0  0  0
    7.2430  -14.2609   25.8626 C   0  0  0  0  0  0  0  0  0  0  0  0
    6.5889  -13.2570   25.1825 C   0  0  0  0  0  0  0  0  0  0  0  0
    7.0610  -11.9753   25.3048 C   0  0  0  0  0  0  0  0  0  0  0  0
    8.1687  -11.7335   26.0994 C   0  0  0  0  0  0  0  0  0  0  0  0
    8.8031  -12.7586   26.7687 C   0  0  0  0  0  0  0  0  0  0  0  0
    8.3557  -14.0485   26.6675 C   0  0  0  0  0  0  0  0  0  0  0  0
   10.4716  -17.9393   28.6611 C   0  0  0  0  0  0  0  0  0  0  0  0
   10.8548  -17.9152   30.0117 O   0  0  0  0  0  0  0  0  0  0  0  0
    9.9532  -19.0440   28.2989 O   0  0  0  0  0  0  0  0  0  0  0  0
  2  3  1  0
  2  1  1  1
  3  4  1  0
  4  5  2  0
  5  6  1  0
  7  6  1  0
  8  7  2  0
  9  8  1  0
 10 11  1  0
 10  9  2  0
 11 12  2  0
 12  4  1  0
 12  7  1  0
 13 14  2  0
 13  2  1  0
 16 15  1  0
 16 18  1  0
 17 16  2  0
 19 18  1  6
 19 20  1  0
 20 13  1  0
 21 19  1  0
 21 22  2  0
 23 21  1  0
 24 23  1  0
 24 25  1  1
 25 26  1  0
 26 34  1  0
 26 27  2  0
 27 28  1  0
 29 28  1  0
 29 30  2  0
 31 30  1  0
 32 31  2  0
 33 34  2  0
 33 32  1  0
 34 29  1  0
 35 24  1  0
 36 35  1  0
 37 35  2  0
M  END
$$$$
