WNW.pdb
     RDKit          3D

 37 40  0  0  1  0  0  0  0  0999 V2000
    8.7445  -18.0362   20.6544 N   0  0  0  0  0  0  0  0  0  0  0  0
    9.2630  -16.9992   21.5506 C   0  0  1  0  0  0  0  0  0  0  0  0
    8.0878  -16.3982   22.2249 C   0  0  0  0  0  0  0  0  0  0  0  0
    7.2449  -15.5092   21.4396 C   0  0  0  0  0  0  0  0  0  0  0  0
    5.9046  -15.6603   21.1723 C   0  0  0  0  0  0  0  0  0  0  0  0
    5.5056  -14.6217   20.3957 N   0  0  0  0  0  0  0  0  0  0  0  0
    6.5885  -13.8286   20.1799 C   0  0  0  0  0  0  0  0  0  0  0  0
    6.6857  -12.6528   19.4578 C   0  0  0  0  0  0  0  0  0  0  0  0
    7.9308  -12.0474   19.4141 C   0  0  0  0  0  0  0  0  0  0  0  0
    9.0281  -12.5664   20.0459 C   0  0  0  0  0  0  0  0  0  0  0  0
    8.9361  -13.7277   20.7605 C   0  0  0  0  0  0  0  0  0  0  0  0
    7.6919  -14.3594   20.8210 C   0  0  0  0  0  0  0  0  0  0  0  0
   10.2749  -17.6249   22.4295 C   0  0  0  0  0  0  0  0  0  0  0  0
    9.9106  -18.6183   23.0999 O   0  0  0  0  0  0  0  0  0  0  0  0
   14.2653  -18.8692   21.0817 N   0  0  0  0  0  0  0  0  0  0  0  0
   14.5042  -17.6895   21.7945 C   0  0  0  0  0  0  0  0  0  0  0  0
   15.4175  -16.9307   21.2449 O   0  0  0  0  0  0  0  0  0  0  0  0
   13.9362  -17.1585   23.0090 C   0  0  0  0  0  0  0  0  0  0  0  0
   12.6092  -17.6392   23.5052 C   0  0  2  0  0  0  0  0  0  0  0  0
   11.5919  -17.1569   22.5334 N   0  0  0  0  0  0  0  0  0  0  0  0
   12.2310  -17.1813   24.8403 C   0  0  0  0  0  0  0  0  0  0  0  0
   12.8255  -16.1275   25.2910 O   0  0  0  0  0  0  0  0  0  0  0  0
   11.2786  -17.7366   25.7160 N   0  0  0  0  0  0  0  0  0  0  0  0
   10.7005  -16.9754   26.8223 C   0  0  1  0  0  0  0  0  0  0  0  0
   10.3645  -15.5721   26.3519 C   0  0  0  0  0  0  0  0  0  0  0  0
    8.9443  -15.2837   26.2234 C   0  0  0  0  0  0  0  0  0  0  0  0
    7.9677  -16.2907   26.2161 C   0  0  0  0  0  0  0  0  0  0  0  0
    6.7542  -15.7280   26.1221 N   0  0  0  0  0  0  0  0  0  0  0  0
    6.8673  -14.3785   26.0643 C   0  0  0  0  0  0  0  0  0  0  0  0
    5.9087  -13.3950   25.9551 C   0  0  0  0  0  0  0  0  0  0  0  0
    6.3217  -12.0882   25.9056 C   0  0  0  0  0  0  0  0  0  0  0  0
    7.6749  -11.8019   25.9658 C   0  0  0  0  0  0  0  0  0  0  0  0
    8.6119  -12.8075   26.0752 C   0  0  0  0  0  0  0  0  0  0  0  0
    8.2315  -14.1216   26.1278 C   0  0  0  0  0  0  0  0  0  0  0  0
    9.6533  -17.6933   27.5107 C   0  0  0  0  0  0  0  0  0  0  0  0
    9.1511  -18.9171   27.0400 O   0  0  0  0  0  0  0  0  0  0  0  0
    9.0968  -17.2939   28.5836 O   0  0  0  0  0  0  0  0  0  0  0  0
  2  3  1  0
  2  1  1  6
  3  4  1  0
  4  5  2  0
  5  6  1  0
  7  6  1  0
  8  7  2  0
  9  8  1  0
 10 11  1  0
 10  9  2  0
 11 12  2  0
 12  4  1  0
 12  7  1  0
 13 14  2  0
 13  2  1  0
 16 15  1  0
 16 18  1  0
 17 16  2  0
 19 18  1  6
 19 20  1  0
 20 13  1  0
 21 19  1  0
 21 22  2  0
 23 21  1  0
 24 23  1  0
 24 25  1  6
 25 26  1  0
 26 34  1  0
 26 27  2  0
 27 28  1  0
 29 28  1  0
 29 30  2  0
 31 30  1  0
 32 31  2  0
 33 34  2  0
 33 32  1  0
 34 29  1  0
 35 24  1  0
 36 35  1  0
 37 35  2  0
M  END
$$$$
