WNW.pdb
     RDKit          3D

 37 40  0  0  1  0  0  0  0  0999 V2000
    7.3448  -18.2204   23.5018 N   0  0  0  0  0  0  0  0  0  0  0  0
    8.3879  -17.2673   23.1137 C   0  0  1  0  0  0  0  0  0  0  0  0
    8.1306  -16.0250   23.8800 C   0  0  0  0  0  0  0  0  0  0  0  0
    7.3437  -14.9867   23.2315 C   0  0  0  0  0  0  0  0  0  0  0  0
    6.1759  -14.4242   23.6903 C   0  0  0  0  0  0  0  0  0  0  0  0
    5.7599  -13.5063   22.7818 N   0  0  0  0  0  0  0  0  0  0  0  0
    6.6610  -13.4961   21.7639 C   0  0  0  0  0  0  0  0  0  0  0  0
    6.6770  -12.7287   20.6132 C   0  0  0  0  0  0  0  0  0  0  0  0
    7.7369  -12.9277   19.7439 C   0  0  0  0  0  0  0  0  0  0  0  0
    8.7333  -13.8335   19.9878 C   0  0  0  0  0  0  0  0  0  0  0  0
    8.7213  -14.5933   21.1237 C   0  0  0  0  0  0  0  0  0  0  0  0
    7.6635  -14.4130   22.0178 C   0  0  0  0  0  0  0  0  0  0  0  0
    9.6988  -17.9155   23.3356 C   0  0  0  0  0  0  0  0  0  0  0  0
    9.7049  -18.9722   24.0080 O   0  0  0  0  0  0  0  0  0  0  0  0
   12.4282  -17.0499   19.5894 N   0  0  0  0  0  0  0  0  0  0  0  0
   12.8730  -17.8043   20.6803 C   0  0  0  0  0  0  0  0  0  0  0  0
   13.0616  -19.0665   20.3920 O   0  0  0  0  0  0  0  0  0  0  0  0
   13.1612  -17.4532   22.0490 C   0  0  0  0  0  0  0  0  0  0  0  0
   12.2629  -17.9024   23.1578 C   0  0  2  0  0  0  0  0  0  0  0  0
   10.9013  -17.4014   22.8313 N   0  0  0  0  0  0  0  0  0  0  0  0
   12.6242  -17.4313   24.4930 C   0  0  0  0  0  0  0  0  0  0  0  0
   13.8002  -17.7402   24.9274 O   0  0  0  0  0  0  0  0  0  0  0  0
   11.8540  -16.6603   25.3844 N   0  0  0  0  0  0  0  0  0  0  0  0
   12.3503  -16.2648   26.7015 C   0  0  1  0  0  0  0  0  0  0  0  0
   11.7035  -14.9557   27.1153 C   0  0  0  0  0  0  0  0  0  0  0  0
   10.2653  -15.0132   27.3270 C   0  0  0  0  0  0  0  0  0  0  0  0
    9.6664  -15.9434   28.1896 C   0  0  0  0  0  0  0  0  0  0  0  0
    8.3418  -15.7365   28.2109 N   0  0  0  0  0  0  0  0  0  0  0  0
    8.0164  -14.7031   27.3963 C   0  0  0  0  0  0  0  0  0  0  0  0
    6.7957  -14.1405   27.0935 C   0  0  0  0  0  0  0  0  0  0  0  0
    6.7650  -13.0924   26.2098 C   0  0  0  0  0  0  0  0  0  0  0  0
    7.9495  -12.6378   25.6554 C   0  0  0  0  0  0  0  0  0  0  0  0
    9.1569  -13.2205   25.9775 C   0  0  0  0  0  0  0  0  0  0  0  0
    9.2208  -14.2679   26.8568 C   0  0  0  0  0  0  0  0  0  0  0  0
   12.3044  -17.3400   27.6647 C   0  0  0  0  0  0  0  0  0  0  0  0
   13.0284  -17.2988   28.8670 O   0  0  0  0  0  0  0  0  0  0  0  0
   11.6211  -18.4040   27.5184 O   0  0  0  0  0  0  0  0  0  0  0  0
  2  3  1  0
  2  1  1  1
  3  4  1  0
  4  5  2  0
  5  6  1  0
  7  6  1  0
  8  7  2  0
  9  8  1  0
 10 11  1  0
 10  9  2  0
 11 12  2  0
 12  4  1  0
 12  7  1  0
 13 14  2  0
 13  2  1  0
 16 15  1  0
 16 18  1  0
 17 16  2  0
 19 18  1  6
 19 20  1  0
 20 13  1  0
 21 19  1  0
 21 22  2  0
 23 21  1  0
 24 23  1  0
 24 25  1  1
 25 26  1  0
 26 34  1  0
 26 27  2  0
 27 28  1  0
 29 28  1  0
 29 30  2  0
 31 30  1  0
 32 31  2  0
 33 34  2  0
 33 32  1  0
 34 29  1  0
 35 24  1  0
 36 35  1  0
 37 35  2  0
M  END
$$$$
