WNW.pdb
     RDKit          3D

 37 40  0  0  1  0  0  0  0  0999 V2000
    8.8274  -15.1240   21.9210 N   0  0  0  0  0  0  0  0  0  0  0  0
    8.7558  -16.5875   21.8994 C   0  0  1  0  0  0  0  0  0  0  0  0
    8.4628  -16.9749   20.4991 C   0  0  0  0  0  0  0  0  0  0  0  0
    7.8181  -15.9850   19.6493 C   0  0  0  0  0  0  0  0  0  0  0  0
    7.3563  -16.1687   18.3672 C   0  0  0  0  0  0  0  0  0  0  0  0
    6.8376  -14.9940   17.9291 N   0  0  0  0  0  0  0  0  0  0  0  0
    6.9745  -14.0842   18.9300 C   0  0  0  0  0  0  0  0  0  0  0  0
    6.5940  -12.7548   18.9663 C   0  0  0  0  0  0  0  0  0  0  0  0
    6.8556  -12.0615   20.1366 C   0  0  0  0  0  0  0  0  0  0  0  0
    7.4600  -12.6401   21.2195 C   0  0  0  0  0  0  0  0  0  0  0  0
    7.8371  -13.9533   21.1878 C   0  0  0  0  0  0  0  0  0  0  0  0
    7.5854  -14.6761   20.0194 C   0  0  0  0  0  0  0  0  0  0  0  0
   10.0135  -17.1109   22.4756 C   0  0  0  0  0  0  0  0  0  0  0  0
   10.1197  -18.3550   22.5751 O   0  0  0  0  0  0  0  0  0  0  0  0
   13.5229  -14.3600   20.8589 N   0  0  0  0  0  0  0  0  0  0  0  0
   13.5768  -15.5385   21.6106 C   0  0  0  0  0  0  0  0  0  0  0  0
   13.8378  -16.5988   20.8897 O   0  0  0  0  0  0  0  0  0  0  0  0
   13.4017  -15.7998   23.0180 C   0  0  0  0  0  0  0  0  0  0  0  0
   12.3455  -16.7467   23.4932 C   0  0  2  0  0  0  0  0  0  0  0  0
   11.0622  -16.2840   22.9011 N   0  0  0  0  0  0  0  0  0  0  0  0
   12.1836  -16.8359   24.9427 C   0  0  0  0  0  0  0  0  0  0  0  0
   13.2124  -17.2099   25.6274 O   0  0  0  0  0  0  0  0  0  0  0  0
   11.0391  -16.5525   25.7120 N   0  0  0  0  0  0  0  0  0  0  0  0
   10.9873  -16.8004   27.1520 C   0  0  1  0  0  0  0  0  0  0  0  0
   10.5296  -15.5426   27.8673 C   0  0  0  0  0  0  0  0  0  0  0  0
    9.3017  -14.9510   27.3587 C   0  0  0  0  0  0  0  0  0  0  0  0
    8.3166  -15.7043   26.7028 C   0  0  0  0  0  0  0  0  0  0  0  0
    7.2900  -14.9040   26.3813 N   0  0  0  0  0  0  0  0  0  0  0  0
    7.5384  -13.6363   26.7918 C   0  0  0  0  0  0  0  0  0  0  0  0
    6.7897  -12.4855   26.6759 C   0  0  0  0  0  0  0  0  0  0  0  0
    7.3065  -11.3208   27.1828 C   0  0  0  0  0  0  0  0  0  0  0  0
    8.5515  -11.3381   27.7883 C   0  0  0  0  0  0  0  0  0  0  0  0
    9.2782  -12.5054   27.8901 C   0  0  0  0  0  0  0  0  0  0  0  0
    8.7896  -13.6844   27.3947 C   0  0  0  0  0  0  0  0  0  0  0  0
   10.2931  -18.0219   27.4865 C   0  0  0  0  0  0  0  0  0  0  0  0
    9.6040  -18.7782   26.5248 O   0  0  0  0  0  0  0  0  0  0  0  0
   10.2388  -18.5172   28.6578 O   0  0  0  0  0  0  0  0  0  0  0  0
  2  3  1  0
  2  1  1  6
  3  4  1  0
  4  5  2  0
  5  6  1  0
  7  6  1  0
  8  7  2  0
  9  8  1  0
 10 11  1  0
 10  9  2  0
 11 12  2  0
 12  4  1  0
 12  7  1  0
 13 14  2  0
 13  2  1  0
 16 15  1  0
 16 18  1  0
 17 16  2  0
 19 18  1  1
 19 20  1  0
 20 13  1  0
 21 19  1  0
 21 22  2  0
 23 21  1  0
 24 23  1  0
 24 25  1  1
 25 26  1  0
 26 34  1  0
 26 27  2  0
 27 28  1  0
 29 28  1  0
 29 30  2  0
 31 30  1  0
 32 31  2  0
 33 34  2  0
 33 32  1  0
 34 29  1  0
 35 24  1  0
 36 35  1  0
 37 35  2  0
M  END
$$$$
