WNW.pdb
     RDKit          3D

 37 40  0  0  1  0  0  0  0  0999 V2000
   13.8519  -15.9884   22.2909 N   0  0  0  0  0  0  0  0  0  0  0  0
   12.8827  -16.4635   23.2819 C   0  0  1  0  0  0  0  0  0  0  0  0
   12.6766  -15.3497   24.2380 C   0  0  0  0  0  0  0  0  0  0  0  0
   12.5188  -15.6918   25.6436 C   0  0  0  0  0  0  0  0  0  0  0  0
   12.9760  -16.8233   26.2771 C   0  0  0  0  0  0  0  0  0  0  0  0
   12.6069  -16.7596   27.5812 N   0  0  0  0  0  0  0  0  0  0  0  0
   11.9246  -15.5974   27.7602 C   0  0  0  0  0  0  0  0  0  0  0  0
   11.3551  -15.0818   28.9105 C   0  0  0  0  0  0  0  0  0  0  0  0
   10.7197  -13.8561   28.7981 C   0  0  0  0  0  0  0  0  0  0  0  0
   10.6447  -13.1675   27.6180 C   0  0  0  0  0  0  0  0  0  0  0  0
   11.2063  -13.6733   26.4793 C   0  0  0  0  0  0  0  0  0  0  0  0
   11.8534  -14.9082   26.5643 C   0  0  0  0  0  0  0  0  0  0  0  0
   11.6840  -16.9335   22.5539 C   0  0  0  0  0  0  0  0  0  0  0  0
   11.7178  -16.8739   21.3032 O   0  0  0  0  0  0  0  0  0  0  0  0
    9.0466  -20.9469   20.5108 N   0  0  0  0  0  0  0  0  0  0  0  0
    9.8066  -20.7919   21.6750 C   0  0  0  0  0  0  0  0  0  0  0  0
    9.9916  -21.9132   22.3233 O   0  0  0  0  0  0  0  0  0  0  0  0
   10.4193  -19.6386   22.2865 C   0  0  0  0  0  0  0  0  0  0  0  0
    9.6013  -18.4372   22.6410 C   0  0  2  0  0  0  0  0  0  0  0  0
   10.5435  -17.4310   23.1991 N   0  0  0  0  0  0  0  0  0  0  0  0
    8.5341  -18.6646   23.6130 C   0  0  0  0  0  0  0  0  0  0  0  0
    7.6571  -19.5667   23.3231 O   0  0  0  0  0  0  0  0  0  0  0  0
    8.3339  -18.0298   24.8535 N   0  0  0  0  0  0  0  0  0  0  0  0
    7.0704  -18.1258   25.5829 C   0  0  1  0  0  0  0  0  0  0  0  0
    5.9334  -17.6605   24.6918 C   0  0  0  0  0  0  0  0  0  0  0  0
    6.0670  -16.3093   24.1695 C   0  0  0  0  0  0  0  0  0  0  0  0
    6.5798  -16.0418   22.8914 C   0  0  0  0  0  0  0  0  0  0  0  0
    6.5499  -14.7193   22.6717 N   0  0  0  0  0  0  0  0  0  0  0  0
    6.0380  -14.0772   23.7501 C   0  0  0  0  0  0  0  0  0  0  0  0
    5.8250  -12.7368   23.9870 C   0  0  0  0  0  0  0  0  0  0  0  0
    5.2945  -12.3673   25.1964 C   0  0  0  0  0  0  0  0  0  0  0  0
    4.9935  -13.3430   26.1314 C   0  0  0  0  0  0  0  0  0  0  0  0
    5.2174  -14.6774   25.8663 C   0  0  0  0  0  0  0  0  0  0  0  0
    5.7451  -15.0783   24.6683 C   0  0  0  0  0  0  0  0  0  0  0  0
    6.8963  -19.4010   26.2384 C   0  0  0  0  0  0  0  0  0  0  0  0
    6.9669  -20.6170   25.5399 O   0  0  0  0  0  0  0  0  0  0  0  0
    6.6655  -19.5413   27.4823 O   0  0  0  0  0  0  0  0  0  0  0  0
  2  3  1  0
  2  1  1  6
  3  4  1  0
  4  5  2  0
  5  6  1  0
  7  6  1  0
  8  7  2  0
  9  8  1  0
 10 11  1  0
 10  9  2  0
 11 12  2  0
 12  4  1  0
 12  7  1  0
 13 14  2  0
 13  2  1  0
 16 15  1  0
 16 18  1  0
 17 16  2  0
 19 18  1  1
 19 20  1  0
 20 13  1  0
 21 19  1  0
 21 22  2  0
 23 21  1  0
 24 23  1  0
 24 25  1  6
 25 26  1  0
 26 34  1  0
 26 27  2  0
 27 28  1  0
 29 28  1  0
 29 30  2  0
 31 30  1  0
 32 31  2  0
 33 34  2  0
 33 32  1  0
 34 29  1  0
 35 24  1  0
 36 35  1  0
 37 35  2  0
M  END
$$$$
