WNW.pdb
     RDKit          3D

 37 40  0  0  1  0  0  0  0  0999 V2000
    7.9551  -17.9948   20.6894 N   0  0  0  0  0  0  0  0  0  0  0  0
    8.3987  -17.1993   21.8374 C   0  0  1  0  0  0  0  0  0  0  0  0
    7.3430  -16.1884   22.0833 C   0  0  0  0  0  0  0  0  0  0  0  0
    7.0878  -15.2147   21.0324 C   0  0  0  0  0  0  0  0  0  0  0  0
    6.0271  -15.1990   20.1576 C   0  0  0  0  0  0  0  0  0  0  0  0
    6.1731  -14.1333   19.3306 N   0  0  0  0  0  0  0  0  0  0  0  0
    7.3160  -13.4889   19.6864 C   0  0  0  0  0  0  0  0  0  0  0  0
    7.8856  -12.3493   19.1478 C   0  0  0  0  0  0  0  0  0  0  0  0
    9.0657  -11.9083   19.7236 C   0  0  0  0  0  0  0  0  0  0  0  0
    9.6605  -12.5505   20.7755 C   0  0  0  0  0  0  0  0  0  0  0  0
    9.1007  -13.6765   21.3108 C   0  0  0  0  0  0  0  0  0  0  0  0
    7.9103  -14.1434   20.7489 C   0  0  0  0  0  0  0  0  0  0  0  0
    8.6869  -18.1309   22.9496 C   0  0  0  0  0  0  0  0  0  0  0  0
    7.8182  -18.9956   23.2076 O   0  0  0  0  0  0  0  0  0  0  0  0
   13.4126  -20.9453   25.5650 N   0  0  0  0  0  0  0  0  0  0  0  0
   12.0679  -20.7035   25.2646 C   0  0  0  0  0  0  0  0  0  0  0  0
   11.2449  -21.4809   25.9206 O   0  0  0  0  0  0  0  0  0  0  0  0
   11.4261  -19.7655   24.3770 C   0  0  0  0  0  0  0  0  0  0  0  0
   10.2229  -18.9951   24.8205 C   0  0  2  0  0  0  0  0  0  0  0  0
    9.8679  -18.0806   23.7028 N   0  0  0  0  0  0  0  0  0  0  0  0
   10.3944  -18.2007   26.0349 C   0  0  0  0  0  0  0  0  0  0  0  0
   10.5320  -18.8457   27.1450 O   0  0  0  0  0  0  0  0  0  0  0  0
   10.4431  -16.7994   26.1614 N   0  0  0  0  0  0  0  0  0  0  0  0
   10.6965  -16.1411   27.4421 C   0  0  1  0  0  0  0  0  0  0  0  0
    9.3904  -15.9841   28.1991 C   0  0  0  0  0  0  0  0  0  0  0  0
    8.2594  -15.5381   27.4001 C   0  0  0  0  0  0  0  0  0  0  0  0
    7.2994  -16.4250   26.8904 C   0  0  0  0  0  0  0  0  0  0  0  0
    6.3627  -15.7294   26.2295 N   0  0  0  0  0  0  0  0  0  0  0  0
    6.6484  -14.4049   26.2690 C   0  0  0  0  0  0  0  0  0  0  0  0
    5.9893  -13.3216   25.7304 C   0  0  0  0  0  0  0  0  0  0  0  0
    6.5252  -12.0740   25.9226 C   0  0  0  0  0  0  0  0  0  0  0  0
    7.6997  -11.9443   26.6442 C   0  0  0  0  0  0  0  0  0  0  0  0
    8.3374  -13.0470   27.1719 C   0  0  0  0  0  0  0  0  0  0  0  0
    7.8273  -14.3055   26.9980 C   0  0  0  0  0  0  0  0  0  0  0  0
   11.7965  -16.7311   28.1685 C   0  0  0  0  0  0  0  0  0  0  0  0
   12.4700  -16.0460   29.1924 O   0  0  0  0  0  0  0  0  0  0  0  0
   12.2516  -17.9003   27.9537 O   0  0  0  0  0  0  0  0  0  0  0  0
  2  3  1  0
  2  1  1  6
  3  4  1  0
  4  5  2  0
  5  6  1  0
  7  6  1  0
  8  7  2  0
  9  8  1  0
 10 11  1  0
 10  9  2  0
 11 12  2  0
 12  4  1  0
 12  7  1  0
 13 14  2  0
 13  2  1  0
 16 15  1  0
 16 18  1  0
 17 16  2  0
 19 18  1  6
 19 20  1  0
 20 13  1  0
 21 19  1  0
 21 22  2  0
 23 21  1  0
 24 23  1  0
 24 25  1  1
 25 26  1  0
 26 34  1  0
 26 27  2  0
 27 28  1  0
 29 28  1  0
 29 30  2  0
 31 30  1  0
 32 31  2  0
 33 34  2  0
 33 32  1  0
 34 29  1  0
 35 24  1  0
 36 35  1  0
 37 35  2  0
M  END
$$$$
