WNW.pdb
     RDKit          3D

 37 40  0  0  1  0  0  0  0  0999 V2000
    9.0479  -17.2420   20.8415 N   0  0  0  0  0  0  0  0  0  0  0  0
    9.3859  -16.2565   21.8720 C   0  0  1  0  0  0  0  0  0  0  0  0
    8.1016  -15.7078   22.3683 C   0  0  0  0  0  0  0  0  0  0  0  0
    7.3212  -14.8908   21.4512 C   0  0  0  0  0  0  0  0  0  0  0  0
    5.9967  -15.0530   21.1195 C   0  0  0  0  0  0  0  0  0  0  0  0
    5.6614  -14.0910   20.2233 N   0  0  0  0  0  0  0  0  0  0  0  0
    6.7680  -13.3343   19.9975 C   0  0  0  0  0  0  0  0  0  0  0  0
    6.9270  -12.2356   19.1722 C   0  0  0  0  0  0  0  0  0  0  0  0
    8.1823  -11.6506   19.1453 C   0  0  0  0  0  0  0  0  0  0  0  0
    9.2317  -12.1171   19.8895 C   0  0  0  0  0  0  0  0  0  0  0  0
    9.0786  -13.2021   20.7063 C   0  0  0  0  0  0  0  0  0  0  0  0
    7.8228  -13.8117   20.7524 C   0  0  0  0  0  0  0  0  0  0  0  0
   10.2446  -16.9252   22.8737 C   0  0  0  0  0  0  0  0  0  0  0  0
    9.8303  -18.0086   23.3464 O   0  0  0  0  0  0  0  0  0  0  0  0
   14.8174  -15.8231   22.1015 N   0  0  0  0  0  0  0  0  0  0  0  0
   14.3889  -16.6114   23.1748 C   0  0  0  0  0  0  0  0  0  0  0  0
   14.7665  -17.8606   23.0804 O   0  0  0  0  0  0  0  0  0  0  0  0
   13.6177  -16.3066   24.3546 C   0  0  0  0  0  0  0  0  0  0  0  0
   12.2236  -16.8263   24.5109 C   0  0  2  0  0  0  0  0  0  0  0  0
   11.4733  -16.4018   23.2990 N   0  0  0  0  0  0  0  0  0  0  0  0
   11.5034  -16.3562   25.6922 C   0  0  0  0  0  0  0  0  0  0  0  0
   11.7305  -15.1444   26.0758 O   0  0  0  0  0  0  0  0  0  0  0  0
   10.5675  -17.0542   26.4788 N   0  0  0  0  0  0  0  0  0  0  0  0
   10.4824  -16.8786   27.9278 C   0  0  1  0  0  0  0  0  0  0  0  0
    9.0873  -16.4123   28.3015 C   0  0  0  0  0  0  0  0  0  0  0  0
    8.3103  -15.8428   27.2114 C   0  0  0  0  0  0  0  0  0  0  0  0
    7.5124  -16.6262   26.3642 C   0  0  0  0  0  0  0  0  0  0  0  0
    6.8900  -15.8299   25.4830 N   0  0  0  0  0  0  0  0  0  0  0  0
    7.2339  -14.5363   25.6970 C   0  0  0  0  0  0  0  0  0  0  0  0
    6.8590  -13.3817   25.0454 C   0  0  0  0  0  0  0  0  0  0  0  0
    7.3841  -12.1915   25.4794 C   0  0  0  0  0  0  0  0  0  0  0  0
    8.2653  -12.1881   26.5472 C   0  0  0  0  0  0  0  0  0  0  0  0
    8.6223  -13.3598   27.1803 C   0  0  0  0  0  0  0  0  0  0  0  0
    8.1149  -14.5638   26.7713 C   0  0  0  0  0  0  0  0  0  0  0  0
   11.0035  -18.0083   28.6616 C   0  0  0  0  0  0  0  0  0  0  0  0
   11.2712  -17.9469   30.0385 O   0  0  0  0  0  0  0  0  0  0  0  0
   11.2657  -19.1404   28.1422 O   0  0  0  0  0  0  0  0  0  0  0  0
  2  3  1  0
  2  1  1  6
  3  4  1  0
  4  5  2  0
  5  6  1  0
  7  6  1  0
  8  7  2  0
  9  8  1  0
 10 11  1  0
 10  9  2  0
 11 12  2  0
 12  4  1  0
 12  7  1  0
 13 14  2  0
 13  2  1  0
 16 15  1  0
 16 18  1  0
 17 16  2  0
 19 18  1  6
 19 20  1  0
 20 13  1  0
 21 19  1  0
 21 22  2  0
 23 21  1  0
 24 23  1  0
 24 25  1  6
 25 26  1  0
 26 34  1  0
 26 27  2  0
 27 28  1  0
 29 28  1  0
 29 30  2  0
 31 30  1  0
 32 31  2  0
 33 34  2  0
 33 32  1  0
 34 29  1  0
 35 24  1  0
 36 35  1  0
 37 35  2  0
M  END
$$$$
