WNW.pdb
     RDKit          3D

 37 40  0  0  1  0  0  0  0  0999 V2000
    8.2945  -18.8253   22.1544 N   0  0  0  0  0  0  0  0  0  0  0  0
    8.9121  -17.5200   22.4034 C   0  0  1  0  0  0  0  0  0  0  0  0
    7.9261  -16.7274   23.1757 C   0  0  0  0  0  0  0  0  0  0  0  0
    7.1327  -15.7488   22.4473 C   0  0  0  0  0  0  0  0  0  0  0  0
    5.8553  -15.9117   21.9652 C   0  0  0  0  0  0  0  0  0  0  0  0
    5.4883  -14.7666   21.3366 N   0  0  0  0  0  0  0  0  0  0  0  0
    6.5286  -13.8959   21.4257 C   0  0  0  0  0  0  0  0  0  0  0  0
    6.6344  -12.6025   20.9469 C   0  0  0  0  0  0  0  0  0  0  0  0
    7.8258  -11.9403   21.1936 C   0  0  0  0  0  0  0  0  0  0  0  0
    8.8638  -12.5148   21.8756 C   0  0  0  0  0  0  0  0  0  0  0  0
    8.7630  -13.7923   22.3505 C   0  0  0  0  0  0  0  0  0  0  0  0
    7.5722  -14.4834   22.1155 C   0  0  0  0  0  0  0  0  0  0  0  0
   10.2196  -17.7543   23.0540 C   0  0  0  0  0  0  0  0  0  0  0  0
   10.3655  -18.8381   23.6648 O   0  0  0  0  0  0  0  0  0  0  0  0
   15.6605  -16.7531   24.3129 N   0  0  0  0  0  0  0  0  0  0  0  0
   14.8901  -15.9315   23.4832 C   0  0  0  0  0  0  0  0  0  0  0  0
   15.5813  -14.9742   22.9195 O   0  0  0  0  0  0  0  0  0  0  0  0
   13.4906  -15.9439   23.1356 C   0  0  0  0  0  0  0  0  0  0  0  0
   12.5628  -16.9504   23.7391 C   0  0  2  0  0  0  0  0  0  0  0  0
   11.2723  -16.8300   23.0098 N   0  0  0  0  0  0  0  0  0  0  0  0
   12.3054  -16.7940   25.1690 C   0  0  0  0  0  0  0  0  0  0  0  0
   13.2156  -17.2188   25.9803 O   0  0  0  0  0  0  0  0  0  0  0  0
   11.1828  -16.2207   25.7960 N   0  0  0  0  0  0  0  0  0  0  0  0
   11.0747  -16.1090   27.2498 C   0  0  1  0  0  0  0  0  0  0  0  0
   10.2897  -14.8598   27.6057 C   0  0  0  0  0  0  0  0  0  0  0  0
    8.9995  -14.7284   26.9464 C   0  0  0  0  0  0  0  0  0  0  0  0
    8.1099  -15.8043   26.8084 C   0  0  0  0  0  0  0  0  0  0  0  0
    6.9950  -15.3795   26.1963 N   0  0  0  0  0  0  0  0  0  0  0  0
    7.0919  -14.0577   25.9119 C   0  0  0  0  0  0  0  0  0  0  0  0
    6.2118  -13.2003   25.2886 C   0  0  0  0  0  0  0  0  0  0  0  0
    6.5875  -11.8920   25.1225 C   0  0  0  0  0  0  0  0  0  0  0  0
    7.8266  -11.4786   25.5815 C   0  0  0  0  0  0  0  0  0  0  0  0
    8.6868  -12.3595   26.2021 C   0  0  0  0  0  0  0  0  0  0  0  0
    8.3408  -13.6716   26.3835 C   0  0  0  0  0  0  0  0  0  0  0  0
   10.6503  -17.3386   27.8772 C   0  0  0  0  0  0  0  0  0  0  0  0
   10.7391  -17.5405   29.2638 O   0  0  0  0  0  0  0  0  0  0  0  0
   10.1683  -18.3346   27.2479 O   0  0  0  0  0  0  0  0  0  0  0  0
  2  3  1  0
  2  1  1  1
  3  4  1  0
  4  5  2  0
  5  6  1  0
  7  6  1  0
  8  7  2  0
  9  8  1  0
 10 11  1  0
 10  9  2  0
 11 12  2  0
 12  4  1  0
 12  7  1  0
 13 14  2  0
 13  2  1  0
 16 15  1  0
 16 18  1  0
 17 16  2  0
 19 18  1  6
 19 20  1  0
 20 13  1  0
 21 19  1  0
 21 22  2  0
 23 21  1  0
 24 23  1  0
 24 25  1  6
 25 26  1  0
 26 34  1  0
 26 27  2  0
 27 28  1  0
 29 28  1  0
 29 30  2  0
 31 30  1  0
 32 31  2  0
 33 34  2  0
 33 32  1  0
 34 29  1  0
 35 24  1  0
 36 35  1  0
 37 35  2  0
M  END
$$$$
