EGP.pdb
     RDKit          3D

 21 21  0  0  1  0  0  0  0  0999 V2000
    9.2901  -15.9969   20.0347 N   0  0  0  0  0  0  0  0  0  0  0  0
    8.8460  -17.1710   20.7820 C   0  0  1  0  0  0  0  0  0  0  0  0
   10.0144  -18.0932   21.0385 C   0  0  0  0  0  0  0  0  0  0  0  0
   11.2474  -17.6028   20.3099 C   0  0  0  0  0  0  0  0  0  0  0  0
   12.3543  -18.5632   20.5715 C   0  0  0  0  0  0  0  0  0  0  0  0
   13.2652  -18.2212   21.3732 O   0  0  0  0  0  0  0  0  0  0  0  0
    8.1947  -16.7338   22.0431 C   0  0  0  0  0  0  0  0  0  0  0  0
    7.6426  -17.6387   22.7551 O   0  0  0  0  0  0  0  0  0  0  0  0
   12.4130  -19.8064   19.9638 O   0  0  0  0  0  0  0  0  0  0  0  0
    8.1737  -15.3761   22.4590 N   0  0  0  0  0  0  0  0  0  0  0  0
    7.5381  -15.0523   23.7193 C   0  0  0  0  0  0  0  0  0  0  0  0
    8.5919  -14.8288   24.7291 C   0  0  0  0  0  0  0  0  0  0  0  0
    9.7712  -15.2695   24.5432 O   0  0  0  0  0  0  0  0  0  0  0  0
    8.3074  -14.1291   25.9087 N   0  0  0  0  0  0  0  0  0  0  0  0
    7.0120  -13.7247   26.3805 C   0  0  0  0  0  0  0  0  0  0  0  0
    7.3479  -12.2760   26.7930 C   0  0  0  0  0  0  0  0  0  0  0  0
    8.5704  -12.5360   27.6390 C   0  0  0  0  0  0  0  0  0  0  0  0
    9.2500  -13.6721   26.9009 C   0  0  1  0  0  0  0  0  0  0  0  0
    9.4840  -14.8297   27.8335 C   0  0  0  0  0  0  0  0  0  0  0  0
    8.7639  -15.8575   27.8192 O   0  0  0  0  0  0  0  0  0  0  0  0
   10.5167  -14.8113   28.7586 O   0  0  0  0  0  0  0  0  0  0  0  0
  2  1  1  1
  3  2  1  0
  3  4  1  0
  4  5  1  0
  5  9  1  0
  5  6  2  0
  7  8  2  0
  7  2  1  0
 10  7  1  0
 11 12  1  0
 11 10  1  0
 12 14  1  0
 13 12  2  0
 14 15  1  0
 14 18  1  0
 15 16  1  0
 16 17  1  0
 18 19  1  1
 18 17  1  0
 19 21  1  0
 20 19  2  0
M  END
$$$$
