EGP.pdb
     RDKit          3D

 21 21  0  0  1  0  0  0  0  0999 V2000
    9.5871  -17.5714   19.9117 N   0  0  0  0  0  0  0  0  0  0  0  0
    9.4843  -17.2549   21.3342 C   0  0  1  0  0  0  0  0  0  0  0  0
   10.8465  -17.3354   21.9818 C   0  0  0  0  0  0  0  0  0  0  0  0
   11.7125  -16.1741   21.5421 C   0  0  0  0  0  0  0  0  0  0  0  0
   13.0470  -16.3200   22.1854 C   0  0  0  0  0  0  0  0  0  0  0  0
   14.0082  -16.7317   21.4811 O   0  0  0  0  0  0  0  0  0  0  0  0
    8.8696  -15.9126   21.4961 C   0  0  0  0  0  0  0  0  0  0  0  0
    7.9447  -15.5950   20.6750 O   0  0  0  0  0  0  0  0  0  0  0  0
   13.2595  -16.0229   23.5214 O   0  0  0  0  0  0  0  0  0  0  0  0
    9.2760  -15.0057   22.5105 N   0  0  0  0  0  0  0  0  0  0  0  0
    8.2571  -14.2362   23.1940 C   0  0  0  0  0  0  0  0  0  0  0  0
    8.4642  -14.3768   24.6491 C   0  0  0  0  0  0  0  0  0  0  0  0
    9.3973  -15.1139   25.1023 O   0  0  0  0  0  0  0  0  0  0  0  0
    7.6339  -13.7012   25.5526 N   0  0  0  0  0  0  0  0  0  0  0  0
    6.4778  -12.9095   25.2352 C   0  0  0  0  0  0  0  0  0  0  0  0
    6.7623  -11.6941   26.1427 C   0  0  0  0  0  0  0  0  0  0  0  0
    7.0291  -12.4124   27.4431 C   0  0  0  0  0  0  0  0  0  0  0  0
    7.7583  -13.6613   26.9896 C   0  0  1  0  0  0  0  0  0  0  0  0
    7.0611  -14.8877   27.5133 C   0  0  0  0  0  0  0  0  0  0  0  0
    6.1623  -15.4758   26.8642 O   0  0  0  0  0  0  0  0  0  0  0  0
    7.3853  -15.4276   28.7486 O   0  0  0  0  0  0  0  0  0  0  0  0
  2  1  1  6
  3  2  1  0
  3  4  1  0
  4  5  1  0
  5  9  1  0
  5  6  2  0
  7  8  2  0
  7  2  1  0
 10  7  1  0
 11 12  1  0
 11 10  1  0
 12 14  1  0
 13 12  2  0
 14 15  1  0
 14 18  1  0
 15 16  1  0
 16 17  1  0
 18 19  1  1
 18 17  1  0
 19 21  1  0
 20 19  2  0
M  END
$$$$
