EGP.pdb
     RDKit          3D

 21 21  0  0  1  0  0  0  0  0999 V2000
    9.1576  -16.6534   20.3064 N   0  0  0  0  0  0  0  0  0  0  0  0
    8.7622  -17.3865   21.5066 C   0  0  1  0  0  0  0  0  0  0  0  0
    9.9882  -17.8543   22.2544 C   0  0  0  0  0  0  0  0  0  0  0  0
   11.2429  -17.2916   21.6211 C   0  0  0  0  0  0  0  0  0  0  0  0
   12.4153  -17.7882   22.3923 C   0  0  0  0  0  0  0  0  0  0  0  0
   12.7610  -17.1564   23.4272 O   0  0  0  0  0  0  0  0  0  0  0  0
    7.8938  -16.5228   22.3466 C   0  0  0  0  0  0  0  0  0  0  0  0
    7.3019  -17.0786   23.3322 O   0  0  0  0  0  0  0  0  0  0  0  0
   13.1312  -18.9098   22.0079 O   0  0  0  0  0  0  0  0  0  0  0  0
    7.7138  -15.1387   22.0847 N   0  0  0  0  0  0  0  0  0  0  0  0
    7.0074  -14.3393   23.0642 C   0  0  0  0  0  0  0  0  0  0  0  0
    7.9555  -13.9657   24.1326 C   0  0  0  0  0  0  0  0  0  0  0  0
    9.2040  -14.1673   23.9903 O   0  0  0  0  0  0  0  0  0  0  0  0
    7.4932  -13.3849   25.3204 N   0  0  0  0  0  0  0  0  0  0  0  0
    6.1245  -13.1603   25.6948 C   0  0  0  0  0  0  0  0  0  0  0  0
    6.2533  -11.7152   26.2210 C   0  0  0  0  0  0  0  0  0  0  0  0
    7.4224  -11.8957   27.1584 C   0  0  0  0  0  0  0  0  0  0  0  0
    8.2894  -12.8958   26.4199 C   0  0  1  0  0  0  0  0  0  0  0  0
    8.5774  -14.0818   27.3001 C   0  0  0  0  0  0  0  0  0  0  0  0
    9.4240  -14.0393   28.2255 O   0  0  0  0  0  0  0  0  0  0  0  0
    7.9124  -15.2860   27.1257 O   0  0  0  0  0  0  0  0  0  0  0  0
  2  1  1  6
  3  2  1  0
  3  4  1  0
  4  5  1  0
  5  9  1  0
  5  6  2  0
  7  8  2  0
  7  2  1  0
 10  7  1  0
 11 12  1  0
 11 10  1  0
 12 14  1  0
 13 12  2  0
 14 15  1  0
 14 18  1  0
 15 16  1  0
 16 17  1  0
 18 19  1  1
 18 17  1  0
 19 21  1  0
 20 19  2  0
M  END
$$$$
