EGP.pdb
     RDKit          3D

 21 21  0  0  1  0  0  0  0  0999 V2000
    8.3113  -17.9983   20.4422 N   0  0  0  0  0  0  0  0  0  0  0  0
    9.0013  -17.7320   21.7021 C   0  0  1  0  0  0  0  0  0  0  0  0
   10.4594  -17.4367   21.4409 C   0  0  0  0  0  0  0  0  0  0  0  0
   11.0447  -18.4564   20.4873 C   0  0  0  0  0  0  0  0  0  0  0  0
   12.4056  -18.8172   20.9709 C   0  0  0  0  0  0  0  0  0  0  0  0
   13.3727  -18.0795   20.6392 O   0  0  0  0  0  0  0  0  0  0  0  0
    8.3245  -16.6133   22.4066 C   0  0  0  0  0  0  0  0  0  0  0  0
    8.3830  -15.4618   21.8577 O   0  0  0  0  0  0  0  0  0  0  0  0
   12.6373  -19.9293   21.7632 O   0  0  0  0  0  0  0  0  0  0  0  0
    7.6375  -16.7919   23.6365 N   0  0  0  0  0  0  0  0  0  0  0  0
    6.9141  -15.6661   24.1903 C   0  0  0  0  0  0  0  0  0  0  0  0
    7.8783  -14.7863   24.8806 C   0  0  0  0  0  0  0  0  0  0  0  0
    9.1209  -14.8518   24.6139 O   0  0  0  0  0  0  0  0  0  0  0  0
    7.4382  -13.8671   25.8415 N   0  0  0  0  0  0  0  0  0  0  0  0
    6.0795  -13.6127   26.2330 C   0  0  0  0  0  0  0  0  0  0  0  0
    6.1150  -12.0698   26.2353 C   0  0  0  0  0  0  0  0  0  0  0  0
    7.3479  -11.8511   27.0779 C   0  0  0  0  0  0  0  0  0  0  0  0
    8.2526  -12.9874   26.6446 C   0  0  1  0  0  0  0  0  0  0  0  0
    8.6918  -13.7859   27.8421 C   0  0  0  0  0  0  0  0  0  0  0  0
    9.5720  -13.3735   28.6360 O   0  0  0  0  0  0  0  0  0  0  0  0
    8.1368  -15.0249   28.1240 O   0  0  0  0  0  0  0  0  0  0  0  0
  2  1  1  6
  3  2  1  0
  3  4  1  0
  4  5  1  0
  5  9  1  0
  5  6  2  0
  7  8  2  0
  7  2  1  0
 10  7  1  0
 11 12  1  0
 11 10  1  0
 12 14  1  0
 13 12  2  0
 14 15  1  0
 14 18  1  0
 15 16  1  0
 16 17  1  0
 18 19  1  1
 18 17  1  0
 19 21  1  0
 20 19  2  0
M  END
$$$$
