EGP.pdb
     RDKit          3D

 21 21  0  0  1  0  0  0  0  0999 V2000
    8.6115  -16.9189   19.4495 N   0  0  0  0  0  0  0  0  0  0  0  0
    9.1252  -16.9013   20.8170 C   0  0  1  0  0  0  0  0  0  0  0  0
   10.6325  -16.8051   20.8021 C   0  0  0  0  0  0  0  0  0  0  0  0
   11.2472  -17.9997   21.4999 C   0  0  0  0  0  0  0  0  0  0  0  0
   11.9000  -17.5224   22.7498 C   0  0  0  0  0  0  0  0  0  0  0  0
   12.9518  -16.8346   22.6496 O   0  0  0  0  0  0  0  0  0  0  0  0
    8.5032  -15.7767   21.5614 C   0  0  0  0  0  0  0  0  0  0  0  0
    8.8265  -14.5944   21.2033 O   0  0  0  0  0  0  0  0  0  0  0  0
   11.3922  -17.8120   24.0054 O   0  0  0  0  0  0  0  0  0  0  0  0
    7.5878  -15.9823   22.6275 N   0  0  0  0  0  0  0  0  0  0  0  0
    7.0422  -14.8213   23.2995 C   0  0  0  0  0  0  0  0  0  0  0  0
    8.0002  -14.3902   24.3372 C   0  0  0  0  0  0  0  0  0  0  0  0
    9.2322  -14.6963   24.2487 O   0  0  0  0  0  0  0  0  0  0  0  0
    7.5652  -13.6386   25.4362 N   0  0  0  0  0  0  0  0  0  0  0  0
    6.2274  -13.1826   25.6940 C   0  0  0  0  0  0  0  0  0  0  0  0
    6.5437  -11.7285   26.1029 C   0  0  0  0  0  0  0  0  0  0  0  0
    7.6175  -11.9879   27.1314 C   0  0  0  0  0  0  0  0  0  0  0  0
    8.3632  -13.1688   26.5427 C   0  0  1  0  0  0  0  0  0  0  0  0
    8.4186  -14.2956   27.5386 C   0  0  0  0  0  0  0  0  0  0  0  0
    7.6292  -15.2701   27.4921 O   0  0  0  0  0  0  0  0  0  0  0  0
    9.3548  -14.3068   28.5614 O   0  0  0  0  0  0  0  0  0  0  0  0
  2  1  1  6
  3  2  1  0
  3  4  1  0
  4  5  1  0
  5  9  1  0
  5  6  2  0
  7  8  2  0
  7  2  1  0
 10  7  1  0
 11 12  1  0
 11 10  1  0
 12 14  1  0
 13 12  2  0
 14 15  1  0
 14 18  1  0
 15 16  1  0
 16 17  1  0
 18 19  1  1
 18 17  1  0
 19 21  1  0
 20 19  2  0
M  END
$$$$
