EGP.pdb
     RDKit          3D

 21 21  0  0  1  0  0  0  0  0999 V2000
    8.7124  -16.3248   19.2490 N   0  0  0  0  0  0  0  0  0  0  0  0
    9.0569  -16.5484   20.6510 C   0  0  1  0  0  0  0  0  0  0  0  0
   10.5536  -16.6859   20.8004 C   0  0  0  0  0  0  0  0  0  0  0  0
   10.9095  -18.0549   21.3398 C   0  0  0  0  0  0  0  0  0  0  0  0
   11.8362  -17.8742   22.4907 C   0  0  0  0  0  0  0  0  0  0  0  0
   12.8867  -17.2004   22.3120 O   0  0  0  0  0  0  0  0  0  0  0  0
    8.5153  -15.4368   21.4737 C   0  0  0  0  0  0  0  0  0  0  0  0
    8.8894  -14.2542   21.1698 O   0  0  0  0  0  0  0  0  0  0  0  0
   11.5817  -18.4217   23.7372 O   0  0  0  0  0  0  0  0  0  0  0  0
    7.6209  -15.6546   22.5550 N   0  0  0  0  0  0  0  0  0  0  0  0
    7.0165  -14.5023   23.1908 C   0  0  0  0  0  0  0  0  0  0  0  0
    7.8612  -14.1042   24.3345 C   0  0  0  0  0  0  0  0  0  0  0  0
    9.1133  -14.3315   24.3251 O   0  0  0  0  0  0  0  0  0  0  0  0
    7.2950  -13.4716   25.4486 N   0  0  0  0  0  0  0  0  0  0  0  0
    5.8994  -13.2225   25.6822 C   0  0  0  0  0  0  0  0  0  0  0  0
    5.9933  -11.7577   26.1590 C   0  0  0  0  0  0  0  0  0  0  0  0
    7.0667  -11.9069   27.2095 C   0  0  0  0  0  0  0  0  0  0  0  0
    7.9889  -12.9425   26.5977 C   0  0  1  0  0  0  0  0  0  0  0  0
    8.1801  -14.0929   27.5488 C   0  0  0  0  0  0  0  0  0  0  0  0
    7.5475  -15.1705   27.4323 O   0  0  0  0  0  0  0  0  0  0  0  0
    9.0735  -14.0119   28.6061 O   0  0  0  0  0  0  0  0  0  0  0  0
  2  1  1  6
  3  2  1  0
  3  4  1  0
  4  5  1  0
  5  9  1  0
  5  6  2  0
  7  8  2  0
  7  2  1  0
 10  7  1  0
 11 12  1  0
 11 10  1  0
 12 14  1  0
 13 12  2  0
 14 15  1  0
 14 18  1  0
 15 16  1  0
 16 17  1  0
 18 19  1  1
 18 17  1  0
 19 21  1  0
 20 19  2  0
M  END
$$$$
