EGP.pdb
     RDKit          3D

 21 21  0  0  1  0  0  0  0  0999 V2000
    7.7637  -13.2194   18.7914 N   0  0  0  0  0  0  0  0  0  0  0  0
    7.3293  -14.2110   19.7724 C   0  0  1  0  0  0  0  0  0  0  0  0
    8.0280  -15.5265   19.5224 C   0  0  0  0  0  0  0  0  0  0  0  0
    9.5304  -15.3472   19.5722 C   0  0  0  0  0  0  0  0  0  0  0  0
   10.1652  -16.6556   19.2538 C   0  0  0  0  0  0  0  0  0  0  0  0
    9.4620  -17.5409   18.6959 O   0  0  0  0  0  0  0  0  0  0  0  0
    7.5877  -13.6948   21.1408 C   0  0  0  0  0  0  0  0  0  0  0  0
    8.7468  -13.2101   21.3689 O   0  0  0  0  0  0  0  0  0  0  0  0
   11.4903  -16.9259   19.5524 O   0  0  0  0  0  0  0  0  0  0  0  0
    6.6057  -13.7288   22.1661 N   0  0  0  0  0  0  0  0  0  0  0  0
    6.7186  -14.7430   23.1936 C   0  0  0  0  0  0  0  0  0  0  0  0
    7.7650  -14.3254   24.1480 C   0  0  0  0  0  0  0  0  0  0  0  0
    8.9968  -14.4705   23.8632 O   0  0  0  0  0  0  0  0  0  0  0  0
    7.4159  -13.7646   25.3832 N   0  0  0  0  0  0  0  0  0  0  0  0
    6.1027  -13.3676   25.8098 C   0  0  0  0  0  0  0  0  0  0  0  0
    6.4538  -11.9958   26.4235 C   0  0  0  0  0  0  0  0  0  0  0  0
    7.6004  -12.4085   27.3140 C   0  0  0  0  0  0  0  0  0  0  0  0
    8.2959  -13.4727   26.4887 C   0  0  1  0  0  0  0  0  0  0  0  0
    8.4215  -14.7447   27.2828 C   0  0  0  0  0  0  0  0  0  0  0  0
    7.6135  -15.6965   27.1550 O   0  0  0  0  0  0  0  0  0  0  0  0
    9.4466  -14.9229   28.1993 O   0  0  0  0  0  0  0  0  0  0  0  0
  2  1  1  6
  3  2  1  0
  3  4  1  0
  4  5  1  0
  5  9  1  0
  5  6  2  0
  7  8  2  0
  7  2  1  0
 10  7  1  0
 11 12  1  0
 11 10  1  0
 12 14  1  0
 13 12  2  0
 14 15  1  0
 14 18  1  0
 15 16  1  0
 16 17  1  0
 18 19  1  1
 18 17  1  0
 19 21  1  0
 20 19  2  0
M  END
$$$$
