EGP.pdb
     RDKit          3D

 21 21  0  0  1  0  0  0  0  0999 V2000
   10.8092  -13.9899   19.9057 N   0  0  0  0  0  0  0  0  0  0  0  0
    9.4609  -13.4505   20.0649 C   0  0  1  0  0  0  0  0  0  0  0  0
    8.7004  -13.5668   18.7651 C   0  0  0  0  0  0  0  0  0  0  0  0
    9.1082  -14.8212   18.0222 C   0  0  0  0  0  0  0  0  0  0  0  0
    8.3599  -14.8633   16.7360 C   0  0  0  0  0  0  0  0  0  0  0  0
    7.1089  -15.0143   16.7771 O   0  0  0  0  0  0  0  0  0  0  0  0
    8.7758  -14.1594   21.1758 C   0  0  0  0  0  0  0  0  0  0  0  0
    9.1435  -15.3590   21.4129 O   0  0  0  0  0  0  0  0  0  0  0  0
    8.9921  -14.7460   15.5093 O   0  0  0  0  0  0  0  0  0  0  0  0
    7.7546  -13.5512   21.9528 N   0  0  0  0  0  0  0  0  0  0  0  0
    7.1979  -14.2971   23.0624 C   0  0  0  0  0  0  0  0  0  0  0  0
    8.0543  -14.0814   24.2457 C   0  0  0  0  0  0  0  0  0  0  0  0
    9.2932  -14.3698   24.2098 O   0  0  0  0  0  0  0  0  0  0  0  0
    7.5137  -13.5573   25.4268 N   0  0  0  0  0  0  0  0  0  0  0  0
    6.1512  -13.1595   25.6495 C   0  0  0  0  0  0  0  0  0  0  0  0
    6.4068  -11.8126   26.3581 C   0  0  0  0  0  0  0  0  0  0  0  0
    7.3922  -12.2671   27.4071 C   0  0  0  0  0  0  0  0  0  0  0  0
    8.2055  -13.3116   26.6690 C   0  0  1  0  0  0  0  0  0  0  0  0
    8.1937  -14.6102   27.4291 C   0  0  0  0  0  0  0  0  0  0  0  0
    7.3925  -15.5376   27.1583 O   0  0  0  0  0  0  0  0  0  0  0  0
    9.0772  -14.8417   28.4723 O   0  0  0  0  0  0  0  0  0  0  0  0
  2  1  1  6
  3  2  1  0
  3  4  1  0
  4  5  1  0
  5  9  1  0
  5  6  2  0
  7  8  2  0
  7  2  1  0
 10  7  1  0
 11 12  1  0
 11 10  1  0
 12 14  1  0
 13 12  2  0
 14 15  1  0
 14 18  1  0
 15 16  1  0
 16 17  1  0
 18 19  1  1
 18 17  1  0
 19 21  1  0
 20 19  2  0
M  END
$$$$
