EGP.pdb
     RDKit          3D

 21 21  0  0  1  0  0  0  0  0999 V2000
    9.1367  -16.7678   19.6884 N   0  0  0  0  0  0  0  0  0  0  0  0
    9.3550  -16.9259   21.1242 C   0  0  1  0  0  0  0  0  0  0  0  0
   10.8329  -16.8746   21.4314 C   0  0  0  0  0  0  0  0  0  0  0  0
   11.4714  -18.2266   21.1943 C   0  0  0  0  0  0  0  0  0  0  0  0
   12.3653  -18.5266   22.3463 C   0  0  0  0  0  0  0  0  0  0  0  0
   12.8655  -17.5597   22.9822 O   0  0  0  0  0  0  0  0  0  0  0  0
    8.5980  -15.8777   21.8550 C   0  0  0  0  0  0  0  0  0  0  0  0
    8.7041  -14.6797   21.4260 O   0  0  0  0  0  0  0  0  0  0  0  0
   12.6624  -19.8229   22.7329 O   0  0  0  0  0  0  0  0  0  0  0  0
    7.7867  -16.1705   22.9831 N   0  0  0  0  0  0  0  0  0  0  0  0
    7.0429  -15.0890   23.5950 C   0  0  0  0  0  0  0  0  0  0  0  0
    7.9292  -14.3960   24.5512 C   0  0  0  0  0  0  0  0  0  0  0  0
    9.1941  -14.4754   24.4364 O   0  0  0  0  0  0  0  0  0  0  0  0
    7.3893  -13.6420   25.6010 N   0  0  0  0  0  0  0  0  0  0  0  0
    5.9971  -13.4085   25.8679 C   0  0  0  0  0  0  0  0  0  0  0  0
    6.0571  -11.8919   26.1477 C   0  0  0  0  0  0  0  0  0  0  0  0
    7.1805  -11.8697   27.1555 C   0  0  0  0  0  0  0  0  0  0  0  0
    8.1129  -12.9467   26.6378 C   0  0  1  0  0  0  0  0  0  0  0  0
    8.3884  -13.9572   27.7182 C   0  0  0  0  0  0  0  0  0  0  0  0
    9.1741  -13.7242   28.6687 O   0  0  0  0  0  0  0  0  0  0  0  0
    7.7791  -15.2027   27.7112 O   0  0  0  0  0  0  0  0  0  0  0  0
  2  1  1  6
  3  2  1  0
  3  4  1  0
  4  5  1  0
  5  9  1  0
  5  6  2  0
  7  8  2  0
  7  2  1  0
 10  7  1  0
 11 12  1  0
 11 10  1  0
 12 14  1  0
 13 12  2  0
 14 15  1  0
 14 18  1  0
 15 16  1  0
 16 17  1  0
 18 19  1  1
 18 17  1  0
 19 21  1  0
 20 19  2  0
M  END
$$$$
