EGP.pdb
     RDKit          3D

 21 21  0  0  1  0  0  0  0  0999 V2000
    8.1060  -19.3260   23.1118 N   0  0  0  0  0  0  0  0  0  0  0  0
    8.0290  -18.1471   22.2524 C   0  0  1  0  0  0  0  0  0  0  0  0
    7.2262  -18.4624   21.0125 C   0  0  0  0  0  0  0  0  0  0  0  0
    7.7256  -19.7375   20.3671 C   0  0  0  0  0  0  0  0  0  0  0  0
    8.5864  -19.3664   19.2106 C   0  0  0  0  0  0  0  0  0  0  0  0
    8.9123  -20.2699   18.3940 O   0  0  0  0  0  0  0  0  0  0  0  0
    7.4469  -17.0165   23.0197 C   0  0  0  0  0  0  0  0  0  0  0  0
    7.3549  -15.8936   22.4185 O   0  0  0  0  0  0  0  0  0  0  0  0
    9.0370  -18.0721   19.0103 O   0  0  0  0  0  0  0  0  0  0  0  0
    7.0061  -17.1537   24.3626 N   0  0  0  0  0  0  0  0  0  0  0  0
    6.4250  -16.0000   25.0173 C   0  0  0  0  0  0  0  0  0  0  0  0
    7.5052  -15.0371   25.3109 C   0  0  0  0  0  0  0  0  0  0  0  0
    8.6776  -15.2187   24.8505 O   0  0  0  0  0  0  0  0  0  0  0  0
    7.2547  -13.9096   26.1032 N   0  0  0  0  0  0  0  0  0  0  0  0
    5.9951  -13.5184   26.6730 C   0  0  0  0  0  0  0  0  0  0  0  0
    6.0271  -12.0167   26.3188 C   0  0  0  0  0  0  0  0  0  0  0  0
    7.3977  -11.6667   26.8450 C   0  0  0  0  0  0  0  0  0  0  0  0
    8.2055  -12.9073   26.5198 C   0  0  1  0  0  0  0  0  0  0  0  0
    8.8668  -13.4362   27.7638 C   0  0  0  0  0  0  0  0  0  0  0  0
    8.4080  -14.4146   28.4020 O   0  0  0  0  0  0  0  0  0  0  0  0
   10.0246  -12.8600   28.2639 O   0  0  0  0  0  0  0  0  0  0  0  0
  2  1  1  1
  3  2  1  0
  3  4  1  0
  4  5  1  0
  5  9  1  0
  5  6  2  0
  7  8  2  0
  7  2  1  0
 10  7  1  0
 11 12  1  0
 11 10  1  0
 12 14  1  0
 13 12  2  0
 14 15  1  0
 14 18  1  0
 15 16  1  0
 16 17  1  0
 18 19  1  1
 18 17  1  0
 19 21  1  0
 20 19  2  0
M  END
$$$$
