EGP.pdb
     RDKit          3D

 21 21  0  0  1  0  0  0  0  0999 V2000
    9.5239  -12.7131   19.6418 N   0  0  0  0  0  0  0  0  0  0  0  0
    8.2721  -13.4631   19.7104 C   0  0  1  0  0  0  0  0  0  0  0  0
    8.2163  -14.4797   18.5947 C   0  0  0  0  0  0  0  0  0  0  0  0
    8.1100  -13.7886   17.2520 C   0  0  0  0  0  0  0  0  0  0  0  0
    8.0126  -14.8348   16.1974 C   0  0  0  0  0  0  0  0  0  0  0  0
    8.1270  -14.4814   14.9927 O   0  0  0  0  0  0  0  0  0  0  0  0
    8.1516  -14.0975   21.0478 C   0  0  0  0  0  0  0  0  0  0  0  0
    9.0852  -14.8952   21.3979 O   0  0  0  0  0  0  0  0  0  0  0  0
    7.7992  -16.1697   16.4986 O   0  0  0  0  0  0  0  0  0  0  0  0
    7.0564  -13.8442   21.9155 N   0  0  0  0  0  0  0  0  0  0  0  0
    6.9458  -14.6253   23.1300 C   0  0  0  0  0  0  0  0  0  0  0  0
    7.9050  -14.0907   24.1172 C   0  0  0  0  0  0  0  0  0  0  0  0
    9.1573  -14.1414   23.8967 O   0  0  0  0  0  0  0  0  0  0  0  0
    7.4492  -13.5212   25.3129 N   0  0  0  0  0  0  0  0  0  0  0  0
    6.0867  -13.2352   25.6676 C   0  0  0  0  0  0  0  0  0  0  0  0
    6.2802  -11.8150   26.2397 C   0  0  0  0  0  0  0  0  0  0  0  0
    7.4185  -12.0846   27.1935 C   0  0  0  0  0  0  0  0  0  0  0  0
    8.2470  -13.1073   26.4417 C   0  0  1  0  0  0  0  0  0  0  0  0
    8.4541  -14.3321   27.2910 C   0  0  0  0  0  0  0  0  0  0  0  0
    9.3046  -14.3719   28.2131 O   0  0  0  0  0  0  0  0  0  0  0  0
    7.7057  -15.4820   27.0904 O   0  0  0  0  0  0  0  0  0  0  0  0
  2  1  1  1
  3  2  1  0
  3  4  1  0
  4  5  1  0
  5  9  1  0
  5  6  2  0
  7  8  2  0
  7  2  1  0
 10  7  1  0
 11 12  1  0
 11 10  1  0
 12 14  1  0
 13 12  2  0
 14 15  1  0
 14 18  1  0
 15 16  1  0
 16 17  1  0
 18 19  1  1
 18 17  1  0
 19 21  1  0
 20 19  2  0
M  END
$$$$
