EGP.pdb
     RDKit          3D

 21 21  0  0  1  0  0  0  0  0999 V2000
    8.8417  -18.0091   21.6412 N   0  0  0  0  0  0  0  0  0  0  0  0
    9.0235  -16.6630   21.1035 C   0  0  1  0  0  0  0  0  0  0  0  0
    8.5896  -16.6206   19.6574 C   0  0  0  0  0  0  0  0  0  0  0  0
    8.3781  -18.0221   19.1256 C   0  0  0  0  0  0  0  0  0  0  0  0
    9.6777  -18.5191   18.5962 C   0  0  0  0  0  0  0  0  0  0  0  0
   10.2159  -19.5073   19.1647 O   0  0  0  0  0  0  0  0  0  0  0  0
    8.2700  -15.6937   21.9393 C   0  0  0  0  0  0  0  0  0  0  0  0
    8.4244  -14.4545   21.6727 O   0  0  0  0  0  0  0  0  0  0  0  0
   10.3067  -17.9314   17.5113 O   0  0  0  0  0  0  0  0  0  0  0  0
    7.4109  -16.1029   22.9935 N   0  0  0  0  0  0  0  0  0  0  0  0
    6.7243  -15.0818   23.7572 C   0  0  0  0  0  0  0  0  0  0  0  0
    7.6990  -14.4433   24.6640 C   0  0  0  0  0  0  0  0  0  0  0  0
    8.9482  -14.6272   24.5055 O   0  0  0  0  0  0  0  0  0  0  0  0
    7.2615  -13.6265   25.7145 N   0  0  0  0  0  0  0  0  0  0  0  0
    5.9006  -13.3387   26.0739 C   0  0  0  0  0  0  0  0  0  0  0  0
    6.0228  -11.8136   26.2762 C   0  0  0  0  0  0  0  0  0  0  0  0
    7.2201  -11.7802   27.1946 C   0  0  0  0  0  0  0  0  0  0  0  0
    8.0808  -12.9074   26.6598 C   0  0  1  0  0  0  0  0  0  0  0  0
    8.4107  -13.8760   27.7632 C   0  0  0  0  0  0  0  0  0  0  0  0
    9.2885  -13.6339   28.6269 O   0  0  0  0  0  0  0  0  0  0  0  0
    7.7516  -15.0908   27.8755 O   0  0  0  0  0  0  0  0  0  0  0  0
  2  1  1  1
  3  2  1  0
  3  4  1  0
  4  5  1  0
  5  9  1  0
  5  6  2  0
  7  8  2  0
  7  2  1  0
 10  7  1  0
 11 12  1  0
 11 10  1  0
 12 14  1  0
 13 12  2  0
 14 15  1  0
 14 18  1  0
 15 16  1  0
 16 17  1  0
 18 19  1  1
 18 17  1  0
 19 21  1  0
 20 19  2  0
M  END
$$$$
