EGP.pdb
     RDKit          3D

 21 21  0  0  1  0  0  0  0  0999 V2000
    7.4707  -16.8303   20.4281 N   0  0  0  0  0  0  0  0  0  0  0  0
    7.8444  -15.4181   20.4099 C   0  0  1  0  0  0  0  0  0  0  0  0
    7.0624  -14.6899   19.3424 C   0  0  0  0  0  0  0  0  0  0  0  0
    7.5872  -13.2806   19.1686 C   0  0  0  0  0  0  0  0  0  0  0  0
    8.8800  -13.3536   18.4340 C   0  0  0  0  0  0  0  0  0  0  0  0
    9.8846  -12.7790   18.9340 O   0  0  0  0  0  0  0  0  0  0  0  0
    7.6240  -14.8337   21.7574 C   0  0  0  0  0  0  0  0  0  0  0  0
    8.1004  -13.6681   21.9694 O   0  0  0  0  0  0  0  0  0  0  0  0
    9.0082  -14.0244   17.2291 O   0  0  0  0  0  0  0  0  0  0  0  0
    6.9188  -15.5216   22.7802 N   0  0  0  0  0  0  0  0  0  0  0  0
    6.5982  -14.8042   23.9968 C   0  0  0  0  0  0  0  0  0  0  0  0
    7.8300  -14.6757   24.8007 C   0  0  0  0  0  0  0  0  0  0  0  0
    8.9286  -15.1658   24.3855 O   0  0  0  0  0  0  0  0  0  0  0  0
    7.8061  -14.0131   26.0346 N   0  0  0  0  0  0  0  0  0  0  0  0
    6.6526  -13.4803   26.7052 C   0  0  0  0  0  0  0  0  0  0  0  0
    7.2270  -12.1088   27.1183 C   0  0  0  0  0  0  0  0  0  0  0  0
    8.5122  -12.5629   27.7665 C   0  0  0  0  0  0  0  0  0  0  0  0
    8.9294  -13.7308   26.8951 C   0  0  1  0  0  0  0  0  0  0  0  0
    9.1404  -14.9583   27.7395 C   0  0  0  0  0  0  0  0  0  0  0  0
    8.3031  -15.8922   27.7847 O   0  0  0  0  0  0  0  0  0  0  0  0
   10.2814  -15.1133   28.5119 O   0  0  0  0  0  0  0  0  0  0  0  0
  2  1  1  1
  3  2  1  0
  3  4  1  0
  4  5  1  0
  5  9  1  0
  5  6  2  0
  7  8  2  0
  7  2  1  0
 10  7  1  0
 11 12  1  0
 11 10  1  0
 12 14  1  0
 13 12  2  0
 14 15  1  0
 14 18  1  0
 15 16  1  0
 16 17  1  0
 18 19  1  1
 18 17  1  0
 19 21  1  0
 20 19  2  0
M  END
$$$$
