EGP.pdb
     RDKit          3D

 21 21  0  0  1  0  0  0  0  0999 V2000
    8.6037  -17.9400   21.5066 N   0  0  0  0  0  0  0  0  0  0  0  0
    8.9175  -16.7049   20.7923 C   0  0  1  0  0  0  0  0  0  0  0  0
    8.3722  -16.7683   19.3852 C   0  0  0  0  0  0  0  0  0  0  0  0
    9.4585  -17.1767   18.4131 C   0  0  0  0  0  0  0  0  0  0  0  0
    9.4851  -18.6635   18.3439 C   0  0  0  0  0  0  0  0  0  0  0  0
    8.6044  -19.3070   18.9762 O   0  0  0  0  0  0  0  0  0  0  0  0
    8.3736  -15.5479   21.5482 C   0  0  0  0  0  0  0  0  0  0  0  0
    8.8099  -14.3905   21.2309 O   0  0  0  0  0  0  0  0  0  0  0  0
   10.4408  -19.3523   17.6157 O   0  0  0  0  0  0  0  0  0  0  0  0
    7.4115  -15.6974   22.5820 N   0  0  0  0  0  0  0  0  0  0  0  0
    6.9083  -14.5047   23.2313 C   0  0  0  0  0  0  0  0  0  0  0  0
    7.8414  -14.1343   24.3140 C   0  0  0  0  0  0  0  0  0  0  0  0
    9.0856  -14.3801   24.2091 O   0  0  0  0  0  0  0  0  0  0  0  0
    7.3692  -13.5079   25.4744 N   0  0  0  0  0  0  0  0  0  0  0  0
    6.0031  -13.1949   25.7905 C   0  0  0  0  0  0  0  0  0  0  0  0
    6.1991  -11.7522   26.3021 C   0  0  0  0  0  0  0  0  0  0  0  0
    7.3173  -11.9882   27.2880 C   0  0  0  0  0  0  0  0  0  0  0  0
    8.1500  -13.0504   26.5983 C   0  0  1  0  0  0  0  0  0  0  0  0
    8.3302  -14.2377   27.5052 C   0  0  0  0  0  0  0  0  0  0  0  0
    9.1770  -14.2506   28.4314 O   0  0  0  0  0  0  0  0  0  0  0  0
    7.5600  -15.3809   27.3560 O   0  0  0  0  0  0  0  0  0  0  0  0
  2  1  1  1
  3  2  1  0
  3  4  1  0
  4  5  1  0
  5  9  1  0
  5  6  2  0
  7  8  2  0
  7  2  1  0
 10  7  1  0
 11 12  1  0
 11 10  1  0
 12 14  1  0
 13 12  2  0
 14 15  1  0
 14 18  1  0
 15 16  1  0
 16 17  1  0
 18 19  1  1
 18 17  1  0
 19 21  1  0
 20 19  2  0
M  END
$$$$
