EGP.pdb
     RDKit          3D

 21 21  0  0  1  0  0  0  0  0999 V2000
    8.0030  -15.7657   19.5802 N   0  0  0  0  0  0  0  0  0  0  0  0
    8.2710  -16.5215   20.8014 C   0  0  1  0  0  0  0  0  0  0  0  0
    9.7601  -16.6929   20.9873 C   0  0  0  0  0  0  0  0  0  0  0  0
   10.0464  -17.6260   22.1446 C   0  0  0  0  0  0  0  0  0  0  0  0
   10.1332  -19.0134   21.6121 C   0  0  0  0  0  0  0  0  0  0  0  0
   10.5833  -19.1790   20.4461 O   0  0  0  0  0  0  0  0  0  0  0  0
    7.6420  -15.8302   21.9556 C   0  0  0  0  0  0  0  0  0  0  0  0
    7.2779  -16.5578   22.9397 O   0  0  0  0  0  0  0  0  0  0  0  0
    9.7351  -20.1148   22.3516 O   0  0  0  0  0  0  0  0  0  0  0  0
    7.4434  -14.4244   21.9859 N   0  0  0  0  0  0  0  0  0  0  0  0
    6.7752  -13.8485   23.1344 C   0  0  0  0  0  0  0  0  0  0  0  0
    7.7732  -13.6529   24.2049 C   0  0  0  0  0  0  0  0  0  0  0  0
    8.9930  -13.9638   24.0180 O   0  0  0  0  0  0  0  0  0  0  0  0
    7.3903  -13.1234   25.4438 N   0  0  0  0  0  0  0  0  0  0  0  0
    6.0707  -12.7114   25.8350 C   0  0  0  0  0  0  0  0  0  0  0  0
    6.4271  -11.3673   26.5044 C   0  0  0  0  0  0  0  0  0  0  0  0
    7.5313  -11.8323   27.4223 C   0  0  0  0  0  0  0  0  0  0  0  0
    8.2348  -12.8851   26.5893 C   0  0  1  0  0  0  0  0  0  0  0  0
    8.3047  -14.1837   27.3464 C   0  0  0  0  0  0  0  0  0  0  0  0
    7.4749  -15.1083   27.1686 O   0  0  0  0  0  0  0  0  0  0  0  0
    9.3001  -14.4182   28.2828 O   0  0  0  0  0  0  0  0  0  0  0  0
  2  1  1  6
  3  2  1  0
  3  4  1  0
  4  5  1  0
  5  9  1  0
  5  6  2  0
  7  8  2  0
  7  2  1  0
 10  7  1  0
 11 12  1  0
 11 10  1  0
 12 14  1  0
 13 12  2  0
 14 15  1  0
 14 18  1  0
 15 16  1  0
 16 17  1  0
 18 19  1  1
 18 17  1  0
 19 21  1  0
 20 19  2  0
M  END
$$$$
