TER.pdb
     RDKit          3D

 28 27  0  0  1  0  0  0  0  0999 V2000
   14.4182   -4.9320   -7.5163 C   0  0  0  0  0  0  0  0  0  0  0  0
   14.9418   -5.2673   -8.8702 C   0  0  1  0  0  0  0  0  0  0  0  0
   15.6749   -4.1346   -9.3013 O   0  0  0  0  0  0  0  0  0  0  0  0
   15.9243   -6.4168   -8.9053 C   0  0  2  0  0  0  0  0  0  0  0  0
   17.1270   -5.8943   -8.2292 N   0  0  0  0  0  0  0  0  0  0  0  0
   16.3453   -6.7923  -10.2755 C   0  0  0  0  0  0  0  0  0  0  0  0
   15.4896   -7.1937  -11.0850 O   0  0  0  0  0  0  0  0  0  0  0  0
   17.6846   -6.7203  -10.7290 N   0  0  0  0  0  0  0  0  0  0  0  0
   18.1937   -7.1190  -12.0091 C   0  0  1  0  0  0  0  0  0  0  0  0
   19.5773   -6.7211  -12.3023 C   0  0  0  0  0  0  0  0  0  0  0  0
   19.8167   -5.2424  -12.4036 C   0  0  0  0  0  0  0  0  0  0  0  0
   21.2404   -4.9780  -12.6395 C   0  0  0  0  0  0  0  0  0  0  0  0
   21.6495   -3.8178  -12.8310 O   0  0  0  0  0  0  0  0  0  0  0  0
   18.0689   -8.6243  -12.2064 C   0  0  0  0  0  0  0  0  0  0  0  0
   18.2660   -9.3829  -11.2407 O   0  0  0  0  0  0  0  0  0  0  0  0
   22.2065   -5.9866  -12.6641 O   0  0  0  0  0  0  0  0  0  0  0  0
   11.2402  -12.8915  -12.9886 N   0  0  0  0  0  0  0  0  0  0  0  0
   12.1883  -13.9334  -13.1653 C   0  0  0  0  0  0  0  0  0  0  0  0
   11.7998  -15.1464  -13.2081 N   0  0  0  0  0  0  0  0  0  0  0  0
   13.5674  -13.6152  -13.2928 N   0  0  0  0  0  0  0  0  0  0  0  0
   14.0295  -12.2648  -12.9952 C   0  0  0  0  0  0  0  0  0  0  0  0
   15.4709  -12.1016  -13.4088 C   0  0  0  0  0  0  0  0  0  0  0  0
   15.9308  -10.6977  -13.1801 C   0  0  0  0  0  0  0  0  0  0  0  0
   17.3608  -10.5283  -13.6048 C   0  0  2  0  0  0  0  0  0  0  0  0
   17.7314   -9.1009  -13.4862 N   0  0  0  0  0  0  0  0  0  0  0  0
   17.6367  -10.8817  -15.0102 C   0  0  0  0  0  0  0  0  0  0  0  0
   17.8773  -12.1835  -15.4360 O   0  0  0  0  0  0  0  0  0  0  0  0
   17.6675  -10.0062  -15.9033 O   0  0  0  0  0  0  0  0  0  0  0  0
  2  1  1  1
  2  4  1  0
  3  2  1  0
  4  6  1  0
  4  5  1  1
  6  7  2  0
  8  9  1  0
  8  6  1  0
  9 10  1  1
 10 11  1  0
 11 12  1  0
 12 13  2  0
 12 16  1  0
 14 15  2  0
 14  9  1  0
 17 18  1  0
 18 19  2  0
 20 18  1  0
 20 21  1  0
 22 23  1  0
 22 21  1  0
 24 23  1  6
 24 26  1  0
 24 25  1  0
 25 14  1  0
 26 27  1  0
 28 26  2  0
M  END
$$$$
