TER.pdb
     RDKit          3D

 28 27  0  0  1  0  0  0  0  0999 V2000
   19.6986  -25.8335  -17.1746 C   0  0  0  0  0  0  0  0  0  0  0  0
   21.1437  -26.1944  -17.2051 C   0  0  1  0  0  0  0  0  0  0  0  0
   21.4356  -26.5407  -18.5472 O   0  0  0  0  0  0  0  0  0  0  0  0
   22.0891  -25.0625  -16.8692 C   0  0  2  0  0  0  0  0  0  0  0  0
   23.4252  -25.6880  -16.8626 N   0  0  0  0  0  0  0  0  0  0  0  0
   21.8829  -24.5037  -15.5123 C   0  0  0  0  0  0  0  0  0  0  0  0
   22.2826  -25.1459  -14.5241 O   0  0  0  0  0  0  0  0  0  0  0  0
   21.2489  -23.2619  -15.2665 N   0  0  0  0  0  0  0  0  0  0  0  0
   20.9700  -22.6630  -13.9935 C   0  0  1  0  0  0  0  0  0  0  0  0
   21.0171  -21.1951  -13.9504 C   0  0  0  0  0  0  0  0  0  0  0  0
   22.2602  -20.5715  -14.5160 C   0  0  0  0  0  0  0  0  0  0  0  0
   22.2070  -19.1136  -14.3616 C   0  0  0  0  0  0  0  0  0  0  0  0
   23.1498  -18.3975  -14.7472 O   0  0  0  0  0  0  0  0  0  0  0  0
   19.6218  -23.1219  -13.4530 C   0  0  0  0  0  0  0  0  0  0  0  0
   18.6396  -23.1539  -14.2154 O   0  0  0  0  0  0  0  0  0  0  0  0
   21.1213  -18.4496  -13.7857 O   0  0  0  0  0  0  0  0  0  0  0  0
   18.2363  -27.6507   -6.2836 N   0  0  0  0  0  0  0  0  0  0  0  0
   18.0569  -26.2424   -6.2928 C   0  0  0  0  0  0  0  0  0  0  0  0
   18.1877  -25.5774   -5.2135 N   0  0  0  0  0  0  0  0  0  0  0  0
   17.7314  -25.5828   -7.5087 N   0  0  0  0  0  0  0  0  0  0  0  0
   17.4863  -26.3656   -8.7140 C   0  0  0  0  0  0  0  0  0  0  0  0
   17.2185  -25.4535   -9.8852 C   0  0  0  0  0  0  0  0  0  0  0  0
   18.4853  -24.8181  -10.3609 C   0  0  0  0  0  0  0  0  0  0  0  0
   18.2487  -24.0302  -11.6167 C   0  0  2  0  0  0  0  0  0  0  0  0
   19.5412  -23.4957  -12.0993 N   0  0  0  0  0  0  0  0  0  0  0  0
   17.3808  -22.8486  -11.4537 C   0  0  0  0  0  0  0  0  0  0  0  0
   15.9958  -22.8981  -11.5686 O   0  0  0  0  0  0  0  0  0  0  0  0
   17.8624  -21.7225  -11.1988 O   0  0  0  0  0  0  0  0  0  0  0  0
  2  1  1  6
  2  4  1  0
  3  2  1  0
  4  6  1  0
  4  5  1  1
  6  7  2  0
  8  9  1  0
  8  6  1  0
  9 10  1  6
 10 11  1  0
 11 12  1  0
 12 13  2  0
 12 16  1  0
 14 15  2  0
 14  9  1  0
 17 18  1  0
 18 19  2  0
 20 18  1  0
 20 21  1  0
 22 23  1  0
 22 21  1  0
 24 23  1  1
 24 26  1  0
 24 25  1  0
 25 14  1  0
 26 27  1  0
 28 26  2  0
M  END
$$$$
