TER.pdb
     RDKit          3D

 28 27  0  0  1  0  0  0  0  0999 V2000
   14.2327   -8.5239  -14.4589 C   0  0  0  0  0  0  0  0  0  0  0  0
   14.7622   -9.8493  -14.0315 C   0  0  1  0  0  0  0  0  0  0  0  0
   14.5287  -10.7345  -15.1124 O   0  0  0  0  0  0  0  0  0  0  0  0
   16.2556   -9.8913  -13.7953 C   0  0  2  0  0  0  0  0  0  0  0  0
   16.5103  -11.2534  -13.2888 N   0  0  0  0  0  0  0  0  0  0  0  0
   16.7126   -8.9600  -12.7372 C   0  0  0  0  0  0  0  0  0  0  0  0
   16.2962   -9.1111  -11.5742 O   0  0  0  0  0  0  0  0  0  0  0  0
   17.6103   -7.8906  -12.9716 N   0  0  0  0  0  0  0  0  0  0  0  0
   18.0855   -6.9276  -12.0208 C   0  0  1  0  0  0  0  0  0  0  0  0
   19.2427   -6.1264  -12.4421 C   0  0  0  0  0  0  0  0  0  0  0  0
   20.5259   -6.8861  -12.6162 C   0  0  0  0  0  0  0  0  0  0  0  0
   21.6140   -5.9642  -12.9602 C   0  0  0  0  0  0  0  0  0  0  0  0
   22.1640   -5.2726  -12.0830 O   0  0  0  0  0  0  0  0  0  0  0  0
   16.9709   -5.9826  -11.5908 C   0  0  0  0  0  0  0  0  0  0  0  0
   16.1382   -5.6011  -12.4323 O   0  0  0  0  0  0  0  0  0  0  0  0
   22.0924   -5.8060  -14.2630 O   0  0  0  0  0  0  0  0  0  0  0  0
   12.0751   -5.2930   -4.4075 N   0  0  0  0  0  0  0  0  0  0  0  0
   11.8044   -4.1078   -5.1408 C   0  0  0  0  0  0  0  0  0  0  0  0
   11.0077   -3.2339   -4.6657 N   0  0  0  0  0  0  0  0  0  0  0  0
   12.4251   -3.9043   -6.4028 N   0  0  0  0  0  0  0  0  0  0  0  0
   13.5347   -4.7579   -6.8100 C   0  0  0  0  0  0  0  0  0  0  0  0
   14.1356   -4.2559   -8.0994 C   0  0  0  0  0  0  0  0  0  0  0  0
   15.2557   -5.1421   -8.5408 C   0  0  0  0  0  0  0  0  0  0  0  0
   15.8304   -4.6672   -9.8439 C   0  0  2  0  0  0  0  0  0  0  0  0
   16.9271   -5.5759  -10.2449 N   0  0  0  0  0  0  0  0  0  0  0  0
   16.4400   -3.3246   -9.8007 C   0  0  0  0  0  0  0  0  0  0  0  0
   17.8014   -3.0993   -9.9737 O   0  0  0  0  0  0  0  0  0  0  0  0
   15.7441   -2.3042   -9.6021 O   0  0  0  0  0  0  0  0  0  0  0  0
  2  1  1  6
  2  4  1  0
  3  2  1  0
  4  6  1  0
  4  5  1  1
  6  7  2  0
  8  9  1  0
  8  6  1  0
  9 10  1  6
 10 11  1  0
 11 12  1  0
 12 13  2  0
 12 16  1  0
 14 15  2  0
 14  9  1  0
 17 18  1  0
 18 19  2  0
 20 18  1  0
 20 21  1  0
 22 23  1  0
 22 21  1  0
 24 23  1  1
 24 26  1  0
 24 25  1  0
 25 14  1  0
 26 27  1  0
 28 26  2  0
M  END
$$$$
