TER.pdb
     RDKit          3D

 28 27  0  0  1  0  0  0  0  0999 V2000
   24.9623  -15.6370  -15.8726 C   0  0  0  0  0  0  0  0  0  0  0  0
   26.1359  -16.0983  -16.6659 C   0  0  1  0  0  0  0  0  0  0  0  0
   26.7587  -14.9284  -17.1658 O   0  0  0  0  0  0  0  0  0  0  0  0
   27.2043  -16.8097  -15.8659 C   0  0  2  0  0  0  0  0  0  0  0  0
   28.1921  -17.2420  -16.8729 N   0  0  0  0  0  0  0  0  0  0  0  0
   26.7209  -18.0417  -15.1993 C   0  0  0  0  0  0  0  0  0  0  0  0
   26.5430  -19.0694  -15.8782 O   0  0  0  0  0  0  0  0  0  0  0  0
   26.4449  -18.1235  -13.8131 N   0  0  0  0  0  0  0  0  0  0  0  0
   25.8823  -19.2340  -13.1008 C   0  0  1  0  0  0  0  0  0  0  0  0
   26.1351  -19.2631  -11.6537 C   0  0  0  0  0  0  0  0  0  0  0  0
   25.5293  -20.4213  -10.9151 C   0  0  0  0  0  0  0  0  0  0  0  0
   26.2939  -21.6445  -11.1827 C   0  0  0  0  0  0  0  0  0  0  0  0
   25.8591  -22.7570  -10.8313 O   0  0  0  0  0  0  0  0  0  0  0  0
   24.3802  -19.3331  -13.3336 C   0  0  0  0  0  0  0  0  0  0  0  0
   23.6846  -18.3042  -13.2646 O   0  0  0  0  0  0  0  0  0  0  0  0
   27.5300  -21.6406  -11.8334 O   0  0  0  0  0  0  0  0  0  0  0  0
   23.1184  -26.6009  -15.4627 N   0  0  0  0  0  0  0  0  0  0  0  0
   22.0085  -26.5810  -14.5776 C   0  0  0  0  0  0  0  0  0  0  0  0
   21.7026  -27.6272  -13.9174 N   0  0  0  0  0  0  0  0  0  0  0  0
   21.2446  -25.3914  -14.4342 N   0  0  0  0  0  0  0  0  0  0  0  0
   21.6374  -24.1872  -15.1561 C   0  0  0  0  0  0  0  0  0  0  0  0
   21.9325  -23.0689  -14.1876 C   0  0  0  0  0  0  0  0  0  0  0  0
   22.1621  -21.7845  -14.9171 C   0  0  0  0  0  0  0  0  0  0  0  0
   22.3939  -20.6570  -13.9534 C   0  0  2  0  0  0  0  0  0  0  0  0
   23.8345  -20.5973  -13.6213 N   0  0  0  0  0  0  0  0  0  0  0  0
   21.7059  -20.7982  -12.6561 C   0  0  0  0  0  0  0  0  0  0  0  0
   20.3305  -20.6608  -12.5035 O   0  0  0  0  0  0  0  0  0  0  0  0
   22.3431  -21.0539  -11.6104 O   0  0  0  0  0  0  0  0  0  0  0  0
  2  1  1  1
  2  4  1  0
  3  2  1  0
  4  6  1  0
  4  5  1  6
  6  7  2  0
  8  9  1  0
  8  6  1  0
  9 10  1  1
 10 11  1  0
 11 12  1  0
 12 13  2  0
 12 16  1  0
 14 15  2  0
 14  9  1  0
 17 18  1  0
 18 19  2  0
 20 18  1  0
 20 21  1  0
 22 23  1  0
 22 21  1  0
 24 23  1  6
 24 26  1  0
 24 25  1  0
 25 14  1  0
 26 27  1  0
 28 26  2  0
M  END
$$$$
