TER.pdb
     RDKit          3D

 28 27  0  0  1  0  0  0  0  0999 V2000
   25.8974  -16.8737  -17.0406 C   0  0  0  0  0  0  0  0  0  0  0  0
   26.1851  -15.5007  -17.5423 C   0  0  1  0  0  0  0  0  0  0  0  0
   24.9265  -14.8888  -17.7609 O   0  0  0  0  0  0  0  0  0  0  0  0
   26.9018  -14.6018  -16.5594 C   0  0  2  0  0  0  0  0  0  0  0  0
   25.9659  -14.4749  -15.4260 N   0  0  0  0  0  0  0  0  0  0  0  0
   27.1273  -13.2292  -17.0703 C   0  0  0  0  0  0  0  0  0  0  0  0
   27.9140  -13.0562  -18.0190 O   0  0  0  0  0  0  0  0  0  0  0  0
   26.4911  -12.0823  -16.5371 N   0  0  0  0  0  0  0  0  0  0  0  0
   26.6727  -10.7182  -16.9410 C   0  0  1  0  0  0  0  0  0  0  0  0
   25.7402   -9.7455  -16.3553 C   0  0  0  0  0  0  0  0  0  0  0  0
   25.9296   -8.3227  -16.7955 C   0  0  0  0  0  0  0  0  0  0  0  0
   24.9643   -7.4525  -16.1149 C   0  0  0  0  0  0  0  0  0  0  0  0
   24.1764   -7.9146  -15.2688 O   0  0  0  0  0  0  0  0  0  0  0  0
   28.0967  -10.2494  -16.6711 C   0  0  0  0  0  0  0  0  0  0  0  0
   28.5350  -10.2736  -15.5073 O   0  0  0  0  0  0  0  0  0  0  0  0
   24.8686   -6.0817  -16.3657 O   0  0  0  0  0  0  0  0  0  0  0  0
   35.7206   -9.6612  -17.7803 N   0  0  0  0  0  0  0  0  0  0  0  0
   35.5150  -11.0323  -17.4744 C   0  0  0  0  0  0  0  0  0  0  0  0
   36.3079  -11.6319  -16.6770 N   0  0  0  0  0  0  0  0  0  0  0  0
   34.4238  -11.7279  -18.0615 N   0  0  0  0  0  0  0  0  0  0  0  0
   33.4651  -11.0052  -18.8886 C   0  0  0  0  0  0  0  0  0  0  0  0
   32.6028  -10.1121  -18.0316 C   0  0  0  0  0  0  0  0  0  0  0  0
   31.1608  -10.4830  -18.1655 C   0  0  0  0  0  0  0  0  0  0  0  0
   30.2831   -9.4638  -17.4987 C   0  0  2  0  0  0  0  0  0  0  0  0
   28.8672   -9.8040  -17.7605 N   0  0  0  0  0  0  0  0  0  0  0  0
   30.4454   -8.0846  -17.9962 C   0  0  0  0  0  0  0  0  0  0  0  0
   31.4516   -7.2298  -17.5593 O   0  0  0  0  0  0  0  0  0  0  0  0
   29.6675   -7.6104  -18.8535 O   0  0  0  0  0  0  0  0  0  0  0  0
  2  1  1  1
  2  4  1  0
  3  2  1  0
  4  6  1  0
  4  5  1  1
  6  7  2  0
  8  9  1  0
  8  6  1  0
  9 10  1  1
 10 11  1  0
 11 12  1  0
 12 13  2  0
 12 16  1  0
 14 15  2  0
 14  9  1  0
 17 18  1  0
 18 19  2  0
 20 18  1  0
 20 21  1  0
 22 23  1  0
 22 21  1  0
 24 23  1  6
 24 26  1  0
 24 25  1  0
 25 14  1  0
 26 27  1  0
 28 26  2  0
M  END
$$$$
