TER.pdb
     RDKit          3D

 28 27  0  0  1  0  0  0  0  0999 V2000
   27.1528  -10.6609  -15.5355 C   0  0  0  0  0  0  0  0  0  0  0  0
   27.2624  -11.7123  -16.5853 C   0  0  1  0  0  0  0  0  0  0  0  0
   28.4673  -12.4088  -16.3218 O   0  0  0  0  0  0  0  0  0  0  0  0
   26.1759  -12.7640  -16.5479 C   0  0  2  0  0  0  0  0  0  0  0  0
   26.5267  -13.6951  -17.6371 N   0  0  0  0  0  0  0  0  0  0  0  0
   24.8298  -12.2341  -16.8687 C   0  0  0  0  0  0  0  0  0  0  0  0
   24.5220  -12.0387  -18.0585 O   0  0  0  0  0  0  0  0  0  0  0  0
   23.8545  -11.9319  -15.8878 N   0  0  0  0  0  0  0  0  0  0  0  0
   22.5565  -11.3592  -16.0973 C   0  0  1  0  0  0  0  0  0  0  0  0
   21.4424  -12.0240  -15.4076 C   0  0  0  0  0  0  0  0  0  0  0  0
   20.0884  -11.4152  -15.6312 C   0  0  0  0  0  0  0  0  0  0  0  0
   19.0817  -12.1177  -14.8278 C   0  0  0  0  0  0  0  0  0  0  0  0
   19.1829  -13.3386  -14.6057 O   0  0  0  0  0  0  0  0  0  0  0  0
   22.5417   -9.8807  -15.7310 C   0  0  0  0  0  0  0  0  0  0  0  0
   23.1222   -9.5041  -14.6974 O   0  0  0  0  0  0  0  0  0  0  0  0
   17.9707  -11.4779  -14.2732 O   0  0  0  0  0  0  0  0  0  0  0  0
   21.2824   -2.5247  -20.4823 N   0  0  0  0  0  0  0  0  0  0  0  0
   21.5234   -2.0860  -19.1537 C   0  0  0  0  0  0  0  0  0  0  0  0
   21.6529   -0.8422  -18.9081 N   0  0  0  0  0  0  0  0  0  0  0  0
   21.6191   -3.0398  -18.1046 N   0  0  0  0  0  0  0  0  0  0  0  0
   21.5149   -4.4621  -18.4073 C   0  0  0  0  0  0  0  0  0  0  0  0
   21.6837   -5.2787  -17.1503 C   0  0  0  0  0  0  0  0  0  0  0  0
   21.6183   -6.7404  -17.4567 C   0  0  0  0  0  0  0  0  0  0  0  0
   21.8800   -7.5566  -16.2242 C   0  0  2  0  0  0  0  0  0  0  0  0
   21.8658   -8.9912  -16.5859 N   0  0  0  0  0  0  0  0  0  0  0  0
   20.8665   -7.4180  -15.1613 C   0  0  0  0  0  0  0  0  0  0  0  0
   20.9828   -6.5154  -14.1098 O   0  0  0  0  0  0  0  0  0  0  0  0
   19.8326   -8.1223  -15.1576 O   0  0  0  0  0  0  0  0  0  0  0  0
  2  1  1  1
  2  4  1  0
  3  2  1  0
  4  6  1  0
  4  5  1  6
  6  7  2  0
  8  9  1  0
  8  6  1  0
  9 10  1  1
 10 11  1  0
 11 12  1  0
 12 13  2  0
 12 16  1  0
 14 15  2  0
 14  9  1  0
 17 18  1  0
 18 19  2  0
 20 18  1  0
 20 21  1  0
 22 23  1  0
 22 21  1  0
 24 23  1  6
 24 26  1  0
 24 25  1  0
 25 14  1  0
 26 27  1  0
 28 26  2  0
M  END
$$$$
