TER.pdb
     RDKit          3D

 28 27  0  0  1  0  0  0  0  0999 V2000
   17.4151  -10.8194  -17.3519 C   0  0  0  0  0  0  0  0  0  0  0  0
   17.6188   -9.9737  -16.1424 C   0  0  1  0  0  0  0  0  0  0  0  0
   16.7070  -10.4509  -15.1691 O   0  0  0  0  0  0  0  0  0  0  0  0
   18.9849  -10.0950  -15.5045 C   0  0  2  0  0  0  0  0  0  0  0  0
   19.1069  -11.5253  -15.1641 N   0  0  0  0  0  0  0  0  0  0  0  0
   19.1095   -9.3502  -14.2295 C   0  0  0  0  0  0  0  0  0  0  0  0
   18.8446   -9.9288  -13.1600 O   0  0  0  0  0  0  0  0  0  0  0  0
   19.5195   -7.9973  -14.1515 N   0  0  0  0  0  0  0  0  0  0  0  0
   19.7439   -7.2219  -12.9660 C   0  0  1  0  0  0  0  0  0  0  0  0
   20.6057   -6.0425  -13.1238 C   0  0  0  0  0  0  0  0  0  0  0  0
   21.9818   -6.3145  -13.6589 C   0  0  0  0  0  0  0  0  0  0  0  0
   22.7585   -5.0708  -13.7064 C   0  0  0  0  0  0  0  0  0  0  0  0
   23.3803   -4.7472  -14.7354 O   0  0  0  0  0  0  0  0  0  0  0  0
   18.4274   -6.7812  -12.3392 C   0  0  0  0  0  0  0  0  0  0  0  0
   17.5339   -6.3127  -13.0667 O   0  0  0  0  0  0  0  0  0  0  0  0
   22.8489   -4.1899  -12.6261 O   0  0  0  0  0  0  0  0  0  0  0  0
   12.2400  -11.0322   -8.9047 N   0  0  0  0  0  0  0  0  0  0  0  0
   11.8282   -9.6925   -8.6783 C   0  0  0  0  0  0  0  0  0  0  0  0
   10.6203   -9.4441   -8.3566 N   0  0  0  0  0  0  0  0  0  0  0  0
   12.7683   -8.6354   -8.8130 N   0  0  0  0  0  0  0  0  0  0  0  0
   14.1023   -8.9144   -9.3308 C   0  0  0  0  0  0  0  0  0  0  0  0
   14.8817   -7.6324   -9.4876 C   0  0  0  0  0  0  0  0  0  0  0  0
   16.2160   -7.8975  -10.1073 C   0  0  0  0  0  0  0  0  0  0  0  0
   16.9449   -6.6127  -10.3754 C   0  0  2  0  0  0  0  0  0  0  0  0
   18.2730   -6.9243  -10.9483 N   0  0  0  0  0  0  0  0  0  0  0  0
   17.2243   -5.7963   -9.1790 C   0  0  0  0  0  0  0  0  0  0  0  0
   16.2837   -4.9569   -8.5920 O   0  0  0  0  0  0  0  0  0  0  0  0
   18.3457   -5.8228   -8.6252 O   0  0  0  0  0  0  0  0  0  0  0  0
  2  1  1  6
  2  4  1  0
  3  2  1  0
  4  6  1  0
  4  5  1  1
  6  7  2  0
  8  9  1  0
  8  6  1  0
  9 10  1  6
 10 11  1  0
 11 12  1  0
 12 13  2  0
 12 16  1  0
 14 15  2  0
 14  9  1  0
 17 18  1  0
 18 19  2  0
 20 18  1  0
 20 21  1  0
 22 23  1  0
 22 21  1  0
 24 23  1  1
 24 26  1  0
 24 25  1  0
 25 14  1  0
 26 27  1  0
 28 26  2  0
M  END
$$$$
