TER.pdb
     RDKit          3D

 28 27  0  0  1  0  0  0  0  0999 V2000
   15.1296  -10.6148  -14.2118 C   0  0  0  0  0  0  0  0  0  0  0  0
   16.0381  -10.3436  -15.3610 C   0  0  1  0  0  0  0  0  0  0  0  0
   15.8137   -8.9950  -15.7316 O   0  0  0  0  0  0  0  0  0  0  0  0
   17.5135  -10.4301  -15.0395 C   0  0  2  0  0  0  0  0  0  0  0  0
   17.7256  -11.8396  -14.6588 N   0  0  0  0  0  0  0  0  0  0  0  0
   17.9110   -9.6164  -13.8666 C   0  0  0  0  0  0  0  0  0  0  0  0
   17.5014   -9.9393  -12.7367 O   0  0  0  0  0  0  0  0  0  0  0  0
   18.7436   -8.4745  -13.9535 N   0  0  0  0  0  0  0  0  0  0  0  0
   19.1345   -7.5981  -12.8876 C   0  0  1  0  0  0  0  0  0  0  0  0
   20.3437   -6.7980  -13.1249 C   0  0  0  0  0  0  0  0  0  0  0  0
   20.7970   -5.9536  -11.9693 C   0  0  0  0  0  0  0  0  0  0  0  0
   21.9270   -5.1103  -12.3748 C   0  0  0  0  0  0  0  0  0  0  0  0
   21.9918   -3.9186  -12.0200 O   0  0  0  0  0  0  0  0  0  0  0  0
   17.9985   -6.6591  -12.5025 C   0  0  0  0  0  0  0  0  0  0  0  0
   17.4053   -6.0246  -13.3928 O   0  0  0  0  0  0  0  0  0  0  0  0
   22.9785   -5.5782  -13.1665 O   0  0  0  0  0  0  0  0  0  0  0  0
   12.7061   -9.1018   -7.1718 N   0  0  0  0  0  0  0  0  0  0  0  0
   12.8445   -7.7650   -6.7139 C   0  0  0  0  0  0  0  0  0  0  0  0
   12.1439   -7.3533   -5.7322 N   0  0  0  0  0  0  0  0  0  0  0  0
   13.7652   -6.8934   -7.3558 N   0  0  0  0  0  0  0  0  0  0  0  0
   13.4936   -6.4221   -8.7084 C   0  0  0  0  0  0  0  0  0  0  0  0
   14.6138   -5.5329   -9.1878 C   0  0  0  0  0  0  0  0  0  0  0  0
   15.7950   -6.3489   -9.6048 C   0  0  0  0  0  0  0  0  0  0  0  0
   16.4699   -5.7398  -10.7995 C   0  0  2  0  0  0  0  0  0  0  0  0
   17.6619   -6.5469  -11.1413 N   0  0  0  0  0  0  0  0  0  0  0  0
   16.9788   -4.3706  -10.5937 C   0  0  0  0  0  0  0  0  0  0  0  0
   18.3308   -4.0704  -10.4686 O   0  0  0  0  0  0  0  0  0  0  0  0
   16.1993   -3.3949  -10.5208 O   0  0  0  0  0  0  0  0  0  0  0  0
  2  1  1  1
  2  4  1  0
  3  2  1  0
  4  6  1  0
  4  5  1  1
  6  7  2  0
  8  9  1  0
  8  6  1  0
  9 10  1  6
 10 11  1  0
 11 12  1  0
 12 13  2  0
 12 16  1  0
 14 15  2  0
 14  9  1  0
 17 18  1  0
 18 19  2  0
 20 18  1  0
 20 21  1  0
 22 23  1  0
 22 21  1  0
 24 23  1  1
 24 26  1  0
 24 25  1  0
 25 14  1  0
 26 27  1  0
 28 26  2  0
M  END
$$$$
