TER.pdb
     RDKit          3D

 28 27  0  0  1  0  0  0  0  0999 V2000
   18.6906  -22.4807  -18.3512 C   0  0  0  0  0  0  0  0  0  0  0  0
   19.4726  -21.4894  -19.1419 C   0  0  1  0  0  0  0  0  0  0  0  0
   19.1630  -20.2186  -18.5982 O   0  0  0  0  0  0  0  0  0  0  0  0
   20.9745  -21.6215  -19.0203 C   0  0  2  0  0  0  0  0  0  0  0  0
   21.2950  -22.8649  -19.7469 N   0  0  0  0  0  0  0  0  0  0  0  0
   21.4390  -21.8202  -17.6273 C   0  0  0  0  0  0  0  0  0  0  0  0
   21.2954  -22.9347  -17.0926 O   0  0  0  0  0  0  0  0  0  0  0  0
   22.0478  -20.8025  -16.8538 N   0  0  0  0  0  0  0  0  0  0  0  0
   22.3935  -20.8545  -15.4629 C   0  0  1  0  0  0  0  0  0  0  0  0
   23.3226  -19.8178  -14.9930 C   0  0  0  0  0  0  0  0  0  0  0  0
   23.8829  -20.0281  -13.6161 C   0  0  0  0  0  0  0  0  0  0  0  0
   24.7652  -21.2002  -13.6053 C   0  0  0  0  0  0  0  0  0  0  0  0
   25.9645  -21.0975  -13.9237 O   0  0  0  0  0  0  0  0  0  0  0  0
   21.1489  -20.8255  -14.5850 C   0  0  0  0  0  0  0  0  0  0  0  0
   20.2275  -20.0372  -14.8617 O   0  0  0  0  0  0  0  0  0  0  0  0
   24.3276  -22.4771  -13.2458 O   0  0  0  0  0  0  0  0  0  0  0  0
   18.3876  -25.8035   -7.6847 N   0  0  0  0  0  0  0  0  0  0  0  0
   17.3175  -24.9529   -8.0682 C   0  0  0  0  0  0  0  0  0  0  0  0
   16.1440  -25.1649   -7.6186 N   0  0  0  0  0  0  0  0  0  0  0  0
   17.5634  -23.8687   -8.9533 N   0  0  0  0  0  0  0  0  0  0  0  0
   18.7944  -23.8359   -9.7337 C   0  0  0  0  0  0  0  0  0  0  0  0
   18.7885  -22.6543  -10.6714 C   0  0  0  0  0  0  0  0  0  0  0  0
   20.0021  -22.6661  -11.5442 C   0  0  0  0  0  0  0  0  0  0  0  0
   19.9173  -21.5933  -12.5910 C   0  0  2  0  0  0  0  0  0  0  0  0
   21.0908  -21.7013  -13.4857 N   0  0  0  0  0  0  0  0  0  0  0  0
   19.9565  -20.2137  -12.0704 C   0  0  0  0  0  0  0  0  0  0  0  0
   21.1386  -19.5149  -11.8507 O   0  0  0  0  0  0  0  0  0  0  0  0
   18.9040  -19.5955  -11.7965 O   0  0  0  0  0  0  0  0  0  0  0  0
  2  1  1  1
  2  4  1  0
  3  2  1  0
  4  6  1  0
  4  5  1  6
  6  7  2  0
  8  9  1  0
  8  6  1  0
  9 10  1  1
 10 11  1  0
 11 12  1  0
 12 13  2  0
 12 16  1  0
 14 15  2  0
 14  9  1  0
 17 18  1  0
 18 19  2  0
 20 18  1  0
 20 21  1  0
 22 23  1  0
 22 21  1  0
 24 23  1  1
 24 26  1  0
 24 25  1  0
 25 14  1  0
 26 27  1  0
 28 26  2  0
M  END
$$$$
