TER.pdb
     RDKit          3D

 28 27  0  0  1  0  0  0  0  0999 V2000
   23.3212  -12.9274  -18.3279 C   0  0  0  0  0  0  0  0  0  0  0  0
   22.4722  -12.1647  -17.3704 C   0  0  1  0  0  0  0  0  0  0  0  0
   21.7499  -13.1306  -16.6276 O   0  0  0  0  0  0  0  0  0  0  0  0
   23.2374  -11.3602  -16.3432 C   0  0  2  0  0  0  0  0  0  0  0  0
   23.9287  -12.3728  -15.5226 N   0  0  0  0  0  0  0  0  0  0  0  0
   22.3643  -10.5990  -15.4191 C   0  0  0  0  0  0  0  0  0  0  0  0
   21.7107  -11.2137  -14.5568 O   0  0  0  0  0  0  0  0  0  0  0  0
   22.2259   -9.1905  -15.4568 N   0  0  0  0  0  0  0  0  0  0  0  0
   21.3781   -8.3760  -14.6353 C   0  0  1  0  0  0  0  0  0  0  0  0
   21.8674   -7.0195  -14.3542 C   0  0  0  0  0  0  0  0  0  0  0  0
   20.9484   -6.1571  -13.5383 C   0  0  0  0  0  0  0  0  0  0  0  0
   21.5220   -4.8157  -13.3837 C   0  0  0  0  0  0  0  0  0  0  0  0
   20.9899   -3.8292  -13.9258 O   0  0  0  0  0  0  0  0  0  0  0  0
   19.9759   -8.2749  -15.2219 C   0  0  0  0  0  0  0  0  0  0  0  0
   19.8397   -8.0769  -16.4422 O   0  0  0  0  0  0  0  0  0  0  0  0
   22.6750   -4.5639  -12.6364 O   0  0  0  0  0  0  0  0  0  0  0  0
   12.7874  -12.6024  -13.1746 N   0  0  0  0  0  0  0  0  0  0  0  0
   13.1811  -12.7523  -14.5304 C   0  0  0  0  0  0  0  0  0  0  0  0
   12.6260  -13.6377  -15.2597 N   0  0  0  0  0  0  0  0  0  0  0  0
   14.1944  -11.9120  -15.0655 N   0  0  0  0  0  0  0  0  0  0  0  0
   14.8725  -10.9542  -14.2004 C   0  0  0  0  0  0  0  0  0  0  0  0
   15.7442  -10.0348  -15.0191 C   0  0  0  0  0  0  0  0  0  0  0  0
   16.5884   -9.1777  -14.1317 C   0  0  0  0  0  0  0  0  0  0  0  0
   17.5262   -8.3308  -14.9424 C   0  0  2  0  0  0  0  0  0  0  0  0
   18.8799   -8.4118  -14.3507 N   0  0  0  0  0  0  0  0  0  0  0  0
   17.2016   -6.8920  -14.9640 C   0  0  0  0  0  0  0  0  0  0  0  0
   16.0697   -6.3749  -15.5848 O   0  0  0  0  0  0  0  0  0  0  0  0
   17.9468   -6.0523  -14.4122 O   0  0  0  0  0  0  0  0  0  0  0  0
  2  1  1  6
  2  4  1  0
  3  2  1  0
  4  6  1  0
  4  5  1  1
  6  7  2  0
  8  9  1  0
  8  6  1  0
  9 10  1  6
 10 11  1  0
 11 12  1  0
 12 13  2  0
 12 16  1  0
 14 15  2  0
 14  9  1  0
 17 18  1  0
 18 19  2  0
 20 18  1  0
 20 21  1  0
 22 23  1  0
 22 21  1  0
 24 23  1  1
 24 26  1  0
 24 25  1  0
 25 14  1  0
 26 27  1  0
 28 26  2  0
M  END
$$$$
