TER.pdb
     RDKit          3D

 28 27  0  0  1  0  0  0  0  0999 V2000
   25.1924  -15.0063  -17.9464 C   0  0  0  0  0  0  0  0  0  0  0  0
   25.1830  -16.3162  -17.2368 C   0  0  1  0  0  0  0  0  0  0  0  0
   23.8495  -16.5218  -16.8056 O   0  0  0  0  0  0  0  0  0  0  0  0
   25.5120  -17.5113  -18.1036 C   0  0  2  0  0  0  0  0  0  0  0  0
   24.4058  -17.5759  -19.0775 N   0  0  0  0  0  0  0  0  0  0  0  0
   25.4958  -18.7972  -17.3673 C   0  0  0  0  0  0  0  0  0  0  0  0
   24.4036  -19.3322  -17.1038 O   0  0  0  0  0  0  0  0  0  0  0  0
   26.6671  -19.4671  -16.9383 N   0  0  0  0  0  0  0  0  0  0  0  0
   26.7486  -20.6407  -16.1180 C   0  0  1  0  0  0  0  0  0  0  0  0
   28.0611  -21.2991  -16.0678 C   0  0  0  0  0  0  0  0  0  0  0  0
   28.5667  -21.8333  -17.3766 C   0  0  0  0  0  0  0  0  0  0  0  0
   29.9360  -22.3359  -17.2199 C   0  0  0  0  0  0  0  0  0  0  0  0
   30.8388  -21.9784  -17.9993 O   0  0  0  0  0  0  0  0  0  0  0  0
   26.2967  -20.3485  -14.6930 C   0  0  0  0  0  0  0  0  0  0  0  0
   26.3906  -19.1899  -14.2504 O   0  0  0  0  0  0  0  0  0  0  0  0
   30.3073  -23.2271  -16.2104 O   0  0  0  0  0  0  0  0  0  0  0  0
   18.3554  -20.6924  -12.6799 N   0  0  0  0  0  0  0  0  0  0  0  0
   18.9227  -20.4746  -11.3967 C   0  0  0  0  0  0  0  0  0  0  0  0
   18.1649  -20.2717  -10.3924 N   0  0  0  0  0  0  0  0  0  0  0  0
   20.3352  -20.4839  -11.2414 N   0  0  0  0  0  0  0  0  0  0  0  0
   21.1896  -20.7133  -12.4003 C   0  0  0  0  0  0  0  0  0  0  0  0
   22.6351  -20.7952  -11.9770 C   0  0  0  0  0  0  0  0  0  0  0  0
   23.5251  -20.9667  -13.1659 C   0  0  0  0  0  0  0  0  0  0  0  0
   24.9632  -21.0661  -12.7464 C   0  0  2  0  0  0  0  0  0  0  0  0
   25.7852  -21.4117  -13.9270 N   0  0  0  0  0  0  0  0  0  0  0  0
   25.2493  -22.1215  -11.7563 C   0  0  0  0  0  0  0  0  0  0  0  0
   25.2768  -21.8932  -10.3848 O   0  0  0  0  0  0  0  0  0  0  0  0
   25.4857  -23.2968  -12.1137 O   0  0  0  0  0  0  0  0  0  0  0  0
  2  1  1  6
  2  4  1  0
  3  2  1  0
  4  6  1  0
  4  5  1  6
  6  7  2  0
  8  9  1  0
  8  6  1  0
  9 10  1  1
 10 11  1  0
 11 12  1  0
 12 13  2  0
 12 16  1  0
 14 15  2  0
 14  9  1  0
 17 18  1  0
 18 19  2  0
 20 18  1  0
 20 21  1  0
 22 23  1  0
 22 21  1  0
 24 23  1  6
 24 26  1  0
 24 25  1  0
 25 14  1  0
 26 27  1  0
 28 26  2  0
M  END
$$$$
