IQE.pdb
     RDKit          3D

 27 26  0  0  1  0  0  0  0  0999 V2000
   26.7242  -14.6752  -17.7145 C   0  0  0  0  0  0  0  0  0  0  0  0
   26.1961  -13.7849  -16.6402 C   0  0  0  0  0  0  0  0  0  0  0  0
   24.9957  -12.9916  -17.0501 C   0  0  2  0  0  0  0  0  0  0  0  0
   25.2879  -12.2939  -18.3454 C   0  0  0  0  0  0  0  0  0  0  0  0
   24.5095  -12.0331  -15.9916 C   0  0  2  0  0  0  0  0  0  0  0  0
   24.2327  -12.7592  -14.7748 N   0  0  0  0  0  0  0  0  0  0  0  0
   23.3350  -11.2501  -16.3715 C   0  0  0  0  0  0  0  0  0  0  0  0
   23.3473  -10.3571  -17.2692 O   0  0  0  0  0  0  0  0  0  0  0  0
   17.3112  -12.8739  -14.9316 N   0  0  0  0  0  0  0  0  0  0  0  0
   17.1722  -11.6267  -15.5835 C   0  0  0  0  0  0  0  0  0  0  0  0
   16.0191  -11.1874  -15.8007 O   0  0  0  0  0  0  0  0  0  0  0  0
   18.3729  -10.8586  -15.9995 C   0  0  0  0  0  0  0  0  0  0  0  0
   19.6361  -11.5910  -15.6608 C   0  0  0  0  0  0  0  0  0  0  0  0
   20.8739  -10.8412  -16.0157 C   0  0  2  0  0  0  0  0  0  0  0  0
   22.1029  -11.4952  -15.7028 N   0  0  0  0  0  0  0  0  0  0  0  0
   20.8535   -9.4684  -15.4422 C   0  0  0  0  0  0  0  0  0  0  0  0
   21.2613   -9.3914  -14.2351 O   0  0  0  0  0  0  0  0  0  0  0  0
   20.4223   -8.3362  -16.1595 N   0  0  0  0  0  0  0  0  0  0  0  0
   20.5110   -7.0245  -15.5690 C   0  0  1  0  0  0  0  0  0  0  0  0
   21.1762   -6.0358  -16.4461 C   0  0  0  0  0  0  0  0  0  0  0  0
   21.3140   -4.6415  -16.0327 C   0  0  0  0  0  0  0  0  0  0  0  0
   22.0201   -3.6799  -16.8617 C   0  0  0  0  0  0  0  0  0  0  0  0
   22.5952   -3.9462  -17.9192 O   0  0  0  0  0  0  0  0  0  0  0  0
   19.2113   -6.6143  -15.0430 C   0  0  0  0  0  0  0  0  0  0  0  0
   19.1426   -5.8302  -14.0770 O   0  0  0  0  0  0  0  0  0  0  0  0
   22.0959   -2.3088  -16.4887 O   0  0  0  0  0  0  0  0  0  0  0  0
   18.0561   -7.0995  -15.6205 O   0  0  0  0  0  0  0  0  0  0  0  0
  2  1  1  0
  2  3  1  0
  3  4  1  6
  5  3  1  0
  5  6  1  1
  7  5  1  0
  7  8  2  0
  9 10  1  0
 10 12  1  0
 11 10  2  0
 12 13  1  0
 14 13  1  1
 14 15  1  0
 15  7  1  0
 16 14  1  0
 16 18  1  0
 17 16  2  0
 19 18  1  0
 19 24  1  0
 19 20  1  6
 21 20  1  0
 22 23  2  0
 22 21  1  0
 24 25  2  0
 24 27  1  0
 26 22  1  0
M  END
$$$$
