IQE.pdb
     RDKit          3D

 27 26  0  0  1  0  0  0  0  0999 V2000
   13.8388  -14.1377  -15.1525 C   0  0  0  0  0  0  0  0  0  0  0  0
   14.8862  -13.6369  -14.2156 C   0  0  0  0  0  0  0  0  0  0  0  0
   14.8322  -12.1598  -13.9843 C   0  0  2  0  0  0  0  0  0  0  0  0
   14.8354  -11.4556  -15.3087 C   0  0  0  0  0  0  0  0  0  0  0  0
   15.9180  -11.6469  -13.0714 C   0  0  2  0  0  0  0  0  0  0  0  0
   15.8453  -12.3334  -11.8033 N   0  0  0  0  0  0  0  0  0  0  0  0
   15.8940  -10.2026  -12.8473 C   0  0  0  0  0  0  0  0  0  0  0  0
   16.0402   -9.3468  -13.7692 O   0  0  0  0  0  0  0  0  0  0  0  0
   14.3400   -7.4946   -7.2042 N   0  0  0  0  0  0  0  0  0  0  0  0
   14.4179   -6.4058   -8.1032 C   0  0  0  0  0  0  0  0  0  0  0  0
   14.1617   -5.2555   -7.6775 O   0  0  0  0  0  0  0  0  0  0  0  0
   14.7963   -6.6284   -9.5216 C   0  0  0  0  0  0  0  0  0  0  0  0
   15.1513   -8.0625   -9.7752 C   0  0  0  0  0  0  0  0  0  0  0  0
   15.5390   -8.3405  -11.1868 C   0  0  2  0  0  0  0  0  0  0  0  0
   15.6964   -9.7180  -11.5239 N   0  0  0  0  0  0  0  0  0  0  0  0
   16.7504   -7.5677  -11.5734 C   0  0  0  0  0  0  0  0  0  0  0  0
   17.8563   -8.1494  -11.3131 O   0  0  0  0  0  0  0  0  0  0  0  0
   16.6978   -6.2972  -12.1777 N   0  0  0  0  0  0  0  0  0  0  0  0
   17.7005   -5.9062  -13.1362 C   0  0  1  0  0  0  0  0  0  0  0  0
   17.9904   -6.9577  -14.1361 C   0  0  0  0  0  0  0  0  0  0  0  0
   18.8850   -6.6952  -15.2606 C   0  0  0  0  0  0  0  0  0  0  0  0
   19.1788   -7.7257  -16.2414 C   0  0  0  0  0  0  0  0  0  0  0  0
   19.9615   -7.6001  -17.1857 O   0  0  0  0  0  0  0  0  0  0  0  0
   17.3900   -4.5904  -13.6896 C   0  0  0  0  0  0  0  0  0  0  0  0
   18.2832   -3.9063  -14.2250 O   0  0  0  0  0  0  0  0  0  0  0  0
   18.5537   -9.0022  -16.1712 O   0  0  0  0  0  0  0  0  0  0  0  0
   16.1004   -4.1054  -13.6171 O   0  0  0  0  0  0  0  0  0  0  0  0
  2  1  1  0
  2  3  1  0
  3  4  1  6
  5  3  1  0
  5  6  1  1
  7  5  1  0
  7  8  2  0
  9 10  1  0
 10 12  1  0
 11 10  2  0
 12 13  1  0
 14 13  1  1
 14 15  1  0
 15  7  1  0
 16 14  1  0
 16 18  1  0
 17 16  2  0
 19 18  1  0
 19 24  1  0
 19 20  1  6
 21 20  1  0
 22 23  2  0
 22 21  1  0
 24 25  2  0
 24 27  1  0
 26 22  1  0
M  END
$$$$
