IQE.pdb
     RDKit          3D

 27 26  0  0  1  0  0  0  0  0999 V2000
   26.3387  -14.8422  -18.1834 C   0  0  0  0  0  0  0  0  0  0  0  0
   26.2230  -13.6488  -17.2958 C   0  0  0  0  0  0  0  0  0  0  0  0
   24.9466  -12.8882  -17.4711 C   0  0  2  0  0  0  0  0  0  0  0  0
   24.7861  -12.5264  -18.9179 C   0  0  0  0  0  0  0  0  0  0  0  0
   24.8288  -11.6821  -16.5728 C   0  0  2  0  0  0  0  0  0  0  0  0
   24.8952  -12.1010  -15.1927 N   0  0  0  0  0  0  0  0  0  0  0  0
   23.6244  -10.8809  -16.7830 C   0  0  0  0  0  0  0  0  0  0  0  0
   23.3542  -10.2921  -17.8711 O   0  0  0  0  0  0  0  0  0  0  0  0
   17.9597  -11.7174  -14.2668 N   0  0  0  0  0  0  0  0  0  0  0  0
   17.8593  -10.4108  -14.7981 C   0  0  0  0  0  0  0  0  0  0  0  0
   16.7344   -9.8598  -14.8302 O   0  0  0  0  0  0  0  0  0  0  0  0
   19.0667   -9.7116  -15.3060 C   0  0  0  0  0  0  0  0  0  0  0  0
   20.2840  -10.5811  -15.2105 C   0  0  0  0  0  0  0  0  0  0  0  0
   21.5128   -9.9507  -15.7697 C   0  0  2  0  0  0  0  0  0  0  0  0
   22.6955  -10.7469  -15.7132 N   0  0  0  0  0  0  0  0  0  0  0  0
   21.7550   -8.6141  -15.1623 C   0  0  0  0  0  0  0  0  0  0  0  0
   22.4080   -8.6399  -14.0659 O   0  0  0  0  0  0  0  0  0  0  0  0
   21.3068   -7.4097  -15.7376 N   0  0  0  0  0  0  0  0  0  0  0  0
   21.7147   -6.1435  -15.1833 C   0  0  1  0  0  0  0  0  0  0  0  0
   22.1370   -5.1674  -16.2120 C   0  0  0  0  0  0  0  0  0  0  0  0
   22.5822   -3.8281  -15.8352 C   0  0  0  0  0  0  0  0  0  0  0  0
   22.9241   -2.8402  -16.8438 C   0  0  0  0  0  0  0  0  0  0  0  0
   22.9396   -3.0471  -18.0592 O   0  0  0  0  0  0  0  0  0  0  0  0
   20.7141   -5.6562  -14.2370 C   0  0  0  0  0  0  0  0  0  0  0  0
   19.5060   -5.9035  -14.4159 O   0  0  0  0  0  0  0  0  0  0  0  0
   23.2786   -1.5119  -16.4763 O   0  0  0  0  0  0  0  0  0  0  0  0
   21.1118   -4.9185  -13.1411 O   0  0  0  0  0  0  0  0  0  0  0  0
  2  1  1  0
  2  3  1  0
  3  4  1  6
  5  3  1  0
  5  6  1  1
  7  5  1  0
  7  8  2  0
  9 10  1  0
 10 12  1  0
 11 10  2  0
 12 13  1  0
 14 13  1  1
 14 15  1  0
 15  7  1  0
 16 14  1  0
 16 18  1  0
 17 16  2  0
 19 18  1  0
 19 24  1  0
 19 20  1  6
 21 20  1  0
 22 23  2  0
 22 21  1  0
 24 25  2  0
 24 27  1  0
 26 22  1  0
M  END
$$$$
