IQE.pdb
     RDKit          3D

 27 26  0  0  1  0  0  0  0  0999 V2000
   16.4712  -14.9927  -14.8528 C   0  0  0  0  0  0  0  0  0  0  0  0
   17.0277  -13.9903  -15.8074 C   0  0  0  0  0  0  0  0  0  0  0  0
   17.5421  -12.7500  -15.1477 C   0  0  2  0  0  0  0  0  0  0  0  0
   16.4542  -12.1567  -14.3026 C   0  0  0  0  0  0  0  0  0  0  0  0
   18.1188  -11.7429  -16.1114 C   0  0  2  0  0  0  0  0  0  0  0  0
   19.0920  -12.3899  -16.9592 N   0  0  0  0  0  0  0  0  0  0  0  0
   18.7233  -10.5715  -15.4795 C   0  0  0  0  0  0  0  0  0  0  0  0
   18.1591   -9.8958  -14.5691 O   0  0  0  0  0  0  0  0  0  0  0  0
   24.8931   -9.0547  -16.0860 N   0  0  0  0  0  0  0  0  0  0  0  0
   24.3674  -10.0725  -15.2570 C   0  0  0  0  0  0  0  0  0  0  0  0
   25.1462  -10.9476  -14.8123 O   0  0  0  0  0  0  0  0  0  0  0  0
   22.9206  -10.0977  -14.9240 C   0  0  0  0  0  0  0  0  0  0  0  0
   22.1789   -8.9972  -15.6210 C   0  0  0  0  0  0  0  0  0  0  0  0
   20.7088   -9.0227  -15.3800 C   0  0  2  0  0  0  0  0  0  0  0  0
   20.0173  -10.1565  -15.9020 N   0  0  0  0  0  0  0  0  0  0  0  0
   20.0666   -7.7626  -15.8423 C   0  0  0  0  0  0  0  0  0  0  0  0
   19.2920   -7.8995  -16.8475 O   0  0  0  0  0  0  0  0  0  0  0  0
   20.2853   -6.5131  -15.2314 N   0  0  0  0  0  0  0  0  0  0  0  0
   19.4980   -5.3686  -15.6153 C   0  0  1  0  0  0  0  0  0  0  0  0
   18.0420   -5.5902  -15.4726 C   0  0  0  0  0  0  0  0  0  0  0  0
   17.0936   -4.5021  -15.6975 C   0  0  0  0  0  0  0  0  0  0  0  0
   15.6669   -4.7001  -15.5090 C   0  0  0  0  0  0  0  0  0  0  0  0
   14.7986   -3.8586  -15.7502 O   0  0  0  0  0  0  0  0  0  0  0  0
   20.0092   -4.1605  -14.9726 C   0  0  0  0  0  0  0  0  0  0  0  0
   20.7555   -4.2445  -13.9784 O   0  0  0  0  0  0  0  0  0  0  0  0
   15.1587   -5.9328  -15.0117 O   0  0  0  0  0  0  0  0  0  0  0  0
   19.6617   -2.9218  -15.4710 O   0  0  0  0  0  0  0  0  0  0  0  0
  2  1  1  0
  2  3  1  0
  3  4  1  6
  5  3  1  0
  5  6  1  1
  7  5  1  0
  7  8  2  0
  9 10  1  0
 10 12  1  0
 11 10  2  0
 12 13  1  0
 14 13  1  6
 14 15  1  0
 15  7  1  0
 16 14  1  0
 16 18  1  0
 17 16  2  0
 19 18  1  0
 19 24  1  0
 19 20  1  1
 21 20  1  0
 22 23  2  0
 22 21  1  0
 24 25  2  0
 24 27  1  0
 26 22  1  0
M  END
$$$$
