IQE.pdb
     RDKit          3D

 27 26  0  0  1  0  0  0  0  0999 V2000
   13.9172  -11.5040  -16.9428 C   0  0  0  0  0  0  0  0  0  0  0  0
   15.3785  -11.5561  -16.6472 C   0  0  0  0  0  0  0  0  0  0  0  0
   15.8742  -10.3921  -15.8486 C   0  0  2  0  0  0  0  0  0  0  0  0
   15.7227   -9.1402  -16.6607 C   0  0  0  0  0  0  0  0  0  0  0  0
   17.2819  -10.5627  -15.3342 C   0  0  2  0  0  0  0  0  0  0  0  0
   17.3716  -11.7859  -14.5725 N   0  0  0  0  0  0  0  0  0  0  0  0
   17.7755   -9.4476  -14.5280 C   0  0  0  0  0  0  0  0  0  0  0  0
   17.4319   -9.2445  -13.3262 O   0  0  0  0  0  0  0  0  0  0  0  0
   23.2942   -6.5007  -14.7007 N   0  0  0  0  0  0  0  0  0  0  0  0
   22.4680   -5.5185  -14.1071 C   0  0  0  0  0  0  0  0  0  0  0  0
   23.0014   -4.4814  -13.6490 O   0  0  0  0  0  0  0  0  0  0  0  0
   20.9986   -5.7186  -14.0315 C   0  0  0  0  0  0  0  0  0  0  0  0
   20.5914   -7.0241  -14.6453 C   0  0  0  0  0  0  0  0  0  0  0  0
   19.1416   -7.3303  -14.4889 C   0  0  2  0  0  0  0  0  0  0  0  0
   18.6935   -8.5319  -15.1145 N   0  0  0  0  0  0  0  0  0  0  0  0
   18.3004   -6.1779  -14.9113 C   0  0  0  0  0  0  0  0  0  0  0  0
   18.0125   -6.1587  -16.1547 O   0  0  0  0  0  0  0  0  0  0  0  0
   17.8506   -5.1816  -14.0240 N   0  0  0  0  0  0  0  0  0  0  0  0
   16.9724   -4.1375  -14.4884 C   0  0  1  0  0  0  0  0  0  0  0  0
   15.5480   -4.3974  -14.1835 C   0  0  0  0  0  0  0  0  0  0  0  0
   14.5242   -3.3992  -14.4825 C   0  0  0  0  0  0  0  0  0  0  0  0
   13.1219   -3.6568  -14.2042 C   0  0  0  0  0  0  0  0  0  0  0  0
   12.6726   -4.7148  -13.7582 O   0  0  0  0  0  0  0  0  0  0  0  0
   17.4698   -2.8298  -14.0682 C   0  0  0  0  0  0  0  0  0  0  0  0
   17.1109   -1.7979  -14.6675 O   0  0  0  0  0  0  0  0  0  0  0  0
   12.1342   -2.6597  -14.4393 O   0  0  0  0  0  0  0  0  0  0  0  0
   18.3415   -2.7401  -13.0027 O   0  0  0  0  0  0  0  0  0  0  0  0
  2  1  1  0
  2  3  1  0
  3  4  1  6
  5  3  1  0
  5  6  1  1
  7  5  1  0
  7  8  2  0
  9 10  1  0
 10 12  1  0
 11 10  2  0
 12 13  1  0
 14 13  1  6
 14 15  1  0
 15  7  1  0
 16 14  1  0
 16 18  1  0
 17 16  2  0
 19 18  1  0
 19 24  1  0
 19 20  1  1
 21 20  1  0
 22 23  2  0
 22 21  1  0
 24 25  2  0
 24 27  1  0
 26 22  1  0
M  END
$$$$
