IQE.pdb
     RDKit          3D

 27 26  0  0  1  0  0  0  0  0999 V2000
   13.1878  -10.3998  -17.3028 C   0  0  0  0  0  0  0  0  0  0  0  0
   14.4881  -11.1302  -17.2673 C   0  0  0  0  0  0  0  0  0  0  0  0
   15.6147  -10.3285  -16.6958 C   0  0  2  0  0  0  0  0  0  0  0  0
   15.9143   -9.1804  -17.6132 C   0  0  0  0  0  0  0  0  0  0  0  0
   16.8476  -11.1428  -16.3917 C   0  0  2  0  0  0  0  0  0  0  0  0
   16.5011  -12.2290  -15.5059 N   0  0  0  0  0  0  0  0  0  0  0  0
   17.9558  -10.3801  -15.8197 C   0  0  0  0  0  0  0  0  0  0  0  0
   18.0072  -10.0194  -14.6070 O   0  0  0  0  0  0  0  0  0  0  0  0
   23.4289  -11.3494  -15.3554 N   0  0  0  0  0  0  0  0  0  0  0  0
   23.6514   -9.9562  -15.4519 C   0  0  0  0  0  0  0  0  0  0  0  0
   24.6690   -9.4708  -14.9053 O   0  0  0  0  0  0  0  0  0  0  0  0
   22.6942   -9.0918  -16.1876 C   0  0  0  0  0  0  0  0  0  0  0  0
   21.5084   -9.8730  -16.6680 C   0  0  0  0  0  0  0  0  0  0  0  0
   20.2030   -9.3119  -16.2195 C   0  0  2  0  0  0  0  0  0  0  0  0
   19.0436  -10.0163  -16.6620 N   0  0  0  0  0  0  0  0  0  0  0  0
   20.0950   -7.8667  -16.5568 C   0  0  0  0  0  0  0  0  0  0  0  0
   19.2901   -7.6034  -17.5118 O   0  0  0  0  0  0  0  0  0  0  0  0
   20.8153   -6.8595  -15.8867 N   0  0  0  0  0  0  0  0  0  0  0  0
   20.5616   -5.4704  -16.1749 C   0  0  1  0  0  0  0  0  0  0  0  0
   19.1236   -5.1232  -16.1433 C   0  0  0  0  0  0  0  0  0  0  0  0
   18.6880   -3.7307  -16.2134 C   0  0  0  0  0  0  0  0  0  0  0  0
   17.2885   -3.3740  -16.0566 C   0  0  0  0  0  0  0  0  0  0  0  0
   16.6998   -3.2796  -14.9774 O   0  0  0  0  0  0  0  0  0  0  0  0
   21.4256   -4.6164  -15.3637 C   0  0  0  0  0  0  0  0  0  0  0  0
   22.1534   -5.1133  -14.4828 O   0  0  0  0  0  0  0  0  0  0  0  0
   16.4722   -3.0991  -17.1893 O   0  0  0  0  0  0  0  0  0  0  0  0
   21.4331   -3.2532  -15.5760 O   0  0  0  0  0  0  0  0  0  0  0  0
  2  1  1  0
  2  3  1  0
  3  4  1  6
  5  3  1  0
  5  6  1  1
  7  5  1  0
  7  8  2  0
  9 10  1  0
 10 12  1  0
 11 10  2  0
 12 13  1  0
 14 13  1  6
 14 15  1  0
 15  7  1  0
 16 14  1  0
 16 18  1  0
 17 16  2  0
 19 18  1  0
 19 24  1  0
 19 20  1  1
 21 20  1  0
 22 23  2  0
 22 21  1  0
 24 25  2  0
 24 27  1  0
 26 22  1  0
M  END
$$$$
