IQE.pdb
     RDKit          3D

 27 26  0  0  1  0  0  0  0  0999 V2000
   18.1737  -11.3167  -15.7719 C   0  0  0  0  0  0  0  0  0  0  0  0
   18.5284  -10.5643  -14.5334 C   0  0  0  0  0  0  0  0  0  0  0  0
   17.3728   -9.8441  -13.9135 C   0  0  2  0  0  0  0  0  0  0  0  0
   16.6765   -9.0354  -14.9674 C   0  0  0  0  0  0  0  0  0  0  0  0
   17.7496   -9.0054  -12.7176 C   0  0  2  0  0  0  0  0  0  0  0  0
   18.2158   -9.8640  -11.6547 N   0  0  0  0  0  0  0  0  0  0  0  0
   16.6804   -8.1437  -12.2164 C   0  0  0  0  0  0  0  0  0  0  0  0
   16.1219   -7.2430  -12.9094 O   0  0  0  0  0  0  0  0  0  0  0  0
   12.7001   -9.7323   -7.5664 N   0  0  0  0  0  0  0  0  0  0  0  0
   12.4240   -8.3567   -7.7430 C   0  0  0  0  0  0  0  0  0  0  0  0
   11.4970   -7.8395   -7.0773 O   0  0  0  0  0  0  0  0  0  0  0  0
   13.2205   -7.5474   -8.6998 C   0  0  0  0  0  0  0  0  0  0  0  0
   14.3704   -8.3318   -9.2560 C   0  0  0  0  0  0  0  0  0  0  0  0
   15.1495   -7.5957  -10.2911 C   0  0  2  0  0  0  0  0  0  0  0  0
   16.2331   -8.3162  -10.8764 N   0  0  0  0  0  0  0  0  0  0  0  0
   15.6160   -6.2795   -9.7773 C   0  0  0  0  0  0  0  0  0  0  0  0
   16.6257   -6.3413   -8.9990 O   0  0  0  0  0  0  0  0  0  0  0  0
   15.0043   -5.0566  -10.1130 N   0  0  0  0  0  0  0  0  0  0  0  0
   15.5239   -3.8171   -9.5927 C   0  0  1  0  0  0  0  0  0  0  0  0
   15.9546   -2.8772  -10.6513 C   0  0  0  0  0  0  0  0  0  0  0  0
   17.0560   -3.2151  -11.5494 C   0  0  0  0  0  0  0  0  0  0  0  0
   17.5080   -2.2810  -12.5660 C   0  0  0  0  0  0  0  0  0  0  0  0
   17.0006   -1.1798  -12.7897 O   0  0  0  0  0  0  0  0  0  0  0  0
   14.6093   -3.2588   -8.5999 C   0  0  0  0  0  0  0  0  0  0  0  0
   14.9281   -2.2438   -7.9512 O   0  0  0  0  0  0  0  0  0  0  0  0
   18.6141   -2.5920  -13.4055 O   0  0  0  0  0  0  0  0  0  0  0  0
   13.3873   -3.8609   -8.3812 O   0  0  0  0  0  0  0  0  0  0  0  0
  2  1  1  0
  2  3  1  0
  3  4  1  6
  5  3  1  0
  5  6  1  1
  7  5  1  0
  7  8  2  0
  9 10  1  0
 10 12  1  0
 11 10  2  0
 12 13  1  0
 14 13  1  1
 14 15  1  0
 15  7  1  0
 16 14  1  0
 16 18  1  0
 17 16  2  0
 19 18  1  0
 19 24  1  0
 19 20  1  6
 21 20  1  0
 22 23  2  0
 22 21  1  0
 24 25  2  0
 24 27  1  0
 26 22  1  0
M  END
$$$$
