IQE.pdb
     RDKit          3D

 27 26  0  0  1  0  0  0  0  0999 V2000
   28.1655  -20.6770   -7.2709 C   0  0  0  0  0  0  0  0  0  0  0  0
   26.9654  -20.1173   -7.9578 C   0  0  0  0  0  0  0  0  0  0  0  0
   26.7299  -20.6875   -9.3208 C   0  0  2  0  0  0  0  0  0  0  0  0
   28.0279  -20.7145  -10.0720 C   0  0  0  0  0  0  0  0  0  0  0  0
   25.6453  -19.9819  -10.0963 C   0  0  2  0  0  0  0  0  0  0  0  0
   24.3963  -20.0841   -9.3793 N   0  0  0  0  0  0  0  0  0  0  0  0
   25.4639  -20.4622  -11.4650 C   0  0  0  0  0  0  0  0  0  0  0  0
   26.4022  -20.5394  -12.3118 O   0  0  0  0  0  0  0  0  0  0  0  0
   23.9165  -23.9915  -15.6806 N   0  0  0  0  0  0  0  0  0  0  0  0
   24.6370  -24.3351  -14.5133 C   0  0  0  0  0  0  0  0  0  0  0  0
   25.5604  -25.1773  -14.6032 O   0  0  0  0  0  0  0  0  0  0  0  0
   24.3007  -23.7067  -13.2107 C   0  0  0  0  0  0  0  0  0  0  0  0
   23.2768  -22.6240  -13.3730 C   0  0  0  0  0  0  0  0  0  0  0  0
   23.8312  -21.2500  -13.2155 C   0  0  2  0  0  0  0  0  0  0  0  0
   24.1652  -20.8683  -11.8818 N   0  0  0  0  0  0  0  0  0  0  0  0
   22.9392  -20.2359  -13.8399 C   0  0  0  0  0  0  0  0  0  0  0  0
   21.9826  -19.8393  -13.0938 O   0  0  0  0  0  0  0  0  0  0  0  0
   23.1220  -19.7437  -15.1463 N   0  0  0  0  0  0  0  0  0  0  0  0
   22.2833  -18.6846  -15.6480 C   0  0  1  0  0  0  0  0  0  0  0  0
   23.0046  -17.7393  -16.5287 C   0  0  0  0  0  0  0  0  0  0  0  0
   22.3205  -16.5868  -17.1096 C   0  0  0  0  0  0  0  0  0  0  0  0
   23.0215  -15.6596  -17.9811 C   0  0  0  0  0  0  0  0  0  0  0  0
   24.1425  -15.8484  -18.4584 O   0  0  0  0  0  0  0  0  0  0  0  0
   21.0484  -19.2330  -16.2031 C   0  0  0  0  0  0  0  0  0  0  0  0
   19.9737  -18.6146  -16.0790 O   0  0  0  0  0  0  0  0  0  0  0  0
   22.4323  -14.4195  -18.3553 O   0  0  0  0  0  0  0  0  0  0  0  0
   21.0752  -20.4420  -16.8672 O   0  0  0  0  0  0  0  0  0  0  0  0
  2  1  1  0
  2  3  1  0
  3  4  1  6
  5  3  1  0
  5  6  1  1
  7  5  1  0
  7  8  2  0
  9 10  1  0
 10 12  1  0
 11 10  2  0
 12 13  1  0
 14 13  1  1
 14 15  1  0
 15  7  1  0
 16 14  1  0
 16 18  1  0
 17 16  2  0
 19 18  1  0
 19 24  1  0
 19 20  1  6
 21 20  1  0
 22 23  2  0
 22 21  1  0
 24 25  2  0
 24 27  1  0
 26 22  1  0
M  END
$$$$
