IQE.pdb
     RDKit          3D

 27 26  0  0  1  0  0  0  0  0999 V2000
   16.2328  -18.0484  -12.9673 C   0  0  0  0  0  0  0  0  0  0  0  0
   15.8521  -16.7799  -13.6539 C   0  0  0  0  0  0  0  0  0  0  0  0
   17.0189  -15.9155  -14.0142 C   0  0  2  0  0  0  0  0  0  0  0  0
   17.8235  -15.6379  -12.7792 C   0  0  0  0  0  0  0  0  0  0  0  0
   16.6363  -14.6462  -14.7340 C   0  0  2  0  0  0  0  0  0  0  0  0
   15.9614  -14.9763  -15.9669 N   0  0  0  0  0  0  0  0  0  0  0  0
   17.7521  -13.7443  -15.0139 C   0  0  0  0  0  0  0  0  0  0  0  0
   18.4277  -13.1634  -14.1141 O   0  0  0  0  0  0  0  0  0  0  0  0
   21.3907  -13.6611  -20.1967 N   0  0  0  0  0  0  0  0  0  0  0  0
   21.7613  -12.4747  -19.5223 C   0  0  0  0  0  0  0  0  0  0  0  0
   22.7425  -11.8224  -19.9489 O   0  0  0  0  0  0  0  0  0  0  0  0
   20.9987  -12.0168  -18.3335 C   0  0  0  0  0  0  0  0  0  0  0  0
   19.8869  -12.9645  -17.9977 C   0  0  0  0  0  0  0  0  0  0  0  0
   19.1212  -12.5781  -16.7792 C   0  0  2  0  0  0  0  0  0  0  0  0
   18.1092  -13.4965  -16.3691 N   0  0  0  0  0  0  0  0  0  0  0  0
   18.5583  -11.2070  -16.9107 C   0  0  0  0  0  0  0  0  0  0  0  0
   17.4181  -11.1540  -17.4818 O   0  0  0  0  0  0  0  0  0  0  0  0
   19.2174  -10.0520  -16.4480 N   0  0  0  0  0  0  0  0  0  0  0  0
   18.5406   -8.7797  -16.4485 C   0  0  1  0  0  0  0  0  0  0  0  0
   17.2160   -8.8254  -15.7907 C   0  0  0  0  0  0  0  0  0  0  0  0
   16.4432   -7.6042  -15.5781 C   0  0  0  0  0  0  0  0  0  0  0  0
   15.2135   -7.6200  -14.8048 C   0  0  0  0  0  0  0  0  0  0  0  0
   14.4590   -6.6562  -14.6570 O   0  0  0  0  0  0  0  0  0  0  0  0
   19.4351   -7.7273  -15.9729 C   0  0  0  0  0  0  0  0  0  0  0  0
   20.5885   -8.0062  -15.5928 O   0  0  0  0  0  0  0  0  0  0  0  0
   14.7831   -8.8019  -14.1391 O   0  0  0  0  0  0  0  0  0  0  0  0
   18.9977   -6.4191  -15.9453 O   0  0  0  0  0  0  0  0  0  0  0  0
  2  1  1  0
  2  3  1  0
  3  4  1  1
  5  3  1  0
  5  6  1  6
  7  5  1  0
  7  8  2  0
  9 10  1  0
 10 12  1  0
 11 10  2  0
 12 13  1  0
 14 13  1  6
 14 15  1  0
 15  7  1  0
 16 14  1  0
 16 18  1  0
 17 16  2  0
 19 18  1  0
 19 24  1  0
 19 20  1  1
 21 20  1  0
 22 23  2  0
 22 21  1  0
 24 25  2  0
 24 27  1  0
 26 22  1  0
M  END
$$$$
