IQE.pdb
     RDKit          3D

 27 26  0  0  1  0  0  0  0  0999 V2000
   15.7408  -13.9062  -15.4096 C   0  0  0  0  0  0  0  0  0  0  0  0
   16.4226  -12.9782  -16.3580 C   0  0  0  0  0  0  0  0  0  0  0  0
   17.3025  -11.9705  -15.6882 C   0  0  2  0  0  0  0  0  0  0  0  0
   16.4862  -11.1809  -14.7084 C   0  0  0  0  0  0  0  0  0  0  0  0
   18.0464  -11.0776  -16.6499 C   0  0  2  0  0  0  0  0  0  0  0  0
   18.7641  -11.8895  -17.6040 N   0  0  0  0  0  0  0  0  0  0  0  0
   18.9686  -10.1358  -16.0180 C   0  0  0  0  0  0  0  0  0  0  0  0
   18.6483   -9.3795  -15.0542 O   0  0  0  0  0  0  0  0  0  0  0  0
   25.3223  -10.5261  -16.3216 N   0  0  0  0  0  0  0  0  0  0  0  0
   25.0935   -9.3510  -15.5690 C   0  0  0  0  0  0  0  0  0  0  0  0
   26.0704   -8.7872  -15.0232 O   0  0  0  0  0  0  0  0  0  0  0  0
   23.7208   -8.8019  -15.4323 C   0  0  0  0  0  0  0  0  0  0  0  0
   22.7128   -9.6680  -16.1257 C   0  0  0  0  0  0  0  0  0  0  0  0
   21.3080   -9.2008  -15.9569 C   0  0  2  0  0  0  0  0  0  0  0  0
   20.3038  -10.0542  -16.5039 N   0  0  0  0  0  0  0  0  0  0  0  0
   21.1403   -7.8102  -16.4591 C   0  0  0  0  0  0  0  0  0  0  0  0
   20.9269   -7.7215  -17.7144 O   0  0  0  0  0  0  0  0  0  0  0  0
   21.2087   -6.6743  -15.6301 N   0  0  0  0  0  0  0  0  0  0  0  0
   20.6007   -5.4349  -16.0438 C   0  0  1  0  0  0  0  0  0  0  0  0
   19.2163   -5.6030  -16.5384 C   0  0  0  0  0  0  0  0  0  0  0  0
   18.3898   -4.4421  -16.8591 C   0  0  0  0  0  0  0  0  0  0  0  0
   17.0153   -4.5996  -17.3023 C   0  0  0  0  0  0  0  0  0  0  0  0
   16.3904   -5.6624  -17.3032 O   0  0  0  0  0  0  0  0  0  0  0  0
   20.7733   -4.4144  -15.0129 C   0  0  0  0  0  0  0  0  0  0  0  0
   21.1102   -4.7377  -13.8577 O   0  0  0  0  0  0  0  0  0  0  0  0
   16.2703   -3.4874  -17.7851 O   0  0  0  0  0  0  0  0  0  0  0  0
   20.5609   -3.0869  -15.3229 O   0  0  0  0  0  0  0  0  0  0  0  0
  2  1  1  0
  2  3  1  0
  3  4  1  1
  5  3  1  0
  5  6  1  6
  7  5  1  0
  7  8  2  0
  9 10  1  0
 10 12  1  0
 11 10  2  0
 12 13  1  0
 14 13  1  6
 14 15  1  0
 15  7  1  0
 16 14  1  0
 16 18  1  0
 17 16  2  0
 19 18  1  0
 19 24  1  0
 19 20  1  1
 21 20  1  0
 22 23  2  0
 22 21  1  0
 24 25  2  0
 24 27  1  0
 26 22  1  0
M  END
$$$$
