IQE.pdb
     RDKit          3D

 27 26  0  0  1  0  0  0  0  0999 V2000
   24.1007  -12.3988  -21.8157 C   0  0  0  0  0  0  0  0  0  0  0  0
   23.9145  -11.6408  -20.5443 C   0  0  0  0  0  0  0  0  0  0  0  0
   22.4874  -11.3045  -20.2462 C   0  0  2  0  0  0  0  0  0  0  0  0
   21.9048  -10.5619  -21.4119 C   0  0  0  0  0  0  0  0  0  0  0  0
   22.2967  -10.5566  -18.9502 C   0  0  2  0  0  0  0  0  0  0  0  0
   22.9129  -11.2945  -17.8730 N   0  0  0  0  0  0  0  0  0  0  0  0
   20.9040  -10.2692  -18.6116 C   0  0  0  0  0  0  0  0  0  0  0  0
   20.0901   -9.7102  -19.4044 O   0  0  0  0  0  0  0  0  0  0  0  0
   17.0713  -13.6603  -15.0832 N   0  0  0  0  0  0  0  0  0  0  0  0
   16.3549  -12.4479  -15.2115 C   0  0  0  0  0  0  0  0  0  0  0  0
   15.1555  -12.4175  -14.8503 O   0  0  0  0  0  0  0  0  0  0  0  0
   17.0169  -11.2390  -15.7637 C   0  0  0  0  0  0  0  0  0  0  0  0
   18.4301  -11.5267  -16.1722 C   0  0  0  0  0  0  0  0  0  0  0  0
   19.0969  -10.3848  -16.8589 C   0  0  2  0  0  0  0  0  0  0  0  0
   20.4235  -10.6326  -17.3223 N   0  0  0  0  0  0  0  0  0  0  0  0
   19.0591   -9.1568  -16.0195 C   0  0  0  0  0  0  0  0  0  0  0  0
   20.0661   -9.0094  -15.2492 O   0  0  0  0  0  0  0  0  0  0  0  0
   18.0054   -8.2238  -16.0598 N   0  0  0  0  0  0  0  0  0  0  0  0
   17.9977   -7.0969  -15.1614 C   0  0  1  0  0  0  0  0  0  0  0  0
   17.3892   -5.8853  -15.7538 C   0  0  0  0  0  0  0  0  0  0  0  0
   18.0300   -5.1951  -16.8704 C   0  0  0  0  0  0  0  0  0  0  0  0
   17.3938   -4.0588  -17.5141 C   0  0  0  0  0  0  0  0  0  0  0  0
   17.3465   -2.9181  -17.0488 O   0  0  0  0  0  0  0  0  0  0  0  0
   17.4638   -7.4880  -13.8591 C   0  0  0  0  0  0  0  0  0  0  0  0
   17.0750   -8.6555  -13.6634 O   0  0  0  0  0  0  0  0  0  0  0  0
   16.7564   -4.1969  -18.7789 O   0  0  0  0  0  0  0  0  0  0  0  0
   17.3905   -6.5576  -12.8431 O   0  0  0  0  0  0  0  0  0  0  0  0
  2  1  1  0
  2  3  1  0
  3  4  1  6
  5  3  1  0
  5  6  1  1
  7  5  1  0
  7  8  2  0
  9 10  1  0
 10 12  1  0
 11 10  2  0
 12 13  1  0
 14 13  1  1
 14 15  1  0
 15  7  1  0
 16 14  1  0
 16 18  1  0
 17 16  2  0
 19 18  1  0
 19 24  1  0
 19 20  1  6
 21 20  1  0
 22 23  2  0
 22 21  1  0
 24 25  2  0
 24 27  1  0
 26 22  1  0
M  END
$$$$
