IQE.pdb
     RDKit          3D

 27 26  0  0  1  0  0  0  0  0999 V2000
   24.5651  -14.0633  -14.0472 C   0  0  0  0  0  0  0  0  0  0  0  0
   25.2807  -13.1657  -15.0000 C   0  0  0  0  0  0  0  0  0  0  0  0
   24.8202  -11.7431  -14.9499 C   0  0  2  0  0  0  0  0  0  0  0  0
   23.3383  -11.6990  -15.1773 C   0  0  0  0  0  0  0  0  0  0  0  0
   25.5620  -10.8301  -15.8941 C   0  0  2  0  0  0  0  0  0  0  0  0
   26.9734  -10.8689  -15.5924 N   0  0  0  0  0  0  0  0  0  0  0  0
   25.0995   -9.4434  -15.8903 C   0  0  0  0  0  0  0  0  0  0  0  0
   25.4992   -8.5725  -15.0624 O   0  0  0  0  0  0  0  0  0  0  0  0
   24.9889   -5.3035  -20.1473 N   0  0  0  0  0  0  0  0  0  0  0  0
   23.9477   -4.7792  -19.3469 C   0  0  0  0  0  0  0  0  0  0  0  0
   23.5290   -3.6229  -19.5873 O   0  0  0  0  0  0  0  0  0  0  0  0
   23.3669   -5.5879  -18.2455 C   0  0  0  0  0  0  0  0  0  0  0  0
   24.0024   -6.9433  -18.1672 C   0  0  0  0  0  0  0  0  0  0  0  0
   23.6036   -7.7204  -16.9601 C   0  0  2  0  0  0  0  0  0  0  0  0
   24.1466   -9.0365  -16.8660 N   0  0  0  0  0  0  0  0  0  0  0  0
   22.1238   -7.7553  -16.8083 C   0  0  0  0  0  0  0  0  0  0  0  0
   21.5508   -8.7216  -17.4142 O   0  0  0  0  0  0  0  0  0  0  0  0
   21.3998   -6.8070  -16.0606 N   0  0  0  0  0  0  0  0  0  0  0  0
   19.9762   -6.9506  -15.8882 C   0  0  1  0  0  0  0  0  0  0  0  0
   19.6083   -8.0823  -15.0088 C   0  0  0  0  0  0  0  0  0  0  0  0
   18.2098   -8.3583  -14.6895 C   0  0  0  0  0  0  0  0  0  0  0  0
   17.8498   -9.3654  -13.7065 C   0  0  0  0  0  0  0  0  0  0  0  0
   18.6180   -9.8401  -12.8670 O   0  0  0  0  0  0  0  0  0  0  0  0
   19.3743   -5.6673  -15.5351 C   0  0  0  0  0  0  0  0  0  0  0  0
   18.1372   -5.5601  -15.4309 O   0  0  0  0  0  0  0  0  0  0  0  0
   16.5289   -9.8914  -13.6479 O   0  0  0  0  0  0  0  0  0  0  0  0
   20.1821   -4.5703  -15.3171 O   0  0  0  0  0  0  0  0  0  0  0  0
  2  1  1  0
  2  3  1  0
  3  4  1  6
  5  3  1  0
  5  6  1  1
  7  5  1  0
  7  8  2  0
  9 10  1  0
 10 12  1  0
 11 10  2  0
 12 13  1  0
 14 13  1  6
 14 15  1  0
 15  7  1  0
 16 14  1  0
 16 18  1  0
 17 16  2  0
 19 18  1  0
 19 24  1  0
 19 20  1  1
 21 20  1  0
 22 23  2  0
 22 21  1  0
 24 25  2  0
 24 27  1  0
 26 22  1  0
M  END
$$$$
