IQE.pdb
     RDKit          3D

 27 26  0  0  1  0  0  0  0  0999 V2000
   16.5818  -11.2493  -18.4247 C   0  0  0  0  0  0  0  0  0  0  0  0
   17.9293  -11.8637  -18.2444 C   0  0  0  0  0  0  0  0  0  0  0  0
   18.8100  -11.1174  -17.2927 C   0  0  2  0  0  0  0  0  0  0  0  0
   19.0568   -9.7393  -17.8309 C   0  0  0  0  0  0  0  0  0  0  0  0
   20.0971  -11.8331  -16.9662 C   0  0  2  0  0  0  0  0  0  0  0  0
   19.8021  -13.1706  -16.5095 N   0  0  0  0  0  0  0  0  0  0  0  0
   20.9387  -11.1551  -15.9819 C   0  0  0  0  0  0  0  0  0  0  0  0
   20.6690  -11.1017  -14.7458 O   0  0  0  0  0  0  0  0  0  0  0  0
   27.0420  -10.5354  -16.3323 N   0  0  0  0  0  0  0  0  0  0  0  0
   26.2986  -11.5158  -15.6353 C   0  0  0  0  0  0  0  0  0  0  0  0
   26.8706  -12.5797  -15.3024 O   0  0  0  0  0  0  0  0  0  0  0  0
   24.8693  -11.2825  -15.3077 C   0  0  0  0  0  0  0  0  0  0  0  0
   24.4248   -9.9168  -15.7368 C   0  0  0  0  0  0  0  0  0  0  0  0
   22.9577   -9.6962  -15.5992 C   0  0  2  0  0  0  0  0  0  0  0  0
   22.1303  -10.5151  -16.4245 N   0  0  0  0  0  0  0  0  0  0  0  0
   22.6113   -8.2600  -15.7762 C   0  0  0  0  0  0  0  0  0  0  0  0
   22.2871   -7.9352  -16.9672 O   0  0  0  0  0  0  0  0  0  0  0  0
   22.6346   -7.3230  -14.7256 N   0  0  0  0  0  0  0  0  0  0  0  0
   22.1216   -5.9915  -14.9277 C   0  0  1  0  0  0  0  0  0  0  0  0
   20.7536   -5.9748  -15.4912 C   0  0  0  0  0  0  0  0  0  0  0  0
   19.9927   -4.7305  -15.5728 C   0  0  0  0  0  0  0  0  0  0  0  0
   18.6349   -4.7143  -16.0890 C   0  0  0  0  0  0  0  0  0  0  0  0
   17.7208   -4.0120  -15.6517 O   0  0  0  0  0  0  0  0  0  0  0  0
   22.3081   -5.1860  -13.7234 C   0  0  0  0  0  0  0  0  0  0  0  0
   22.1650   -3.9489  -13.7656 O   0  0  0  0  0  0  0  0  0  0  0  0
   18.2573   -5.5454  -17.1808 O   0  0  0  0  0  0  0  0  0  0  0  0
   22.6447   -5.8009  -12.5351 O   0  0  0  0  0  0  0  0  0  0  0  0
  2  1  1  0
  2  3  1  0
  3  4  1  6
  5  3  1  0
  5  6  1  1
  7  5  1  0
  7  8  2  0
  9 10  1  0
 10 12  1  0
 11 10  2  0
 12 13  1  0
 14 13  1  6
 14 15  1  0
 15  7  1  0
 16 14  1  0
 16 18  1  0
 17 16  2  0
 19 18  1  0
 19 24  1  0
 19 20  1  1
 21 20  1  0
 22 23  2  0
 22 21  1  0
 24 25  2  0
 24 27  1  0
 26 22  1  0
M  END
$$$$
