IQE.pdb
     RDKit          3D

 27 26  0  0  1  0  0  0  0  0999 V2000
   29.5413  -18.0637  -18.4473 C   0  0  0  0  0  0  0  0  0  0  0  0
   28.3822  -17.5835  -17.6401 C   0  0  0  0  0  0  0  0  0  0  0  0
   27.7557  -18.6458  -16.7931 C   0  0  2  0  0  0  0  0  0  0  0  0
   27.3918  -19.8138  -17.6609 C   0  0  0  0  0  0  0  0  0  0  0  0
   26.5813  -18.1613  -15.9798 C   0  0  2  0  0  0  0  0  0  0  0  0
   27.0155  -17.1186  -15.0805 N   0  0  0  0  0  0  0  0  0  0  0  0
   25.8928  -19.2048  -15.2220 C   0  0  0  0  0  0  0  0  0  0  0  0
   25.3059  -20.1902  -15.7586 O   0  0  0  0  0  0  0  0  0  0  0  0
   26.2476  -20.0198   -8.8500 N   0  0  0  0  0  0  0  0  0  0  0  0
   25.2620  -20.9476   -9.2593 C   0  0  0  0  0  0  0  0  0  0  0  0
   24.7677  -21.7165   -8.4024 O   0  0  0  0  0  0  0  0  0  0  0  0
   24.8263  -21.0040  -10.6777 C   0  0  0  0  0  0  0  0  0  0  0  0
   25.5749  -20.0158  -11.5203 C   0  0  0  0  0  0  0  0  0  0  0  0
   25.1614  -20.0183  -12.9518 C   0  0  2  0  0  0  0  0  0  0  0  0
   25.8735  -19.1200  -13.8016 N   0  0  0  0  0  0  0  0  0  0  0  0
   23.6942  -19.8114  -13.0876 C   0  0  0  0  0  0  0  0  0  0  0  0
   23.3051  -18.6145  -12.8749 O   0  0  0  0  0  0  0  0  0  0  0  0
   22.7950  -20.8417  -13.4228 N   0  0  0  0  0  0  0  0  0  0  0  0
   21.3877  -20.5623  -13.5591 C   0  0  1  0  0  0  0  0  0  0  0  0
   20.9911  -20.2378  -14.9472 C   0  0  0  0  0  0  0  0  0  0  0  0
   20.1566  -19.0739  -15.2347 C   0  0  0  0  0  0  0  0  0  0  0  0
   19.8853  -18.6651  -16.6020 C   0  0  0  0  0  0  0  0  0  0  0  0
   20.2739  -19.2618  -17.6084 O   0  0  0  0  0  0  0  0  0  0  0  0
   20.5966  -21.6075  -12.9144 C   0  0  0  0  0  0  0  0  0  0  0  0
   19.4887  -21.3382  -12.4118 O   0  0  0  0  0  0  0  0  0  0  0  0
   19.1197  -17.4978  -16.8784 O   0  0  0  0  0  0  0  0  0  0  0  0
   21.0815  -22.8981  -12.8630 O   0  0  0  0  0  0  0  0  0  0  0  0
  2  1  1  0
  2  3  1  0
  3  4  1  6
  5  3  1  0
  5  6  1  1
  7  5  1  0
  7  8  2  0
  9 10  1  0
 10 12  1  0
 11 10  2  0
 12 13  1  0
 14 13  1  1
 14 15  1  0
 15  7  1  0
 16 14  1  0
 16 18  1  0
 17 16  2  0
 19 18  1  0
 19 24  1  0
 19 20  1  6
 21 20  1  0
 22 23  2  0
 22 21  1  0
 24 25  2  0
 24 27  1  0
 26 22  1  0
M  END
$$$$
