DRV.pdb
     RDKit          3D

 27 26  0  0  1  0  0  0  0  0999 V2000
   20.5567  -17.3918  -16.5876 N   0  0  0  0  0  0  0  0  0  0  0  0
   21.0886  -18.7277  -16.7623 C   0  0  1  0  0  0  0  0  0  0  0  0
   21.0119  -19.0738  -18.2178 C   0  0  0  0  0  0  0  0  0  0  0  0
   19.5877  -19.1951  -18.6044 C   0  0  0  0  0  0  0  0  0  0  0  0
   19.1705  -18.6223  -19.6315 O   0  0  0  0  0  0  0  0  0  0  0  0
   22.4322  -18.7968  -16.1988 C   0  0  0  0  0  0  0  0  0  0  0  0
   23.2912  -17.9562  -16.5606 O   0  0  0  0  0  0  0  0  0  0  0  0
   18.6810  -19.9337  -17.8568 O   0  0  0  0  0  0  0  0  0  0  0  0
   25.4233  -20.6802   -8.4494 N   0  0  0  0  0  0  0  0  0  0  0  0
   24.2620  -20.8172   -9.2372 C   0  0  0  0  0  0  0  0  0  0  0  0
   23.1082  -20.9079   -8.6477 N   0  0  0  0  0  0  0  0  0  0  0  0
   24.2740  -20.8628  -10.6542 N   0  0  0  0  0  0  0  0  0  0  0  0
   25.4915  -21.2248  -11.3759 C   0  0  0  0  0  0  0  0  0  0  0  0
   25.5406  -20.5511  -12.7252 C   0  0  0  0  0  0  0  0  0  0  0  0
   24.1738  -20.4004  -13.3169 C   0  0  0  0  0  0  0  0  0  0  0  0
   24.1937  -19.7763  -14.6857 C   0  0  2  0  0  0  0  0  0  0  0  0
   22.8581  -19.7649  -15.2482 N   0  0  0  0  0  0  0  0  0  0  0  0
   25.1577  -20.4627  -15.5834 C   0  0  0  0  0  0  0  0  0  0  0  0
   24.8888  -21.5959  -16.1067 O   0  0  0  0  0  0  0  0  0  0  0  0
   22.2121  -20.9945   -9.1695 C   0  0  0  0  0  0  0  0  0  0  0  0
   27.4644  -18.4253  -18.0288 C   0  0  1  0  0  0  0  0  0  0  0  0
   28.3099  -19.4386  -17.3300 C   0  0  0  0  0  0  0  0  0  0  0  0
   29.4102  -20.0019  -18.1571 C   0  0  2  0  0  0  0  0  0  0  0  0
   27.3731  -20.5151  -16.7830 N   0  0  0  0  0  0  0  0  0  0  0  0
   26.4154  -19.9138  -15.9111 C   0  0  0  0  0  0  0  0  0  0  0  0
   28.0902  -21.6493  -16.2051 O   0  0  0  0  0  0  0  0  0  0  0  0
   28.3052  -21.6910  -14.9687 O   0  0  0  0  0  0  0  0  0  0  0  0
  2  1  1  6
  2  3  1  0
  4  3  1  0
  4  5  2  0
  6  2  1  0
  7  6  2  0
  8  4  1  0
  9 10  1  0
 10 11  2  0
 10 12  1  0
 12 13  1  0
 13 14  1  0
 16 15  1  1
 15 14  1  0
 16 17  1  0
 17  6  1  0
 18 19  2  0
 18 16  1  0
 21 20  1  1
 21 23  1  0
 22 21  1  0
 23 24  1  6
 24 18  1  0
 25 23  1  0
 26 25  2  0
 27 25  1  0
M  END
$$$$
