DRV.pdb
     RDKit          3D

 27 26  0  0  1  0  0  0  0  0999 V2000
   26.9929  -20.7510  -18.6195 N   0  0  0  0  0  0  0  0  0  0  0  0
   26.2143  -19.7853  -17.8718 C   0  0  1  0  0  0  0  0  0  0  0  0
   25.2599  -19.1226  -18.8174 C   0  0  0  0  0  0  0  0  0  0  0  0
   26.0004  -18.1202  -19.6171 C   0  0  0  0  0  0  0  0  0  0  0  0
   27.0962  -17.6846  -19.2091 O   0  0  0  0  0  0  0  0  0  0  0  0
   25.5756  -20.4443  -16.7381 C   0  0  0  0  0  0  0  0  0  0  0  0
   24.5349  -21.1192  -16.9298 O   0  0  0  0  0  0  0  0  0  0  0  0
   25.5160  -17.6363  -20.8245 O   0  0  0  0  0  0  0  0  0  0  0  0
   24.1343  -19.6395   -9.5768 N   0  0  0  0  0  0  0  0  0  0  0  0
   24.4992  -20.8468   -8.9465 C   0  0  0  0  0  0  0  0  0  0  0  0
   23.8410  -21.2321   -7.8950 N   0  0  0  0  0  0  0  0  0  0  0  0
   25.5553  -21.6799   -9.3944 N   0  0  0  0  0  0  0  0  0  0  0  0
   26.3108  -21.3399  -10.5977 C   0  0  0  0  0  0  0  0  0  0  0  0
   25.4140  -21.3187  -11.8110 C   0  0  0  0  0  0  0  0  0  0  0  0
   26.1743  -20.9722  -13.0533 C   0  0  0  0  0  0  0  0  0  0  0  0
   25.3012  -20.9140  -14.2771 C   0  0  2  0  0  0  0  0  0  0  0  0
   26.0493  -20.3821  -15.3987 N   0  0  0  0  0  0  0  0  0  0  0  0
   24.0637  -20.1315  -14.0268 C   0  0  0  0  0  0  0  0  0  0  0  0
   24.1120  -18.9110  -13.6548 O   0  0  0  0  0  0  0  0  0  0  0  0
   23.9840  -22.1605   -7.4475 C   0  0  0  0  0  0  0  0  0  0  0  0
   20.2874  -21.1074  -15.5979 C   0  0  1  0  0  0  0  0  0  0  0  0
   20.7201  -19.7768  -15.0762 C   0  0  0  0  0  0  0  0  0  0  0  0
   21.4225  -18.9219  -16.0701 C   0  0  1  0  0  0  0  0  0  0  0  0
   21.5544  -20.0284  -13.8208 N   0  0  0  0  0  0  0  0  0  0  0  0
   22.7729  -20.6793  -14.1820 C   0  0  0  0  0  0  0  0  0  0  0  0
   20.7997  -20.6988  -12.7645 O   0  0  0  0  0  0  0  0  0  0  0  0
   21.0195  -21.9081  -12.5078 O   0  0  0  0  0  0  0  0  0  0  0  0
  2  1  1  6
  2  3  1  0
  4  3  1  0
  4  5  2  0
  6  2  1  0
  7  6  2  0
  8  4  1  0
  9 10  1  0
 10 11  2  0
 10 12  1  0
 12 13  1  0
 13 14  1  0
 16 15  1  1
 15 14  1  0
 16 17  1  0
 17  6  1  0
 18 19  2  0
 18 16  1  0
 21 20  1  6
 21 23  1  0
 22 21  1  0
 23 24  1  6
 24 18  1  0
 25 23  1  0
 26 25  2  0
 27 25  1  0
M  END
$$$$
