DRV.pdb
     RDKit          3D

 27 26  0  0  1  0  0  0  0  0999 V2000
   26.1328  -24.1394  -16.8121 N   0  0  0  0  0  0  0  0  0  0  0  0
   26.1844  -24.8630  -18.0658 C   0  0  1  0  0  0  0  0  0  0  0  0
   26.4014  -23.8718  -19.1680 C   0  0  0  0  0  0  0  0  0  0  0  0
   25.0906  -23.3146  -19.5726 C   0  0  0  0  0  0  0  0  0  0  0  0
   24.0714  -23.5686  -18.8989 O   0  0  0  0  0  0  0  0  0  0  0  0
   27.2013  -25.9057  -17.9874 C   0  0  0  0  0  0  0  0  0  0  0  0
   28.3077  -25.6423  -17.4565 O   0  0  0  0  0  0  0  0  0  0  0  0
   24.9467  -22.5062  -20.6917 O   0  0  0  0  0  0  0  0  0  0  0  0
   28.6929  -32.8356  -14.7517 N   0  0  0  0  0  0  0  0  0  0  0  0
   29.2829  -33.3061  -15.9427 C   0  0  0  0  0  0  0  0  0  0  0  0
   30.3472  -34.0470  -15.8681 N   0  0  0  0  0  0  0  0  0  0  0  0
   28.7805  -33.0173  -17.2366 N   0  0  0  0  0  0  0  0  0  0  0  0
   27.7835  -31.9671  -17.4294 C   0  0  0  0  0  0  0  0  0  0  0  0
   28.4435  -30.6438  -17.7298 C   0  0  0  0  0  0  0  0  0  0  0  0
   27.4336  -29.5616  -17.9540 C   0  0  0  0  0  0  0  0  0  0  0  0
   28.0581  -28.2492  -18.3425 C   0  0  2  0  0  0  0  0  0  0  0  0
   27.0358  -27.2306  -18.4766 N   0  0  0  0  0  0  0  0  0  0  0  0
   28.8670  -28.3764  -19.5817 C   0  0  0  0  0  0  0  0  0  0  0  0
   28.3156  -28.4771  -20.7289 O   0  0  0  0  0  0  0  0  0  0  0  0
   30.8126  -34.4534  -16.7053 C   0  0  0  0  0  0  0  0  0  0  0  0
   32.8817  -27.3777  -21.9828 C   0  0  1  0  0  0  0  0  0  0  0  0
   32.1909  -27.4020  -20.6590 C   0  0  0  0  0  0  0  0  0  0  0  0
   33.0968  -27.5750  -19.4922 C   0  0  2  0  0  0  0  0  0  0  0  0
   31.1081  -28.4782  -20.7293 N   0  0  0  0  0  0  0  0  0  0  0  0
   30.2777  -28.3938  -19.5707 C   0  0  0  0  0  0  0  0  0  0  0  0
   31.6495  -29.8098  -20.9908 O   0  0  0  0  0  0  0  0  0  0  0  0
   31.8268  -30.6121  -20.0412 O   0  0  0  0  0  0  0  0  0  0  0  0
  2  1  1  1
  2  3  1  0
  4  3  1  0
  4  5  2  0
  6  2  1  0
  7  6  2  0
  8  4  1  0
  9 10  1  0
 10 11  2  0
 10 12  1  0
 12 13  1  0
 13 14  1  0
 16 15  1  6
 15 14  1  0
 16 17  1  0
 17  6  1  0
 18 19  2  0
 18 16  1  0
 21 20  1  1
 21 23  1  0
 22 21  1  0
 23 24  1  6
 24 18  1  0
 25 23  1  0
 26 25  2  0
 27 25  1  0
M  END
$$$$
