DRV.pdb
     RDKit          3D

 27 26  0  0  1  0  0  0  0  0999 V2000
   25.4900  -20.9330  -17.0382 N   0  0  0  0  0  0  0  0  0  0  0  0
   26.3054  -21.0591  -15.8477 C   0  0  1  0  0  0  0  0  0  0  0  0
   27.6122  -20.3724  -16.1022 C   0  0  0  0  0  0  0  0  0  0  0  0
   28.4654  -21.2611  -16.9236 C   0  0  0  0  0  0  0  0  0  0  0  0
   28.0292  -22.3673  -17.3021 O   0  0  0  0  0  0  0  0  0  0  0  0
   25.5721  -20.5461  -14.6959 C   0  0  0  0  0  0  0  0  0  0  0  0
   25.1265  -19.3731  -14.7274 O   0  0  0  0  0  0  0  0  0  0  0  0
   29.7547  -20.9073  -17.2967 O   0  0  0  0  0  0  0  0  0  0  0  0
   21.1177  -21.7058  -16.2211 N   0  0  0  0  0  0  0  0  0  0  0  0
   20.7048  -22.2575  -14.9909 C   0  0  0  0  0  0  0  0  0  0  0  0
   20.3272  -23.4998  -14.9531 N   0  0  0  0  0  0  0  0  0  0  0  0
   20.6753  -21.5311  -13.7738 N   0  0  0  0  0  0  0  0  0  0  0  0
   21.0994  -20.1338  -13.7317 C   0  0  0  0  0  0  0  0  0  0  0  0
   22.6019  -20.0274  -13.6415 C   0  0  0  0  0  0  0  0  0  0  0  0
   23.1474  -20.8548  -12.5194 C   0  0  0  0  0  0  0  0  0  0  0  0
   24.6373  -20.7181  -12.3616 C   0  0  2  0  0  0  0  0  0  0  0  0
   25.3148  -21.2869  -13.5096 N   0  0  0  0  0  0  0  0  0  0  0  0
   25.1091  -21.3284  -11.0923 C   0  0  0  0  0  0  0  0  0  0  0  0
   25.1045  -22.5936  -10.9204 O   0  0  0  0  0  0  0  0  0  0  0  0
   19.9687  -23.9554  -14.0890 C   0  0  0  0  0  0  0  0  0  0  0  0
   26.1276  -18.7929   -7.7514 C   0  0  1  0  0  0  0  0  0  0  0  0
   26.6939  -20.1666   -7.9011 C   0  0  0  0  0  0  0  0  0  0  0  0
   28.0418  -20.2146   -8.5280 C   0  0  1  0  0  0  0  0  0  0  0  0
   25.6628  -21.0053   -8.6553 N   0  0  0  0  0  0  0  0  0  0  0  0
   25.5860  -20.5596  -10.0098 C   0  0  0  0  0  0  0  0  0  0  0  0
   24.3761  -21.0743   -7.9666 O   0  0  0  0  0  0  0  0  0  0  0  0
   23.3873  -20.4477   -8.4210 O   0  0  0  0  0  0  0  0  0  0  0  0
  2  1  1  6
  2  3  1  0
  4  3  1  0
  4  5  2  0
  6  2  1  0
  7  6  2  0
  8  4  1  0
  9 10  1  0
 10 11  2  0
 10 12  1  0
 12 13  1  0
 13 14  1  0
 16 15  1  6
 15 14  1  0
 16 17  1  0
 17  6  1  0
 18 19  2  0
 18 16  1  0
 21 20  1  1
 21 23  1  0
 22 21  1  0
 23 24  1  6
 24 18  1  0
 25 23  1  0
 26 25  2  0
 27 25  1  0
M  END
$$$$
