DRV.pdb
     RDKit          3D

 27 26  0  0  1  0  0  0  0  0999 V2000
   27.9369  -22.7355  -17.2044 N   0  0  0  0  0  0  0  0  0  0  0  0
   27.6212  -21.4945  -16.5274 C   0  0  1  0  0  0  0  0  0  0  0  0
   27.2425  -20.4810  -17.5635 C   0  0  0  0  0  0  0  0  0  0  0  0
   28.4581  -20.0875  -18.3119 C   0  0  0  0  0  0  0  0  0  0  0  0
   29.5521  -19.9964  -17.7187 O   0  0  0  0  0  0  0  0  0  0  0  0
   26.5948  -21.7346  -15.5193 C   0  0  0  0  0  0  0  0  0  0  0  0
   25.6989  -22.5832  -15.7485 O   0  0  0  0  0  0  0  0  0  0  0  0
   28.4296  -19.8108  -19.6717 O   0  0  0  0  0  0  0  0  0  0  0  0
   22.1927  -20.2689   -9.0891 N   0  0  0  0  0  0  0  0  0  0  0  0
   23.1000  -20.9336   -8.2388 C   0  0  0  0  0  0  0  0  0  0  0  0
   22.6737  -21.3987   -7.1034 N   0  0  0  0  0  0  0  0  0  0  0  0
   24.4694  -21.1297   -8.5493 N   0  0  0  0  0  0  0  0  0  0  0  0
   25.1045  -20.3684   -9.6223 C   0  0  0  0  0  0  0  0  0  0  0  0
   24.6989  -20.8996  -10.9752 C   0  0  0  0  0  0  0  0  0  0  0  0
   25.8188  -20.8040  -11.9641 C   0  0  0  0  0  0  0  0  0  0  0  0
   25.4163  -21.2354  -13.3481 C   0  0  2  0  0  0  0  0  0  0  0  0
   26.5258  -21.0675  -14.2653 N   0  0  0  0  0  0  0  0  0  0  0  0
   24.2078  -20.5093  -13.8153 C   0  0  0  0  0  0  0  0  0  0  0  0
   24.1939  -19.2365  -13.9166 O   0  0  0  0  0  0  0  0  0  0  0  0
   21.6765  -21.3484   -6.8107 C   0  0  0  0  0  0  0  0  0  0  0  0
   21.2519  -22.3738  -16.0922 C   0  0  1  0  0  0  0  0  0  0  0  0
   21.5353  -20.9079  -16.0628 C   0  0  0  0  0  0  0  0  0  0  0  0
   22.6117  -20.4677  -16.9900 C   0  0  1  0  0  0  0  0  0  0  0  0
   21.8165  -20.5267  -14.6098 N   0  0  0  0  0  0  0  0  0  0  0  0
   23.0137  -21.1704  -14.1724 C   0  0  0  0  0  0  0  0  0  0  0  0
   20.6635  -20.7344  -13.7368 O   0  0  0  0  0  0  0  0  0  0  0  0
   19.6686  -19.9728  -13.8203 O   0  0  0  0  0  0  0  0  0  0  0  0
  2  1  1  6
  2  3  1  0
  4  3  1  0
  4  5  2  0
  6  2  1  0
  7  6  2  0
  8  4  1  0
  9 10  1  0
 10 11  2  0
 10 12  1  0
 12 13  1  0
 13 14  1  0
 16 15  1  1
 15 14  1  0
 16 17  1  0
 17  6  1  0
 18 19  2  0
 18 16  1  0
 21 20  1  6
 21 23  1  0
 22 21  1  0
 23 24  1  6
 24 18  1  0
 25 23  1  0
 26 25  2  0
 27 25  1  0
M  END
$$$$
