DRV.pdb
     RDKit          3D

 27 26  0  0  1  0  0  0  0  0999 V2000
   20.8859  -22.0026  -14.4874 N   0  0  0  0  0  0  0  0  0  0  0  0
   21.6054  -20.8785  -13.9244 C   0  0  1  0  0  0  0  0  0  0  0  0
   20.9545  -20.5107  -12.6262 C   0  0  0  0  0  0  0  0  0  0  0  0
   19.5887  -20.0103  -12.9030 C   0  0  0  0  0  0  0  0  0  0  0  0
   19.4248  -19.0394  -13.6695 O   0  0  0  0  0  0  0  0  0  0  0  0
   23.0214  -21.2102  -13.8132 C   0  0  0  0  0  0  0  0  0  0  0  0
   23.3715  -22.4152  -13.8420 O   0  0  0  0  0  0  0  0  0  0  0  0
   18.4622  -20.5879  -12.3338 O   0  0  0  0  0  0  0  0  0  0  0  0
   29.3491  -19.7443  -18.6604 N   0  0  0  0  0  0  0  0  0  0  0  0
   27.9821  -19.7107  -18.3165 C   0  0  0  0  0  0  0  0  0  0  0  0
   27.1202  -19.3070  -19.2004 N   0  0  0  0  0  0  0  0  0  0  0  0
   27.4808  -20.0957  -17.0474 N   0  0  0  0  0  0  0  0  0  0  0  0
   28.3935  -20.4755  -15.9718 C   0  0  0  0  0  0  0  0  0  0  0  0
   27.6329  -20.8371  -14.7198 C   0  0  0  0  0  0  0  0  0  0  0  0
   26.2169  -20.3541  -14.7754 C   0  0  0  0  0  0  0  0  0  0  0  0
   25.4545  -20.6282  -13.5077 C   0  0  2  0  0  0  0  0  0  0  0  0
   24.0640  -20.2537  -13.6711 N   0  0  0  0  0  0  0  0  0  0  0  0
   26.0705  -19.9434  -12.3425 C   0  0  0  0  0  0  0  0  0  0  0  0
   25.8551  -18.7070  -12.1071 O   0  0  0  0  0  0  0  0  0  0  0  0
   26.1001  -19.2404  -19.0058 C   0  0  0  0  0  0  0  0  0  0  0  0
   26.2674  -19.0620   -8.1534 C   0  0  2  0  0  0  0  0  0  0  0  0
   25.9103  -19.8302   -9.3831 C   0  0  0  0  0  0  0  0  0  0  0  0
   25.0670  -21.0308   -9.1389 C   0  0  2  0  0  0  0  0  0  0  0  0
   27.2140  -20.1629  -10.1077 N   0  0  0  0  0  0  0  0  0  0  0  0
   26.9217  -20.6062  -11.4333 C   0  0  0  0  0  0  0  0  0  0  0  0
   28.0724  -21.0647   -9.3431 O   0  0  0  0  0  0  0  0  0  0  0  0
   28.1409  -22.2793   -9.6543 O   0  0  0  0  0  0  0  0  0  0  0  0
  2  1  1  1
  2  3  1  0
  4  3  1  0
  4  5  2  0
  6  2  1  0
  7  6  2  0
  8  4  1  0
  9 10  1  0
 10 11  2  0
 10 12  1  0
 12 13  1  0
 13 14  1  0
 16 15  1  6
 15 14  1  0
 16 17  1  0
 17  6  1  0
 18 19  2  0
 18 16  1  0
 21 20  1  6
 21 23  1  0
 22 21  1  0
 23 24  1  1
 24 18  1  0
 25 23  1  0
 26 25  2  0
 27 25  1  0
M  END
$$$$
