DRV.pdb
     RDKit          3D

 27 26  0  0  1  0  0  0  0  0999 V2000
   25.6108  -20.7096  -16.5947 N   0  0  0  0  0  0  0  0  0  0  0  0
   25.6536  -22.0742  -16.1108 C   0  0  1  0  0  0  0  0  0  0  0  0
   26.9697  -22.2859  -15.4272 C   0  0  0  0  0  0  0  0  0  0  0  0
   28.0445  -22.2640  -16.4454 C   0  0  0  0  0  0  0  0  0  0  0  0
   27.7630  -22.0578  -17.6435 O   0  0  0  0  0  0  0  0  0  0  0  0
   24.4912  -22.3311  -15.2680 C   0  0  0  0  0  0  0  0  0  0  0  0
   24.4079  -23.4246  -14.6576 O   0  0  0  0  0  0  0  0  0  0  0  0
   29.3772  -22.4674  -16.1154 O   0  0  0  0  0  0  0  0  0  0  0  0
   18.1177  -18.6420  -11.9417 N   0  0  0  0  0  0  0  0  0  0  0  0
   19.2283  -19.0203  -11.1597 C   0  0  0  0  0  0  0  0  0  0  0  0
   19.0371  -19.3769   -9.9254 N   0  0  0  0  0  0  0  0  0  0  0  0
   20.5612  -19.0365  -11.6426 N   0  0  0  0  0  0  0  0  0  0  0  0
   20.8959  -18.4146  -12.9214 C   0  0  0  0  0  0  0  0  0  0  0  0
   21.2841  -19.4549  -13.9432 C   0  0  0  0  0  0  0  0  0  0  0  0
   21.9674  -20.6252  -13.3071 C   0  0  0  0  0  0  0  0  0  0  0  0
   22.2499  -21.7379  -14.2796 C   0  0  2  0  0  0  0  0  0  0  0  0
   23.4172  -21.4188  -15.0772 N   0  0  0  0  0  0  0  0  0  0  0  0
   21.0694  -22.0287  -15.1327 C   0  0  0  0  0  0  0  0  0  0  0  0
   20.8401  -21.3663  -16.1999 O   0  0  0  0  0  0  0  0  0  0  0  0
   19.8029  -19.7239   -9.3123 C   0  0  0  0  0  0  0  0  0  0  0  0
   18.6457  -25.4554  -14.4143 C   0  0  1  0  0  0  0  0  0  0  0  0
   18.8554  -24.8567  -15.7662 C   0  0  0  0  0  0  0  0  0  0  0  0
   19.9995  -25.4289  -16.5250 C   0  0  1  0  0  0  0  0  0  0  0  0
   18.9674  -23.3437  -15.5827 N   0  0  0  0  0  0  0  0  0  0  0  0
   20.1380  -23.0422  -14.8226 C   0  0  0  0  0  0  0  0  0  0  0  0
   17.7392  -22.7435  -15.0669 O   0  0  0  0  0  0  0  0  0  0  0  0
   17.6896  -22.3395  -13.8790 O   0  0  0  0  0  0  0  0  0  0  0  0
  2  1  1  1
  2  3  1  0
  4  3  1  0
  4  5  2  0
  6  2  1  0
  7  6  2  0
  8  4  1  0
  9 10  1  0
 10 11  2  0
 10 12  1  0
 12 13  1  0
 13 14  1  0
 16 15  1  1
 15 14  1  0
 16 17  1  0
 17  6  1  0
 18 19  2  0
 18 16  1  0
 21 20  1  6
 21 23  1  0
 22 21  1  0
 23 24  1  1
 24 18  1  0
 25 23  1  0
 26 25  2  0
 27 25  1  0
M  END
$$$$
