DRV.pdb
     RDKit          3D

 27 26  0  0  1  0  0  0  0  0999 V2000
   21.1745  -20.5005  -13.7021 N   0  0  0  0  0  0  0  0  0  0  0  0
   21.0493  -19.4573  -14.6991 C   0  0  1  0  0  0  0  0  0  0  0  0
   19.7614  -18.7318  -14.4562 C   0  0  0  0  0  0  0  0  0  0  0  0
   18.6378  -19.6071  -14.8610 C   0  0  0  0  0  0  0  0  0  0  0  0
   17.5466  -19.5376  -14.2597 O   0  0  0  0  0  0  0  0  0  0  0  0
   22.2331  -18.6057  -14.6675 C   0  0  0  0  0  0  0  0  0  0  0  0
   22.6311  -18.1521  -13.5669 O   0  0  0  0  0  0  0  0  0  0  0  0
   18.7510  -20.5188  -15.9014 O   0  0  0  0  0  0  0  0  0  0  0  0
   27.3041  -20.8381  -17.5907 N   0  0  0  0  0  0  0  0  0  0  0  0
   27.4271  -21.0849  -16.2080 C   0  0  0  0  0  0  0  0  0  0  0  0
   27.3949  -22.3116  -15.7819 N   0  0  0  0  0  0  0  0  0  0  0  0
   27.5860  -20.0632  -15.2379 N   0  0  0  0  0  0  0  0  0  0  0  0
   27.8395  -18.6837  -15.6463 C   0  0  0  0  0  0  0  0  0  0  0  0
   26.6514  -17.8037  -15.3448 C   0  0  0  0  0  0  0  0  0  0  0  0
   25.4055  -18.3154  -15.9984 C   0  0  0  0  0  0  0  0  0  0  0  0
   24.2050  -17.4496  -15.7292 C   0  0  2  0  0  0  0  0  0  0  0  0
   22.9921  -18.2386  -15.8126 N   0  0  0  0  0  0  0  0  0  0  0  0
   24.1595  -16.2812  -16.6452 C   0  0  0  0  0  0  0  0  0  0  0  0
   23.6458  -16.3691  -17.8108 O   0  0  0  0  0  0  0  0  0  0  0  0
   27.5883  -22.5717  -14.7932 C   0  0  0  0  0  0  0  0  0  0  0  0
   22.7970  -13.0016  -15.9455 C   0  0  1  0  0  0  0  0  0  0  0  0
   24.1733  -12.6577  -16.4122 C   0  0  0  0  0  0  0  0  0  0  0  0
   24.2589  -11.4115  -17.2195 C   0  0  2  0  0  0  0  0  0  0  0  0
   24.7224  -13.8776  -17.1510 N   0  0  0  0  0  0  0  0  0  0  0  0
   24.6740  -15.0162  -16.2907 C   0  0  0  0  0  0  0  0  0  0  0  0
   26.0288  -13.6317  -17.7572 O   0  0  0  0  0  0  0  0  0  0  0  0
   27.0753  -13.8177  -17.0886 O   0  0  0  0  0  0  0  0  0  0  0  0
  2  1  1  1
  2  3  1  0
  4  3  1  0
  4  5  2  0
  6  2  1  0
  7  6  2  0
  8  4  1  0
  9 10  1  0
 10 11  2  0
 10 12  1  0
 12 13  1  0
 13 14  1  0
 16 15  1  6
 15 14  1  0
 16 17  1  0
 17  6  1  0
 18 19  2  0
 18 16  1  0
 21 20  1  1
 21 23  1  0
 22 21  1  0
 23 24  1  6
 24 18  1  0
 25 23  1  0
 26 25  2  0
 27 25  1  0
M  END
$$$$
