DRV.pdb
     RDKit          3D

 27 26  0  0  1  0  0  0  0  0999 V2000
   14.6884  -12.8305  -13.2484 N   0  0  0  0  0  0  0  0  0  0  0  0
   14.3034  -11.4431  -13.0899 C   0  0  1  0  0  0  0  0  0  0  0  0
   12.8799  -11.4041  -12.6248 C   0  0  0  0  0  0  0  0  0  0  0  0
   12.0036  -11.8413  -13.7354 C   0  0  0  0  0  0  0  0  0  0  0  0
   12.4950  -12.0905  -14.8550 O   0  0  0  0  0  0  0  0  0  0  0  0
   15.2444  -10.7730  -12.1994 C   0  0  0  0  0  0  0  0  0  0  0  0
   15.7038  -11.3979  -11.2126 O   0  0  0  0  0  0  0  0  0  0  0  0
   10.6323  -11.9878  -13.5789 O   0  0  0  0  0  0  0  0  0  0  0  0
   22.3265   -9.0910  -14.6605 N   0  0  0  0  0  0  0  0  0  0  0  0
   21.3298   -8.1104  -14.8431 C   0  0  0  0  0  0  0  0  0  0  0  0
   21.6074   -7.0537  -15.5457 N   0  0  0  0  0  0  0  0  0  0  0  0
   20.0237   -8.2060  -14.3001 N   0  0  0  0  0  0  0  0  0  0  0  0
   19.5657   -9.4470  -13.6801 C   0  0  0  0  0  0  0  0  0  0  0  0
   18.1178   -9.3431  -13.2681 C   0  0  0  0  0  0  0  0  0  0  0  0
   17.9750   -8.7674  -11.8936 C   0  0  0  0  0  0  0  0  0  0  0  0
   16.5533   -8.7724  -11.4014 C   0  0  2  0  0  0  0  0  0  0  0  0
   15.6947   -9.4341  -12.3634 N   0  0  0  0  0  0  0  0  0  0  0  0
   16.0765   -7.3986  -11.0992 C   0  0  0  0  0  0  0  0  0  0  0  0
   15.6812   -6.6128  -12.0247 O   0  0  0  0  0  0  0  0  0  0  0  0
   20.9119   -6.3039  -15.7376 C   0  0  0  0  0  0  0  0  0  0  0  0
   14.7606   -6.3326   -7.2773 C   0  0  1  0  0  0  0  0  0  0  0  0
   14.3462   -5.6716   -8.5506 C   0  0  0  0  0  0  0  0  0  0  0  0
   13.2008   -6.3226   -9.2408 C   0  0  1  0  0  0  0  0  0  0  0  0
   15.5874   -5.5694   -9.4364 N   0  0  0  0  0  0  0  0  0  0  0  0
   16.0303   -6.8807   -9.7876 C   0  0  0  0  0  0  0  0  0  0  0  0
   16.6234   -4.7137   -8.8628 O   0  0  0  0  0  0  0  0  0  0  0  0
   17.6368   -5.2281   -8.3287 O   0  0  0  0  0  0  0  0  0  0  0  0
  2  1  1  1
  2  3  1  0
  4  3  1  0
  4  5  2  0
  6  2  1  0
  7  6  2  0
  8  4  1  0
  9 10  1  0
 10 11  2  0
 10 12  1  0
 12 13  1  0
 13 14  1  0
 16 15  1  6
 15 14  1  0
 16 17  1  0
 17  6  1  0
 18 19  2  0
 18 16  1  0
 21 20  1  1
 21 23  1  0
 22 21  1  0
 23 24  1  1
 24 18  1  0
 25 23  1  0
 26 25  2  0
 27 25  1  0
M  END
$$$$
