DRV.pdb
     RDKit          3D

 27 26  0  0  1  0  0  0  0  0999 V2000
   25.5445  -19.8258  -18.0846 N   0  0  0  0  0  0  0  0  0  0  0  0
   25.6479  -18.7396  -17.1319 C   0  0  1  0  0  0  0  0  0  0  0  0
   25.5355  -17.4481  -17.8827 C   0  0  0  0  0  0  0  0  0  0  0  0
   26.6799  -17.3384  -18.8159 C   0  0  0  0  0  0  0  0  0  0  0  0
   27.2173  -18.3707  -19.2660 O   0  0  0  0  0  0  0  0  0  0  0  0
   24.6497  -18.9126  -16.0825 C   0  0  0  0  0  0  0  0  0  0  0  0
   24.4371  -17.9718  -15.2794 O   0  0  0  0  0  0  0  0  0  0  0  0
   27.1885  -16.1112  -19.2180 O   0  0  0  0  0  0  0  0  0  0  0  0
   18.5325  -23.6753  -12.6217 N   0  0  0  0  0  0  0  0  0  0  0  0
   17.8875  -22.4525  -12.8984 C   0  0  0  0  0  0  0  0  0  0  0  0
   16.8883  -22.0852  -12.1542 N   0  0  0  0  0  0  0  0  0  0  0  0
   18.2661  -21.5849  -13.9539 N   0  0  0  0  0  0  0  0  0  0  0  0
   19.4492  -21.8699  -14.7620 C   0  0  0  0  0  0  0  0  0  0  0  0
   20.6520  -21.1216  -14.2422 C   0  0  0  0  0  0  0  0  0  0  0  0
   21.6585  -20.8758  -15.3227 C   0  0  0  0  0  0  0  0  0  0  0  0
   22.9209  -20.2357  -14.8126 C   0  0  2  0  0  0  0  0  0  0  0  0
   23.8782  -20.0918  -15.8911 N   0  0  0  0  0  0  0  0  0  0  0  0
   23.4944  -20.9951  -13.6721 C   0  0  0  0  0  0  0  0  0  0  0  0
   23.6683  -22.2585  -13.7342 O   0  0  0  0  0  0  0  0  0  0  0  0
   16.3409  -21.2180  -12.3307 C   0  0  0  0  0  0  0  0  0  0  0  0
   26.1894  -21.4196   -9.7765 C   0  0  1  0  0  0  0  0  0  0  0  0
   25.6921  -20.5430  -10.8785 C   0  0  0  0  0  0  0  0  0  0  0  0
   25.6817  -19.0910  -10.5565 C   0  0  2  0  0  0  0  0  0  0  0  0
   24.3164  -21.0652  -11.2911 N   0  0  0  0  0  0  0  0  0  0  0  0
   23.8785  -20.3773  -12.4633 C   0  0  0  0  0  0  0  0  0  0  0  0
   23.3552  -21.0593  -10.1908 O   0  0  0  0  0  0  0  0  0  0  0  0
   22.4003  -20.2439  -10.1968 O   0  0  0  0  0  0  0  0  0  0  0  0
  2  1  1  6
  2  3  1  0
  4  3  1  0
  4  5  2  0
  6  2  1  0
  7  6  2  0
  8  4  1  0
  9 10  1  0
 10 11  2  0
 10 12  1  0
 12 13  1  0
 13 14  1  0
 16 15  1  6
 15 14  1  0
 16 17  1  0
 17  6  1  0
 18 19  2  0
 18 16  1  0
 21 20  1  6
 21 23  1  0
 22 21  1  0
 23 24  1  1
 24 18  1  0
 25 23  1  0
 26 25  2  0
 27 25  1  0
M  END
$$$$
