DRV.pdb
     RDKit          3D

 27 26  0  0  1  0  0  0  0  0999 V2000
   30.0397  -24.1237  -16.3106 N   0  0  0  0  0  0  0  0  0  0  0  0
   29.2025  -23.5381  -17.3373 C   0  0  1  0  0  0  0  0  0  0  0  0
   29.1835  -24.4689  -18.5110 C   0  0  0  0  0  0  0  0  0  0  0  0
   28.2963  -23.9036  -19.5531 C   0  0  0  0  0  0  0  0  0  0  0  0
   28.1365  -22.6686  -19.6318 O   0  0  0  0  0  0  0  0  0  0  0  0
   27.8855  -23.2419  -16.7848 C   0  0  0  0  0  0  0  0  0  0  0  0
   27.3425  -24.0743  -16.0182 O   0  0  0  0  0  0  0  0  0  0  0  0
   27.6227  -24.7067  -20.4630 O   0  0  0  0  0  0  0  0  0  0  0  0
   21.6129  -18.7573  -16.9113 N   0  0  0  0  0  0  0  0  0  0  0  0
   21.6796  -18.3163  -15.5737 C   0  0  0  0  0  0  0  0  0  0  0  0
   20.5773  -18.0268  -14.9505 N   0  0  0  0  0  0  0  0  0  0  0  0
   22.8922  -18.1665  -14.8546 N   0  0  0  0  0  0  0  0  0  0  0  0
   24.1727  -18.4829  -15.4828 C   0  0  0  0  0  0  0  0  0  0  0  0
   24.3369  -19.9730  -15.6544 C   0  0  0  0  0  0  0  0  0  0  0  0
   25.6774  -20.3185  -16.2244 C   0  0  0  0  0  0  0  0  0  0  0  0
   25.8475  -21.7932  -16.4688 C   0  0  2  0  0  0  0  0  0  0  0  0
   27.1483  -22.0555  -17.0516 N   0  0  0  0  0  0  0  0  0  0  0  0
   24.7523  -22.3354  -17.3131 C   0  0  0  0  0  0  0  0  0  0  0  0
   24.8886  -22.4675  -18.5757 O   0  0  0  0  0  0  0  0  0  0  0  0
   20.5597  -17.5649  -14.0183 C   0  0  0  0  0  0  0  0  0  0  0  0
   22.4087  -24.8321  -19.4859 C   0  0  1  0  0  0  0  0  0  0  0  0
   23.0731  -24.6682  -18.1585 C   0  0  0  0  0  0  0  0  0  0  0  0
   22.9985  -25.8646  -17.2781 C   0  0  2  0  0  0  0  0  0  0  0  0
   22.4849  -23.4181  -17.5054 N   0  0  0  0  0  0  0  0  0  0  0  0
   23.5078  -22.7339  -16.7811 C   0  0  0  0  0  0  0  0  0  0  0  0
   21.2784  -23.6984  -16.7306 O   0  0  0  0  0  0  0  0  0  0  0  0
   21.3110  -23.6409  -15.4767 O   0  0  0  0  0  0  0  0  0  0  0  0
  2  1  1  1
  2  3  1  0
  4  3  1  0
  4  5  2  0
  6  2  1  0
  7  6  2  0
  8  4  1  0
  9 10  1  0
 10 11  2  0
 10 12  1  0
 12 13  1  0
 13 14  1  0
 16 15  1  6
 15 14  1  0
 16 17  1  0
 17  6  1  0
 18 19  2  0
 18 16  1  0
 21 20  1  6
 21 23  1  0
 22 21  1  0
 23 24  1  1
 24 18  1  0
 25 23  1  0
 26 25  2  0
 27 25  1  0
M  END
$$$$
