QQK.pdb
     RDKit          3D

 28 27  0  0  1  0  0  0  0  0999 V2000
   28.0410  -22.7582  -19.2774 N   0  0  0  0  0  0  0  0  0  0  0  0
   29.3226  -22.5340  -18.6553 C   0  0  0  0  0  0  0  0  0  0  0  0
   30.2947  -22.3216  -19.4329 O   0  0  0  0  0  0  0  0  0  0  0  0
   29.4040  -22.5675  -17.1885 C   0  0  0  0  0  0  0  0  0  0  0  0
   28.1084  -22.8030  -16.4962 C   0  0  0  0  0  0  0  0  0  0  0  0
   27.3469  -21.5618  -16.1807 C   0  0  2  0  0  0  0  0  0  0  0  0
   28.2599  -20.5083  -15.8029 N   0  0  0  0  0  0  0  0  0  0  0  0
   26.3196  -21.8009  -15.1321 C   0  0  0  0  0  0  0  0  0  0  0  0
   25.4479  -22.6712  -15.3647 O   0  0  0  0  0  0  0  0  0  0  0  0
   26.3104  -20.3317   -8.9372 N   0  0  0  0  0  0  0  0  0  0  0  0
   25.0992  -21.0341   -9.1543 C   0  0  0  0  0  0  0  0  0  0  0  0
   24.4309  -21.3717   -8.1438 O   0  0  0  0  0  0  0  0  0  0  0  0
   24.6786  -21.3361  -10.5476 C   0  0  0  0  0  0  0  0  0  0  0  0
   25.7564  -20.9637  -11.5433 C   0  0  0  0  0  0  0  0  0  0  0  0
   25.2158  -21.2967  -12.9152 C   0  0  2  0  0  0  0  0  0  0  0  0
   26.2640  -21.1162  -13.9015 N   0  0  0  0  0  0  0  0  0  0  0  0
   24.0859  -20.3693  -13.2830 C   0  0  0  0  0  0  0  0  0  0  0  0
   24.2680  -19.1302  -13.3289 O   0  0  0  0  0  0  0  0  0  0  0  0
   22.7961  -20.8575  -13.5858 N   0  0  0  0  0  0  0  0  0  0  0  0
   21.6503  -20.0962  -13.9852 C   0  0  1  0  0  0  0  0  0  0  0  0
   21.4538  -19.9321  -15.4214 C   0  0  0  0  0  0  0  0  0  0  0  0
   22.4988  -19.6040  -16.3718 C   0  0  0  0  0  0  0  0  0  0  0  0
   22.2929  -19.4591  -17.8064 C   0  0  0  0  0  0  0  0  0  0  0  0
   23.3784  -19.1386  -18.7529 C   0  0  0  0  0  0  0  0  0  0  0  0
   23.0745  -18.9183  -20.1187 N   0  0  0  0  0  0  0  0  0  0  0  0
   20.3789  -20.8988  -13.5371 C   0  0  0  0  0  0  0  0  0  0  0  0
   20.4498  -22.0650  -13.1912 O   0  0  0  0  0  0  0  0  0  0  0  0
   19.1706  -20.2286  -13.5501 O   0  0  0  0  0  0  0  0  0  0  0  0
  2  1  1  0
  3  2  2  0
  4  2  1  0
  5  6  1  0
  5  4  1  0
  6  8  1  0
  6  7  1  1
  8  9  2  0
 11 10  1  0
 11 12  2  0
 13 11  1  0
 14 13  1  0
 15 14  1  1
 16 15  1  0
 16  8  1  0
 17 15  1  0
 17 18  2  0
 19 17  1  0
 20 19  1  0
 20 26  1  0
 20 21  1  6
 22 21  1  0
 23 22  1  0
 24 23  1  0
 25 24  1  0
 26 28  1  0
 27 26  2  0
M  END
$$$$
