QQK.pdb
     RDKit          3D

 28 27  0  0  1  0  0  0  0  0999 V2000
   18.8695  -16.1391  -13.2607 N   0  0  0  0  0  0  0  0  0  0  0  0
   19.7915  -17.1801  -13.6427 C   0  0  0  0  0  0  0  0  0  0  0  0
   19.6901  -18.2754  -13.0223 O   0  0  0  0  0  0  0  0  0  0  0  0
   20.7644  -16.8975  -14.7070 C   0  0  0  0  0  0  0  0  0  0  0  0
   20.7049  -15.5163  -15.2571 C   0  0  0  0  0  0  0  0  0  0  0  0
   19.4895  -15.2319  -16.0707 C   0  0  2  0  0  0  0  0  0  0  0  0
   19.4837  -16.0632  -17.2518 N   0  0  0  0  0  0  0  0  0  0  0  0
   19.3857  -13.7884  -16.4141 C   0  0  0  0  0  0  0  0  0  0  0  0
   19.7235  -13.4438  -17.5710 O   0  0  0  0  0  0  0  0  0  0  0  0
   14.1444  -10.7024  -17.0830 N   0  0  0  0  0  0  0  0  0  0  0  0
   14.9359  -11.4177  -16.1506 C   0  0  0  0  0  0  0  0  0  0  0  0
   14.3890  -11.7814  -15.0781 O   0  0  0  0  0  0  0  0  0  0  0  0
   16.3578  -11.7021  -16.4775 C   0  0  0  0  0  0  0  0  0  0  0  0
   17.2960  -11.0133  -15.5094 C   0  0  0  0  0  0  0  0  0  0  0  0
   18.6997  -11.4096  -15.9067 C   0  0  2  0  0  0  0  0  0  0  0  0
   18.9347  -12.7898  -15.5277 N   0  0  0  0  0  0  0  0  0  0  0  0
   19.7174  -10.5641  -15.1846 C   0  0  0  0  0  0  0  0  0  0  0  0
   19.9873  -10.7818  -13.9803 O   0  0  0  0  0  0  0  0  0  0  0  0
   20.3958   -9.5081  -15.8315 N   0  0  0  0  0  0  0  0  0  0  0  0
   21.4250   -8.6737  -15.2872 C   0  0  1  0  0  0  0  0  0  0  0  0
   22.2037   -7.9004  -16.2484 C   0  0  0  0  0  0  0  0  0  0  0  0
   23.0379   -8.4666  -17.2907 C   0  0  0  0  0  0  0  0  0  0  0  0
   23.7754   -7.6839  -18.2729 C   0  0  0  0  0  0  0  0  0  0  0  0
   24.6503   -8.2854  -19.2975 C   0  0  0  0  0  0  0  0  0  0  0  0
   25.4459   -7.4487  -20.1180 N   0  0  0  0  0  0  0  0  0  0  0  0
   20.7209   -7.5699  -14.4228 C   0  0  0  0  0  0  0  0  0  0  0  0
   19.5259   -7.3514  -14.5174 O   0  0  0  0  0  0  0  0  0  0  0  0
   21.5123   -6.8522  -13.5464 O   0  0  0  0  0  0  0  0  0  0  0  0
  2  1  1  0
  3  2  2  0
  4  2  1  0
  5  6  1  0
  5  4  1  0
  6  8  1  0
  6  7  1  6
  8  9  2  0
 11 10  1  0
 11 12  2  0
 13 11  1  0
 14 13  1  0
 15 14  1  1
 16 15  1  0
 16  8  1  0
 17 15  1  0
 17 18  2  0
 19 17  1  0
 20 19  1  0
 20 26  1  0
 20 21  1  6
 22 21  1  0
 23 22  1  0
 24 23  1  0
 25 24  1  0
 26 28  1  0
 27 26  2  0
M  END
$$$$
