QQK.pdb
     RDKit          3D

 28 27  0  0  1  0  0  0  0  0999 V2000
   27.6444  -25.2006  -16.3386 N   0  0  0  0  0  0  0  0  0  0  0  0
   28.4737  -24.0367  -16.1459 C   0  0  0  0  0  0  0  0  0  0  0  0
   29.6096  -24.2356  -15.6311 O   0  0  0  0  0  0  0  0  0  0  0  0
   27.9479  -22.7271  -16.5552 C   0  0  0  0  0  0  0  0  0  0  0  0
   26.5710  -22.7549  -17.1182 C   0  0  0  0  0  0  0  0  0  0  0  0
   25.7895  -21.5070  -16.8899 C   0  0  2  0  0  0  0  0  0  0  0  0
   26.6884  -20.3984  -16.6683 N   0  0  0  0  0  0  0  0  0  0  0  0
   24.8230  -21.6631  -15.7702 C   0  0  0  0  0  0  0  0  0  0  0  0
   24.0005  -22.6061  -15.8439 O   0  0  0  0  0  0  0  0  0  0  0  0
   25.7070  -20.8313   -9.7114 N   0  0  0  0  0  0  0  0  0  0  0  0
   24.2995  -20.9808   -9.7738 C   0  0  0  0  0  0  0  0  0  0  0  0
   23.6742  -21.0802   -8.6872 O   0  0  0  0  0  0  0  0  0  0  0  0
   23.6344  -21.0128  -11.1027 C   0  0  0  0  0  0  0  0  0  0  0  0
   24.6354  -20.8455  -12.2260 C   0  0  0  0  0  0  0  0  0  0  0  0
   23.8719  -21.0186  -13.5192 C   0  0  2  0  0  0  0  0  0  0  0  0
   24.7731  -20.8240  -14.6390 N   0  0  0  0  0  0  0  0  0  0  0  0
   22.7788  -19.9872  -13.6356 C   0  0  0  0  0  0  0  0  0  0  0  0
   23.0471  -18.7647  -13.5729 O   0  0  0  0  0  0  0  0  0  0  0  0
   21.4283  -20.3570  -13.8175 N   0  0  0  0  0  0  0  0  0  0  0  0
   20.2927  -19.4879  -13.8997 C   0  0  1  0  0  0  0  0  0  0  0  0
   19.1605  -19.9781  -14.6783 C   0  0  0  0  0  0  0  0  0  0  0  0
   17.9193  -19.2575  -14.8857 C   0  0  0  0  0  0  0  0  0  0  0  0
   16.7756  -19.7797  -15.6211 C   0  0  0  0  0  0  0  0  0  0  0  0
   15.5486  -18.9997  -15.8725 C   0  0  0  0  0  0  0  0  0  0  0  0
   14.5522  -19.5199  -16.7343 N   0  0  0  0  0  0  0  0  0  0  0  0
   19.7032  -19.3539  -12.4520 C   0  0  0  0  0  0  0  0  0  0  0  0
   19.6368  -20.3097  -11.6993 O   0  0  0  0  0  0  0  0  0  0  0  0
   19.2605  -18.1042  -12.0623 O   0  0  0  0  0  0  0  0  0  0  0  0
  2  1  1  0
  3  2  2  0
  4  2  1  0
  5  6  1  0
  5  4  1  0
  6  8  1  0
  6  7  1  1
  8  9  2  0
 11 10  1  0
 11 12  2  0
 13 11  1  0
 14 13  1  0
 15 14  1  1
 16 15  1  0
 16  8  1  0
 17 15  1  0
 17 18  2  0
 19 17  1  0
 20 19  1  0
 20 26  1  0
 20 21  1  6
 22 21  1  0
 23 22  1  0
 24 23  1  0
 25 24  1  0
 26 28  1  0
 27 26  2  0
M  END
$$$$
