QQK.pdb
     RDKit          3D

 28 27  0  0  1  0  0  0  0  0999 V2000
   16.6785  -14.4276  -15.6612 N   0  0  0  0  0  0  0  0  0  0  0  0
   16.8300  -14.2816  -17.0879 C   0  0  0  0  0  0  0  0  0  0  0  0
   16.4969  -15.2752  -17.7925 O   0  0  0  0  0  0  0  0  0  0  0  0
   17.3507  -13.0105  -17.6099 C   0  0  0  0  0  0  0  0  0  0  0  0
   17.5459  -11.9481  -16.5869 C   0  0  0  0  0  0  0  0  0  0  0  0
   18.9724  -11.6269  -16.3003 C   0  0  2  0  0  0  0  0  0  0  0  0
   19.6036  -12.7443  -15.6377 N   0  0  0  0  0  0  0  0  0  0  0  0
   19.1037  -10.3737  -15.5101 C   0  0  0  0  0  0  0  0  0  0  0  0
   18.4556  -10.2946  -14.4401 O   0  0  0  0  0  0  0  0  0  0  0  0
   23.7743   -6.1649  -15.2279 N   0  0  0  0  0  0  0  0  0  0  0  0
   22.7402   -5.5567  -14.4741 C   0  0  0  0  0  0  0  0  0  0  0  0
   23.0271   -4.5236  -13.8167 O   0  0  0  0  0  0  0  0  0  0  0  0
   21.3814   -6.1588  -14.4940 C   0  0  0  0  0  0  0  0  0  0  0  0
   21.3452   -7.4137  -15.3401 C   0  0  0  0  0  0  0  0  0  0  0  0
   19.9793   -8.0313  -15.1450 C   0  0  2  0  0  0  0  0  0  0  0  0
   19.9050   -9.2766  -15.8850 N   0  0  0  0  0  0  0  0  0  0  0  0
   18.9018   -7.1235  -15.6806 C   0  0  0  0  0  0  0  0  0  0  0  0
   18.5742   -7.1678  -16.8894 O   0  0  0  0  0  0  0  0  0  0  0  0
   18.2302   -6.2008  -14.8491 N   0  0  0  0  0  0  0  0  0  0  0  0
   17.1904   -5.2897  -15.2241 C   0  0  1  0  0  0  0  0  0  0  0  0
   15.8412   -5.6377  -14.7919 C   0  0  0  0  0  0  0  0  0  0  0  0
   14.6677   -4.8065  -14.9785 C   0  0  0  0  0  0  0  0  0  0  0  0
   13.3145   -5.1945  -14.6046 C   0  0  0  0  0  0  0  0  0  0  0  0
   12.1206   -4.3935  -14.9360 C   0  0  0  0  0  0  0  0  0  0  0  0
   10.8357   -4.8707  -14.5790 N   0  0  0  0  0  0  0  0  0  0  0  0
   17.4682   -3.9355  -14.4823 C   0  0  0  0  0  0  0  0  0  0  0  0
   18.2423   -3.8694  -13.5436 O   0  0  0  0  0  0  0  0  0  0  0  0
   16.7979   -2.8160  -14.9370 O   0  0  0  0  0  0  0  0  0  0  0  0
  2  1  1  0
  3  2  2  0
  4  2  1  0
  5  6  1  0
  5  4  1  0
  6  8  1  0
  6  7  1  1
  8  9  2  0
 11 10  1  0
 11 12  2  0
 13 11  1  0
 14 13  1  0
 15 14  1  6
 16 15  1  0
 16  8  1  0
 17 15  1  0
 17 18  2  0
 19 17  1  0
 20 19  1  0
 20 26  1  0
 20 21  1  1
 22 21  1  0
 23 22  1  0
 24 23  1  0
 25 24  1  0
 26 28  1  0
 27 26  2  0
M  END
$$$$
