QQK.pdb
     RDKit          3D

 28 27  0  0  1  0  0  0  0  0999 V2000
   26.1917  -14.2615  -17.1405 N   0  0  0  0  0  0  0  0  0  0  0  0
   27.5154  -14.7202  -17.4825 C   0  0  0  0  0  0  0  0  0  0  0  0
   28.4200  -13.8403  -17.5292 O   0  0  0  0  0  0  0  0  0  0  0  0
   27.7135  -16.1521  -17.7464 C   0  0  0  0  0  0  0  0  0  0  0  0
   26.5414  -17.0132  -17.4329 C   0  0  0  0  0  0  0  0  0  0  0  0
   26.8068  -18.4751  -17.5444 C   0  0  2  0  0  0  0  0  0  0  0  0
   27.0708  -18.8224  -18.9213 N   0  0  0  0  0  0  0  0  0  0  0  0
   25.6905  -19.2792  -16.9791 C   0  0  0  0  0  0  0  0  0  0  0  0
   24.8404  -19.7321  -17.7812 O   0  0  0  0  0  0  0  0  0  0  0  0
   25.5282  -23.0643  -12.0125 N   0  0  0  0  0  0  0  0  0  0  0  0
   24.1903  -23.0759  -12.4788 C   0  0  0  0  0  0  0  0  0  0  0  0
   23.4020  -23.9134  -11.9701 O   0  0  0  0  0  0  0  0  0  0  0  0
   23.7842  -22.1106  -13.5336 C   0  0  0  0  0  0  0  0  0  0  0  0
   24.9662  -21.3066  -14.0319 C   0  0  0  0  0  0  0  0  0  0  0  0
   24.4308  -20.3365  -15.0602 C   0  0  2  0  0  0  0  0  0  0  0  0
   25.5286  -19.5627  -15.6081 N   0  0  0  0  0  0  0  0  0  0  0  0
   23.4669  -19.3660  -14.4269 C   0  0  0  0  0  0  0  0  0  0  0  0
   23.8433  -18.6032  -13.5066 O   0  0  0  0  0  0  0  0  0  0  0  0
   22.1202  -19.2820  -14.8431 N   0  0  0  0  0  0  0  0  0  0  0  0
   21.1233  -18.3634  -14.3805 C   0  0  1  0  0  0  0  0  0  0  0  0
   20.4223  -17.6012  -15.4081 C   0  0  0  0  0  0  0  0  0  0  0  0
   19.4734  -16.5352  -15.1511 C   0  0  0  0  0  0  0  0  0  0  0  0
   18.7685  -15.7913  -16.1861 C   0  0  0  0  0  0  0  0  0  0  0  0
   17.8385  -14.6830  -15.8970 C   0  0  0  0  0  0  0  0  0  0  0  0
   17.1669  -14.0360  -16.9631 N   0  0  0  0  0  0  0  0  0  0  0  0
   19.9809  -19.2107  -13.7184 C   0  0  0  0  0  0  0  0  0  0  0  0
   19.6889  -20.3198  -14.1300 O   0  0  0  0  0  0  0  0  0  0  0  0
   19.3161  -18.6478  -12.6457 O   0  0  0  0  0  0  0  0  0  0  0  0
  2  1  1  0
  3  2  2  0
  4  2  1  0
  5  6  1  0
  5  4  1  0
  6  8  1  0
  6  7  1  6
  8  9  2  0
 11 10  1  0
 11 12  2  0
 13 11  1  0
 14 13  1  0
 15 14  1  1
 16 15  1  0
 16  8  1  0
 17 15  1  0
 17 18  2  0
 19 17  1  0
 20 19  1  0
 20 26  1  0
 20 21  1  6
 22 21  1  0
 23 22  1  0
 24 23  1  0
 25 24  1  0
 26 28  1  0
 27 26  2  0
M  END
$$$$
