QQK.pdb
     RDKit          3D

 28 27  0  0  1  0  0  0  0  0999 V2000
   20.3298  -12.6531  -20.4885 N   0  0  0  0  0  0  0  0  0  0  0  0
   20.6729  -13.7984  -19.6821 C   0  0  0  0  0  0  0  0  0  0  0  0
   21.1684  -14.7866  -20.2924 O   0  0  0  0  0  0  0  0  0  0  0  0
   20.4268  -13.7343  -18.2349 C   0  0  0  0  0  0  0  0  0  0  0  0
   19.8179  -12.4625  -17.7604 C   0  0  0  0  0  0  0  0  0  0  0  0
   19.7309  -12.3395  -16.2780 C   0  0  2  0  0  0  0  0  0  0  0  0
   18.8706  -13.3722  -15.7493 N   0  0  0  0  0  0  0  0  0  0  0  0
   19.2789  -10.9836  -15.8664 C   0  0  0  0  0  0  0  0  0  0  0  0
   18.5550  -10.3476  -16.6680 O   0  0  0  0  0  0  0  0  0  0  0  0
   17.1641   -8.8254  -10.6101 N   0  0  0  0  0  0  0  0  0  0  0  0
   16.4773   -9.3108  -11.7504 C   0  0  0  0  0  0  0  0  0  0  0  0
   15.2754   -9.6520  -11.6066 O   0  0  0  0  0  0  0  0  0  0  0  0
   17.1984   -9.3937  -13.0474 C   0  0  0  0  0  0  0  0  0  0  0  0
   18.6521   -8.9984  -12.8979 C   0  0  0  0  0  0  0  0  0  0  0  0
   19.2522   -9.0121  -14.2853 C   0  0  2  0  0  0  0  0  0  0  0  0
   19.6102  -10.3722  -14.6405 N   0  0  0  0  0  0  0  0  0  0  0  0
   20.5133   -8.1877  -14.3294 C   0  0  0  0  0  0  0  0  0  0  0  0
   21.6080   -8.6781  -13.9664 O   0  0  0  0  0  0  0  0  0  0  0  0
   20.5071   -6.8483  -14.7762 N   0  0  0  0  0  0  0  0  0  0  0  0
   21.5971   -5.9193  -14.7532 C   0  0  1  0  0  0  0  0  0  0  0  0
   21.6060   -4.9093  -15.8059 C   0  0  0  0  0  0  0  0  0  0  0  0
   22.5694   -3.8311  -15.9160 C   0  0  0  0  0  0  0  0  0  0  0  0
   22.5221   -2.7831  -16.9264 C   0  0  0  0  0  0  0  0  0  0  0  0
   23.4870   -1.6683  -16.9839 C   0  0  0  0  0  0  0  0  0  0  0  0
   23.4244   -0.7424  -18.0539 N   0  0  0  0  0  0  0  0  0  0  0  0
   21.4579   -5.0707  -13.4410 C   0  0  0  0  0  0  0  0  0  0  0  0
   20.3775   -4.8974  -12.9050 O   0  0  0  0  0  0  0  0  0  0  0  0
   22.6133   -4.5253  -12.9147 O   0  0  0  0  0  0  0  0  0  0  0  0
  2  1  1  0
  3  2  2  0
  4  2  1  0
  5  6  1  0
  5  4  1  0
  6  8  1  0
  6  7  1  6
  8  9  2  0
 11 10  1  0
 11 12  2  0
 13 11  1  0
 14 13  1  0
 15 14  1  1
 16 15  1  0
 16  8  1  0
 17 15  1  0
 17 18  2  0
 19 17  1  0
 20 19  1  0
 20 26  1  0
 20 21  1  6
 22 21  1  0
 23 22  1  0
 24 23  1  0
 25 24  1  0
 26 28  1  0
 27 26  2  0
M  END
$$$$
