QQK.pdb
     RDKit          3D

 28 27  0  0  1  0  0  0  0  0999 V2000
   16.5456  -33.1889   -1.5604 N   0  0  0  0  0  0  0  0  0  0  0  0
   16.5700  -31.7596   -1.3698 C   0  0  0  0  0  0  0  0  0  0  0  0
   15.6085  -31.2635   -0.7186 O   0  0  0  0  0  0  0  0  0  0  0  0
   17.6914  -30.9972   -1.9358 C   0  0  0  0  0  0  0  0  0  0  0  0
   17.5061  -29.5210   -1.9364 C   0  0  0  0  0  0  0  0  0  0  0  0
   18.6205  -28.7630   -2.5716 C   0  0  2  0  0  0  0  0  0  0  0  0
   19.7931  -28.8166   -1.7300 N   0  0  0  0  0  0  0  0  0  0  0  0
   18.2262  -27.3616   -2.8762 C   0  0  0  0  0  0  0  0  0  0  0  0
   18.6164  -26.4674   -2.0892 O   0  0  0  0  0  0  0  0  0  0  0  0
   17.1400  -24.3651   -8.2435 N   0  0  0  0  0  0  0  0  0  0  0  0
   18.3138  -24.2681   -7.4560 C   0  0  0  0  0  0  0  0  0  0  0  0
   19.3211  -23.7218   -7.9743 O   0  0  0  0  0  0  0  0  0  0  0  0
   18.3020  -24.8090   -6.0716 C   0  0  0  0  0  0  0  0  0  0  0  0
   16.9385  -25.3535   -5.7025 C   0  0  0  0  0  0  0  0  0  0  0  0
   16.9669  -25.6280   -4.2162 C   0  0  2  0  0  0  0  0  0  0  0  0
   17.4470  -26.9772   -3.9858 N   0  0  0  0  0  0  0  0  0  0  0  0
   15.5811  -25.5363   -3.6302 C   0  0  0  0  0  0  0  0  0  0  0  0
   14.7546  -26.4627   -3.8010 O   0  0  0  0  0  0  0  0  0  0  0  0
   15.1688  -24.4159   -2.8761 N   0  0  0  0  0  0  0  0  0  0  0  0
   13.8797  -24.1856   -2.2957 C   0  0  1  0  0  0  0  0  0  0  0  0
   13.8318  -23.2398   -1.1860 C   0  0  0  0  0  0  0  0  0  0  0  0
   14.7986  -23.1736   -0.1072 C   0  0  0  0  0  0  0  0  0  0  0  0
   15.1323  -21.9611    0.6277 C   0  0  0  0  0  0  0  0  0  0  0  0
   16.0435  -21.9413    1.7881 C   0  0  0  0  0  0  0  0  0  0  0  0
   16.4245  -20.7020    2.3583 N   0  0  0  0  0  0  0  0  0  0  0  0
   12.9913  -23.4999   -3.3920 C   0  0  0  0  0  0  0  0  0  0  0  0
   13.4660  -23.1045   -4.4423 O   0  0  0  0  0  0  0  0  0  0  0  0
   11.6438  -23.3615   -3.1189 O   0  0  0  0  0  0  0  0  0  0  0  0
  2  1  1  0
  3  2  2  0
  4  2  1  0
  5  6  1  0
  5  4  1  0
  6  8  1  0
  6  7  1  1
  8  9  2  0
 11 10  1  0
 11 12  2  0
 13 11  1  0
 14 13  1  0
 15 14  1  6
 16 15  1  0
 16  8  1  0
 17 15  1  0
 17 18  2  0
 19 17  1  0
 20 19  1  0
 20 26  1  0
 20 21  1  1
 22 21  1  0
 23 22  1  0
 24 23  1  0
 25 24  1  0
 26 28  1  0
 27 26  2  0
M  END
$$$$
