QQK.pdb
     RDKit          3D

 28 27  0  0  1  0  0  0  0  0999 V2000
   21.5035   -6.9068  -13.4429 N   0  0  0  0  0  0  0  0  0  0  0  0
   21.7776   -8.3139  -13.2866 C   0  0  0  0  0  0  0  0  0  0  0  0
   22.9695   -8.6795  -13.4877 O   0  0  0  0  0  0  0  0  0  0  0  0
   20.6713   -9.2050  -12.9107 C   0  0  0  0  0  0  0  0  0  0  0  0
   19.3833   -8.5163  -12.6270 C   0  0  0  0  0  0  0  0  0  0  0  0
   18.2442   -9.4358  -12.3494 C   0  0  2  0  0  0  0  0  0  0  0  0
   17.9655  -10.2387  -13.5172 N   0  0  0  0  0  0  0  0  0  0  0  0
   17.0392   -8.6928  -11.8930 C   0  0  0  0  0  0  0  0  0  0  0  0
   16.2140   -8.3372  -12.7670 O   0  0  0  0  0  0  0  0  0  0  0  0
   13.0768  -10.1118   -7.7264 N   0  0  0  0  0  0  0  0  0  0  0  0
   13.0698  -10.3059   -9.1299 C   0  0  0  0  0  0  0  0  0  0  0  0
   12.2815  -11.1677   -9.5961 O   0  0  0  0  0  0  0  0  0  0  0  0
   13.9821   -9.4932   -9.9764 C   0  0  0  0  0  0  0  0  0  0  0  0
   14.8121   -8.5427   -9.1400 C   0  0  0  0  0  0  0  0  0  0  0  0
   15.5764   -7.6664  -10.1059 C   0  0  2  0  0  0  0  0  0  0  0  0
   16.7675   -8.3654  -10.5494 N   0  0  0  0  0  0  0  0  0  0  0  0
   16.0244   -6.3944   -9.4325 C   0  0  0  0  0  0  0  0  0  0  0  0
   17.0387   -6.3864   -8.6965 O   0  0  0  0  0  0  0  0  0  0  0  0
   15.3255   -5.1797   -9.6046 N   0  0  0  0  0  0  0  0  0  0  0  0
   15.6585   -3.8998   -9.0543 C   0  0  1  0  0  0  0  0  0  0  0  0
   15.9670   -2.8456  -10.0144 C   0  0  0  0  0  0  0  0  0  0  0  0
   16.1966   -1.4541   -9.6766 C   0  0  0  0  0  0  0  0  0  0  0  0
   16.5081   -0.4112  -10.6445 C   0  0  0  0  0  0  0  0  0  0  0  0
   16.7925    0.9864  -10.2669 C   0  0  0  0  0  0  0  0  0  0  0  0
   17.1191    1.9306  -11.2709 N   0  0  0  0  0  0  0  0  0  0  0  0
   14.3789   -3.3595   -8.3248 C   0  0  0  0  0  0  0  0  0  0  0  0
   13.2605   -3.7187   -8.6487 O   0  0  0  0  0  0  0  0  0  0  0  0
   14.5707   -2.4568   -7.2964 O   0  0  0  0  0  0  0  0  0  0  0  0
  2  1  1  0
  3  2  2  0
  4  2  1  0
  5  6  1  0
  5  4  1  0
  6  8  1  0
  6  7  1  6
  8  9  2  0
 11 10  1  0
 11 12  2  0
 13 11  1  0
 14 13  1  0
 15 14  1  1
 16 15  1  0
 16  8  1  0
 17 15  1  0
 17 18  2  0
 19 17  1  0
 20 19  1  0
 20 26  1  0
 20 21  1  6
 22 21  1  0
 23 22  1  0
 24 23  1  0
 25 24  1  0
 26 28  1  0
 27 26  2  0
M  END
$$$$
