QQK.pdb
     RDKit          3D

 28 27  0  0  1  0  0  0  0  0999 V2000
   22.7500  -25.4179  -13.6686 N   0  0  0  0  0  0  0  0  0  0  0  0
   22.1865  -24.8766  -14.8807 C   0  0  0  0  0  0  0  0  0  0  0  0
   21.3358  -25.5964  -15.4747 O   0  0  0  0  0  0  0  0  0  0  0  0
   22.6336  -23.5506  -15.3291 C   0  0  0  0  0  0  0  0  0  0  0  0
   23.6687  -22.9164  -14.4689 C   0  0  0  0  0  0  0  0  0  0  0  0
   23.1381  -21.8964  -13.5213 C   0  0  2  0  0  0  0  0  0  0  0  0
   21.7874  -21.5404  -13.8889 N   0  0  0  0  0  0  0  0  0  0  0  0
   24.0214  -20.7018  -13.4511 C   0  0  0  0  0  0  0  0  0  0  0  0
   23.5558  -19.6694  -12.9141 O   0  0  0  0  0  0  0  0  0  0  0  0
   26.4195  -22.1288  -11.4631 N   0  0  0  0  0  0  0  0  0  0  0  0
   26.3520  -20.8845  -10.7888 C   0  0  0  0  0  0  0  0  0  0  0  0
   25.7853  -20.8588   -9.6664 O   0  0  0  0  0  0  0  0  0  0  0  0
   26.9460  -19.6821  -11.4296 C   0  0  0  0  0  0  0  0  0  0  0  0
   27.3821  -19.9713  -12.8502 C   0  0  0  0  0  0  0  0  0  0  0  0
   26.2465  -19.5415  -13.7506 C   0  0  2  0  0  0  0  0  0  0  0  0
   25.3401  -20.6569  -13.9465 N   0  0  0  0  0  0  0  0  0  0  0  0
   26.7647  -19.1379  -15.1073 C   0  0  0  0  0  0  0  0  0  0  0  0
   27.6362  -19.8270  -15.6872 O   0  0  0  0  0  0  0  0  0  0  0  0
   26.2924  -17.9819  -15.7664 N   0  0  0  0  0  0  0  0  0  0  0  0
   26.3521  -17.6954  -17.1686 C   0  0  1  0  0  0  0  0  0  0  0  0
   25.1555  -17.1043  -17.7574 C   0  0  0  0  0  0  0  0  0  0  0  0
   23.9350  -17.8257  -18.0622 C   0  0  0  0  0  0  0  0  0  0  0  0
   22.7593  -17.8574  -17.2030 C   0  0  0  0  0  0  0  0  0  0  0  0
   21.5037  -18.5389  -17.5718 C   0  0  0  0  0  0  0  0  0  0  0  0
   20.3951  -18.4891  -16.6916 N   0  0  0  0  0  0  0  0  0  0  0  0
   27.4401  -16.5832  -17.3706 C   0  0  0  0  0  0  0  0  0  0  0  0
   27.8772  -15.9406  -16.4322 O   0  0  0  0  0  0  0  0  0  0  0  0
   27.8849  -16.3600  -18.6597 O   0  0  0  0  0  0  0  0  0  0  0  0
  2  1  1  0
  3  2  2  0
  4  2  1  0
  5  6  1  0
  5  4  1  0
  6  8  1  0
  6  7  1  6
  8  9  2  0
 11 10  1  0
 11 12  2  0
 13 11  1  0
 14 13  1  0
 15 14  1  1
 16 15  1  0
 16  8  1  0
 17 15  1  0
 17 18  2  0
 19 17  1  0
 20 19  1  0
 20 26  1  0
 20 21  1  1
 22 21  1  0
 23 22  1  0
 24 23  1  0
 25 24  1  0
 26 28  1  0
 27 26  2  0
M  END
$$$$
