QQK.pdb
     RDKit          3D

 28 27  0  0  1  0  0  0  0  0999 V2000
   22.0021  -21.0545  -10.7316 N   0  0  0  0  0  0  0  0  0  0  0  0
   22.2749  -21.0897   -9.3159 C   0  0  0  0  0  0  0  0  0  0  0  0
   21.3769  -21.5914   -8.5834 O   0  0  0  0  0  0  0  0  0  0  0  0
   23.5546  -20.5500   -8.8362 C   0  0  0  0  0  0  0  0  0  0  0  0
   24.4095  -19.9394   -9.8897 C   0  0  0  0  0  0  0  0  0  0  0  0
   25.6142  -20.7416  -10.2434 C   0  0  2  0  0  0  0  0  0  0  0  0
   26.5863  -20.6633   -9.1781 N   0  0  0  0  0  0  0  0  0  0  0  0
   26.1918  -20.3171  -11.5467 C   0  0  0  0  0  0  0  0  0  0  0  0
   26.7871  -19.2147  -11.5834 O   0  0  0  0  0  0  0  0  0  0  0  0
   28.6117  -23.2089  -16.5239 N   0  0  0  0  0  0  0  0  0  0  0  0
   28.2678  -21.9352  -17.0405 C   0  0  0  0  0  0  0  0  0  0  0  0
   28.6502  -21.6550  -18.2054 O   0  0  0  0  0  0  0  0  0  0  0  0
   27.4811  -21.0003  -16.1940 C   0  0  0  0  0  0  0  0  0  0  0  0
   27.2007  -21.5929  -14.8295 C   0  0  0  0  0  0  0  0  0  0  0  0
   26.4301  -20.5505  -14.0519 C   0  0  2  0  0  0  0  0  0  0  0  0
   26.1130  -21.0703  -12.7353 N   0  0  0  0  0  0  0  0  0  0  0  0
   25.1259  -20.2303  -14.7363 C   0  0  0  0  0  0  0  0  0  0  0  0
   24.1410  -20.9967  -14.6212 O   0  0  0  0  0  0  0  0  0  0  0  0
   24.9684  -19.0684  -15.5231 N   0  0  0  0  0  0  0  0  0  0  0  0
   23.7787  -18.6204  -16.1832 C   0  0  1  0  0  0  0  0  0  0  0  0
   23.8975  -17.3938  -16.9640 C   0  0  0  0  0  0  0  0  0  0  0  0
   22.8247  -16.7869  -17.7280 C   0  0  0  0  0  0  0  0  0  0  0  0
   22.9639  -15.5782  -18.5287 C   0  0  0  0  0  0  0  0  0  0  0  0
   21.8555  -14.9853  -19.3011 C   0  0  0  0  0  0  0  0  0  0  0  0
   22.1067  -13.8812  -20.1521 N   0  0  0  0  0  0  0  0  0  0  0  0
   23.4099  -19.6992  -17.2609 C   0  0  0  0  0  0  0  0  0  0  0  0
   22.2869  -20.1656  -17.3384 O   0  0  0  0  0  0  0  0  0  0  0  0
   24.4127  -20.1013  -18.1224 O   0  0  0  0  0  0  0  0  0  0  0  0
  2  1  1  0
  3  2  2  0
  4  2  1  0
  5  6  1  0
  5  4  1  0
  6  8  1  0
  6  7  1  1
  8  9  2  0
 11 10  1  0
 11 12  2  0
 13 11  1  0
 14 13  1  0
 15 14  1  6
 16 15  1  0
 16  8  1  0
 17 15  1  0
 17 18  2  0
 19 17  1  0
 20 19  1  0
 20 26  1  0
 20 21  1  6
 22 21  1  0
 23 22  1  0
 24 23  1  0
 25 24  1  0
 26 28  1  0
 27 26  2  0
M  END
$$$$
