QQK.pdb
     RDKit          3D

 28 27  0  0  1  0  0  0  0  0999 V2000
   21.8677  -16.3743  -15.3106 N   0  0  0  0  0  0  0  0  0  0  0  0
   21.3653  -16.5704  -16.6481 C   0  0  0  0  0  0  0  0  0  0  0  0
   21.1329  -17.7632  -16.9913 O   0  0  0  0  0  0  0  0  0  0  0  0
   21.1629  -15.3902  -17.4997 C   0  0  0  0  0  0  0  0  0  0  0  0
   21.5999  -14.1022  -16.8966 C   0  0  0  0  0  0  0  0  0  0  0  0
   21.3756  -12.9114  -17.7637 C   0  0  2  0  0  0  0  0  0  0  0  0
   21.9076  -13.1580  -19.0836 N   0  0  0  0  0  0  0  0  0  0  0  0
   21.9501  -11.6789  -17.1610 C   0  0  0  0  0  0  0  0  0  0  0  0
   21.5404  -11.3464  -16.0240 O   0  0  0  0  0  0  0  0  0  0  0  0
   27.0884   -8.3102  -18.9050 N   0  0  0  0  0  0  0  0  0  0  0  0
   26.4579   -7.4930  -17.9343 C   0  0  0  0  0  0  0  0  0  0  0  0
   27.0204   -6.4108  -17.6278 O   0  0  0  0  0  0  0  0  0  0  0  0
   25.1774   -7.9456  -17.3302 C   0  0  0  0  0  0  0  0  0  0  0  0
   24.7281   -9.2684  -17.9134 C   0  0  0  0  0  0  0  0  0  0  0  0
   23.4416   -9.6393  -17.2117 C   0  0  2  0  0  0  0  0  0  0  0  0
   22.9194  -10.8663  -17.7826 N   0  0  0  0  0  0  0  0  0  0  0  0
   22.3981   -8.5698  -17.4100 C   0  0  0  0  0  0  0  0  0  0  0  0
   21.7227   -8.5266  -18.4648 O   0  0  0  0  0  0  0  0  0  0  0  0
   22.1468   -7.5891  -16.4258 N   0  0  0  0  0  0  0  0  0  0  0  0
   21.2123   -6.5058  -16.4971 C   0  0  1  0  0  0  0  0  0  0  0  0
   19.7999   -6.8710  -16.4896 C   0  0  0  0  0  0  0  0  0  0  0  0
   18.6984   -5.9321  -16.3992 C   0  0  0  0  0  0  0  0  0  0  0  0
   17.2960   -6.3131  -16.3023 C   0  0  0  0  0  0  0  0  0  0  0  0
   16.1951   -5.3355  -16.2059 C   0  0  0  0  0  0  0  0  0  0  0  0
   14.8745   -5.7890  -15.9679 N   0  0  0  0  0  0  0  0  0  0  0  0
   21.3737   -5.6645  -15.1827 C   0  0  0  0  0  0  0  0  0  0  0  0
   21.9553   -6.1086  -14.2084 O   0  0  0  0  0  0  0  0  0  0  0  0
   20.8283   -4.3949  -15.1731 O   0  0  0  0  0  0  0  0  0  0  0  0
  2  1  1  0
  3  2  2  0
  4  2  1  0
  5  6  1  0
  5  4  1  0
  6  8  1  0
  6  7  1  6
  8  9  2  0
 11 10  1  0
 11 12  2  0
 13 11  1  0
 14 13  1  0
 15 14  1  6
 16 15  1  0
 16  8  1  0
 17 15  1  0
 17 18  2  0
 19 17  1  0
 20 19  1  0
 20 26  1  0
 20 21  1  1
 22 21  1  0
 23 22  1  0
 24 23  1  0
 25 24  1  0
 26 28  1  0
 27 26  2  0
M  END
$$$$
