QQK.pdb
     RDKit          3D

 28 27  0  0  1  0  0  0  0  0999 V2000
   24.3531  -11.5848  -21.1428 N   0  0  0  0  0  0  0  0  0  0  0  0
   24.2169  -13.0202  -21.1144 C   0  0  0  0  0  0  0  0  0  0  0  0
   25.2403  -13.6878  -21.4330 O   0  0  0  0  0  0  0  0  0  0  0  0
   22.9213  -13.5926  -20.7232 C   0  0  0  0  0  0  0  0  0  0  0  0
   21.8922  -12.5948  -20.3245 C   0  0  0  0  0  0  0  0  0  0  0  0
   21.7914  -12.3712  -18.8548 C   0  0  2  0  0  0  0  0  0  0  0  0
   21.2206  -13.5357  -18.2191 N   0  0  0  0  0  0  0  0  0  0  0  0
   21.0198  -11.1393  -18.5398 C   0  0  0  0  0  0  0  0  0  0  0  0
   20.7196  -10.3852  -19.4950 O   0  0  0  0  0  0  0  0  0  0  0  0
   17.0635  -10.7486  -13.9110 N   0  0  0  0  0  0  0  0  0  0  0  0
   16.8171  -11.1821  -15.2372 C   0  0  0  0  0  0  0  0  0  0  0  0
   15.7719  -11.8489  -15.4488 O   0  0  0  0  0  0  0  0  0  0  0  0
   17.7917  -10.8341  -16.3041 C   0  0  0  0  0  0  0  0  0  0  0  0
   18.8796   -9.9198  -15.7822 C   0  0  0  0  0  0  0  0  0  0  0  0
   19.7856   -9.6090  -16.9517 C   0  0  2  0  0  0  0  0  0  0  0  0
   20.6071  -10.7682  -17.2443 N   0  0  0  0  0  0  0  0  0  0  0  0
   20.7151   -8.4701  -16.6186 C   0  0  0  0  0  0  0  0  0  0  0  0
   21.8134   -8.6880  -16.0556 O   0  0  0  0  0  0  0  0  0  0  0  0
   20.3858   -7.1318  -16.9253 N   0  0  0  0  0  0  0  0  0  0  0  0
   21.1569   -5.9593  -16.6382 C   0  0  1  0  0  0  0  0  0  0  0  0
   20.8230   -4.7641  -17.4052 C   0  0  0  0  0  0  0  0  0  0  0  0
   21.5745   -4.2683  -18.5421 C   0  0  0  0  0  0  0  0  0  0  0  0
   21.2079   -3.0962  -19.3251 C   0  0  0  0  0  0  0  0  0  0  0  0
   21.9437   -2.6624  -20.5281 C   0  0  0  0  0  0  0  0  0  0  0  0
   21.4177   -1.6232  -21.3342 N   0  0  0  0  0  0  0  0  0  0  0  0
   20.8352   -5.5408  -15.1608 C   0  0  0  0  0  0  0  0  0  0  0  0
   19.9470   -6.0796  -14.5242 O   0  0  0  0  0  0  0  0  0  0  0  0
   21.6018   -4.5330  -14.6075 O   0  0  0  0  0  0  0  0  0  0  0  0
  2  1  1  0
  3  2  2  0
  4  2  1  0
  5  6  1  0
  5  4  1  0
  6  8  1  0
  6  7  1  1
  8  9  2  0
 11 10  1  0
 11 12  2  0
 13 11  1  0
 14 13  1  0
 15 14  1  1
 16 15  1  0
 16  8  1  0
 17 15  1  0
 17 18  2  0
 19 17  1  0
 20 19  1  0
 20 26  1  0
 20 21  1  6
 22 21  1  0
 23 22  1  0
 24 23  1  0
 25 24  1  0
 26 28  1  0
 27 26  2  0
M  END
$$$$
