QQK.pdb
     RDKit          3D

 28 27  0  0  1  0  0  0  0  0999 V2000
   13.2145  -12.6891  -14.3850 N   0  0  0  0  0  0  0  0  0  0  0  0
   14.3833  -13.5116  -14.1929 C   0  0  0  0  0  0  0  0  0  0  0  0
   14.2555  -14.7396  -14.4583 O   0  0  0  0  0  0  0  0  0  0  0  0
   15.6166  -12.8738  -13.7117 C   0  0  0  0  0  0  0  0  0  0  0  0
   15.5179  -11.4047  -13.4983 C   0  0  0  0  0  0  0  0  0  0  0  0
   15.4217  -10.9976  -12.0682 C   0  0  2  0  0  0  0  0  0  0  0  0
   14.1484  -11.4098  -11.5250 N   0  0  0  0  0  0  0  0  0  0  0  0
   15.6448   -9.5369  -11.8983 C   0  0  0  0  0  0  0  0  0  0  0  0
   14.6391   -8.7900  -11.9395 O   0  0  0  0  0  0  0  0  0  0  0  0
   15.3234   -6.2869   -7.7440 N   0  0  0  0  0  0  0  0  0  0  0  0
   16.1078   -5.3551   -8.4678 C   0  0  0  0  0  0  0  0  0  0  0  0
   16.2351   -4.2004   -7.9860 O   0  0  0  0  0  0  0  0  0  0  0  0
   16.7364   -5.7785   -9.7464 C   0  0  0  0  0  0  0  0  0  0  0  0
   16.4700   -7.2404  -10.0359 C   0  0  0  0  0  0  0  0  0  0  0  0
   17.1056   -7.5424  -11.3737 C   0  0  2  0  0  0  0  0  0  0  0  0
   16.9066   -8.9429  -11.6950 N   0  0  0  0  0  0  0  0  0  0  0  0
   18.5921   -7.2976  -11.3256 C   0  0  0  0  0  0  0  0  0  0  0  0
   19.2969   -7.8293  -10.4361 O   0  0  0  0  0  0  0  0  0  0  0  0
   19.2371   -6.4698  -12.2703 N   0  0  0  0  0  0  0  0  0  0  0  0
   20.6373   -6.4180  -12.5680 C   0  0  1  0  0  0  0  0  0  0  0  0
   21.0381   -6.9287  -13.8745 C   0  0  0  0  0  0  0  0  0  0  0  0
   20.9022   -8.3063  -14.3065 C   0  0  0  0  0  0  0  0  0  0  0  0
   21.2559   -8.7933  -15.6329 C   0  0  0  0  0  0  0  0  0  0  0  0
   21.2505  -10.2223  -15.9999 C   0  0  0  0  0  0  0  0  0  0  0  0
   22.3557  -11.0382  -15.6551 N   0  0  0  0  0  0  0  0  0  0  0  0
   21.0437   -4.9041  -12.6329 C   0  0  0  0  0  0  0  0  0  0  0  0
   20.2146   -4.0278  -12.8041 O   0  0  0  0  0  0  0  0  0  0  0  0
   22.3843   -4.6022  -12.4876 O   0  0  0  0  0  0  0  0  0  0  0  0
  2  1  1  0
  3  2  2  0
  4  2  1  0
  5  6  1  0
  5  4  1  0
  6  8  1  0
  6  7  1  6
  8  9  2  0
 11 10  1  0
 11 12  2  0
 13 11  1  0
 14 13  1  0
 15 14  1  1
 16 15  1  0
 16  8  1  0
 17 15  1  0
 17 18  2  0
 19 17  1  0
 20 19  1  0
 20 26  1  0
 20 21  1  6
 22 21  1  0
 23 22  1  0
 24 23  1  0
 25 24  1  0
 26 28  1  0
 27 26  2  0
M  END
$$$$
