QQK.pdb
     RDKit          3D

 28 27  0  0  1  0  0  0  0  0999 V2000
   17.1831  -15.7545  -16.3516 N   0  0  0  0  0  0  0  0  0  0  0  0
   18.5595  -15.9429  -15.9645 C   0  0  0  0  0  0  0  0  0  0  0  0
   18.8185  -16.9861  -15.3017 O   0  0  0  0  0  0  0  0  0  0  0  0
   19.5438  -14.9270  -16.3623 C   0  0  0  0  0  0  0  0  0  0  0  0
   18.9858  -13.7866  -17.1381 C   0  0  0  0  0  0  0  0  0  0  0  0
   19.6044  -12.4685  -16.8218 C   0  0  2  0  0  0  0  0  0  0  0  0
   20.5143  -12.6076  -15.7087 N   0  0  0  0  0  0  0  0  0  0  0  0
   18.5738  -11.4279  -16.5623 C   0  0  0  0  0  0  0  0  0  0  0  0
   17.6677  -11.2861  -17.4168 O   0  0  0  0  0  0  0  0  0  0  0  0
   16.0090   -9.6553  -11.1923 N   0  0  0  0  0  0  0  0  0  0  0  0
   15.3686   -8.8351  -12.1540 C   0  0  0  0  0  0  0  0  0  0  0  0
   14.3432   -8.2031  -11.7923 O   0  0  0  0  0  0  0  0  0  0  0  0
   15.9300   -8.7597  -13.5282 C   0  0  0  0  0  0  0  0  0  0  0  0
   17.0167   -9.7924  -13.7389 C   0  0  0  0  0  0  0  0  0  0  0  0
   17.5185   -9.6143  -15.1537 C   0  0  2  0  0  0  0  0  0  0  0  0
   18.5509  -10.5966  -15.4245 N   0  0  0  0  0  0  0  0  0  0  0  0
   18.1351   -8.2507  -15.3334 C   0  0  0  0  0  0  0  0  0  0  0  0
   18.8074   -7.7292  -14.4132 O   0  0  0  0  0  0  0  0  0  0  0  0
   17.9794   -7.5198  -16.5314 N   0  0  0  0  0  0  0  0  0  0  0  0
   18.1218   -6.1059  -16.7117 C   0  0  1  0  0  0  0  0  0  0  0  0
   17.0684   -5.4437  -17.4733 C   0  0  0  0  0  0  0  0  0  0  0  0
   16.9524   -4.0102  -17.6597 C   0  0  0  0  0  0  0  0  0  0  0  0
   16.2961   -3.3768  -18.7952 C   0  0  0  0  0  0  0  0  0  0  0  0
   16.1566   -1.9150  -18.9391 C   0  0  0  0  0  0  0  0  0  0  0  0
   15.4959   -1.3827  -20.0733 N   0  0  0  0  0  0  0  0  0  0  0  0
   18.0128   -5.4426  -15.2941 C   0  0  0  0  0  0  0  0  0  0  0  0
   17.0044   -5.5446  -14.6179 O   0  0  0  0  0  0  0  0  0  0  0  0
   19.1098   -4.7352  -14.8406 O   0  0  0  0  0  0  0  0  0  0  0  0
  2  1  1  0
  3  2  2  0
  4  2  1  0
  5  6  1  0
  5  4  1  0
  6  8  1  0
  6  7  1  1
  8  9  2  0
 11 10  1  0
 11 12  2  0
 13 11  1  0
 14 13  1  0
 15 14  1  1
 16 15  1  0
 16  8  1  0
 17 15  1  0
 17 18  2  0
 19 17  1  0
 20 19  1  0
 20 26  1  0
 20 21  1  6
 22 21  1  0
 23 22  1  0
 24 23  1  0
 25 24  1  0
 26 28  1  0
 27 26  2  0
M  END
$$$$
