QQK.pdb
     RDKit          3D

 28 27  0  0  1  0  0  0  0  0999 V2000
   25.4811  -20.4697   -8.1596 N   0  0  0  0  0  0  0  0  0  0  0  0
   26.8313  -20.4237   -8.6642 C   0  0  0  0  0  0  0  0  0  0  0  0
   27.7379  -20.1768   -7.8205 O   0  0  0  0  0  0  0  0  0  0  0  0
   27.0515  -20.6635  -10.0971 C   0  0  0  0  0  0  0  0  0  0  0  0
   25.8135  -20.8938  -10.8894 C   0  0  0  0  0  0  0  0  0  0  0  0
   26.0468  -21.0965  -12.3470 C   0  0  2  0  0  0  0  0  0  0  0  0
   27.1788  -20.3094  -12.7772 N   0  0  0  0  0  0  0  0  0  0  0  0
   24.8294  -20.7899  -13.1446 C   0  0  0  0  0  0  0  0  0  0  0  0
   24.3248  -19.6500  -13.0139 O   0  0  0  0  0  0  0  0  0  0  0  0
   26.0070  -21.2786  -16.2941 N   0  0  0  0  0  0  0  0  0  0  0  0
   25.3012  -20.1254  -16.7177 C   0  0  0  0  0  0  0  0  0  0  0  0
   25.9754  -19.1458  -17.1271 O   0  0  0  0  0  0  0  0  0  0  0  0
   23.8159  -20.1252  -16.6599 C   0  0  0  0  0  0  0  0  0  0  0  0
   23.2785  -21.4804  -16.2518 C   0  0  0  0  0  0  0  0  0  0  0  0
   22.9944  -21.4078  -14.7689 C   0  0  2  0  0  0  0  0  0  0  0  0
   24.2109  -21.6933  -14.0321 N   0  0  0  0  0  0  0  0  0  0  0  0
   21.9726  -22.4416  -14.3700 C   0  0  0  0  0  0  0  0  0  0  0  0
   22.3329  -23.5385  -13.8825 O   0  0  0  0  0  0  0  0  0  0  0  0
   20.5882  -22.2142  -14.5295 N   0  0  0  0  0  0  0  0  0  0  0  0
   19.5175  -23.1095  -14.2070 C   0  0  1  0  0  0  0  0  0  0  0  0
   18.9775  -23.0086  -12.8556 C   0  0  0  0  0  0  0  0  0  0  0  0
   17.9453  -23.8663  -12.3060 C   0  0  0  0  0  0  0  0  0  0  0  0
   17.3902  -23.7339  -10.9660 C   0  0  0  0  0  0  0  0  0  0  0  0
   16.3585  -24.6381  -10.4229 C   0  0  0  0  0  0  0  0  0  0  0  0
   15.9190  -24.4767   -9.0861 N   0  0  0  0  0  0  0  0  0  0  0  0
   18.2968  -22.7208  -15.1126 C   0  0  0  0  0  0  0  0  0  0  0  0
   17.3495  -23.4721  -15.2633 O   0  0  0  0  0  0  0  0  0  0  0  0
   18.3382  -21.4878  -15.7352 O   0  0  0  0  0  0  0  0  0  0  0  0
  2  1  1  0
  3  2  2  0
  4  2  1  0
  5  6  1  0
  5  4  1  0
  6  8  1  0
  6  7  1  6
  8  9  2  0
 11 10  1  0
 11 12  2  0
 13 11  1  0
 14 13  1  0
 15 14  1  6
 16 15  1  0
 16  8  1  0
 17 15  1  0
 17 18  2  0
 19 17  1  0
 20 19  1  0
 20 26  1  0
 20 21  1  1
 22 21  1  0
 23 22  1  0
 24 23  1  0
 25 24  1  0
 26 28  1  0
 27 26  2  0
M  END
$$$$
