QQK.pdb
     RDKit          3D

 28 27  0  0  1  0  0  0  0  0999 V2000
   20.9835  -13.1827    6.5568 N   0  0  0  0  0  0  0  0  0  0  0  0
   20.1472  -12.0149    6.6855 C   0  0  0  0  0  0  0  0  0  0  0  0
   20.4668  -11.1921    7.5886 O   0  0  0  0  0  0  0  0  0  0  0  0
   19.0048  -11.8682    5.7730 C   0  0  0  0  0  0  0  0  0  0  0  0
   18.8659  -12.9548    4.7662 C   0  0  0  0  0  0  0  0  0  0  0  0
   17.4702  -13.4409    4.5768 C   0  0  2  0  0  0  0  0  0  0  0  0
   16.5348  -12.4082    4.9572 N   0  0  0  0  0  0  0  0  0  0  0  0
   17.2250  -14.7055    5.3204 C   0  0  0  0  0  0  0  0  0  0  0  0
   16.7764  -14.6123    6.4871 O   0  0  0  0  0  0  0  0  0  0  0  0
   16.0329  -19.4631    1.4236 N   0  0  0  0  0  0  0  0  0  0  0  0
   16.3959  -19.6492    2.7804 C   0  0  0  0  0  0  0  0  0  0  0  0
   16.8088  -20.7865    3.1236 O   0  0  0  0  0  0  0  0  0  0  0  0
   16.2742  -18.5075    3.7243 C   0  0  0  0  0  0  0  0  0  0  0  0
   17.4858  -18.4042    4.6262 C   0  0  0  0  0  0  0  0  0  0  0  0
   17.2494  -17.2232    5.5396 C   0  0  2  0  0  0  0  0  0  0  0  0
   17.4632  -15.9936    4.8004 N   0  0  0  0  0  0  0  0  0  0  0  0
   18.2248  -17.2338    6.6888 C   0  0  0  0  0  0  0  0  0  0  0  0
   19.3321  -16.6553    6.5899 O   0  0  0  0  0  0  0  0  0  0  0  0
   17.9296  -17.8886    7.9045 N   0  0  0  0  0  0  0  0  0  0  0  0
   18.7500  -17.9563    9.0767 C   0  0  1  0  0  0  0  0  0  0  0  0
   18.3921  -17.0557   10.1671 C   0  0  0  0  0  0  0  0  0  0  0  0
   19.3358  -16.4319   11.0746 C   0  0  0  0  0  0  0  0  0  0  0  0
   18.9694  -15.5025   12.1345 C   0  0  0  0  0  0  0  0  0  0  0  0
   19.9517  -14.8818   13.0438 C   0  0  0  0  0  0  0  0  0  0  0  0
   19.5079  -13.9910   14.0517 N   0  0  0  0  0  0  0  0  0  0  0  0
   18.5485  -19.3799    9.7044 C   0  0  0  0  0  0  0  0  0  0  0  0
   17.6723  -20.1312    9.3137 O   0  0  0  0  0  0  0  0  0  0  0  0
   19.4070  -19.7500   10.7220 O   0  0  0  0  0  0  0  0  0  0  0  0
  2  1  1  0
  3  2  2  0
  4  2  1  0
  5  6  1  0
  5  4  1  0
  6  8  1  0
  6  7  1  1
  8  9  2  0
 11 10  1  0
 11 12  2  0
 13 11  1  0
 14 13  1  0
 15 14  1  6
 16 15  1  0
 16  8  1  0
 17 15  1  0
 17 18  2  0
 19 17  1  0
 20 19  1  0
 20 26  1  0
 20 21  1  1
 22 21  1  0
 23 22  1  0
 24 23  1  0
 25 24  1  0
 26 28  1  0
 27 26  2  0
M  END
$$$$
