QQK.pdb
     RDKit          3D

 28 27  0  0  1  0  0  0  0  0999 V2000
   30.4275  -21.7682  -18.9394 N   0  0  0  0  0  0  0  0  0  0  0  0
   29.1283  -21.1549  -18.8141 C   0  0  0  0  0  0  0  0  0  0  0  0
   28.2757  -21.4613  -19.6938 O   0  0  0  0  0  0  0  0  0  0  0  0
   28.8938  -20.2352  -17.6924 C   0  0  0  0  0  0  0  0  0  0  0  0
   27.6891  -20.5414  -16.8747 C   0  0  0  0  0  0  0  0  0  0  0  0
   27.8805  -21.6419  -15.8887 C   0  0  2  0  0  0  0  0  0  0  0  0
   28.0728  -22.8943  -16.5819 N   0  0  0  0  0  0  0  0  0  0  0  0
   26.7508  -21.7156  -14.9240 C   0  0  0  0  0  0  0  0  0  0  0  0
   25.6671  -22.1902  -15.3381 O   0  0  0  0  0  0  0  0  0  0  0  0
   26.6633  -20.2504   -8.6730 N   0  0  0  0  0  0  0  0  0  0  0  0
   25.3647  -20.7448   -8.9500 C   0  0  0  0  0  0  0  0  0  0  0  0
   24.5859  -20.9171   -7.9776 O   0  0  0  0  0  0  0  0  0  0  0  0
   24.9866  -21.0337  -10.3581 C   0  0  0  0  0  0  0  0  0  0  0  0
   26.1703  -20.8846  -11.2901 C   0  0  0  0  0  0  0  0  0  0  0  0
   25.6975  -21.2999  -12.6646 C   0  0  2  0  0  0  0  0  0  0  0  0
   26.8205  -21.2887  -13.5826 N   0  0  0  0  0  0  0  0  0  0  0  0
   24.6735  -20.3281  -13.1928 C   0  0  0  0  0  0  0  0  0  0  0  0
   24.9815  -19.1326  -13.4083 O   0  0  0  0  0  0  0  0  0  0  0  0
   23.3452  -20.7251  -13.4609 N   0  0  0  0  0  0  0  0  0  0  0  0
   22.2660  -19.8995  -13.9140 C   0  0  1  0  0  0  0  0  0  0  0  0
   22.0043  -19.9104  -15.3491 C   0  0  0  0  0  0  0  0  0  0  0  0
   20.9876  -19.1195  -16.0153 C   0  0  0  0  0  0  0  0  0  0  0  0
   20.7003  -19.1786  -17.4420 C   0  0  0  0  0  0  0  0  0  0  0  0
   19.7045  -18.3149  -18.1049 C   0  0  0  0  0  0  0  0  0  0  0  0
   19.4360  -18.4871  -19.4849 N   0  0  0  0  0  0  0  0  0  0  0  0
   20.9445  -20.4836  -13.3024 C   0  0  0  0  0  0  0  0  0  0  0  0
   20.9075  -21.5974  -12.8097 O   0  0  0  0  0  0  0  0  0  0  0  0
   19.8197  -19.6821  -13.3445 O   0  0  0  0  0  0  0  0  0  0  0  0
  2  1  1  0
  3  2  2  0
  4  2  1  0
  5  6  1  0
  5  4  1  0
  6  8  1  0
  6  7  1  6
  8  9  2  0
 11 10  1  0
 11 12  2  0
 13 11  1  0
 14 13  1  0
 15 14  1  1
 16 15  1  0
 16  8  1  0
 17 15  1  0
 17 18  2  0
 19 17  1  0
 20 19  1  0
 20 26  1  0
 20 21  1  6
 22 21  1  0
 23 22  1  0
 24 23  1  0
 25 24  1  0
 26 28  1  0
 27 26  2  0
M  END
$$$$
