PGQ.pdb
     RDKit          3D

 21 21  0  0  1  0  0  0  0  0999 V2000
    8.2532  -15.2763   19.2834 N   0  0  0  0  0  0  0  0  0  0  0  0
    8.6110  -14.4603   18.1305 C   0  0  0  0  0  0  0  0  0  0  0  0
    7.8136  -13.1988   18.3884 C   0  0  0  0  0  0  0  0  0  0  0  0
    7.8808  -13.0844   19.8971 C   0  0  0  0  0  0  0  0  0  0  0  0
    8.4770  -14.3734   20.3798 C   0  0  1  0  0  0  0  0  0  0  0  0
    7.7656  -14.7936   21.6132 C   0  0  0  0  0  0  0  0  0  0  0  0
    7.9087  -14.0637   22.6278 O   0  0  0  0  0  0  0  0  0  0  0  0
    6.9602  -15.9367   21.7042 N   0  0  0  0  0  0  0  0  0  0  0  0
    6.2041  -16.1954   22.9131 C   0  0  0  0  0  0  0  0  0  0  0  0
    7.1363  -16.6248   24.0161 C   0  0  0  0  0  0  0  0  0  0  0  0
    7.9276  -17.5705   23.8569 O   0  0  0  0  0  0  0  0  0  0  0  0
   10.5635  -14.1616   27.0104 N   0  0  0  0  0  0  0  0  0  0  0  0
   10.3317  -14.9044   28.1948 C   0  0  0  0  0  0  0  0  0  0  0  0
   11.2545  -15.1293   29.0185 O   0  0  0  0  0  0  0  0  0  0  0  0
    8.9721  -15.4165   28.4492 C   0  0  0  0  0  0  0  0  0  0  0  0
    8.0463  -15.0425   27.2850 C   0  0  0  0  0  0  0  0  0  0  0  0
    8.0751  -16.2144   26.3247 C   0  0  2  0  0  0  0  0  0  0  0  0
    7.1129  -15.9389   25.2611 N   0  0  0  0  0  0  0  0  0  0  0  0
    7.6759  -17.4530   27.0456 C   0  0  0  0  0  0  0  0  0  0  0  0
    6.4786  -17.7454   27.1666 O   0  0  0  0  0  0  0  0  0  0  0  0
    8.6584  -18.2699   27.5767 O   0  0  0  0  0  0  0  0  0  0  0  0
  1  2  1  0
  1  5  1  0
  2  3  1  0
  3  4  1  0
  5  4  1  0
  5  6  1  1
  6  7  2  0
  8  6  1  0
  9 10  1  0
  9  8  1  0
 10 18  1  0
 11 10  2  0
 13 12  1  0
 13 14  2  0
 15 13  1  0
 16 15  1  0
 17 16  1  1
 17 19  1  0
 18 17  1  0
 19 20  2  0
 19 21  1  0
M  END
$$$$
