PGQ.pdb
     RDKit          3D

 21 21  0  0  1  0  0  0  0  0999 V2000
    8.5352  -15.1442   18.7714 N   0  0  0  0  0  0  0  0  0  0  0  0
    8.5372  -14.3845   17.5280 C   0  0  0  0  0  0  0  0  0  0  0  0
    7.4033  -13.4085   17.7632 C   0  0  0  0  0  0  0  0  0  0  0  0
    7.5355  -13.1202   19.2443 C   0  0  0  0  0  0  0  0  0  0  0  0
    8.5390  -14.1056   19.7657 C   0  0  1  0  0  0  0  0  0  0  0  0
    8.0833  -14.5908   21.0927 C   0  0  0  0  0  0  0  0  0  0  0  0
    8.0500  -13.7469   22.0250 O   0  0  0  0  0  0  0  0  0  0  0  0
    7.6967  -15.9119   21.3551 N   0  0  0  0  0  0  0  0  0  0  0  0
    7.1873  -16.2710   22.6635 C   0  0  0  0  0  0  0  0  0  0  0  0
    8.2249  -15.9729   23.7145 C   0  0  0  0  0  0  0  0  0  0  0  0
    9.4385  -16.0024   23.4460 O   0  0  0  0  0  0  0  0  0  0  0  0
    6.4496  -12.3207   28.1807 N   0  0  0  0  0  0  0  0  0  0  0  0
    6.4982  -12.1659   26.7729 C   0  0  0  0  0  0  0  0  0  0  0  0
    5.9114  -11.2143   26.1977 O   0  0  0  0  0  0  0  0  0  0  0  0
    7.2582  -13.1523   25.9825 C   0  0  0  0  0  0  0  0  0  0  0  0
    7.9335  -14.1631   26.9178 C   0  0  0  0  0  0  0  0  0  0  0  0
    8.7287  -15.0993   26.0302 C   0  0  2  0  0  0  0  0  0  0  0  0
    7.8121  -15.6522   25.0366 N   0  0  0  0  0  0  0  0  0  0  0  0
    9.2903  -16.2028   26.8548 C   0  0  0  0  0  0  0  0  0  0  0  0
    8.7055  -17.2926   26.9193 O   0  0  0  0  0  0  0  0  0  0  0  0
   10.4708  -15.9941   27.5457 O   0  0  0  0  0  0  0  0  0  0  0  0
  1  2  1  0
  1  5  1  0
  2  3  1  0
  3  4  1  0
  5  4  1  0
  5  6  1  1
  6  7  2  0
  8  6  1  0
  9 10  1  0
  9  8  1  0
 10 18  1  0
 11 10  2  0
 13 12  1  0
 13 14  2  0
 15 13  1  0
 16 15  1  0
 17 16  1  1
 17 19  1  0
 18 17  1  0
 19 20  2  0
 19 21  1  0
M  END
$$$$
