PGQ.pdb
     RDKit          3D

 21 21  0  0  1  0  0  0  0  0999 V2000
    7.8308  -14.8813   18.6481 N   0  0  0  0  0  0  0  0  0  0  0  0
    7.7842  -14.0800   17.4320 C   0  0  0  0  0  0  0  0  0  0  0  0
    7.2581  -12.7596   17.9549 C   0  0  0  0  0  0  0  0  0  0  0  0
    7.9114  -12.6760   19.3188 C   0  0  0  0  0  0  0  0  0  0  0  0
    8.5358  -14.0188   19.5572 C   0  0  1  0  0  0  0  0  0  0  0  0
    8.3223  -14.3971   20.9767 C   0  0  0  0  0  0  0  0  0  0  0  0
    8.9198  -13.7088   21.8438 O   0  0  0  0  0  0  0  0  0  0  0  0
    7.5071  -15.4584   21.3923 N   0  0  0  0  0  0  0  0  0  0  0  0
    7.1618  -15.6011   22.7925 C   0  0  0  0  0  0  0  0  0  0  0  0
    8.3947  -15.9376   23.5905 C   0  0  0  0  0  0  0  0  0  0  0  0
    9.3957  -16.4361   23.0469 O   0  0  0  0  0  0  0  0  0  0  0  0
    9.6146  -13.5779   29.2946 N   0  0  0  0  0  0  0  0  0  0  0  0
   10.6539  -14.5305   29.1501 C   0  0  0  0  0  0  0  0  0  0  0  0
   11.5292  -14.6852   30.0392 O   0  0  0  0  0  0  0  0  0  0  0  0
   10.6927  -15.3486   27.9235 C   0  0  0  0  0  0  0  0  0  0  0  0
    9.4547  -15.0622   27.0646 C   0  0  0  0  0  0  0  0  0  0  0  0
    9.6115  -15.8872   25.8031 C   0  0  2  0  0  0  0  0  0  0  0  0
    8.4167  -15.6820   24.9887 N   0  0  0  0  0  0  0  0  0  0  0  0
    9.7236  -17.3258   26.1652 C   0  0  0  0  0  0  0  0  0  0  0  0
    8.7038  -18.0134   26.3100 O   0  0  0  0  0  0  0  0  0  0  0  0
   10.9790  -17.8816   26.3371 O   0  0  0  0  0  0  0  0  0  0  0  0
  1  2  1  0
  1  5  1  0
  2  3  1  0
  3  4  1  0
  5  4  1  0
  5  6  1  1
  6  7  2  0
  8  6  1  0
  9 10  1  0
  9  8  1  0
 10 18  1  0
 11 10  2  0
 13 12  1  0
 13 14  2  0
 15 13  1  0
 16 15  1  0
 17 16  1  1
 17 19  1  0
 18 17  1  0
 19 20  2  0
 19 21  1  0
M  END
$$$$
