PGQ.pdb
     RDKit          3D

 21 21  0  0  1  0  0  0  0  0999 V2000
    5.1202  -18.2400   22.5865 N   0  0  0  0  0  0  0  0  0  0  0  0
    3.7909  -18.8155   22.4286 C   0  0  0  0  0  0  0  0  0  0  0  0
    3.1963  -17.9246   21.3579 C   0  0  0  0  0  0  0  0  0  0  0  0
    4.3972  -17.6392   20.4803 C   0  0  0  0  0  0  0  0  0  0  0  0
    5.5859  -18.1660   21.2282 C   0  0  1  0  0  0  0  0  0  0  0  0
    6.7107  -17.2106   21.0669 C   0  0  0  0  0  0  0  0  0  0  0  0
    7.4385  -17.3568   20.0513 O   0  0  0  0  0  0  0  0  0  0  0  0
    6.9976  -16.1764   21.9678 N   0  0  0  0  0  0  0  0  0  0  0  0
    8.0786  -15.2523   21.6890 C   0  0  0  0  0  0  0  0  0  0  0  0
    9.1826  -15.4392   22.6971 C   0  0  0  0  0  0  0  0  0  0  0  0
   10.3776  -15.3540   22.3644 O   0  0  0  0  0  0  0  0  0  0  0  0
   10.7904  -14.6056   29.4061 N   0  0  0  0  0  0  0  0  0  0  0  0
    9.9261  -14.0325   28.4401 C   0  0  0  0  0  0  0  0  0  0  0  0
    8.9064  -13.3796   28.7785 O   0  0  0  0  0  0  0  0  0  0  0  0
   10.2463  -14.2169   27.0123 C   0  0  0  0  0  0  0  0  0  0  0  0
    9.1990  -15.1240   26.3545 C   0  0  0  0  0  0  0  0  0  0  0  0
    9.8546  -15.7037   25.1173 C   0  0  2  0  0  0  0  0  0  0  0  0
    8.8554  -15.7176   24.0522 N   0  0  0  0  0  0  0  0  0  0  0  0
   10.2974  -17.0956   25.3998 C   0  0  0  0  0  0  0  0  0  0  0  0
   11.4569  -17.3169   25.7747 O   0  0  0  0  0  0  0  0  0  0  0  0
    9.3983  -18.1348   25.2379 O   0  0  0  0  0  0  0  0  0  0  0  0
  1  2  1  0
  1  5  1  0
  2  3  1  0
  3  4  1  0
  5  4  1  0
  5  6  1  1
  6  7  2  0
  8  6  1  0
  9 10  1  0
  9  8  1  0
 10 18  1  0
 11 10  2  0
 13 12  1  0
 13 14  2  0
 15 13  1  0
 16 15  1  0
 17 16  1  1
 17 19  1  0
 18 17  1  0
 19 20  2  0
 19 21  1  0
M  END
$$$$
