PGQ.pdb
     RDKit          3D

 21 21  0  0  1  0  0  0  0  0999 V2000
    8.5703  -15.1646   18.3075 N   0  0  0  0  0  0  0  0  0  0  0  0
    8.6243  -14.4085   17.0631 C   0  0  0  0  0  0  0  0  0  0  0  0
    7.6055  -13.3183   17.3223 C   0  0  0  0  0  0  0  0  0  0  0  0
    7.8011  -13.0466   18.7995 C   0  0  0  0  0  0  0  0  0  0  0  0
    8.7063  -14.1329   19.2997 C   0  0  1  0  0  0  0  0  0  0  0  0
    8.2322  -14.5683   20.6375 C   0  0  0  0  0  0  0  0  0  0  0  0
    8.2125  -13.6965   21.5443 O   0  0  0  0  0  0  0  0  0  0  0  0
    7.8144  -15.8720   20.9364 N   0  0  0  0  0  0  0  0  0  0  0  0
    7.2222  -16.1648   22.2262 C   0  0  0  0  0  0  0  0  0  0  0  0
    8.2077  -15.8540   23.3227 C   0  0  0  0  0  0  0  0  0  0  0  0
    9.4019  -15.6213   23.0664 O   0  0  0  0  0  0  0  0  0  0  0  0
    5.2128  -12.5865   27.1758 N   0  0  0  0  0  0  0  0  0  0  0  0
    6.4344  -11.9230   26.9002 C   0  0  0  0  0  0  0  0  0  0  0  0
    6.5706  -10.6898   27.1036 O   0  0  0  0  0  0  0  0  0  0  0  0
    7.5585  -12.7129   26.3637 C   0  0  0  0  0  0  0  0  0  0  0  0
    7.1906  -14.2018   26.3478 C   0  0  0  0  0  0  0  0  0  0  0  0
    8.3388  -14.9168   25.6644 C   0  0  2  0  0  0  0  0  0  0  0  0
    7.7675  -15.8256   24.6742 N   0  0  0  0  0  0  0  0  0  0  0  0
    9.1030  -15.6992   26.6729 C   0  0  0  0  0  0  0  0  0  0  0  0
    9.8731  -15.1249   27.4545 O   0  0  0  0  0  0  0  0  0  0  0  0
    8.9411  -17.0725   26.7242 O   0  0  0  0  0  0  0  0  0  0  0  0
  1  2  1  0
  1  5  1  0
  2  3  1  0
  3  4  1  0
  5  4  1  0
  5  6  1  1
  6  7  2  0
  8  6  1  0
  9 10  1  0
  9  8  1  0
 10 18  1  0
 11 10  2  0
 13 12  1  0
 13 14  2  0
 15 13  1  0
 16 15  1  0
 17 16  1  1
 17 19  1  0
 18 17  1  0
 19 20  2  0
 19 21  1  0
M  END
$$$$
