PGQ.pdb
     RDKit          3D

 21 21  0  0  1  0  0  0  0  0999 V2000
    7.8036  -14.9188   19.0895 N   0  0  0  0  0  0  0  0  0  0  0  0
    7.6156  -14.0436   17.9397 C   0  0  0  0  0  0  0  0  0  0  0  0
    7.1167  -12.7746   18.5986 C   0  0  0  0  0  0  0  0  0  0  0  0
    7.9035  -12.7590   19.8927 C   0  0  0  0  0  0  0  0  0  0  0  0
    8.5784  -14.0959   19.9782 C   0  0  1  0  0  0  0  0  0  0  0  0
    8.5189  -14.5693   21.3839 C   0  0  0  0  0  0  0  0  0  0  0  0
    9.1928  -13.9254   22.2289 O   0  0  0  0  0  0  0  0  0  0  0  0
    7.7671  -15.6726   21.8096 N   0  0  0  0  0  0  0  0  0  0  0  0
    7.6037  -15.9346   23.2255 C   0  0  0  0  0  0  0  0  0  0  0  0
    8.9354  -16.2855   23.8368 C   0  0  0  0  0  0  0  0  0  0  0  0
    9.8949  -16.6368   23.1284 O   0  0  0  0  0  0  0  0  0  0  0  0
   10.8772  -14.2475   29.5781 N   0  0  0  0  0  0  0  0  0  0  0  0
    9.9047  -13.9755   28.5838 C   0  0  0  0  0  0  0  0  0  0  0  0
    8.8957  -13.2671   28.8305 O   0  0  0  0  0  0  0  0  0  0  0  0
   10.0977  -14.5443   27.2367 C   0  0  0  0  0  0  0  0  0  0  0  0
   10.2832  -16.0638   27.3325 C   0  0  0  0  0  0  0  0  0  0  0  0
   10.3522  -16.5749   25.9075 C   0  0  2  0  0  0  0  0  0  0  0  0
    9.1005  -16.2145   25.2470 N   0  0  0  0  0  0  0  0  0  0  0  0
   10.4972  -18.0555   25.9209 C   0  0  0  0  0  0  0  0  0  0  0  0
   11.6045  -18.5715   26.1247 O   0  0  0  0  0  0  0  0  0  0  0  0
    9.3812  -18.8439   25.7032 O   0  0  0  0  0  0  0  0  0  0  0  0
  1  2  1  0
  1  5  1  0
  2  3  1  0
  3  4  1  0
  5  4  1  0
  5  6  1  1
  6  7  2  0
  8  6  1  0
  9 10  1  0
  9  8  1  0
 10 18  1  0
 11 10  2  0
 13 12  1  0
 13 14  2  0
 15 13  1  0
 16 15  1  0
 17 16  1  1
 17 19  1  0
 18 17  1  0
 19 20  2  0
 19 21  1  0
M  END
$$$$
