PGQ.pdb
     RDKit          3D

 21 21  0  0  1  0  0  0  0  0999 V2000
    7.6697  -15.3183   19.0183 N   0  0  0  0  0  0  0  0  0  0  0  0
    7.9279  -14.9040   17.6454 C   0  0  0  0  0  0  0  0  0  0  0  0
    7.8549  -13.3957   17.7614 C   0  0  0  0  0  0  0  0  0  0  0  0
    8.4580  -13.1536   19.1295 C   0  0  0  0  0  0  0  0  0  0  0  0
    8.5938  -14.5065   19.7628 C   0  0  1  0  0  0  0  0  0  0  0  0
    8.2247  -14.3992   21.1967 C   0  0  0  0  0  0  0  0  0  0  0  0
    9.0484  -13.8236   21.9535 O   0  0  0  0  0  0  0  0  0  0  0  0
    7.0318  -14.8952   21.7396 N   0  0  0  0  0  0  0  0  0  0  0  0
    6.7071  -14.6399   23.1287 C   0  0  0  0  0  0  0  0  0  0  0  0
    7.5220  -15.5432   24.0176 C   0  0  0  0  0  0  0  0  0  0  0  0
    7.9708  -16.6238   23.5972 O   0  0  0  0  0  0  0  0  0  0  0  0
    9.9252  -15.5598   29.7765 N   0  0  0  0  0  0  0  0  0  0  0  0
   10.1070  -14.4289   28.9420 C   0  0  0  0  0  0  0  0  0  0  0  0
   10.9841  -13.5637   29.1927 O   0  0  0  0  0  0  0  0  0  0  0  0
    9.2390  -14.2810   27.7588 C   0  0  0  0  0  0  0  0  0  0  0  0
    8.2281  -15.4332   27.7047 C   0  0  0  0  0  0  0  0  0  0  0  0
    8.3770  -16.0663   26.3359 C   0  0  2  0  0  0  0  0  0  0  0  0
    7.7836  -15.1559   25.3602 N   0  0  0  0  0  0  0  0  0  0  0  0
    7.6488  -17.3634   26.3104 C   0  0  0  0  0  0  0  0  0  0  0  0
    6.4365  -17.3928   26.0591 O   0  0  0  0  0  0  0  0  0  0  0  0
    8.3435  -18.5314   26.5705 O   0  0  0  0  0  0  0  0  0  0  0  0
  1  2  1  0
  1  5  1  0
  2  3  1  0
  3  4  1  0
  5  4  1  0
  5  6  1  1
  6  7  2  0
  8  6  1  0
  9 10  1  0
  9  8  1  0
 10 18  1  0
 11 10  2  0
 13 12  1  0
 13 14  2  0
 15 13  1  0
 16 15  1  0
 17 16  1  1
 17 19  1  0
 18 17  1  0
 19 20  2  0
 19 21  1  0
M  END
$$$$
