PGQ.pdb
     RDKit          3D

 21 21  0  0  1  0  0  0  0  0999 V2000
    8.0707  -15.1609   19.9395 N   0  0  0  0  0  0  0  0  0  0  0  0
    7.9327  -14.9090   18.5110 C   0  0  0  0  0  0  0  0  0  0  0  0
    7.1570  -13.6083   18.5026 C   0  0  0  0  0  0  0  0  0  0  0  0
    7.7264  -12.8919   19.7094 C   0  0  0  0  0  0  0  0  0  0  0  0
    8.5707  -13.9037   20.4260 C   0  0  1  0  0  0  0  0  0  0  0  0
    8.3686  -13.7417   21.8878 C   0  0  0  0  0  0  0  0  0  0  0  0
    8.7205  -12.6439   22.3914 O   0  0  0  0  0  0  0  0  0  0  0  0
    7.8179  -14.7271   22.7181 N   0  0  0  0  0  0  0  0  0  0  0  0
    7.2893  -14.3659   24.0182 C   0  0  0  0  0  0  0  0  0  0  0  0
    6.9026  -15.6097   24.7755 C   0  0  0  0  0  0  0  0  0  0  0  0
    6.3129  -15.5396   25.8679 O   0  0  0  0  0  0  0  0  0  0  0  0
    4.5512  -19.0421   21.0007 N   0  0  0  0  0  0  0  0  0  0  0  0
    4.9932  -19.6110   22.2211 C   0  0  0  0  0  0  0  0  0  0  0  0
    5.0799  -20.8564   22.3700 O   0  0  0  0  0  0  0  0  0  0  0  0
    5.3547  -18.7065   23.3286 C   0  0  0  0  0  0  0  0  0  0  0  0
    6.6314  -19.2062   24.0161 C   0  0  0  0  0  0  0  0  0  0  0  0
    7.0412  -18.1222   24.9926 C   0  0  2  0  0  0  0  0  0  0  0  0
    7.2161  -16.8863   24.2343 N   0  0  0  0  0  0  0  0  0  0  0  0
    8.3304  -18.4971   25.6335 C   0  0  0  0  0  0  0  0  0  0  0  0
    9.3618  -17.8609   25.3780 O   0  0  0  0  0  0  0  0  0  0  0  0
    8.3597  -19.5628   26.5155 O   0  0  0  0  0  0  0  0  0  0  0  0
  1  2  1  0
  1  5  1  0
  2  3  1  0
  3  4  1  0
  5  4  1  0
  5  6  1  1
  6  7  2  0
  8  6  1  0
  9 10  1  0
  9  8  1  0
 10 18  1  0
 11 10  2  0
 13 12  1  0
 13 14  2  0
 15 13  1  0
 16 15  1  0
 17 16  1  6
 17 19  1  0
 18 17  1  0
 19 20  2  0
 19 21  1  0
M  END
$$$$
