PGQ.pdb
     RDKit          3D

 21 21  0  0  1  0  0  0  0  0999 V2000
    8.6928  -15.2564   18.6102 N   0  0  0  0  0  0  0  0  0  0  0  0
    8.8152  -14.5921   17.3191 C   0  0  0  0  0  0  0  0  0  0  0  0
    7.7494  -13.5212   17.4230 C   0  0  0  0  0  0  0  0  0  0  0  0
    7.8293  -13.1355   18.8855 C   0  0  0  0  0  0  0  0  0  0  0  0
    8.7267  -14.1508   19.5287 C   0  0  1  0  0  0  0  0  0  0  0  0
    8.1695  -14.5028   20.8589 C   0  0  0  0  0  0  0  0  0  0  0  0
    8.1506  -13.5914   21.7258 O   0  0  0  0  0  0  0  0  0  0  0  0
    7.6740  -15.7705   21.1920 N   0  0  0  0  0  0  0  0  0  0  0  0
    7.1106  -16.0054   22.5063 C   0  0  0  0  0  0  0  0  0  0  0  0
    8.1170  -15.6389   23.5660 C   0  0  0  0  0  0  0  0  0  0  0  0
    9.3327  -15.5933   23.3092 O   0  0  0  0  0  0  0  0  0  0  0  0
    5.9780  -10.5942   26.3090 N   0  0  0  0  0  0  0  0  0  0  0  0
    6.2789  -11.8874   26.8045 C   0  0  0  0  0  0  0  0  0  0  0  0
    5.8868  -12.2620   27.9389 O   0  0  0  0  0  0  0  0  0  0  0  0
    7.0699  -12.7991   25.9569 C   0  0  0  0  0  0  0  0  0  0  0  0
    7.6805  -13.9135   26.8157 C   0  0  0  0  0  0  0  0  0  0  0  0
    8.5466  -14.7405   25.8871 C   0  0  2  0  0  0  0  0  0  0  0  0
    7.6720  -15.3397   24.8826 N   0  0  0  0  0  0  0  0  0  0  0  0
    9.2173  -15.8164   26.6656 C   0  0  0  0  0  0  0  0  0  0  0  0
    8.7584  -16.9667   26.6623 O   0  0  0  0  0  0  0  0  0  0  0  0
   10.3566  -15.5138   27.3902 O   0  0  0  0  0  0  0  0  0  0  0  0
  1  2  1  0
  1  5  1  0
  2  3  1  0
  3  4  1  0
  5  4  1  0
  5  6  1  1
  6  7  2  0
  8  6  1  0
  9 10  1  0
  9  8  1  0
 10 18  1  0
 11 10  2  0
 13 12  1  0
 13 14  2  0
 15 13  1  0
 16 15  1  0
 17 16  1  1
 17 19  1  0
 18 17  1  0
 19 20  2  0
 19 21  1  0
M  END
$$$$
