PGQ.pdb
     RDKit          3D

 21 21  0  0  1  0  0  0  0  0999 V2000
    7.5911  -14.7382   18.6366 N   0  0  0  0  0  0  0  0  0  0  0  0
    7.8063  -13.6245   17.7221 C   0  0  0  0  0  0  0  0  0  0  0  0
    7.9281  -12.4590   18.6815 C   0  0  0  0  0  0  0  0  0  0  0  0
    8.6465  -13.0895   19.8563 C   0  0  0  0  0  0  0  0  0  0  0  0
    8.6561  -14.5651   19.5870 C   0  0  1  0  0  0  0  0  0  0  0  0
    8.3996  -15.2825   20.8612 C   0  0  0  0  0  0  0  0  0  0  0  0
    9.3141  -15.2509   21.7245 O   0  0  0  0  0  0  0  0  0  0  0  0
    7.2171  -15.9782   21.1462 N   0  0  0  0  0  0  0  0  0  0  0  0
    7.0220  -16.5689   22.4551 C   0  0  0  0  0  0  0  0  0  0  0  0
    7.1985  -15.5183   23.5205 C   0  0  0  0  0  0  0  0  0  0  0  0
    6.4543  -14.5235   23.5716 O   0  0  0  0  0  0  0  0  0  0  0  0
    5.2694  -12.8653   26.5747 N   0  0  0  0  0  0  0  0  0  0  0  0
    6.4724  -12.6521   27.2928 C   0  0  0  0  0  0  0  0  0  0  0  0
    6.8148  -11.5031   27.6713 O   0  0  0  0  0  0  0  0  0  0  0  0
    7.3280  -13.8154   27.5932 C   0  0  0  0  0  0  0  0  0  0  0  0
    7.1771  -14.8733   26.4929 C   0  0  0  0  0  0  0  0  0  0  0  0
    8.3964  -14.7388   25.6030 C   0  0  2  0  0  0  0  0  0  0  0  0
    8.2326  -15.6642   24.4851 N   0  0  0  0  0  0  0  0  0  0  0  0
    9.6139  -15.1051   26.3755 C   0  0  0  0  0  0  0  0  0  0  0  0
    9.9974  -14.3895   27.3107 O   0  0  0  0  0  0  0  0  0  0  0  0
   10.3082  -16.2524   26.0349 O   0  0  0  0  0  0  0  0  0  0  0  0
  1  2  1  0
  1  5  1  0
  2  3  1  0
  3  4  1  0
  5  4  1  0
  5  6  1  1
  6  7  2  0
  8  6  1  0
  9 10  1  0
  9  8  1  0
 10 18  1  0
 11 10  2  0
 13 12  1  0
 13 14  2  0
 15 13  1  0
 16 15  1  0
 17 16  1  1
 17 19  1  0
 18 17  1  0
 19 20  2  0
 19 21  1  0
M  END
$$$$
