PGQ.pdb
     RDKit          3D

 21 21  0  0  1  0  0  0  0  0999 V2000
    8.1019  -15.2352   18.3380 N   0  0  0  0  0  0  0  0  0  0  0  0
    7.9743  -14.4722   17.1032 C   0  0  0  0  0  0  0  0  0  0  0  0
    7.1691  -13.2752   17.5642 C   0  0  0  0  0  0  0  0  0  0  0  0
    7.7084  -13.0498   18.9615 C   0  0  0  0  0  0  0  0  0  0  0  0
    8.5675  -14.2409   19.2664 C   0  0  1  0  0  0  0  0  0  0  0  0
    8.3453  -14.6380   20.6795 C   0  0  0  0  0  0  0  0  0  0  0  0
    8.7630  -13.8469   21.5640 O   0  0  0  0  0  0  0  0  0  0  0  0
    7.7080  -15.8230   21.0711 N   0  0  0  0  0  0  0  0  0  0  0  0
    7.3547  -16.0299   22.4612 C   0  0  0  0  0  0  0  0  0  0  0  0
    8.6031  -16.0770   23.3035 C   0  0  0  0  0  0  0  0  0  0  0  0
    9.7314  -16.0526   22.7819 O   0  0  0  0  0  0  0  0  0  0  0  0
   11.2274  -13.2722   28.8745 N   0  0  0  0  0  0  0  0  0  0  0  0
   10.1049  -14.1047   28.6394 C   0  0  0  0  0  0  0  0  0  0  0  0
    8.9614  -13.7977   29.0623 O   0  0  0  0  0  0  0  0  0  0  0  0
   10.3021  -15.3538   27.8803 C   0  0  0  0  0  0  0  0  0  0  0  0
    9.0852  -15.6194   26.9853 C   0  0  0  0  0  0  0  0  0  0  0  0
    9.6309  -15.9295   25.6059 C   0  0  2  0  0  0  0  0  0  0  0  0
    8.4919  -16.1507   24.7189 N   0  0  0  0  0  0  0  0  0  0  0  0
   10.4576  -17.1648   25.6686 C   0  0  0  0  0  0  0  0  0  0  0  0
    9.9349  -18.2740   25.4948 O   0  0  0  0  0  0  0  0  0  0  0  0
   11.8133  -17.0561   25.9229 O   0  0  0  0  0  0  0  0  0  0  0  0
  1  2  1  0
  1  5  1  0
  2  3  1  0
  3  4  1  0
  5  4  1  0
  5  6  1  1
  6  7  2  0
  8  6  1  0
  9 10  1  0
  9  8  1  0
 10 18  1  0
 11 10  2  0
 13 12  1  0
 13 14  2  0
 15 13  1  0
 16 15  1  0
 17 16  1  1
 17 19  1  0
 18 17  1  0
 19 20  2  0
 19 21  1  0
M  END
$$$$
