TEF.pdb
     RDKit          3D

 28 28  0  0  1  0  0  0  0  0999 V2000
    9.0786  -12.5521   20.8415 C   0  0  0  0  0  0  0  0  0  0  0  0
    7.9569  -12.9512   19.9245 C   0  0  1  0  0  0  0  0  0  0  0  0
    7.8988  -12.0717   18.8487 O   0  0  0  0  0  0  0  0  0  0  0  0
    8.2634  -14.3290   19.3653 C   0  0  2  0  0  0  0  0  0  0  0  0
    7.3363  -14.7062   18.3382 N   0  0  0  0  0  0  0  0  0  0  0  0
    8.3131  -15.3488   20.4631 C   0  0  0  0  0  0  0  0  0  0  0  0
    7.3225  -16.0794   20.7271 O   0  0  0  0  0  0  0  0  0  0  0  0
    9.4800  -15.5341   21.2519 N   0  0  0  0  0  0  0  0  0  0  0  0
    9.5783  -16.6703   22.1617 C   0  0  1  0  0  0  0  0  0  0  0  0
   10.7826  -17.5050   21.9019 C   0  0  0  0  0  0  0  0  0  0  0  0
   10.7581  -18.2062   20.5735 C   0  0  0  0  0  0  0  0  0  0  0  0
   11.9091  -19.0871   20.3261 C   0  0  0  0  0  0  0  0  0  0  0  0
   12.7931  -18.8955   19.4617 O   0  0  0  0  0  0  0  0  0  0  0  0
    9.7185  -16.1500   23.5714 C   0  0  0  0  0  0  0  0  0  0  0  0
   10.6143  -15.3279   23.8433 O   0  0  0  0  0  0  0  0  0  0  0  0
   12.0648  -20.2417   21.0972 O   0  0  0  0  0  0  0  0  0  0  0  0
    8.8587  -16.5681   24.6053 N   0  0  0  0  0  0  0  0  0  0  0  0
    8.9090  -16.0774   25.9755 C   0  0  1  0  0  0  0  0  0  0  0  0
    7.5736  -15.7368   26.5070 C   0  0  0  0  0  0  0  0  0  0  0  0
    7.2806  -14.2979   26.3072 C   0  0  0  0  0  0  0  0  0  0  0  0
    6.1247  -13.9266   25.6239 C   0  0  0  0  0  0  0  0  0  0  0  0
    5.7850  -12.6144   25.4264 C   0  0  0  0  0  0  0  0  0  0  0  0
    6.6101  -11.6283   25.9175 C   0  0  0  0  0  0  0  0  0  0  0  0
    7.7533  -11.9796   26.5933 C   0  0  0  0  0  0  0  0  0  0  0  0
    8.0847  -13.2964   26.7860 C   0  0  0  0  0  0  0  0  0  0  0  0
    9.6246  -17.0531   26.7838 C   0  0  0  0  0  0  0  0  0  0  0  0
   10.0510  -16.8102   28.0742 O   0  0  0  0  0  0  0  0  0  0  0  0
    9.9085  -18.2162   26.3367 O   0  0  0  0  0  0  0  0  0  0  0  0
  2  4  1  0
  2  1  1  1
  2  3  1  0
  4  5  1  6
  6  4  1  0
  6  8  1  0
  7  6  2  0
  9  8  1  0
  9 10  1  6
 11 10  1  0
 12 11  1  0
 13 12  2  0
 14  9  1  0
 15 14  2  0
 16 12  1  0
 17 14  1  0
 18 17  1  0
 18 26  1  0
 19 20  1  0
 18 19  1  1
 20 25  2  0
 21 22  2  0
 21 20  1  0
 22 23  1  0
 23 24  2  0
 25 24  1  0
 26 27  1  0
 28 26  2  0
M  END
$$$$
