TEF.pdb
     RDKit          3D

 28 28  0  0  1  0  0  0  0  0999 V2000
    9.1028  -12.7274   20.8734 C   0  0  0  0  0  0  0  0  0  0  0  0
    7.7413  -13.0218   20.3095 C   0  0  1  0  0  0  0  0  0  0  0  0
    7.5682  -12.3223   19.1199 O   0  0  0  0  0  0  0  0  0  0  0  0
    7.6707  -14.5015   19.9776 C   0  0  2  0  0  0  0  0  0  0  0  0
    6.3999  -14.8631   19.4197 N   0  0  0  0  0  0  0  0  0  0  0  0
    7.9993  -15.3322   21.1816 C   0  0  0  0  0  0  0  0  0  0  0  0
    7.0971  -15.8713   21.8746 O   0  0  0  0  0  0  0  0  0  0  0  0
    9.3424  -15.5464   21.5916 N   0  0  0  0  0  0  0  0  0  0  0  0
    9.6647  -16.6303   22.5133 C   0  0  1  0  0  0  0  0  0  0  0  0
   10.9480  -17.3032   22.1743 C   0  0  0  0  0  0  0  0  0  0  0  0
   11.2792  -18.4620   23.0710 C   0  0  0  0  0  0  0  0  0  0  0  0
   12.5702  -19.1057   22.7862 C   0  0  0  0  0  0  0  0  0  0  0  0
   13.5427  -19.1536   23.5719 O   0  0  0  0  0  0  0  0  0  0  0  0
    9.8409  -16.0524   23.8964 C   0  0  0  0  0  0  0  0  0  0  0  0
   10.7145  -15.1882   24.1012 O   0  0  0  0  0  0  0  0  0  0  0  0
   12.7674  -19.7254   21.5497 O   0  0  0  0  0  0  0  0  0  0  0  0
    9.0397  -16.4627   24.9793 N   0  0  0  0  0  0  0  0  0  0  0  0
    9.1701  -15.9671   26.3424 C   0  0  1  0  0  0  0  0  0  0  0  0
    7.8755  -15.5605   26.9261 C   0  0  0  0  0  0  0  0  0  0  0  0
    7.4789  -14.2182   26.4392 C   0  0  0  0  0  0  0  0  0  0  0  0
    6.2572  -14.0635   25.7877 C   0  0  0  0  0  0  0  0  0  0  0  0
    5.8222  -12.8461   25.3347 C   0  0  0  0  0  0  0  0  0  0  0  0
    6.6153  -11.7379   25.5277 C   0  0  0  0  0  0  0  0  0  0  0  0
    7.8225  -11.8754   26.1686 C   0  0  0  0  0  0  0  0  0  0  0  0
    8.2492  -13.0987   26.6186 C   0  0  0  0  0  0  0  0  0  0  0  0
    9.8720  -16.9710   27.1279 C   0  0  0  0  0  0  0  0  0  0  0  0
   10.2651  -18.1956   26.6262 O   0  0  0  0  0  0  0  0  0  0  0  0
   10.1700  -16.7752   28.3551 O   0  0  0  0  0  0  0  0  0  0  0  0
  2  4  1  0
  2  1  1  6
  2  3  1  0
  4  5  1  1
  6  4  1  0
  6  8  1  0
  7  6  2  0
  9  8  1  0
  9 10  1  6
 11 10  1  0
 12 11  1  0
 13 12  2  0
 14  9  1  0
 15 14  2  0
 16 12  1  0
 17 14  1  0
 18 17  1  0
 18 26  1  0
 19 20  1  0
 18 19  1  1
 20 25  2  0
 21 22  2  0
 21 20  1  0
 22 23  1  0
 23 24  2  0
 25 24  1  0
 26 27  1  0
 28 26  2  0
M  END
$$$$
