TEF.pdb
     RDKit          3D

 28 28  0  0  1  0  0  0  0  0999 V2000
    7.4255  -14.1987   21.6114 C   0  0  0  0  0  0  0  0  0  0  0  0
    6.3610  -15.2590   21.6395 C   0  0  1  0  0  0  0  0  0  0  0  0
    5.4053  -14.9862   20.6666 O   0  0  0  0  0  0  0  0  0  0  0  0
    7.0010  -16.5889   21.2835 C   0  0  2  0  0  0  0  0  0  0  0  0
    6.0188  -17.5934   20.9950 N   0  0  0  0  0  0  0  0  0  0  0  0
    7.9405  -17.0326   22.3642 C   0  0  0  0  0  0  0  0  0  0  0  0
    7.7562  -18.1058   22.9959 O   0  0  0  0  0  0  0  0  0  0  0  0
    9.0785  -16.2610   22.7215 N   0  0  0  0  0  0  0  0  0  0  0  0
   10.3117  -16.9205   23.1367 C   0  0  1  0  0  0  0  0  0  0  0  0
   11.5150  -16.3452   22.4765 C   0  0  0  0  0  0  0  0  0  0  0  0
   12.8025  -17.0018   22.8865 C   0  0  0  0  0  0  0  0  0  0  0  0
   13.9571  -16.6637   22.0413 C   0  0  0  0  0  0  0  0  0  0  0  0
   13.9143  -16.4582   20.8078 O   0  0  0  0  0  0  0  0  0  0  0  0
   10.4983  -16.7077   24.6191 C   0  0  0  0  0  0  0  0  0  0  0  0
   11.5257  -17.1313   25.1824 O   0  0  0  0  0  0  0  0  0  0  0  0
   15.2222  -16.5533   22.6239 O   0  0  0  0  0  0  0  0  0  0  0  0
    9.5368  -16.0367   25.3990 N   0  0  0  0  0  0  0  0  0  0  0  0
    9.5763  -15.9262   26.8505 C   0  0  1  0  0  0  0  0  0  0  0  0
    8.3046  -15.4339   27.4182 C   0  0  0  0  0  0  0  0  0  0  0  0
    7.8783  -14.1844   26.7450 C   0  0  0  0  0  0  0  0  0  0  0  0
    6.6918  -14.1746   26.0149 C   0  0  0  0  0  0  0  0  0  0  0  0
    6.2309  -13.0467   25.3890 C   0  0  0  0  0  0  0  0  0  0  0  0
    6.9610  -11.8837   25.4825 C   0  0  0  0  0  0  0  0  0  0  0  0
    8.1329  -11.8785   26.1992 C   0  0  0  0  0  0  0  0  0  0  0  0
    8.5861  -13.0130   26.8224 C   0  0  0  0  0  0  0  0  0  0  0  0
    9.9978  -17.2083   27.3946 C   0  0  0  0  0  0  0  0  0  0  0  0
   10.2741  -17.4170   28.7310 O   0  0  0  0  0  0  0  0  0  0  0  0
   10.1422  -18.2379   26.6515 O   0  0  0  0  0  0  0  0  0  0  0  0
  2  4  1  0
  2  1  1  6
  2  3  1  0
  4  5  1  1
  6  4  1  0
  6  8  1  0
  7  6  2  0
  9  8  1  0
  9 10  1  6
 11 10  1  0
 12 11  1  0
 13 12  2  0
 14  9  1  0
 15 14  2  0
 16 12  1  0
 17 14  1  0
 18 17  1  0
 18 26  1  0
 19 20  1  0
 18 19  1  1
 20 25  2  0
 21 22  2  0
 21 20  1  0
 22 23  1  0
 23 24  2  0
 25 24  1  0
 26 27  1  0
 28 26  2  0
M  END
$$$$
