TEF.pdb
     RDKit          3D

 28 28  0  0  1  0  0  0  0  0999 V2000
    9.3202  -12.7327   20.3495 C   0  0  0  0  0  0  0  0  0  0  0  0
    8.1298  -13.0647   19.4946 C   0  0  1  0  0  0  0  0  0  0  0  0
    8.2264  -12.3940   18.2801 O   0  0  0  0  0  0  0  0  0  0  0  0
    8.1577  -14.5523   19.1926 C   0  0  2  0  0  0  0  0  0  0  0  0
    7.0509  -14.9509   18.3722 N   0  0  0  0  0  0  0  0  0  0  0  0
    8.2187  -15.3507   20.4599 C   0  0  0  0  0  0  0  0  0  0  0  0
    7.1758  -15.6567   21.0951 O   0  0  0  0  0  0  0  0  0  0  0  0
    9.4558  -15.7958   20.9981 N   0  0  0  0  0  0  0  0  0  0  0  0
    9.4755  -16.7007   22.1422 C   0  0  1  0  0  0  0  0  0  0  0  0
   10.3175  -17.9040   21.9017 C   0  0  0  0  0  0  0  0  0  0  0  0
   10.3861  -18.8392   23.0754 C   0  0  0  0  0  0  0  0  0  0  0  0
   11.1884  -20.0498   22.8461 C   0  0  0  0  0  0  0  0  0  0  0  0
   11.2407  -20.6895   21.7721 O   0  0  0  0  0  0  0  0  0  0  0  0
   10.0901  -15.9806   23.3175 C   0  0  0  0  0  0  0  0  0  0  0  0
   11.0652  -15.2252   23.1417 O   0  0  0  0  0  0  0  0  0  0  0  0
   11.9698  -20.5596   23.8861 O   0  0  0  0  0  0  0  0  0  0  0  0
    9.5918  -16.1355   24.6254 N   0  0  0  0  0  0  0  0  0  0  0  0
   10.1421  -15.4833   25.8055 C   0  0  1  0  0  0  0  0  0  0  0  0
   10.0827  -14.0098   25.7206 C   0  0  0  0  0  0  0  0  0  0  0  0
    8.6852  -13.5329   25.8460 C   0  0  0  0  0  0  0  0  0  0  0  0
    8.2282  -13.0802   27.0818 C   0  0  0  0  0  0  0  0  0  0  0  0
    6.9557  -12.6052   27.2584 C   0  0  0  0  0  0  0  0  0  0  0  0
    6.0981  -12.5726   26.1824 C   0  0  0  0  0  0  0  0  0  0  0  0
    6.5351  -13.0156   24.9577 C   0  0  0  0  0  0  0  0  0  0  0  0
    7.8112  -13.4894   24.7910 C   0  0  0  0  0  0  0  0  0  0  0  0
    9.4744  -16.0250   26.9795 C   0  0  0  0  0  0  0  0  0  0  0  0
    9.8596  -15.7434   28.2750 O   0  0  0  0  0  0  0  0  0  0  0  0
    8.4724  -16.8117   26.8785 O   0  0  0  0  0  0  0  0  0  0  0  0
  2  4  1  0
  2  1  1  1
  2  3  1  0
  4  5  1  1
  6  4  1  0
  6  8  1  0
  7  6  2  0
  9  8  1  0
  9 10  1  6
 11 10  1  0
 12 11  1  0
 13 12  2  0
 14  9  1  0
 15 14  2  0
 16 12  1  0
 17 14  1  0
 18 17  1  0
 18 26  1  0
 19 20  1  0
 18 19  1  6
 20 25  2  0
 21 22  2  0
 21 20  1  0
 22 23  1  0
 23 24  2  0
 25 24  1  0
 26 27  1  0
 28 26  2  0
M  END
$$$$
