TEF.pdb
     RDKit          3D

 28 28  0  0  1  0  0  0  0  0999 V2000
    8.2020  -12.5199   18.9224 C   0  0  0  0  0  0  0  0  0  0  0  0
    8.5895  -13.3111   20.1398 C   0  0  1  0  0  0  0  0  0  0  0  0
    8.2842  -12.5837   21.2853 O   0  0  0  0  0  0  0  0  0  0  0  0
    7.7534  -14.5779   20.1731 C   0  0  2  0  0  0  0  0  0  0  0  0
    6.3528  -14.2961   20.0465 N   0  0  0  0  0  0  0  0  0  0  0  0
    8.0447  -15.3745   21.4092 C   0  0  0  0  0  0  0  0  0  0  0  0
    7.2452  -15.3957   22.3814 O   0  0  0  0  0  0  0  0  0  0  0  0
    9.2352  -16.1392   21.5361 N   0  0  0  0  0  0  0  0  0  0  0  0
    9.4306  -17.0069   22.6924 C   0  0  1  0  0  0  0  0  0  0  0  0
   10.3863  -18.1142   22.4182 C   0  0  0  0  0  0  0  0  0  0  0  0
   10.6179  -19.0192   23.5947 C   0  0  0  0  0  0  0  0  0  0  0  0
   11.5638  -20.1167   23.3446 C   0  0  0  0  0  0  0  0  0  0  0  0
   11.2708  -21.2216   22.8359 O   0  0  0  0  0  0  0  0  0  0  0  0
   10.0337  -16.1930   23.8112 C   0  0  0  0  0  0  0  0  0  0  0  0
   11.0276  -15.4750   23.5901 O   0  0  0  0  0  0  0  0  0  0  0  0
   12.9080  -19.9527   23.6883 O   0  0  0  0  0  0  0  0  0  0  0  0
    9.5035  -16.2176   25.1155 N   0  0  0  0  0  0  0  0  0  0  0  0
   10.1591  -15.6556   26.2882 C   0  0  1  0  0  0  0  0  0  0  0  0
    9.9613  -14.1965   26.4059 C   0  0  0  0  0  0  0  0  0  0  0  0
    8.5196  -13.8569   26.3566 C   0  0  0  0  0  0  0  0  0  0  0  0
    8.1331  -12.5861   25.9363 C   0  0  0  0  0  0  0  0  0  0  0  0
    6.8169  -12.2175   25.8464 C   0  0  0  0  0  0  0  0  0  0  0  0
    5.8421  -13.1297   26.1813 C   0  0  0  0  0  0  0  0  0  0  0  0
    6.2085  -14.3866   26.5973 C   0  0  0  0  0  0  0  0  0  0  0  0
    7.5291  -14.7461   26.6840 C   0  0  0  0  0  0  0  0  0  0  0  0
    9.7162  -16.3983   27.4585 C   0  0  0  0  0  0  0  0  0  0  0  0
    8.8237  -17.4500   27.4028 O   0  0  0  0  0  0  0  0  0  0  0  0
   10.1343  -16.1133   28.6321 O   0  0  0  0  0  0  0  0  0  0  0  0
  2  4  1  0
  2  1  1  6
  2  3  1  0
  4  5  1  1
  6  4  1  0
  6  8  1  0
  7  6  2  0
  9  8  1  0
  9 10  1  6
 11 10  1  0
 12 11  1  0
 13 12  2  0
 14  9  1  0
 15 14  2  0
 16 12  1  0
 17 14  1  0
 18 17  1  0
 18 26  1  0
 19 20  1  0
 18 19  1  1
 20 25  2  0
 21 22  2  0
 21 20  1  0
 22 23  1  0
 23 24  2  0
 25 24  1  0
 26 27  1  0
 28 26  2  0
M  END
$$$$
