TEF.pdb
     RDKit          3D

 28 28  0  0  1  0  0  0  0  0999 V2000
    9.4441  -12.9969   19.9148 C   0  0  0  0  0  0  0  0  0  0  0  0
    7.9922  -13.2704   19.6402 C   0  0  1  0  0  0  0  0  0  0  0  0
    7.5808  -12.5362   18.5329 O   0  0  0  0  0  0  0  0  0  0  0  0
    7.8401  -14.7397   19.2898 C   0  0  2  0  0  0  0  0  0  0  0  0
    6.4787  -15.0791   18.9926 N   0  0  0  0  0  0  0  0  0  0  0  0
    8.3978  -15.6060   20.3788 C   0  0  0  0  0  0  0  0  0  0  0  0
    7.6951  -15.9620   21.3607 O   0  0  0  0  0  0  0  0  0  0  0  0
    9.7429  -16.0621   20.3490 N   0  0  0  0  0  0  0  0  0  0  0  0
   10.2102  -17.0348   21.3307 C   0  0  1  0  0  0  0  0  0  0  0  0
   11.4635  -17.7154   20.9057 C   0  0  0  0  0  0  0  0  0  0  0  0
   11.9856  -18.7040   21.9090 C   0  0  0  0  0  0  0  0  0  0  0  0
   13.2116  -19.4034   21.4969 C   0  0  0  0  0  0  0  0  0  0  0  0
   13.8036  -20.2793   22.1661 O   0  0  0  0  0  0  0  0  0  0  0  0
   10.5352  -16.3091   22.6135 C   0  0  0  0  0  0  0  0  0  0  0  0
   11.0988  -15.1987   22.5726 O   0  0  0  0  0  0  0  0  0  0  0  0
   13.7944  -19.0940   20.2654 O   0  0  0  0  0  0  0  0  0  0  0  0
   10.2186  -16.8521   23.8736 N   0  0  0  0  0  0  0  0  0  0  0  0
   10.5154  -16.2158   25.1494 C   0  0  1  0  0  0  0  0  0  0  0  0
    9.2967  -15.8518   25.9005 C   0  0  0  0  0  0  0  0  0  0  0  0
    9.6468  -15.1989   27.1839 C   0  0  0  0  0  0  0  0  0  0  0  0
    9.5729  -13.8113   27.2847 C   0  0  0  0  0  0  0  0  0  0  0  0
    9.8606  -13.1491   28.4488 C   0  0  0  0  0  0  0  0  0  0  0  0
   10.2351  -13.8749   29.5567 C   0  0  0  0  0  0  0  0  0  0  0  0
   10.3122  -15.2439   29.4720 C   0  0  0  0  0  0  0  0  0  0  0  0
   10.0221  -15.8977   28.3019 C   0  0  0  0  0  0  0  0  0  0  0  0
   11.4188  -17.0817   25.8921 C   0  0  0  0  0  0  0  0  0  0  0  0
   12.5945  -16.6441   26.4684 O   0  0  0  0  0  0  0  0  0  0  0  0
   11.1731  -18.3251   26.0563 O   0  0  0  0  0  0  0  0  0  0  0  0
  2  4  1  0
  2  1  1  6
  2  3  1  0
  4  5  1  1
  6  4  1  0
  6  8  1  0
  7  6  2  0
  9  8  1  0
  9 10  1  6
 11 10  1  0
 12 11  1  0
 13 12  2  0
 14  9  1  0
 15 14  2  0
 16 12  1  0
 17 14  1  0
 18 17  1  0
 18 26  1  0
 19 20  1  0
 18 19  1  1
 20 25  2  0
 21 22  2  0
 21 20  1  0
 22 23  1  0
 23 24  2  0
 25 24  1  0
 26 27  1  0
 28 26  2  0
M  END
$$$$
