TEF.pdb
     RDKit          3D

 28 28  0  0  1  0  0  0  0  0999 V2000
    7.6735  -12.2719   19.6429 C   0  0  0  0  0  0  0  0  0  0  0  0
    7.9093  -13.2511   20.7582 C   0  0  1  0  0  0  0  0  0  0  0  0
    6.7652  -13.3482   21.5431 O   0  0  0  0  0  0  0  0  0  0  0  0
    8.1566  -14.6195   20.1491 C   0  0  2  0  0  0  0  0  0  0  0  0
    7.0402  -15.0648   19.3666 N   0  0  0  0  0  0  0  0  0  0  0  0
    8.5173  -15.6158   21.2097 C   0  0  0  0  0  0  0  0  0  0  0  0
    7.6771  -16.4461   21.6449 O   0  0  0  0  0  0  0  0  0  0  0  0
    9.8224  -15.6654   21.7686 N   0  0  0  0  0  0  0  0  0  0  0  0
   10.1993  -16.7590   22.6575 C   0  0  1  0  0  0  0  0  0  0  0  0
   11.5959  -17.2206   22.4317 C   0  0  0  0  0  0  0  0  0  0  0  0
   11.9870  -18.4012   23.2743 C   0  0  0  0  0  0  0  0  0  0  0  0
   13.3799  -18.8398   23.1028 C   0  0  0  0  0  0  0  0  0  0  0  0
   14.0529  -19.4592   23.9566 O   0  0  0  0  0  0  0  0  0  0  0  0
   10.1404  -16.2659   24.0827 C   0  0  0  0  0  0  0  0  0  0  0  0
   10.8076  -15.2702   24.4228 O   0  0  0  0  0  0  0  0  0  0  0  0
   14.0417  -18.5622   21.9041 O   0  0  0  0  0  0  0  0  0  0  0  0
    9.3453  -16.9019   25.0554 N   0  0  0  0  0  0  0  0  0  0  0  0
    9.3109  -16.5391   26.4653 C   0  0  1  0  0  0  0  0  0  0  0  0
    7.9540  -16.1832   26.9281 C   0  0  0  0  0  0  0  0  0  0  0  0
    7.6352  -14.7769   26.5863 C   0  0  0  0  0  0  0  0  0  0  0  0
    6.5932  -14.5105   25.7007 C   0  0  0  0  0  0  0  0  0  0  0  0
    6.2335  -13.2329   25.3621 C   0  0  0  0  0  0  0  0  0  0  0  0
    6.9216  -12.1758   25.9128 C   0  0  0  0  0  0  0  0  0  0  0  0
    7.9514  -12.4234   26.7877 C   0  0  0  0  0  0  0  0  0  0  0  0
    8.3039  -13.7062   27.1205 C   0  0  0  0  0  0  0  0  0  0  0  0
    9.9211  -17.6171   27.2290 C   0  0  0  0  0  0  0  0  0  0  0  0
   10.1833  -17.5408   28.5822 O   0  0  0  0  0  0  0  0  0  0  0  0
   10.2594  -18.7205   26.6801 O   0  0  0  0  0  0  0  0  0  0  0  0
  2  4  1  0
  2  1  1  6
  2  3  1  0
  4  5  1  1
  6  4  1  0
  6  8  1  0
  7  6  2  0
  9  8  1  0
  9 10  1  6
 11 10  1  0
 12 11  1  0
 13 12  2  0
 14  9  1  0
 15 14  2  0
 16 12  1  0
 17 14  1  0
 18 17  1  0
 18 26  1  0
 19 20  1  0
 18 19  1  1
 20 25  2  0
 21 22  2  0
 21 20  1  0
 22 23  1  0
 23 24  2  0
 25 24  1  0
 26 27  1  0
 28 26  2  0
M  END
$$$$
