TEF.pdb
     RDKit          3D

 28 28  0  0  1  0  0  0  0  0999 V2000
    7.7305  -12.4818   19.9855 C   0  0  0  0  0  0  0  0  0  0  0  0
    8.2283  -13.3692   21.0914 C   0  0  1  0  0  0  0  0  0  0  0  0
    7.6403  -12.9904   22.2936 O   0  0  0  0  0  0  0  0  0  0  0  0
    7.7845  -14.7915   20.8000 C   0  0  2  0  0  0  0  0  0  0  0  0
    6.3653  -14.8797   20.6127 N   0  0  0  0  0  0  0  0  0  0  0  0
    8.2569  -15.7259   21.8729 C   0  0  0  0  0  0  0  0  0  0  0  0
    7.4503  -16.2769   22.6669 O   0  0  0  0  0  0  0  0  0  0  0  0
    9.6347  -16.0292   22.0392 N   0  0  0  0  0  0  0  0  0  0  0  0
   10.0621  -16.9532   23.0841 C   0  0  1  0  0  0  0  0  0  0  0  0
   11.3861  -17.5676   22.7941 C   0  0  0  0  0  0  0  0  0  0  0  0
   11.3839  -18.4730   21.5954 C   0  0  0  0  0  0  0  0  0  0  0  0
   12.7128  -18.7296   21.0209 C   0  0  0  0  0  0  0  0  0  0  0  0
   13.6461  -19.3303   21.5985 O   0  0  0  0  0  0  0  0  0  0  0  0
   10.2239  -16.1844   24.3727 C   0  0  0  0  0  0  0  0  0  0  0  0
   10.9825  -15.1970   24.4151 O   0  0  0  0  0  0  0  0  0  0  0  0
   12.9967  -18.2831   19.7279 O   0  0  0  0  0  0  0  0  0  0  0  0
    9.5367  -16.5502   25.5461 N   0  0  0  0  0  0  0  0  0  0  0  0
    9.6634  -15.8706   26.8278 C   0  0  1  0  0  0  0  0  0  0  0  0
    8.3581  -15.4654   27.3882 C   0  0  0  0  0  0  0  0  0  0  0  0
    7.8841  -14.2100   26.7593 C   0  0  0  0  0  0  0  0  0  0  0  0
    8.6978  -13.0798   26.7970 C   0  0  0  0  0  0  0  0  0  0  0  0
    8.3281  -11.8963   26.2147 C   0  0  0  0  0  0  0  0  0  0  0  0
    7.1142  -11.8177   25.5707 C   0  0  0  0  0  0  0  0  0  0  0  0
    6.3015  -12.9243   25.5256 C   0  0  0  0  0  0  0  0  0  0  0  0
    6.6806  -14.1048   26.1116 C   0  0  0  0  0  0  0  0  0  0  0  0
   10.4404  -16.7186   27.7192 C   0  0  0  0  0  0  0  0  0  0  0  0
   10.9084  -17.9691   27.3682 O   0  0  0  0  0  0  0  0  0  0  0  0
   10.7397  -16.3491   28.9054 O   0  0  0  0  0  0  0  0  0  0  0  0
  2  4  1  0
  2  1  1  6
  2  3  1  0
  4  5  1  1
  6  4  1  0
  6  8  1  0
  7  6  2  0
  9  8  1  0
  9 10  1  6
 11 10  1  0
 12 11  1  0
 13 12  2  0
 14  9  1  0
 15 14  2  0
 16 12  1  0
 17 14  1  0
 18 17  1  0
 18 26  1  0
 19 20  1  0
 18 19  1  1
 20 25  2  0
 21 22  2  0
 21 20  1  0
 22 23  1  0
 23 24  2  0
 25 24  1  0
 26 27  1  0
 28 26  2  0
M  END
$$$$
