TEF.pdb
     RDKit          3D

 28 28  0  0  1  0  0  0  0  0999 V2000
    7.9097  -12.2904   18.9627 C   0  0  0  0  0  0  0  0  0  0  0  0
    8.3599  -13.2357   20.0407 C   0  0  1  0  0  0  0  0  0  0  0  0
    7.8271  -12.8377   21.2622 O   0  0  0  0  0  0  0  0  0  0  0  0
    7.8021  -14.6136   19.7321 C   0  0  2  0  0  0  0  0  0  0  0  0
    6.3860  -14.5779   19.5077 N   0  0  0  0  0  0  0  0  0  0  0  0
    8.1633  -15.5873   20.8132 C   0  0  0  0  0  0  0  0  0  0  0  0
    7.3032  -16.0158   21.6265 O   0  0  0  0  0  0  0  0  0  0  0  0
    9.4914  -16.0679   20.9661 N   0  0  0  0  0  0  0  0  0  0  0  0
    9.8006  -17.0571   21.9927 C   0  0  1  0  0  0  0  0  0  0  0  0
   11.1823  -17.5953   21.8669 C   0  0  0  0  0  0  0  0  0  0  0  0
   11.5510  -18.5745   22.9448 C   0  0  0  0  0  0  0  0  0  0  0  0
   12.9294  -19.0802   22.8657 C   0  0  0  0  0  0  0  0  0  0  0  0
   13.9205  -18.5688   23.4329 O   0  0  0  0  0  0  0  0  0  0  0  0
    9.7264  -16.3901   23.3446 C   0  0  0  0  0  0  0  0  0  0  0  0
   10.4354  -15.3942   23.5849 O   0  0  0  0  0  0  0  0  0  0  0  0
   13.1965  -20.2219   22.1060 O   0  0  0  0  0  0  0  0  0  0  0  0
    8.8706  -16.8619   24.3585 N   0  0  0  0  0  0  0  0  0  0  0  0
    8.7273  -16.2524   25.6733 C   0  0  1  0  0  0  0  0  0  0  0  0
    7.3653  -15.7340   25.9144 C   0  0  0  0  0  0  0  0  0  0  0  0
    7.3855  -14.2610   26.0761 C   0  0  0  0  0  0  0  0  0  0  0  0
    6.1798  -13.5698   26.1727 C   0  0  0  0  0  0  0  0  0  0  0  0
    6.1305  -12.2119   26.3464 C   0  0  0  0  0  0  0  0  0  0  0  0
    7.3083  -11.5045   26.4285 C   0  0  0  0  0  0  0  0  0  0  0  0
    8.5047  -12.1729   26.3349 C   0  0  0  0  0  0  0  0  0  0  0  0
    8.5436  -13.5327   26.1611 C   0  0  0  0  0  0  0  0  0  0  0  0
    9.1685  -17.2137   26.6726 C   0  0  0  0  0  0  0  0  0  0  0  0
    9.5784  -18.4967   26.3694 O   0  0  0  0  0  0  0  0  0  0  0  0
    9.2010  -16.9218   27.9164 O   0  0  0  0  0  0  0  0  0  0  0  0
  2  4  1  0
  2  1  1  6
  2  3  1  0
  4  5  1  1
  6  4  1  0
  6  8  1  0
  7  6  2  0
  9  8  1  0
  9 10  1  6
 11 10  1  0
 12 11  1  0
 13 12  2  0
 14  9  1  0
 15 14  2  0
 16 12  1  0
 17 14  1  0
 18 17  1  0
 18 26  1  0
 19 20  1  0
 18 19  1  1
 20 25  2  0
 21 22  2  0
 21 20  1  0
 22 23  1  0
 23 24  2  0
 25 24  1  0
 26 27  1  0
 28 26  2  0
M  END
$$$$
