TEF.pdb
     RDKit          3D

 28 28  0  0  1  0  0  0  0  0999 V2000
    9.3947  -13.0401   20.0670 C   0  0  0  0  0  0  0  0  0  0  0  0
    8.3054  -13.3667   19.0845 C   0  0  1  0  0  0  0  0  0  0  0  0
    8.6968  -12.9775   17.8080 O   0  0  0  0  0  0  0  0  0  0  0  0
    8.1190  -14.8732   19.0602 C   0  0  2  0  0  0  0  0  0  0  0  0
    7.1179  -15.2716   18.1138 N   0  0  0  0  0  0  0  0  0  0  0  0
    7.8160  -15.3932   20.4332 C   0  0  0  0  0  0  0  0  0  0  0  0
    6.7107  -15.1686   20.9923 O   0  0  0  0  0  0  0  0  0  0  0  0
    8.7632  -16.1615   21.1618 N   0  0  0  0  0  0  0  0  0  0  0  0
    8.4183  -16.7010   22.4726 C   0  0  1  0  0  0  0  0  0  0  0  0
    8.5787  -18.1790   22.5400 C   0  0  0  0  0  0  0  0  0  0  0  0
    7.4679  -18.9394   21.8733 C   0  0  0  0  0  0  0  0  0  0  0  0
    6.7797  -19.9044   22.7435 C   0  0  0  0  0  0  0  0  0  0  0  0
    6.0007  -19.6084   23.6768 O   0  0  0  0  0  0  0  0  0  0  0  0
    9.3647  -16.1242   23.4971 C   0  0  0  0  0  0  0  0  0  0  0  0
   10.5047  -15.7586   23.1522 O   0  0  0  0  0  0  0  0  0  0  0  0
    6.9853  -21.2720   22.5452 O   0  0  0  0  0  0  0  0  0  0  0  0
    8.9979  -15.9831   24.8492 N   0  0  0  0  0  0  0  0  0  0  0  0
    9.8611  -15.4446   25.8911 C   0  0  1  0  0  0  0  0  0  0  0  0
   10.0020  -13.9764   25.8106 C   0  0  0  0  0  0  0  0  0  0  0  0
    8.7048  -13.3097   26.0733 C   0  0  0  0  0  0  0  0  0  0  0  0
    7.7588  -13.2341   25.0533 C   0  0  0  0  0  0  0  0  0  0  0  0
    6.5327  -12.6521   25.2385 C   0  0  0  0  0  0  0  0  0  0  0  0
    6.2219  -12.1240   26.4710 C   0  0  0  0  0  0  0  0  0  0  0  0
    7.1449  -12.1914   27.4862 C   0  0  0  0  0  0  0  0  0  0  0  0
    8.3699  -12.7762   27.2908 C   0  0  0  0  0  0  0  0  0  0  0  0
    9.3686  -15.9113   27.1784 C   0  0  0  0  0  0  0  0  0  0  0  0
    8.2274  -16.6735   27.3286 O   0  0  0  0  0  0  0  0  0  0  0  0
    9.9748  -15.6353   28.2691 O   0  0  0  0  0  0  0  0  0  0  0  0
  2  4  1  0
  2  1  1  1
  2  3  1  0
  4  5  1  6
  6  4  1  0
  6  8  1  0
  7  6  2  0
  9  8  1  0
  9 10  1  6
 11 10  1  0
 12 11  1  0
 13 12  2  0
 14  9  1  0
 15 14  2  0
 16 12  1  0
 17 14  1  0
 18 17  1  0
 18 26  1  0
 19 20  1  0
 18 19  1  1
 20 25  2  0
 21 22  2  0
 21 20  1  0
 22 23  1  0
 23 24  2  0
 25 24  1  0
 26 27  1  0
 28 26  2  0
M  END
$$$$
