TEF.pdb
     RDKit          3D

 28 28  0  0  1  0  0  0  0  0999 V2000
    8.2399  -12.1661   19.3446 C   0  0  0  0  0  0  0  0  0  0  0  0
    8.4866  -13.0940   20.5006 C   0  0  1  0  0  0  0  0  0  0  0  0
    7.9354  -12.5540   21.6577 O   0  0  0  0  0  0  0  0  0  0  0  0
    7.7673  -14.4024   20.2257 C   0  0  2  0  0  0  0  0  0  0  0  0
    6.3735  -14.1985   19.9559 N   0  0  0  0  0  0  0  0  0  0  0  0
    7.9736  -15.3691   21.3528 C   0  0  0  0  0  0  0  0  0  0  0  0
    7.0352  -15.6806   22.1321 O   0  0  0  0  0  0  0  0  0  0  0  0
    9.2367  -15.9747   21.5896 N   0  0  0  0  0  0  0  0  0  0  0  0
    9.3730  -17.0168   22.6013 C   0  0  1  0  0  0  0  0  0  0  0  0
   10.5319  -17.9138   22.3420 C   0  0  0  0  0  0  0  0  0  0  0  0
   10.4436  -18.6553   21.0385 C   0  0  0  0  0  0  0  0  0  0  0  0
   11.6535  -19.4110   20.6821 C   0  0  0  0  0  0  0  0  0  0  0  0
   12.0233  -20.4787   21.2195 O   0  0  0  0  0  0  0  0  0  0  0  0
    9.6327  -16.3632   23.9367 C   0  0  0  0  0  0  0  0  0  0  0  0
   10.4638  -15.4392   24.0241 O   0  0  0  0  0  0  0  0  0  0  0  0
   12.4846  -18.9319   19.6663 O   0  0  0  0  0  0  0  0  0  0  0  0
    8.9576  -16.7679   25.1043 N   0  0  0  0  0  0  0  0  0  0  0  0
    9.1108  -16.1420   26.4103 C   0  0  1  0  0  0  0  0  0  0  0  0
    7.8150  -15.8267   27.0454 C   0  0  0  0  0  0  0  0  0  0  0  0
    7.2326  -14.5937   26.4653 C   0  0  0  0  0  0  0  0  0  0  0  0
    7.8225  -13.3635   26.7477 C   0  0  0  0  0  0  0  0  0  0  0  0
    7.3470  -12.1904   26.2243 C   0  0  0  0  0  0  0  0  0  0  0  0
    6.2512  -12.2243   25.3923 C   0  0  0  0  0  0  0  0  0  0  0  0
    5.6592  -13.4302   25.1049 C   0  0  0  0  0  0  0  0  0  0  0  0
    6.1428  -14.5994   25.6338 C   0  0  0  0  0  0  0  0  0  0  0  0
    9.9663  -16.9909   27.2258 C   0  0  0  0  0  0  0  0  0  0  0  0
   10.4652  -16.6145   28.4568 O   0  0  0  0  0  0  0  0  0  0  0  0
   10.3155  -18.1586   26.8415 O   0  0  0  0  0  0  0  0  0  0  0  0
  2  4  1  0
  2  1  1  6
  2  3  1  0
  4  5  1  1
  6  4  1  0
  6  8  1  0
  7  6  2  0
  9  8  1  0
  9 10  1  6
 11 10  1  0
 12 11  1  0
 13 12  2  0
 14  9  1  0
 15 14  2  0
 16 12  1  0
 17 14  1  0
 18 17  1  0
 18 26  1  0
 19 20  1  0
 18 19  1  1
 20 25  2  0
 21 22  2  0
 21 20  1  0
 22 23  1  0
 23 24  2  0
 25 24  1  0
 26 27  1  0
 28 26  2  0
M  END
$$$$
