KSM.pdb
     RDKit          3D

 24 23  0  0  1  0  0  0  0  0999 V2000
   24.6163  -20.6640  -10.0014 N   0  0  0  0  0  0  0  0  0  0  0  0
   24.5809  -21.3775  -11.2590 C   0  0  1  0  0  0  0  0  0  0  0  0
   23.1887  -21.3598  -11.7952 C   0  0  0  0  0  0  0  0  0  0  0  0
   22.1321  -21.8753  -10.8895 C   0  0  0  0  0  0  0  0  0  0  0  0
   21.0589  -20.9225  -10.4985 C   0  0  0  0  0  0  0  0  0  0  0  0
   19.6971  -21.3434  -10.9976 C   0  0  0  0  0  0  0  0  0  0  0  0
   19.1432  -22.3170  -10.0770 N   0  0  0  0  0  0  0  0  0  0  0  0
   25.4865  -20.6769  -12.2020 C   0  0  0  0  0  0  0  0  0  0  0  0
   25.6416  -19.4253  -12.0111 O   0  0  0  0  0  0  0  0  0  0  0  0
   27.4399  -22.4358  -15.5548 O   0  0  0  0  0  0  0  0  0  0  0  0
   27.7426  -21.1601  -15.1469 C   0  0  0  0  0  0  0  0  0  0  0  0
   26.6218  -20.4815  -14.4311 C   0  0  2  0  0  0  0  0  0  0  0  0
   26.1797  -21.2692  -13.2764 N   0  0  0  0  0  0  0  0  0  0  0  0
   25.4918  -20.2305  -15.3612 C   0  0  0  0  0  0  0  0  0  0  0  0
   24.4688  -20.9564  -15.2851 O   0  0  0  0  0  0  0  0  0  0  0  0
   20.4211  -15.4872  -18.4264 C   0  0  0  0  0  0  0  0  0  0  0  0
   21.8001  -15.9484  -17.3676 S   0  0  0  0  0  0  0  0  0  0  0  0
   22.5776  -17.5126  -17.9272 C   0  0  0  0  0  0  0  0  0  0  0  0
   23.6834  -17.8159  -16.9713 C   0  0  0  0  0  0  0  0  0  0  0  0
   24.4864  -19.0212  -17.3281 C   0  0  2  0  0  0  0  0  0  0  0  0
   25.5390  -19.1912  -16.3337 N   0  0  0  0  0  0  0  0  0  0  0  0
   25.0573  -18.8449  -18.6880 C   0  0  0  0  0  0  0  0  0  0  0  0
   24.3780  -19.2619  -19.8087 O   0  0  0  0  0  0  0  0  0  0  0  0
   26.1762  -18.3079  -18.8237 O   0  0  0  0  0  0  0  0  0  0  0  0
  2  1  1  1
  2  8  1  0
  3  2  1  0
  4  5  1  0
  4  3  1  0
  5  6  1  0
  7  6  1  0
  8  9  2  0
  8 13  1  0
 10 11  1  0
 12 11  1  6
 13 12  1  0
 14 12  1  0
 14 15  2  0
 16 17  1  0
 17 18  1  0
 18 19  1  0
 20 19  1  1
 20 21  1  0
 21 14  1  0
 22 20  1  0
 23 22  1  0
 24 22  2  0
M  END
$$$$
