KSM.pdb
     RDKit          3D

 24 23  0  0  1  0  0  0  0  0999 V2000
   17.1253   -9.0798  -11.8288 N   0  0  0  0  0  0  0  0  0  0  0  0
   17.4865   -8.9917  -13.2265 C   0  0  1  0  0  0  0  0  0  0  0  0
   16.3888   -8.3142  -13.9762 C   0  0  0  0  0  0  0  0  0  0  0  0
   15.0920   -9.0340  -14.0301 C   0  0  0  0  0  0  0  0  0  0  0  0
   14.9783  -10.1400  -15.0183 C   0  0  0  0  0  0  0  0  0  0  0  0
   13.5971  -10.7495  -15.0528 C   0  0  0  0  0  0  0  0  0  0  0  0
   13.5795  -11.8096  -16.0419 N   0  0  0  0  0  0  0  0  0  0  0  0
   18.7271   -8.1844  -13.3228 C   0  0  0  0  0  0  0  0  0  0  0  0
   18.8105   -7.1817  -12.5388 O   0  0  0  0  0  0  0  0  0  0  0  0
   21.9404   -8.8790  -15.9804 O   0  0  0  0  0  0  0  0  0  0  0  0
   22.1594   -8.2094  -14.8019 C   0  0  0  0  0  0  0  0  0  0  0  0
   20.9476   -7.5118  -14.2785 C   0  0  2  0  0  0  0  0  0  0  0  0
   19.8061   -8.4281  -14.1958 N   0  0  0  0  0  0  0  0  0  0  0  0
   20.6203   -6.3381  -15.1271 C   0  0  0  0  0  0  0  0  0  0  0  0
   19.6517   -6.4152  -15.9242 O   0  0  0  0  0  0  0  0  0  0  0  0
   16.9475   -0.7538  -17.3614 C   0  0  0  0  0  0  0  0  0  0  0  0
   17.5086   -2.1670  -16.4004 S   0  0  0  0  0  0  0  0  0  0  0  0
   19.3400   -2.2508  -16.3433 C   0  0  0  0  0  0  0  0  0  0  0  0
   19.6965   -3.5316  -15.6643 C   0  0  0  0  0  0  0  0  0  0  0  0
   21.0883   -3.9977  -15.9303 C   0  0  2  0  0  0  0  0  0  0  0  0
   21.3744   -5.1320  -15.0602 N   0  0  0  0  0  0  0  0  0  0  0  0
   22.0351   -2.8802  -15.6830 C   0  0  0  0  0  0  0  0  0  0  0  0
   22.3295   -1.9617  -16.6633 O   0  0  0  0  0  0  0  0  0  0  0  0
   22.5784   -2.7665  -14.5647 O   0  0  0  0  0  0  0  0  0  0  0  0
  2  1  1  1
  2  8  1  0
  3  2  1  0
  4  5  1  0
  4  3  1  0
  5  6  1  0
  7  6  1  0
  8  9  2  0
  8 13  1  0
 10 11  1  0
 12 11  1  6
 13 12  1  0
 14 12  1  0
 14 15  2  0
 16 17  1  0
 17 18  1  0
 18 19  1  0
 20 19  1  1
 20 21  1  0
 21 14  1  0
 22 20  1  0
 23 22  1  0
 24 22  2  0
M  END
$$$$
