KSM.pdb
     RDKit          3D

 24 23  0  0  1  0  0  0  0  0999 V2000
   21.0381  -14.6465  -17.0632 N   0  0  0  0  0  0  0  0  0  0  0  0
   20.8094  -13.3433  -17.6474 C   0  0  1  0  0  0  0  0  0  0  0  0
   19.3808  -13.2353  -18.0640 C   0  0  0  0  0  0  0  0  0  0  0  0
   18.6116  -14.5040  -18.0989 C   0  0  0  0  0  0  0  0  0  0  0  0
   17.2115  -14.4272  -18.5950 C   0  0  0  0  0  0  0  0  0  0  0  0
   16.5459  -15.7807  -18.6702 C   0  0  0  0  0  0  0  0  0  0  0  0
   15.1634  -15.5994  -19.0680 N   0  0  0  0  0  0  0  0  0  0  0  0
   21.1038  -12.3249  -16.6100 C   0  0  0  0  0  0  0  0  0  0  0  0
   20.1764  -12.0954  -15.7648 O   0  0  0  0  0  0  0  0  0  0  0  0
   24.8931  -10.7823  -15.5766 O   0  0  0  0  0  0  0  0  0  0  0  0
   23.8210  -10.8528  -14.7216 C   0  0  0  0  0  0  0  0  0  0  0  0
   22.5063  -10.6357  -15.3950 C   0  0  2  0  0  0  0  0  0  0  0  0
   22.3049  -11.5991  -16.4817 N   0  0  0  0  0  0  0  0  0  0  0  0
   22.4089   -9.2432  -15.9010 C   0  0  0  0  0  0  0  0  0  0  0  0
   22.3499   -9.0495  -17.1413 O   0  0  0  0  0  0  0  0  0  0  0  0
   18.4180   -3.5247  -17.7333 C   0  0  0  0  0  0  0  0  0  0  0  0
   18.8859   -5.1596  -17.1473 S   0  0  0  0  0  0  0  0  0  0  0  0
   20.6373   -5.1982  -16.6039 C   0  0  0  0  0  0  0  0  0  0  0  0
   20.9081   -6.5785  -16.1039 C   0  0  0  0  0  0  0  0  0  0  0  0
   22.2656   -6.7591  -15.5126 C   0  0  2  0  0  0  0  0  0  0  0  0
   22.3807   -8.1260  -15.0184 N   0  0  0  0  0  0  0  0  0  0  0  0
   22.4578   -5.7750  -14.4168 C   0  0  0  0  0  0  0  0  0  0  0  0
   22.6837   -4.4445  -14.6815 O   0  0  0  0  0  0  0  0  0  0  0  0
   22.4147   -6.1566  -13.2288 O   0  0  0  0  0  0  0  0  0  0  0  0
  2  1  1  1
  2  8  1  0
  3  2  1  0
  4  5  1  0
  4  3  1  0
  5  6  1  0
  7  6  1  0
  8  9  2  0
  8 13  1  0
 10 11  1  0
 12 11  1  6
 13 12  1  0
 14 12  1  0
 14 15  2  0
 16 17  1  0
 17 18  1  0
 18 19  1  0
 20 19  1  1
 20 21  1  0
 21 14  1  0
 22 20  1  0
 23 22  1  0
 24 22  2  0
M  END
$$$$
