KSM.pdb
     RDKit          3D

 24 23  0  0  1  0  0  0  0  0999 V2000
   18.6817  -22.6783  -14.4329 N   0  0  0  0  0  0  0  0  0  0  0  0
   19.4716  -21.9625  -13.4554 C   0  0  1  0  0  0  0  0  0  0  0  0
   19.8258  -22.8859  -12.3382 C   0  0  0  0  0  0  0  0  0  0  0  0
   18.7254  -23.2385  -11.4069 C   0  0  0  0  0  0  0  0  0  0  0  0
   17.3726  -22.7155  -11.7369 C   0  0  0  0  0  0  0  0  0  0  0  0
   16.3317  -23.1092  -10.7162 C   0  0  0  0  0  0  0  0  0  0  0  0
   16.2481  -24.5560  -10.6692 N   0  0  0  0  0  0  0  0  0  0  0  0
   20.7091  -21.4966  -14.1274 C   0  0  0  0  0  0  0  0  0  0  0  0
   21.6684  -22.3352  -14.1884 O   0  0  0  0  0  0  0  0  0  0  0  0
   21.9908  -17.5032  -15.2091 O   0  0  0  0  0  0  0  0  0  0  0  0
   22.0399  -18.5621  -16.0819 C   0  0  0  0  0  0  0  0  0  0  0  0
   22.1505  -19.8881  -15.4046 C   0  0  2  0  0  0  0  0  0  0  0  0
   20.9117  -20.2231  -14.6958 N   0  0  0  0  0  0  0  0  0  0  0  0
   23.3084  -19.8984  -14.4752 C   0  0  0  0  0  0  0  0  0  0  0  0
   23.1312  -19.5557  -13.2791 O   0  0  0  0  0  0  0  0  0  0  0  0
   25.7827  -20.3036   -8.5543 C   0  0  0  0  0  0  0  0  0  0  0  0
   25.5093  -21.1651  -10.1095 S   0  0  0  0  0  0  0  0  0  0  0  0
   25.8675  -20.0812  -11.5451 C   0  0  0  0  0  0  0  0  0  0  0  0
   25.5417  -20.8638  -12.7739 C   0  0  0  0  0  0  0  0  0  0  0  0
   25.7798  -20.1272  -14.0489 C   0  0  2  0  0  0  0  0  0  0  0  0
   24.6098  -20.2855  -14.9044 N   0  0  0  0  0  0  0  0  0  0  0  0
   26.9998  -20.6638  -14.7046 C   0  0  0  0  0  0  0  0  0  0  0  0
   28.2537  -20.2189  -14.3564 O   0  0  0  0  0  0  0  0  0  0  0  0
   26.8920  -21.5369  -15.5906 O   0  0  0  0  0  0  0  0  0  0  0  0
  2  1  1  6
  2  8  1  0
  3  2  1  0
  4  5  1  0
  4  3  1  0
  5  6  1  0
  7  6  1  0
  8  9  2  0
  8 13  1  0
 10 11  1  0
 12 11  1  1
 13 12  1  0
 14 12  1  0
 14 15  2  0
 16 17  1  0
 17 18  1  0
 18 19  1  0
 20 19  1  1
 20 21  1  0
 21 14  1  0
 22 20  1  0
 23 22  1  0
 24 22  2  0
M  END
$$$$
