KSM.pdb
     RDKit          3D

 24 23  0  0  1  0  0  0  0  0999 V2000
   14.8579  -11.5796   -9.8006 N   0  0  0  0  0  0  0  0  0  0  0  0
   15.0858  -11.2367  -11.1871 C   0  0  1  0  0  0  0  0  0  0  0  0
   13.8667  -11.5660  -11.9817 C   0  0  0  0  0  0  0  0  0  0  0  0
   12.5762  -11.0825  -11.4308 C   0  0  0  0  0  0  0  0  0  0  0  0
   11.8596  -11.9944  -10.4995 C   0  0  0  0  0  0  0  0  0  0  0  0
   10.4998  -11.4704  -10.1037 C   0  0  0  0  0  0  0  0  0  0  0  0
    9.9123  -12.3792   -9.1387 N   0  0  0  0  0  0  0  0  0  0  0  0
   15.3455   -9.7780  -11.2553 C   0  0  0  0  0  0  0  0  0  0  0  0
   15.5533   -9.2952  -12.4177 O   0  0  0  0  0  0  0  0  0  0  0  0
   15.7536   -7.1696   -7.9598 O   0  0  0  0  0  0  0  0  0  0  0  0
   15.2326   -6.6840   -9.1337 C   0  0  0  0  0  0  0  0  0  0  0  0
   15.6492   -7.4624  -10.3378 C   0  0  2  0  0  0  0  0  0  0  0  0
   15.3820   -8.8928  -10.1595 N   0  0  0  0  0  0  0  0  0  0  0  0
   17.0854   -7.2276  -10.6330 C   0  0  0  0  0  0  0  0  0  0  0  0
   17.9475   -7.9499  -10.0721 O   0  0  0  0  0  0  0  0  0  0  0  0
   23.0818   -8.9790  -13.8845 C   0  0  0  0  0  0  0  0  0  0  0  0
   21.3350   -8.8910  -13.4645 S   0  0  0  0  0  0  0  0  0  0  0  0
   20.8822   -7.2281  -12.8369 C   0  0  0  0  0  0  0  0  0  0  0  0
   19.4547   -7.2988  -12.4058 C   0  0  0  0  0  0  0  0  0  0  0  0
   18.9132   -6.0160  -11.8710 C   0  0  2  0  0  0  0  0  0  0  0  0
   17.5081   -6.2079  -11.5326 N   0  0  0  0  0  0  0  0  0  0  0  0
   19.0778   -4.9506  -12.8928 C   0  0  0  0  0  0  0  0  0  0  0  0
   20.2774   -4.2992  -13.0606 O   0  0  0  0  0  0  0  0  0  0  0  0
   18.1115   -4.6350  -13.6177 O   0  0  0  0  0  0  0  0  0  0  0  0
  2  1  1  1
  2  8  1  0
  3  2  1  0
  4  5  1  0
  4  3  1  0
  5  6  1  0
  7  6  1  0
  8  9  2  0
  8 13  1  0
 10 11  1  0
 12 11  1  1
 13 12  1  0
 14 12  1  0
 14 15  2  0
 16 17  1  0
 17 18  1  0
 18 19  1  0
 20 19  1  6
 20 21  1  0
 21 14  1  0
 22 20  1  0
 23 22  1  0
 24 22  2  0
M  END
$$$$
