KSM.pdb
     RDKit          3D

 24 23  0  0  1  0  0  0  0  0999 V2000
   28.3068  -20.9275  -15.6345 N   0  0  0  0  0  0  0  0  0  0  0  0
   28.1003  -20.2045  -14.3990 C   0  0  1  0  0  0  0  0  0  0  0  0
   27.8799  -18.7609  -14.7052 C   0  0  0  0  0  0  0  0  0  0  0  0
   27.5580  -18.4331  -16.1164 C   0  0  0  0  0  0  0  0  0  0  0  0
   26.3098  -19.0191  -16.6741 C   0  0  0  0  0  0  0  0  0  0  0  0
   26.0421  -18.5754  -18.0926 C   0  0  0  0  0  0  0  0  0  0  0  0
   24.8458  -19.2401  -18.5715 N   0  0  0  0  0  0  0  0  0  0  0  0
   26.8930  -20.7643  -13.7440 C   0  0  0  0  0  0  0  0  0  0  0  0
   26.0581  -21.3533  -14.5077 O   0  0  0  0  0  0  0  0  0  0  0  0
   25.3936  -19.9294   -9.8340 O   0  0  0  0  0  0  0  0  0  0  0  0
   25.3462  -21.2074  -10.3339 C   0  0  0  0  0  0  0  0  0  0  0  0
   25.3545  -21.2645  -11.8258 C   0  0  2  0  0  0  0  0  0  0  0  0
   26.5944  -20.7008  -12.3682 N   0  0  0  0  0  0  0  0  0  0  0  0
   24.1700  -20.5583  -12.3763 C   0  0  0  0  0  0  0  0  0  0  0  0
   24.3379  -19.4704  -12.9826 O   0  0  0  0  0  0  0  0  0  0  0  0
   22.7420  -19.1023  -17.1542 C   0  0  0  0  0  0  0  0  0  0  0  0
   21.1337  -19.8374  -16.8247 S   0  0  0  0  0  0  0  0  0  0  0  0
   20.7219  -19.7696  -15.0386 C   0  0  0  0  0  0  0  0  0  0  0  0
   21.8462  -20.4248  -14.3071 C   0  0  0  0  0  0  0  0  0  0  0  0
   21.6955  -20.4194  -12.8231 C   0  0  2  0  0  0  0  0  0  0  0  0
   22.8533  -21.0818  -12.2344 N   0  0  0  0  0  0  0  0  0  0  0  0
   20.4357  -21.1152  -12.4558 C   0  0  0  0  0  0  0  0  0  0  0  0
   19.2523  -20.4278  -12.3193 O   0  0  0  0  0  0  0  0  0  0  0  0
   20.4439  -22.3491  -12.2657 O   0  0  0  0  0  0  0  0  0  0  0  0
  2  1  1  6
  2  8  1  0
  3  2  1  0
  4  5  1  0
  4  3  1  0
  5  6  1  0
  7  6  1  0
  8  9  2  0
  8 13  1  0
 10 11  1  0
 12 11  1  1
 13 12  1  0
 14 12  1  0
 14 15  2  0
 16 17  1  0
 17 18  1  0
 18 19  1  0
 20 19  1  6
 20 21  1  0
 21 14  1  0
 22 20  1  0
 23 22  1  0
 24 22  2  0
M  END
$$$$
