KSM.pdb
     RDKit          3D

 24 23  0  0  1  0  0  0  0  0999 V2000
   24.8761  -20.6143   -9.1330 N   0  0  0  0  0  0  0  0  0  0  0  0
   24.5634  -20.9454  -10.5057 C   0  0  1  0  0  0  0  0  0  0  0  0
   23.2182  -20.3988  -10.8490 C   0  0  0  0  0  0  0  0  0  0  0  0
   22.0999  -21.3744  -10.8639 C   0  0  0  0  0  0  0  0  0  0  0  0
   21.1552  -21.3309   -9.7158 C   0  0  0  0  0  0  0  0  0  0  0  0
   20.0494  -22.3525   -9.8333 C   0  0  0  0  0  0  0  0  0  0  0  0
   19.2266  -22.2888   -8.6411 N   0  0  0  0  0  0  0  0  0  0  0  0
   25.5919  -20.3147  -11.3685 C   0  0  0  0  0  0  0  0  0  0  0  0
   25.9054  -19.1110  -11.0856 O   0  0  0  0  0  0  0  0  0  0  0  0
   28.5438  -22.0337  -13.4458 O   0  0  0  0  0  0  0  0  0  0  0  0
   28.4635  -20.6631  -13.4354 C   0  0  0  0  0  0  0  0  0  0  0  0
   27.0626  -20.1484  -13.3948 C   0  0  2  0  0  0  0  0  0  0  0  0
   26.2425  -20.9245  -12.4598 N   0  0  0  0  0  0  0  0  0  0  0  0
   26.4673  -20.1632  -14.7550 C   0  0  0  0  0  0  0  0  0  0  0  0
   25.3394  -20.6925  -14.9195 O   0  0  0  0  0  0  0  0  0  0  0  0
   22.1066  -17.7625  -19.0234 C   0  0  0  0  0  0  0  0  0  0  0  0
   23.2398  -18.4423  -17.8030 S   0  0  0  0  0  0  0  0  0  0  0  0
   24.6360  -17.2981  -17.4782 C   0  0  0  0  0  0  0  0  0  0  0  0
   25.4993  -17.9458  -16.4468 C   0  0  0  0  0  0  0  0  0  0  0  0
   26.4127  -18.9949  -16.9852 C   0  0  2  0  0  0  0  0  0  0  0  0
   27.1408  -19.5945  -15.8734 N   0  0  0  0  0  0  0  0  0  0  0  0
   27.3433  -18.3785  -17.9652 C   0  0  0  0  0  0  0  0  0  0  0  0
   27.2622  -18.6661  -19.3076 O   0  0  0  0  0  0  0  0  0  0  0  0
   28.2195  -17.5822  -17.5690 O   0  0  0  0  0  0  0  0  0  0  0  0
  2  1  1  1
  2  8  1  0
  3  2  1  0
  4  5  1  0
  4  3  1  0
  5  6  1  0
  7  6  1  0
  8  9  2  0
  8 13  1  0
 10 11  1  0
 12 11  1  6
 13 12  1  0
 14 12  1  0
 14 15  2  0
 16 17  1  0
 17 18  1  0
 18 19  1  0
 20 19  1  1
 20 21  1  0
 21 14  1  0
 22 20  1  0
 23 22  1  0
 24 22  2  0
M  END
$$$$
