KSM.pdb
     RDKit          3D

 24 23  0  0  1  0  0  0  0  0999 V2000
   29.0087  -23.6114  -16.5115 N   0  0  0  0  0  0  0  0  0  0  0  0
   29.3693  -22.7337  -17.6031 C   0  0  1  0  0  0  0  0  0  0  0  0
   29.5958  -23.5469  -18.8334 C   0  0  0  0  0  0  0  0  0  0  0  0
   30.5194  -24.7003  -18.6945 C   0  0  0  0  0  0  0  0  0  0  0  0
   31.9565  -24.3871  -18.4730 C   0  0  0  0  0  0  0  0  0  0  0  0
   32.8374  -25.6112  -18.5512 C   0  0  0  0  0  0  0  0  0  0  0  0
   34.1646  -25.2616  -18.0837 N   0  0  0  0  0  0  0  0  0  0  0  0
   28.2385  -21.7998  -17.8248 C   0  0  0  0  0  0  0  0  0  0  0  0
   28.3637  -20.9820  -18.7958 O   0  0  0  0  0  0  0  0  0  0  0  0
   25.2425  -21.0482  -15.1031 O   0  0  0  0  0  0  0  0  0  0  0  0
   24.8548  -20.9079  -16.4129 C   0  0  0  0  0  0  0  0  0  0  0  0
   25.9992  -20.7669  -17.3614 C   0  0  2  0  0  0  0  0  0  0  0  0
   27.0542  -21.7403  -17.0635 N   0  0  0  0  0  0  0  0  0  0  0  0
   26.5341  -19.3822  -17.3230 C   0  0  0  0  0  0  0  0  0  0  0  0
   27.4807  -19.1175  -16.5399 O   0  0  0  0  0  0  0  0  0  0  0  0
   31.1409  -18.5626  -18.7741 C   0  0  0  0  0  0  0  0  0  0  0  0
   30.6961  -16.8223  -18.6784 S   0  0  0  0  0  0  0  0  0  0  0  0
   29.0746  -16.5921  -17.8526 C   0  0  0  0  0  0  0  0  0  0  0  0
   28.0477  -17.2407  -18.7205 C   0  0  0  0  0  0  0  0  0  0  0  0
   26.6436  -17.0458  -18.2563 C   0  0  2  0  0  0  0  0  0  0  0  0
   26.0026  -18.3509  -18.1487 N   0  0  0  0  0  0  0  0  0  0  0  0
   25.9252  -16.1737  -19.2204 C   0  0  0  0  0  0  0  0  0  0  0  0
   25.3857  -14.9699  -18.8318 O   0  0  0  0  0  0  0  0  0  0  0  0
   25.8051  -16.5347  -20.4096 O   0  0  0  0  0  0  0  0  0  0  0  0
  2  1  1  1
  2  8  1  0
  3  2  1  0
  4  5  1  0
  4  3  1  0
  5  6  1  0
  7  6  1  0
  8  9  2  0
  8 13  1  0
 10 11  1  0
 12 11  1  1
 13 12  1  0
 14 12  1  0
 14 15  2  0
 16 17  1  0
 17 18  1  0
 18 19  1  0
 20 19  1  6
 20 21  1  0
 21 14  1  0
 22 20  1  0
 23 22  1  0
 24 22  2  0
M  END
$$$$
