KSM.pdb
     RDKit          3D

 24 23  0  0  1  0  0  0  0  0999 V2000
   29.6845  -31.1458  -15.8524 N   0  0  0  0  0  0  0  0  0  0  0  0
   29.6642  -32.1554  -16.8879 C   0  0  1  0  0  0  0  0  0  0  0  0
   31.0267  -32.7484  -17.0229 C   0  0  0  0  0  0  0  0  0  0  0  0
   32.1602  -31.7904  -17.0228 C   0  0  0  0  0  0  0  0  0  0  0  0
   32.5859  -31.2533  -18.3430 C   0  0  0  0  0  0  0  0  0  0  0  0
   33.8575  -30.4431  -18.2588 C   0  0  0  0  0  0  0  0  0  0  0  0
   34.1699  -29.9268  -19.5772 N   0  0  0  0  0  0  0  0  0  0  0  0
   28.7025  -33.2066  -16.4756 C   0  0  0  0  0  0  0  0  0  0  0  0
   28.7646  -34.3099  -17.1127 O   0  0  0  0  0  0  0  0  0  0  0  0
   25.7931  -32.7845  -13.4858 O   0  0  0  0  0  0  0  0  0  0  0  0
   26.2481  -34.0471  -13.7759 C   0  0  0  0  0  0  0  0  0  0  0  0
   26.8024  -34.1784  -15.1560 C   0  0  2  0  0  0  0  0  0  0  0  0
   27.7388  -33.0905  -15.4540 N   0  0  0  0  0  0  0  0  0  0  0  0
   25.7026  -34.2146  -16.1530 C   0  0  0  0  0  0  0  0  0  0  0  0
   25.4220  -33.1666  -16.7873 O   0  0  0  0  0  0  0  0  0  0  0  0
   21.6348  -39.0083  -20.8810 C   0  0  0  0  0  0  0  0  0  0  0  0
   22.5359  -38.7282  -19.3497 S   0  0  0  0  0  0  0  0  0  0  0  0
   22.8496  -36.9418  -19.0768 C   0  0  0  0  0  0  0  0  0  0  0  0
   23.6579  -36.8273  -17.8269 C   0  0  0  0  0  0  0  0  0  0  0  0
   23.8466  -35.4277  -17.3469 C   0  0  2  0  0  0  0  0  0  0  0  0
   24.9608  -35.4034  -16.4069 N   0  0  0  0  0  0  0  0  0  0  0  0
   22.5929  -34.9567  -16.7045 C   0  0  0  0  0  0  0  0  0  0  0  0
   22.5012  -34.8044  -15.3408 O   0  0  0  0  0  0  0  0  0  0  0  0
   21.5982  -34.6917  -17.4110 O   0  0  0  0  0  0  0  0  0  0  0  0
  2  1  1  1
  2  8  1  0
  3  2  1  0
  4  5  1  0
  4  3  1  0
  5  6  1  0
  7  6  1  0
  8  9  2  0
  8 13  1  0
 10 11  1  0
 12 11  1  1
 13 12  1  0
 14 12  1  0
 14 15  2  0
 16 17  1  0
 17 18  1  0
 18 19  1  0
 20 19  1  1
 20 21  1  0
 21 14  1  0
 22 20  1  0
 23 22  1  0
 24 22  2  0
M  END
$$$$
