KSM.pdb
     RDKit          3D

 24 23  0  0  1  0  0  0  0  0999 V2000
   17.0435  -25.2359  -11.0578 N   0  0  0  0  0  0  0  0  0  0  0  0
   18.0047  -24.2562  -10.6014 C   0  0  1  0  0  0  0  0  0  0  0  0
   19.0247  -24.9299   -9.7458 C   0  0  0  0  0  0  0  0  0  0  0  0
   18.5427  -25.4564   -8.4447 C   0  0  0  0  0  0  0  0  0  0  0  0
   17.7979  -24.5102   -7.5715 C   0  0  0  0  0  0  0  0  0  0  0  0
   17.3084  -25.1566   -6.2975 C   0  0  0  0  0  0  0  0  0  0  0  0
   18.4373  -25.3489   -5.4082 N   0  0  0  0  0  0  0  0  0  0  0  0
   18.6627  -23.6770  -11.7978 C   0  0  0  0  0  0  0  0  0  0  0  0
   19.6220  -22.8656  -11.5774 O   0  0  0  0  0  0  0  0  0  0  0  0
   17.3419  -23.9163  -15.8151 O   0  0  0  0  0  0  0  0  0  0  0  0
   18.6877  -23.9829  -15.5510 C   0  0  0  0  0  0  0  0  0  0  0  0
   19.0720  -23.3544  -14.2523 C   0  0  2  0  0  0  0  0  0  0  0  0
   18.3218  -23.9433  -13.1390 N   0  0  0  0  0  0  0  0  0  0  0  0
   18.8648  -21.8851  -14.3083 C   0  0  0  0  0  0  0  0  0  0  0  0
   17.7944  -21.4044  -13.8585 O   0  0  0  0  0  0  0  0  0  0  0  0
   23.6338  -18.2352  -16.2201 C   0  0  0  0  0  0  0  0  0  0  0  0
   22.4744  -16.8671  -16.0801 S   0  0  0  0  0  0  0  0  0  0  0  0
   20.8302  -17.4416  -15.5050 C   0  0  0  0  0  0  0  0  0  0  0  0
   20.8976  -18.9299  -15.4093 C   0  0  0  0  0  0  0  0  0  0  0  0
   19.6441  -19.5680  -14.9126 C   0  0  2  0  0  0  0  0  0  0  0  0
   19.8458  -21.0109  -14.8572 N   0  0  0  0  0  0  0  0  0  0  0  0
   18.5227  -19.2181  -15.8216 C   0  0  0  0  0  0  0  0  0  0  0  0
   17.6508  -18.1974  -15.5222 O   0  0  0  0  0  0  0  0  0  0  0  0
   18.3624  -19.8594  -16.8807 O   0  0  0  0  0  0  0  0  0  0  0  0
  2  1  1  6
  2  8  1  0
  3  2  1  0
  4  5  1  0
  4  3  1  0
  5  6  1  0
  7  6  1  0
  8  9  2  0
  8 13  1  0
 10 11  1  0
 12 11  1  6
 13 12  1  0
 14 12  1  0
 14 15  2  0
 16 17  1  0
 17 18  1  0
 18 19  1  0
 20 19  1  6
 20 21  1  0
 21 14  1  0
 22 20  1  0
 23 22  1  0
 24 22  2  0
M  END
$$$$
