KSM.pdb
     RDKit          3D

 24 23  0  0  1  0  0  0  0  0999 V2000
   27.5914  -20.9710  -15.5146 N   0  0  0  0  0  0  0  0  0  0  0  0
   26.5182  -21.6810  -16.1748 C   0  0  1  0  0  0  0  0  0  0  0  0
   27.0208  -23.0048  -16.6451 C   0  0  0  0  0  0  0  0  0  0  0  0
   28.0813  -22.9710  -17.6827 C   0  0  0  0  0  0  0  0  0  0  0  0
   27.8669  -22.0523  -18.8327 C   0  0  0  0  0  0  0  0  0  0  0  0
   28.9738  -22.1339  -19.8567 C   0  0  0  0  0  0  0  0  0  0  0  0
   28.7472  -21.1222  -20.8703 N   0  0  0  0  0  0  0  0  0  0  0  0
   25.4335  -21.8839  -15.1837 C   0  0  0  0  0  0  0  0  0  0  0  0
   24.4669  -22.6315  -15.5496 O   0  0  0  0  0  0  0  0  0  0  0  0
   23.3766  -21.0345  -10.8257 O   0  0  0  0  0  0  0  0  0  0  0  0
   24.4490  -20.9103  -11.6741 C   0  0  0  0  0  0  0  0  0  0  0  0
   24.2302  -21.5440  -13.0082 C   0  0  2  0  0  0  0  0  0  0  0  0
   25.3812  -21.3275  -13.8900 N   0  0  0  0  0  0  0  0  0  0  0  0
   22.9858  -21.0237  -13.6291 C   0  0  0  0  0  0  0  0  0  0  0  0
   22.9813  -19.8573  -14.0971 O   0  0  0  0  0  0  0  0  0  0  0  0
   16.8196  -22.3665  -18.0593 C   0  0  0  0  0  0  0  0  0  0  0  0
   18.1645  -22.9621  -17.0239 S   0  0  0  0  0  0  0  0  0  0  0  0
   18.6950  -21.6853  -15.8187 C   0  0  0  0  0  0  0  0  0  0  0  0
   20.0069  -22.1299  -15.2620 C   0  0  0  0  0  0  0  0  0  0  0  0
   20.5388  -21.2550  -14.1773 C   0  0  2  0  0  0  0  0  0  0  0  0
   21.8018  -21.8111  -13.7069 N   0  0  0  0  0  0  0  0  0  0  0  0
   19.5439  -21.1786  -13.0770 C   0  0  0  0  0  0  0  0  0  0  0  0
   19.6955  -21.9115  -11.9232 O   0  0  0  0  0  0  0  0  0  0  0  0
   18.5473  -20.4360  -13.1954 O   0  0  0  0  0  0  0  0  0  0  0  0
  2  1  1  1
  2  8  1  0
  3  2  1  0
  4  5  1  0
  4  3  1  0
  5  6  1  0
  7  6  1  0
  8  9  2  0
  8 13  1  0
 10 11  1  0
 12 11  1  1
 13 12  1  0
 14 12  1  0
 14 15  2  0
 16 17  1  0
 17 18  1  0
 18 19  1  0
 20 19  1  6
 20 21  1  0
 21 14  1  0
 22 20  1  0
 23 22  1  0
 24 22  2  0
M  END
$$$$
