KSM.pdb
     RDKit          3D

 24 23  0  0  1  0  0  0  0  0999 V2000
   23.2792  -16.6648  -15.9702 N   0  0  0  0  0  0  0  0  0  0  0  0
   22.5526  -17.4792  -16.9192 C   0  0  1  0  0  0  0  0  0  0  0  0
   23.5235  -18.1999  -17.7933 C   0  0  0  0  0  0  0  0  0  0  0  0
   24.3399  -17.3549  -18.7001 C   0  0  0  0  0  0  0  0  0  0  0  0
   23.7590  -16.0462  -19.1029 C   0  0  0  0  0  0  0  0  0  0  0  0
   24.5497  -15.3712  -20.1981 C   0  0  0  0  0  0  0  0  0  0  0  0
   23.8509  -14.1674  -20.6042 N   0  0  0  0  0  0  0  0  0  0  0  0
   21.7502  -18.4618  -16.1507 C   0  0  0  0  0  0  0  0  0  0  0  0
   21.4735  -19.5548  -16.7474 O   0  0  0  0  0  0  0  0  0  0  0  0
   19.5805  -17.8673  -12.4828 O   0  0  0  0  0  0  0  0  0  0  0  0
   20.2927  -19.0166  -12.7223 C   0  0  0  0  0  0  0  0  0  0  0  0
   20.4645  -19.3198  -14.1741 C   0  0  2  0  0  0  0  0  0  0  0  0
   21.2738  -18.2917  -14.8354 N   0  0  0  0  0  0  0  0  0  0  0  0
   19.1410  -19.4534  -14.8339 C   0  0  0  0  0  0  0  0  0  0  0  0
   18.6516  -18.4567  -15.4227 O   0  0  0  0  0  0  0  0  0  0  0  0
   16.9497  -23.4661  -19.2608 C   0  0  0  0  0  0  0  0  0  0  0  0
   15.8356  -23.7634  -17.8802 S   0  0  0  0  0  0  0  0  0  0  0  0
   15.6676  -22.2727  -16.8249 C   0  0  0  0  0  0  0  0  0  0  0  0
   16.9970  -22.0379  -16.1875 C   0  0  0  0  0  0  0  0  0  0  0  0
   17.0753  -20.7863  -15.3800 C   0  0  2  0  0  0  0  0  0  0  0  0
   18.4154  -20.6785  -14.8157 N   0  0  0  0  0  0  0  0  0  0  0  0
   16.0452  -20.8276  -14.3106 C   0  0  0  0  0  0  0  0  0  0  0  0
   14.7326  -20.5086  -14.5689 O   0  0  0  0  0  0  0  0  0  0  0  0
   16.3707  -21.1579  -13.1514 O   0  0  0  0  0  0  0  0  0  0  0  0
  2  1  1  1
  2  8  1  0
  3  2  1  0
  4  5  1  0
  4  3  1  0
  5  6  1  0
  7  6  1  0
  8  9  2  0
  8 13  1  0
 10 11  1  0
 12 11  1  1
 13 12  1  0
 14 12  1  0
 14 15  2  0
 16 17  1  0
 17 18  1  0
 18 19  1  0
 20 19  1  1
 20 21  1  0
 21 14  1  0
 22 20  1  0
 23 22  1  0
 24 22  2  0
M  END
$$$$
