KSM.pdb
     RDKit          3D

 24 23  0  0  1  0  0  0  0  0999 V2000
   21.0074  -21.9978  -12.0735 N   0  0  0  0  0  0  0  0  0  0  0  0
   21.1758  -20.8640  -12.9556 C   0  0  1  0  0  0  0  0  0  0  0  0
   20.2144  -19.7914  -12.5666 C   0  0  0  0  0  0  0  0  0  0  0  0
   18.7820  -20.1784  -12.5302 C   0  0  0  0  0  0  0  0  0  0  0  0
   18.1886  -20.6778  -13.7994 C   0  0  0  0  0  0  0  0  0  0  0  0
   16.7290  -21.0378  -13.6571 C   0  0  0  0  0  0  0  0  0  0  0  0
   16.2235  -21.4567  -14.9499 N   0  0  0  0  0  0  0  0  0  0  0  0
   22.5649  -20.3693  -12.7957 C   0  0  0  0  0  0  0  0  0  0  0  0
   22.8310  -19.2473  -13.3413 O   0  0  0  0  0  0  0  0  0  0  0  0
   25.7292  -22.5992  -11.2037 O   0  0  0  0  0  0  0  0  0  0  0  0
   25.8227  -21.2322  -11.1142 C   0  0  0  0  0  0  0  0  0  0  0  0
   24.9739  -20.5103  -12.1079 C   0  0  2  0  0  0  0  0  0  0  0  0
   23.6014  -21.0254  -12.1021 N   0  0  0  0  0  0  0  0  0  0  0  0
   25.5685  -20.6110  -13.4648 C   0  0  0  0  0  0  0  0  0  0  0  0
   25.3550  -21.6446  -14.1471 O   0  0  0  0  0  0  0  0  0  0  0  0
   29.4203  -16.3679  -18.9727 C   0  0  0  0  0  0  0  0  0  0  0  0
   28.8145  -16.5989  -17.2949 S   0  0  0  0  0  0  0  0  0  0  0  0
   28.2304  -18.3167  -17.0265 C   0  0  0  0  0  0  0  0  0  0  0  0
   27.5467  -18.3422  -15.6997 C   0  0  0  0  0  0  0  0  0  0  0  0
   26.9476  -19.6616  -15.3459 C   0  0  2  0  0  0  0  0  0  0  0  0
   26.3716  -19.5689  -14.0098 N   0  0  0  0  0  0  0  0  0  0  0  0
   27.9993  -20.7090  -15.4047 C   0  0  0  0  0  0  0  0  0  0  0  0
   28.7037  -21.0793  -14.2831 O   0  0  0  0  0  0  0  0  0  0  0  0
   28.2540  -21.2687  -16.4912 O   0  0  0  0  0  0  0  0  0  0  0  0
  2  1  1  1
  2  8  1  0
  3  2  1  0
  4  5  1  0
  4  3  1  0
  5  6  1  0
  7  6  1  0
  8  9  2  0
  8 13  1  0
 10 11  1  0
 12 11  1  1
 13 12  1  0
 14 12  1  0
 14 15  2  0
 16 17  1  0
 17 18  1  0
 18 19  1  0
 20 19  1  1
 20 21  1  0
 21 14  1  0
 22 20  1  0
 23 22  1  0
 24 22  2  0
M  END
$$$$
