KSM.pdb
     RDKit          3D

 24 23  0  0  1  0  0  0  0  0999 V2000
   21.7224  -32.4427  -12.2350 N   0  0  0  0  0  0  0  0  0  0  0  0
   21.9532  -31.6931  -11.0198 C   0  0  1  0  0  0  0  0  0  0  0  0
   20.6432  -31.3864  -10.3750 C   0  0  0  0  0  0  0  0  0  0  0  0
   19.8686  -30.2673  -10.9669 C   0  0  0  0  0  0  0  0  0  0  0  0
   20.2899  -28.8895  -10.5974 C   0  0  0  0  0  0  0  0  0  0  0  0
   19.3973  -27.8282  -11.1952 C   0  0  0  0  0  0  0  0  0  0  0  0
   19.8101  -26.5330  -10.6908 N   0  0  0  0  0  0  0  0  0  0  0  0
   22.7677  -32.5396  -10.1142 C   0  0  0  0  0  0  0  0  0  0  0  0
   22.1880  -33.5667   -9.6282 O   0  0  0  0  0  0  0  0  0  0  0  0
   26.7227  -31.8171   -8.3121 O   0  0  0  0  0  0  0  0  0  0  0  0
   26.2839  -32.9886   -8.8783 C   0  0  0  0  0  0  0  0  0  0  0  0
   24.8049  -33.1741   -8.7938 C   0  0  2  0  0  0  0  0  0  0  0  0
   24.1091  -32.3076   -9.7501 N   0  0  0  0  0  0  0  0  0  0  0  0
   24.3306  -32.9189   -7.4100 C   0  0  0  0  0  0  0  0  0  0  0  0
   23.4781  -32.0160   -7.2162 O   0  0  0  0  0  0  0  0  0  0  0  0
   19.7635  -33.5143   -1.9764 C   0  0  0  0  0  0  0  0  0  0  0  0
   20.5484  -33.6320   -3.5905 S   0  0  0  0  0  0  0  0  0  0  0  0
   22.3641  -33.4029   -3.4683 C   0  0  0  0  0  0  0  0  0  0  0  0
   22.9151  -33.5450   -4.8484 C   0  0  0  0  0  0  0  0  0  0  0  0
   24.3953  -33.3820   -4.9355 C   0  0  2  0  0  0  0  0  0  0  0  0
   24.8164  -33.6692   -6.3015 N   0  0  0  0  0  0  0  0  0  0  0  0
   25.0474  -34.3021   -3.9689 C   0  0  0  0  0  0  0  0  0  0  0  0
   25.2258  -33.9473   -2.6522 O   0  0  0  0  0  0  0  0  0  0  0  0
   25.4442  -35.4219   -4.3528 O   0  0  0  0  0  0  0  0  0  0  0  0
  2  1  1  6
  2  8  1  0
  3  2  1  0
  4  5  1  0
  4  3  1  0
  5  6  1  0
  7  6  1  0
  8  9  2  0
  8 13  1  0
 10 11  1  0
 12 11  1  1
 13 12  1  0
 14 12  1  0
 14 15  2  0
 16 17  1  0
 17 18  1  0
 18 19  1  0
 20 19  1  6
 20 21  1  0
 21 14  1  0
 22 20  1  0
 23 22  1  0
 24 22  2  0
M  END
$$$$
