YPF.pdb
     RDKit          3D

 31 33  0  0  1  0  0  0  0  0999 V2000
   14.3210  -18.6907   14.8862 O   0  0  0  0  0  0  0  0  0  0  0  0
   13.8597  -18.0943   16.0369 C   0  0  0  0  0  0  0  0  0  0  0  0
   14.5403  -17.0501   16.6449 C   0  0  0  0  0  0  0  0  0  0  0  0
   14.0645  -16.4610   17.8003 C   0  0  0  0  0  0  0  0  0  0  0  0
   12.8929  -16.9030   18.3779 C   0  0  0  0  0  0  0  0  0  0  0  0
   12.3262  -16.3268   19.6052 C   0  0  0  0  0  0  0  0  0  0  0  0
   11.6095  -15.0057   19.3159 C   0  0  2  0  0  0  0  0  0  0  0  0
   12.6680  -14.0488   19.0560 N   0  0  0  0  0  0  0  0  0  0  0  0
   10.8558  -14.6118   20.5248 C   0  0  0  0  0  0  0  0  0  0  0  0
   11.4908  -14.1243   21.4927 O   0  0  0  0  0  0  0  0  0  0  0  0
   12.2289  -17.9410   17.7616 C   0  0  0  0  0  0  0  0  0  0  0  0
   12.6901  -18.5403   16.6077 C   0  0  0  0  0  0  0  0  0  0  0  0
    9.4518  -14.7563   20.6477 N   0  0  0  0  0  0  0  0  0  0  0  0
    8.5990  -15.3441   19.6387 C   0  0  0  0  0  0  0  0  0  0  0  0
    7.3517  -14.4569   19.7607 C   0  0  0  0  0  0  0  0  0  0  0  0
    7.1919  -14.4189   21.2670 C   0  0  0  0  0  0  0  0  0  0  0  0
    8.6260  -14.3678   21.7487 C   0  0  1  0  0  0  0  0  0  0  0  0
    8.8181  -15.3065   22.9008 C   0  0  0  0  0  0  0  0  0  0  0  0
    9.2017  -16.5005   22.7300 O   0  0  0  0  0  0  0  0  0  0  0  0
    8.5834  -14.9157   24.2403 N   0  0  0  0  0  0  0  0  0  0  0  0
    8.8115  -15.7910   25.3872 C   0  0  1  0  0  0  0  0  0  0  0  0
    8.9187  -14.8593   26.5728 C   0  0  0  0  0  0  0  0  0  0  0  0
    7.9772  -13.7435   26.5637 C   0  0  0  0  0  0  0  0  0  0  0  0
    6.6691  -13.9915   26.9482 C   0  0  0  0  0  0  0  0  0  0  0  0
    5.7135  -12.9945   26.9764 C   0  0  0  0  0  0  0  0  0  0  0  0
    6.0816  -11.7212   26.6101 C   0  0  0  0  0  0  0  0  0  0  0  0
    7.3759  -11.4444   26.2231 C   0  0  0  0  0  0  0  0  0  0  0  0
    8.3226  -12.4725   26.2039 C   0  0  0  0  0  0  0  0  0  0  0  0
    7.6742  -16.7073   25.6017 C   0  0  0  0  0  0  0  0  0  0  0  0
    6.5919  -16.4657   25.0105 O   0  0  0  0  0  0  0  0  0  0  0  0
    7.7214  -17.8242   26.4163 O   0  0  0  0  0  0  0  0  0  0  0  0
  2  1  1  0
  3  2  2  0
  4  3  1  0
  5 11  1  0
  5  4  2  0
  6  5  1  0
  7  6  1  0
  7  8  1  1
  9  7  1  0
  9 10  2  0
 11 12  2  0
 12  2  1  0
 13  9  1  0
 14 13  1  0
 15 14  1  0
 16 15  1  0
 16 17  1  0
 17 13  1  0
 17 18  1  1
 19 18  2  0
 20 18  1  0
 21 29  1  0
 21 20  1  0
 21 22  1  1
 23 22  1  0
 24 23  2  0
 25 24  1  0
 26 27  1  0
 26 25  2  0
 27 28  2  0
 28 23  1  0
 29 31  1  0
 30 29  2  0
M  END
$$$$
