YPF.pdb
     RDKit          3D

 31 33  0  0  1  0  0  0  0  0999 V2000
    1.1852  -19.5971   19.2347 O   0  0  0  0  0  0  0  0  0  0  0  0
    2.4766  -19.4329   19.6794 C   0  0  0  0  0  0  0  0  0  0  0  0
    3.4746  -20.3506   19.3876 C   0  0  0  0  0  0  0  0  0  0  0  0
    4.7672  -20.1722   19.8412 C   0  0  0  0  0  0  0  0  0  0  0  0
    5.0946  -19.0683   20.6002 C   0  0  0  0  0  0  0  0  0  0  0  0
    6.4458  -18.8120   21.1178 C   0  0  0  0  0  0  0  0  0  0  0  0
    7.2511  -17.9388   20.1525 C   0  0  2  0  0  0  0  0  0  0  0  0
    7.9006  -18.8703   19.2502 N   0  0  0  0  0  0  0  0  0  0  0  0
    8.2649  -17.1979   20.9322 C   0  0  0  0  0  0  0  0  0  0  0  0
    9.4571  -17.5913   20.8892 O   0  0  0  0  0  0  0  0  0  0  0  0
    4.0919  -18.1663   20.8812 C   0  0  0  0  0  0  0  0  0  0  0  0
    2.7962  -18.3293   20.4361 C   0  0  0  0  0  0  0  0  0  0  0  0
    7.9603  -16.0650   21.7265 N   0  0  0  0  0  0  0  0  0  0  0  0
    6.6379  -15.4971   21.8676 C   0  0  0  0  0  0  0  0  0  0  0  0
    6.9700  -13.9989   21.9203 C   0  0  0  0  0  0  0  0  0  0  0  0
    8.1313  -14.0124   22.8935 C   0  0  0  0  0  0  0  0  0  0  0  0
    8.8599  -15.2851   22.5185 C   0  0  1  0  0  0  0  0  0  0  0  0
    9.2540  -16.0379   23.7528 C   0  0  0  0  0  0  0  0  0  0  0  0
    8.4358  -16.7813   24.3691 O   0  0  0  0  0  0  0  0  0  0  0  0
   10.5570  -15.9626   24.2993 N   0  0  0  0  0  0  0  0  0  0  0  0
   11.0234  -16.8127   25.3917 C   0  0  1  0  0  0  0  0  0  0  0  0
   11.7773  -15.8823   26.3144 C   0  0  0  0  0  0  0  0  0  0  0  0
   10.9356  -15.0136   27.1319 C   0  0  0  0  0  0  0  0  0  0  0  0
   10.7779  -15.3318   28.4715 C   0  0  0  0  0  0  0  0  0  0  0  0
   10.0059  -14.5624   29.3200 C   0  0  0  0  0  0  0  0  0  0  0  0
    9.3794  -13.4494   28.8103 C   0  0  0  0  0  0  0  0  0  0  0  0
    9.5181  -13.1079   27.4815 C   0  0  0  0  0  0  0  0  0  0  0  0
   10.3055  -13.9044   26.6453 C   0  0  0  0  0  0  0  0  0  0  0  0
    9.8939  -17.4077   26.1327 C   0  0  0  0  0  0  0  0  0  0  0  0
    8.7480  -16.9181   25.9704 O   0  0  0  0  0  0  0  0  0  0  0  0
   10.0139  -18.4781   27.0006 O   0  0  0  0  0  0  0  0  0  0  0  0
  2  1  1  0
  3  2  2  0
  4  3  1  0
  5 11  1  0
  5  4  2  0
  6  5  1  0
  7  6  1  0
  7  8  1  6
  9  7  1  0
  9 10  2  0
 11 12  2  0
 12  2  1  0
 13  9  1  0
 14 13  1  0
 15 14  1  0
 16 15  1  0
 16 17  1  0
 17 13  1  0
 17 18  1  1
 19 18  2  0
 20 18  1  0
 21 29  1  0
 21 20  1  0
 21 22  1  1
 23 22  1  0
 24 23  2  0
 25 24  1  0
 26 27  1  0
 26 25  2  0
 27 28  2  0
 28 23  1  0
 29 31  1  0
 30 29  2  0
M  END
$$$$
