YPF.pdb
     RDKit          3D

 31 33  0  0  1  0  0  0  0  0999 V2000
   14.6550  -14.7053   19.8247 O   0  0  0  0  0  0  0  0  0  0  0  0
   13.3284  -14.3618   19.9460 C   0  0  0  0  0  0  0  0  0  0  0  0
   12.4694  -15.0435   20.7950 C   0  0  0  0  0  0  0  0  0  0  0  0
   11.1394  -14.6869   20.9063 C   0  0  0  0  0  0  0  0  0  0  0  0
   10.6342  -13.6367   20.1691 C   0  0  0  0  0  0  0  0  0  0  0  0
    9.2323  -13.2007   20.2341 C   0  0  0  0  0  0  0  0  0  0  0  0
    8.2841  -14.3222   19.8030 C   0  0  2  0  0  0  0  0  0  0  0  0
    7.2041  -13.6566   19.0999 N   0  0  0  0  0  0  0  0  0  0  0  0
    7.7654  -14.9845   21.0183 C   0  0  0  0  0  0  0  0  0  0  0  0
    7.0102  -14.3304   21.7796 O   0  0  0  0  0  0  0  0  0  0  0  0
   11.5004  -12.9699   19.3306 C   0  0  0  0  0  0  0  0  0  0  0  0
   12.8310  -13.3130   19.2076 C   0  0  0  0  0  0  0  0  0  0  0  0
    8.0769  -16.3215   21.3687 N   0  0  0  0  0  0  0  0  0  0  0  0
    8.8476  -17.2246   20.5433 C   0  0  0  0  0  0  0  0  0  0  0  0
    8.1193  -18.5505   20.8063 C   0  0  0  0  0  0  0  0  0  0  0  0
    7.9810  -18.4898   22.3140 C   0  0  0  0  0  0  0  0  0  0  0  0
    7.7093  -17.0212   22.5604 C   0  0  1  0  0  0  0  0  0  0  0  0
    8.5203  -16.5333   23.7222 C   0  0  0  0  0  0  0  0  0  0  0  0
    9.7126  -16.1329   23.5806 O   0  0  0  0  0  0  0  0  0  0  0  0
    8.0039  -16.4917   25.0389 N   0  0  0  0  0  0  0  0  0  0  0  0
    8.8146  -16.1797   26.2133 C   0  0  1  0  0  0  0  0  0  0  0  0
    7.8803  -15.4448   27.1473 C   0  0  0  0  0  0  0  0  0  0  0  0
    7.4821  -14.1147   26.6960 C   0  0  0  0  0  0  0  0  0  0  0  0
    8.4722  -13.1593   26.5301 C   0  0  0  0  0  0  0  0  0  0  0  0
    8.1875  -11.8779   26.1002 C   0  0  0  0  0  0  0  0  0  0  0  0
    6.8792  -11.5506   25.8313 C   0  0  0  0  0  0  0  0  0  0  0  0
    5.8728  -12.4804   25.9871 C   0  0  0  0  0  0  0  0  0  0  0  0
    6.1895  -13.7699   26.4235 C   0  0  0  0  0  0  0  0  0  0  0  0
    9.2904  -17.4065   26.8822 C   0  0  0  0  0  0  0  0  0  0  0  0
   10.1163  -17.2930   27.8226 O   0  0  0  0  0  0  0  0  0  0  0  0
    8.8836  -18.6836   26.5403 O   0  0  0  0  0  0  0  0  0  0  0  0
  2  1  1  0
  3  2  2  0
  4  3  1  0
  5 11  1  0
  5  4  2  0
  6  5  1  0
  7  6  1  0
  7  8  1  1
  9  7  1  0
  9 10  2  0
 11 12  2  0
 12  2  1  0
 13  9  1  0
 14 13  1  0
 15 14  1  0
 16 15  1  0
 16 17  1  0
 17 13  1  0
 17 18  1  1
 19 18  2  0
 20 18  1  0
 21 29  1  0
 21 20  1  0
 21 22  1  1
 23 22  1  0
 24 23  2  0
 25 24  1  0
 26 27  1  0
 26 25  2  0
 27 28  2  0
 28 23  1  0
 29 31  1  0
 30 29  2  0
M  END
$$$$
