YPF.pdb
     RDKit          3D

 31 33  0  0  1  0  0  0  0  0999 V2000
    8.7438  -23.2911   16.4046 O   0  0  0  0  0  0  0  0  0  0  0  0
    8.9866  -22.2629   17.2858 C   0  0  0  0  0  0  0  0  0  0  0  0
    8.0204  -21.3164   17.5920 C   0  0  0  0  0  0  0  0  0  0  0  0
    8.2791  -20.2893   18.4791 C   0  0  0  0  0  0  0  0  0  0  0  0
    9.5140  -20.1835   19.0835 C   0  0  0  0  0  0  0  0  0  0  0  0
    9.8622  -19.1195   20.0355 C   0  0  0  0  0  0  0  0  0  0  0  0
    9.8553  -17.7472   19.3576 C   0  0  2  0  0  0  0  0  0  0  0  0
   11.1429  -17.6434   18.6981 N   0  0  0  0  0  0  0  0  0  0  0  0
    9.7380  -16.7120   20.4061 C   0  0  0  0  0  0  0  0  0  0  0  0
   10.7887  -16.2908   20.9506 O   0  0  0  0  0  0  0  0  0  0  0  0
   10.4627  -21.1316   18.7687 C   0  0  0  0  0  0  0  0  0  0  0  0
   10.2209  -22.1633   17.8853 C   0  0  0  0  0  0  0  0  0  0  0  0
    8.4993  -16.1697   20.8287 N   0  0  0  0  0  0  0  0  0  0  0  0
    7.2136  -16.5467   20.2847 C   0  0  0  0  0  0  0  0  0  0  0  0
    6.4868  -15.1941   20.2947 C   0  0  0  0  0  0  0  0  0  0  0  0
    6.8493  -14.7015   21.6810 C   0  0  0  0  0  0  0  0  0  0  0  0
    8.2764  -15.1813   21.8378 C   0  0  1  0  0  0  0  0  0  0  0  0
    8.4760  -15.7731   23.1999 C   0  0  0  0  0  0  0  0  0  0  0  0
    8.4061  -17.0208   23.4006 O   0  0  0  0  0  0  0  0  0  0  0  0
    8.7528  -14.9764   24.3360 N   0  0  0  0  0  0  0  0  0  0  0  0
    9.0024  -15.5274   25.6656 C   0  0  1  0  0  0  0  0  0  0  0  0
    9.1674  -14.3214   26.5621 C   0  0  0  0  0  0  0  0  0  0  0  0
    8.0313  -13.4046   26.5730 C   0  0  0  0  0  0  0  0  0  0  0  0
    7.9019  -12.5401   27.6485 C   0  0  0  0  0  0  0  0  0  0  0  0
    6.8627  -11.6347   27.7381 C   0  0  0  0  0  0  0  0  0  0  0  0
    5.9339  -11.5981   26.7246 C   0  0  0  0  0  0  0  0  0  0  0  0
    6.0369  -12.4460   25.6420 C   0  0  0  0  0  0  0  0  0  0  0  0
    7.0990  -13.3523   25.5771 C   0  0  0  0  0  0  0  0  0  0  0  0
    7.8554  -16.3241   26.1439 C   0  0  0  0  0  0  0  0  0  0  0  0
    6.7438  -16.1714   25.5778 O   0  0  0  0  0  0  0  0  0  0  0  0
    7.9236  -17.2358   27.1818 O   0  0  0  0  0  0  0  0  0  0  0  0
  2  1  1  0
  3  2  2  0
  4  3  1  0
  5 11  1  0
  5  4  2  0
  6  5  1  0
  7  6  1  0
  7  8  1  1
  9  7  1  0
  9 10  2  0
 11 12  2  0
 12  2  1  0
 13  9  1  0
 14 13  1  0
 15 14  1  0
 16 15  1  0
 16 17  1  0
 17 13  1  0
 17 18  1  1
 19 18  2  0
 20 18  1  0
 21 29  1  0
 21 20  1  0
 21 22  1  1
 23 22  1  0
 24 23  2  0
 25 24  1  0
 26 27  1  0
 26 25  2  0
 27 28  2  0
 28 23  1  0
 29 31  1  0
 30 29  2  0
M  END
$$$$
