YPF.pdb
     RDKit          3D

 31 33  0  0  1  0  0  0  0  0999 V2000
    5.1796  -10.2160   26.9749 O   0  0  0  0  0  0  0  0  0  0  0  0
    5.7373  -11.4477   26.7212 C   0  0  0  0  0  0  0  0  0  0  0  0
    6.8198  -11.6005   25.8678 C   0  0  0  0  0  0  0  0  0  0  0  0
    7.3691  -12.8442   25.6227 C   0  0  0  0  0  0  0  0  0  0  0  0
    6.8479  -13.9689   26.2269 C   0  0  0  0  0  0  0  0  0  0  0  0
    7.3780  -15.3229   26.0142 C   0  0  0  0  0  0  0  0  0  0  0  0
    6.7278  -15.9863   24.7977 C   0  0  2  0  0  0  0  0  0  0  0  0
    5.9522  -17.0877   25.3355 N   0  0  0  0  0  0  0  0  0  0  0  0
    7.8005  -16.5021   23.9214 C   0  0  0  0  0  0  0  0  0  0  0  0
    8.2021  -17.6793   24.0976 O   0  0  0  0  0  0  0  0  0  0  0  0
    5.7728  -13.8001   27.0716 C   0  0  0  0  0  0  0  0  0  0  0  0
    5.2123  -12.5656   27.3273 C   0  0  0  0  0  0  0  0  0  0  0  0
    8.3997  -15.7357   22.8915 N   0  0  0  0  0  0  0  0  0  0  0  0
    7.9741  -14.4082   22.5072 C   0  0  0  0  0  0  0  0  0  0  0  0
    8.1712  -14.4698   20.9856 C   0  0  0  0  0  0  0  0  0  0  0  0
    9.5431  -15.1094   20.9154 C   0  0  0  0  0  0  0  0  0  0  0  0
    9.5020  -16.1021   22.0574 C   0  0  1  0  0  0  0  0  0  0  0  0
   10.7826  -16.0501   22.8338 C   0  0  0  0  0  0  0  0  0  0  0  0
   11.6098  -15.1028   22.6913 O   0  0  0  0  0  0  0  0  0  0  0  0
   11.1408  -17.0516   23.7671 N   0  0  0  0  0  0  0  0  0  0  0  0
   12.3853  -17.0329   24.5317 C   0  0  1  0  0  0  0  0  0  0  0  0
   11.9609  -17.2202   25.9705 C   0  0  0  0  0  0  0  0  0  0  0  0
   11.3316  -16.0532   26.5817 C   0  0  0  0  0  0  0  0  0  0  0  0
   11.0101  -16.1166   27.9283 C   0  0  0  0  0  0  0  0  0  0  0  0
   10.4194  -15.0577   28.5899 C   0  0  0  0  0  0  0  0  0  0  0  0
   10.1463  -13.9108   27.8821 C   0  0  0  0  0  0  0  0  0  0  0  0
   10.4551  -13.8186   26.5412 C   0  0  0  0  0  0  0  0  0  0  0  0
   11.0526  -14.9056   25.8969 C   0  0  0  0  0  0  0  0  0  0  0  0
   13.2722  -18.1484   24.1467 C   0  0  0  0  0  0  0  0  0  0  0  0
   14.4647  -18.1281   24.5426 O   0  0  0  0  0  0  0  0  0  0  0  0
   12.8743  -19.2239   23.3733 O   0  0  0  0  0  0  0  0  0  0  0  0
  2  1  1  0
  3  2  2  0
  4  3  1  0
  5 11  1  0
  5  4  2  0
  6  5  1  0
  7  6  1  0
  7  8  1  1
  9  7  1  0
  9 10  2  0
 11 12  2  0
 12  2  1  0
 13  9  1  0
 14 13  1  0
 15 14  1  0
 16 15  1  0
 16 17  1  0
 17 13  1  0
 17 18  1  1
 19 18  2  0
 20 18  1  0
 21 29  1  0
 21 20  1  0
 21 22  1  1
 23 22  1  0
 24 23  2  0
 25 24  1  0
 26 27  1  0
 26 25  2  0
 27 28  2  0
 28 23  1  0
 29 31  1  0
 30 29  2  0
M  END
$$$$
