YPF.pdb
     RDKit          3D

 31 33  0  0  1  0  0  0  0  0999 V2000
    0.2654  -20.4922   20.0092 O   0  0  0  0  0  0  0  0  0  0  0  0
    1.4081  -19.8045   20.3469 C   0  0  0  0  0  0  0  0  0  0  0  0
    1.8810  -18.7485   19.5824 C   0  0  0  0  0  0  0  0  0  0  0  0
    3.0302  -18.0673   19.9342 C   0  0  0  0  0  0  0  0  0  0  0  0
    3.7368  -18.4266   21.0626 C   0  0  0  0  0  0  0  0  0  0  0  0
    4.9663  -17.7502   21.4989 C   0  0  0  0  0  0  0  0  0  0  0  0
    5.8705  -17.4244   20.3077 C   0  0  2  0  0  0  0  0  0  0  0  0
    6.1834  -18.7070   19.7070 N   0  0  0  0  0  0  0  0  0  0  0  0
    7.1034  -16.7906   20.8203 C   0  0  0  0  0  0  0  0  0  0  0  0
    8.1206  -17.5088   20.9859 O   0  0  0  0  0  0  0  0  0  0  0  0
    3.2539  -19.4776   21.8111 C   0  0  0  0  0  0  0  0  0  0  0  0
    2.1082  -20.1683   21.4740 C   0  0  0  0  0  0  0  0  0  0  0  0
    7.1968  -15.4123   21.1347 N   0  0  0  0  0  0  0  0  0  0  0  0
    6.1699  -14.4363   20.8448 C   0  0  0  0  0  0  0  0  0  0  0  0
    7.0257  -13.2192   20.4653 C   0  0  0  0  0  0  0  0  0  0  0  0
    8.0509  -13.2499   21.5806 C   0  0  0  0  0  0  0  0  0  0  0  0
    8.2792  -14.7334   21.7767 C   0  0  1  0  0  0  0  0  0  0  0  0
    8.3074  -15.0632   23.2382 C   0  0  0  0  0  0  0  0  0  0  0  0
    7.2812  -15.4883   23.8449 O   0  0  0  0  0  0  0  0  0  0  0  0
    9.4767  -14.9197   24.0221 N   0  0  0  0  0  0  0  0  0  0  0  0
    9.5369  -15.2397   25.4460 C   0  0  1  0  0  0  0  0  0  0  0  0
    8.1265  -15.0366   25.9507 C   0  0  0  0  0  0  0  0  0  0  0  0
    7.8156  -13.6737   26.3718 C   0  0  0  0  0  0  0  0  0  0  0  0
    6.4994  -13.3723   26.6841 C   0  0  0  0  0  0  0  0  0  0  0  0
    6.1162  -12.1115   27.0979 C   0  0  0  0  0  0  0  0  0  0  0  0
    7.0771  -11.1331   27.1999 C   0  0  0  0  0  0  0  0  0  0  0  0
    8.3948  -11.4036   26.8960 C   0  0  0  0  0  0  0  0  0  0  0  0
    8.7546  -12.6884   26.4797 C   0  0  0  0  0  0  0  0  0  0  0  0
    9.9249  -16.6468   25.6671 C   0  0  0  0  0  0  0  0  0  0  0  0
   10.1217  -17.0346   26.8462 O   0  0  0  0  0  0  0  0  0  0  0  0
   10.0867  -17.5747   24.6542 O   0  0  0  0  0  0  0  0  0  0  0  0
  2  1  1  0
  3  2  2  0
  4  3  1  0
  5 11  1  0
  5  4  2  0
  6  5  1  0
  7  6  1  0
  7  8  1  1
  9  7  1  0
  9 10  2  0
 11 12  2  0
 12  2  1  0
 13  9  1  0
 14 13  1  0
 15 14  1  0
 16 15  1  0
 16 17  1  0
 17 13  1  0
 17 18  1  1
 19 18  2  0
 20 18  1  0
 21 29  1  0
 21 20  1  0
 21 22  1  6
 23 22  1  0
 24 23  2  0
 25 24  1  0
 26 27  1  0
 26 25  2  0
 27 28  2  0
 28 23  1  0
 29 31  1  0
 30 29  2  0
M  END
$$$$
