YPF.pdb
     RDKit          3D

 31 33  0  0  1  0  0  0  0  0999 V2000
    7.2962  -21.1227   14.2936 O   0  0  0  0  0  0  0  0  0  0  0  0
    7.6764  -20.4651   15.4406 C   0  0  0  0  0  0  0  0  0  0  0  0
    8.5648  -21.0251   16.3464 C   0  0  0  0  0  0  0  0  0  0  0  0
    8.9373  -20.3524   17.4941 C   0  0  0  0  0  0  0  0  0  0  0  0
    8.4290  -19.0994   17.7649 C   0  0  0  0  0  0  0  0  0  0  0  0
    8.7780  -18.3247   18.9639 C   0  0  0  0  0  0  0  0  0  0  0  0
    9.4557  -17.0040   18.5908 C   0  0  2  0  0  0  0  0  0  0  0  0
   10.7884  -17.3720   18.1524 N   0  0  0  0  0  0  0  0  0  0  0  0
    9.5352  -16.1639   19.8043 C   0  0  0  0  0  0  0  0  0  0  0  0
   10.5619  -16.2477   20.5232 O   0  0  0  0  0  0  0  0  0  0  0  0
    7.5478  -18.5572   16.8553 C   0  0  0  0  0  0  0  0  0  0  0  0
    7.1654  -19.2153   15.7046 C   0  0  0  0  0  0  0  0  0  0  0  0
    8.5113  -15.2676   20.1985 N   0  0  0  0  0  0  0  0  0  0  0  0
    7.2953  -15.0357   19.4511 C   0  0  0  0  0  0  0  0  0  0  0  0
    7.1005  -13.5292   19.6747 C   0  0  0  0  0  0  0  0  0  0  0  0
    7.3573  -13.4406   21.1654 C   0  0  0  0  0  0  0  0  0  0  0  0
    8.4720  -14.4446   21.3673 C   0  0  1  0  0  0  0  0  0  0  0  0
    8.2027  -15.2785   22.5828 C   0  0  0  0  0  0  0  0  0  0  0  0
    7.6021  -16.3901   22.5081 O   0  0  0  0  0  0  0  0  0  0  0  0
    8.6018  -14.8746   23.8789 N   0  0  0  0  0  0  0  0  0  0  0  0
    8.4440  -15.7088   25.0675 C   0  0  1  0  0  0  0  0  0  0  0  0
    8.7615  -14.7952   26.2293 C   0  0  0  0  0  0  0  0  0  0  0  0
    7.8301  -13.6856   26.4100 C   0  0  0  0  0  0  0  0  0  0  0  0
    7.8830  -12.9775   27.6001 C   0  0  0  0  0  0  0  0  0  0  0  0
    7.0449  -11.9093   27.8536 C   0  0  0  0  0  0  0  0  0  0  0  0
    6.1341  -11.5457   26.8896 C   0  0  0  0  0  0  0  0  0  0  0  0
    6.0584  -12.2316   25.6956 C   0  0  0  0  0  0  0  0  0  0  0  0
    6.9190  -13.3087   25.4656 C   0  0  0  0  0  0  0  0  0  0  0  0
    7.0566  -16.1933   25.2067 C   0  0  0  0  0  0  0  0  0  0  0  0
    6.1452  -15.5807   24.5958 O   0  0  0  0  0  0  0  0  0  0  0  0
    6.6901  -17.2866   25.9707 O   0  0  0  0  0  0  0  0  0  0  0  0
  2  1  1  0
  3  2  2  0
  4  3  1  0
  5 11  1  0
  5  4  2  0
  6  5  1  0
  7  6  1  0
  7  8  1  1
  9  7  1  0
  9 10  2  0
 11 12  2  0
 12  2  1  0
 13  9  1  0
 14 13  1  0
 15 14  1  0
 16 15  1  0
 16 17  1  0
 17 13  1  0
 17 18  1  1
 19 18  2  0
 20 18  1  0
 21 29  1  0
 21 20  1  0
 21 22  1  1
 23 22  1  0
 24 23  2  0
 25 24  1  0
 26 27  1  0
 26 25  2  0
 27 28  2  0
 28 23  1  0
 29 31  1  0
 30 29  2  0
M  END
$$$$
