YPF.pdb
     RDKit          3D

 31 33  0  0  1  0  0  0  0  0999 V2000
    8.6947  -13.0906   16.6307 O   0  0  0  0  0  0  0  0  0  0  0  0
    8.4067  -13.5042   17.9108 C   0  0  0  0  0  0  0  0  0  0  0  0
    7.9659  -14.7904   18.1839 C   0  0  0  0  0  0  0  0  0  0  0  0
    7.6807  -15.1913   19.4747 C   0  0  0  0  0  0  0  0  0  0  0  0
    7.8298  -14.3131   20.5275 C   0  0  0  0  0  0  0  0  0  0  0  0
    7.5456  -14.6671   21.9251 C   0  0  0  0  0  0  0  0  0  0  0  0
    6.9293  -16.0644   22.0271 C   0  0  2  0  0  0  0  0  0  0  0  0
    5.5286  -15.8402   22.3295 N   0  0  0  0  0  0  0  0  0  0  0  0
    7.5811  -16.7789   23.1449 C   0  0  0  0  0  0  0  0  0  0  0  0
    7.2498  -16.4805   24.3192 O   0  0  0  0  0  0  0  0  0  0  0  0
    8.2686  -13.0393   20.2395 C   0  0  0  0  0  0  0  0  0  0  0  0
    8.5578  -12.6228   18.9564 C   0  0  0  0  0  0  0  0  0  0  0  0
    8.5615  -17.7846   22.9591 N   0  0  0  0  0  0  0  0  0  0  0  0
    8.9652  -18.3049   21.6718 C   0  0  0  0  0  0  0  0  0  0  0  0
    9.1807  -19.7864   22.0126 C   0  0  0  0  0  0  0  0  0  0  0  0
    9.9697  -19.6568   23.2997 C   0  0  0  0  0  0  0  0  0  0  0  0
    9.3210  -18.4614   23.9641 C   0  0  1  0  0  0  0  0  0  0  0  0
   10.3696  -17.5504   24.5264 C   0  0  0  0  0  0  0  0  0  0  0  0
   11.0490  -16.7804   23.7865 O   0  0  0  0  0  0  0  0  0  0  0  0
   10.6605  -17.4976   25.9101 N   0  0  0  0  0  0  0  0  0  0  0  0
   11.8706  -16.8891   26.4568 C   0  0  1  0  0  0  0  0  0  0  0  0
   11.6774  -15.4016   26.2690 C   0  0  0  0  0  0  0  0  0  0  0  0
   10.6162  -14.8131   27.0808 C   0  0  0  0  0  0  0  0  0  0  0  0
    9.3985  -14.5530   26.4725 C   0  0  0  0  0  0  0  0  0  0  0  0
    8.3371  -14.0043   27.1655 C   0  0  0  0  0  0  0  0  0  0  0  0
    8.5042  -13.7110   28.4986 C   0  0  0  0  0  0  0  0  0  0  0  0
    9.7044  -13.9588   29.1308 C   0  0  0  0  0  0  0  0  0  0  0  0
   10.7618  -14.5149   28.4052 C   0  0  0  0  0  0  0  0  0  0  0  0
   12.0141  -17.1734   27.8982 C   0  0  0  0  0  0  0  0  0  0  0  0
   13.0481  -16.7697   28.4874 O   0  0  0  0  0  0  0  0  0  0  0  0
   11.0776  -17.8598   28.6500 O   0  0  0  0  0  0  0  0  0  0  0  0
  2  1  1  0
  3  2  2  0
  4  3  1  0
  5 11  1  0
  5  4  2  0
  6  5  1  0
  7  6  1  0
  7  8  1  1
  9  7  1  0
  9 10  2  0
 11 12  2  0
 12  2  1  0
 13  9  1  0
 14 13  1  0
 15 14  1  0
 16 15  1  0
 16 17  1  0
 17 13  1  0
 17 18  1  6
 19 18  2  0
 20 18  1  0
 21 29  1  0
 21 20  1  0
 21 22  1  1
 23 22  1  0
 24 23  2  0
 25 24  1  0
 26 27  1  0
 26 25  2  0
 27 28  2  0
 28 23  1  0
 29 31  1  0
 30 29  2  0
M  END
$$$$
