YPF.pdb
     RDKit          3D

 31 33  0  0  1  0  0  0  0  0999 V2000
   14.0797  -16.0695   20.6104 O   0  0  0  0  0  0  0  0  0  0  0  0
   12.9952  -15.3150   20.2269 C   0  0  0  0  0  0  0  0  0  0  0  0
   12.3135  -14.5037   21.1215 C   0  0  0  0  0  0  0  0  0  0  0  0
   11.2259  -13.7515   20.7215 C   0  0  0  0  0  0  0  0  0  0  0  0
   10.7922  -13.7923   19.4131 C   0  0  0  0  0  0  0  0  0  0  0  0
    9.6442  -13.0218   18.9151 C   0  0  0  0  0  0  0  0  0  0  0  0
    8.4241  -13.9216   18.7045 C   0  0  2  0  0  0  0  0  0  0  0  0
    7.4176  -13.0630   18.1099 N   0  0  0  0  0  0  0  0  0  0  0  0
    7.9660  -14.3995   20.0261 C   0  0  0  0  0  0  0  0  0  0  0  0
    7.6186  -13.5483   20.8821 O   0  0  0  0  0  0  0  0  0  0  0  0
   11.4801  -14.6030   18.5371 C   0  0  0  0  0  0  0  0  0  0  0  0
   12.5679  -15.3604   18.9200 C   0  0  0  0  0  0  0  0  0  0  0  0
    7.8985  -15.7704   20.3770 N   0  0  0  0  0  0  0  0  0  0  0  0
    8.3289  -16.8551   19.5231 C   0  0  0  0  0  0  0  0  0  0  0  0
    7.2657  -17.9155   19.8434 C   0  0  0  0  0  0  0  0  0  0  0  0
    7.2357  -17.8217   21.3554 C   0  0  0  0  0  0  0  0  0  0  0  0
    7.4126  -16.3378   21.5964 C   0  0  1  0  0  0  0  0  0  0  0  0
    8.3937  -16.1077   22.7055 C   0  0  0  0  0  0  0  0  0  0  0  0
    9.6326  -15.9767   22.4820 O   0  0  0  0  0  0  0  0  0  0  0  0
    7.9952  -16.0236   24.0606 N   0  0  0  0  0  0  0  0  0  0  0  0
    8.9307  -16.0807   25.1809 C   0  0  1  0  0  0  0  0  0  0  0  0
    9.2709  -14.6381   25.4780 C   0  0  0  0  0  0  0  0  0  0  0  0
    8.1437  -13.8187   25.9133 C   0  0  0  0  0  0  0  0  0  0  0  0
    6.8635  -14.3002   25.6902 C   0  0  0  0  0  0  0  0  0  0  0  0
    5.7396  -13.5954   26.0752 C   0  0  0  0  0  0  0  0  0  0  0  0
    5.9071  -12.3807   26.6976 C   0  0  0  0  0  0  0  0  0  0  0  0
    7.1688  -11.8762   26.9329 C   0  0  0  0  0  0  0  0  0  0  0  0
    8.2886  -12.6107   26.5329 C   0  0  0  0  0  0  0  0  0  0  0  0
    8.3052  -16.6794   26.3765 C   0  0  0  0  0  0  0  0  0  0  0  0
    7.0745  -16.9317   26.3446 O   0  0  0  0  0  0  0  0  0  0  0  0
    8.9897  -16.9846   27.5391 O   0  0  0  0  0  0  0  0  0  0  0  0
  2  1  1  0
  3  2  2  0
  4  3  1  0
  5 11  1  0
  5  4  2  0
  6  5  1  0
  7  6  1  0
  7  8  1  1
  9  7  1  0
  9 10  2  0
 11 12  2  0
 12  2  1  0
 13  9  1  0
 14 13  1  0
 15 14  1  0
 16 15  1  0
 16 17  1  0
 17 13  1  0
 17 18  1  1
 19 18  2  0
 20 18  1  0
 21 29  1  0
 21 20  1  0
 21 22  1  1
 23 22  1  0
 24 23  2  0
 25 24  1  0
 26 27  1  0
 26 25  2  0
 27 28  2  0
 28 23  1  0
 29 31  1  0
 30 29  2  0
M  END
$$$$
