YPF.pdb
     RDKit          3D

 31 33  0  0  1  0  0  0  0  0999 V2000
   11.6790  -21.3462   23.0841 O   0  0  0  0  0  0  0  0  0  0  0  0
   10.9155  -20.6183   22.2010 C   0  0  0  0  0  0  0  0  0  0  0  0
    9.6429  -20.1732   22.5261 C   0  0  0  0  0  0  0  0  0  0  0  0
    8.8880  -19.4431   21.6287 C   0  0  0  0  0  0  0  0  0  0  0  0
    9.3887  -19.1391   20.3802 C   0  0  0  0  0  0  0  0  0  0  0  0
    8.6450  -18.3685   19.3740 C   0  0  0  0  0  0  0  0  0  0  0  0
    9.3798  -17.0749   19.0144 C   0  0  2  0  0  0  0  0  0  0  0  0
   10.7052  -17.4940   18.6005 N   0  0  0  0  0  0  0  0  0  0  0  0
    9.4691  -16.2383   20.2296 C   0  0  0  0  0  0  0  0  0  0  0  0
   10.5906  -16.0980   20.7777 O   0  0  0  0  0  0  0  0  0  0  0  0
   10.6542  -19.5885   20.0728 C   0  0  0  0  0  0  0  0  0  0  0  0
   11.4212  -20.3186   20.9571 C   0  0  0  0  0  0  0  0  0  0  0  0
    8.3528  -15.5857   20.8086 N   0  0  0  0  0  0  0  0  0  0  0  0
    7.0139  -15.6175   20.2635 C   0  0  0  0  0  0  0  0  0  0  0  0
    6.5414  -14.1895   20.5718 C   0  0  0  0  0  0  0  0  0  0  0  0
    7.0032  -14.0552   22.0088 C   0  0  0  0  0  0  0  0  0  0  0  0
    8.3230  -14.7964   22.0006 C   0  0  1  0  0  0  0  0  0  0  0  0
    8.4299  -15.6748   23.2100 C   0  0  0  0  0  0  0  0  0  0  0  0
    8.1594  -16.9103   23.1616 O   0  0  0  0  0  0  0  0  0  0  0  0
    8.8374  -15.1776   24.4705 N   0  0  0  0  0  0  0  0  0  0  0  0
    8.9509  -16.0086   25.6664 C   0  0  1  0  0  0  0  0  0  0  0  0
    8.8925  -15.0367   26.8228 C   0  0  0  0  0  0  0  0  0  0  0  0
    7.8532  -14.0169   26.7156 C   0  0  0  0  0  0  0  0  0  0  0  0
    8.2448  -12.7110   26.4667 C   0  0  0  0  0  0  0  0  0  0  0  0
    7.3296  -11.6839   26.3430 C   0  0  0  0  0  0  0  0  0  0  0  0
    5.9922  -11.9766   26.4724 C   0  0  0  0  0  0  0  0  0  0  0  0
    5.5728  -13.2667   26.7201 C   0  0  0  0  0  0  0  0  0  0  0  0
    6.5207  -14.2867   26.8405 C   0  0  0  0  0  0  0  0  0  0  0  0
    7.8207  -16.9515   25.7780 C   0  0  0  0  0  0  0  0  0  0  0  0
    7.9115  -17.8996   26.5980 O   0  0  0  0  0  0  0  0  0  0  0  0
    6.6581  -16.8597   25.0342 O   0  0  0  0  0  0  0  0  0  0  0  0
  2  1  1  0
  3  2  2  0
  4  3  1  0
  5 11  1  0
  5  4  2  0
  6  5  1  0
  7  6  1  0
  7  8  1  1
  9  7  1  0
  9 10  2  0
 11 12  2  0
 12  2  1  0
 13  9  1  0
 14 13  1  0
 15 14  1  0
 16 15  1  0
 16 17  1  0
 17 13  1  0
 17 18  1  1
 19 18  2  0
 20 18  1  0
 21 29  1  0
 21 20  1  0
 21 22  1  1
 23 22  1  0
 24 23  2  0
 25 24  1  0
 26 27  1  0
 26 25  2  0
 27 28  2  0
 28 23  1  0
 29 31  1  0
 30 29  2  0
M  END
$$$$
