YPF.pdb
     RDKit          3D

 31 33  0  0  1  0  0  0  0  0999 V2000
    9.6883  -12.6619   18.1102 O   0  0  0  0  0  0  0  0  0  0  0  0
    8.7649  -13.3236   18.8861 C   0  0  0  0  0  0  0  0  0  0  0  0
    8.2970  -12.7949   20.0798 C   0  0  0  0  0  0  0  0  0  0  0  0
    7.3695  -13.4712   20.8484 C   0  0  0  0  0  0  0  0  0  0  0  0
    6.8856  -14.6966   20.4409 C   0  0  0  0  0  0  0  0  0  0  0  0
    5.8999  -15.4739   21.2049 C   0  0  0  0  0  0  0  0  0  0  0  0
    6.2309  -16.9680   21.1750 C   0  0  2  0  0  0  0  0  0  0  0  0
    4.9565  -17.6421   21.3335 N   0  0  0  0  0  0  0  0  0  0  0  0
    7.1111  -17.2716   22.3229 C   0  0  0  0  0  0  0  0  0  0  0  0
    6.6396  -17.1655   23.4824 O   0  0  0  0  0  0  0  0  0  0  0  0
    7.3603  -15.2079   19.2530 C   0  0  0  0  0  0  0  0  0  0  0  0
    8.2863  -14.5457   18.4735 C   0  0  0  0  0  0  0  0  0  0  0  0
    8.4613  -17.6769   22.1821 N   0  0  0  0  0  0  0  0  0  0  0  0
    9.1306  -17.8644   20.9141 C   0  0  0  0  0  0  0  0  0  0  0  0
   10.0108  -19.0827   21.2283 C   0  0  0  0  0  0  0  0  0  0  0  0
   10.5740  -18.6710   22.5734 C   0  0  0  0  0  0  0  0  0  0  0  0
    9.3991  -17.9700   23.2212 C   0  0  1  0  0  0  0  0  0  0  0  0
    9.8534  -16.7056   23.8848 C   0  0  0  0  0  0  0  0  0  0  0  0
   10.2660  -15.7135   23.2158 O   0  0  0  0  0  0  0  0  0  0  0  0
    9.8481  -16.5469   25.2908 N   0  0  0  0  0  0  0  0  0  0  0  0
   10.6332  -15.5332   25.9907 C   0  0  1  0  0  0  0  0  0  0  0  0
   10.0725  -14.2115   25.5176 C   0  0  0  0  0  0  0  0  0  0  0  0
    8.7864  -13.8452   26.1036 C   0  0  0  0  0  0  0  0  0  0  0  0
    8.7840  -12.9533   27.1643 C   0  0  0  0  0  0  0  0  0  0  0  0
    7.6138  -12.5458   27.7746 C   0  0  0  0  0  0  0  0  0  0  0  0
    6.4209  -13.0461   27.3082 C   0  0  0  0  0  0  0  0  0  0  0  0
    6.3922  -13.9350   26.2542 C   0  0  0  0  0  0  0  0  0  0  0  0
    7.5916  -14.3301   25.6552 C   0  0  0  0  0  0  0  0  0  0  0  0
   10.4583  -15.6297   27.4532 C   0  0  0  0  0  0  0  0  0  0  0  0
   11.1105  -14.8447   28.1865 O   0  0  0  0  0  0  0  0  0  0  0  0
    9.6166  -16.5339   28.0755 O   0  0  0  0  0  0  0  0  0  0  0  0
  2  1  1  0
  3  2  2  0
  4  3  1  0
  5 11  1  0
  5  4  2  0
  6  5  1  0
  7  6  1  0
  7  8  1  1
  9  7  1  0
  9 10  2  0
 11 12  2  0
 12  2  1  0
 13  9  1  0
 14 13  1  0
 15 14  1  0
 16 15  1  0
 16 17  1  0
 17 13  1  0
 17 18  1  6
 19 18  2  0
 20 18  1  0
 21 29  1  0
 21 20  1  0
 21 22  1  6
 23 22  1  0
 24 23  2  0
 25 24  1  0
 26 27  1  0
 26 25  2  0
 27 28  2  0
 28 23  1  0
 29 31  1  0
 30 29  2  0
M  END
$$$$
