NHH.pdb
     RDKit          3D

 29 30  0  0  1  0  0  0  0  0999 V2000
    9.8483  -20.1545   16.8464 N   0  0  0  0  0  0  0  0  0  0  0  0
   10.4378  -18.9125   17.3648 C   0  0  0  0  0  0  0  0  0  0  0  0
   11.4749  -18.5696   16.9260 O   0  0  0  0  0  0  0  0  0  0  0  0
    9.6551  -18.2495   18.4818 C   0  0  0  0  0  0  0  0  0  0  0  0
   10.5305  -18.3411   19.6925 C   0  0  2  0  0  0  0  0  0  0  0  0
   10.4445  -19.6275   20.3472 N   0  0  0  0  0  0  0  0  0  0  0  0
   10.5693  -17.2506   20.5411 C   0  0  0  0  0  0  0  0  0  0  0  0
   11.7835  -16.7084   20.6469 O   0  0  0  0  0  0  0  0  0  0  0  0
    9.3739  -16.8278   21.2479 N   0  0  0  0  0  0  0  0  0  0  0  0
    9.3048  -15.6937   22.0402 C   0  0  1  0  0  0  0  0  0  0  0  0
    8.2106  -14.7326   22.1062 C   0  0  0  0  0  0  0  0  0  0  0  0
    7.9890  -14.2276   20.7683 C   0  0  0  0  0  0  0  0  0  0  0  0
    7.1738  -14.7780   19.8460 C   0  0  0  0  0  0  0  0  0  0  0  0
    7.1704  -13.9696   18.7684 N   0  0  0  0  0  0  0  0  0  0  0  0
    8.0265  -12.9649   19.0188 C   0  0  0  0  0  0  0  0  0  0  0  0
    8.5826  -13.1129   20.2614 N   0  0  0  0  0  0  0  0  0  0  0  0
    9.6413  -16.1210   23.5241 C   0  0  0  0  0  0  0  0  0  0  0  0
    9.8731  -17.2848   23.6728 O   0  0  0  0  0  0  0  0  0  0  0  0
    9.5847  -15.0436   24.4675 N   0  0  0  0  0  0  0  0  0  0  0  0
    8.9638  -15.4279   25.6959 C   0  0  1  0  0  0  0  0  0  0  0  0
    7.3648  -15.4244   25.5411 C   0  0  0  0  0  0  0  0  0  0  0  0
    7.1207  -14.0554   26.1633 C   0  0  0  0  0  0  0  0  0  0  0  0
    8.1047  -13.1302   26.4498 C   0  0  0  0  0  0  0  0  0  0  0  0
    7.4866  -11.9583   26.6744 N   0  0  0  0  0  0  0  0  0  0  0  0
    6.1763  -12.1369   26.5327 C   0  0  0  0  0  0  0  0  0  0  0  0
    5.9094  -13.4797   26.2439 N   0  0  0  0  0  0  0  0  0  0  0  0
    9.3730  -16.7541   26.1564 C   0  0  0  0  0  0  0  0  0  0  0  0
   10.4822  -16.9037   26.9515 O   0  0  0  0  0  0  0  0  0  0  0  0
    8.7248  -17.8171   25.7676 O   0  0  0  0  0  0  0  0  0  0  0  0
  1  2  1  0
  2  3  2  0
  4  2  1  0
  4  5  1  0
  5  6  1  1
  5  7  1  0
  7  8  2  0
  9  7  1  0
  9 10  1  0
 10 11  1  1
 11 12  1  0
 12 16  1  0
 13 14  1  0
 13 12  2  0
 14 15  1  0
 15 16  2  0
 17 10  1  0
 17 18  2  0
 19 17  1  0
 20 27  1  0
 20 19  1  0
 20 21  1  6
 22 21  1  0
 23 22  2  0
 24 25  1  0
 24 23  1  0
 25 26  2  0
 26 22  1  0
 27 28  1  0
 29 27  2  0
M  END
$$$$
