NHH.pdb
     RDKit          3D

 29 30  0  0  1  0  0  0  0  0999 V2000
    8.3405  -11.7467   18.5305 N   0  0  0  0  0  0  0  0  0  0  0  0
    8.2709  -13.1450   18.9764 C   0  0  0  0  0  0  0  0  0  0  0  0
    7.2068  -13.6369   19.0838 O   0  0  0  0  0  0  0  0  0  0  0  0
    9.6065  -13.7737   19.3243 C   0  0  0  0  0  0  0  0  0  0  0  0
   10.0607  -14.4641   18.0762 C   0  0  2  0  0  0  0  0  0  0  0  0
    8.9918  -15.1765   17.4123 N   0  0  0  0  0  0  0  0  0  0  0  0
   11.2741  -15.1250   18.1131 C   0  0  0  0  0  0  0  0  0  0  0  0
   11.1552  -16.4501   18.0156 O   0  0  0  0  0  0  0  0  0  0  0  0
   12.5090  -14.3829   18.2906 N   0  0  0  0  0  0  0  0  0  0  0  0
   13.7645  -14.9672   18.3203 C   0  0  1  0  0  0  0  0  0  0  0  0
   14.8368  -14.7971   17.3473 C   0  0  0  0  0  0  0  0  0  0  0  0
   14.4831  -15.5566   16.1674 C   0  0  0  0  0  0  0  0  0  0  0  0
   14.2403  -16.8824   16.1303 C   0  0  0  0  0  0  0  0  0  0  0  0
   13.8582  -17.1934   14.8765 N   0  0  0  0  0  0  0  0  0  0  0  0
   13.9266  -16.0677   14.1462 C   0  0  0  0  0  0  0  0  0  0  0  0
   14.3457  -15.0215   14.9238 N   0  0  0  0  0  0  0  0  0  0  0  0
   14.3850  -14.7043   19.7499 C   0  0  0  0  0  0  0  0  0  0  0  0
   14.7265  -13.5758   19.9509 O   0  0  0  0  0  0  0  0  0  0  0  0
   14.4686  -15.8746   20.5728 N   0  0  0  0  0  0  0  0  0  0  0  0
   15.1004  -15.6135   21.8277 C   0  0  1  0  0  0  0  0  0  0  0  0
   14.7951  -16.8000   22.8669 C   0  0  0  0  0  0  0  0  0  0  0  0
   13.3236  -16.4760   23.0919 C   0  0  0  0  0  0  0  0  0  0  0  0
   12.5948  -15.5598   22.3600 C   0  0  0  0  0  0  0  0  0  0  0  0
   11.2979  -15.7876   22.6280 N   0  0  0  0  0  0  0  0  0  0  0  0
   11.2145  -16.8010   23.4852 C   0  0  0  0  0  0  0  0  0  0  0  0
   12.4985  -17.2367   23.8307 N   0  0  0  0  0  0  0  0  0  0  0  0
   16.5512  -15.4651   21.7208 C   0  0  0  0  0  0  0  0  0  0  0  0
   17.3050  -15.1719   22.8303 O   0  0  0  0  0  0  0  0  0  0  0  0
   17.1399  -15.5493   20.5599 O   0  0  0  0  0  0  0  0  0  0  0  0
  1  2  1  0
  2  3  2  0
  4  2  1  0
  4  5  1  0
  5  6  1  1
  5  7  1  0
  7  8  2  0
  9  7  1  0
  9 10  1  0
 10 11  1  6
 11 12  1  0
 12 16  1  0
 13 14  1  0
 13 12  2  0
 14 15  1  0
 15 16  2  0
 17 10  1  0
 17 18  2  0
 19 17  1  0
 20 27  1  0
 20 19  1  0
 20 21  1  1
 22 21  1  0
 23 22  2  0
 24 25  1  0
 24 23  1  0
 25 26  2  0
 26 22  1  0
 27 28  1  0
 29 27  2  0
M  END
$$$$
