NHH.pdb
     RDKit          3D

 29 30  0  0  1  0  0  0  0  0999 V2000
   13.8116  -19.0050   18.1779 N   0  0  0  0  0  0  0  0  0  0  0  0
   14.2672  -17.6185   18.0084 C   0  0  0  0  0  0  0  0  0  0  0  0
   14.9298  -17.3671   17.0684 O   0  0  0  0  0  0  0  0  0  0  0  0
   13.8816  -16.6756   19.1320 C   0  0  0  0  0  0  0  0  0  0  0  0
   12.6557  -17.2711   19.7509 C   0  0  2  0  0  0  0  0  0  0  0  0
   11.8326  -17.9748   18.7927 N   0  0  0  0  0  0  0  0  0  0  0  0
   11.9639  -16.5055   20.6706 C   0  0  0  0  0  0  0  0  0  0  0  0
   12.7567  -15.9111   21.5637 O   0  0  0  0  0  0  0  0  0  0  0  0
   10.5142  -16.4433   20.6314 N   0  0  0  0  0  0  0  0  0  0  0  0
    9.7449  -15.7524   21.5530 C   0  0  1  0  0  0  0  0  0  0  0  0
    8.3368  -15.3947   21.4311 C   0  0  0  0  0  0  0  0  0  0  0  0
    8.1919  -14.5820   20.2426 C   0  0  0  0  0  0  0  0  0  0  0  0
    9.1998  -14.1548   19.4554 C   0  0  0  0  0  0  0  0  0  0  0  0
    8.6544  -13.5071   18.4077 N   0  0  0  0  0  0  0  0  0  0  0  0
    7.3238  -13.4941   18.5936 C   0  0  0  0  0  0  0  0  0  0  0  0
    7.0002  -14.1390   19.7573 N   0  0  0  0  0  0  0  0  0  0  0  0
    9.9286  -16.4541   22.9571 C   0  0  0  0  0  0  0  0  0  0  0  0
   10.5159  -17.4955   22.9267 O   0  0  0  0  0  0  0  0  0  0  0  0
    9.3314  -15.7409   24.0473 N   0  0  0  0  0  0  0  0  0  0  0  0
    9.6336  -16.3300   25.3138 C   0  0  1  0  0  0  0  0  0  0  0  0
   10.5136  -15.3236   26.2046 C   0  0  0  0  0  0  0  0  0  0  0  0
   10.6035  -16.2034   27.4451 C   0  0  0  0  0  0  0  0  0  0  0  0
   10.3050  -17.5509   27.4821 C   0  0  0  0  0  0  0  0  0  0  0  0
   10.8062  -18.0314   28.6326 N   0  0  0  0  0  0  0  0  0  0  0  0
   11.3949  -17.0343   29.2868 C   0  0  0  0  0  0  0  0  0  0  0  0
   11.2465  -15.8429   28.5683 N   0  0  0  0  0  0  0  0  0  0  0  0
    8.4410  -16.6903   26.0793 C   0  0  0  0  0  0  0  0  0  0  0  0
    8.4911  -17.6932   27.0156 O   0  0  0  0  0  0  0  0  0  0  0  0
    7.3004  -16.1050   25.8392 O   0  0  0  0  0  0  0  0  0  0  0  0
  1  2  1  0
  2  3  2  0
  4  2  1  0
  4  5  1  0
  5  6  1  6
  5  7  1  0
  7  8  2  0
  9  7  1  0
  9 10  1  0
 10 11  1  6
 11 12  1  0
 12 16  1  0
 13 14  1  0
 13 12  2  0
 14 15  1  0
 15 16  2  0
 17 10  1  0
 17 18  2  0
 19 17  1  0
 20 27  1  0
 20 19  1  0
 20 21  1  1
 22 21  1  0
 23 22  2  0
 24 25  1  0
 24 23  1  0
 25 26  2  0
 26 22  1  0
 27 28  1  0
 29 27  2  0
M  END
$$$$
