NHH.pdb
     RDKit          3D

 29 30  0  0  1  0  0  0  0  0999 V2000
   16.2367  -14.4994   18.9761 N   0  0  0  0  0  0  0  0  0  0  0  0
   14.9993  -14.6778   18.2044 C   0  0  0  0  0  0  0  0  0  0  0  0
   15.0584  -15.2930   17.2025 O   0  0  0  0  0  0  0  0  0  0  0  0
   13.7845  -13.9662   18.7682 C   0  0  0  0  0  0  0  0  0  0  0  0
   13.1317  -14.9540   19.6841 C   0  0  2  0  0  0  0  0  0  0  0  0
   12.8739  -16.2239   19.0425 N   0  0  0  0  0  0  0  0  0  0  0  0
   12.1212  -14.4954   20.5082 C   0  0  0  0  0  0  0  0  0  0  0  0
   12.4687  -13.4224   21.2206 O   0  0  0  0  0  0  0  0  0  0  0  0
   10.8512  -15.1955   20.5715 N   0  0  0  0  0  0  0  0  0  0  0  0
    9.7546  -14.7442   21.2874 C   0  0  1  0  0  0  0  0  0  0  0  0
    8.3517  -14.8466   20.9043 C   0  0  0  0  0  0  0  0  0  0  0  0
    8.2240  -14.3218   19.5618 C   0  0  0  0  0  0  0  0  0  0  0  0
    7.9728  -13.0363   19.2415 C   0  0  0  0  0  0  0  0  0  0  0  0
    8.0185  -12.9326   17.8992 N   0  0  0  0  0  0  0  0  0  0  0  0
    8.2394  -14.1642   17.4097 C   0  0  0  0  0  0  0  0  0  0  0  0
    8.3452  -15.0697   18.4314 N   0  0  0  0  0  0  0  0  0  0  0  0
    9.8782  -15.3018   22.7610 C   0  0  0  0  0  0  0  0  0  0  0  0
   10.6172  -16.2337   22.8866 O   0  0  0  0  0  0  0  0  0  0  0  0
    9.0557  -14.6166   23.7139 N   0  0  0  0  0  0  0  0  0  0  0  0
    9.2940  -15.0548   25.0532 C   0  0  1  0  0  0  0  0  0  0  0  0
    8.5819  -14.0673   26.1013 C   0  0  0  0  0  0  0  0  0  0  0  0
    9.2519  -14.6131   27.3558 C   0  0  0  0  0  0  0  0  0  0  0  0
   10.3942  -15.3886   27.3685 C   0  0  0  0  0  0  0  0  0  0  0  0
   10.8483  -15.3960   28.6332 N   0  0  0  0  0  0  0  0  0  0  0  0
   10.0324  -14.6576   29.3802 C   0  0  0  0  0  0  0  0  0  0  0  0
    8.9783  -14.1755   28.5963 N   0  0  0  0  0  0  0  0  0  0  0  0
    8.8126  -16.4118   25.3080 C   0  0  0  0  0  0  0  0  0  0  0  0
    9.4260  -17.2035   26.2471 O   0  0  0  0  0  0  0  0  0  0  0  0
    7.8333  -16.9082   24.6037 O   0  0  0  0  0  0  0  0  0  0  0  0
  1  2  1  0
  2  3  2  0
  4  2  1  0
  4  5  1  0
  5  6  1  6
  5  7  1  0
  7  8  2  0
  9  7  1  0
  9 10  1  0
 10 11  1  6
 11 12  1  0
 12 16  1  0
 13 14  1  0
 13 12  2  0
 14 15  1  0
 15 16  2  0
 17 10  1  0
 17 18  2  0
 19 17  1  0
 20 27  1  0
 20 19  1  0
 20 21  1  1
 22 21  1  0
 23 22  2  0
 24 25  1  0
 24 23  1  0
 25 26  2  0
 26 22  1  0
 27 28  1  0
 29 27  2  0
M  END
$$$$
