NHH.pdb
     RDKit          3D

 29 30  0  0  1  0  0  0  0  0999 V2000
   16.5396  -14.5166   16.7120 N   0  0  0  0  0  0  0  0  0  0  0  0
   15.2004  -14.5838   16.1112 C   0  0  0  0  0  0  0  0  0  0  0  0
   15.1056  -15.0253   15.0241 O   0  0  0  0  0  0  0  0  0  0  0  0
   14.0888  -13.9923   16.9564 C   0  0  0  0  0  0  0  0  0  0  0  0
   13.4953  -15.1470   17.7015 C   0  0  2  0  0  0  0  0  0  0  0  0
   12.8442  -16.0986   16.8288 N   0  0  0  0  0  0  0  0  0  0  0  0
   12.8253  -14.8751   18.8796 C   0  0  0  0  0  0  0  0  0  0  0  0
   13.5169  -14.0935   19.7104 O   0  0  0  0  0  0  0  0  0  0  0  0
   11.5208  -15.4590   19.1336 N   0  0  0  0  0  0  0  0  0  0  0  0
   10.7793  -15.2251   20.2799 C   0  0  1  0  0  0  0  0  0  0  0  0
    9.3267  -15.1702   20.3915 C   0  0  0  0  0  0  0  0  0  0  0  0
    8.8323  -14.3686   19.2928 C   0  0  0  0  0  0  0  0  0  0  0  0
    8.5307  -13.0557   19.3518 C   0  0  0  0  0  0  0  0  0  0  0  0
    8.1923  -12.6574   18.1102 N   0  0  0  0  0  0  0  0  0  0  0  0
    8.2341  -13.7409   17.3168 C   0  0  0  0  0  0  0  0  0  0  0  0
    8.6065  -14.8438   18.0378 N   0  0  0  0  0  0  0  0  0  0  0  0
   11.2965  -16.2141   21.3989 C   0  0  0  0  0  0  0  0  0  0  0  0
   11.1410  -17.3748   21.1563 O   0  0  0  0  0  0  0  0  0  0  0  0
   11.8457  -15.5572   22.5482 N   0  0  0  0  0  0  0  0  0  0  0  0
   12.3741  -16.4807   23.5022 C   0  0  1  0  0  0  0  0  0  0  0  0
   13.4961  -15.7716   24.4073 C   0  0  0  0  0  0  0  0  0  0  0  0
   14.6211  -15.8207   23.3812 C   0  0  0  0  0  0  0  0  0  0  0  0
   14.5507  -16.4625   22.1607 C   0  0  0  0  0  0  0  0  0  0  0  0
   15.5828  -16.0174   21.4243 N   0  0  0  0  0  0  0  0  0  0  0  0
   16.2682  -15.1350   22.1459 C   0  0  0  0  0  0  0  0  0  0  0  0
   15.6980  -15.0181   23.4183 N   0  0  0  0  0  0  0  0  0  0  0  0
   11.3545  -17.0336   24.3927 C   0  0  0  0  0  0  0  0  0  0  0  0
   11.6994  -17.9263   25.3771 O   0  0  0  0  0  0  0  0  0  0  0  0
   10.0966  -16.7322   24.2239 O   0  0  0  0  0  0  0  0  0  0  0  0
  1  2  1  0
  2  3  2  0
  4  2  1  0
  4  5  1  0
  5  6  1  6
  5  7  1  0
  7  8  2  0
  9  7  1  0
  9 10  1  0
 10 11  1  6
 11 12  1  0
 12 16  1  0
 13 14  1  0
 13 12  2  0
 14 15  1  0
 15 16  2  0
 17 10  1  0
 17 18  2  0
 19 17  1  0
 20 27  1  0
 20 19  1  0
 20 21  1  1
 22 21  1  0
 23 22  2  0
 24 25  1  0
 24 23  1  0
 25 26  2  0
 26 22  1  0
 27 28  1  0
 29 27  2  0
M  END
$$$$
