NHH.pdb
     RDKit          3D

 29 30  0  0  1  0  0  0  0  0999 V2000
    6.8819  -16.3716   12.7060 N   0  0  0  0  0  0  0  0  0  0  0  0
    7.6715  -15.9206   13.8601 C   0  0  0  0  0  0  0  0  0  0  0  0
    8.5985  -15.2245   13.6556 O   0  0  0  0  0  0  0  0  0  0  0  0
    7.2294  -16.4824   15.1976 C   0  0  0  0  0  0  0  0  0  0  0  0
    8.4899  -16.8749   15.9030 C   0  0  2  0  0  0  0  0  0  0  0  0
    9.2687  -17.8392   15.1585 N   0  0  0  0  0  0  0  0  0  0  0  0
    8.4202  -17.1005   17.2649 C   0  0  0  0  0  0  0  0  0  0  0  0
    7.7228  -16.1697   17.9181 O   0  0  0  0  0  0  0  0  0  0  0  0
    9.1053  -18.2352   17.8569 N   0  0  0  0  0  0  0  0  0  0  0  0
    9.0205  -18.5763   19.1966 C   0  0  1  0  0  0  0  0  0  0  0  0
    9.2910  -19.8798   19.7909 C   0  0  0  0  0  0  0  0  0  0  0  0
    8.0714  -20.6556   19.7208 C   0  0  0  0  0  0  0  0  0  0  0  0
    6.8916  -20.2219   19.2329 C   0  0  0  0  0  0  0  0  0  0  0  0
    6.0326  -21.2593   19.2572 N   0  0  0  0  0  0  0  0  0  0  0  0
    6.6767  -22.2996   19.8123 C   0  0  0  0  0  0  0  0  0  0  0  0
    7.9570  -21.9441   20.1432 N   0  0  0  0  0  0  0  0  0  0  0  0
    9.8448  -17.5079   20.0193 C   0  0  0  0  0  0  0  0  0  0  0  0
   10.9844  -17.3804   19.6796 O   0  0  0  0  0  0  0  0  0  0  0  0
    9.0988  -16.8792   21.0692 N   0  0  0  0  0  0  0  0  0  0  0  0
    9.8909  -15.9607   21.8250 C   0  0  1  0  0  0  0  0  0  0  0  0
    8.9490  -14.9345   22.6253 C   0  0  0  0  0  0  0  0  0  0  0  0
    8.5691  -14.0635   21.4345 C   0  0  0  0  0  0  0  0  0  0  0  0
    8.8884  -14.3387   20.1197 C   0  0  0  0  0  0  0  0  0  0  0  0
    8.1224  -13.5416   19.3558 N   0  0  0  0  0  0  0  0  0  0  0  0
    7.3553  -12.8023   20.1519 C   0  0  0  0  0  0  0  0  0  0  0  0
    7.6479  -13.0871   21.4903 N   0  0  0  0  0  0  0  0  0  0  0  0
   10.7695  -16.6191   22.7909 C   0  0  0  0  0  0  0  0  0  0  0  0
   10.7284  -17.9817   22.9539 O   0  0  0  0  0  0  0  0  0  0  0  0
   11.5595  -15.9140   23.5526 O   0  0  0  0  0  0  0  0  0  0  0  0
  1  2  1  0
  2  3  2  0
  4  2  1  0
  4  5  1  0
  5  6  1  6
  5  7  1  0
  7  8  2  0
  9  7  1  0
  9 10  1  0
 10 11  1  6
 11 12  1  0
 12 16  1  0
 13 14  1  0
 13 12  2  0
 14 15  1  0
 15 16  2  0
 17 10  1  0
 17 18  2  0
 19 17  1  0
 20 27  1  0
 20 19  1  0
 20 21  1  1
 22 21  1  0
 23 22  2  0
 24 25  1  0
 24 23  1  0
 25 26  2  0
 26 22  1  0
 27 28  1  0
 29 27  2  0
M  END
$$$$
