NHH.pdb
     RDKit          3D

 29 30  0  0  1  0  0  0  0  0999 V2000
    8.2486  -12.6240   15.1443 N   0  0  0  0  0  0  0  0  0  0  0  0
    7.7571  -13.8222   15.8382 C   0  0  0  0  0  0  0  0  0  0  0  0
    7.2708  -14.6748   15.1884 O   0  0  0  0  0  0  0  0  0  0  0  0
    7.8711  -13.7790   17.3499 C   0  0  0  0  0  0  0  0  0  0  0  0
    8.7429  -14.9387   17.7185 C   0  0  2  0  0  0  0  0  0  0  0  0
    8.5245  -16.0916   16.8735 N   0  0  0  0  0  0  0  0  0  0  0  0
    8.9073  -15.2170   19.0624 C   0  0  0  0  0  0  0  0  0  0  0  0
    9.5386  -14.2481   19.7275 O   0  0  0  0  0  0  0  0  0  0  0  0
    8.4527  -16.4817   19.6110 N   0  0  0  0  0  0  0  0  0  0  0  0
    8.6804  -16.8845   20.9165 C   0  0  1  0  0  0  0  0  0  0  0  0
    8.0732  -18.0163   21.6062 C   0  0  0  0  0  0  0  0  0  0  0  0
    7.9956  -17.6831   23.0122 C   0  0  0  0  0  0  0  0  0  0  0  0
    8.3476  -16.5024   23.5603 C   0  0  0  0  0  0  0  0  0  0  0  0
    8.0452  -16.5538   24.8720 N   0  0  0  0  0  0  0  0  0  0  0  0
    7.5659  -17.7833   25.1245 C   0  0  0  0  0  0  0  0  0  0  0  0
    7.5483  -18.5313   23.9778 N   0  0  0  0  0  0  0  0  0  0  0  0
   10.2435  -16.9972   21.1207 C   0  0  0  0  0  0  0  0  0  0  0  0
   10.7975  -17.7421   20.3666 O   0  0  0  0  0  0  0  0  0  0  0  0
   10.7480  -16.2067   22.2045 N   0  0  0  0  0  0  0  0  0  0  0  0
   12.1644  -16.3259   22.3519 C   0  0  1  0  0  0  0  0  0  0  0  0
   12.8622  -14.8824   22.2508 C   0  0  0  0  0  0  0  0  0  0  0  0
   13.2841  -14.9817   20.7904 C   0  0  0  0  0  0  0  0  0  0  0  0
   12.4600  -15.3732   19.7540 C   0  0  0  0  0  0  0  0  0  0  0  0
   13.0771  -15.0278   18.6114 N   0  0  0  0  0  0  0  0  0  0  0  0
   14.2330  -14.4438   18.9144 C   0  0  0  0  0  0  0  0  0  0  0  0
   14.4106  -14.4357   20.3023 N   0  0  0  0  0  0  0  0  0  0  0  0
   12.5609  -16.9345   23.6210 C   0  0  0  0  0  0  0  0  0  0  0  0
   11.6243  -17.1975   24.5899 O   0  0  0  0  0  0  0  0  0  0  0  0
   13.8173  -17.1790   23.8721 O   0  0  0  0  0  0  0  0  0  0  0  0
  1  2  1  0
  2  3  2  0
  4  2  1  0
  4  5  1  0
  5  6  1  6
  5  7  1  0
  7  8  2  0
  9  7  1  0
  9 10  1  0
 10 11  1  6
 11 12  1  0
 12 16  1  0
 13 14  1  0
 13 12  2  0
 14 15  1  0
 15 16  2  0
 17 10  1  0
 17 18  2  0
 19 17  1  0
 20 27  1  0
 20 19  1  0
 20 21  1  1
 22 21  1  0
 23 22  2  0
 24 25  1  0
 24 23  1  0
 25 26  2  0
 26 22  1  0
 27 28  1  0
 29 27  2  0
M  END
$$$$
