NHH.pdb
     RDKit          3D

 29 30  0  0  1  0  0  0  0  0999 V2000
   14.0764  -24.0521   18.9122 N   0  0  0  0  0  0  0  0  0  0  0  0
   13.2622  -23.1442   18.0928 C   0  0  0  0  0  0  0  0  0  0  0  0
   13.2955  -23.2776   16.9237 O   0  0  0  0  0  0  0  0  0  0  0  0
   12.5203  -22.0728   18.8685 C   0  0  0  0  0  0  0  0  0  0  0  0
   12.5558  -22.5167   20.2975 C   0  0  2  0  0  0  0  0  0  0  0  0
   11.8009  -23.7290   20.5241 N   0  0  0  0  0  0  0  0  0  0  0  0
   12.4205  -21.5483   21.2745 C   0  0  0  0  0  0  0  0  0  0  0  0
   13.2779  -20.5358   21.1348 O   0  0  0  0  0  0  0  0  0  0  0  0
   11.4499  -21.7125   22.3413 N   0  0  0  0  0  0  0  0  0  0  0  0
   11.1782  -20.7452   23.2948 C   0  0  1  0  0  0  0  0  0  0  0  0
    9.9670  -19.9425   23.4127 C   0  0  0  0  0  0  0  0  0  0  0  0
    9.6827  -19.3831   22.1087 C   0  0  0  0  0  0  0  0  0  0  0  0
   10.2582  -18.2826   21.5836 C   0  0  0  0  0  0  0  0  0  0  0  0
    9.7977  -18.1407   20.3256 N   0  0  0  0  0  0  0  0  0  0  0  0
    8.9030  -19.1204   20.1138 C   0  0  0  0  0  0  0  0  0  0  0  0
    8.7850  -19.9055   21.2294 N   0  0  0  0  0  0  0  0  0  0  0  0
   11.4603  -21.3764   24.7160 C   0  0  0  0  0  0  0  0  0  0  0  0
   10.8015  -22.3392   24.9792 O   0  0  0  0  0  0  0  0  0  0  0  0
   12.4460  -20.6715   25.4812 N   0  0  0  0  0  0  0  0  0  0  0  0
   12.6092  -21.2164   26.7922 C   0  0  1  0  0  0  0  0  0  0  0  0
   14.0208  -20.7676   27.4141 C   0  0  0  0  0  0  0  0  0  0  0  0
   14.8979  -21.6688   26.5542 C   0  0  0  0  0  0  0  0  0  0  0  0
   14.4408  -22.4700   25.5268 C   0  0  0  0  0  0  0  0  0  0  0  0
   15.5170  -22.8469   24.8159 N   0  0  0  0  0  0  0  0  0  0  0  0
   16.5995  -22.3060   25.3678 C   0  0  0  0  0  0  0  0  0  0  0  0
   16.2375  -21.5779   26.5066 N   0  0  0  0  0  0  0  0  0  0  0  0
   11.5541  -20.8093   27.7192 C   0  0  0  0  0  0  0  0  0  0  0  0
   11.5287  -21.2962   29.0026 O   0  0  0  0  0  0  0  0  0  0  0  0
   10.5901  -20.0265   27.3199 O   0  0  0  0  0  0  0  0  0  0  0  0
  1  2  1  0
  2  3  2  0
  4  2  1  0
  4  5  1  0
  5  6  1  6
  5  7  1  0
  7  8  2  0
  9  7  1  0
  9 10  1  0
 10 11  1  1
 11 12  1  0
 12 16  1  0
 13 14  1  0
 13 12  2  0
 14 15  1  0
 15 16  2  0
 17 10  1  0
 17 18  2  0
 19 17  1  0
 20 27  1  0
 20 19  1  0
 20 21  1  1
 22 21  1  0
 23 22  2  0
 24 25  1  0
 24 23  1  0
 25 26  2  0
 26 22  1  0
 27 28  1  0
 29 27  2  0
M  END
$$$$
