NHH.pdb
     RDKit          3D

 29 30  0  0  1  0  0  0  0  0999 V2000
   15.1163  -15.9699   16.6786 N   0  0  0  0  0  0  0  0  0  0  0  0
   14.5521  -14.7147   16.1639 C   0  0  0  0  0  0  0  0  0  0  0  0
   15.0855  -14.2062   15.2459 O   0  0  0  0  0  0  0  0  0  0  0  0
   13.3686  -14.1766   16.9448 C   0  0  0  0  0  0  0  0  0  0  0  0
   12.9025  -15.3140   17.7989 C   0  0  2  0  0  0  0  0  0  0  0  0
   12.3484  -16.4024   17.0248 N   0  0  0  0  0  0  0  0  0  0  0  0
   12.2152  -15.0071   18.9582 C   0  0  0  0  0  0  0  0  0  0  0  0
   12.9045  -14.2209   19.7867 O   0  0  0  0  0  0  0  0  0  0  0  0
   10.8961  -15.5632   19.1985 N   0  0  0  0  0  0  0  0  0  0  0  0
   10.1439  -15.3067   20.3329 C   0  0  1  0  0  0  0  0  0  0  0  0
    8.6942  -15.1770   20.4161 C   0  0  0  0  0  0  0  0  0  0  0  0
    8.2738  -14.2721   19.3680 C   0  0  0  0  0  0  0  0  0  0  0  0
    8.1746  -12.9321   19.4803 C   0  0  0  0  0  0  0  0  0  0  0  0
    7.8414  -12.4436   18.2699 N   0  0  0  0  0  0  0  0  0  0  0  0
    7.6837  -13.4920   17.4446 C   0  0  0  0  0  0  0  0  0  0  0  0
    7.9209  -14.6632   18.1133 N   0  0  0  0  0  0  0  0  0  0  0  0
   10.5853  -16.3368   21.4472 C   0  0  0  0  0  0  0  0  0  0  0  0
   10.3528  -17.4824   21.1945 O   0  0  0  0  0  0  0  0  0  0  0  0
   11.1705  -15.7275   22.6049 N   0  0  0  0  0  0  0  0  0  0  0  0
   11.8087  -16.6803   23.4576 C   0  0  1  0  0  0  0  0  0  0  0  0
   13.0763  -16.0178   24.1891 C   0  0  0  0  0  0  0  0  0  0  0  0
   13.6614  -17.3071   24.7514 C   0  0  0  0  0  0  0  0  0  0  0  0
   13.5278  -18.5540   24.1738 C   0  0  0  0  0  0  0  0  0  0  0  0
   14.4289  -19.3573   24.7640 N   0  0  0  0  0  0  0  0  0  0  0  0
   15.0997  -18.6488   25.6678 C   0  0  0  0  0  0  0  0  0  0  0  0
   14.6027  -17.3415   25.7095 N   0  0  0  0  0  0  0  0  0  0  0  0
   10.9193  -17.2169   24.4869 C   0  0  0  0  0  0  0  0  0  0  0  0
   11.2843  -18.3215   25.2159 O   0  0  0  0  0  0  0  0  0  0  0  0
    9.7425  -16.6895   24.6831 O   0  0  0  0  0  0  0  0  0  0  0  0
  1  2  1  0
  2  3  2  0
  4  2  1  0
  4  5  1  0
  5  6  1  6
  5  7  1  0
  7  8  2  0
  9  7  1  0
  9 10  1  0
 10 11  1  6
 11 12  1  0
 12 16  1  0
 13 14  1  0
 13 12  2  0
 14 15  1  0
 15 16  2  0
 17 10  1  0
 17 18  2  0
 19 17  1  0
 20 27  1  0
 20 19  1  0
 20 21  1  1
 22 21  1  0
 23 22  2  0
 24 25  1  0
 24 23  1  0
 25 26  2  0
 26 22  1  0
 27 28  1  0
 29 27  2  0
M  END
$$$$
