NHH.pdb
     RDKit          3D

 29 30  0  0  1  0  0  0  0  0999 V2000
   14.0328  -18.0916   15.9832 N   0  0  0  0  0  0  0  0  0  0  0  0
   13.0281  -17.6914   14.9885 C   0  0  0  0  0  0  0  0  0  0  0  0
   13.3974  -17.4578   13.8954 O   0  0  0  0  0  0  0  0  0  0  0  0
   11.6163  -17.5520   15.5244 C   0  0  0  0  0  0  0  0  0  0  0  0
   11.3453  -16.0803   15.5595 C   0  0  2  0  0  0  0  0  0  0  0  0
   11.7729  -15.4054   14.3543 N   0  0  0  0  0  0  0  0  0  0  0  0
   11.6104  -15.4062   16.7368 C   0  0  0  0  0  0  0  0  0  0  0  0
   12.5570  -14.4750   16.6088 O   0  0  0  0  0  0  0  0  0  0  0  0
   10.9186  -15.7669   17.9608 N   0  0  0  0  0  0  0  0  0  0  0  0
   11.0449  -15.0735   19.1532 C   0  0  1  0  0  0  0  0  0  0  0  0
    9.9745  -14.6938   20.0672 C   0  0  0  0  0  0  0  0  0  0  0  0
    8.9398  -14.0493   19.2875 C   0  0  0  0  0  0  0  0  0  0  0  0
    8.7482  -12.7186   19.1838 C   0  0  0  0  0  0  0  0  0  0  0  0
    7.7503  -12.5163   18.3018 N   0  0  0  0  0  0  0  0  0  0  0  0
    7.3032  -13.7242   17.9190 C   0  0  0  0  0  0  0  0  0  0  0  0
    8.0133  -14.7138   18.5446 N   0  0  0  0  0  0  0  0  0  0  0  0
   12.1601  -15.7914   20.0127 C   0  0  0  0  0  0  0  0  0  0  0  0
   12.1653  -16.9849   19.9352 O   0  0  0  0  0  0  0  0  0  0  0  0
   12.9741  -14.8935   20.7776 N   0  0  0  0  0  0  0  0  0  0  0  0
   14.0078  -15.5721   21.4940 C   0  0  1  0  0  0  0  0  0  0  0  0
   15.1722  -14.5448   21.9057 C   0  0  0  0  0  0  0  0  0  0  0  0
   15.8467  -14.4718   20.5416 C   0  0  0  0  0  0  0  0  0  0  0  0
   15.2209  -14.7184   19.3358 C   0  0  0  0  0  0  0  0  0  0  0  0
   16.0292  -14.2467   18.3716 N   0  0  0  0  0  0  0  0  0  0  0  0
   17.1108  -13.7252   18.9436 C   0  0  0  0  0  0  0  0  0  0  0  0
   17.0396  -13.8905   20.3313 N   0  0  0  0  0  0  0  0  0  0  0  0
   13.5291  -16.2277   22.7103 C   0  0  0  0  0  0  0  0  0  0  0  0
   14.4048  -16.8871   23.5368 O   0  0  0  0  0  0  0  0  0  0  0  0
   12.2559  -16.2460   22.9932 O   0  0  0  0  0  0  0  0  0  0  0  0
  1  2  1  0
  2  3  2  0
  4  2  1  0
  4  5  1  0
  5  6  1  6
  5  7  1  0
  7  8  2  0
  9  7  1  0
  9 10  1  0
 10 11  1  1
 11 12  1  0
 12 16  1  0
 13 14  1  0
 13 12  2  0
 14 15  1  0
 15 16  2  0
 17 10  1  0
 17 18  2  0
 19 17  1  0
 20 27  1  0
 20 19  1  0
 20 21  1  1
 22 21  1  0
 23 22  2  0
 24 25  1  0
 24 23  1  0
 25 26  2  0
 26 22  1  0
 27 28  1  0
 29 27  2  0
M  END
$$$$
