NHH.pdb
     RDKit          3D

 29 30  0  0  1  0  0  0  0  0999 V2000
   14.7061  -14.1638   19.9084 N   0  0  0  0  0  0  0  0  0  0  0  0
   13.8198  -14.2433   18.7393 C   0  0  0  0  0  0  0  0  0  0  0  0
   14.3086  -14.1688   17.6710 O   0  0  0  0  0  0  0  0  0  0  0  0
   12.3409  -14.3380   19.0619 C   0  0  0  0  0  0  0  0  0  0  0  0
   12.2521  -15.2006   20.2820 C   0  0  2  0  0  0  0  0  0  0  0  0
   12.9632  -16.4509   20.1342 N   0  0  0  0  0  0  0  0  0  0  0  0
   11.0274  -15.2918   20.9163 C   0  0  0  0  0  0  0  0  0  0  0  0
   10.4368  -14.1089   21.0938 O   0  0  0  0  0  0  0  0  0  0  0  0
   10.5237  -16.5796   21.3580 N   0  0  0  0  0  0  0  0  0  0  0  0
    9.2972  -16.7593   21.9760 C   0  0  1  0  0  0  0  0  0  0  0  0
    8.4388  -17.9352   21.9013 C   0  0  0  0  0  0  0  0  0  0  0  0
    7.9747  -18.0536   20.5358 C   0  0  0  0  0  0  0  0  0  0  0  0
    8.2409  -17.1868   19.5378 C   0  0  0  0  0  0  0  0  0  0  0  0
    7.7105  -17.6901   18.4064 N   0  0  0  0  0  0  0  0  0  0  0  0
    7.0766  -18.8287   18.7333 C   0  0  0  0  0  0  0  0  0  0  0  0
    7.1991  -19.0725   20.0751 N   0  0  0  0  0  0  0  0  0  0  0  0
    9.4719  -16.4050   23.5063 C   0  0  0  0  0  0  0  0  0  0  0  0
   10.6056  -16.3182   23.8769 O   0  0  0  0  0  0  0  0  0  0  0  0
    8.2352  -16.2735   24.2186 N   0  0  0  0  0  0  0  0  0  0  0  0
    8.4254  -16.2195   25.6339 C   0  0  1  0  0  0  0  0  0  0  0  0
    7.0885  -15.7033   26.3600 C   0  0  0  0  0  0  0  0  0  0  0  0
    7.1155  -14.2825   25.8112 C   0  0  0  0  0  0  0  0  0  0  0  0
    7.8549  -13.2439   26.3413 C   0  0  0  0  0  0  0  0  0  0  0  0
    7.8751  -12.2670   25.4189 N   0  0  0  0  0  0  0  0  0  0  0  0
    7.1841  -12.6729   24.3574 C   0  0  0  0  0  0  0  0  0  0  0  0
    6.6525  -13.9450   24.5959 N   0  0  0  0  0  0  0  0  0  0  0  0
    8.7882  -17.5115   26.2147 C   0  0  0  0  0  0  0  0  0  0  0  0
    9.1990  -17.5967   27.5220 O   0  0  0  0  0  0  0  0  0  0  0  0
    8.7843  -18.5899   25.4808 O   0  0  0  0  0  0  0  0  0  0  0  0
  1  2  1  0
  2  3  2  0
  4  2  1  0
  4  5  1  0
  5  6  1  6
  5  7  1  0
  7  8  2  0
  9  7  1  0
  9 10  1  0
 10 11  1  1
 11 12  1  0
 12 16  1  0
 13 14  1  0
 13 12  2  0
 14 15  1  0
 15 16  2  0
 17 10  1  0
 17 18  2  0
 19 17  1  0
 20 27  1  0
 20 19  1  0
 20 21  1  1
 22 21  1  0
 23 22  2  0
 24 25  1  0
 24 23  1  0
 25 26  2  0
 26 22  1  0
 27 28  1  0
 29 27  2  0
M  END
$$$$
