NHH.pdb
     RDKit          3D

 29 30  0  0  1  0  0  0  0  0999 V2000
   11.6490  -17.2613   14.0277 N   0  0  0  0  0  0  0  0  0  0  0  0
   12.7738  -16.3333   13.8483 C   0  0  0  0  0  0  0  0  0  0  0  0
   13.4696  -16.4852   12.9109 O   0  0  0  0  0  0  0  0  0  0  0  0
   12.9490  -15.3165   14.9598 C   0  0  0  0  0  0  0  0  0  0  0  0
   11.9404  -15.6857   16.0022 C   0  0  2  0  0  0  0  0  0  0  0  0
   10.5789  -15.5474   15.5351 N   0  0  0  0  0  0  0  0  0  0  0  0
   12.1653  -15.2528   17.2955 C   0  0  0  0  0  0  0  0  0  0  0  0
   13.3992  -15.5130   17.7309 O   0  0  0  0  0  0  0  0  0  0  0  0
   11.0987  -14.6279   18.0564 N   0  0  0  0  0  0  0  0  0  0  0  0
   11.2648  -14.0890   19.3215 C   0  0  1  0  0  0  0  0  0  0  0  0
   10.5503  -12.9550   19.8949 C   0  0  0  0  0  0  0  0  0  0  0  0
    9.1336  -13.2042   19.7380 C   0  0  0  0  0  0  0  0  0  0  0  0
    8.3566  -12.7236   18.7463 C   0  0  0  0  0  0  0  0  0  0  0  0
    7.1261  -13.2502   18.8988 N   0  0  0  0  0  0  0  0  0  0  0  0
    7.1469  -14.0004   20.0132 C   0  0  0  0  0  0  0  0  0  0  0  0
    8.3914  -13.9699   20.5835 N   0  0  0  0  0  0  0  0  0  0  0  0
   11.1768  -15.2726   20.3651 C   0  0  0  0  0  0  0  0  0  0  0  0
   10.2984  -16.0585   20.1624 O   0  0  0  0  0  0  0  0  0  0  0  0
   12.1513  -15.1985   21.4134 N   0  0  0  0  0  0  0  0  0  0  0  0
   12.4139  -16.4733   22.0034 C   0  0  1  0  0  0  0  0  0  0  0  0
   12.9807  -17.4953   20.9011 C   0  0  0  0  0  0  0  0  0  0  0  0
   12.9408  -18.7464   21.7695 C   0  0  0  0  0  0  0  0  0  0  0  0
   12.2389  -18.8658   22.9525 C   0  0  0  0  0  0  0  0  0  0  0  0
   12.1829  -20.1764   23.2438 N   0  0  0  0  0  0  0  0  0  0  0  0
   12.8167  -20.8499   22.2880 C   0  0  0  0  0  0  0  0  0  0  0  0
   13.3467  -19.9566   21.3504 N   0  0  0  0  0  0  0  0  0  0  0  0
   13.3763  -16.4106   23.1025 C   0  0  0  0  0  0  0  0  0  0  0  0
   13.6610  -17.5307   23.8438 O   0  0  0  0  0  0  0  0  0  0  0  0
   13.9304  -15.2764   23.4312 O   0  0  0  0  0  0  0  0  0  0  0  0
  1  2  1  0
  2  3  2  0
  4  2  1  0
  4  5  1  0
  5  6  1  6
  5  7  1  0
  7  8  2  0
  9  7  1  0
  9 10  1  0
 10 11  1  1
 11 12  1  0
 12 16  1  0
 13 14  1  0
 13 12  2  0
 14 15  1  0
 15 16  2  0
 17 10  1  0
 17 18  2  0
 19 17  1  0
 20 27  1  0
 20 19  1  0
 20 21  1  6
 22 21  1  0
 23 22  2  0
 24 25  1  0
 24 23  1  0
 25 26  2  0
 26 22  1  0
 27 28  1  0
 29 27  2  0
M  END
$$$$
