NHH.pdb
     RDKit          3D

 29 30  0  0  1  0  0  0  0  0999 V2000
   15.9960  -15.8272   16.0569 N   0  0  0  0  0  0  0  0  0  0  0  0
   14.8400  -15.0877   15.5321 C   0  0  0  0  0  0  0  0  0  0  0  0
   14.6166  -15.1604   14.3786 O   0  0  0  0  0  0  0  0  0  0  0  0
   14.1040  -14.2411   16.5527 C   0  0  0  0  0  0  0  0  0  0  0  0
   13.1135  -15.1608   17.1957 C   0  0  2  0  0  0  0  0  0  0  0  0
   12.1955  -15.7455   16.2437 N   0  0  0  0  0  0  0  0  0  0  0  0
   12.5456  -14.7594   18.3903 C   0  0  0  0  0  0  0  0  0  0  0  0
   12.9694  -13.5624   18.7989 O   0  0  0  0  0  0  0  0  0  0  0  0
   11.6234  -15.6318   19.0942 N   0  0  0  0  0  0  0  0  0  0  0  0
   10.9886  -15.2921   20.2776 C   0  0  1  0  0  0  0  0  0  0  0  0
    9.5525  -15.1916   20.5076 C   0  0  0  0  0  0  0  0  0  0  0  0
    8.9818  -14.4524   19.4022 C   0  0  0  0  0  0  0  0  0  0  0  0
    8.8256  -13.1141   19.3494 C   0  0  0  0  0  0  0  0  0  0  0  0
    8.3465  -12.8060   18.1287 N   0  0  0  0  0  0  0  0  0  0  0  0
    8.1600  -13.9611   17.4684 C   0  0  0  0  0  0  0  0  0  0  0  0
    8.5239  -15.0218   18.2542 N   0  0  0  0  0  0  0  0  0  0  0  0
   11.5822  -16.2056   21.4226 C   0  0  0  0  0  0  0  0  0  0  0  0
   11.3062  -17.3660   21.3350 O   0  0  0  0  0  0  0  0  0  0  0  0
   12.3366  -15.4884   22.4077 N   0  0  0  0  0  0  0  0  0  0  0  0
   12.8142  -16.3383   23.4525 C   0  0  1  0  0  0  0  0  0  0  0  0
   14.0461  -15.6477   24.2182 C   0  0  0  0  0  0  0  0  0  0  0  0
   15.0904  -15.8738   23.1323 C   0  0  0  0  0  0  0  0  0  0  0  0
   14.9477  -16.7392   22.0659 C   0  0  0  0  0  0  0  0  0  0  0  0
   15.9056  -16.4263   21.1771 N   0  0  0  0  0  0  0  0  0  0  0  0
   16.6153  -15.4102   21.6596 C   0  0  0  0  0  0  0  0  0  0  0  0
   16.1405  -15.0608   22.9286 N   0  0  0  0  0  0  0  0  0  0  0  0
   11.7885  -16.6638   24.4426 C   0  0  0  0  0  0  0  0  0  0  0  0
   10.5115  -16.1780   24.3079 O   0  0  0  0  0  0  0  0  0  0  0  0
   12.0894  -17.3691   25.4978 O   0  0  0  0  0  0  0  0  0  0  0  0
  1  2  1  0
  2  3  2  0
  4  2  1  0
  4  5  1  0
  5  6  1  6
  5  7  1  0
  7  8  2  0
  9  7  1  0
  9 10  1  0
 10 11  1  6
 11 12  1  0
 12 16  1  0
 13 14  1  0
 13 12  2  0
 14 15  1  0
 15 16  2  0
 17 10  1  0
 17 18  2  0
 19 17  1  0
 20 27  1  0
 20 19  1  0
 20 21  1  1
 22 21  1  0
 23 22  2  0
 24 25  1  0
 24 23  1  0
 25 26  2  0
 26 22  1  0
 27 28  1  0
 29 27  2  0
M  END
$$$$
