NHH.pdb
     RDKit          3D

 29 30  0  0  1  0  0  0  0  0999 V2000
   11.9016  -16.5712   10.3709 N   0  0  0  0  0  0  0  0  0  0  0  0
   10.6861  -16.7743   11.1709 C   0  0  0  0  0  0  0  0  0  0  0  0
    9.8188  -17.4176   10.7022 O   0  0  0  0  0  0  0  0  0  0  0  0
   10.6675  -16.0498   12.5031 C   0  0  0  0  0  0  0  0  0  0  0  0
   10.7313  -17.1240   13.5435 C   0  0  2  0  0  0  0  0  0  0  0  0
    9.9476  -18.2875   13.1929 N   0  0  0  0  0  0  0  0  0  0  0  0
   10.6532  -16.7399   14.8691 C   0  0  0  0  0  0  0  0  0  0  0  0
   11.6149  -15.8879   15.2280 O   0  0  0  0  0  0  0  0  0  0  0  0
    9.6251  -17.2904   15.7334 N   0  0  0  0  0  0  0  0  0  0  0  0
    9.5291  -17.0214   17.0888 C   0  0  1  0  0  0  0  0  0  0  0  0
    8.3888  -16.4473   17.7927 C   0  0  0  0  0  0  0  0  0  0  0  0
    8.0766  -15.1820   17.1636 C   0  0  0  0  0  0  0  0  0  0  0  0
    8.3840  -13.9641   17.6537 C   0  0  0  0  0  0  0  0  0  0  0  0
    8.0084  -13.0485   16.7398 N   0  0  0  0  0  0  0  0  0  0  0  0
    7.4237  -13.7101   15.7271 C   0  0  0  0  0  0  0  0  0  0  0  0
    7.4241  -15.0565   15.9760 N   0  0  0  0  0  0  0  0  0  0  0  0
    9.9508  -18.3284   17.8708 C   0  0  0  0  0  0  0  0  0  0  0  0
    9.8798  -19.3399   17.2365 O   0  0  0  0  0  0  0  0  0  0  0  0
   10.3246  -18.0961   19.2347 N   0  0  0  0  0  0  0  0  0  0  0  0
   11.4328  -18.9022   19.6402 C   0  0  1  0  0  0  0  0  0  0  0  0
   12.7282  -18.5616   18.7533 C   0  0  0  0  0  0  0  0  0  0  0  0
   13.5948  -19.7168   19.2385 C   0  0  0  0  0  0  0  0  0  0  0  0
   13.1185  -20.8622   19.8449 C   0  0  0  0  0  0  0  0  0  0  0  0
   14.1191  -21.7589   19.8281 N   0  0  0  0  0  0  0  0  0  0  0  0
   15.1738  -21.2052   19.2365 C   0  0  0  0  0  0  0  0  0  0  0  0
   14.8798  -19.8836   18.8835 N   0  0  0  0  0  0  0  0  0  0  0  0
   11.7868  -18.7262   21.0480 C   0  0  0  0  0  0  0  0  0  0  0  0
   12.6750  -19.5794   21.6548 O   0  0  0  0  0  0  0  0  0  0  0  0
   11.2171  -17.7940   21.7607 O   0  0  0  0  0  0  0  0  0  0  0  0
  1  2  1  0
  2  3  2  0
  4  2  1  0
  4  5  1  0
  5  6  1  6
  5  7  1  0
  7  8  2  0
  9  7  1  0
  9 10  1  0
 10 11  1  6
 11 12  1  0
 12 16  1  0
 13 14  1  0
 13 12  2  0
 14 15  1  0
 15 16  2  0
 17 10  1  0
 17 18  2  0
 19 17  1  0
 20 27  1  0
 20 19  1  0
 20 21  1  6
 22 21  1  0
 23 22  2  0
 24 25  1  0
 24 23  1  0
 25 26  2  0
 26 22  1  0
 27 28  1  0
 29 27  2  0
M  END
$$$$
