NHH.pdb
     RDKit          3D

 29 30  0  0  1  0  0  0  0  0999 V2000
    8.6965  -12.6131   16.2734 N   0  0  0  0  0  0  0  0  0  0  0  0
    8.4784  -14.0364   16.5658 C   0  0  0  0  0  0  0  0  0  0  0  0
    9.0348  -14.8283   15.8957 O   0  0  0  0  0  0  0  0  0  0  0  0
    7.4806  -14.3173   17.6728 C   0  0  0  0  0  0  0  0  0  0  0  0
    8.2702  -14.2730   18.9437 C   0  0  2  0  0  0  0  0  0  0  0  0
    9.6616  -14.6144   18.7481 N   0  0  0  0  0  0  0  0  0  0  0  0
    7.6885  -14.8031   20.0801 C   0  0  0  0  0  0  0  0  0  0  0  0
    6.3869  -14.5293   20.1821 O   0  0  0  0  0  0  0  0  0  0  0  0
    8.4920  -15.5332   21.0436 N   0  0  0  0  0  0  0  0  0  0  0  0
    7.9979  -16.0462   22.2315 C   0  0  1  0  0  0  0  0  0  0  0  0
    7.0062  -17.1033   22.3878 C   0  0  0  0  0  0  0  0  0  0  0  0
    7.3757  -18.1859   21.5016 C   0  0  0  0  0  0  0  0  0  0  0  0
    8.4725  -18.2202   20.7181 C   0  0  0  0  0  0  0  0  0  0  0  0
    8.5084  -19.4251   20.1167 N   0  0  0  0  0  0  0  0  0  0  0  0
    7.4049  -20.0931   20.4924 C   0  0  0  0  0  0  0  0  0  0  0  0
    6.6532  -19.3283   21.3439 N   0  0  0  0  0  0  0  0  0  0  0  0
    9.2318  -16.4249   23.1434 C   0  0  0  0  0  0  0  0  0  0  0  0
    9.4580  -17.5966   23.2237 O   0  0  0  0  0  0  0  0  0  0  0  0
    9.8694  -15.2981   23.7581 N   0  0  0  0  0  0  0  0  0  0  0  0
    9.1514  -14.8215   24.8981 C   0  0  1  0  0  0  0  0  0  0  0  0
    7.6176  -14.5356   24.5153 C   0  0  0  0  0  0  0  0  0  0  0  0
    7.2981  -13.6258   25.6947 C   0  0  0  0  0  0  0  0  0  0  0  0
    8.2203  -12.8475   26.3656 C   0  0  0  0  0  0  0  0  0  0  0  0
    7.5253  -11.9654   27.1034 N   0  0  0  0  0  0  0  0  0  0  0  0
    6.2273  -12.1765   26.9039 C   0  0  0  0  0  0  0  0  0  0  0  0
    6.0512  -13.2600   26.0362 N   0  0  0  0  0  0  0  0  0  0  0  0
    9.1726  -15.7559   26.0227 C   0  0  0  0  0  0  0  0  0  0  0  0
    9.6402  -15.3574   27.2505 O   0  0  0  0  0  0  0  0  0  0  0  0
    8.8047  -16.9964   25.8575 O   0  0  0  0  0  0  0  0  0  0  0  0
  1  2  1  0
  2  3  2  0
  4  2  1  0
  4  5  1  0
  5  6  1  6
  5  7  1  0
  7  8  2  0
  9  7  1  0
  9 10  1  0
 10 11  1  6
 11 12  1  0
 12 16  1  0
 13 14  1  0
 13 12  2  0
 14 15  1  0
 15 16  2  0
 17 10  1  0
 17 18  2  0
 19 17  1  0
 20 27  1  0
 20 19  1  0
 20 21  1  6
 22 21  1  0
 23 22  2  0
 24 25  1  0
 24 23  1  0
 25 26  2  0
 26 22  1  0
 27 28  1  0
 29 27  2  0
M  END
$$$$
