NHH.pdb
     RDKit          3D

 29 30  0  0  1  0  0  0  0  0999 V2000
    7.6273  -12.7674   14.0214 N   0  0  0  0  0  0  0  0  0  0  0  0
    6.8409  -14.0063   14.0955 C   0  0  0  0  0  0  0  0  0  0  0  0
    5.6751  -13.9120   14.2286 O   0  0  0  0  0  0  0  0  0  0  0  0
    7.6558  -15.2850   14.0665 C   0  0  0  0  0  0  0  0  0  0  0  0
    9.0870  -14.8470   14.0549 C   0  0  2  0  0  0  0  0  0  0  0  0
    9.3985  -13.9878   12.9343 N   0  0  0  0  0  0  0  0  0  0  0  0
   10.0502  -15.7912   14.3577 C   0  0  0  0  0  0  0  0  0  0  0  0
    9.7528  -16.5202   15.4346 O   0  0  0  0  0  0  0  0  0  0  0  0
   11.2607  -15.8860   13.5622 N   0  0  0  0  0  0  0  0  0  0  0  0
   12.2861  -16.7810   13.8188 C   0  0  1  0  0  0  0  0  0  0  0  0
   13.4419  -17.0596   12.9750 C   0  0  0  0  0  0  0  0  0  0  0  0
   12.9529  -17.6085   11.7285 C   0  0  0  0  0  0  0  0  0  0  0  0
   11.9027  -18.4437   11.5963 C   0  0  0  0  0  0  0  0  0  0  0  0
   11.7105  -18.6543   10.2797 N   0  0  0  0  0  0  0  0  0  0  0  0
   12.6786  -17.9936    9.6230 C   0  0  0  0  0  0  0  0  0  0  0  0
   13.4975  -17.3462   10.5092 N   0  0  0  0  0  0  0  0  0  0  0  0
   12.8299  -16.4872   15.2734 C   0  0  0  0  0  0  0  0  0  0  0  0
   12.9278  -15.3278   15.5498 O   0  0  0  0  0  0  0  0  0  0  0  0
   13.1505  -17.6651   16.0243 N   0  0  0  0  0  0  0  0  0  0  0  0
   13.7226  -17.3596   17.2978 C   0  0  1  0  0  0  0  0  0  0  0  0
   12.6886  -17.7112   18.4759 C   0  0  0  0  0  0  0  0  0  0  0  0
   12.1335  -18.9896   17.8608 C   0  0  0  0  0  0  0  0  0  0  0  0
   12.7095  -19.6769   16.8109 C   0  0  0  0  0  0  0  0  0  0  0  0
   12.1305  -20.8888   16.7717 N   0  0  0  0  0  0  0  0  0  0  0  0
   11.2351  -20.9619   17.7524 C   0  0  0  0  0  0  0  0  0  0  0  0
   11.1871  -19.7455   18.4423 N   0  0  0  0  0  0  0  0  0  0  0  0
   14.9682  -18.0808   17.5561 C   0  0  0  0  0  0  0  0  0  0  0  0
   15.7027  -17.8196   18.6862 O   0  0  0  0  0  0  0  0  0  0  0  0
   15.4280  -18.9371   16.6862 O   0  0  0  0  0  0  0  0  0  0  0  0
  1  2  1  0
  2  3  2  0
  4  2  1  0
  4  5  1  0
  5  6  1  6
  5  7  1  0
  7  8  2  0
  9  7  1  0
  9 10  1  0
 10 11  1  6
 11 12  1  0
 12 16  1  0
 13 14  1  0
 13 12  2  0
 14 15  1  0
 15 16  2  0
 17 10  1  0
 17 18  2  0
 19 17  1  0
 20 27  1  0
 20 19  1  0
 20 21  1  1
 22 21  1  0
 23 22  2  0
 24 25  1  0
 24 23  1  0
 25 26  2  0
 26 22  1  0
 27 28  1  0
 29 27  2  0
M  END
$$$$
