RIL.pdb
     RDKit          3D

 28 27  0  0  1  0  0  0  0  0999 V2000
   12.8596  -16.4741   14.3625 N   0  0  0  0  0  0  0  0  0  0  0  0
   11.8568  -17.4184   14.6745 C   0  0  0  0  0  0  0  0  0  0  0  0
   11.9413  -18.5821   14.1350 N   0  0  0  0  0  0  0  0  0  0  0  0
   10.7732  -17.1263   15.5535 N   0  0  0  0  0  0  0  0  0  0  0  0
    9.7619  -18.0816   15.8218 C   0  0  0  0  0  0  0  0  0  0  0  0
    9.5172  -18.3451   17.2623 C   0  0  0  0  0  0  0  0  0  0  0  0
   10.5225  -17.8404   18.2198 C   0  0  0  0  0  0  0  0  0  0  0  0
   10.2884  -18.0533   19.6619 C   0  0  2  0  0  0  0  0  0  0  0  0
    9.0027  -18.7062   19.8487 N   0  0  0  0  0  0  0  0  0  0  0  0
   10.3403  -16.7821   20.4487 C   0  0  0  0  0  0  0  0  0  0  0  0
   11.3910  -16.0912   20.4460 O   0  0  0  0  0  0  0  0  0  0  0  0
   11.2514  -19.3344   14.3065 C   0  0  0  0  0  0  0  0  0  0  0  0
    6.8335  -12.9774   19.8214 C   0  0  0  0  0  0  0  0  0  0  0  0
    8.1168  -13.7030   20.1507 C   0  0  2  0  0  0  0  0  0  0  0  0
    8.1065  -14.2868   21.5101 C   0  0  0  0  0  0  0  0  0  0  0  0
    7.8144  -13.2140   22.5429 C   0  0  2  0  0  0  0  0  0  0  0  0
    9.3140  -15.0305   21.9597 N   0  0  0  0  0  0  0  0  0  0  0  0
    9.2508  -16.3072   21.2094 C   0  0  0  0  0  0  0  0  0  0  0  0
    9.2862  -15.3774   23.3983 O   0  0  0  0  0  0  0  0  0  0  0  0
    8.2333  -15.9016   23.9239 C   0  0  0  0  0  0  0  0  0  0  0  0
    8.0853  -12.5729   27.5956 C   0  0  1  0  0  0  0  0  0  0  0  0
    9.0352  -13.7784   27.5265 C   0  0  0  0  0  0  0  0  0  0  0  0
   10.1729  -13.4600   28.4695 C   0  0  0  0  0  0  0  0  0  0  0  0
    9.4657  -13.8909   26.1082 C   0  0  2  0  0  0  0  0  0  0  0  0
   10.1731  -15.1687   25.7518 N   0  0  0  0  0  0  0  0  0  0  0  0
   10.3597  -15.1779   24.2861 C   0  0  0  0  0  0  0  0  0  0  0  0
    9.4832  -16.3764   26.1692 O   0  0  0  0  0  0  0  0  0  0  0  0
    8.2823  -16.5537   25.8734 O   0  0  0  0  0  0  0  0  0  0  0  0
  1  2  1  0
  2  3  2  0
  4  2  1  0
  4  5  1  0
  6  5  1  0
  7  6  1  0
  8 10  1  0
  8  7  1  0
  8  9  1  6
 10 11  2  0
 13 12  1  0
 14 13  1  0
 14 16  1  0
 14 15  1  1
 16 18  1  0
 16 17  1  1
 17 10  1  0
 18 25  1  0
 18 19  2  0
 21 20  1  1
 21 22  1  0
 23 21  1  0
 24 23  1  1
 24 26  1  0
 25 24  1  0
 26 27  2  0
 26 28  1  0
M  END
$$$$
