RIL.pdb
     RDKit          3D

 28 27  0  0  1  0  0  0  0  0999 V2000
    9.8435  -19.2027   18.1429 N   0  0  0  0  0  0  0  0  0  0  0  0
    8.8649  -20.2208   18.1262 C   0  0  0  0  0  0  0  0  0  0  0  0
    9.2060  -21.3719   17.6668 N   0  0  0  0  0  0  0  0  0  0  0  0
    7.5343  -20.0153   18.5948 N   0  0  0  0  0  0  0  0  0  0  0  0
    7.2692  -19.2322   19.7454 C   0  0  0  0  0  0  0  0  0  0  0  0
    8.4711  -18.6596   20.4023 C   0  0  0  0  0  0  0  0  0  0  0  0
    8.2644  -17.9384   21.6748 C   0  0  0  0  0  0  0  0  0  0  0  0
    7.9414  -16.4987   21.6222 C   0  0  2  0  0  0  0  0  0  0  0  0
    8.3455  -15.9625   20.3325 N   0  0  0  0  0  0  0  0  0  0  0  0
    8.5840  -15.7224   22.7277 C   0  0  0  0  0  0  0  0  0  0  0  0
    9.8222  -15.5053   22.6973 O   0  0  0  0  0  0  0  0  0  0  0  0
    8.5549  -22.1751   17.6184 C   0  0  0  0  0  0  0  0  0  0  0  0
    5.5089  -12.0466   25.3568 C   0  0  0  0  0  0  0  0  0  0  0  0
    6.6729  -12.6972   24.6472 C   0  0  2  0  0  0  0  0  0  0  0  0
    7.4038  -13.6505   25.5107 C   0  0  0  0  0  0  0  0  0  0  0  0
    7.9543  -12.9398   26.7333 C   0  0  2  0  0  0  0  0  0  0  0  0
    8.5146  -14.4323   24.9038 N   0  0  0  0  0  0  0  0  0  0  0  0
    7.8599  -15.2106   23.8255 C   0  0  0  0  0  0  0  0  0  0  0  0
    9.1172  -15.4128   25.8343 O   0  0  0  0  0  0  0  0  0  0  0  0
    8.4672  -16.4697   26.1811 C   0  0  0  0  0  0  0  0  0  0  0  0
    9.4419  -14.6217   30.3524 C   0  0  1  0  0  0  0  0  0  0  0  0
   10.6498  -15.0041   29.4834 C   0  0  0  0  0  0  0  0  0  0  0  0
   10.9889  -13.7673   28.6833 C   0  0  0  0  0  0  0  0  0  0  0  0
   10.2121  -16.1455   28.6378 C   0  0  2  0  0  0  0  0  0  0  0  0
   10.9450  -16.2961   27.3338 N   0  0  0  0  0  0  0  0  0  0  0  0
   10.3998  -15.2891   26.4002 C   0  0  0  0  0  0  0  0  0  0  0  0
   10.8549  -17.6188   26.7408 O   0  0  0  0  0  0  0  0  0  0  0  0
    9.8084  -17.9839   26.1642 O   0  0  0  0  0  0  0  0  0  0  0  0
  1  2  1  0
  2  3  2  0
  4  2  1  0
  4  5  1  0
  6  5  1  0
  7  6  1  0
  8 10  1  0
  8  7  1  0
  8  9  1  6
 10 11  2  0
 13 12  1  0
 14 13  1  0
 14 16  1  0
 14 15  1  1
 16 18  1  0
 16 17  1  6
 17 10  1  0
 18 25  1  0
 18 19  2  0
 21 20  1  1
 21 22  1  0
 23 21  1  0
 24 23  1  1
 24 26  1  0
 25 24  1  0
 26 27  2  0
 26 28  1  0
M  END
$$$$
