RIL.pdb
     RDKit          3D

 28 27  0  0  1  0  0  0  0  0999 V2000
    8.3970  -14.7504   14.8051 N   0  0  0  0  0  0  0  0  0  0  0  0
    7.8012  -14.2229   15.9718 C   0  0  0  0  0  0  0  0  0  0  0  0
    8.0026  -12.9817   16.2385 N   0  0  0  0  0  0  0  0  0  0  0  0
    6.9976  -15.0103   16.8474 N   0  0  0  0  0  0  0  0  0  0  0  0
    7.5573  -15.6735   17.9673 C   0  0  0  0  0  0  0  0  0  0  0  0
    8.4666  -14.8423   18.7959 C   0  0  0  0  0  0  0  0  0  0  0  0
    8.7443  -15.3112   20.1689 C   0  0  0  0  0  0  0  0  0  0  0  0
    7.7843  -14.9674   21.2366 C   0  0  2  0  0  0  0  0  0  0  0  0
    7.0749  -13.7517   20.8716 N   0  0  0  0  0  0  0  0  0  0  0  0
    8.4403  -14.8008   22.5706 C   0  0  0  0  0  0  0  0  0  0  0  0
    9.6949  -14.7627   22.6465 O   0  0  0  0  0  0  0  0  0  0  0  0
    7.6751  -12.5322   17.1116 C   0  0  0  0  0  0  0  0  0  0  0  0
    5.7692  -11.8573   26.2983 C   0  0  0  0  0  0  0  0  0  0  0  0
    6.8828  -12.4073   25.4386 C   0  0  2  0  0  0  0  0  0  0  0  0
    7.3386  -13.7421   25.8848 C   0  0  0  0  0  0  0  0  0  0  0  0
    7.8388  -13.6777   27.3161 C   0  0  2  0  0  0  0  0  0  0  0  0
    8.3771  -14.4326   25.0736 N   0  0  0  0  0  0  0  0  0  0  0  0
    7.7113  -14.6819   23.7730 C   0  0  0  0  0  0  0  0  0  0  0  0
    8.7626  -15.7539   25.6177 O   0  0  0  0  0  0  0  0  0  0  0  0
    7.8611  -16.5954   25.9904 C   0  0  0  0  0  0  0  0  0  0  0  0
   13.7441  -19.0889   26.3406 C   0  0  1  0  0  0  0  0  0  0  0  0
   12.2487  -19.2790   26.0442 C   0  0  0  0  0  0  0  0  0  0  0  0
   12.1760  -20.3085   24.9397 C   0  0  0  0  0  0  0  0  0  0  0  0
   11.7305  -17.9468   25.6363 C   0  0  2  0  0  0  0  0  0  0  0  0
   10.4134  -17.5561   26.2468 N   0  0  0  0  0  0  0  0  0  0  0  0
   10.0900  -16.1956   25.7698 C   0  0  0  0  0  0  0  0  0  0  0  0
   10.3884  -17.5892   27.6985 O   0  0  0  0  0  0  0  0  0  0  0  0
   10.0615  -18.6330   28.3023 O   0  0  0  0  0  0  0  0  0  0  0  0
  1  2  1  0
  2  3  2  0
  4  2  1  0
  4  5  1  0
  6  5  1  0
  7  6  1  0
  8 10  1  0
  8  7  1  0
  8  9  1  6
 10 11  2  0
 13 12  1  0
 14 13  1  0
 14 16  1  0
 14 15  1  6
 16 18  1  0
 16 17  1  6
 17 10  1  0
 18 25  1  0
 18 19  2  0
 21 20  1  1
 21 22  1  0
 23 21  1  0
 24 23  1  6
 24 26  1  0
 25 24  1  0
 26 27  2  0
 26 28  1  0
M  END
$$$$
