RIL.pdb
     RDKit          3D

 28 27  0  0  1  0  0  0  0  0999 V2000
    8.0727  -12.5714   17.4476 N   0  0  0  0  0  0  0  0  0  0  0  0
    7.7154  -13.7572   16.7689 C   0  0  0  0  0  0  0  0  0  0  0  0
    8.3845  -14.0700   15.7169 N   0  0  0  0  0  0  0  0  0  0  0  0
    6.6546  -14.6031   17.2065 N   0  0  0  0  0  0  0  0  0  0  0  0
    6.4777  -14.9170   18.5768 C   0  0  0  0  0  0  0  0  0  0  0  0
    7.0794  -16.2046   19.0058 C   0  0  0  0  0  0  0  0  0  0  0  0
    7.5861  -16.2831   20.3912 C   0  0  0  0  0  0  0  0  0  0  0  0
    8.4125  -15.1710   20.9013 C   0  0  2  0  0  0  0  0  0  0  0  0
    9.6454  -15.0974   20.1339 N   0  0  0  0  0  0  0  0  0  0  0  0
    8.7198  -15.3022   22.3594 C   0  0  0  0  0  0  0  0  0  0  0  0
    9.7077  -15.9874   22.7279 O   0  0  0  0  0  0  0  0  0  0  0  0
    8.1076  -14.8377   15.0801 C   0  0  0  0  0  0  0  0  0  0  0  0
    6.3786  -11.8922   26.9526 C   0  0  0  0  0  0  0  0  0  0  0  0
    7.5763  -12.1215   26.0613 C   0  0  2  0  0  0  0  0  0  0  0  0
    7.3502  -13.1977   25.0715 C   0  0  0  0  0  0  0  0  0  0  0  0
    6.6675  -14.3833   25.7280 C   0  0  2  0  0  0  0  0  0  0  0  0
    8.5257  -13.7125   24.3189 N   0  0  0  0  0  0  0  0  0  0  0  0
    7.9440  -14.6855   23.3640 C   0  0  0  0  0  0  0  0  0  0  0  0
    9.4807  -14.4620   25.1657 O   0  0  0  0  0  0  0  0  0  0  0  0
   10.6754  -14.0182   25.3534 C   0  0  0  0  0  0  0  0  0  0  0  0
    9.5414  -14.9978   30.5648 C   0  0  1  0  0  0  0  0  0  0  0  0
   10.1791  -15.8460   29.4539 C   0  0  0  0  0  0  0  0  0  0  0  0
   11.6548  -15.5196   29.4830 C   0  0  0  0  0  0  0  0  0  0  0  0
    9.5161  -15.4419   28.1863 C   0  0  2  0  0  0  0  0  0  0  0  0
    9.9871  -16.1667   26.9563 N   0  0  0  0  0  0  0  0  0  0  0  0
    9.1855  -15.6739   25.8173 C   0  0  0  0  0  0  0  0  0  0  0  0
    9.8936  -17.6138   27.0363 O   0  0  0  0  0  0  0  0  0  0  0  0
   10.8619  -18.2890   27.4458 O   0  0  0  0  0  0  0  0  0  0  0  0
  1  2  1  0
  2  3  2  0
  4  2  1  0
  4  5  1  0
  6  5  1  0
  7  6  1  0
  8 10  1  0
  8  7  1  0
  8  9  1  6
 10 11  2  0
 13 12  1  0
 14 13  1  0
 14 16  1  0
 14 15  1  6
 16 18  1  0
 16 17  1  1
 17 10  1  0
 18 25  1  0
 18 19  2  0
 21 20  1  1
 21 22  1  0
 23 21  1  0
 24 23  1  6
 24 26  1  0
 25 24  1  0
 26 27  2  0
 26 28  1  0
M  END
$$$$
