RIL.pdb
     RDKit          3D

 28 27  0  0  1  0  0  0  0  0999 V2000
    7.9147  -12.5433   15.9483 N   0  0  0  0  0  0  0  0  0  0  0  0
    7.6524  -13.9185   15.7625 C   0  0  0  0  0  0  0  0  0  0  0  0
    7.7327  -14.3875   14.5684 N   0  0  0  0  0  0  0  0  0  0  0  0
    7.3076  -14.7871   16.8390 N   0  0  0  0  0  0  0  0  0  0  0  0
    8.2439  -15.1191   17.8491 C   0  0  0  0  0  0  0  0  0  0  0  0
    8.5061  -14.0420   18.8367 C   0  0  0  0  0  0  0  0  0  0  0  0
    7.9725  -14.2341   20.2007 C   0  0  0  0  0  0  0  0  0  0  0  0
    8.5428  -15.3118   21.0332 C   0  0  2  0  0  0  0  0  0  0  0  0
    7.5442  -16.3513   21.2237 N   0  0  0  0  0  0  0  0  0  0  0  0
    9.0336  -14.8193   22.3577 C   0  0  0  0  0  0  0  0  0  0  0  0
   10.0519  -14.0834   22.4095 O   0  0  0  0  0  0  0  0  0  0  0  0
    7.6178  -15.3924   14.3485 C   0  0  0  0  0  0  0  0  0  0  0  0
    5.6931  -12.6528   25.6880 C   0  0  0  0  0  0  0  0  0  0  0  0
    6.9486  -13.0198   24.9325 C   0  0  2  0  0  0  0  0  0  0  0  0
    7.6872  -14.1345   25.5654 C   0  0  0  0  0  0  0  0  0  0  0  0
    8.0771  -13.7698   26.9860 C   0  0  2  0  0  0  0  0  0  0  0  0
    8.9047  -14.6442   24.8791 N   0  0  0  0  0  0  0  0  0  0  0  0
    8.4019  -15.1435   23.5772 C   0  0  0  0  0  0  0  0  0  0  0  0
    9.5264  -15.7969   25.5686 O   0  0  0  0  0  0  0  0  0  0  0  0
    9.6001  -16.9441   24.9872 C   0  0  0  0  0  0  0  0  0  0  0  0
   10.9426  -14.7838   30.5331 C   0  0  1  0  0  0  0  0  0  0  0  0
   11.3425  -15.0485   29.0735 C   0  0  0  0  0  0  0  0  0  0  0  0
   10.4020  -14.2164   28.2320 C   0  0  0  0  0  0  0  0  0  0  0  0
   11.1839  -16.5103   28.8549 C   0  0  2  0  0  0  0  0  0  0  0  0
   10.7586  -16.9096   27.4693 N   0  0  0  0  0  0  0  0  0  0  0  0
   10.0725  -15.7491   26.8648 C   0  0  0  0  0  0  0  0  0  0  0  0
    9.8952  -18.0761   27.4164 O   0  0  0  0  0  0  0  0  0  0  0  0
    8.6866  -17.9562   27.1233 O   0  0  0  0  0  0  0  0  0  0  0  0
  1  2  1  0
  2  3  2  0
  4  2  1  0
  4  5  1  0
  6  5  1  0
  7  6  1  0
  8 10  1  0
  8  7  1  0
  8  9  1  1
 10 11  2  0
 13 12  1  0
 14 13  1  0
 14 16  1  0
 14 15  1  6
 16 18  1  0
 16 17  1  6
 17 10  1  0
 18 25  1  0
 18 19  2  0
 21 20  1  1
 21 22  1  0
 23 21  1  0
 24 23  1  6
 24 26  1  0
 25 24  1  0
 26 27  2  0
 26 28  1  0
M  END
$$$$
