RIL.pdb
     RDKit          3D

 28 27  0  0  1  0  0  0  0  0999 V2000
    7.0195  -13.8366   19.1527 N   0  0  0  0  0  0  0  0  0  0  0  0
    7.5209  -13.6946   17.8401 C   0  0  0  0  0  0  0  0  0  0  0  0
    7.1642  -12.6560   17.1718 N   0  0  0  0  0  0  0  0  0  0  0  0
    8.3947  -14.6502   17.2438 N   0  0  0  0  0  0  0  0  0  0  0  0
    8.9523  -15.7124   17.9976 C   0  0  0  0  0  0  0  0  0  0  0  0
    9.7688  -15.2901   19.1634 C   0  0  0  0  0  0  0  0  0  0  0  0
   10.3025  -16.3574   20.0342 C   0  0  0  0  0  0  0  0  0  0  0  0
    9.4859  -16.8031   21.1806 C   0  0  2  0  0  0  0  0  0  0  0  0
    8.0845  -16.8226   20.7934 N   0  0  0  0  0  0  0  0  0  0  0  0
    9.6745  -15.9454   22.3915 C   0  0  0  0  0  0  0  0  0  0  0  0
   10.6308  -15.1300   22.4336 O   0  0  0  0  0  0  0  0  0  0  0  0
    7.4266  -12.5050   16.1819 C   0  0  0  0  0  0  0  0  0  0  0  0
    6.1567  -12.7543   24.5516 C   0  0  0  0  0  0  0  0  0  0  0  0
    7.4853  -13.3711   24.1830 C   0  0  2  0  0  0  0  0  0  0  0  0
    7.8313  -14.5279   25.0379 C   0  0  0  0  0  0  0  0  0  0  0  0
    7.8479  -14.1180   26.4989 C   0  0  2  0  0  0  0  0  0  0  0  0
    9.1016  -15.2492   24.7562 N   0  0  0  0  0  0  0  0  0  0  0  0
    8.8190  -16.0040   23.5123 C   0  0  0  0  0  0  0  0  0  0  0  0
    9.4509  -16.2466   25.7924 O   0  0  0  0  0  0  0  0  0  0  0  0
    9.3387  -17.5070   25.5504 C   0  0  0  0  0  0  0  0  0  0  0  0
   10.6628  -14.1654   30.4422 C   0  0  1  0  0  0  0  0  0  0  0  0
   11.3037  -14.8655   29.2341 C   0  0  0  0  0  0  0  0  0  0  0  0
   10.8176  -14.1125   28.0169 C   0  0  0  0  0  0  0  0  0  0  0  0
   10.8381  -16.2767   29.2729 C   0  0  2  0  0  0  0  0  0  0  0  0
   10.6128  -16.9152   27.9306 N   0  0  0  0  0  0  0  0  0  0  0  0
    9.9191  -15.9260   27.0802 C   0  0  0  0  0  0  0  0  0  0  0  0
    9.8517  -18.1514   27.9712 O   0  0  0  0  0  0  0  0  0  0  0  0
    8.6124  -18.1371   27.8131 O   0  0  0  0  0  0  0  0  0  0  0  0
  1  2  1  0
  2  3  2  0
  4  2  1  0
  4  5  1  0
  6  5  1  0
  7  6  1  0
  8 10  1  0
  8  7  1  0
  8  9  1  6
 10 11  2  0
 13 12  1  0
 14 13  1  0
 14 16  1  0
 14 15  1  6
 16 18  1  0
 16 17  1  1
 17 10  1  0
 18 25  1  0
 18 19  2  0
 21 20  1  1
 21 22  1  0
 23 21  1  0
 24 23  1  6
 24 26  1  0
 25 24  1  0
 26 27  2  0
 26 28  1  0
M  END
$$$$
