RIL.pdb
     RDKit          3D

 28 27  0  0  1  0  0  0  0  0999 V2000
    7.3224  -14.1162   15.7078 N   0  0  0  0  0  0  0  0  0  0  0  0
    8.7050  -14.1174   15.9956 C   0  0  0  0  0  0  0  0  0  0  0  0
    9.5015  -14.5932   15.1059 N   0  0  0  0  0  0  0  0  0  0  0  0
    9.2353  -13.6162   17.2202 N   0  0  0  0  0  0  0  0  0  0  0  0
    8.3956  -13.0542   18.2135 C   0  0  0  0  0  0  0  0  0  0  0  0
    7.2094  -13.8742   18.5664 C   0  0  0  0  0  0  0  0  0  0  0  0
    7.2911  -14.6809   19.8012 C   0  0  0  0  0  0  0  0  0  0  0  0
    7.9920  -15.9792   19.7474 C   0  0  2  0  0  0  0  0  0  0  0  0
    7.2071  -16.9166   18.9604 N   0  0  0  0  0  0  0  0  0  0  0  0
    8.2623  -16.5457   21.1052 C   0  0  0  0  0  0  0  0  0  0  0  0
    7.3528  -17.1657   21.7131 O   0  0  0  0  0  0  0  0  0  0  0  0
   10.5276  -14.6389   15.2344 C   0  0  0  0  0  0  0  0  0  0  0  0
   12.6359  -19.3077   22.1497 C   0  0  0  0  0  0  0  0  0  0  0  0
   11.2286  -18.7590   22.1513 C   0  0  2  0  0  0  0  0  0  0  0  0
   11.0766  -17.5874   23.0417 C   0  0  0  0  0  0  0  0  0  0  0  0
   11.5041  -17.9394   24.4546 C   0  0  2  0  0  0  0  0  0  0  0  0
    9.7395  -16.9401   23.1219 N   0  0  0  0  0  0  0  0  0  0  0  0
    9.5092  -16.4186   21.7537 C   0  0  0  0  0  0  0  0  0  0  0  0
    9.7063  -15.7758   24.0352 O   0  0  0  0  0  0  0  0  0  0  0  0
   10.7102  -14.9716   24.1055 C   0  0  0  0  0  0  0  0  0  0  0  0
    5.7846  -12.1988   26.9865 C   0  0  1  0  0  0  0  0  0  0  0  0
    7.2544  -12.6462   26.9938 C   0  0  0  0  0  0  0  0  0  0  0  0
    8.0603  -11.4164   26.6431 C   0  0  0  0  0  0  0  0  0  0  0  0
    7.3675  -13.7277   25.9803 C   0  0  2  0  0  0  0  0  0  0  0  0
    8.7141  -14.3909   25.8970 N   0  0  0  0  0  0  0  0  0  0  0  0
    8.6229  -15.4520   24.8729 C   0  0  0  0  0  0  0  0  0  0  0  0
    9.1877  -14.9530   27.1495 O   0  0  0  0  0  0  0  0  0  0  0  0
    8.7554  -16.0537   27.5529 O   0  0  0  0  0  0  0  0  0  0  0  0
  1  2  1  0
  2  3  2  0
  4  2  1  0
  4  5  1  0
  6  5  1  0
  7  6  1  0
  8 10  1  0
  8  7  1  0
  8  9  1  6
 10 11  2  0
 13 12  1  0
 14 13  1  0
 14 16  1  0
 14 15  1  6
 16 18  1  0
 16 17  1  1
 17 10  1  0
 18 25  1  0
 18 19  2  0
 21 20  1  1
 21 22  1  0
 23 21  1  0
 24 23  1  6
 24 26  1  0
 25 24  1  0
 26 27  2  0
 26 28  1  0
M  END
$$$$
