RIL.pdb
     RDKit          3D

 28 27  0  0  1  0  0  0  0  0999 V2000
    7.9900  -16.9403   16.3831 N   0  0  0  0  0  0  0  0  0  0  0  0
    7.2511  -17.8475   17.1738 C   0  0  0  0  0  0  0  0  0  0  0  0
    6.2526  -18.4437   16.6263 N   0  0  0  0  0  0  0  0  0  0  0  0
    7.5724  -18.1178   18.5361 N   0  0  0  0  0  0  0  0  0  0  0  0
    8.5825  -17.3921   19.2147 C   0  0  0  0  0  0  0  0  0  0  0  0
    8.0899  -16.2709   20.0540 C   0  0  0  0  0  0  0  0  0  0  0  0
    8.2878  -14.9024   19.5340 C   0  0  0  0  0  0  0  0  0  0  0  0
    7.7741  -13.7681   20.3271 C   0  0  2  0  0  0  0  0  0  0  0  0
    8.0200  -12.5285   19.6079 N   0  0  0  0  0  0  0  0  0  0  0  0
    8.3777  -13.6996   21.6941 C   0  0  0  0  0  0  0  0  0  0  0  0
    9.6167  -13.5250   21.8191 O   0  0  0  0  0  0  0  0  0  0  0  0
    5.6614  -19.1298   17.1276 C   0  0  0  0  0  0  0  0  0  0  0  0
    6.7725  -11.8584   27.1689 C   0  0  0  0  0  0  0  0  0  0  0  0
    7.8161  -12.6248   26.3909 C   0  0  2  0  0  0  0  0  0  0  0  0
    7.3164  -13.0941   25.0798 C   0  0  0  0  0  0  0  0  0  0  0  0
    6.0560  -13.9197   25.2603 C   0  0  2  0  0  0  0  0  0  0  0  0
    8.2457  -13.8705   24.2156 N   0  0  0  0  0  0  0  0  0  0  0  0
    7.6151  -13.8231   22.8750 C   0  0  0  0  0  0  0  0  0  0  0  0
    8.3416  -15.2983   24.5934 O   0  0  0  0  0  0  0  0  0  0  0  0
    7.7730  -16.2040   23.8751 C   0  0  0  0  0  0  0  0  0  0  0  0
   12.5585  -18.2675   25.5490 C   0  0  1  0  0  0  0  0  0  0  0  0
   11.5110  -18.3142   24.4261 C   0  0  0  0  0  0  0  0  0  0  0  0
   12.2947  -18.3607   23.1344 C   0  0  0  0  0  0  0  0  0  0  0  0
   10.6905  -17.0828   24.5680 C   0  0  2  0  0  0  0  0  0  0  0  0
    9.7234  -17.0852   25.7190 N   0  0  0  0  0  0  0  0  0  0  0  0
    9.0336  -15.7786   25.7208 C   0  0  0  0  0  0  0  0  0  0  0  0
   10.3308  -17.3245   27.0163 O   0  0  0  0  0  0  0  0  0  0  0  0
   10.4304  -18.4867   27.4638 O   0  0  0  0  0  0  0  0  0  0  0  0
  1  2  1  0
  2  3  2  0
  4  2  1  0
  4  5  1  0
  6  5  1  0
  7  6  1  0
  8 10  1  0
  8  7  1  0
  8  9  1  6
 10 11  2  0
 13 12  1  0
 14 13  1  0
 14 16  1  0
 14 15  1  6
 16 18  1  0
 16 17  1  1
 17 10  1  0
 18 25  1  0
 18 19  2  0
 21 20  1  1
 21 22  1  0
 23 21  1  0
 24 23  1  6
 24 26  1  0
 25 24  1  0
 26 27  2  0
 26 28  1  0
M  END
$$$$
