RIL.pdb
     RDKit          3D

 28 27  0  0  1  0  0  0  0  0999 V2000
    9.1275  -22.7505   18.7638 N   0  0  0  0  0  0  0  0  0  0  0  0
    8.0715  -22.7245   19.7012 C   0  0  0  0  0  0  0  0  0  0  0  0
    6.9515  -23.2527   19.3565 N   0  0  0  0  0  0  0  0  0  0  0  0
    8.2067  -22.1411   20.9949 N   0  0  0  0  0  0  0  0  0  0  0  0
    9.4122  -21.5174   21.4014 C   0  0  0  0  0  0  0  0  0  0  0  0
    9.7418  -20.2632   20.6786 C   0  0  0  0  0  0  0  0  0  0  0  0
    8.6102  -19.4224   20.2374 C   0  0  0  0  0  0  0  0  0  0  0  0
    8.8926  -18.2655   19.3647 C   0  0  2  0  0  0  0  0  0  0  0  0
    9.9560  -18.6127   18.4358 N   0  0  0  0  0  0  0  0  0  0  0  0
    9.2618  -17.0379   20.1356 C   0  0  0  0  0  0  0  0  0  0  0  0
   10.4703  -16.7045   20.2332 O   0  0  0  0  0  0  0  0  0  0  0  0
    6.1142  -23.2467   19.9651 C   0  0  0  0  0  0  0  0  0  0  0  0
    7.0183  -12.6909   18.8295 C   0  0  0  0  0  0  0  0  0  0  0  0
    8.0632  -13.6210   19.3994 C   0  0  2  0  0  0  0  0  0  0  0  0
    7.8343  -13.9247   20.8291 C   0  0  0  0  0  0  0  0  0  0  0  0
    7.9472  -12.6610   21.6617 C   0  0  2  0  0  0  0  0  0  0  0  0
    8.6860  -14.9643   21.4673 N   0  0  0  0  0  0  0  0  0  0  0  0
    8.3065  -16.2172   20.7723 C   0  0  0  0  0  0  0  0  0  0  0  0
    8.3890  -15.1642   22.9034 O   0  0  0  0  0  0  0  0  0  0  0  0
    7.2700  -15.6847   23.2729 C   0  0  0  0  0  0  0  0  0  0  0  0
    5.7928  -12.3570   26.1056 C   0  0  1  0  0  0  0  0  0  0  0  0
    7.0763  -13.1033   26.5004 C   0  0  0  0  0  0  0  0  0  0  0  0
    7.8538  -12.1488   27.3776 C   0  0  0  0  0  0  0  0  0  0  0  0
    7.7762  -13.4323   25.2309 C   0  0  2  0  0  0  0  0  0  0  0  0
    8.7761  -14.5514   25.3207 N   0  0  0  0  0  0  0  0  0  0  0  0
    9.2626  -14.8218   23.9521 C   0  0  0  0  0  0  0  0  0  0  0  0
    8.2613  -15.7738   25.9121 O   0  0  0  0  0  0  0  0  0  0  0  0
    7.1923  -16.2740   25.5020 O   0  0  0  0  0  0  0  0  0  0  0  0
  1  2  1  0
  2  3  2  0
  4  2  1  0
  4  5  1  0
  6  5  1  0
  7  6  1  0
  8 10  1  0
  8  7  1  0
  8  9  1  6
 10 11  2  0
 13 12  1  0
 14 13  1  0
 14 16  1  0
 14 15  1  1
 16 18  1  0
 16 17  1  1
 17 10  1  0
 18 25  1  0
 18 19  2  0
 21 20  1  1
 21 22  1  0
 23 21  1  0
 24 23  1  1
 24 26  1  0
 25 24  1  0
 26 27  2  0
 26 28  1  0
M  END
$$$$
