RIL.pdb
     RDKit          3D

 28 27  0  0  1  0  0  0  0  0999 V2000
    7.6320  -21.3426   20.4673 N   0  0  0  0  0  0  0  0  0  0  0  0
    7.3384  -20.6905   19.2495 C   0  0  0  0  0  0  0  0  0  0  0  0
    7.3038  -21.4042   18.1810 N   0  0  0  0  0  0  0  0  0  0  0  0
    7.0836  -19.2901   19.1699 N   0  0  0  0  0  0  0  0  0  0  0  0
    6.6139  -18.5601   20.2896 C   0  0  0  0  0  0  0  0  0  0  0  0
    7.4917  -18.6165   21.4856 C   0  0  0  0  0  0  0  0  0  0  0  0
    8.5535  -17.5949   21.5910 C   0  0  0  0  0  0  0  0  0  0  0  0
    8.1571  -16.1888   21.8042 C   0  0  2  0  0  0  0  0  0  0  0  0
    8.4905  -15.4111   20.6218 N   0  0  0  0  0  0  0  0  0  0  0  0
    8.7966  -15.5863   23.0149 C   0  0  0  0  0  0  0  0  0  0  0  0
   10.0227  -15.3081   22.9975 O   0  0  0  0  0  0  0  0  0  0  0  0
    7.0856  -21.0125   17.2481 C   0  0  0  0  0  0  0  0  0  0  0  0
    6.0635  -11.9611   25.8248 C   0  0  0  0  0  0  0  0  0  0  0  0
    7.2071  -12.6966   25.1669 C   0  0  2  0  0  0  0  0  0  0  0  0
    7.6914  -13.8355   25.9775 C   0  0  0  0  0  0  0  0  0  0  0  0
    8.2001  -13.3479   27.3215 C   0  0  2  0  0  0  0  0  0  0  0  0
    8.7372  -14.7157   25.3904 N   0  0  0  0  0  0  0  0  0  0  0  0
    8.0826  -15.3081   24.1999 C   0  0  0  0  0  0  0  0  0  0  0  0
    9.1192  -15.8405   26.2733 O   0  0  0  0  0  0  0  0  0  0  0  0
    8.2152  -16.5583   26.8453 C   0  0  0  0  0  0  0  0  0  0  0  0
   11.0585  -19.6042   25.6598 C   0  0  2  0  0  0  0  0  0  0  0  0
   12.0525  -18.4333   25.6933 C   0  0  0  0  0  0  0  0  0  0  0  0
   13.3844  -19.0124   25.2739 C   0  0  0  0  0  0  0  0  0  0  0  0
   12.0508  -17.9229   27.0894 C   0  0  2  0  0  0  0  0  0  0  0  0
   10.7692  -17.2747   27.5340 N   0  0  0  0  0  0  0  0  0  0  0  0
   10.4457  -16.2156   26.5560 C   0  0  0  0  0  0  0  0  0  0  0  0
   10.8101  -16.7143   28.8731 O   0  0  0  0  0  0  0  0  0  0  0  0
   10.7668  -15.4772   29.0432 O   0  0  0  0  0  0  0  0  0  0  0  0
  1  2  1  0
  2  3  2  0
  4  2  1  0
  4  5  1  0
  6  5  1  0
  7  6  1  0
  8 10  1  0
  8  7  1  0
  8  9  1  6
 10 11  2  0
 13 12  1  0
 14 13  1  0
 14 16  1  0
 14 15  1  6
 16 18  1  0
 16 17  1  6
 17 10  1  0
 18 25  1  0
 18 19  2  0
 21 20  1  6
 21 22  1  0
 23 21  1  0
 24 23  1  6
 24 26  1  0
 25 24  1  0
 26 27  2  0
 26 28  1  0
M  END
$$$$
