RIL.pdb
     RDKit          3D

 28 27  0  0  1  0  0  0  0  0999 V2000
    9.5118  -18.5839   15.9336 N   0  0  0  0  0  0  0  0  0  0  0  0
   10.5398  -19.3289   16.5520 C   0  0  0  0  0  0  0  0  0  0  0  0
   11.6306  -19.5045   15.8948 N   0  0  0  0  0  0  0  0  0  0  0  0
   10.4080  -19.8823   17.8591 N   0  0  0  0  0  0  0  0  0  0  0  0
   10.1265  -19.0654   18.9820 C   0  0  0  0  0  0  0  0  0  0  0  0
    9.8509  -17.6413   18.6656 C   0  0  0  0  0  0  0  0  0  0  0  0
    9.7110  -16.7126   19.8059 C   0  0  0  0  0  0  0  0  0  0  0  0
    9.3159  -17.2643   21.1171 C   0  0  2  0  0  0  0  0  0  0  0  0
    7.9091  -17.6301   21.0803 N   0  0  0  0  0  0  0  0  0  0  0  0
    9.5724  -16.3142   22.2437 C   0  0  0  0  0  0  0  0  0  0  0  0
   10.6867  -15.7380   22.3303 O   0  0  0  0  0  0  0  0  0  0  0  0
   12.4447  -20.0149   16.2796 C   0  0  0  0  0  0  0  0  0  0  0  0
    6.1105  -12.9084   25.8827 C   0  0  0  0  0  0  0  0  0  0  0  0
    7.5174  -13.4085   25.6543 C   0  0  2  0  0  0  0  0  0  0  0  0
    7.5645  -14.5798   24.7518 C   0  0  0  0  0  0  0  0  0  0  0  0
    6.7626  -15.7283   25.3357 C   0  0  2  0  0  0  0  0  0  0  0  0
    8.8996  -15.1108   24.3659 N   0  0  0  0  0  0  0  0  0  0  0  0
    8.6108  -16.0243   23.2350 C   0  0  0  0  0  0  0  0  0  0  0  0
    9.5335  -15.9275   25.4251 O   0  0  0  0  0  0  0  0  0  0  0  0
    9.4851  -17.2139   25.3753 C   0  0  0  0  0  0  0  0  0  0  0  0
   11.0069  -13.6771   30.3257 C   0  0  1  0  0  0  0  0  0  0  0  0
   10.9881  -14.1202   28.8548 C   0  0  0  0  0  0  0  0  0  0  0  0
    9.8502  -13.3613   28.2112 C   0  0  0  0  0  0  0  0  0  0  0  0
   10.7779  -15.5917   28.8639 C   0  0  2  0  0  0  0  0  0  0  0  0
   10.8929  -16.2647   27.5245 N   0  0  0  0  0  0  0  0  0  0  0  0
   10.2194  -15.3991   26.5344 C   0  0  0  0  0  0  0  0  0  0  0  0
   10.3322  -17.6033   27.4722 O   0  0  0  0  0  0  0  0  0  0  0  0
    9.1160  -17.7715   27.2405 O   0  0  0  0  0  0  0  0  0  0  0  0
  1  2  1  0
  2  3  2  0
  4  2  1  0
  4  5  1  0
  6  5  1  0
  7  6  1  0
  8 10  1  0
  8  7  1  0
  8  9  1  6
 10 11  2  0
 13 12  1  0
 14 13  1  0
 14 16  1  0
 14 15  1  6
 16 18  1  0
 16 17  1  1
 17 10  1  0
 18 25  1  0
 18 19  2  0
 21 20  1  6
 21 22  1  0
 23 21  1  0
 24 23  1  6
 24 26  1  0
 25 24  1  0
 26 27  2  0
 26 28  1  0
M  END
$$$$
