RIL.pdb
     RDKit          3D

 28 27  0  0  1  0  0  0  0  0999 V2000
    7.0712  -20.0370   16.9971 N   0  0  0  0  0  0  0  0  0  0  0  0
    7.8206  -18.9734   16.4478 C   0  0  0  0  0  0  0  0  0  0  0  0
    7.2783  -18.2799   15.5111 N   0  0  0  0  0  0  0  0  0  0  0  0
    9.1361  -18.6507   16.8920 N   0  0  0  0  0  0  0  0  0  0  0  0
    9.3590  -18.0068   18.1342 C   0  0  0  0  0  0  0  0  0  0  0  0
    8.2295  -17.1735   18.6179 C   0  0  0  0  0  0  0  0  0  0  0  0
    8.4907  -16.2882   19.7712 C   0  0  0  0  0  0  0  0  0  0  0  0
    8.5283  -16.8852   21.1211 C   0  0  2  0  0  0  0  0  0  0  0  0
    7.1957  -17.3418   21.4816 N   0  0  0  0  0  0  0  0  0  0  0  0
    9.0466  -15.9382   22.1565 C   0  0  0  0  0  0  0  0  0  0  0  0
   10.1529  -15.3673   21.9794 O   0  0  0  0  0  0  0  0  0  0  0  0
    7.7465  -17.4719   15.0646 C   0  0  0  0  0  0  0  0  0  0  0  0
    5.7210  -12.8240   25.1766 C   0  0  0  0  0  0  0  0  0  0  0  0
    6.9552  -13.2331   24.4077 C   0  0  2  0  0  0  0  0  0  0  0  0
    7.7644  -14.2413   25.1270 C   0  0  0  0  0  0  0  0  0  0  0  0
    8.2477  -13.6821   26.4524 C   0  0  2  0  0  0  0  0  0  0  0  0
    8.9408  -14.8222   24.4254 N   0  0  0  0  0  0  0  0  0  0  0  0
    8.3459  -15.6455   23.3459 C   0  0  0  0  0  0  0  0  0  0  0  0
    9.7352  -15.7382   25.2742 O   0  0  0  0  0  0  0  0  0  0  0  0
    9.9714  -16.9450   24.8903 C   0  0  0  0  0  0  0  0  0  0  0  0
   11.8046  -13.5526   28.5805 C   0  0  1  0  0  0  0  0  0  0  0  0
   10.6238  -14.4685   28.9374 C   0  0  0  0  0  0  0  0  0  0  0  0
   10.2852  -14.1602   30.3780 C   0  0  0  0  0  0  0  0  0  0  0  0
   11.0990  -15.8622   28.7340 C   0  0  1  0  0  0  0  0  0  0  0  0
   11.1055  -16.3362   27.3074 N   0  0  0  0  0  0  0  0  0  0  0  0
   10.2840  -15.3914   26.5228 C   0  0  0  0  0  0  0  0  0  0  0  0
   10.6153  -17.6902   27.1197 O   0  0  0  0  0  0  0  0  0  0  0  0
   11.3556  -18.6694   27.3527 O   0  0  0  0  0  0  0  0  0  0  0  0
  1  2  1  0
  2  3  2  0
  4  2  1  0
  4  5  1  0
  6  5  1  0
  7  6  1  0
  8 10  1  0
  8  7  1  0
  8  9  1  1
 10 11  2  0
 13 12  1  0
 14 13  1  0
 14 16  1  0
 14 15  1  6
 16 18  1  0
 16 17  1  6
 17 10  1  0
 18 25  1  0
 18 19  2  0
 21 20  1  6
 21 22  1  0
 23 21  1  0
 24 23  1  6
 24 26  1  0
 25 24  1  0
 26 27  2  0
 26 28  1  0
M  END
$$$$
