EYR.pdb
     RDKit          3D

 33 33  0  0  1  0  0  0  0  0999 V2000
   29.8048  -24.7606  -21.4164 N   0  0  0  0  0  0  0  0  0  0  0  0
   28.8940  -25.4461  -20.5264 C   0  0  1  0  0  0  0  0  0  0  0  0
   27.5250  -25.4714  -21.1236 C   0  0  0  0  0  0  0  0  0  0  0  0
   27.0626  -24.0149  -21.2097 C   0  0  0  0  0  0  0  0  0  0  0  0
   25.6852  -23.8759  -21.6654 C   0  0  0  0  0  0  0  0  0  0  0  0
   25.0003  -24.8851  -21.9216 O   0  0  0  0  0  0  0  0  0  0  0  0
   29.4547  -26.7666  -20.1899 C   0  0  0  0  0  0  0  0  0  0  0  0
   30.0002  -27.5052  -21.0807 O   0  0  0  0  0  0  0  0  0  0  0  0
   25.0954  -22.6200  -21.8238 O   0  0  0  0  0  0  0  0  0  0  0  0
   32.4280  -33.7434  -15.6174 O   0  0  0  0  0  0  0  0  0  0  0  0
   31.9712  -32.4947  -15.9757 C   0  0  0  0  0  0  0  0  0  0  0  0
   30.6460  -32.1930  -15.8087 C   0  0  0  0  0  0  0  0  0  0  0  0
   30.1615  -30.9514  -16.1584 C   0  0  0  0  0  0  0  0  0  0  0  0
   30.9455  -29.9542  -16.6834 C   0  0  0  0  0  0  0  0  0  0  0  0
   30.4968  -28.5993  -17.0492 C   0  0  0  0  0  0  0  0  0  0  0  0
   29.9100  -28.5700  -18.4569 C   0  0  2  0  0  0  0  0  0  0  0  0
   29.4222  -27.2982  -18.8687 N   0  0  0  0  0  0  0  0  0  0  0  0
   29.0271  -29.7220  -18.7290 C   0  0  0  0  0  0  0  0  0  0  0  0
   27.7725  -29.6053  -18.5456 O   0  0  0  0  0  0  0  0  0  0  0  0
   32.2947  -30.2820  -16.8462 C   0  0  0  0  0  0  0  0  0  0  0  0
   32.7901  -31.5205  -16.5001 C   0  0  0  0  0  0  0  0  0  0  0  0
   31.3018  -30.3557  -26.1881 N   0  0  0  0  0  0  0  0  0  0  0  0
   30.7313  -31.6094  -25.8263 C   0  0  0  0  0  0  0  0  0  0  0  0
   31.0453  -32.6493  -26.5470 N   0  0  0  0  0  0  0  0  0  0  0  0
   29.8453  -31.7294  -24.7165 N   0  0  0  0  0  0  0  0  0  0  0  0
   29.6383  -30.5595  -23.9262 C   0  0  0  0  0  0  0  0  0  0  0  0
   28.6118  -30.6243  -22.8714 C   0  0  0  0  0  0  0  0  0  0  0  0
   28.9628  -30.3095  -21.4754 C   0  0  0  0  0  0  0  0  0  0  0  0
   29.1728  -31.4578  -20.5404 C   0  0  2  0  0  0  0  0  0  0  0  0
   29.4756  -30.9657  -19.1835 N   0  0  0  0  0  0  0  0  0  0  0  0
   30.1842  -32.4425  -20.9625 C   0  0  0  0  0  0  0  0  0  0  0  0
   29.8735  -33.4469  -21.8540 O   0  0  0  0  0  0  0  0  0  0  0  0
   31.3572  -32.3894  -20.5167 O   0  0  0  0  0  0  0  0  0  0  0  0
  2  3  1  0
  2  1  1  6
  4  3  1  0
  5  4  1  0
  5  6  2  0
  7  8  2  0
  7  2  1  0
  9  5  1  0
 10 11  1  0
 11 12  2  0
 12 13  1  0
 14 15  1  0
 14 13  2  0
 16 15  1  1
 16 17  1  0
 17  7  1  0
 18 16  1  0
 19 18  2  0
 20 14  1  0
 21 20  2  0
 21 11  1  0
 23 22  1  0
 24 23  2  0
 25 23  1  0
 26 27  1  0
 26 25  1  0
 27 28  1  0
 29 28  1  6
 29 31  1  0
 29 30  1  0
 30 18  1  0
 31 32  1  0
 33 31  2  0
M  END
$$$$
