EYR.pdb
     RDKit          3D

 33 33  0  0  1  0  0  0  0  0999 V2000
   28.0015  -22.7188  -18.1468 N   0  0  0  0  0  0  0  0  0  0  0  0
   28.1231  -21.4592  -17.4467 C   0  0  1  0  0  0  0  0  0  0  0  0
   27.7945  -20.3323  -18.3707 C   0  0  0  0  0  0  0  0  0  0  0  0
   26.3820  -20.6000  -18.8957 C   0  0  0  0  0  0  0  0  0  0  0  0
   26.3503  -20.9330  -20.3142 C   0  0  0  0  0  0  0  0  0  0  0  0
   26.9480  -21.9407  -20.7395 O   0  0  0  0  0  0  0  0  0  0  0  0
   27.3157  -21.5149  -16.2153 C   0  0  0  0  0  0  0  0  0  0  0  0
   26.3154  -22.3052  -16.1098 O   0  0  0  0  0  0  0  0  0  0  0  0
   25.6531  -20.1432  -21.2308 O   0  0  0  0  0  0  0  0  0  0  0  0
   24.6056  -20.4754   -7.8739 O   0  0  0  0  0  0  0  0  0  0  0  0
   25.3303  -20.3939   -9.0420 C   0  0  0  0  0  0  0  0  0  0  0  0
   25.3899  -19.2007   -9.7112 C   0  0  0  0  0  0  0  0  0  0  0  0
   26.1077  -19.0902  -10.8822 C   0  0  0  0  0  0  0  0  0  0  0  0
   26.7961  -20.1343  -11.4485 C   0  0  0  0  0  0  0  0  0  0  0  0
   27.6047  -20.0750  -12.6787 C   0  0  0  0  0  0  0  0  0  0  0  0
   26.8475  -20.6548  -13.8693 C   0  0  2  0  0  0  0  0  0  0  0  0
   27.5933  -20.7000  -15.0803 N   0  0  0  0  0  0  0  0  0  0  0  0
   25.4699  -20.1338  -13.9753 C   0  0  0  0  0  0  0  0  0  0  0  0
   25.2517  -19.0759  -14.6497 O   0  0  0  0  0  0  0  0  0  0  0  0
   26.7227  -21.3433  -10.7504 C   0  0  0  0  0  0  0  0  0  0  0  0
   26.0076  -21.4652   -9.5786 C   0  0  0  0  0  0  0  0  0  0  0  0
   22.8978  -18.2716  -19.4887 N   0  0  0  0  0  0  0  0  0  0  0  0
   23.0186  -19.6438  -19.1273 C   0  0  0  0  0  0  0  0  0  0  0  0
   23.7235  -20.4163  -19.9057 N   0  0  0  0  0  0  0  0  0  0  0  0
   22.3913  -20.1614  -17.9570 N   0  0  0  0  0  0  0  0  0  0  0  0
   21.7424  -19.2207  -17.1026 C   0  0  0  0  0  0  0  0  0  0  0  0
   22.2161  -19.1266  -15.7108 C   0  0  0  0  0  0  0  0  0  0  0  0
   22.5370  -20.3489  -14.9530 C   0  0  0  0  0  0  0  0  0  0  0  0
   22.9955  -20.1842  -13.5389 C   0  0  2  0  0  0  0  0  0  0  0  0
   24.3564  -20.7282  -13.3743 N   0  0  0  0  0  0  0  0  0  0  0  0
   22.0971  -20.7404  -12.5121 C   0  0  0  0  0  0  0  0  0  0  0  0
   20.8895  -20.1427  -12.2214 O   0  0  0  0  0  0  0  0  0  0  0  0
   22.4133  -21.7756  -11.8749 O   0  0  0  0  0  0  0  0  0  0  0  0
  2  3  1  0
  2  1  1  6
  4  3  1  0
  5  4  1  0
  5  6  2  0
  7  8  2  0
  7  2  1  0
  9  5  1  0
 10 11  1  0
 11 12  2  0
 12 13  1  0
 14 15  1  0
 14 13  2  0
 16 15  1  1
 16 17  1  0
 17  7  1  0
 18 16  1  0
 19 18  2  0
 20 14  1  0
 21 20  2  0
 21 11  1  0
 23 22  1  0
 24 23  2  0
 25 23  1  0
 26 27  1  0
 26 25  1  0
 27 28  1  0
 29 28  1  6
 29 31  1  0
 29 30  1  0
 30 18  1  0
 31 32  1  0
 33 31  2  0
M  END
$$$$
