EYR.pdb
     RDKit          3D

 33 33  0  0  1  0  0  0  0  0999 V2000
   28.0191  -19.5233  -15.6593 N   0  0  0  0  0  0  0  0  0  0  0  0
   27.4031  -20.8080  -15.9076 C   0  0  1  0  0  0  0  0  0  0  0  0
   28.4499  -21.8100  -16.2704 C   0  0  0  0  0  0  0  0  0  0  0  0
   29.1768  -21.2530  -17.4967 C   0  0  0  0  0  0  0  0  0  0  0  0
   28.3854  -21.3314  -18.7180 C   0  0  0  0  0  0  0  0  0  0  0  0
   27.8976  -22.4180  -19.0853 O   0  0  0  0  0  0  0  0  0  0  0  0
   26.5643  -21.1695  -14.7513 C   0  0  0  0  0  0  0  0  0  0  0  0
   25.9962  -22.3129  -14.6721 O   0  0  0  0  0  0  0  0  0  0  0  0
   28.1485  -20.2019  -19.5043 O   0  0  0  0  0  0  0  0  0  0  0  0
   31.2735  -21.8919  -10.0192 O   0  0  0  0  0  0  0  0  0  0  0  0
   30.0108  -21.4166  -10.2946 C   0  0  0  0  0  0  0  0  0  0  0  0
   29.7992  -20.7052  -11.4454 C   0  0  0  0  0  0  0  0  0  0  0  0
   28.5460  -20.2179  -11.7464 C   0  0  0  0  0  0  0  0  0  0  0  0
   27.4493  -20.4032  -10.9416 C   0  0  0  0  0  0  0  0  0  0  0  0
   26.0801  -19.9353  -11.2195 C   0  0  0  0  0  0  0  0  0  0  0  0
   25.5393  -20.5374  -12.5125 C   0  0  2  0  0  0  0  0  0  0  0  0
   26.3340  -20.2783  -13.6642 N   0  0  0  0  0  0  0  0  0  0  0  0
   24.0850  -20.3345  -12.6694 C   0  0  0  0  0  0  0  0  0  0  0  0
   23.6515  -19.2113  -13.0841 O   0  0  0  0  0  0  0  0  0  0  0  0
   27.6861  -21.1313   -9.7721 C   0  0  0  0  0  0  0  0  0  0  0  0
   28.9353  -21.6231   -9.4608 C   0  0  0  0  0  0  0  0  0  0  0  0
   18.3513  -25.2030  -16.7239 N   0  0  0  0  0  0  0  0  0  0  0  0
   18.3792  -23.8385  -17.1307 C   0  0  0  0  0  0  0  0  0  0  0  0
   17.9432  -23.5527  -18.3256 N   0  0  0  0  0  0  0  0  0  0  0  0
   18.8675  -22.8159  -16.2665 N   0  0  0  0  0  0  0  0  0  0  0  0
   19.2985  -23.2197  -14.9676 C   0  0  0  0  0  0  0  0  0  0  0  0
   19.8220  -22.1756  -14.0697 C   0  0  0  0  0  0  0  0  0  0  0  0
   21.2324  -22.2031  -13.6441 C   0  0  0  0  0  0  0  0  0  0  0  0
   21.6979  -21.1181  -12.7259 C   0  0  2  0  0  0  0  0  0  0  0  0
   23.1210  -21.3073  -12.3884 N   0  0  0  0  0  0  0  0  0  0  0  0
   20.9025  -20.9415  -11.4984 C   0  0  0  0  0  0  0  0  0  0  0  0
   21.3578  -21.4008  -10.2811 O   0  0  0  0  0  0  0  0  0  0  0  0
   19.7861  -20.3670  -11.5337 O   0  0  0  0  0  0  0  0  0  0  0  0
  2  3  1  0
  2  1  1  1
  4  3  1  0
  5  4  1  0
  5  6  2  0
  7  8  2  0
  7  2  1  0
  9  5  1  0
 10 11  1  0
 11 12  2  0
 12 13  1  0
 14 15  1  0
 14 13  2  0
 16 15  1  1
 16 17  1  0
 17  7  1  0
 18 16  1  0
 19 18  2  0
 20 14  1  0
 21 20  2  0
 21 11  1  0
 23 22  1  0
 24 23  2  0
 25 23  1  0
 26 27  1  0
 26 25  1  0
 27 28  1  0
 29 28  1  1
 29 31  1  0
 29 30  1  0
 30 18  1  0
 31 32  1  0
 33 31  2  0
M  END
$$$$
