EYR.pdb
     RDKit          3D

 33 33  0  0  1  0  0  0  0  0999 V2000
   24.0543  -30.9389  -19.9320 N   0  0  0  0  0  0  0  0  0  0  0  0
   24.0152  -29.5826  -20.4325 C   0  0  1  0  0  0  0  0  0  0  0  0
   22.8419  -29.4116  -21.3412 C   0  0  0  0  0  0  0  0  0  0  0  0
   23.2461  -30.0135  -22.6891 C   0  0  0  0  0  0  0  0  0  0  0  0
   23.7051  -29.0168  -23.6483 C   0  0  0  0  0  0  0  0  0  0  0  0
   24.9239  -28.8204  -23.8199 O   0  0  0  0  0  0  0  0  0  0  0  0
   24.0662  -28.6491  -19.2935 C   0  0  0  0  0  0  0  0  0  0  0  0
   23.6131  -28.9768  -18.1430 O   0  0  0  0  0  0  0  0  0  0  0  0
   22.8024  -28.2616  -24.3998 O   0  0  0  0  0  0  0  0  0  0  0  0
   29.1649  -30.5937  -16.8607 O   0  0  0  0  0  0  0  0  0  0  0  0
   28.4134  -29.4660  -17.1051 C   0  0  0  0  0  0  0  0  0  0  0  0
   28.4624  -28.8839  -18.3436 C   0  0  0  0  0  0  0  0  0  0  0  0
   27.7208  -27.7550  -18.6161 C   0  0  0  0  0  0  0  0  0  0  0  0
   26.9021  -27.1479  -17.6963 C   0  0  0  0  0  0  0  0  0  0  0  0
   26.0626  -25.9603  -17.9322 C   0  0  0  0  0  0  0  0  0  0  0  0
   24.6571  -26.3531  -18.3761 C   0  0  2  0  0  0  0  0  0  0  0  0
   24.6137  -27.3385  -19.4018 N   0  0  0  0  0  0  0  0  0  0  0  0
   23.7721  -25.1855  -18.5609 C   0  0  0  0  0  0  0  0  0  0  0  0
   23.9634  -24.4063  -19.5497 O   0  0  0  0  0  0  0  0  0  0  0  0
   26.8662  -27.7570  -16.4386 C   0  0  0  0  0  0  0  0  0  0  0  0
   27.6038  -28.8860  -16.1549 C   0  0  0  0  0  0  0  0  0  0  0  0
   21.2801  -18.8064  -20.7063 N   0  0  0  0  0  0  0  0  0  0  0  0
   19.9884  -19.0294  -20.1495 C   0  0  0  0  0  0  0  0  0  0  0  0
   19.1943  -18.0025  -20.0289 N   0  0  0  0  0  0  0  0  0  0  0  0
   19.5727  -20.3279  -19.7346 N   0  0  0  0  0  0  0  0  0  0  0  0
   20.5271  -21.3814  -19.8585 C   0  0  0  0  0  0  0  0  0  0  0  0
   20.0987  -22.7361  -19.4688 C   0  0  0  0  0  0  0  0  0  0  0  0
   21.1017  -23.7780  -19.1864 C   0  0  0  0  0  0  0  0  0  0  0  0
   21.8833  -23.6581  -17.9169 C   0  0  2  0  0  0  0  0  0  0  0  0
   22.7122  -24.8601  -17.7094 N   0  0  0  0  0  0  0  0  0  0  0  0
   21.0903  -23.3716  -16.7087 C   0  0  0  0  0  0  0  0  0  0  0  0
   21.4640  -23.8641  -15.4767 O   0  0  0  0  0  0  0  0  0  0  0  0
   20.0505  -22.6700  -16.7745 O   0  0  0  0  0  0  0  0  0  0  0  0
  2  3  1  0
  2  1  1  1
  4  3  1  0
  5  4  1  0
  5  6  2  0
  7  8  2  0
  7  2  1  0
  9  5  1  0
 10 11  1  0
 11 12  2  0
 12 13  1  0
 14 15  1  0
 14 13  2  0
 16 15  1  6
 16 17  1  0
 17  7  1  0
 18 16  1  0
 19 18  2  0
 20 14  1  0
 21 20  2  0
 21 11  1  0
 23 22  1  0
 24 23  2  0
 25 23  1  0
 26 27  1  0
 26 25  1  0
 27 28  1  0
 29 28  1  6
 29 31  1  0
 29 30  1  0
 30 18  1  0
 31 32  1  0
 33 31  2  0
M  END
$$$$
