EYR.pdb
     RDKit          3D

 33 33  0  0  1  0  0  0  0  0999 V2000
   17.3934  -27.7051   -6.1164 N   0  0  0  0  0  0  0  0  0  0  0  0
   17.8443  -26.6785   -5.2029 C   0  0  1  0  0  0  0  0  0  0  0  0
   16.9396  -25.4928   -5.2870 C   0  0  0  0  0  0  0  0  0  0  0  0
   17.1875  -24.8545   -6.6558 C   0  0  0  0  0  0  0  0  0  0  0  0
   16.0684  -25.0157   -7.5755 C   0  0  0  0  0  0  0  0  0  0  0  0
   16.2338  -25.5692   -8.6799 O   0  0  0  0  0  0  0  0  0  0  0  0
   17.9876  -27.2626   -3.8577 C   0  0  0  0  0  0  0  0  0  0  0  0
   17.1309  -28.0938   -3.3977 O   0  0  0  0  0  0  0  0  0  0  0  0
   14.7884  -24.5628   -7.2491 O   0  0  0  0  0  0  0  0  0  0  0  0
   23.2495  -32.0950   -3.2145 O   0  0  0  0  0  0  0  0  0  0  0  0
   22.6351  -30.9715   -2.7079 C   0  0  0  0  0  0  0  0  0  0  0  0
   22.5024  -29.8646   -3.5031 C   0  0  0  0  0  0  0  0  0  0  0  0
   21.8917  -28.7268   -3.0224 C   0  0  0  0  0  0  0  0  0  0  0  0
   21.3855  -28.6200   -1.7507 C   0  0  0  0  0  0  0  0  0  0  0  0
   20.6967  -27.4461   -1.1867 C   0  0  0  0  0  0  0  0  0  0  0  0
   19.2455  -27.3774   -1.6515 C   0  0  2  0  0  0  0  0  0  0  0  0
   19.0740  -26.9398   -2.9947 N   0  0  0  0  0  0  0  0  0  0  0  0
   18.3561  -26.7571   -0.6490 C   0  0  0  0  0  0  0  0  0  0  0  0
   17.8048  -25.6391   -0.9089 O   0  0  0  0  0  0  0  0  0  0  0  0
   21.5310  -29.7602   -0.9551 C   0  0  0  0  0  0  0  0  0  0  0  0
   22.1402  -30.9034   -1.4253 C   0  0  0  0  0  0  0  0  0  0  0  0
   15.7683  -21.8991    1.5596 N   0  0  0  0  0  0  0  0  0  0  0  0
   14.5207  -22.3830    1.0723 C   0  0  0  0  0  0  0  0  0  0  0  0
   13.8550  -21.6225    0.2489 N   0  0  0  0  0  0  0  0  0  0  0  0
   14.0110  -23.6534    1.4689 N   0  0  0  0  0  0  0  0  0  0  0  0
   14.9394  -24.7360    1.5142 C   0  0  0  0  0  0  0  0  0  0  0  0
   14.7473  -25.8371    0.5544 C   0  0  0  0  0  0  0  0  0  0  0  0
   15.6483  -27.0028    0.5740 C   0  0  0  0  0  0  0  0  0  0  0  0
   16.8962  -26.8974    1.3917 C   0  0  2  0  0  0  0  0  0  0  0  0
   18.0662  -27.3178    0.5983 N   0  0  0  0  0  0  0  0  0  0  0  0
   16.8719  -27.6107    2.6806 C   0  0  0  0  0  0  0  0  0  0  0  0
   16.4925  -26.9725    3.8420 O   0  0  0  0  0  0  0  0  0  0  0  0
   17.1991  -28.8214    2.7507 O   0  0  0  0  0  0  0  0  0  0  0  0
  2  3  1  0
  2  1  1  6
  4  3  1  0
  5  4  1  0
  5  6  2  0
  7  8  2  0
  7  2  1  0
  9  5  1  0
 10 11  1  0
 11 12  2  0
 12 13  1  0
 14 15  1  0
 14 13  2  0
 16 15  1  1
 16 17  1  0
 17  7  1  0
 18 16  1  0
 19 18  2  0
 20 14  1  0
 21 20  2  0
 21 11  1  0
 23 22  1  0
 24 23  2  0
 25 23  1  0
 26 27  1  0
 26 25  1  0
 27 28  1  0
 29 28  1  6
 29 31  1  0
 29 30  1  0
 30 18  1  0
 31 32  1  0
 33 31  2  0
M  END
$$$$
