EYR.pdb
     RDKit          3D

 33 33  0  0  1  0  0  0  0  0999 V2000
   21.9672  -17.9291  -17.8532 N   0  0  0  0  0  0  0  0  0  0  0  0
   22.9096  -18.7456  -17.1205 C   0  0  1  0  0  0  0  0  0  0  0  0
   24.3055  -18.3354  -17.4591 C   0  0  0  0  0  0  0  0  0  0  0  0
   24.5522  -18.7862  -18.9008 C   0  0  0  0  0  0  0  0  0  0  0  0
   25.9661  -18.9325  -19.2226 C   0  0  0  0  0  0  0  0  0  0  0  0
   26.3189  -19.3302  -20.3499 O   0  0  0  0  0  0  0  0  0  0  0  0
   22.5732  -18.6970  -15.6867 C   0  0  0  0  0  0  0  0  0  0  0  0
   22.8729  -17.6834  -14.9662 O   0  0  0  0  0  0  0  0  0  0  0  0
   26.9591  -18.6310  -18.2883 O   0  0  0  0  0  0  0  0  0  0  0  0
   16.6455  -15.9853  -14.6011 O   0  0  0  0  0  0  0  0  0  0  0  0
   17.4997  -17.0130  -14.2689 C   0  0  0  0  0  0  0  0  0  0  0  0
   17.7366  -18.0078  -15.1796 C   0  0  0  0  0  0  0  0  0  0  0  0
   18.5868  -19.0482  -14.8741 C   0  0  0  0  0  0  0  0  0  0  0  0
   19.2406  -19.1626  -13.6723 C   0  0  0  0  0  0  0  0  0  0  0  0
   20.1828  -20.2307  -13.2952 C   0  0  0  0  0  0  0  0  0  0  0  0
   21.6207  -19.8459  -13.6286 C   0  0  2  0  0  0  0  0  0  0  0  0
   21.9042  -19.7639  -15.0207 N   0  0  0  0  0  0  0  0  0  0  0  0
   22.6090  -20.5738  -12.8076 C   0  0  0  0  0  0  0  0  0  0  0  0
   22.8684  -21.7915  -13.0748 O   0  0  0  0  0  0  0  0  0  0  0  0
   18.9854  -18.1376  -12.7567 C   0  0  0  0  0  0  0  0  0  0  0  0
   18.1368  -17.0925  -13.0513 C   0  0  0  0  0  0  0  0  0  0  0  0
   30.8292  -20.6258  -11.6027 N   0  0  0  0  0  0  0  0  0  0  0  0
   30.4708  -21.4838  -10.5241 C   0  0  0  0  0  0  0  0  0  0  0  0
   31.4346  -22.0100   -9.8214 N   0  0  0  0  0  0  0  0  0  0  0  0
   29.1070  -21.7634  -10.2193 N   0  0  0  0  0  0  0  0  0  0  0  0
   28.1200  -21.0838  -10.9939 C   0  0  0  0  0  0  0  0  0  0  0  0
   26.7070  -21.3063  -10.6412 C   0  0  0  0  0  0  0  0  0  0  0  0
   25.6423  -20.5735  -11.3487 C   0  0  0  0  0  0  0  0  0  0  0  0
   24.2330  -20.8027  -10.9034 C   0  0  2  0  0  0  0  0  0  0  0  0
   23.2995  -20.0136  -11.7288 N   0  0  0  0  0  0  0  0  0  0  0  0
   23.9734  -20.5650   -9.4727 C   0  0  0  0  0  0  0  0  0  0  0  0
   23.0041  -19.6753   -9.0618 O   0  0  0  0  0  0  0  0  0  0  0  0
   24.6333  -21.1696   -8.5914 O   0  0  0  0  0  0  0  0  0  0  0  0
  2  3  1  0
  2  1  1  6
  4  3  1  0
  5  4  1  0
  5  6  2  0
  7  8  2  0
  7  2  1  0
  9  5  1  0
 10 11  1  0
 11 12  2  0
 12 13  1  0
 14 15  1  0
 14 13  2  0
 16 15  1  6
 16 17  1  0
 17  7  1  0
 18 16  1  0
 19 18  2  0
 20 14  1  0
 21 20  2  0
 21 11  1  0
 23 22  1  0
 24 23  2  0
 25 23  1  0
 26 27  1  0
 26 25  1  0
 27 28  1  0
 29 28  1  6
 29 31  1  0
 29 30  1  0
 30 18  1  0
 31 32  1  0
 33 31  2  0
M  END
$$$$
