EYR.pdb
     RDKit          3D

 33 33  0  0  1  0  0  0  0  0999 V2000
   28.8310  -21.6892  -16.4885 N   0  0  0  0  0  0  0  0  0  0  0  0
   27.6253  -20.8925  -16.4336 C   0  0  1  0  0  0  0  0  0  0  0  0
   26.9242  -20.9430  -17.7518 C   0  0  0  0  0  0  0  0  0  0  0  0
   27.7738  -20.1240  -18.7263 C   0  0  0  0  0  0  0  0  0  0  0  0
   28.6975  -20.9377  -19.5065 C   0  0  0  0  0  0  0  0  0  0  0  0
   28.2826  -21.6249  -20.4600 O   0  0  0  0  0  0  0  0  0  0  0  0
   26.8181  -21.3228  -15.2783 C   0  0  0  0  0  0  0  0  0  0  0  0
   26.3767  -22.5197  -15.1830 O   0  0  0  0  0  0  0  0  0  0  0  0
   30.0628  -20.9691  -19.2151 O   0  0  0  0  0  0  0  0  0  0  0  0
   31.3510  -21.8165  -10.3981 O   0  0  0  0  0  0  0  0  0  0  0  0
   30.0838  -21.4056  -10.7469 C   0  0  0  0  0  0  0  0  0  0  0  0
   29.0009  -21.9965  -10.1525 C   0  0  0  0  0  0  0  0  0  0  0  0
   27.7215  -21.6051  -10.4821 C   0  0  0  0  0  0  0  0  0  0  0  0
   27.4442  -20.6240  -11.4015 C   0  0  0  0  0  0  0  0  0  0  0  0
   26.1041  -20.1395  -11.7760 C   0  0  0  0  0  0  0  0  0  0  0  0
   25.6445  -20.7447  -13.0986 C   0  0  2  0  0  0  0  0  0  0  0  0
   26.4803  -20.4430  -14.2101 N   0  0  0  0  0  0  0  0  0  0  0  0
   24.1923  -20.5924  -13.3194 C   0  0  0  0  0  0  0  0  0  0  0  0
   23.7264  -19.4552  -13.6526 O   0  0  0  0  0  0  0  0  0  0  0  0
   28.5627  -20.0336  -11.9968 C   0  0  0  0  0  0  0  0  0  0  0  0
   29.8466  -20.4172  -11.6750 C   0  0  0  0  0  0  0  0  0  0  0  0
   17.5839  -26.3283  -14.3743 N   0  0  0  0  0  0  0  0  0  0  0  0
   16.9432  -25.2113  -13.7658 C   0  0  0  0  0  0  0  0  0  0  0  0
   15.7078  -25.3587  -13.3763 N   0  0  0  0  0  0  0  0  0  0  0  0
   17.6231  -23.9716  -13.5878 N   0  0  0  0  0  0  0  0  0  0  0  0
   18.9076  -23.8465  -14.1966 C   0  0  0  0  0  0  0  0  0  0  0  0
   19.6673  -22.6119  -13.9337 C   0  0  0  0  0  0  0  0  0  0  0  0
   21.1225  -22.6707  -13.7102 C   0  0  0  0  0  0  0  0  0  0  0  0
   21.8133  -21.4021  -13.3219 C   0  0  2  0  0  0  0  0  0  0  0  0
   23.2641  -21.6292  -13.1854 N   0  0  0  0  0  0  0  0  0  0  0  0
   21.2866  -20.7362  -12.1178 C   0  0  0  0  0  0  0  0  0  0  0  0
   20.2613  -19.8187  -12.2008 O   0  0  0  0  0  0  0  0  0  0  0  0
   21.7629  -20.9899  -10.9835 O   0  0  0  0  0  0  0  0  0  0  0  0
  2  3  1  0
  2  1  1  6
  4  3  1  0
  5  4  1  0
  5  6  2  0
  7  8  2  0
  7  2  1  0
  9  5  1  0
 10 11  1  0
 11 12  2  0
 12 13  1  0
 14 15  1  0
 14 13  2  0
 16 15  1  1
 16 17  1  0
 17  7  1  0
 18 16  1  0
 19 18  2  0
 20 14  1  0
 21 20  2  0
 21 11  1  0
 23 22  1  0
 24 23  2  0
 25 23  1  0
 26 27  1  0
 26 25  1  0
 27 28  1  0
 29 28  1  1
 29 31  1  0
 29 30  1  0
 30 18  1  0
 31 32  1  0
 33 31  2  0
M  END
$$$$
