EYR.pdb
     RDKit          3D

 33 33  0  0  1  0  0  0  0  0999 V2000
   28.2335  -23.1446  -17.9906 N   0  0  0  0  0  0  0  0  0  0  0  0
   28.1105  -21.8161  -17.4323 C   0  0  1  0  0  0  0  0  0  0  0  0
   27.5731  -20.8803  -18.4652 C   0  0  0  0  0  0  0  0  0  0  0  0
   28.6228  -20.8125  -19.5769 C   0  0  0  0  0  0  0  0  0  0  0  0
   29.6360  -19.7900  -19.3482 C   0  0  0  0  0  0  0  0  0  0  0  0
   30.8403  -20.0383  -19.5516 O   0  0  0  0  0  0  0  0  0  0  0  0
   27.3274  -21.8899  -16.1862 C   0  0  0  0  0  0  0  0  0  0  0  0
   26.2865  -22.6282  -16.0965 O   0  0  0  0  0  0  0  0  0  0  0  0
   29.2914  -18.5123  -18.9022 O   0  0  0  0  0  0  0  0  0  0  0  0
   24.3769  -20.1544   -8.0012 O   0  0  0  0  0  0  0  0  0  0  0  0
   25.1722  -20.2649   -9.1199 C   0  0  0  0  0  0  0  0  0  0  0  0
   25.2777  -19.2000   -9.9743 C   0  0  0  0  0  0  0  0  0  0  0  0
   26.0665  -19.2824  -11.1012 C   0  0  0  0  0  0  0  0  0  0  0  0
   26.7840  -20.4023  -11.4416 C   0  0  0  0  0  0  0  0  0  0  0  0
   27.6668  -20.5445  -12.6126 C   0  0  0  0  0  0  0  0  0  0  0  0
   26.8921  -21.0202  -13.8375 C   0  0  2  0  0  0  0  0  0  0  0  0
   27.6742  -21.1506  -15.0191 N   0  0  0  0  0  0  0  0  0  0  0  0
   25.5943  -20.3327  -13.9918 C   0  0  0  0  0  0  0  0  0  0  0  0
   25.5098  -19.3222  -14.7619 O   0  0  0  0  0  0  0  0  0  0  0  0
   26.6628  -21.4779  -10.5570 C   0  0  0  0  0  0  0  0  0  0  0  0
   25.8767  -21.4067   -9.4273 C   0  0  0  0  0  0  0  0  0  0  0  0
   19.1919  -23.0449  -17.2238 N   0  0  0  0  0  0  0  0  0  0  0  0
   19.0886  -21.7769  -17.8639 C   0  0  0  0  0  0  0  0  0  0  0  0
   17.9374  -21.4507  -18.3815 N   0  0  0  0  0  0  0  0  0  0  0  0
   20.2023  -20.8911  -17.9409 N   0  0  0  0  0  0  0  0  0  0  0  0
   21.3917  -21.2887  -17.2602 C   0  0  0  0  0  0  0  0  0  0  0  0
   21.6291  -20.7245  -15.9201 C   0  0  0  0  0  0  0  0  0  0  0  0
   22.9417  -20.8853  -15.2702 C   0  0  0  0  0  0  0  0  0  0  0  0
   23.0847  -20.3819  -13.8691 C   0  0  2  0  0  0  0  0  0  0  0  0
   24.4194  -20.7157  -13.3379 N   0  0  0  0  0  0  0  0  0  0  0  0
   22.0384  -20.8189  -12.9284 C   0  0  0  0  0  0  0  0  0  0  0  0
   21.0122  -19.9753  -12.5606 O   0  0  0  0  0  0  0  0  0  0  0  0
   22.0586  -21.9748  -12.4372 O   0  0  0  0  0  0  0  0  0  0  0  0
  2  3  1  0
  2  1  1  6
  4  3  1  0
  5  4  1  0
  5  6  2  0
  7  8  2  0
  7  2  1  0
  9  5  1  0
 10 11  1  0
 11 12  2  0
 12 13  1  0
 14 15  1  0
 14 13  2  0
 16 15  1  1
 16 17  1  0
 17  7  1  0
 18 16  1  0
 19 18  2  0
 20 14  1  0
 21 20  2  0
 21 11  1  0
 23 22  1  0
 24 23  2  0
 25 23  1  0
 26 27  1  0
 26 25  1  0
 27 28  1  0
 29 28  1  6
 29 31  1  0
 29 30  1  0
 30 18  1  0
 31 32  1  0
 33 31  2  0
M  END
$$$$
