EYR.pdb
     RDKit          3D

 33 33  0  0  1  0  0  0  0  0999 V2000
   27.9038  -22.7064  -17.5717 N   0  0  0  0  0  0  0  0  0  0  0  0
   27.5078  -21.4145  -17.0562 C   0  0  1  0  0  0  0  0  0  0  0  0
   26.7017  -20.6856  -18.0812 C   0  0  0  0  0  0  0  0  0  0  0  0
   27.6997  -20.1099  -19.0885 C   0  0  0  0  0  0  0  0  0  0  0  0
   27.2655  -18.8450  -19.6680 C   0  0  0  0  0  0  0  0  0  0  0  0
   26.0659  -18.5095  -19.6242 O   0  0  0  0  0  0  0  0  0  0  0  0
   26.8440  -21.6005  -15.7539 C   0  0  0  0  0  0  0  0  0  0  0  0
   25.8344  -22.3756  -15.6256 O   0  0  0  0  0  0  0  0  0  0  0  0
   28.1718  -17.9770  -20.2805 O   0  0  0  0  0  0  0  0  0  0  0  0
   24.5051  -20.3912   -7.2947 O   0  0  0  0  0  0  0  0  0  0  0  0
   25.2115  -20.4059   -8.4766 C   0  0  0  0  0  0  0  0  0  0  0  0
   25.4482  -19.2261   -9.1301 C   0  0  0  0  0  0  0  0  0  0  0  0
   26.1525  -19.2111  -10.3143 C   0  0  0  0  0  0  0  0  0  0  0  0
   26.6549  -20.3415  -10.9097 C   0  0  0  0  0  0  0  0  0  0  0  0
   27.4395  -20.3905  -12.1558 C   0  0  0  0  0  0  0  0  0  0  0  0
   26.6005  -20.9071  -13.3203 C   0  0  2  0  0  0  0  0  0  0  0  0
   27.2776  -20.9347  -14.5716 N   0  0  0  0  0  0  0  0  0  0  0  0
   25.2366  -20.3412  -13.3335 C   0  0  0  0  0  0  0  0  0  0  0  0
   25.0404  -19.1946  -13.8513 O   0  0  0  0  0  0  0  0  0  0  0  0
   26.4025  -21.5352  -10.2274 C   0  0  0  0  0  0  0  0  0  0  0  0
   25.6991  -21.5621   -9.0425 C   0  0  0  0  0  0  0  0  0  0  0  0
   20.2799  -18.8580  -18.8878 N   0  0  0  0  0  0  0  0  0  0  0  0
   20.9529  -17.7665  -18.2683 C   0  0  0  0  0  0  0  0  0  0  0  0
   21.1044  -16.6740  -18.9633 N   0  0  0  0  0  0  0  0  0  0  0  0
   21.4480  -17.8596  -16.9352 N   0  0  0  0  0  0  0  0  0  0  0  0
   21.2200  -19.0882  -16.2462 C   0  0  0  0  0  0  0  0  0  0  0  0
   21.6636  -19.1739  -14.8439 C   0  0  0  0  0  0  0  0  0  0  0  0
   22.3185  -20.3968  -14.3473 C   0  0  0  0  0  0  0  0  0  0  0  0
   22.7591  -20.4124  -12.9181 C   0  0  2  0  0  0  0  0  0  0  0  0
   24.1136  -20.9848  -12.8051 N   0  0  0  0  0  0  0  0  0  0  0  0
   21.8429  -21.0831  -11.9793 C   0  0  0  0  0  0  0  0  0  0  0  0
   20.8077  -20.3978  -11.3804 O   0  0  0  0  0  0  0  0  0  0  0  0
   21.9857  -22.2998  -11.7015 O   0  0  0  0  0  0  0  0  0  0  0  0
  2  3  1  0
  2  1  1  6
  4  3  1  0
  5  4  1  0
  5  6  2  0
  7  8  2  0
  7  2  1  0
  9  5  1  0
 10 11  1  0
 11 12  2  0
 12 13  1  0
 14 15  1  0
 14 13  2  0
 16 15  1  1
 16 17  1  0
 17  7  1  0
 18 16  1  0
 19 18  2  0
 20 14  1  0
 21 20  2  0
 21 11  1  0
 23 22  1  0
 24 23  2  0
 25 23  1  0
 26 27  1  0
 26 25  1  0
 27 28  1  0
 29 28  1  6
 29 31  1  0
 29 30  1  0
 30 18  1  0
 31 32  1  0
 33 31  2  0
M  END
$$$$
