EYR.pdb
     RDKit          3D

 33 33  0  0  1  0  0  0  0  0999 V2000
   28.3198  -20.9550  -16.3744 N   0  0  0  0  0  0  0  0  0  0  0  0
   27.1003  -21.6334  -16.7540 C   0  0  1  0  0  0  0  0  0  0  0  0
   27.4207  -22.9931  -17.2831 C   0  0  0  0  0  0  0  0  0  0  0  0
   28.2983  -22.7816  -18.5191 C   0  0  0  0  0  0  0  0  0  0  0  0
   28.5609  -24.0123  -19.2542 C   0  0  0  0  0  0  0  0  0  0  0  0
   29.5767  -24.1160  -19.9690 O   0  0  0  0  0  0  0  0  0  0  0  0
   26.1636  -21.6090  -15.6167 C   0  0  0  0  0  0  0  0  0  0  0  0
   25.8657  -22.6755  -14.9761 O   0  0  0  0  0  0  0  0  0  0  0  0
   27.6930  -25.1036  -19.1781 O   0  0  0  0  0  0  0  0  0  0  0  0
   29.8579  -21.4780  -10.6237 O   0  0  0  0  0  0  0  0  0  0  0  0
   28.7009  -20.9722  -11.1729 C   0  0  0  0  0  0  0  0  0  0  0  0
   28.7849  -20.0956  -12.2215 C   0  0  0  0  0  0  0  0  0  0  0  0
   27.6435  -19.5740  -12.7907 C   0  0  0  0  0  0  0  0  0  0  0  0
   26.3761  -19.8840  -12.3637 C   0  0  0  0  0  0  0  0  0  0  0  0
   25.1179  -19.3856  -12.9464 C   0  0  0  0  0  0  0  0  0  0  0  0
   24.6323  -20.2897  -14.0750 C   0  0  2  0  0  0  0  0  0  0  0  0
   25.5366  -20.4116  -15.1669 N   0  0  0  0  0  0  0  0  0  0  0  0
   23.2186  -20.0491  -14.4278 C   0  0  0  0  0  0  0  0  0  0  0  0
   22.9134  -19.0290  -15.1262 O   0  0  0  0  0  0  0  0  0  0  0  0
   26.3119  -20.7799  -11.2926 C   0  0  0  0  0  0  0  0  0  0  0  0
   27.4467  -21.3076  -10.7156 C   0  0  0  0  0  0  0  0  0  0  0  0
   19.5045  -26.6549  -12.6391 N   0  0  0  0  0  0  0  0  0  0  0  0
   19.2306  -25.3767  -12.0741 C   0  0  0  0  0  0  0  0  0  0  0  0
   18.5577  -25.3382  -10.9582 N   0  0  0  0  0  0  0  0  0  0  0  0
   19.6727  -24.1767  -12.7031 N   0  0  0  0  0  0  0  0  0  0  0  0
   20.2286  -24.3006  -14.0114 C   0  0  0  0  0  0  0  0  0  0  0  0
   20.6414  -23.0624  -14.6949 C   0  0  0  0  0  0  0  0  0  0  0  0
   19.9352  -21.7972  -14.4268 C   0  0  0  0  0  0  0  0  0  0  0  0
   20.7570  -20.5496  -14.3549 C   0  0  2  0  0  0  0  0  0  0  0  0
   22.1605  -20.8772  -14.0419 N   0  0  0  0  0  0  0  0  0  0  0  0
   20.2581  -19.5139  -13.4335 C   0  0  0  0  0  0  0  0  0  0  0  0
   19.4582  -18.4850  -13.8824 O   0  0  0  0  0  0  0  0  0  0  0  0
   20.5527  -19.5446  -12.2128 O   0  0  0  0  0  0  0  0  0  0  0  0
  2  3  1  0
  2  1  1  1
  4  3  1  0
  5  4  1  0
  5  6  2  0
  7  8  2  0
  7  2  1  0
  9  5  1  0
 10 11  1  0
 11 12  2  0
 12 13  1  0
 14 15  1  0
 14 13  2  0
 16 15  1  1
 16 17  1  0
 17  7  1  0
 18 16  1  0
 19 18  2  0
 20 14  1  0
 21 20  2  0
 21 11  1  0
 23 22  1  0
 24 23  2  0
 25 23  1  0
 26 27  1  0
 26 25  1  0
 27 28  1  0
 29 28  1  1
 29 31  1  0
 29 30  1  0
 30 18  1  0
 31 32  1  0
 33 31  2  0
M  END
$$$$
