EYR.pdb
     RDKit          3D

 33 33  0  0  1  0  0  0  0  0999 V2000
   24.8218  -19.6916  -16.6118 N   0  0  0  0  0  0  0  0  0  0  0  0
   24.8180  -18.8570  -15.4308 C   0  0  1  0  0  0  0  0  0  0  0  0
   25.2183  -17.4642  -15.7935 C   0  0  0  0  0  0  0  0  0  0  0  0
   26.6428  -17.5525  -16.3460 C   0  0  0  0  0  0  0  0  0  0  0  0
   26.7719  -17.0062  -17.6910 C   0  0  0  0  0  0  0  0  0  0  0  0
   27.8774  -17.0009  -18.2666 O   0  0  0  0  0  0  0  0  0  0  0  0
   23.5109  -18.9785  -14.7615 C   0  0  0  0  0  0  0  0  0  0  0  0
   23.2722  -18.3853  -13.6534 O   0  0  0  0  0  0  0  0  0  0  0  0
   25.6711  -16.4805  -18.3706 O   0  0  0  0  0  0  0  0  0  0  0  0
   20.3080  -13.6251  -16.0605 O   0  0  0  0  0  0  0  0  0  0  0  0
   20.2567  -14.9985  -15.9758 C   0  0  0  0  0  0  0  0  0  0  0  0
   19.6032  -15.5806  -14.9226 C   0  0  0  0  0  0  0  0  0  0  0  0
   19.5360  -16.9524  -14.8126 C   0  0  0  0  0  0  0  0  0  0  0  0
   20.1003  -17.8124  -15.7218 C   0  0  0  0  0  0  0  0  0  0  0  0
   20.0391  -19.2839  -15.6783 C   0  0  0  0  0  0  0  0  0  0  0  0
   21.1259  -19.8584  -14.7751 C   0  0  2  0  0  0  0  0  0  0  0  0
   22.4454  -19.7569  -15.2981 N   0  0  0  0  0  0  0  0  0  0  0  0
   20.7549  -21.1675  -14.2011 C   0  0  0  0  0  0  0  0  0  0  0  0
   20.9056  -22.2215  -14.8994 O   0  0  0  0  0  0  0  0  0  0  0  0
   20.7627  -17.1988  -16.7890 C   0  0  0  0  0  0  0  0  0  0  0  0
   20.8364  -15.8279  -16.9089 C   0  0  0  0  0  0  0  0  0  0  0  0
   16.9916  -26.0321   -8.2567 N   0  0  0  0  0  0  0  0  0  0  0  0
   17.8741  -25.0693   -7.6890 C   0  0  0  0  0  0  0  0  0  0  0  0
   18.0851  -25.1233   -6.4037 N   0  0  0  0  0  0  0  0  0  0  0  0
   18.5066  -24.0768   -8.4928 N   0  0  0  0  0  0  0  0  0  0  0  0
   17.7486  -23.5467   -9.5793 C   0  0  0  0  0  0  0  0  0  0  0  0
   18.3610  -22.4669  -10.3727 C   0  0  0  0  0  0  0  0  0  0  0  0
   19.7285  -22.6187  -10.8998 C   0  0  0  0  0  0  0  0  0  0  0  0
   19.8935  -22.6761  -12.3853 C   0  0  2  0  0  0  0  0  0  0  0  0
   20.2353  -21.3429  -12.9152 N   0  0  0  0  0  0  0  0  0  0  0  0
   18.7546  -23.2428  -13.1284 C   0  0  0  0  0  0  0  0  0  0  0  0
   17.7133  -22.4463  -13.5542 O   0  0  0  0  0  0  0  0  0  0  0  0
   18.7060  -24.4702  -13.3908 O   0  0  0  0  0  0  0  0  0  0  0  0
  2  3  1  0
  2  1  1  6
  4  3  1  0
  5  4  1  0
  5  6  2  0
  7  8  2  0
  7  2  1  0
  9  5  1  0
 10 11  1  0
 11 12  2  0
 12 13  1  0
 14 15  1  0
 14 13  2  0
 16 15  1  6
 16 17  1  0
 17  7  1  0
 18 16  1  0
 19 18  2  0
 20 14  1  0
 21 20  2  0
 21 11  1  0
 23 22  1  0
 24 23  2  0
 25 23  1  0
 26 27  1  0
 26 25  1  0
 27 28  1  0
 29 28  1  1
 29 31  1  0
 29 30  1  0
 30 18  1  0
 31 32  1  0
 33 31  2  0
M  END
$$$$
