EYR.pdb
     RDKit          3D

 33 33  0  0  1  0  0  0  0  0999 V2000
   23.9886  -11.7327  -15.8384 N   0  0  0  0  0  0  0  0  0  0  0  0
   22.7971  -11.1160  -16.3782 C   0  0  1  0  0  0  0  0  0  0  0  0
   21.6958  -12.1224  -16.4544 C   0  0  0  0  0  0  0  0  0  0  0  0
   21.8577  -12.8416  -17.7957 C   0  0  0  0  0  0  0  0  0  0  0  0
   20.8391  -13.8575  -18.0290 C   0  0  0  0  0  0  0  0  0  0  0  0
   20.1836  -13.8622  -19.0891 O   0  0  0  0  0  0  0  0  0  0  0  0
   22.4866   -9.9062  -15.5962 C   0  0  0  0  0  0  0  0  0  0  0  0
   22.0797   -9.9818  -14.3858 O   0  0  0  0  0  0  0  0  0  0  0  0
   20.5717  -14.8493  -17.0830 O   0  0  0  0  0  0  0  0  0  0  0  0
   20.6727   -1.3720  -13.9810 O   0  0  0  0  0  0  0  0  0  0  0  0
   21.2580   -2.5291  -14.4446 C   0  0  0  0  0  0  0  0  0  0  0  0
   21.8366   -3.3911  -13.5518 C   0  0  0  0  0  0  0  0  0  0  0  0
   22.4292   -4.5562  -13.9876 C   0  0  0  0  0  0  0  0  0  0  0  0
   22.4823   -4.9298  -15.3076 C   0  0  0  0  0  0  0  0  0  0  0  0
   23.0727   -6.1725  -15.8348 C   0  0  0  0  0  0  0  0  0  0  0  0
   22.2000   -7.3816  -15.5137 C   0  0  2  0  0  0  0  0  0  0  0  0
   22.6157   -8.5933  -16.1335 N   0  0  0  0  0  0  0  0  0  0  0  0
   20.7569   -7.0772  -15.5884 C   0  0  0  0  0  0  0  0  0  0  0  0
   20.1491   -7.1987  -16.7007 O   0  0  0  0  0  0  0  0  0  0  0  0
   21.8864   -4.0366  -16.2028 C   0  0  0  0  0  0  0  0  0  0  0  0
   21.2911   -2.8685  -15.7782 C   0  0  0  0  0  0  0  0  0  0  0  0
   14.1345  -10.3849  -11.4449 N   0  0  0  0  0  0  0  0  0  0  0  0
   13.5107   -9.6821  -12.5151 C   0  0  0  0  0  0  0  0  0  0  0  0
   12.2774   -9.9893  -12.8052 N   0  0  0  0  0  0  0  0  0  0  0  0
   14.2062   -8.6778  -13.2490 N   0  0  0  0  0  0  0  0  0  0  0  0
   15.6317   -8.7384  -13.2348 C   0  0  0  0  0  0  0  0  0  0  0  0
   16.3656   -7.6383  -13.8841 C   0  0  0  0  0  0  0  0  0  0  0  0
   17.8383   -7.6554  -13.9300 C   0  0  0  0  0  0  0  0  0  0  0  0
   18.5218   -6.5024  -14.5937 C   0  0  2  0  0  0  0  0  0  0  0  0
   19.9861   -6.6525  -14.5022 N   0  0  0  0  0  0  0  0  0  0  0  0
   18.1162   -5.1672  -14.1211 C   0  0  0  0  0  0  0  0  0  0  0  0
   18.9564   -4.4005  -13.3424 O   0  0  0  0  0  0  0  0  0  0  0  0
   16.9903   -4.6959  -14.4172 O   0  0  0  0  0  0  0  0  0  0  0  0
  2  3  1  0
  2  1  1  1
  4  3  1  0
  5  4  1  0
  5  6  2  0
  7  8  2  0
  7  2  1  0
  9  5  1  0
 10 11  1  0
 11 12  2  0
 12 13  1  0
 14 15  1  0
 14 13  2  0
 16 15  1  6
 16 17  1  0
 17  7  1  0
 18 16  1  0
 19 18  2  0
 20 14  1  0
 21 20  2  0
 21 11  1  0
 23 22  1  0
 24 23  2  0
 25 23  1  0
 26 27  1  0
 26 25  1  0
 27 28  1  0
 29 28  1  1
 29 31  1  0
 29 30  1  0
 30 18  1  0
 31 32  1  0
 33 31  2  0
M  END
$$$$
