ETH.pdb
     RDKit          3D

 27 27  0  0  1  0  0  0  0  0999 V2000
    8.5386  -17.4134   15.8820 N   0  0  0  0  0  0  0  0  0  0  0  0
    9.9317  -17.0779   16.0592 C   0  0  1  0  0  0  0  0  0  0  0  0
   10.5576  -16.5146   14.8137 C   0  0  0  0  0  0  0  0  0  0  0  0
    9.9613  -16.9339   13.5289 C   0  0  0  0  0  0  0  0  0  0  0  0
   10.5561  -16.2290   12.3860 C   0  0  0  0  0  0  0  0  0  0  0  0
    9.8572  -15.7164   11.4954 O   0  0  0  0  0  0  0  0  0  0  0  0
   10.0308  -16.0365   17.1003 C   0  0  0  0  0  0  0  0  0  0  0  0
   11.1218  -15.4721   17.3125 O   0  0  0  0  0  0  0  0  0  0  0  0
   11.9477  -16.1468   12.3222 O   0  0  0  0  0  0  0  0  0  0  0  0
    8.0323  -13.0311   20.3307 C   0  0  0  0  0  0  0  0  0  0  0  0
    7.8340  -13.9050   19.1221 C   0  0  1  0  0  0  0  0  0  0  0  0
    7.7498  -13.1310   17.9675 O   0  0  0  0  0  0  0  0  0  0  0  0
    9.0587  -14.7797   18.9836 C   0  0  2  0  0  0  0  0  0  0  0  0
    8.8968  -15.6797   17.8538 N   0  0  0  0  0  0  0  0  0  0  0  0
    9.2536  -15.6429   20.2003 C   0  0  0  0  0  0  0  0  0  0  0  0
    8.5243  -16.6438   20.4334 O   0  0  0  0  0  0  0  0  0  0  0  0
   10.2722  -15.3583   21.1341 N   0  0  0  0  0  0  0  0  0  0  0  0
   10.4494  -16.1181   22.3647 C   0  0  1  0  0  0  0  0  0  0  0  0
   11.9043  -16.4147   22.5545 C   0  0  0  0  0  0  0  0  0  0  0  0
   12.3190  -17.5601   21.7536 C   0  0  0  0  0  0  0  0  0  0  0  0
   11.4425  -18.3183   20.9813 C   0  0  0  0  0  0  0  0  0  0  0  0
   12.1678  -19.2817   20.3861 N   0  0  0  0  0  0  0  0  0  0  0  0
   13.4516  -19.1351   20.7696 C   0  0  0  0  0  0  0  0  0  0  0  0
   13.5220  -18.0910   21.5945 N   0  0  0  0  0  0  0  0  0  0  0  0
    9.8926  -15.3968   23.5233 C   0  0  0  0  0  0  0  0  0  0  0  0
    9.8721  -16.0155   24.7555 O   0  0  0  0  0  0  0  0  0  0  0  0
    9.4187  -14.2185   23.4584 O   0  0  0  0  0  0  0  0  0  0  0  0
  2  1  1  6
  2  3  1  0
  4  5  1  0
  4  3  1  0
  5  6  2  0
  7 14  1  0
  7  2  1  0
  8  7  2  0
  9  5  1  0
 11 10  1  1
 11 12  1  0
 13 14  1  6
 13 11  1  0
 15 13  1  0
 16 15  2  0
 17 15  1  0
 18 19  1  1
 18 17  1  0
 19 20  1  0
 20 21  2  0
 21 22  1  0
 23 22  1  0
 24 20  1  0
 24 23  2  0
 25 26  1  0
 25 18  1  0
 27 25  2  0
M  END
$$$$
