ETH.pdb
     RDKit          3D

 27 27  0  0  1  0  0  0  0  0999 V2000
    9.3107  -16.0455   15.8319 N   0  0  0  0  0  0  0  0  0  0  0  0
    9.2059  -16.6952   17.1171 C   0  0  1  0  0  0  0  0  0  0  0  0
   10.2577  -17.7494   17.3237 C   0  0  0  0  0  0  0  0  0  0  0  0
   11.6365  -17.3900   16.9343 C   0  0  0  0  0  0  0  0  0  0  0  0
   12.5694  -18.5121   17.1006 C   0  0  0  0  0  0  0  0  0  0  0  0
   13.5792  -18.4247   17.8196 O   0  0  0  0  0  0  0  0  0  0  0  0
    9.4016  -15.6790   18.1695 C   0  0  0  0  0  0  0  0  0  0  0  0
   10.2160  -14.7519   17.9939 O   0  0  0  0  0  0  0  0  0  0  0  0
   12.2908  -19.6987   16.4210 O   0  0  0  0  0  0  0  0  0  0  0  0
    7.4738  -13.1042   19.0277 C   0  0  0  0  0  0  0  0  0  0  0  0
    7.5332  -13.8423   20.3374 C   0  0  1  0  0  0  0  0  0  0  0  0
    6.4597  -14.7219   20.4520 O   0  0  0  0  0  0  0  0  0  0  0  0
    8.7939  -14.6758   20.3365 C   0  0  2  0  0  0  0  0  0  0  0  0
    8.6712  -15.7547   19.3702 N   0  0  0  0  0  0  0  0  0  0  0  0
    9.0241  -15.3191   21.6768 C   0  0  0  0  0  0  0  0  0  0  0  0
    8.6143  -16.4815   21.9395 O   0  0  0  0  0  0  0  0  0  0  0  0
    9.7154  -14.6350   22.6989 N   0  0  0  0  0  0  0  0  0  0  0  0
    9.1329  -14.3765   24.0092 C   0  0  1  0  0  0  0  0  0  0  0  0
    7.8596  -13.6081   23.8386 C   0  0  0  0  0  0  0  0  0  0  0  0
    7.3106  -13.2024   25.1267 C   0  0  0  0  0  0  0  0  0  0  0  0
    7.9571  -13.4156   26.3417 C   0  0  0  0  0  0  0  0  0  0  0  0
    7.1652  -12.9161   27.3070 N   0  0  0  0  0  0  0  0  0  0  0  0
    6.0626  -12.4080   26.7215 C   0  0  0  0  0  0  0  0  0  0  0  0
    6.1694  -12.5906   25.4059 N   0  0  0  0  0  0  0  0  0  0  0  0
    8.9085  -15.6301   24.7513 C   0  0  0  0  0  0  0  0  0  0  0  0
    9.4859  -15.7902   25.9933 O   0  0  0  0  0  0  0  0  0  0  0  0
    8.2047  -16.5934   24.3108 O   0  0  0  0  0  0  0  0  0  0  0  0
  2  1  1  6
  2  3  1  0
  4  5  1  0
  4  3  1  0
  5  6  2  0
  7 14  1  0
  7  2  1  0
  8  7  2  0
  9  5  1  0
 11 10  1  6
 11 12  1  0
 13 14  1  6
 13 11  1  0
 15 13  1  0
 16 15  2  0
 17 15  1  0
 18 19  1  6
 18 17  1  0
 19 20  1  0
 20 21  2  0
 21 22  1  0
 23 22  1  0
 24 20  1  0
 24 23  2  0
 25 26  1  0
 25 18  1  0
 27 25  2  0
M  END
$$$$
