ETH.pdb
     RDKit          3D

 27 27  0  0  1  0  0  0  0  0999 V2000
   11.2037  -16.5303   17.6732 N   0  0  0  0  0  0  0  0  0  0  0  0
   10.6104  -17.2590   18.7695 C   0  0  1  0  0  0  0  0  0  0  0  0
   11.5294  -18.3039   19.3387 C   0  0  0  0  0  0  0  0  0  0  0  0
   12.8537  -17.8374   19.7977 C   0  0  0  0  0  0  0  0  0  0  0  0
   13.6702  -18.9323   20.3376 C   0  0  0  0  0  0  0  0  0  0  0  0
   14.7388  -19.2778   19.8055 O   0  0  0  0  0  0  0  0  0  0  0  0
   10.3159  -16.3055   19.8568 C   0  0  0  0  0  0  0  0  0  0  0  0
   11.2169  -15.5623   20.2922 O   0  0  0  0  0  0  0  0  0  0  0  0
   13.2106  -19.5866   21.4813 O   0  0  0  0  0  0  0  0  0  0  0  0
    7.3151  -13.9400   19.8925 C   0  0  0  0  0  0  0  0  0  0  0  0
    7.3361  -14.6807   21.2018 C   0  0  1  0  0  0  0  0  0  0  0  0
    6.4783  -15.7768   21.1574 O   0  0  0  0  0  0  0  0  0  0  0  0
    8.7347  -15.2174   21.4019 C   0  0  2  0  0  0  0  0  0  0  0  0
    9.0206  -16.2337   20.4028 N   0  0  0  0  0  0  0  0  0  0  0  0
    8.8788  -15.8786   22.7456 C   0  0  0  0  0  0  0  0  0  0  0  0
    9.8486  -16.6360   23.0171 O   0  0  0  0  0  0  0  0  0  0  0  0
    7.9213  -15.6711   23.7609 N   0  0  0  0  0  0  0  0  0  0  0  0
    8.2568  -15.6941   25.1786 C   0  0  1  0  0  0  0  0  0  0  0  0
    9.2528  -14.6142   25.4660 C   0  0  0  0  0  0  0  0  0  0  0  0
    9.6472  -14.6189   26.8694 C   0  0  0  0  0  0  0  0  0  0  0  0
    9.2247  -15.5791   27.7855 C   0  0  0  0  0  0  0  0  0  0  0  0
    9.7806  -15.2706   28.9705 N   0  0  0  0  0  0  0  0  0  0  0  0
   10.5244  -14.1586   28.8060 C   0  0  0  0  0  0  0  0  0  0  0  0
   10.4308  -13.7811   27.5316 N   0  0  0  0  0  0  0  0  0  0  0  0
    7.0520  -15.5503   26.0155 C   0  0  0  0  0  0  0  0  0  0  0  0
    7.0044  -16.1802   27.2414 O   0  0  0  0  0  0  0  0  0  0  0  0
    6.0328  -14.8714   25.6727 O   0  0  0  0  0  0  0  0  0  0  0  0
  2  1  1  6
  2  3  1  0
  4  5  1  0
  4  3  1  0
  5  6  2  0
  7 14  1  0
  7  2  1  0
  8  7  2  0
  9  5  1  0
 11 10  1  6
 11 12  1  0
 13 14  1  6
 13 11  1  0
 15 13  1  0
 16 15  2  0
 17 15  1  0
 18 19  1  6
 18 17  1  0
 19 20  1  0
 20 21  2  0
 21 22  1  0
 23 22  1  0
 24 20  1  0
 24 23  2  0
 25 26  1  0
 25 18  1  0
 27 25  2  0
M  END
$$$$
