ETH.pdb
     RDKit          3D

 27 27  0  0  1  0  0  0  0  0999 V2000
   10.7627  -17.5820   17.8209 N   0  0  0  0  0  0  0  0  0  0  0  0
    9.4375  -17.2783   18.3072 C   0  0  1  0  0  0  0  0  0  0  0  0
    8.6527  -18.5096   18.6653 C   0  0  0  0  0  0  0  0  0  0  0  0
    9.4232  -19.7603   18.8206 C   0  0  0  0  0  0  0  0  0  0  0  0
    8.8972  -20.8431   17.9793 C   0  0  0  0  0  0  0  0  0  0  0  0
    7.6780  -20.9972   17.7946 O   0  0  0  0  0  0  0  0  0  0  0  0
    9.5665  -16.4759   19.5393 C   0  0  0  0  0  0  0  0  0  0  0  0
   10.6441  -16.4685   20.1657 O   0  0  0  0  0  0  0  0  0  0  0  0
    9.8138  -21.7093   17.3817 O   0  0  0  0  0  0  0  0  0  0  0  0
    7.7235  -13.1039   22.5554 C   0  0  0  0  0  0  0  0  0  0  0  0
    7.5206  -13.8962   21.2927 C   0  0  1  0  0  0  0  0  0  0  0  0
    7.6058  -13.0677   20.1765 O   0  0  0  0  0  0  0  0  0  0  0  0
    8.6499  -14.8956   21.1927 C   0  0  2  0  0  0  0  0  0  0  0  0
    8.4760  -15.7197   20.0080 N   0  0  0  0  0  0  0  0  0  0  0  0
    8.6586  -15.8295   22.3722 C   0  0  0  0  0  0  0  0  0  0  0  0
    8.4155  -17.0602   22.2521 O   0  0  0  0  0  0  0  0  0  0  0  0
    8.9425  -15.3541   23.6699 N   0  0  0  0  0  0  0  0  0  0  0  0
    9.6538  -16.1481   24.6632 C   0  0  1  0  0  0  0  0  0  0  0  0
   11.0035  -16.5116   24.1278 C   0  0  0  0  0  0  0  0  0  0  0  0
   11.0394  -17.8995   23.6831 C   0  0  0  0  0  0  0  0  0  0  0  0
    9.9379  -18.7507   23.7242 C   0  0  0  0  0  0  0  0  0  0  0  0
   10.3358  -19.9404   23.2398 N   0  0  0  0  0  0  0  0  0  0  0  0
   11.6381  -19.8413   22.9067 C   0  0  0  0  0  0  0  0  0  0  0  0
   12.0440  -18.6023   23.1819 N   0  0  0  0  0  0  0  0  0  0  0  0
    9.7603  -15.4295   25.9457 C   0  0  0  0  0  0  0  0  0  0  0  0
    9.8371  -16.1515   27.1181 O   0  0  0  0  0  0  0  0  0  0  0  0
    9.7844  -14.1617   26.0432 O   0  0  0  0  0  0  0  0  0  0  0  0
  2  1  1  1
  2  3  1  0
  4  5  1  0
  4  3  1  0
  5  6  2  0
  7 14  1  0
  7  2  1  0
  8  7  2  0
  9  5  1  0
 11 10  1  1
 11 12  1  0
 13 14  1  6
 13 11  1  0
 15 13  1  0
 16 15  2  0
 17 15  1  0
 18 19  1  6
 18 17  1  0
 19 20  1  0
 20 21  2  0
 21 22  1  0
 23 22  1  0
 24 20  1  0
 24 23  2  0
 25 26  1  0
 25 18  1  0
 27 25  2  0
M  END
$$$$
