ETH.pdb
     RDKit          3D

 27 27  0  0  1  0  0  0  0  0999 V2000
   13.9529  -14.1138   16.5582 N   0  0  0  0  0  0  0  0  0  0  0  0
   12.7008  -14.8270   16.6507 C   0  0  1  0  0  0  0  0  0  0  0  0
   12.8844  -16.3169   16.7327 C   0  0  0  0  0  0  0  0  0  0  0  0
   14.2689  -16.8178   16.6133 C   0  0  0  0  0  0  0  0  0  0  0  0
   14.3300  -18.2852   16.6257 C   0  0  0  0  0  0  0  0  0  0  0  0
   15.3381  -18.8966   17.0186 O   0  0  0  0  0  0  0  0  0  0  0  0
   12.0172  -14.4080   17.8898 C   0  0  0  0  0  0  0  0  0  0  0  0
   12.6844  -13.9931   18.8575 O   0  0  0  0  0  0  0  0  0  0  0  0
   13.2109  -18.9889   16.1785 O   0  0  0  0  0  0  0  0  0  0  0  0
    7.9244  -13.3161   20.2838 C   0  0  0  0  0  0  0  0  0  0  0  0
    8.5083  -13.8192   18.9917 C   0  0  1  0  0  0  0  0  0  0  0  0
    8.4379  -12.8362   18.0077 O   0  0  0  0  0  0  0  0  0  0  0  0
    9.9728  -14.1051   19.2316 C   0  0  2  0  0  0  0  0  0  0  0  0
   10.6143  -14.4761   17.9811 N   0  0  0  0  0  0  0  0  0  0  0  0
   10.1558  -15.2646   20.1727 C   0  0  0  0  0  0  0  0  0  0  0  0
   10.0585  -16.4603   19.7868 O   0  0  0  0  0  0  0  0  0  0  0  0
   10.4461  -15.0509   21.5367 N   0  0  0  0  0  0  0  0  0  0  0  0
   10.5368  -16.1370   22.5038 C   0  0  1  0  0  0  0  0  0  0  0  0
   10.9286  -15.5780   23.8360 C   0  0  0  0  0  0  0  0  0  0  0  0
   11.1023  -16.6367   24.8230 C   0  0  0  0  0  0  0  0  0  0  0  0
   11.0373  -17.9938   24.5170 C   0  0  0  0  0  0  0  0  0  0  0  0
   11.2430  -18.6701   25.6610 N   0  0  0  0  0  0  0  0  0  0  0  0
   11.4302  -17.7725   26.6490 C   0  0  0  0  0  0  0  0  0  0  0  0
   11.3415  -16.5515   26.1230 N   0  0  0  0  0  0  0  0  0  0  0  0
    9.2700  -16.8860   22.5870 C   0  0  0  0  0  0  0  0  0  0  0  0
    9.3056  -18.2483   22.7980 O   0  0  0  0  0  0  0  0  0  0  0  0
    8.1238  -16.3469   22.4726 O   0  0  0  0  0  0  0  0  0  0  0  0
  2  1  1  1
  2  3  1  0
  4  5  1  0
  4  3  1  0
  5  6  2  0
  7 14  1  0
  7  2  1  0
  8  7  2  0
  9  5  1  0
 11 10  1  1
 11 12  1  0
 13 14  1  6
 13 11  1  0
 15 13  1  0
 16 15  2  0
 17 15  1  0
 18 19  1  1
 18 17  1  0
 19 20  1  0
 20 21  2  0
 21 22  1  0
 23 22  1  0
 24 20  1  0
 24 23  2  0
 25 26  1  0
 25 18  1  0
 27 25  2  0
M  END
$$$$
