ETH.pdb
     RDKit          3D

 27 27  0  0  1  0  0  0  0  0999 V2000
   12.7099  -16.2020   14.2396 N   0  0  0  0  0  0  0  0  0  0  0  0
   12.0645  -15.2595   15.1229 C   0  0  1  0  0  0  0  0  0  0  0  0
   10.6118  -15.0548   14.7942 C   0  0  0  0  0  0  0  0  0  0  0  0
    9.6472  -15.9183   15.5052 C   0  0  0  0  0  0  0  0  0  0  0  0
    8.2589  -15.6305   15.1220 C   0  0  0  0  0  0  0  0  0  0  0  0
    7.2960  -16.1801   15.6834 O   0  0  0  0  0  0  0  0  0  0  0  0
   12.1243  -15.7937   16.4974 C   0  0  0  0  0  0  0  0  0  0  0  0
   11.8988  -17.0020   16.7045 O   0  0  0  0  0  0  0  0  0  0  0  0
    8.0425  -14.7100   14.0958 O   0  0  0  0  0  0  0  0  0  0  0  0
   15.0375  -15.8677   18.2350 C   0  0  0  0  0  0  0  0  0  0  0  0
   14.1439  -15.2414   19.2707 C   0  0  1  0  0  0  0  0  0  0  0  0
   14.2986  -13.8574   19.2777 O   0  0  0  0  0  0  0  0  0  0  0  0
   12.7137  -15.5277   18.8751 C   0  0  2  0  0  0  0  0  0  0  0  0
   12.4351  -14.9423   17.5741 N   0  0  0  0  0  0  0  0  0  0  0  0
   11.7444  -14.9086   19.8449 C   0  0  0  0  0  0  0  0  0  0  0  0
   10.9762  -13.9666   19.5125 O   0  0  0  0  0  0  0  0  0  0  0  0
   11.6609  -15.3667   21.1768 N   0  0  0  0  0  0  0  0  0  0  0  0
   10.5303  -15.0660   22.0453 C   0  0  1  0  0  0  0  0  0  0  0  0
    9.3109  -15.7598   21.5232 C   0  0  0  0  0  0  0  0  0  0  0  0
    8.6577  -14.9711   20.4857 C   0  0  0  0  0  0  0  0  0  0  0  0
    9.0617  -13.6884   20.1235 C   0  0  0  0  0  0  0  0  0  0  0  0
    8.2390  -13.2737   19.1438 N   0  0  0  0  0  0  0  0  0  0  0  0
    7.3514  -14.2581   18.8991 C   0  0  0  0  0  0  0  0  0  0  0  0
    7.6208  -15.2734   19.7190 N   0  0  0  0  0  0  0  0  0  0  0  0
   10.8109  -15.4500   23.4404 C   0  0  0  0  0  0  0  0  0  0  0  0
   10.0992  -14.8528   24.4595 O   0  0  0  0  0  0  0  0  0  0  0  0
   11.6853  -16.3118   23.7719 O   0  0  0  0  0  0  0  0  0  0  0  0
  2  1  1  6
  2  3  1  0
  4  5  1  0
  4  3  1  0
  5  6  2  0
  7 14  1  0
  7  2  1  0
  8  7  2  0
  9  5  1  0
 11 10  1  6
 11 12  1  0
 13 14  1  6
 13 11  1  0
 15 13  1  0
 16 15  2  0
 17 15  1  0
 18 19  1  6
 18 17  1  0
 19 20  1  0
 20 21  2  0
 21 22  1  0
 23 22  1  0
 24 20  1  0
 24 23  2  0
 25 26  1  0
 25 18  1  0
 27 25  2  0
M  END
$$$$
