ETH.pdb
     RDKit          3D

 27 27  0  0  1  0  0  0  0  0999 V2000
   12.2131  -15.2968   16.6802 N   0  0  0  0  0  0  0  0  0  0  0  0
   12.1020  -15.6521   18.0753 C   0  0  1  0  0  0  0  0  0  0  0  0
   13.4336  -15.6982   18.7718 C   0  0  0  0  0  0  0  0  0  0  0  0
   14.5187  -14.8945   18.1730 C   0  0  0  0  0  0  0  0  0  0  0  0
   15.3593  -14.2523   19.1919 C   0  0  0  0  0  0  0  0  0  0  0  0
   15.2085  -13.0608   19.5109 O   0  0  0  0  0  0  0  0  0  0  0  0
   11.2952  -14.6203   18.7555 C   0  0  0  0  0  0  0  0  0  0  0  0
   11.6151  -13.4193   18.6608 O   0  0  0  0  0  0  0  0  0  0  0  0
   16.3478  -15.0242   19.8037 O   0  0  0  0  0  0  0  0  0  0  0  0
    8.2523  -13.2162   18.0420 C   0  0  0  0  0  0  0  0  0  0  0  0
    8.0136  -13.8781   19.3718 C   0  0  1  0  0  0  0  0  0  0  0  0
    7.5754  -15.1880   19.1944 O   0  0  0  0  0  0  0  0  0  0  0  0
    9.3394  -13.9460   20.0941 C   0  0  2  0  0  0  0  0  0  0  0  0
   10.1662  -14.9894   19.5106 N   0  0  0  0  0  0  0  0  0  0  0  0
    9.1537  -14.3009   21.5442 C   0  0  0  0  0  0  0  0  0  0  0  0
    9.6490  -15.3457   22.0453 O   0  0  0  0  0  0  0  0  0  0  0  0
    8.4094  -13.4661   22.4042 N   0  0  0  0  0  0  0  0  0  0  0  0
    8.1958  -13.7734   23.8124 C   0  0  1  0  0  0  0  0  0  0  0  0
    7.2534  -12.7684   24.3977 C   0  0  0  0  0  0  0  0  0  0  0  0
    7.0898  -12.9702   25.8322 C   0  0  0  0  0  0  0  0  0  0  0  0
    7.6994  -14.0035   26.5396 C   0  0  0  0  0  0  0  0  0  0  0  0
    7.3275  -13.8788   27.8260 N   0  0  0  0  0  0  0  0  0  0  0  0
    6.5150  -12.8079   27.9239 C   0  0  0  0  0  0  0  0  0  0  0  0
    6.3840  -12.2735   26.7103 N   0  0  0  0  0  0  0  0  0  0  0  0
    7.6935  -15.1478   23.9895 C   0  0  0  0  0  0  0  0  0  0  0  0
    8.1635  -15.9064   25.0408 O   0  0  0  0  0  0  0  0  0  0  0  0
    6.8395  -15.6906   23.2193 O   0  0  0  0  0  0  0  0  0  0  0  0
  2  1  1  6
  2  3  1  0
  4  5  1  0
  4  3  1  0
  5  6  2  0
  7 14  1  0
  7  2  1  0
  8  7  2  0
  9  5  1  0
 11 10  1  6
 11 12  1  0
 13 14  1  6
 13 11  1  0
 15 13  1  0
 16 15  2  0
 17 15  1  0
 18 19  1  6
 18 17  1  0
 19 20  1  0
 20 21  2  0
 21 22  1  0
 23 22  1  0
 24 20  1  0
 24 23  2  0
 25 26  1  0
 25 18  1  0
 27 25  2  0
M  END
$$$$
