ETH.pdb
     RDKit          3D

 27 27  0  0  1  0  0  0  0  0999 V2000
    8.7806  -14.5757   14.9390 N   0  0  0  0  0  0  0  0  0  0  0  0
    8.9980  -15.6453   15.8843 C   0  0  1  0  0  0  0  0  0  0  0  0
   10.1580  -16.5256   15.5104 C   0  0  0  0  0  0  0  0  0  0  0  0
   10.0713  -17.2107   14.2046 C   0  0  0  0  0  0  0  0  0  0  0  0
   11.2854  -17.9792   13.9006 C   0  0  0  0  0  0  0  0  0  0  0  0
   12.2458  -17.4757   13.2935 O   0  0  0  0  0  0  0  0  0  0  0  0
    9.3147  -15.0492   17.1968 C   0  0  0  0  0  0  0  0  0  0  0  0
   10.1665  -14.1428   17.2780 O   0  0  0  0  0  0  0  0  0  0  0  0
   11.3365  -19.3104   14.3164 O   0  0  0  0  0  0  0  0  0  0  0  0
    7.4340  -13.0141   19.1539 C   0  0  0  0  0  0  0  0  0  0  0  0
    7.7262  -14.1259   20.1244 C   0  0  1  0  0  0  0  0  0  0  0  0
    6.6791  -15.0437   20.1463 O   0  0  0  0  0  0  0  0  0  0  0  0
    8.9505  -14.8586   19.6263 C   0  0  2  0  0  0  0  0  0  0  0  0
    8.6576  -15.5019   18.3562 N   0  0  0  0  0  0  0  0  0  0  0  0
    9.3601  -15.9484   20.5792 C   0  0  0  0  0  0  0  0  0  0  0  0
    9.6736  -17.1019   20.1804 O   0  0  0  0  0  0  0  0  0  0  0  0
    9.4079  -15.7139   21.9697 N   0  0  0  0  0  0  0  0  0  0  0  0
   10.3858  -16.3484   22.8438 C   0  0  1  0  0  0  0  0  0  0  0  0
   11.7605  -16.0997   22.3064 C   0  0  0  0  0  0  0  0  0  0  0  0
   12.7758  -16.7343   23.1380 C   0  0  0  0  0  0  0  0  0  0  0  0
   12.7861  -16.6656   24.5289 C   0  0  0  0  0  0  0  0  0  0  0  0
   13.8565  -17.3599   24.9540 N   0  0  0  0  0  0  0  0  0  0  0  0
   14.4952  -17.8468   23.8715 C   0  0  0  0  0  0  0  0  0  0  0  0
   13.8276  -17.4583   22.7858 N   0  0  0  0  0  0  0  0  0  0  0  0
   10.2558  -15.8660   24.2306 C   0  0  0  0  0  0  0  0  0  0  0  0
    9.3803  -14.8369   24.5065 O   0  0  0  0  0  0  0  0  0  0  0  0
   10.9131  -16.3455   25.2080 O   0  0  0  0  0  0  0  0  0  0  0  0
  2  1  1  6
  2  3  1  0
  4  5  1  0
  4  3  1  0
  5  6  2  0
  7 14  1  0
  7  2  1  0
  8  7  2  0
  9  5  1  0
 11 10  1  6
 11 12  1  0
 13 14  1  6
 13 11  1  0
 15 13  1  0
 16 15  2  0
 17 15  1  0
 18 19  1  6
 18 17  1  0
 19 20  1  0
 20 21  2  0
 21 22  1  0
 23 22  1  0
 24 20  1  0
 24 23  2  0
 25 26  1  0
 25 18  1  0
 27 25  2  0
M  END
$$$$
