ETH.pdb
     RDKit          3D

 27 27  0  0  1  0  0  0  0  0999 V2000
   10.2404  -13.6156   17.8287 N   0  0  0  0  0  0  0  0  0  0  0  0
   10.4007  -14.8109   18.6228 C   0  0  1  0  0  0  0  0  0  0  0  0
   11.8050  -15.3468   18.5906 C   0  0  0  0  0  0  0  0  0  0  0  0
   12.8440  -14.4413   18.0591 C   0  0  0  0  0  0  0  0  0  0  0  0
   14.1889  -14.8110   18.5189 C   0  0  0  0  0  0  0  0  0  0  0  0
   14.6503  -15.9521   18.3473 O   0  0  0  0  0  0  0  0  0  0  0  0
   10.0979  -14.4795   20.0288 C   0  0  0  0  0  0  0  0  0  0  0  0
   10.5773  -13.4493   20.5413 O   0  0  0  0  0  0  0  0  0  0  0  0
   14.9497  -13.8348   19.1636 O   0  0  0  0  0  0  0  0  0  0  0  0
    6.7040  -13.9962   21.1001 C   0  0  0  0  0  0  0  0  0  0  0  0
    7.2617  -14.9661   22.1060 C   0  0  1  0  0  0  0  0  0  0  0  0
    6.9443  -16.2748   21.7514 O   0  0  0  0  0  0  0  0  0  0  0  0
    8.7679  -14.8477   22.0701 C   0  0  2  0  0  0  0  0  0  0  0  0
    9.2698  -15.3239   20.7918 N   0  0  0  0  0  0  0  0  0  0  0  0
    9.4081  -15.7003   23.1314 C   0  0  0  0  0  0  0  0  0  0  0  0
   10.6028  -16.0918   23.0436 O   0  0  0  0  0  0  0  0  0  0  0  0
    8.6844  -16.0963   24.2760 N   0  0  0  0  0  0  0  0  0  0  0  0
    9.2693  -16.9021   25.3398 C   0  0  1  0  0  0  0  0  0  0  0  0
   10.3698  -16.1275   25.9953 C   0  0  0  0  0  0  0  0  0  0  0  0
    9.8423  -15.1870   26.9763 C   0  0  0  0  0  0  0  0  0  0  0  0
    8.8679  -14.2354   26.6855 C   0  0  0  0  0  0  0  0  0  0  0  0
    8.6280  -13.5521   27.8186 N   0  0  0  0  0  0  0  0  0  0  0  0
    9.4214  -14.0547   28.7854 C   0  0  0  0  0  0  0  0  0  0  0  0
   10.1463  -15.0401   28.2571 N   0  0  0  0  0  0  0  0  0  0  0  0
    8.2484  -17.3179   26.3184 C   0  0  0  0  0  0  0  0  0  0  0  0
    8.6221  -18.1017   27.3897 O   0  0  0  0  0  0  0  0  0  0  0  0
    7.0209  -16.9961   26.2360 O   0  0  0  0  0  0  0  0  0  0  0  0
  2  1  1  6
  2  3  1  0
  4  5  1  0
  4  3  1  0
  5  6  2  0
  7 14  1  0
  7  2  1  0
  8  7  2  0
  9  5  1  0
 11 10  1  6
 11 12  1  0
 13 14  1  6
 13 11  1  0
 15 13  1  0
 16 15  2  0
 17 15  1  0
 18 19  1  1
 18 17  1  0
 19 20  1  0
 20 21  2  0
 21 22  1  0
 23 22  1  0
 24 20  1  0
 24 23  2  0
 25 26  1  0
 25 18  1  0
 27 25  2  0
M  END
$$$$
