ETH.pdb
     RDKit          3D

 27 27  0  0  1  0  0  0  0  0999 V2000
   14.9036  -19.4164   17.5312 N   0  0  0  0  0  0  0  0  0  0  0  0
   14.8738  -18.0072   17.8447 C   0  0  1  0  0  0  0  0  0  0  0  0
   15.3318  -17.1467   16.7001 C   0  0  0  0  0  0  0  0  0  0  0  0
   16.7760  -17.1750   16.3911 C   0  0  0  0  0  0  0  0  0  0  0  0
   17.0927  -16.4448   15.1567 C   0  0  0  0  0  0  0  0  0  0  0  0
   16.6249  -16.7827   14.0561 O   0  0  0  0  0  0  0  0  0  0  0  0
   13.4790  -17.6256   18.1397 C   0  0  0  0  0  0  0  0  0  0  0  0
   12.9131  -16.7567   17.4478 O   0  0  0  0  0  0  0  0  0  0  0  0
   17.9454  -15.3440   15.2501 O   0  0  0  0  0  0  0  0  0  0  0  0
   10.6699  -20.0163   18.3521 C   0  0  0  0  0  0  0  0  0  0  0  0
   10.6021  -19.2088   19.6197 C   0  0  1  0  0  0  0  0  0  0  0  0
   11.2238  -19.8869   20.6652 O   0  0  0  0  0  0  0  0  0  0  0  0
   11.3792  -17.9328   19.3919 C   0  0  2  0  0  0  0  0  0  0  0  0
   12.7869  -18.2400   19.2001 N   0  0  0  0  0  0  0  0  0  0  0  0
   11.2938  -17.0210   20.5855 C   0  0  0  0  0  0  0  0  0  0  0  0
   12.2961  -16.7676   21.3060 O   0  0  0  0  0  0  0  0  0  0  0  0
   10.0735  -16.4104   20.9442 N   0  0  0  0  0  0  0  0  0  0  0  0
    9.9455  -15.5124   22.0845 C   0  0  1  0  0  0  0  0  0  0  0  0
    8.6756  -14.7306   21.9548 C   0  0  0  0  0  0  0  0  0  0  0  0
    8.6995  -13.8757   20.7742 C   0  0  0  0  0  0  0  0  0  0  0  0
    9.8165  -13.7215   19.9568 C   0  0  0  0  0  0  0  0  0  0  0  0
    9.4765  -12.8681   18.9748 N   0  0  0  0  0  0  0  0  0  0  0  0
    8.1944  -12.4994   19.1672 C   0  0  0  0  0  0  0  0  0  0  0  0
    7.7436  -13.1181   20.2579 N   0  0  0  0  0  0  0  0  0  0  0  0
    9.9920  -16.2544   23.3572 C   0  0  0  0  0  0  0  0  0  0  0  0
   10.0063  -15.5540   24.5450 O   0  0  0  0  0  0  0  0  0  0  0  0
   10.0223  -17.5236   23.4323 O   0  0  0  0  0  0  0  0  0  0  0  0
  2  1  1  6
  2  3  1  0
  4  5  1  0
  4  3  1  0
  5  6  2  0
  7 14  1  0
  7  2  1  0
  8  7  2  0
  9  5  1  0
 11 10  1  6
 11 12  1  0
 13 14  1  1
 13 11  1  0
 15 13  1  0
 16 15  2  0
 17 15  1  0
 18 19  1  6
 18 17  1  0
 19 20  1  0
 20 21  2  0
 21 22  1  0
 23 22  1  0
 24 20  1  0
 24 23  2  0
 25 26  1  0
 25 18  1  0
 27 25  2  0
M  END
$$$$
