LHF.pdb
     RDKit          3D

 30 31  0  0  1  0  0  0  0  0999 V2000
    7.1517  -11.9767   19.8294 C   0  0  0  0  0  0  0  0  0  0  0  0
    7.9700  -13.2011   19.4855 C   0  0  1  0  0  0  0  0  0  0  0  0
    9.3311  -12.7518   18.9922 C   0  0  0  0  0  0  0  0  0  0  0  0
    8.0992  -14.0805   20.7055 C   0  0  0  0  0  0  0  0  0  0  0  0
    8.9984  -15.2566   20.5059 C   0  0  2  0  0  0  0  0  0  0  0  0
    8.7214  -16.0303   19.3189 N   0  0  0  0  0  0  0  0  0  0  0  0
    9.0013  -16.1054   21.7416 C   0  0  0  0  0  0  0  0  0  0  0  0
    7.8984  -16.3809   22.2175 O   0  0  0  0  0  0  0  0  0  0  0  0
   10.2063  -16.5373   22.2891 N   0  0  0  0  0  0  0  0  0  0  0  0
   10.4730  -17.3424   23.4368 C   0  0  1  0  0  0  0  0  0  0  0  0
   11.3806  -18.5439   23.1910 C   0  0  0  0  0  0  0  0  0  0  0  0
   10.8543  -19.4849   22.1905 C   0  0  0  0  0  0  0  0  0  0  0  0
    9.7020  -20.2088   22.2402 C   0  0  0  0  0  0  0  0  0  0  0  0
    9.6094  -21.0042   21.1590 N   0  0  0  0  0  0  0  0  0  0  0  0
   10.7230  -20.7569   20.4452 C   0  0  0  0  0  0  0  0  0  0  0  0
   11.4882  -19.8350   21.0615 N   0  0  0  0  0  0  0  0  0  0  0  0
   10.8890  -16.5747   24.6079 C   0  0  0  0  0  0  0  0  0  0  0  0
   11.9978  -15.9473   24.5531 O   0  0  0  0  0  0  0  0  0  0  0  0
   10.1712  -16.4568   25.8165 N   0  0  0  0  0  0  0  0  0  0  0  0
   10.6656  -15.8206   27.0133 C   0  0  1  0  0  0  0  0  0  0  0  0
   10.5301  -14.3173   26.9674 C   0  0  0  0  0  0  0  0  0  0  0  0
    9.1672  -13.8542   26.7153 C   0  0  0  0  0  0  0  0  0  0  0  0
    8.5745  -12.9763   27.5943 C   0  0  0  0  0  0  0  0  0  0  0  0
    7.2796  -12.5037   27.4025 C   0  0  0  0  0  0  0  0  0  0  0  0
    6.5520  -12.9075   26.3166 C   0  0  0  0  0  0  0  0  0  0  0  0
    7.1228  -13.7821   25.4277 C   0  0  0  0  0  0  0  0  0  0  0  0
    8.4181  -14.2498   25.6270 C   0  0  0  0  0  0  0  0  0  0  0  0
    9.8474  -16.3027   28.1437 C   0  0  0  0  0  0  0  0  0  0  0  0
    8.8144  -17.1960   27.9738 O   0  0  0  0  0  0  0  0  0  0  0  0
   10.1058  -15.8823   29.2908 O   0  0  0  0  0  0  0  0  0  0  0  0
  2  1  1  1
  3  2  1  0
  4  2  1  0
  5  4  1  0
  5  6  1  6
  7  8  2  0
  7  5  1  0
  9  7  1  0
 10  9  1  0
 10 11  1  6
 12 16  1  0
 12 11  1  0
 13 12  2  0
 14 13  1  0
 14 15  1  0
 15 16  2  0
 17 10  1  0
 17 19  1  0
 18 17  2  0
 20 19  1  0
 20 28  1  0
 20 21  1  6
 22 21  1  0
 23 22  2  0
 24 23  1  0
 25 24  2  0
 25 26  1  0
 26 27  2  0
 27 22  1  0
 28 30  2  0
 28 29  1  0
M  END
$$$$
