LHF.pdb
     RDKit          3D

 30 31  0  0  1  0  0  0  0  0999 V2000
    6.9124  -12.3537   18.0975 C   0  0  0  0  0  0  0  0  0  0  0  0
    7.7708  -13.5850   18.2812 C   0  0  1  0  0  0  0  0  0  0  0  0
    9.1313  -13.3239   17.6658 C   0  0  0  0  0  0  0  0  0  0  0  0
    7.8931  -13.8999   19.7523 C   0  0  0  0  0  0  0  0  0  0  0  0
    8.6288  -15.1687   20.0361 C   0  0  2  0  0  0  0  0  0  0  0  0
    8.4385  -16.2070   19.0511 N   0  0  0  0  0  0  0  0  0  0  0  0
    8.3038  -15.6420   21.4209 C   0  0  0  0  0  0  0  0  0  0  0  0
    8.3641  -14.7962   22.3153 O   0  0  0  0  0  0  0  0  0  0  0  0
    7.9580  -16.9725   21.6409 N   0  0  0  0  0  0  0  0  0  0  0  0
    7.5610  -17.6472   22.8341 C   0  0  1  0  0  0  0  0  0  0  0  0
    7.1278  -19.0981   22.6466 C   0  0  0  0  0  0  0  0  0  0  0  0
    6.9285  -19.8216   23.9116 C   0  0  0  0  0  0  0  0  0  0  0  0
    7.8724  -20.3760   24.7218 C   0  0  0  0  0  0  0  0  0  0  0  0
    7.2824  -21.0077   25.7528 N   0  0  0  0  0  0  0  0  0  0  0  0
    5.9619  -20.8322   25.5625 C   0  0  0  0  0  0  0  0  0  0  0  0
    5.7335  -20.1127   24.4465 N   0  0  0  0  0  0  0  0  0  0  0  0
    8.5094  -17.4986   23.9351 C   0  0  0  0  0  0  0  0  0  0  0  0
    9.7197  -17.8487   23.7379 O   0  0  0  0  0  0  0  0  0  0  0  0
    8.2127  -16.9965   25.2194 N   0  0  0  0  0  0  0  0  0  0  0  0
    9.1830  -16.7664   26.2620 C   0  0  1  0  0  0  0  0  0  0  0  0
    9.5565  -15.3091   26.3931 C   0  0  0  0  0  0  0  0  0  0  0  0
    8.4093  -14.4040   26.4080 C   0  0  0  0  0  0  0  0  0  0  0  0
    7.8661  -13.9761   25.2179 C   0  0  0  0  0  0  0  0  0  0  0  0
    6.7740  -13.1145   25.1744 C   0  0  0  0  0  0  0  0  0  0  0  0
    6.2042  -12.6644   26.3339 C   0  0  0  0  0  0  0  0  0  0  0  0
    6.7293  -13.0781   27.5314 C   0  0  0  0  0  0  0  0  0  0  0  0
    7.8215  -13.9397   27.5660 C   0  0  0  0  0  0  0  0  0  0  0  0
    8.5701  -17.1810   27.5395 C   0  0  0  0  0  0  0  0  0  0  0  0
    9.2891  -17.2480   28.7111 O   0  0  0  0  0  0  0  0  0  0  0  0
    7.3578  -17.4801   27.5517 O   0  0  0  0  0  0  0  0  0  0  0  0
  2  1  1  1
  3  2  1  0
  4  2  1  0
  5  4  1  0
  5  6  1  6
  7  8  2  0
  7  5  1  0
  9  7  1  0
 10  9  1  0
 10 11  1  6
 12 16  1  0
 12 11  1  0
 13 12  2  0
 14 13  1  0
 14 15  1  0
 15 16  2  0
 17 10  1  0
 17 19  1  0
 18 17  2  0
 20 19  1  0
 20 28  1  0
 20 21  1  1
 22 21  1  0
 23 22  2  0
 24 23  1  0
 25 24  2  0
 25 26  1  0
 26 27  2  0
 27 22  1  0
 28 30  2  0
 28 29  1  0
M  END
$$$$
