LHF.pdb
     RDKit          3D

 30 31  0  0  1  0  0  0  0  0999 V2000
    7.7136  -12.0015   19.0760 C   0  0  0  0  0  0  0  0  0  0  0  0
    8.4481  -13.3220   19.0139 C   0  0  1  0  0  0  0  0  0  0  0  0
    9.9324  -13.0455   18.8797 C   0  0  0  0  0  0  0  0  0  0  0  0
    8.1565  -14.1206   20.2611 C   0  0  0  0  0  0  0  0  0  0  0  0
    8.9857  -15.3563   20.3909 C   0  0  2  0  0  0  0  0  0  0  0  0
    8.7776  -16.3321   19.3474 N   0  0  0  0  0  0  0  0  0  0  0  0
    8.8019  -15.9468   21.7566 C   0  0  0  0  0  0  0  0  0  0  0  0
    7.6391  -16.1442   22.1141 O   0  0  0  0  0  0  0  0  0  0  0  0
    9.9108  -16.2408   22.5453 N   0  0  0  0  0  0  0  0  0  0  0  0
   10.0119  -16.9266   23.7926 C   0  0  1  0  0  0  0  0  0  0  0  0
   10.6653  -18.3038   23.7258 C   0  0  0  0  0  0  0  0  0  0  0  0
    9.8881  -19.2880   22.9573 C   0  0  0  0  0  0  0  0  0  0  0  0
    9.9241  -19.5278   21.6173 C   0  0  0  0  0  0  0  0  0  0  0  0
    9.0134  -20.4628   21.2910 N   0  0  0  0  0  0  0  0  0  0  0  0
    8.4182  -20.7930   22.4518 C   0  0  0  0  0  0  0  0  0  0  0  0
    8.9410  -20.0858   23.4725 N   0  0  0  0  0  0  0  0  0  0  0  0
   10.5691  -16.1096   24.8677 C   0  0  0  0  0  0  0  0  0  0  0  0
   11.7210  -15.5911   24.6939 O   0  0  0  0  0  0  0  0  0  0  0  0
    9.9465  -15.8326   26.1027 N   0  0  0  0  0  0  0  0  0  0  0  0
   10.6100  -15.2771   27.2571 C   0  0  1  0  0  0  0  0  0  0  0  0
   10.0317  -13.9452   27.6716 C   0  0  0  0  0  0  0  0  0  0  0  0
    8.7095  -13.6749   27.1110 C   0  0  0  0  0  0  0  0  0  0  0  0
    7.5899  -14.1631   27.7455 C   0  0  0  0  0  0  0  0  0  0  0  0
    6.3073  -13.9355   27.2552 C   0  0  0  0  0  0  0  0  0  0  0  0
    6.1256  -13.2083   26.1108 C   0  0  0  0  0  0  0  0  0  0  0  0
    7.2273  -12.7121   25.4620 C   0  0  0  0  0  0  0  0  0  0  0  0
    8.5062  -12.9443   25.9590 C   0  0  0  0  0  0  0  0  0  0  0  0
   10.4079  -16.2141   28.3801 C   0  0  0  0  0  0  0  0  0  0  0  0
   11.0701  -16.0772   29.5787 O   0  0  0  0  0  0  0  0  0  0  0  0
    9.6076  -17.1611   28.2317 O   0  0  0  0  0  0  0  0  0  0  0  0
  2  1  1  1
  3  2  1  0
  4  2  1  0
  5  4  1  0
  5  6  1  6
  7  8  2  0
  7  5  1  0
  9  7  1  0
 10  9  1  0
 10 11  1  6
 12 16  1  0
 12 11  1  0
 13 12  2  0
 14 13  1  0
 14 15  1  0
 15 16  2  0
 17 10  1  0
 17 19  1  0
 18 17  2  0
 20 19  1  0
 20 28  1  0
 20 21  1  1
 22 21  1  0
 23 22  2  0
 24 23  1  0
 25 24  2  0
 25 26  1  0
 26 27  2  0
 27 22  1  0
 28 30  2  0
 28 29  1  0
M  END
$$$$
