LHF.pdb
     RDKit          3D

 30 31  0  0  1  0  0  0  0  0999 V2000
    7.8492  -12.1585   18.2502 C   0  0  0  0  0  0  0  0  0  0  0  0
    8.5105  -13.4779   17.9205 C   0  0  1  0  0  0  0  0  0  0  0  0
   10.0103  -13.2665   17.8589 C   0  0  0  0  0  0  0  0  0  0  0  0
    8.1501  -14.4994   18.9716 C   0  0  0  0  0  0  0  0  0  0  0  0
    8.8315  -15.8161   18.7884 C   0  0  2  0  0  0  0  0  0  0  0  0
    8.3091  -16.6180   17.7074 N   0  0  0  0  0  0  0  0  0  0  0  0
    8.8430  -16.5640   20.0876 C   0  0  0  0  0  0  0  0  0  0  0  0
    7.7442  -16.8957   20.5363 O   0  0  0  0  0  0  0  0  0  0  0  0
   10.0507  -16.8474   20.7196 N   0  0  0  0  0  0  0  0  0  0  0  0
   10.3226  -17.3583   22.0240 C   0  0  1  0  0  0  0  0  0  0  0  0
   11.6606  -18.0758   22.1749 C   0  0  0  0  0  0  0  0  0  0  0  0
   11.9023  -18.5928   23.5305 C   0  0  0  0  0  0  0  0  0  0  0  0
   12.7943  -18.1433   24.4561 C   0  0  0  0  0  0  0  0  0  0  0  0
   12.7573  -18.9247   25.5506 N   0  0  0  0  0  0  0  0  0  0  0  0
   11.8285  -19.8607   25.2820 C   0  0  0  0  0  0  0  0  0  0  0  0
   11.3012  -19.6701   24.0569 N   0  0  0  0  0  0  0  0  0  0  0  0
   10.1005  -16.3871   23.0923 C   0  0  0  0  0  0  0  0  0  0  0  0
   10.7334  -15.2812   23.0410 O   0  0  0  0  0  0  0  0  0  0  0  0
    9.2385  -16.5552   24.1961 N   0  0  0  0  0  0  0  0  0  0  0  0
    8.9845  -15.5574   25.2066 C   0  0  1  0  0  0  0  0  0  0  0  0
    7.7367  -14.7546   24.9260 C   0  0  0  0  0  0  0  0  0  0  0  0
    7.4086  -13.7875   25.9712 C   0  0  0  0  0  0  0  0  0  0  0  0
    8.2881  -12.7669   26.2528 C   0  0  0  0  0  0  0  0  0  0  0  0
    8.0257  -11.8191   27.2375 C   0  0  0  0  0  0  0  0  0  0  0  0
    6.8668  -11.8802   27.9620 C   0  0  0  0  0  0  0  0  0  0  0  0
    5.9759  -12.8889   27.6982 C   0  0  0  0  0  0  0  0  0  0  0  0
    6.2460  -13.8326   26.7118 C   0  0  0  0  0  0  0  0  0  0  0  0
    8.7759  -16.2634   26.4864 C   0  0  0  0  0  0  0  0  0  0  0  0
    8.5515  -17.6198   26.5484 O   0  0  0  0  0  0  0  0  0  0  0  0
    8.8051  -15.6025   27.5454 O   0  0  0  0  0  0  0  0  0  0  0  0
  2  1  1  1
  3  2  1  0
  4  2  1  0
  5  4  1  0
  5  6  1  6
  7  8  2  0
  7  5  1  0
  9  7  1  0
 10  9  1  0
 10 11  1  6
 12 16  1  0
 12 11  1  0
 13 12  2  0
 14 13  1  0
 14 15  1  0
 15 16  2  0
 17 10  1  0
 17 19  1  0
 18 17  2  0
 20 19  1  0
 20 28  1  0
 20 21  1  6
 22 21  1  0
 23 22  2  0
 24 23  1  0
 25 24  2  0
 25 26  1  0
 26 27  2  0
 27 22  1  0
 28 30  2  0
 28 29  1  0
M  END
$$$$
