LHF.pdb
     RDKit          3D

 30 31  0  0  1  0  0  0  0  0999 V2000
    7.4027  -11.8196   19.4123 C   0  0  0  0  0  0  0  0  0  0  0  0
    7.9394  -13.1756   19.0123 C   0  0  1  0  0  0  0  0  0  0  0  0
    9.3348  -12.9976   18.4476 C   0  0  0  0  0  0  0  0  0  0  0  0
    7.9541  -14.0873   20.2152 C   0  0  0  0  0  0  0  0  0  0  0  0
    8.4978  -15.4491   19.9305 C   0  0  2  0  0  0  0  0  0  0  0  0
    7.8544  -16.1364   18.8358 N   0  0  0  0  0  0  0  0  0  0  0  0
    8.4944  -16.2672   21.1867 C   0  0  0  0  0  0  0  0  0  0  0  0
    7.3979  -16.4417   21.7217 O   0  0  0  0  0  0  0  0  0  0  0  0
    9.6868  -16.7825   21.6877 N   0  0  0  0  0  0  0  0  0  0  0  0
    9.9396  -17.6172   22.8172 C   0  0  1  0  0  0  0  0  0  0  0  0
   11.1188  -18.5738   22.6673 C   0  0  0  0  0  0  0  0  0  0  0  0
   10.9058  -19.6169   21.6525 C   0  0  0  0  0  0  0  0  0  0  0  0
    9.7728  -20.3303   21.4037 C   0  0  0  0  0  0  0  0  0  0  0  0
   10.0015  -21.2378   20.4372 N   0  0  0  0  0  0  0  0  0  0  0  0
   11.2926  -21.0701   20.0970 C   0  0  0  0  0  0  0  0  0  0  0  0
   11.8537  -20.0877   20.8285 N   0  0  0  0  0  0  0  0  0  0  0  0
    9.9829  -16.8919   24.0844 C   0  0  0  0  0  0  0  0  0  0  0  0
   10.7011  -15.8403   24.1515 O   0  0  0  0  0  0  0  0  0  0  0  0
    9.2953  -17.2469   25.2638 N   0  0  0  0  0  0  0  0  0  0  0  0
    9.2501  -16.4509   26.4662 C   0  0  1  0  0  0  0  0  0  0  0  0
    7.8485  -16.0112   26.8165 C   0  0  0  0  0  0  0  0  0  0  0  0
    7.5976  -14.5915   26.5780 C   0  0  0  0  0  0  0  0  0  0  0  0
    8.0992  -13.6564   27.4547 C   0  0  0  0  0  0  0  0  0  0  0  0
    7.8903  -12.2921   27.2755 C   0  0  0  0  0  0  0  0  0  0  0  0
    7.1687  -11.8399   26.2047 C   0  0  0  0  0  0  0  0  0  0  0  0
    6.6594  -12.7542   25.3184 C   0  0  0  0  0  0  0  0  0  0  0  0
    6.8730  -14.1165   25.5050 C   0  0  0  0  0  0  0  0  0  0  0  0
    9.7380  -17.2935   27.5760 C   0  0  0  0  0  0  0  0  0  0  0  0
   10.0448  -16.7733   28.8127 O   0  0  0  0  0  0  0  0  0  0  0  0
    9.8752  -18.5192   27.3804 O   0  0  0  0  0  0  0  0  0  0  0  0
  2  1  1  1
  3  2  1  0
  4  2  1  0
  5  4  1  0
  5  6  1  6
  7  8  2  0
  7  5  1  0
  9  7  1  0
 10  9  1  0
 10 11  1  6
 12 16  1  0
 12 11  1  0
 13 12  2  0
 14 13  1  0
 14 15  1  0
 15 16  2  0
 17 10  1  0
 17 19  1  0
 18 17  2  0
 20 19  1  0
 20 28  1  0
 20 21  1  1
 22 21  1  0
 23 22  2  0
 24 23  1  0
 25 24  2  0
 25 26  1  0
 26 27  2  0
 27 22  1  0
 28 30  2  0
 28 29  1  0
M  END
$$$$
