LHF.pdb
     RDKit          3D

 30 31  0  0  1  0  0  0  0  0999 V2000
    7.2983  -11.8931   19.8816 C   0  0  0  0  0  0  0  0  0  0  0  0
    7.6484  -13.2728   19.3710 C   0  0  1  0  0  0  0  0  0  0  0  0
    8.7680  -13.1450   18.3571 C   0  0  0  0  0  0  0  0  0  0  0  0
    8.0630  -14.1489   20.5281 C   0  0  0  0  0  0  0  0  0  0  0  0
    8.2705  -15.5801   20.1540 C   0  0  2  0  0  0  0  0  0  0  0  0
    7.1634  -16.1843   19.4513 N   0  0  0  0  0  0  0  0  0  0  0  0
    8.6621  -16.3678   21.3679 C   0  0  0  0  0  0  0  0  0  0  0  0
    7.7437  -16.9046   21.9902 O   0  0  0  0  0  0  0  0  0  0  0  0
   10.0012  -16.4621   21.7371 N   0  0  0  0  0  0  0  0  0  0  0  0
   10.6260  -17.1768   22.8026 C   0  0  1  0  0  0  0  0  0  0  0  0
   12.0817  -17.5640   22.5594 C   0  0  0  0  0  0  0  0  0  0  0  0
   12.2698  -18.4513   21.4015 C   0  0  0  0  0  0  0  0  0  0  0  0
   12.6971  -18.1236   20.1507 C   0  0  0  0  0  0  0  0  0  0  0  0
   12.6723  -19.2084   19.3554 N   0  0  0  0  0  0  0  0  0  0  0  0
   12.2230  -20.2068   20.1378 C   0  0  0  0  0  0  0  0  0  0  0  0
   11.9746  -19.7595   21.3842 N   0  0  0  0  0  0  0  0  0  0  0  0
   10.4370  -16.5597   24.1130 C   0  0  0  0  0  0  0  0  0  0  0  0
   11.1087  -15.5108   24.3865 O   0  0  0  0  0  0  0  0  0  0  0  0
    9.5680  -17.0184   25.1250 N   0  0  0  0  0  0  0  0  0  0  0  0
    9.3838  -16.3836   26.4074 C   0  0  1  0  0  0  0  0  0  0  0  0
    7.9701  -15.8941   26.6128 C   0  0  0  0  0  0  0  0  0  0  0  0
    7.8151  -14.4503   26.4496 C   0  0  0  0  0  0  0  0  0  0  0  0
    8.8596  -13.6141   26.7726 C   0  0  0  0  0  0  0  0  0  0  0  0
    8.7659  -12.2321   26.6366 C   0  0  0  0  0  0  0  0  0  0  0  0
    7.6131  -11.6617   26.1705 C   0  0  0  0  0  0  0  0  0  0  0  0
    6.5594  -12.4760   25.8425 C   0  0  0  0  0  0  0  0  0  0  0  0
    6.6615  -13.8569   25.9815 C   0  0  0  0  0  0  0  0  0  0  0  0
    9.6555  -17.3954   27.4477 C   0  0  0  0  0  0  0  0  0  0  0  0
    9.9804  -18.6967   27.1390 O   0  0  0  0  0  0  0  0  0  0  0  0
    9.5868  -17.0534   28.6467 O   0  0  0  0  0  0  0  0  0  0  0  0
  2  1  1  1
  3  2  1  0
  4  2  1  0
  5  4  1  0
  5  6  1  1
  7  8  2  0
  7  5  1  0
  9  7  1  0
 10  9  1  0
 10 11  1  6
 12 16  1  0
 12 11  1  0
 13 12  2  0
 14 13  1  0
 14 15  1  0
 15 16  2  0
 17 10  1  0
 17 19  1  0
 18 17  2  0
 20 19  1  0
 20 28  1  0
 20 21  1  6
 22 21  1  0
 23 22  2  0
 24 23  1  0
 25 24  2  0
 25 26  1  0
 26 27  2  0
 27 22  1  0
 28 30  2  0
 28 29  1  0
M  END
$$$$
