LHF.pdb
     RDKit          3D

 30 31  0  0  1  0  0  0  0  0999 V2000
    7.3602  -11.7254   20.4622 C   0  0  0  0  0  0  0  0  0  0  0  0
    7.7728  -13.0766   19.9228 C   0  0  1  0  0  0  0  0  0  0  0  0
    9.0094  -12.8990   19.0644 C   0  0  0  0  0  0  0  0  0  0  0  0
    8.0416  -14.0178   21.0718 C   0  0  0  0  0  0  0  0  0  0  0  0
    8.3350  -15.4189   20.6448 C   0  0  2  0  0  0  0  0  0  0  0  0
    7.3085  -16.0268   19.8316 N   0  0  0  0  0  0  0  0  0  0  0  0
    8.6684  -16.2533   21.8448 C   0  0  0  0  0  0  0  0  0  0  0  0
    7.7337  -16.8733   22.3555 O   0  0  0  0  0  0  0  0  0  0  0  0
    9.9749  -16.2972   22.3236 N   0  0  0  0  0  0  0  0  0  0  0  0
   10.5554  -17.0620   23.3793 C   0  0  1  0  0  0  0  0  0  0  0  0
   11.9239  -17.6619   23.0706 C   0  0  0  0  0  0  0  0  0  0  0  0
   11.9039  -18.6411   21.9732 C   0  0  0  0  0  0  0  0  0  0  0  0
   12.4086  -18.5061   20.7156 C   0  0  0  0  0  0  0  0  0  0  0  0
   12.1313  -19.6025   19.9867 N   0  0  0  0  0  0  0  0  0  0  0  0
   11.4485  -20.4121   20.8169 C   0  0  0  0  0  0  0  0  0  0  0  0
   11.3036  -19.8392   22.0277 N   0  0  0  0  0  0  0  0  0  0  0  0
   10.5357  -16.3849   24.6736 C   0  0  0  0  0  0  0  0  0  0  0  0
   11.3481  -15.4199   24.8600 O   0  0  0  0  0  0  0  0  0  0  0  0
    9.6903  -16.6995   25.7580 N   0  0  0  0  0  0  0  0  0  0  0  0
    9.7699  -16.1023   27.0690 C   0  0  1  0  0  0  0  0  0  0  0  0
    8.4237  -15.6476   27.5801 C   0  0  0  0  0  0  0  0  0  0  0  0
    7.8051  -14.6027   26.7672 C   0  0  0  0  0  0  0  0  0  0  0  0
    8.2588  -13.3070   26.8662 C   0  0  0  0  0  0  0  0  0  0  0  0
    7.7060  -12.2735   26.1156 C   0  0  0  0  0  0  0  0  0  0  0  0
    6.6802  -12.5253   25.2460 C   0  0  0  0  0  0  0  0  0  0  0  0
    6.2122  -13.8093   25.1313 C   0  0  0  0  0  0  0  0  0  0  0  0
    6.7706  -14.8367   25.8856 C   0  0  0  0  0  0  0  0  0  0  0  0
   10.2685  -17.1352   27.9987 C   0  0  0  0  0  0  0  0  0  0  0  0
   10.6950  -16.8327   29.2717 O   0  0  0  0  0  0  0  0  0  0  0  0
   10.3022  -18.3219   27.6116 O   0  0  0  0  0  0  0  0  0  0  0  0
  2  1  1  1
  3  2  1  0
  4  2  1  0
  5  4  1  0
  5  6  1  1
  7  8  2  0
  7  5  1  0
  9  7  1  0
 10  9  1  0
 10 11  1  6
 12 16  1  0
 12 11  1  0
 13 12  2  0
 14 13  1  0
 14 15  1  0
 15 16  2  0
 17 10  1  0
 17 19  1  0
 18 17  2  0
 20 19  1  0
 20 28  1  0
 20 21  1  1
 22 21  1  0
 23 22  2  0
 24 23  1  0
 25 24  2  0
 25 26  1  0
 26 27  2  0
 27 22  1  0
 28 30  2  0
 28 29  1  0
M  END
$$$$
