LHF.pdb
     RDKit          3D

 30 31  0  0  1  0  0  0  0  0999 V2000
    7.0399  -12.3792   18.8245 C   0  0  0  0  0  0  0  0  0  0  0  0
    8.2284  -13.3041   18.9614 C   0  0  1  0  0  0  0  0  0  0  0  0
    9.4958  -12.4993   18.7527 C   0  0  0  0  0  0  0  0  0  0  0  0
    8.2132  -13.9462   20.3274 C   0  0  0  0  0  0  0  0  0  0  0  0
    9.4429  -14.7373   20.6332 C   0  0  2  0  0  0  0  0  0  0  0  0
    9.8495  -15.6448   19.5866 N   0  0  0  0  0  0  0  0  0  0  0  0
    9.2798  -15.4354   21.9498 C   0  0  0  0  0  0  0  0  0  0  0  0
    8.5114  -14.9079   22.7561 O   0  0  0  0  0  0  0  0  0  0  0  0
    9.9770  -16.6128   22.2069 N   0  0  0  0  0  0  0  0  0  0  0  0
   10.0858  -17.3901   23.3987 C   0  0  1  0  0  0  0  0  0  0  0  0
   10.6078  -18.8103   23.2027 C   0  0  0  0  0  0  0  0  0  0  0  0
    9.7697  -19.6287   22.3133 C   0  0  0  0  0  0  0  0  0  0  0  0
    8.4107  -19.6621   22.2330 C   0  0  0  0  0  0  0  0  0  0  0  0
    8.0236  -20.5910   21.3399 N   0  0  0  0  0  0  0  0  0  0  0  0
    9.1665  -21.1268   20.8736 C   0  0  0  0  0  0  0  0  0  0  0  0
   10.2352  -20.5504   21.4574 N   0  0  0  0  0  0  0  0  0  0  0  0
   10.7738  -16.7011   24.4876 C   0  0  0  0  0  0  0  0  0  0  0  0
   11.8715  -16.1075   24.2253 O   0  0  0  0  0  0  0  0  0  0  0  0
   10.3351  -16.6262   25.8261 N   0  0  0  0  0  0  0  0  0  0  0  0
   10.8699  -15.7307   26.8229 C   0  0  1  0  0  0  0  0  0  0  0  0
   10.3260  -14.3281   26.6918 C   0  0  0  0  0  0  0  0  0  0  0  0
    8.8741  -14.2417   26.8328 C   0  0  0  0  0  0  0  0  0  0  0  0
    8.3326  -13.7645   28.0048 C   0  0  0  0  0  0  0  0  0  0  0  0
    6.9574  -13.6612   28.1924 C   0  0  0  0  0  0  0  0  0  0  0  0
    6.0957  -14.0382   27.1989 C   0  0  0  0  0  0  0  0  0  0  0  0
    6.6134  -14.5167   26.0225 C   0  0  0  0  0  0  0  0  0  0  0  0
    7.9897  -14.6167   25.8432 C   0  0  0  0  0  0  0  0  0  0  0  0
   10.4588  -16.2411   28.1459 C   0  0  0  0  0  0  0  0  0  0  0  0
   10.8659  -15.6495   29.3198 O   0  0  0  0  0  0  0  0  0  0  0  0
    9.7164  -17.2439   28.1954 O   0  0  0  0  0  0  0  0  0  0  0  0
  2  1  1  1
  3  2  1  0
  4  2  1  0
  5  4  1  0
  5  6  1  6
  7  8  2  0
  7  5  1  0
  9  7  1  0
 10  9  1  0
 10 11  1  6
 12 16  1  0
 12 11  1  0
 13 12  2  0
 14 13  1  0
 14 15  1  0
 15 16  2  0
 17 10  1  0
 17 19  1  0
 18 17  2  0
 20 19  1  0
 20 28  1  0
 20 21  1  6
 22 21  1  0
 23 22  2  0
 24 23  1  0
 25 24  2  0
 25 26  1  0
 26 27  2  0
 27 22  1  0
 28 30  2  0
 28 29  1  0
M  END
$$$$
