LHF.pdb
     RDKit          3D

 30 31  0  0  1  0  0  0  0  0999 V2000
    7.7284  -11.9855   19.6515 C   0  0  0  0  0  0  0  0  0  0  0  0
    7.8824  -13.4754   19.4426 C   0  0  1  0  0  0  0  0  0  0  0  0
    9.3535  -13.7892   19.2554 C   0  0  0  0  0  0  0  0  0  0  0  0
    7.3184  -14.2127   20.6329 C   0  0  0  0  0  0  0  0  0  0  0  0
    7.2984  -15.6970   20.4659 C   0  0  2  0  0  0  0  0  0  0  0  0
    6.5307  -16.1644   19.3361 N   0  0  0  0  0  0  0  0  0  0  0  0
    6.8633  -16.3434   21.7466 C   0  0  0  0  0  0  0  0  0  0  0  0
    5.6666  -16.2502   22.0263 O   0  0  0  0  0  0  0  0  0  0  0  0
    7.7924  -17.0027   22.5469 N   0  0  0  0  0  0  0  0  0  0  0  0
    7.6386  -17.6635   23.8023 C   0  0  1  0  0  0  0  0  0  0  0  0
    7.8577  -19.1732   23.7731 C   0  0  0  0  0  0  0  0  0  0  0  0
    7.6324  -19.8265   25.0714 C   0  0  0  0  0  0  0  0  0  0  0  0
    7.2048  -19.2621   26.2347 C   0  0  0  0  0  0  0  0  0  0  0  0
    7.1893  -20.1823   27.2160 N   0  0  0  0  0  0  0  0  0  0  0  0
    7.6140  -21.3201   26.6365 C   0  0  0  0  0  0  0  0  0  0  0  0
    7.8867  -21.1172   25.3328 N   0  0  0  0  0  0  0  0  0  0  0  0
    8.3712  -17.0267   24.8939 C   0  0  0  0  0  0  0  0  0  0  0  0
    9.6010  -16.7444   24.7089 O   0  0  0  0  0  0  0  0  0  0  0  0
    7.8422  -16.6868   26.1566 N   0  0  0  0  0  0  0  0  0  0  0  0
    8.5943  -16.0951   27.2362 C   0  0  1  0  0  0  0  0  0  0  0  0
    7.8518  -14.9637   27.9063 C   0  0  0  0  0  0  0  0  0  0  0  0
    7.7612  -13.7528   27.0933 C   0  0  0  0  0  0  0  0  0  0  0  0
    6.6413  -13.5335   26.3238 C   0  0  0  0  0  0  0  0  0  0  0  0
    6.5030  -12.3978   25.5312 C   0  0  0  0  0  0  0  0  0  0  0  0
    7.4945  -11.4557   25.4975 C   0  0  0  0  0  0  0  0  0  0  0  0
    8.6194  -11.6538   26.2566 C   0  0  0  0  0  0  0  0  0  0  0  0
    8.7496  -12.7921   27.0462 C   0  0  0  0  0  0  0  0  0  0  0  0
    8.8120  -17.1430   28.2533 C   0  0  0  0  0  0  0  0  0  0  0  0
    9.6755  -16.9712   29.3110 O   0  0  0  0  0  0  0  0  0  0  0  0
    8.1888  -18.2196   28.1451 O   0  0  0  0  0  0  0  0  0  0  0  0
  2  1  1  1
  3  2  1  0
  4  2  1  0
  5  4  1  0
  5  6  1  6
  7  8  2  0
  7  5  1  0
  9  7  1  0
 10  9  1  0
 10 11  1  6
 12 16  1  0
 12 11  1  0
 13 12  2  0
 14 13  1  0
 14 15  1  0
 15 16  2  0
 17 10  1  0
 17 19  1  0
 18 17  2  0
 20 19  1  0
 20 28  1  0
 20 21  1  1
 22 21  1  0
 23 22  2  0
 24 23  1  0
 25 24  2  0
 25 26  1  0
 26 27  2  0
 27 22  1  0
 28 30  2  0
 28 29  1  0
M  END
$$$$
