LHF.pdb
     RDKit          3D

 30 31  0  0  1  0  0  0  0  0999 V2000
    6.4407  -12.2676   18.7061 C   0  0  0  0  0  0  0  0  0  0  0  0
    7.7281  -13.0253   18.9416 C   0  0  1  0  0  0  0  0  0  0  0  0
    8.8732  -12.0332   18.9871 C   0  0  0  0  0  0  0  0  0  0  0  0
    7.6293  -13.7983   20.2343 C   0  0  0  0  0  0  0  0  0  0  0  0
    8.9208  -14.4109   20.6682 C   0  0  2  0  0  0  0  0  0  0  0  0
    9.6574  -15.0694   19.6155 N   0  0  0  0  0  0  0  0  0  0  0  0
    8.6819  -15.3172   21.8382 C   0  0  0  0  0  0  0  0  0  0  0  0
    7.7815  -14.9851   22.6113 O   0  0  0  0  0  0  0  0  0  0  0  0
    9.4576  -16.4613   22.0050 N   0  0  0  0  0  0  0  0  0  0  0  0
    9.3946  -17.4949   22.9869 C   0  0  1  0  0  0  0  0  0  0  0  0
   10.1591  -18.7688   22.6392 C   0  0  0  0  0  0  0  0  0  0  0  0
    9.8928  -19.8852   23.5590 C   0  0  0  0  0  0  0  0  0  0  0  0
    8.7900  -20.0962   24.3296 C   0  0  0  0  0  0  0  0  0  0  0  0
    8.9575  -21.1978   25.0835 N   0  0  0  0  0  0  0  0  0  0  0  0
   10.1803  -21.6594   24.7634 C   0  0  0  0  0  0  0  0  0  0  0  0
   10.7594  -20.8703   23.8376 N   0  0  0  0  0  0  0  0  0  0  0  0
    9.6876  -17.0352   24.3421 C   0  0  0  0  0  0  0  0  0  0  0  0
   10.7373  -16.3348   24.5260 O   0  0  0  0  0  0  0  0  0  0  0  0
    8.9089  -17.2946   25.4893 N   0  0  0  0  0  0  0  0  0  0  0  0
    9.1650  -16.7541   26.8022 C   0  0  1  0  0  0  0  0  0  0  0  0
    7.9324  -16.1461   27.4278 C   0  0  0  0  0  0  0  0  0  0  0  0
    7.5904  -14.8275   26.8989 C   0  0  0  0  0  0  0  0  0  0  0  0
    8.4608  -13.7766   27.0792 C   0  0  0  0  0  0  0  0  0  0  0  0
    8.1851  -12.5007   26.5964 C   0  0  0  0  0  0  0  0  0  0  0  0
    7.0218  -12.2562   25.9192 C   0  0  0  0  0  0  0  0  0  0  0  0
    6.1398  -13.2889   25.7280 C   0  0  0  0  0  0  0  0  0  0  0  0
    6.4233  -14.5616   26.2140 C   0  0  0  0  0  0  0  0  0  0  0  0
    9.5931  -17.8713   27.6674 C   0  0  0  0  0  0  0  0  0  0  0  0
   10.1657  -17.6660   28.9019 O   0  0  0  0  0  0  0  0  0  0  0  0
    9.4275  -19.0401   27.2602 O   0  0  0  0  0  0  0  0  0  0  0  0
  2  1  1  1
  3  2  1  0
  4  2  1  0
  5  4  1  0
  5  6  1  6
  7  8  2  0
  7  5  1  0
  9  7  1  0
 10  9  1  0
 10 11  1  6
 12 16  1  0
 12 11  1  0
 13 12  2  0
 14 13  1  0
 14 15  1  0
 15 16  2  0
 17 10  1  0
 17 19  1  0
 18 17  2  0
 20 19  1  0
 20 28  1  0
 20 21  1  1
 22 21  1  0
 23 22  2  0
 24 23  1  0
 25 24  2  0
 25 26  1  0
 26 27  2  0
 27 22  1  0
 28 30  2  0
 28 29  1  0
M  END
$$$$
