LHF.pdb
     RDKit          3D

 30 31  0  0  1  0  0  0  0  0999 V2000
    7.5837  -12.1443   18.6485 C   0  0  0  0  0  0  0  0  0  0  0  0
    8.2667  -13.4249   18.2233 C   0  0  1  0  0  0  0  0  0  0  0  0
    9.7508  -13.1559   18.0724 C   0  0  0  0  0  0  0  0  0  0  0  0
    8.0128  -14.4982   19.2537 C   0  0  0  0  0  0  0  0  0  0  0  0
    8.6991  -15.7912   18.9561 C   0  0  2  0  0  0  0  0  0  0  0  0
    8.2813  -16.4246   17.7278 N   0  0  0  0  0  0  0  0  0  0  0  0
    8.5749  -16.7115   20.1330 C   0  0  0  0  0  0  0  0  0  0  0  0
    7.4302  -17.0376   20.4527 O   0  0  0  0  0  0  0  0  0  0  0  0
    9.7156  -17.1500   20.8000 N   0  0  0  0  0  0  0  0  0  0  0  0
    9.8607  -17.8727   22.0219 C   0  0  1  0  0  0  0  0  0  0  0  0
   11.0193  -18.8649   22.0562 C   0  0  0  0  0  0  0  0  0  0  0  0
   10.7969  -20.0594   21.2272 C   0  0  0  0  0  0  0  0  0  0  0  0
   11.1812  -20.2727   19.9383 C   0  0  0  0  0  0  0  0  0  0  0  0
   10.7305  -21.4672   19.5138 N   0  0  0  0  0  0  0  0  0  0  0  0
   10.0636  -21.9833   20.5625 C   0  0  0  0  0  0  0  0  0  0  0  0
   10.0966  -21.1371   21.6105 N   0  0  0  0  0  0  0  0  0  0  0  0
    9.8323  -17.0254   23.2114 C   0  0  0  0  0  0  0  0  0  0  0  0
   10.8173  -16.2416   23.4153 O   0  0  0  0  0  0  0  0  0  0  0  0
    8.8030  -16.9881   24.1752 N   0  0  0  0  0  0  0  0  0  0  0  0
    8.6535  -15.9701   25.1865 C   0  0  1  0  0  0  0  0  0  0  0  0
    7.6206  -14.9330   24.8149 C   0  0  0  0  0  0  0  0  0  0  0  0
    7.3593  -13.9551   25.8689 C   0  0  0  0  0  0  0  0  0  0  0  0
    8.4062  -13.2452   26.4116 C   0  0  0  0  0  0  0  0  0  0  0  0
    8.2139  -12.3023   27.4171 C   0  0  0  0  0  0  0  0  0  0  0  0
    6.9577  -12.0541   27.8986 C   0  0  0  0  0  0  0  0  0  0  0  0
    5.8996  -12.7501   27.3722 C   0  0  0  0  0  0  0  0  0  0  0  0
    6.1006  -13.6912   26.3670 C   0  0  0  0  0  0  0  0  0  0  0  0
    8.1877  -16.6338   26.4203 C   0  0  0  0  0  0  0  0  0  0  0  0
    7.4957  -17.8232   26.3976 O   0  0  0  0  0  0  0  0  0  0  0  0
    8.4328  -16.0933   27.5189 O   0  0  0  0  0  0  0  0  0  0  0  0
  2  1  1  1
  3  2  1  0
  4  2  1  0
  5  4  1  0
  5  6  1  6
  7  8  2  0
  7  5  1  0
  9  7  1  0
 10  9  1  0
 10 11  1  6
 12 16  1  0
 12 11  1  0
 13 12  2  0
 14 13  1  0
 14 15  1  0
 15 16  2  0
 17 10  1  0
 17 19  1  0
 18 17  2  0
 20 19  1  0
 20 28  1  0
 20 21  1  6
 22 21  1  0
 23 22  2  0
 24 23  1  0
 25 24  2  0
 25 26  1  0
 26 27  2  0
 27 22  1  0
 28 30  2  0
 28 29  1  0
M  END
$$$$
