LHF.pdb
     RDKit          3D

 30 31  0  0  1  0  0  0  0  0999 V2000
    7.2552  -11.8406   19.9716 C   0  0  0  0  0  0  0  0  0  0  0  0
    7.9652  -13.1470   19.6956 C   0  0  1  0  0  0  0  0  0  0  0  0
    9.4599  -12.9182   19.8008 C   0  0  0  0  0  0  0  0  0  0  0  0
    7.5059  -14.1897   20.6857 C   0  0  0  0  0  0  0  0  0  0  0  0
    8.2407  -15.4858   20.5775 C   0  0  2  0  0  0  0  0  0  0  0  0
    7.7836  -16.3490   19.5143 N   0  0  0  0  0  0  0  0  0  0  0  0
    8.2370  -16.1808   21.9058 C   0  0  0  0  0  0  0  0  0  0  0  0
    7.1337  -16.5032   22.3504 O   0  0  0  0  0  0  0  0  0  0  0  0
    9.4366  -16.4288   22.5675 N   0  0  0  0  0  0  0  0  0  0  0  0
    9.7036  -17.1288   23.7821 C   0  0  1  0  0  0  0  0  0  0  0  0
   10.5793  -18.3699   23.6377 C   0  0  0  0  0  0  0  0  0  0  0  0
    9.9208  -19.4761   22.9264 C   0  0  0  0  0  0  0  0  0  0  0  0
    8.6448  -19.5317   22.4538 C   0  0  0  0  0  0  0  0  0  0  0  0
    8.4024  -20.7428   21.9203 N   0  0  0  0  0  0  0  0  0  0  0  0
    9.5497  -21.4293   22.0730 C   0  0  0  0  0  0  0  0  0  0  0  0
   10.4807  -20.6704   22.6834 N   0  0  0  0  0  0  0  0  0  0  0  0
   10.1562  -16.2649   24.8695 C   0  0  0  0  0  0  0  0  0  0  0  0
   11.1639  -15.5121   24.6601 O   0  0  0  0  0  0  0  0  0  0  0  0
    9.5772  -16.1797   26.1530 N   0  0  0  0  0  0  0  0  0  0  0  0
   10.1321  -15.4446   27.2635 C   0  0  1  0  0  0  0  0  0  0  0  0
    9.0816  -14.6823   28.0353 C   0  0  0  0  0  0  0  0  0  0  0  0
    8.3607  -13.6947   27.2350 C   0  0  0  0  0  0  0  0  0  0  0  0
    7.1750  -14.0451   26.6302 C   0  0  0  0  0  0  0  0  0  0  0  0
    6.4480  -13.1443   25.8575 C   0  0  0  0  0  0  0  0  0  0  0  0
    6.9026  -11.8666   25.6773 C   0  0  0  0  0  0  0  0  0  0  0  0
    8.0820  -11.4958   26.2708 C   0  0  0  0  0  0  0  0  0  0  0  0
    8.8027  -12.4027   27.0419 C   0  0  0  0  0  0  0  0  0  0  0  0
   10.7347  -16.4245   28.1889 C   0  0  0  0  0  0  0  0  0  0  0  0
   11.4765  -16.0411   29.2829 O   0  0  0  0  0  0  0  0  0  0  0  0
   10.5622  -17.6411   27.9667 O   0  0  0  0  0  0  0  0  0  0  0  0
  2  1  1  1
  3  2  1  0
  4  2  1  0
  5  4  1  0
  5  6  1  6
  7  8  2  0
  7  5  1  0
  9  7  1  0
 10  9  1  0
 10 11  1  6
 12 16  1  0
 12 11  1  0
 13 12  2  0
 14 13  1  0
 14 15  1  0
 15 16  2  0
 17 10  1  0
 17 19  1  0
 18 17  2  0
 20 19  1  0
 20 28  1  0
 20 21  1  1
 22 21  1  0
 23 22  2  0
 24 23  1  0
 25 24  2  0
 25 26  1  0
 26 27  2  0
 27 22  1  0
 28 30  2  0
 28 29  1  0
M  END
$$$$
