LHF.pdb
     RDKit          3D

 30 31  0  0  1  0  0  0  0  0999 V2000
    7.8747  -12.6990   18.6163 C   0  0  0  0  0  0  0  0  0  0  0  0
    8.6630  -12.9195   19.8879 C   0  0  1  0  0  0  0  0  0  0  0  0
    8.7240  -11.6126   20.6534 C   0  0  0  0  0  0  0  0  0  0  0  0
    8.0019  -13.9987   20.7105 C   0  0  0  0  0  0  0  0  0  0  0  0
    8.3890  -15.3839   20.3070 C   0  0  2  0  0  0  0  0  0  0  0  0
    7.4764  -16.0188   19.3859 N   0  0  0  0  0  0  0  0  0  0  0  0
    8.6243  -16.2189   21.5296 C   0  0  0  0  0  0  0  0  0  0  0  0
    7.6294  -16.4939   22.2029 O   0  0  0  0  0  0  0  0  0  0  0  0
    9.9121  -16.6394   21.8507 N   0  0  0  0  0  0  0  0  0  0  0  0
   10.3977  -17.3865   22.9654 C   0  0  1  0  0  0  0  0  0  0  0  0
   11.7379  -18.0824   22.7470 C   0  0  0  0  0  0  0  0  0  0  0  0
   11.6587  -19.2451   21.8497 C   0  0  0  0  0  0  0  0  0  0  0  0
   10.5449  -19.8436   21.3440 C   0  0  0  0  0  0  0  0  0  0  0  0
   10.8900  -20.9204   20.6150 N   0  0  0  0  0  0  0  0  0  0  0  0
   12.2330  -20.9731   20.6814 C   0  0  0  0  0  0  0  0  0  0  0  0
   12.7126  -19.9601   21.4291 N   0  0  0  0  0  0  0  0  0  0  0  0
   10.3651  -16.6481   24.2254 C   0  0  0  0  0  0  0  0  0  0  0  0
   11.0462  -15.5734   24.3106 O   0  0  0  0  0  0  0  0  0  0  0  0
    9.6405  -17.0137   25.3790 N   0  0  0  0  0  0  0  0  0  0  0  0
    9.5202  -16.2082   26.5699 C   0  0  1  0  0  0  0  0  0  0  0  0
    8.0820  -15.9360   26.9413 C   0  0  0  0  0  0  0  0  0  0  0  0
    7.5957  -14.6295   26.5033 C   0  0  0  0  0  0  0  0  0  0  0  0
    6.3404  -14.5228   25.9489 C   0  0  0  0  0  0  0  0  0  0  0  0
    5.8279  -13.3037   25.5151 C   0  0  0  0  0  0  0  0  0  0  0  0
    6.5728  -12.1620   25.6315 C   0  0  0  0  0  0  0  0  0  0  0  0
    7.8265  -12.2450   26.1811 C   0  0  0  0  0  0  0  0  0  0  0  0
    8.3313  -13.4680   26.6122 C   0  0  0  0  0  0  0  0  0  0  0  0
   10.1270  -16.9658   27.6825 C   0  0  0  0  0  0  0  0  0  0  0  0
   10.4042  -16.3867   28.8997 O   0  0  0  0  0  0  0  0  0  0  0  0
   10.3956  -18.1726   27.5075 O   0  0  0  0  0  0  0  0  0  0  0  0
  2  1  1  6
  3  2  1  0
  4  2  1  0
  5  4  1  0
  5  6  1  1
  7  8  2  0
  7  5  1  0
  9  7  1  0
 10  9  1  0
 10 11  1  6
 12 16  1  0
 12 11  1  0
 13 12  2  0
 14 13  1  0
 14 15  1  0
 15 16  2  0
 17 10  1  0
 17 19  1  0
 18 17  2  0
 20 19  1  0
 20 28  1  0
 20 21  1  1
 22 21  1  0
 23 22  2  0
 24 23  1  0
 25 24  2  0
 25 26  1  0
 26 27  2  0
 27 22  1  0
 28 30  2  0
 28 29  1  0
M  END
$$$$
