LHF.pdb
     RDKit          3D

 30 31  0  0  1  0  0  0  0  0999 V2000
    7.9851  -11.8436   20.9836 C   0  0  0  0  0  0  0  0  0  0  0  0
    7.7118  -13.3221   20.8223 C   0  0  1  0  0  0  0  0  0  0  0  0
    6.7110  -13.5106   19.6995 C   0  0  0  0  0  0  0  0  0  0  0  0
    9.0032  -14.0443   20.5237 C   0  0  0  0  0  0  0  0  0  0  0  0
    8.8500  -15.5256   20.4066 C   0  0  2  0  0  0  0  0  0  0  0  0
    7.7246  -15.9523   19.6092 N   0  0  0  0  0  0  0  0  0  0  0  0
    8.8356  -16.1415   21.7733 C   0  0  0  0  0  0  0  0  0  0  0  0
    7.7272  -16.4155   22.2371 O   0  0  0  0  0  0  0  0  0  0  0  0
   10.0316  -16.3740   22.4470 N   0  0  0  0  0  0  0  0  0  0  0  0
   10.3006  -17.1038   23.6434 C   0  0  1  0  0  0  0  0  0  0  0  0
   11.4639  -18.0873   23.5569 C   0  0  0  0  0  0  0  0  0  0  0  0
   11.2327  -19.1918   22.6136 C   0  0  0  0  0  0  0  0  0  0  0  0
   10.1254  -19.9748   22.4894 C   0  0  0  0  0  0  0  0  0  0  0  0
   10.3300  -20.9187   21.5528 N   0  0  0  0  0  0  0  0  0  0  0  0
   11.5802  -20.7026   21.1043 C   0  0  0  0  0  0  0  0  0  0  0  0
   12.1399  -19.6555   21.7412 N   0  0  0  0  0  0  0  0  0  0  0  0
   10.3828  -16.2648   24.8364 C   0  0  0  0  0  0  0  0  0  0  0  0
   11.1467  -15.2443   24.8026 O   0  0  0  0  0  0  0  0  0  0  0  0
    9.6870  -16.4762   26.0450 N   0  0  0  0  0  0  0  0  0  0  0  0
    9.9174  -15.7497   27.2700 C   0  0  1  0  0  0  0  0  0  0  0  0
    8.6346  -15.2836   27.9161 C   0  0  0  0  0  0  0  0  0  0  0  0
    7.9437  -14.2349   27.1690 C   0  0  0  0  0  0  0  0  0  0  0  0
    6.8463  -14.5569   26.4031 C   0  0  0  0  0  0  0  0  0  0  0  0
    6.1513  -13.5981   25.6720 C   0  0  0  0  0  0  0  0  0  0  0  0
    6.5494  -12.2894   25.6974 C   0  0  0  0  0  0  0  0  0  0  0  0
    7.6405  -11.9459   26.4539 C   0  0  0  0  0  0  0  0  0  0  0  0
    8.3297  -12.9110   27.1820 C   0  0  0  0  0  0  0  0  0  0  0  0
   10.5781  -16.6709   28.2159 C   0  0  0  0  0  0  0  0  0  0  0  0
   11.1425  -16.2343   29.3927 O   0  0  0  0  0  0  0  0  0  0  0  0
   10.6234  -17.8864   27.9336 O   0  0  0  0  0  0  0  0  0  0  0  0
  2  1  1  6
  3  2  1  0
  4  2  1  0
  5  4  1  0
  5  6  1  1
  7  8  2  0
  7  5  1  0
  9  7  1  0
 10  9  1  0
 10 11  1  6
 12 16  1  0
 12 11  1  0
 13 12  2  0
 14 13  1  0
 14 15  1  0
 15 16  2  0
 17 10  1  0
 17 19  1  0
 18 17  2  0
 20 19  1  0
 20 28  1  0
 20 21  1  1
 22 21  1  0
 23 22  2  0
 24 23  1  0
 25 24  2  0
 25 26  1  0
 26 27  2  0
 27 22  1  0
 28 30  2  0
 28 29  1  0
M  END
$$$$
