LHF.pdb
     RDKit          3D

 30 31  0  0  1  0  0  0  0  0999 V2000
    7.1962  -11.9439   19.7510 C   0  0  0  0  0  0  0  0  0  0  0  0
    8.0160  -13.1907   19.5053 C   0  0  1  0  0  0  0  0  0  0  0  0
    9.4195  -12.7778   19.1084 C   0  0  0  0  0  0  0  0  0  0  0  0
    8.0334  -14.0374   20.7547 C   0  0  0  0  0  0  0  0  0  0  0  0
    8.8021  -15.3098   20.6076 C   0  0  2  0  0  0  0  0  0  0  0  0
    8.3579  -16.1589   19.5277 N   0  0  0  0  0  0  0  0  0  0  0  0
    8.8306  -16.0370   21.9183 C   0  0  0  0  0  0  0  0  0  0  0  0
    7.7377  -16.3601   22.3874 O   0  0  0  0  0  0  0  0  0  0  0  0
   10.0466  -16.3120   22.5379 N   0  0  0  0  0  0  0  0  0  0  0  0
   10.3433  -17.0537   23.7204 C   0  0  1  0  0  0  0  0  0  0  0  0
   11.4652  -18.0782   23.5804 C   0  0  0  0  0  0  0  0  0  0  0  0
   11.0944  -19.2516   22.7748 C   0  0  0  0  0  0  0  0  0  0  0  0
    9.8828  -19.5486   22.2285 C   0  0  0  0  0  0  0  0  0  0  0  0
    9.9328  -20.7465   21.6181 N   0  0  0  0  0  0  0  0  0  0  0  0
   11.1940  -21.1797   21.7985 C   0  0  0  0  0  0  0  0  0  0  0  0
   11.9104  -20.2800   22.5002 N   0  0  0  0  0  0  0  0  0  0  0  0
   10.5100  -16.2208   24.9088 C   0  0  0  0  0  0  0  0  0  0  0  0
   11.4097  -15.3173   24.8889 O   0  0  0  0  0  0  0  0  0  0  0  0
    9.7593  -16.3193   26.0990 N   0  0  0  0  0  0  0  0  0  0  0  0
   10.0597  -15.6229   27.3263 C   0  0  1  0  0  0  0  0  0  0  0  0
    8.8184  -15.1256   28.0279 C   0  0  0  0  0  0  0  0  0  0  0  0
    8.0944  -14.0943   27.2878 C   0  0  0  0  0  0  0  0  0  0  0  0
    8.5920  -12.8116   27.2472 C   0  0  0  0  0  0  0  0  0  0  0  0
    7.9434  -11.7914   26.5576 C   0  0  0  0  0  0  0  0  0  0  0  0
    6.7750  -12.0436   25.8919 C   0  0  0  0  0  0  0  0  0  0  0  0
    6.2610  -13.3148   25.9191 C   0  0  0  0  0  0  0  0  0  0  0  0
    6.9159  -14.3290   26.6110 C   0  0  0  0  0  0  0  0  0  0  0  0
   10.7230  -16.5825   28.2313 C   0  0  0  0  0  0  0  0  0  0  0  0
   11.2923  -16.1948   29.4228 O   0  0  0  0  0  0  0  0  0  0  0  0
   10.7661  -17.7855   27.8994 O   0  0  0  0  0  0  0  0  0  0  0  0
  2  1  1  1
  3  2  1  0
  4  2  1  0
  5  4  1  0
  5  6  1  6
  7  8  2  0
  7  5  1  0
  9  7  1  0
 10  9  1  0
 10 11  1  6
 12 16  1  0
 12 11  1  0
 13 12  2  0
 14 13  1  0
 14 15  1  0
 15 16  2  0
 17 10  1  0
 17 19  1  0
 18 17  2  0
 20 19  1  0
 20 28  1  0
 20 21  1  1
 22 21  1  0
 23 22  2  0
 24 23  1  0
 25 24  2  0
 25 26  1  0
 26 27  2  0
 27 22  1  0
 28 30  2  0
 28 29  1  0
M  END
$$$$
