LHF.pdb
     RDKit          3D

 30 31  0  0  1  0  0  0  0  0999 V2000
    6.9911  -12.6282   18.7980 C   0  0  0  0  0  0  0  0  0  0  0  0
    8.0894  -13.5302   19.3146 C   0  0  1  0  0  0  0  0  0  0  0  0
    9.3637  -12.7191   19.4411 C   0  0  0  0  0  0  0  0  0  0  0  0
    7.6815  -14.1094   20.6475 C   0  0  0  0  0  0  0  0  0  0  0  0
    8.6746  -15.0706   21.2143 C   0  0  2  0  0  0  0  0  0  0  0  0
    9.0859  -16.1151   20.3063 N   0  0  0  0  0  0  0  0  0  0  0  0
    8.1605  -15.6228   22.5097 C   0  0  0  0  0  0  0  0  0  0  0  0
    6.9733  -15.9529   22.5297 O   0  0  0  0  0  0  0  0  0  0  0  0
    9.0111  -15.7392   23.6057 N   0  0  0  0  0  0  0  0  0  0  0  0
    9.8855  -16.7963   23.9987 C   0  0  1  0  0  0  0  0  0  0  0  0
   10.7672  -17.3574   22.8870 C   0  0  0  0  0  0  0  0  0  0  0  0
   11.5564  -18.5293   23.2958 C   0  0  0  0  0  0  0  0  0  0  0  0
   12.3488  -18.6687   24.3946 C   0  0  0  0  0  0  0  0  0  0  0  0
   12.9541  -19.8701   24.3778 N   0  0  0  0  0  0  0  0  0  0  0  0
   12.5208  -20.4655   23.2515 C   0  0  0  0  0  0  0  0  0  0  0  0
   11.6705  -19.6608   22.5847 N   0  0  0  0  0  0  0  0  0  0  0  0
   10.6511  -16.5052   25.2082 C   0  0  0  0  0  0  0  0  0  0  0  0
   11.5121  -17.3622   25.5959 O   0  0  0  0  0  0  0  0  0  0  0  0
   10.5295  -15.3474   26.0046 N   0  0  0  0  0  0  0  0  0  0  0  0
   10.0963  -15.3319   27.3807 C   0  0  1  0  0  0  0  0  0  0  0  0
    8.5929  -15.3807   27.5143 C   0  0  0  0  0  0  0  0  0  0  0  0
    7.9168  -14.1814   27.0244 C   0  0  0  0  0  0  0  0  0  0  0  0
    8.4917  -12.9471   27.2262 C   0  0  0  0  0  0  0  0  0  0  0  0
    7.8913  -11.7732   26.7807 C   0  0  0  0  0  0  0  0  0  0  0  0
    6.6942  -11.8189   26.1199 C   0  0  0  0  0  0  0  0  0  0  0  0
    6.1033  -13.0382   25.9079 C   0  0  0  0  0  0  0  0  0  0  0  0
    6.7104  -14.2071   26.3566 C   0  0  0  0  0  0  0  0  0  0  0  0
   10.6362  -16.5426   28.0306 C   0  0  0  0  0  0  0  0  0  0  0  0
   10.5461  -16.7491   29.3883 O   0  0  0  0  0  0  0  0  0  0  0  0
   11.1924  -17.4053   27.3195 O   0  0  0  0  0  0  0  0  0  0  0  0
  2  1  1  1
  3  2  1  0
  4  2  1  0
  5  4  1  0
  5  6  1  6
  7  8  2  0
  7  5  1  0
  9  7  1  0
 10  9  1  0
 10 11  1  6
 12 16  1  0
 12 11  1  0
 13 12  2  0
 14 13  1  0
 14 15  1  0
 15 16  2  0
 17 10  1  0
 17 19  1  0
 18 17  2  0
 20 19  1  0
 20 28  1  0
 20 21  1  6
 22 21  1  0
 23 22  2  0
 24 23  1  0
 25 24  2  0
 25 26  1  0
 26 27  2  0
 27 22  1  0
 28 30  2  0
 28 29  1  0
M  END
$$$$
