ILA.pdb
     RDKit          3D

 22 21  0  0  1  0  0  0  0  0999 V2000
   17.8574  -15.0446  -19.8486 C   0  0  0  0  0  0  0  0  0  0  0  0
   18.6682  -13.8017  -20.0796 C   0  0  0  0  0  0  0  0  0  0  0  0
   18.8156  -12.9235  -18.8811 C   0  0  2  0  0  0  0  0  0  0  0  0
   17.4177  -12.5471  -18.4272 C   0  0  0  0  0  0  0  0  0  0  0  0
   19.6283  -11.6975  -19.2312 C   0  0  2  0  0  0  0  0  0  0  0  0
   20.9047  -12.1083  -19.7432 N   0  0  0  0  0  0  0  0  0  0  0  0
   19.8254  -10.8314  -18.0435 C   0  0  0  0  0  0  0  0  0  0  0  0
   18.8060  -10.5107  -17.3937 O   0  0  0  0  0  0  0  0  0  0  0  0
   21.9512  -11.1996  -14.0384 C   0  0  0  0  0  0  0  0  0  0  0  0
   22.9053  -10.7854  -15.1185 C   0  0  2  0  0  0  0  0  0  0  0  0
   24.3217  -10.9337  -14.6482 C   0  0  0  0  0  0  0  0  0  0  0  0
   22.5614   -9.6008  -15.9060 C   0  0  0  0  0  0  0  0  0  0  0  0
   21.2252   -9.4325  -16.4928 C   0  0  2  0  0  0  0  0  0  0  0  0
   21.0870  -10.3648  -17.6262 N   0  0  0  0  0  0  0  0  0  0  0  0
   20.7402   -8.1069  -16.8288 C   0  0  0  0  0  0  0  0  0  0  0  0
   21.2487   -7.4858  -17.7905 O   0  0  0  0  0  0  0  0  0  0  0  0
   17.9037   -5.7660  -16.0265 C   0  0  0  0  0  0  0  0  0  0  0  0
   19.3203   -6.0834  -16.4693 C   0  0  2  0  0  0  0  0  0  0  0  0
   19.6962   -7.4315  -16.1288 N   0  0  0  0  0  0  0  0  0  0  0  0
   20.2426   -5.1467  -15.7964 C   0  0  0  0  0  0  0  0  0  0  0  0
   20.1498   -3.9267  -16.0177 O   0  0  0  0  0  0  0  0  0  0  0  0
   21.2182   -5.6333  -14.9120 O   0  0  0  0  0  0  0  0  0  0  0  0
  2  1  1  0
  3  2  1  0
  3  4  1  6
  5  3  1  0
  5  6  1  1
  7  5  1  0
  7  8  2  0
 10  9  1  1
 10 12  1  0
 10 11  1  0
 13 12  1  6
 13 14  1  0
 14  7  1  0
 15 13  1  0
 15 19  1  0
 16 15  2  0
 18 17  1  1
 18 20  1  0
 19 18  1  0
 20 21  2  0
 20 22  1  0
M  END
$$$$
