ILA.pdb
     RDKit          3D

 22 21  0  0  1  0  0  0  0  0999 V2000
   21.6309  -14.7656  -21.9340 C   0  0  0  0  0  0  0  0  0  0  0  0
   21.9250  -13.8492  -20.7810 C   0  0  0  0  0  0  0  0  0  0  0  0
   20.7233  -13.1920  -20.1866 C   0  0  2  0  0  0  0  0  0  0  0  0
   20.0784  -12.3635  -21.2818 C   0  0  0  0  0  0  0  0  0  0  0  0
   21.1289  -12.3301  -19.0124 C   0  0  2  0  0  0  0  0  0  0  0  0
   21.8619  -13.1291  -18.0719 N   0  0  0  0  0  0  0  0  0  0  0  0
   19.9410  -11.7437  -18.3458 C   0  0  0  0  0  0  0  0  0  0  0  0
   19.2260  -10.9739  -19.0243 O   0  0  0  0  0  0  0  0  0  0  0  0
   16.3700  -12.8674  -13.4223 C   0  0  0  0  0  0  0  0  0  0  0  0
   16.6640  -12.0062  -14.6141 C   0  0  2  0  0  0  0  0  0  0  0  0
   15.3931  -11.6491  -15.3258 C   0  0  0  0  0  0  0  0  0  0  0  0
   17.8338  -12.3496  -15.4236 C   0  0  0  0  0  0  0  0  0  0  0  0
   18.4067  -11.3973  -16.3843 C   0  0  2  0  0  0  0  0  0  0  0  0
   19.5926  -12.0122  -17.0079 N   0  0  0  0  0  0  0  0  0  0  0  0
   18.6635  -10.0263  -15.9843 C   0  0  0  0  0  0  0  0  0  0  0  0
   19.6145   -9.7744  -15.2088 O   0  0  0  0  0  0  0  0  0  0  0  0
   18.0218   -6.5669  -17.1344 C   0  0  0  0  0  0  0  0  0  0  0  0
   18.2346   -7.5656  -16.0115 C   0  0  2  0  0  0  0  0  0  0  0  0
   17.8946   -8.9052  -16.4174 N   0  0  0  0  0  0  0  0  0  0  0  0
   17.3772   -7.1802  -14.8726 C   0  0  0  0  0  0  0  0  0  0  0  0
   16.4255   -7.9100  -14.5446 O   0  0  0  0  0  0  0  0  0  0  0  0
   17.6371   -5.9956  -14.1655 O   0  0  0  0  0  0  0  0  0  0  0  0
  2  1  1  0
  3  2  1  0
  3  4  1  6
  5  3  1  0
  5  6  1  1
  7  5  1  0
  7  8  2  0
 10  9  1  1
 10 12  1  0
 10 11  1  0
 13 12  1  1
 13 14  1  0
 14  7  1  0
 15 13  1  0
 15 19  1  0
 16 15  2  0
 18 17  1  6
 18 20  1  0
 19 18  1  0
 20 21  2  0
 20 22  1  0
M  END
$$$$
