ILA.pdb
     RDKit          3D

 22 21  0  0  1  0  0  0  0  0999 V2000
   14.7264  -22.2368   -1.6587 C   0  0  0  0  0  0  0  0  0  0  0  0
   14.4644  -21.9608   -0.2058 C   0  0  0  0  0  0  0  0  0  0  0  0
   15.6392  -22.1768    0.6900 C   0  0  2  0  0  0  0  0  0  0  0  0
   16.0126  -23.6441    0.5927 C   0  0  0  0  0  0  0  0  0  0  0  0
   15.2888  -21.7921    2.1096 C   0  0  2  0  0  0  0  0  0  0  0  0
   14.7070  -20.4800    2.1126 N   0  0  0  0  0  0  0  0  0  0  0  0
   16.4912  -21.8038    2.9776 C   0  0  0  0  0  0  0  0  0  0  0  0
   17.0956  -22.8916    3.1032 O   0  0  0  0  0  0  0  0  0  0  0  0
   19.8673  -17.5909    6.0899 C   0  0  0  0  0  0  0  0  0  0  0  0
   19.6134  -19.0358    5.7799 C   0  0  2  0  0  0  0  0  0  0  0  0
   20.8980  -19.8093    5.8100 C   0  0  0  0  0  0  0  0  0  0  0  0
   18.6505  -19.3406    4.7208 C   0  0  0  0  0  0  0  0  0  0  0  0
   18.1938  -20.7146    4.4730 C   0  0  2  0  0  0  0  0  0  0  0  0
   16.9703  -20.6642    3.6524 N   0  0  0  0  0  0  0  0  0  0  0  0
   18.0589  -21.6464    5.5770 C   0  0  0  0  0  0  0  0  0  0  0  0
   17.1145  -21.5130    6.3893 O   0  0  0  0  0  0  0  0  0  0  0  0
   18.9628  -25.0729    6.5602 C   0  0  0  0  0  0  0  0  0  0  0  0
   18.7519  -23.6195    6.9432 C   0  0  2  0  0  0  0  0  0  0  0  0
   18.9444  -22.7385    5.8201 N   0  0  0  0  0  0  0  0  0  0  0  0
   19.7236  -23.2671    7.9980 C   0  0  0  0  0  0  0  0  0  0  0  0
   20.6635  -22.4965    7.7358 O   0  0  0  0  0  0  0  0  0  0  0  0
   19.5850  -23.8006    9.2891 O   0  0  0  0  0  0  0  0  0  0  0  0
  2  1  1  0
  3  2  1  0
  3  4  1  1
  5  3  1  0
  5  6  1  6
  7  5  1  0
  7  8  2  0
 10  9  1  6
 10 12  1  0
 10 11  1  0
 13 12  1  1
 13 14  1  0
 14  7  1  0
 15 13  1  0
 15 19  1  0
 16 15  2  0
 18 17  1  6
 18 20  1  0
 19 18  1  0
 20 21  2  0
 20 22  1  0
M  END
$$$$
