ILA.pdb
     RDKit          3D

 22 21  0  0  1  0  0  0  0  0999 V2000
   26.7953  -18.4825  -18.9580 C   0  0  0  0  0  0  0  0  0  0  0  0
   27.2874  -19.0048  -17.6387 C   0  0  0  0  0  0  0  0  0  0  0  0
   26.2375  -19.6469  -16.7933 C   0  0  2  0  0  0  0  0  0  0  0  0
   25.1127  -18.6411  -16.6355 C   0  0  0  0  0  0  0  0  0  0  0  0
   26.8166  -20.0383  -15.4525 C   0  0  2  0  0  0  0  0  0  0  0  0
   27.9230  -20.9291  -15.6586 N   0  0  0  0  0  0  0  0  0  0  0  0
   25.7968  -20.7017  -14.6043 C   0  0  0  0  0  0  0  0  0  0  0  0
   25.4551  -21.8620  -14.9223 O   0  0  0  0  0  0  0  0  0  0  0  0
   26.1965  -22.2288  -10.8267 C   0  0  0  0  0  0  0  0  0  0  0  0
   25.6668  -20.8439  -10.6029 C   0  0  2  0  0  0  0  0  0  0  0  0
   25.8540  -20.4391   -9.1710 C   0  0  0  0  0  0  0  0  0  0  0  0
   24.4094  -20.4869  -11.2610 C   0  0  0  0  0  0  0  0  0  0  0  0
   24.1783  -20.7800  -12.6818 C   0  0  2  0  0  0  0  0  0  0  0  0
   25.2094  -20.0913  -13.4791 N   0  0  0  0  0  0  0  0  0  0  0  0
   22.8563  -20.6076  -13.2543 C   0  0  0  0  0  0  0  0  0  0  0  0
   22.3455  -19.4647  -13.3023 O   0  0  0  0  0  0  0  0  0  0  0  0
   20.5486  -22.3217  -15.5937 C   0  0  0  0  0  0  0  0  0  0  0  0
   20.7889  -21.4139  -14.4013 C   0  0  2  0  0  0  0  0  0  0  0  0
   22.0651  -21.6700  -13.7845 N   0  0  0  0  0  0  0  0  0  0  0  0
   19.7225  -21.6527  -13.4080 C   0  0  0  0  0  0  0  0  0  0  0  0
   20.0017  -22.1937  -12.3239 O   0  0  0  0  0  0  0  0  0  0  0  0
   18.4013  -21.2699  -13.6884 O   0  0  0  0  0  0  0  0  0  0  0  0
  2  1  1  0
  3  2  1  0
  3  4  1  1
  5  3  1  0
  5  6  1  6
  7  5  1  0
  7  8  2  0
 10  9  1  1
 10 12  1  0
 10 11  1  0
 13 12  1  1
 13 14  1  0
 14  7  1  0
 15 13  1  0
 15 19  1  0
 16 15  2  0
 18 17  1  6
 18 20  1  0
 19 18  1  0
 20 21  2  0
 20 22  1  0
M  END
$$$$
