ILA.pdb
     RDKit          3D

 22 21  0  0  1  0  0  0  0  0999 V2000
   14.5417  -11.5042  -19.5152 C   0  0  0  0  0  0  0  0  0  0  0  0
   15.6926  -12.0259  -18.7034 C   0  0  0  0  0  0  0  0  0  0  0  0
   16.3673  -11.0022  -17.8513 C   0  0  2  0  0  0  0  0  0  0  0  0
   16.9239   -9.9413  -18.7821 C   0  0  0  0  0  0  0  0  0  0  0  0
   17.4643  -11.6465  -17.0342 C   0  0  2  0  0  0  0  0  0  0  0  0
   16.8903  -12.6466  -16.1795 N   0  0  0  0  0  0  0  0  0  0  0  0
   18.1774  -10.6399  -16.2109 C   0  0  0  0  0  0  0  0  0  0  0  0
   17.5743  -10.1852  -15.2140 O   0  0  0  0  0  0  0  0  0  0  0  0
   21.3134   -8.4925  -12.9740 C   0  0  0  0  0  0  0  0  0  0  0  0
   21.7754   -9.6187  -13.8496 C   0  0  2  0  0  0  0  0  0  0  0  0
   23.1696  -10.0290  -13.4796 C   0  0  0  0  0  0  0  0  0  0  0  0
   21.4302   -9.5552  -15.2704 C   0  0  0  0  0  0  0  0  0  0  0  0
   20.1056   -9.1038  -15.7174 C   0  0  2  0  0  0  0  0  0  0  0  0
   19.4784  -10.1844  -16.4997 N   0  0  0  0  0  0  0  0  0  0  0  0
   19.9581   -7.8164  -16.3702 C   0  0  0  0  0  0  0  0  0  0  0  0
   20.4930   -7.6219  -17.4861 O   0  0  0  0  0  0  0  0  0  0  0  0
   17.7172   -4.8903  -16.4364 C   0  0  0  0  0  0  0  0  0  0  0  0
   19.1160   -5.4705  -16.5370 C   0  0  2  0  0  0  0  0  0  0  0  0
   19.2286   -6.7178  -15.8253 N   0  0  0  0  0  0  0  0  0  0  0  0
   20.0680   -4.5023  -15.9562 C   0  0  0  0  0  0  0  0  0  0  0  0
   20.3278   -3.4521  -16.5689 O   0  0  0  0  0  0  0  0  0  0  0  0
   20.6751   -4.7684  -14.7187 O   0  0  0  0  0  0  0  0  0  0  0  0
  2  1  1  0
  3  2  1  0
  3  4  1  6
  5  3  1  0
  5  6  1  1
  7  5  1  0
  7  8  2  0
 10  9  1  6
 10 12  1  0
 10 11  1  0
 13 12  1  6
 13 14  1  0
 14  7  1  0
 15 13  1  0
 15 19  1  0
 16 15  2  0
 18 17  1  1
 18 20  1  0
 19 18  1  0
 20 21  2  0
 20 22  1  0
M  END
$$$$
