ILA.pdb
     RDKit          3D

 22 21  0  0  1  0  0  0  0  0999 V2000
   15.9851  -14.4817  -17.3050 C   0  0  0  0  0  0  0  0  0  0  0  0
   16.8716  -13.4076  -17.8672 C   0  0  0  0  0  0  0  0  0  0  0  0
   17.1840  -12.2986  -16.9176 C   0  0  2  0  0  0  0  0  0  0  0  0
   15.8611  -11.7020  -16.4752 C   0  0  0  0  0  0  0  0  0  0  0  0
   18.0544  -11.2639  -17.5943 C   0  0  2  0  0  0  0  0  0  0  0  0
   19.1731  -11.9188  -18.2105 N   0  0  0  0  0  0  0  0  0  0  0  0
   18.5432  -10.2585  -16.6197 C   0  0  0  0  0  0  0  0  0  0  0  0
   17.7065   -9.7812  -15.8219 O   0  0  0  0  0  0  0  0  0  0  0  0
   21.4945   -9.9702  -13.0938 C   0  0  0  0  0  0  0  0  0  0  0  0
   22.1634   -9.8956  -14.4337 C   0  0  2  0  0  0  0  0  0  0  0  0
   23.6397  -10.1191  -14.2929 C   0  0  0  0  0  0  0  0  0  0  0  0
   21.7092   -8.8564  -15.3586 C   0  0  0  0  0  0  0  0  0  0  0  0
   20.2884   -8.7008  -15.6981 C   0  0  2  0  0  0  0  0  0  0  0  0
   19.8827   -9.8279  -16.5573 N   0  0  0  0  0  0  0  0  0  0  0  0
   19.7972   -7.4350  -16.2096 C   0  0  0  0  0  0  0  0  0  0  0  0
   20.0099   -7.1244  -17.4045 O   0  0  0  0  0  0  0  0  0  0  0  0
   17.3277   -4.7622  -15.3563 C   0  0  0  0  0  0  0  0  0  0  0  0
   18.6066   -5.2478  -16.0137 C   0  0  2  0  0  0  0  0  0  0  0  0
   19.0674   -6.4840  -15.4357 N   0  0  0  0  0  0  0  0  0  0  0  0
   19.6485   -4.2175  -15.8296 C   0  0  0  0  0  0  0  0  0  0  0  0
   20.6595   -4.4789  -15.1546 O   0  0  0  0  0  0  0  0  0  0  0  0
   19.4963   -2.9505  -16.4145 O   0  0  0  0  0  0  0  0  0  0  0  0
  2  1  1  0
  3  2  1  0
  3  4  1  6
  5  3  1  0
  5  6  1  1
  7  5  1  0
  7  8  2  0
 10  9  1  1
 10 12  1  0
 10 11  1  0
 13 12  1  6
 13 14  1  0
 14  7  1  0
 15 13  1  0
 15 19  1  0
 16 15  2  0
 18 17  1  1
 18 20  1  0
 19 18  1  0
 20 21  2  0
 20 22  1  0
M  END
$$$$
