ILA.pdb
     RDKit          3D

 22 21  0  0  1  0  0  0  0  0999 V2000
   19.8352  -13.0998  -22.0413 C   0  0  0  0  0  0  0  0  0  0  0  0
   21.0938  -13.1847  -21.2262 C   0  0  0  0  0  0  0  0  0  0  0  0
   21.1119  -12.3094  -20.0167 C   0  0  2  0  0  0  0  0  0  0  0  0
   20.9079  -10.8835  -20.4930 C   0  0  0  0  0  0  0  0  0  0  0  0
   22.4259  -12.4612  -19.2842 C   0  0  2  0  0  0  0  0  0  0  0  0
   22.5852  -13.8293  -18.8802 N   0  0  0  0  0  0  0  0  0  0  0  0
   22.4756  -11.5823  -18.0906 C   0  0  0  0  0  0  0  0  0  0  0  0
   21.7039  -11.8569  -17.1454 O   0  0  0  0  0  0  0  0  0  0  0  0
   25.2316  -11.1725  -14.9750 C   0  0  0  0  0  0  0  0  0  0  0  0
   25.6284  -10.2024  -16.0474 C   0  0  2  0  0  0  0  0  0  0  0  0
   27.0505   -9.7662  -15.8559 C   0  0  0  0  0  0  0  0  0  0  0  0
   24.6455   -9.1928  -16.4425 C   0  0  0  0  0  0  0  0  0  0  0  0
   23.2759   -9.5645  -16.8221 C   0  0  2  0  0  0  0  0  0  0  0  0
   23.3380  -10.4743  -17.9803 N   0  0  0  0  0  0  0  0  0  0  0  0
   22.2671   -8.5373  -17.0028 C   0  0  0  0  0  0  0  0  0  0  0  0
   22.2526   -7.8610  -18.0572 O   0  0  0  0  0  0  0  0  0  0  0  0
   18.9219   -7.5421  -15.7651 C   0  0  0  0  0  0  0  0  0  0  0  0
   20.3002   -7.1755  -16.2840 C   0  0  2  0  0  0  0  0  0  0  0  0
   21.2570   -8.2252  -16.0446 N   0  0  0  0  0  0  0  0  0  0  0  0
   20.7515   -5.9517  -15.5915 C   0  0  0  0  0  0  0  0  0  0  0  0
   21.7548   -5.9944  -14.8583 O   0  0  0  0  0  0  0  0  0  0  0  0
   20.0499   -4.7477  -15.7615 O   0  0  0  0  0  0  0  0  0  0  0  0
  2  1  1  0
  3  2  1  0
  3  4  1  6
  5  3  1  0
  5  6  1  1
  7  5  1  0
  7  8  2  0
 10  9  1  1
 10 12  1  0
 10 11  1  0
 13 12  1  6
 13 14  1  0
 14  7  1  0
 15 13  1  0
 15 19  1  0
 16 15  2  0
 18 17  1  1
 18 20  1  0
 19 18  1  0
 20 21  2  0
 20 22  1  0
M  END
$$$$
