ILA.pdb
     RDKit          3D

 22 21  0  0  1  0  0  0  0  0999 V2000
   28.2339  -20.2512  -16.1034 C   0  0  0  0  0  0  0  0  0  0  0  0
   27.0903  -19.8570  -15.2132 C   0  0  0  0  0  0  0  0  0  0  0  0
   27.1603  -20.4111  -13.8285 C   0  0  2  0  0  0  0  0  0  0  0  0
   27.2940  -21.9171  -13.9551 C   0  0  0  0  0  0  0  0  0  0  0  0
   25.9183  -20.0331  -13.0534 C   0  0  2  0  0  0  0  0  0  0  0  0
   25.7797  -18.6044  -13.0526 N   0  0  0  0  0  0  0  0  0  0  0  0
   25.9912  -20.5253  -11.6563 C   0  0  0  0  0  0  0  0  0  0  0  0
   25.7956  -21.7464  -11.4690 O   0  0  0  0  0  0  0  0  0  0  0  0
   27.3187  -18.4559   -6.1057 C   0  0  0  0  0  0  0  0  0  0  0  0
   27.3028  -19.7126   -6.9237 C   0  0  2  0  0  0  0  0  0  0  0  0
   28.2497  -20.7225   -6.3469 C   0  0  0  0  0  0  0  0  0  0  0  0
   27.2499  -19.5706   -8.3793 C   0  0  0  0  0  0  0  0  0  0  0  0
   26.1809  -20.1934   -9.1713 C   0  0  2  0  0  0  0  0  0  0  0  0
   26.2655  -19.6916  -10.5549 N   0  0  0  0  0  0  0  0  0  0  0  0
   24.8147  -20.1855   -8.6825 C   0  0  0  0  0  0  0  0  0  0  0  0
   24.1383  -19.1331   -8.7490 O   0  0  0  0  0  0  0  0  0  0  0  0
   21.7942  -21.6453   -8.6631 C   0  0  0  0  0  0  0  0  0  0  0  0
   22.8094  -21.2252   -7.6160 C   0  0  2  0  0  0  0  0  0  0  0  0
   24.1580  -21.3171   -8.1134 N   0  0  0  0  0  0  0  0  0  0  0  0
   22.6710  -22.1149   -6.4455 C   0  0  0  0  0  0  0  0  0  0  0  0
   23.5852  -22.9097   -6.1656 O   0  0  0  0  0  0  0  0  0  0  0  0
   21.5124  -22.0619   -5.6544 O   0  0  0  0  0  0  0  0  0  0  0  0
  2  1  1  0
  3  2  1  0
  3  4  1  6
  5  3  1  0
  5  6  1  1
  7  5  1  0
  7  8  2  0
 10  9  1  1
 10 12  1  0
 10 11  1  0
 13 12  1  1
 13 14  1  0
 14  7  1  0
 15 13  1  0
 15 19  1  0
 16 15  2  0
 18 17  1  6
 18 20  1  0
 19 18  1  0
 20 21  2  0
 20 22  1  0
M  END
$$$$
