ILA.pdb
     RDKit          3D

 22 21  0  0  1  0  0  0  0  0999 V2000
   22.4155  -13.0174  -16.1124 C   0  0  0  0  0  0  0  0  0  0  0  0
   22.0291  -11.6555  -15.6111 C   0  0  0  0  0  0  0  0  0  0  0  0
   23.1302  -10.6473  -15.6378 C   0  0  2  0  0  0  0  0  0  0  0  0
   24.2535  -11.1882  -14.7734 C   0  0  0  0  0  0  0  0  0  0  0  0
   22.6305   -9.3173  -15.1204 C   0  0  2  0  0  0  0  0  0  0  0  0
   22.0243   -9.5096  -13.8336 N   0  0  0  0  0  0  0  0  0  0  0  0
   21.6415   -8.7208  -16.0507 C   0  0  0  0  0  0  0  0  0  0  0  0
   22.0690   -8.3028  -17.1492 O   0  0  0  0  0  0  0  0  0  0  0  0
   16.7066   -7.3830  -18.2235 C   0  0  0  0  0  0  0  0  0  0  0  0
   17.2123   -8.7693  -17.9571 C   0  0  2  0  0  0  0  0  0  0  0  0
   16.0928   -9.7619  -18.0615 C   0  0  0  0  0  0  0  0  0  0  0  0
   18.1839   -8.9379  -16.8758 C   0  0  0  0  0  0  0  0  0  0  0  0
   19.3205   -8.0209  -16.7174 C   0  0  2  0  0  0  0  0  0  0  0  0
   20.2693   -8.6078  -15.7540 N   0  0  0  0  0  0  0  0  0  0  0  0
   19.0880   -6.6140  -16.4492 C   0  0  0  0  0  0  0  0  0  0  0  0
   18.7385   -6.2508  -15.3024 O   0  0  0  0  0  0  0  0  0  0  0  0
   19.5929   -3.2717  -18.1625 C   0  0  0  0  0  0  0  0  0  0  0  0
   19.1259   -4.1889  -17.0471 C   0  0  2  0  0  0  0  0  0  0  0  0
   19.2301   -5.5766  -17.4185 N   0  0  0  0  0  0  0  0  0  0  0  0
   17.7131   -3.8803  -16.7471 C   0  0  0  0  0  0  0  0  0  0  0  0
   16.8100   -4.5095  -17.3253 O   0  0  0  0  0  0  0  0  0  0  0  0
   17.3940   -2.8814  -15.8137 O   0  0  0  0  0  0  0  0  0  0  0  0
  2  1  1  0
  3  2  1  0
  3  4  1  1
  5  3  1  0
  5  6  1  1
  7  5  1  0
  7  8  2  0
 10  9  1  1
 10 12  1  0
 10 11  1  0
 13 12  1  1
 13 14  1  0
 14  7  1  0
 15 13  1  0
 15 19  1  0
 16 15  2  0
 18 17  1  6
 18 20  1  0
 19 18  1  0
 20 21  2  0
 20 22  1  0
M  END
$$$$
