ILA.pdb
     RDKit          3D

 22 21  0  0  1  0  0  0  0  0999 V2000
   26.9771  -22.6525  -19.4363 C   0  0  0  0  0  0  0  0  0  0  0  0
   27.4971  -22.5288  -18.0327 C   0  0  0  0  0  0  0  0  0  0  0  0
   26.4445  -22.3125  -16.9962 C   0  0  2  0  0  0  0  0  0  0  0  0
   26.3724  -20.8196  -16.7361 C   0  0  0  0  0  0  0  0  0  0  0  0
   26.7907  -23.0736  -15.7363 C   0  0  2  0  0  0  0  0  0  0  0  0
   26.7212  -24.4823  -16.0024 N   0  0  0  0  0  0  0  0  0  0  0  0
   25.8605  -22.7304  -14.6334 C   0  0  0  0  0  0  0  0  0  0  0  0
   24.7180  -23.2379  -14.6698 O   0  0  0  0  0  0  0  0  0  0  0  0
   25.9874  -19.6859   -9.1928 C   0  0  0  0  0  0  0  0  0  0  0  0
   25.2167  -20.5059  -10.1837 C   0  0  2  0  0  0  0  0  0  0  0  0
   24.3052  -21.4617   -9.4731 C   0  0  0  0  0  0  0  0  0  0  0  0
   25.9335  -20.9872  -11.3653 C   0  0  0  0  0  0  0  0  0  0  0  0
   25.2159  -21.4855  -12.5463 C   0  0  2  0  0  0  0  0  0  0  0  0
   26.2037  -21.8741  -13.5692 N   0  0  0  0  0  0  0  0  0  0  0  0
   24.1307  -20.7107  -13.1185 C   0  0  0  0  0  0  0  0  0  0  0  0
   24.3639  -19.5776  -13.5993 O   0  0  0  0  0  0  0  0  0  0  0  0
   20.9685  -21.0838  -14.8322 C   0  0  0  0  0  0  0  0  0  0  0  0
   21.7503  -20.3290  -13.7728 C   0  0  2  0  0  0  0  0  0  0  0  0
   22.7745  -21.1498  -13.1794 N   0  0  0  0  0  0  0  0  0  0  0  0
   20.8126  -19.8983  -12.7163 C   0  0  0  0  0  0  0  0  0  0  0  0
   20.8968  -20.3948  -11.5795 O   0  0  0  0  0  0  0  0  0  0  0  0
   19.8323  -18.9332  -12.9963 O   0  0  0  0  0  0  0  0  0  0  0  0
  2  1  1  0
  3  2  1  0
  3  4  1  1
  5  3  1  0
  5  6  1  6
  7  5  1  0
  7  8  2  0
 10  9  1  1
 10 12  1  0
 10 11  1  0
 13 12  1  1
 13 14  1  0
 14  7  1  0
 15 13  1  0
 15 19  1  0
 16 15  2  0
 18 17  1  6
 18 20  1  0
 19 18  1  0
 20 21  2  0
 20 22  1  0
M  END
$$$$
