ILA.pdb
     RDKit          3D

 22 21  0  0  1  0  0  0  0  0999 V2000
   15.8275  -11.9939  -20.3607 C   0  0  0  0  0  0  0  0  0  0  0  0
   16.9814  -12.2684  -19.4394 C   0  0  0  0  0  0  0  0  0  0  0  0
   17.2903  -11.1641  -18.4832 C   0  0  2  0  0  0  0  0  0  0  0  0
   17.6299   -9.9381  -19.3098 C   0  0  0  0  0  0  0  0  0  0  0  0
   18.4424  -11.5588  -17.5871 C   0  0  2  0  0  0  0  0  0  0  0  0
   18.0867  -12.7409  -16.8548 N   0  0  0  0  0  0  0  0  0  0  0  0
   18.7775  -10.4694  -16.6382 C   0  0  0  0  0  0  0  0  0  0  0  0
   17.9624  -10.2420  -15.7172 O   0  0  0  0  0  0  0  0  0  0  0  0
   21.2718   -9.8236  -13.0614 C   0  0  0  0  0  0  0  0  0  0  0  0
   22.0527   -9.7570  -14.3398 C   0  0  2  0  0  0  0  0  0  0  0  0
   23.5177   -9.9229  -14.0654 C   0  0  0  0  0  0  0  0  0  0  0  0
   21.6459   -8.7577  -15.3287 C   0  0  0  0  0  0  0  0  0  0  0  0
   20.2465   -8.6292  -15.7568 C   0  0  2  0  0  0  0  0  0  0  0  0
   19.9512   -9.6963  -16.7299 N   0  0  0  0  0  0  0  0  0  0  0  0
   19.7367   -7.3452  -16.2003 C   0  0  0  0  0  0  0  0  0  0  0  0
   20.0950   -6.8851  -17.3090 O   0  0  0  0  0  0  0  0  0  0  0  0
   17.0411   -4.8681  -15.3562 C   0  0  0  0  0  0  0  0  0  0  0  0
   18.3833   -5.2611  -15.9457 C   0  0  2  0  0  0  0  0  0  0  0  0
   18.8303   -6.5377  -15.4505 N   0  0  0  0  0  0  0  0  0  0  0  0
   19.3765   -4.2322  -15.5771 C   0  0  0  0  0  0  0  0  0  0  0  0
   20.3555   -4.5452  -14.8774 O   0  0  0  0  0  0  0  0  0  0  0  0
   19.2140   -2.9085  -16.0154 O   0  0  0  0  0  0  0  0  0  0  0  0
  2  1  1  0
  3  2  1  0
  3  4  1  6
  5  3  1  0
  5  6  1  1
  7  5  1  0
  7  8  2  0
 10  9  1  1
 10 12  1  0
 10 11  1  0
 13 12  1  6
 13 14  1  0
 14  7  1  0
 15 13  1  0
 15 19  1  0
 16 15  2  0
 18 17  1  1
 18 20  1  0
 19 18  1  0
 20 21  2  0
 20 22  1  0
M  END
$$$$
