ILA.pdb
     RDKit          3D

 22 21  0  0  1  0  0  0  0  0999 V2000
   20.3717  -18.3309  -17.5874 C   0  0  0  0  0  0  0  0  0  0  0  0
   21.6344  -18.5656  -16.8086 C   0  0  0  0  0  0  0  0  0  0  0  0
   21.4990  -19.5357  -15.6817 C   0  0  2  0  0  0  0  0  0  0  0  0
   20.3647  -19.0445  -14.8020 C   0  0  0  0  0  0  0  0  0  0  0  0
   22.7961  -19.6204  -14.9095 C   0  0  2  0  0  0  0  0  0  0  0  0
   23.8347  -20.0893  -15.7822 N   0  0  0  0  0  0  0  0  0  0  0  0
   22.6685  -20.5386  -13.7518 C   0  0  0  0  0  0  0  0  0  0  0  0
   22.5556  -21.7593  -13.9996 O   0  0  0  0  0  0  0  0  0  0  0  0
   25.3492  -22.1306  -10.9162 C   0  0  0  0  0  0  0  0  0  0  0  0
   24.8157  -20.8310  -10.3922 C   0  0  2  0  0  0  0  0  0  0  0  0
   25.7058  -20.3011   -9.3077 C   0  0  0  0  0  0  0  0  0  0  0  0
   23.3678  -20.7188  -10.2113 C   0  0  0  0  0  0  0  0  0  0  0  0
   22.4330  -21.0375  -11.2989 C   0  0  2  0  0  0  0  0  0  0  0  0
   22.6690  -20.1015  -12.4130 N   0  0  0  0  0  0  0  0  0  0  0  0
   21.0174  -21.1901  -11.0197 C   0  0  0  0  0  0  0  0  0  0  0  0
   20.3025  -20.1730  -10.8652 O   0  0  0  0  0  0  0  0  0  0  0  0
   18.2166  -23.5074  -11.4629 C   0  0  0  0  0  0  0  0  0  0  0  0
   18.9520  -22.5221  -10.5729 C   0  0  2  0  0  0  0  0  0  0  0  0
   20.3519  -22.4468  -10.9032 N   0  0  0  0  0  0  0  0  0  0  0  0
   18.8158  -22.9651   -9.1707 C   0  0  0  0  0  0  0  0  0  0  0  0
   19.8242  -23.3256   -8.5390 O   0  0  0  0  0  0  0  0  0  0  0  0
   17.5536  -22.9782   -8.5564 O   0  0  0  0  0  0  0  0  0  0  0  0
  2  1  1  0
  3  2  1  0
  3  4  1  1
  5  3  1  0
  5  6  1  6
  7  5  1  0
  7  8  2  0
 10  9  1  1
 10 12  1  0
 10 11  1  0
 13 12  1  1
 13 14  1  0
 14  7  1  0
 15 13  1  0
 15 19  1  0
 16 15  2  0
 18 17  1  6
 18 20  1  0
 19 18  1  0
 20 21  2  0
 20 22  1  0
M  END
$$$$
