ILA.pdb
     RDKit          3D

 22 21  0  0  1  0  0  0  0  0999 V2000
   22.0669  -20.4790  -13.7684 C   0  0  0  0  0  0  0  0  0  0  0  0
   23.5087  -20.3251  -13.3767 C   0  0  0  0  0  0  0  0  0  0  0  0
   23.8192  -20.7333  -11.9745 C   0  0  2  0  0  0  0  0  0  0  0  0
   22.8840  -19.9586  -11.0651 C   0  0  0  0  0  0  0  0  0  0  0  0
   25.2670  -20.4367  -11.6548 C   0  0  2  0  0  0  0  0  0  0  0  0
   26.1087  -21.1608  -12.5644 N   0  0  0  0  0  0  0  0  0  0  0  0
   25.5952  -20.8227  -10.2609 C   0  0  0  0  0  0  0  0  0  0  0  0
   25.6023  -22.0442   -9.9921 O   0  0  0  0  0  0  0  0  0  0  0  0
   27.3428  -20.5491   -5.0295 C   0  0  0  0  0  0  0  0  0  0  0  0
   28.0158  -19.8313   -6.1610 C   0  0  2  0  0  0  0  0  0  0  0  0
   29.0226  -18.8531   -5.6329 C   0  0  0  0  0  0  0  0  0  0  0  0
   27.1819  -19.4192   -7.2908 C   0  0  0  0  0  0  0  0  0  0  0  0
   26.1731  -20.3186   -7.8665 C   0  0  2  0  0  0  0  0  0  0  0  0
   25.8927  -19.8897   -9.2487 N   0  0  0  0  0  0  0  0  0  0  0  0
   24.9516  -20.6033   -7.1370 C   0  0  0  0  0  0  0  0  0  0  0  0
   24.0283  -19.7569   -7.1192 O   0  0  0  0  0  0  0  0  0  0  0  0
   23.1700  -23.5617   -5.6677 C   0  0  0  0  0  0  0  0  0  0  0  0
   23.4290  -22.0730   -5.8098 C   0  0  2  0  0  0  0  0  0  0  0  0
   24.7095  -21.8095   -6.4143 N   0  0  0  0  0  0  0  0  0  0  0  0
   23.4013  -21.4621   -4.4655 C   0  0  0  0  0  0  0  0  0  0  0  0
   24.4568  -21.0450   -3.9577 O   0  0  0  0  0  0  0  0  0  0  0  0
   22.1887  -21.3539   -3.7666 O   0  0  0  0  0  0  0  0  0  0  0  0
  2  1  1  0
  3  2  1  0
  3  4  1  1
  5  3  1  0
  5  6  1  6
  7  5  1  0
  7  8  2  0
 10  9  1  1
 10 12  1  0
 10 11  1  0
 13 12  1  1
 13 14  1  0
 14  7  1  0
 15 13  1  0
 15 19  1  0
 16 15  2  0
 18 17  1  1
 18 20  1  0
 19 18  1  0
 20 21  2  0
 20 22  1  0
M  END
$$$$
