ILA.pdb
     RDKit          3D

 22 21  0  0  1  0  0  0  0  0999 V2000
   20.1080  -22.2038  -12.9597 C   0  0  0  0  0  0  0  0  0  0  0  0
   20.7050  -21.9566  -11.6038 C   0  0  0  0  0  0  0  0  0  0  0  0
   22.0626  -21.3357  -11.6257 C   0  0  2  0  0  0  0  0  0  0  0  0
   22.9642  -22.2586  -12.4238 C   0  0  0  0  0  0  0  0  0  0  0  0
   22.5741  -21.1532  -10.2146 C   0  0  2  0  0  0  0  0  0  0  0  0
   21.6347  -20.3626   -9.4711 N   0  0  0  0  0  0  0  0  0  0  0  0
   23.8983  -20.4855  -10.2095 C   0  0  0  0  0  0  0  0  0  0  0  0
   23.9653  -19.3438  -10.7158 O   0  0  0  0  0  0  0  0  0  0  0  0
   26.8040  -18.7506   -7.4095 C   0  0  0  0  0  0  0  0  0  0  0  0
   27.0536  -20.2280   -7.4659 C   0  0  2  0  0  0  0  0  0  0  0  0
   27.9578  -20.6474   -6.3452 C   0  0  0  0  0  0  0  0  0  0  0  0
   27.2666  -20.8275   -8.7838 C   0  0  0  0  0  0  0  0  0  0  0  0
   26.3960  -20.5043   -9.9221 C   0  0  2  0  0  0  0  0  0  0  0  0
   25.0593  -21.0721   -9.6695 N   0  0  0  0  0  0  0  0  0  0  0  0
   26.8420  -20.7693  -11.2771 C   0  0  0  0  0  0  0  0  0  0  0  0
   27.0117  -21.9518  -11.6541 O   0  0  0  0  0  0  0  0  0  0  0  0
   27.6424  -18.8680  -14.4658 C   0  0  0  0  0  0  0  0  0  0  0  0
   27.5245  -20.0978  -13.5843 C   0  0  2  0  0  0  0  0  0  0  0  0
   27.1119  -19.7580  -12.2468 N   0  0  0  0  0  0  0  0  0  0  0  0
   28.8437  -20.7588  -13.5231 C   0  0  0  0  0  0  0  0  0  0  0  0
   29.4972  -20.7306  -12.4656 O   0  0  0  0  0  0  0  0  0  0  0  0
   29.3553  -21.4147  -14.6539 O   0  0  0  0  0  0  0  0  0  0  0  0
  2  1  1  0
  3  2  1  0
  3  4  1  6
  5  3  1  0
  5  6  1  1
  7  5  1  0
  7  8  2  0
 10  9  1  6
 10 12  1  0
 10 11  1  0
 13 12  1  1
 13 14  1  0
 14  7  1  0
 15 13  1  0
 15 19  1  0
 16 15  2  0
 18 17  1  6
 18 20  1  0
 19 18  1  0
 20 21  2  0
 20 22  1  0
M  END
$$$$
