ILA.pdb
     RDKit          3D

 22 21  0  0  1  0  0  0  0  0999 V2000
   28.4670  -19.7845  -19.7963 C   0  0  0  0  0  0  0  0  0  0  0  0
   28.7709  -20.5059  -18.5146 C   0  0  0  0  0  0  0  0  0  0  0  0
   27.5963  -20.6915  -17.6117 C   0  0  2  0  0  0  0  0  0  0  0  0
   26.9988  -19.3187  -17.3665 C   0  0  0  0  0  0  0  0  0  0  0  0
   28.0324  -21.3400  -16.3172 C   0  0  2  0  0  0  0  0  0  0  0  0
   28.5420  -22.6526  -16.5957 N   0  0  0  0  0  0  0  0  0  0  0  0
   26.9015  -21.4389  -15.3629 C   0  0  0  0  0  0  0  0  0  0  0  0
   25.9926  -22.2537  -15.6353 O   0  0  0  0  0  0  0  0  0  0  0  0
   25.6797  -19.9686   -9.4569 C   0  0  0  0  0  0  0  0  0  0  0  0
   25.3324  -20.6987  -10.7198 C   0  0  2  0  0  0  0  0  0  0  0  0
   25.0306  -22.1377  -10.4242 C   0  0  0  0  0  0  0  0  0  0  0  0
   26.1178  -20.3912  -11.9157 C   0  0  0  0  0  0  0  0  0  0  0  0
   25.6841  -20.8270  -13.2499 C   0  0  2  0  0  0  0  0  0  0  0  0
   26.8109  -20.6689  -14.1871 N   0  0  0  0  0  0  0  0  0  0  0  0
   24.4457  -20.3222  -13.8129 C   0  0  0  0  0  0  0  0  0  0  0  0
   24.3658  -19.1207  -14.1584 O   0  0  0  0  0  0  0  0  0  0  0  0
   21.5106  -21.3614  -15.6931 C   0  0  0  0  0  0  0  0  0  0  0  0
   22.0684  -20.5329  -14.5505 C   0  0  2  0  0  0  0  0  0  0  0  0
   23.2729  -21.1102  -14.0113 N   0  0  0  0  0  0  0  0  0  0  0  0
   21.0520  -20.4646  -13.4812 C   0  0  0  0  0  0  0  0  0  0  0  0
   21.2803  -20.9967  -12.3809 O   0  0  0  0  0  0  0  0  0  0  0  0
   19.8354  -19.8021  -13.7082 O   0  0  0  0  0  0  0  0  0  0  0  0
  2  1  1  0
  3  2  1  0
  3  4  1  1
  5  3  1  0
  5  6  1  6
  7  5  1  0
  7  8  2  0
 10  9  1  1
 10 12  1  0
 10 11  1  0
 13 12  1  1
 13 14  1  0
 14  7  1  0
 15 13  1  0
 15 19  1  0
 16 15  2  0
 18 17  1  6
 18 20  1  0
 19 18  1  0
 20 21  2  0
 20 22  1  0
M  END
$$$$
