ILA.pdb
     RDKit          3D

 22 21  0  0  1  0  0  0  0  0999 V2000
   16.1474  -12.9532  -15.7033 C   0  0  0  0  0  0  0  0  0  0  0  0
   16.9564  -11.7439  -15.3305 C   0  0  0  0  0  0  0  0  0  0  0  0
   16.2324  -10.7472  -14.4868 C   0  0  2  0  0  0  0  0  0  0  0  0
   14.9612  -10.3742  -15.2260 C   0  0  0  0  0  0  0  0  0  0  0  0
   17.1051   -9.5356  -14.2486 C   0  0  2  0  0  0  0  0  0  0  0  0
   18.2585   -9.9271  -13.4894 N   0  0  0  0  0  0  0  0  0  0  0  0
   16.3639   -8.4802  -13.5163 C   0  0  0  0  0  0  0  0  0  0  0  0
   15.3777   -7.9696  -14.0918 O   0  0  0  0  0  0  0  0  0  0  0  0
   15.2074   -5.1865   -9.1367 C   0  0  0  0  0  0  0  0  0  0  0  0
   15.0587   -6.6784   -9.1112 C   0  0  2  0  0  0  0  0  0  0  0  0
   15.0103   -7.1736   -7.6964 C   0  0  0  0  0  0  0  0  0  0  0  0
   15.8305   -7.4510  -10.0855 C   0  0  0  0  0  0  0  0  0  0  0  0
   15.8952   -7.0551  -11.4987 C   0  0  2  0  0  0  0  0  0  0  0  0
   16.7176   -8.0384  -12.2267 N   0  0  0  0  0  0  0  0  0  0  0  0
   16.2472   -5.6939  -11.8573 C   0  0  0  0  0  0  0  0  0  0  0  0
   17.4096   -5.2776  -11.6453 O   0  0  0  0  0  0  0  0  0  0  0  0
   15.1338   -3.0797  -14.2198 C   0  0  0  0  0  0  0  0  0  0  0  0
   15.8020   -3.4756  -12.9159 C   0  0  2  0  0  0  0  0  0  0  0  0
   15.3463   -4.7606  -12.4515 N   0  0  0  0  0  0  0  0  0  0  0  0
   15.4790   -2.4577  -11.8958 C   0  0  0  0  0  0  0  0  0  0  0  0
   14.7036   -2.7427  -10.9666 O   0  0  0  0  0  0  0  0  0  0  0  0
   16.0457   -1.1759  -11.9768 O   0  0  0  0  0  0  0  0  0  0  0  0
  2  1  1  0
  3  2  1  0
  3  4  1  6
  5  3  1  0
  5  6  1  1
  7  5  1  0
  7  8  2  0
 10  9  1  1
 10 12  1  0
 10 11  1  0
 13 12  1  1
 13 14  1  0
 14  7  1  0
 15 13  1  0
 15 19  1  0
 16 15  2  0
 18 17  1  6
 18 20  1  0
 19 18  1  0
 20 21  2  0
 20 22  1  0
M  END
$$$$
