NRW.pdb
     RDKit          3D

 34 35  0  0  1  0  0  0  0  0999 V2000
   23.6174  -27.0833  -19.0195 N   0  0  0  0  0  0  0  0  0  0  0  0
   22.6741  -26.3448  -18.2589 C   0  0  0  0  0  0  0  0  0  0  0  0
   21.5165  -26.1852  -18.6987 O   0  0  0  0  0  0  0  0  0  0  0  0
   23.0388  -25.7638  -16.9593 C   0  0  0  0  0  0  0  0  0  0  0  0
   24.4383  -26.1854  -16.5552 C   0  0  2  0  0  0  0  0  0  0  0  0
   24.4344  -27.4908  -15.9357 N   0  0  0  0  0  0  0  0  0  0  0  0
   25.0950  -25.1676  -15.7137 C   0  0  0  0  0  0  0  0  0  0  0  0
   25.0754  -25.1873  -14.4512 O   0  0  0  0  0  0  0  0  0  0  0  0
   31.7294  -24.7633  -14.9668 N   0  0  0  0  0  0  0  0  0  0  0  0
   31.2012  -24.9342  -16.2690 C   0  0  0  0  0  0  0  0  0  0  0  0
   31.3005  -26.0889  -16.8843 N   0  0  0  0  0  0  0  0  0  0  0  0
   30.5462  -23.8942  -16.9777 N   0  0  0  0  0  0  0  0  0  0  0  0
   30.0388  -22.7183  -16.3054 C   0  0  0  0  0  0  0  0  0  0  0  0
   28.7382  -23.1019  -15.6409 C   0  0  0  0  0  0  0  0  0  0  0  0
   27.5398  -22.5018  -16.3561 C   0  0  0  0  0  0  0  0  0  0  0  0
   26.3128  -22.9488  -15.6516 C   0  0  2  0  0  0  0  0  0  0  0  0
   25.7812  -24.1167  -16.3460 N   0  0  0  0  0  0  0  0  0  0  0  0
   25.3055  -21.9327  -15.4050 C   0  0  0  0  0  0  0  0  0  0  0  0
   24.3640  -21.8060  -16.2145 O   0  0  0  0  0  0  0  0  0  0  0  0
   30.9898  -26.2572  -17.8408 N   0  0  0  0  0  0  0  0  0  0  0  0
   25.3690  -21.0940  -14.2799 C   0  0  2  0  0  0  0  0  0  0  0  0
   24.4229  -20.0556  -13.9736 C   0  0  0  0  0  0  0  0  0  0  0  0
   24.0672  -20.1573  -12.5077 C   0  0  0  0  0  0  0  0  0  0  0  0
   25.1449  -19.6208  -11.6413 C   0  0  0  0  0  0  0  0  0  0  0  0
   26.0168  -18.6107  -11.9851 N   0  0  0  0  0  0  0  0  0  0  0  0
   26.8282  -18.4296  -10.9250 C   0  0  0  0  0  0  0  0  0  0  0  0
   26.4830  -19.2956   -9.9416 C   0  0  0  0  0  0  0  0  0  0  0  0
   26.9918  -19.5113   -8.6789 C   0  0  0  0  0  0  0  0  0  0  0  0
   26.4426  -20.4763   -7.8654 C   0  0  0  0  0  0  0  0  0  0  0  0
   25.3772  -21.2417   -8.2982 C   0  0  0  0  0  0  0  0  0  0  0  0
   24.8574  -21.0405   -9.5531 C   0  0  0  0  0  0  0  0  0  0  0  0
   25.4080  -20.0749  -10.3654 C   0  0  0  0  0  0  0  0  0  0  0  0
   24.9010  -18.6887  -14.3397 O   0  0  0  0  0  0  0  0  0  0  0  0
   26.1234  -18.5321  -14.5657 O   0  0  0  0  0  0  0  0  0  0  0  0
  2  1  1  0
  2  4  1  0
  3  2  2  0
  5  4  1  0
  5  6  1  1
  7  8  2  0
  7  5  1  0
  9 10  1  0
 10 12  1  0
 11 10  2  0
 12 13  1  0
 13 14  1  0
 14 15  1  0
 16 15  1  6
 16 17  1  0
 17  7  1  0
 18 16  1  0
 19 18  2  0
 20 18  1  0
 21 22  1  1
 21 20  1  0
 22 23  1  0
 23 31  1  0
 24 23  2  0
 24 25  1  0
 25 26  1  0
 26 27  1  0
 27 28  2  0
 29 28  1  0
 30 29  2  0
 31 26  2  0
 31 30  1  0
 32 34  1  0
 32 21  1  0
 33 32  2  0
M  END
$$$$
