NRW.pdb
     RDKit          3D

 34 35  0  0  1  0  0  0  0  0999 V2000
   16.8915  -24.6935  -14.4520 N   0  0  0  0  0  0  0  0  0  0  0  0
   17.2662  -23.4038  -13.9937 C   0  0  0  0  0  0  0  0  0  0  0  0
   16.4287  -22.4777  -14.0055 O   0  0  0  0  0  0  0  0  0  0  0  0
   18.6266  -23.1404  -13.5044 C   0  0  0  0  0  0  0  0  0  0  0  0
   19.4611  -24.4063  -13.5275 C   0  0  2  0  0  0  0  0  0  0  0  0
   19.1527  -25.2584  -12.4020 N   0  0  0  0  0  0  0  0  0  0  0  0
   20.9024  -24.1100  -13.6278 C   0  0  0  0  0  0  0  0  0  0  0  0
   21.5542  -23.5030  -12.7325 O   0  0  0  0  0  0  0  0  0  0  0  0
   28.3451  -26.1278  -16.4073 N   0  0  0  0  0  0  0  0  0  0  0  0
   27.3818  -27.1418  -16.1888 C   0  0  0  0  0  0  0  0  0  0  0  0
   27.6969  -28.2325  -15.5310 N   0  0  0  0  0  0  0  0  0  0  0  0
   26.0451  -27.0485  -16.6554 N   0  0  0  0  0  0  0  0  0  0  0  0
   25.5530  -25.8623  -17.3207 C   0  0  0  0  0  0  0  0  0  0  0  0
   24.9781  -24.9536  -16.2605 C   0  0  0  0  0  0  0  0  0  0  0  0
   23.5205  -25.2715  -15.9736 C   0  0  0  0  0  0  0  0  0  0  0  0
   23.0019  -24.2448  -15.0363 C   0  0  2  0  0  0  0  0  0  0  0  0
   21.5928  -24.5233  -14.7800 N   0  0  0  0  0  0  0  0  0  0  0  0
   23.2460  -22.8603  -15.3985 C   0  0  0  0  0  0  0  0  0  0  0  0
   22.4221  -22.2722  -16.1286 O   0  0  0  0  0  0  0  0  0  0  0  0
   27.0326  -28.9666  -15.2866 N   0  0  0  0  0  0  0  0  0  0  0  0
   24.3847  -22.1731  -14.9462 C   0  0  2  0  0  0  0  0  0  0  0  0
   24.6459  -20.7771  -15.1703 C   0  0  0  0  0  0  0  0  0  0  0  0
   24.4050  -20.0370  -13.8741 C   0  0  0  0  0  0  0  0  0  0  0  0
   25.3640  -20.4470  -12.8196 C   0  0  0  0  0  0  0  0  0  0  0  0
   26.7115  -20.6656  -13.0077 N   0  0  0  0  0  0  0  0  0  0  0  0
   27.2122  -21.0174  -11.8074 C   0  0  0  0  0  0  0  0  0  0  0  0
   26.2161  -21.0221  -10.8887 C   0  0  0  0  0  0  0  0  0  0  0  0
   26.2034  -21.3072   -9.5402 C   0  0  0  0  0  0  0  0  0  0  0  0
   25.0284  -21.2340   -8.8269 C   0  0  0  0  0  0  0  0  0  0  0  0
   23.8473  -20.8752   -9.4471 C   0  0  0  0  0  0  0  0  0  0  0  0
   23.8414  -20.5876  -10.7898 C   0  0  0  0  0  0  0  0  0  0  0  0
   25.0175  -20.6614  -11.5016 C   0  0  0  0  0  0  0  0  0  0  0  0
   26.0071  -20.5081  -15.7233 O   0  0  0  0  0  0  0  0  0  0  0  0
   26.2973  -19.3281  -16.0287 O   0  0  0  0  0  0  0  0  0  0  0  0
  2  1  1  0
  2  4  1  0
  3  2  2  0
  5  4  1  0
  5  6  1  1
  7  8  2  0
  7  5  1  0
  9 10  1  0
 10 12  1  0
 11 10  2  0
 12 13  1  0
 13 14  1  0
 14 15  1  0
 16 15  1  6
 16 17  1  0
 17  7  1  0
 18 16  1  0
 19 18  2  0
 20 18  1  0
 21 22  1  1
 21 20  1  0
 22 23  1  0
 23 31  1  0
 24 23  2  0
 24 25  1  0
 25 26  1  0
 26 27  1  0
 27 28  2  0
 29 28  1  0
 30 29  2  0
 31 26  2  0
 31 30  1  0
 32 34  1  0
 32 21  1  0
 33 32  2  0
M  END
$$$$
