NRW.pdb
     RDKit          3D

 34 35  0  0  1  0  0  0  0  0999 V2000
   27.8942  -15.0924  -19.3402 N   0  0  0  0  0  0  0  0  0  0  0  0
   27.8957  -15.3754  -17.9497 C   0  0  0  0  0  0  0  0  0  0  0  0
   28.3150  -14.5168  -17.1460 O   0  0  0  0  0  0  0  0  0  0  0  0
   27.4107  -16.6654  -17.4396 C   0  0  0  0  0  0  0  0  0  0  0  0
   27.0669  -17.6009  -18.5826 C   0  0  2  0  0  0  0  0  0  0  0  0
   25.9669  -17.0883  -19.3670 N   0  0  0  0  0  0  0  0  0  0  0  0
   26.8248  -18.9768  -18.1099 C   0  0  0  0  0  0  0  0  0  0  0  0
   25.6850  -19.4132  -17.7858 O   0  0  0  0  0  0  0  0  0  0  0  0
   28.3755  -26.1605  -18.2488 N   0  0  0  0  0  0  0  0  0  0  0  0
   29.2055  -26.3464  -17.1173 C   0  0  0  0  0  0  0  0  0  0  0  0
   29.1630  -27.4657  -16.4338 N   0  0  0  0  0  0  0  0  0  0  0  0
   30.1155  -25.3593  -16.6584 N   0  0  0  0  0  0  0  0  0  0  0  0
   30.2718  -24.0934  -17.3404 C   0  0  0  0  0  0  0  0  0  0  0  0
   29.0525  -23.2581  -17.0306 C   0  0  0  0  0  0  0  0  0  0  0  0
   29.1166  -21.8953  -17.6990 C   0  0  0  0  0  0  0  0  0  0  0  0
   27.8628  -21.1681  -17.3813 C   0  0  2  0  0  0  0  0  0  0  0  0
   27.9185  -19.8540  -18.0129 N   0  0  0  0  0  0  0  0  0  0  0  0
   27.4931  -21.1043  -15.9788 C   0  0  0  0  0  0  0  0  0  0  0  0
   28.2059  -20.4441  -15.1953 O   0  0  0  0  0  0  0  0  0  0  0  0
   29.7302  -27.6548  -15.6077 N   0  0  0  0  0  0  0  0  0  0  0  0
   26.3556  -21.7670  -15.4887 C   0  0  2  0  0  0  0  0  0  0  0  0
   26.0037  -21.8787  -14.0991 C   0  0  0  0  0  0  0  0  0  0  0  0
   25.9180  -20.4849  -13.5196 C   0  0  0  0  0  0  0  0  0  0  0  0
   25.2995  -20.4864  -12.1715 C   0  0  0  0  0  0  0  0  0  0  0  0
   25.9505  -20.7884  -10.9951 N   0  0  0  0  0  0  0  0  0  0  0  0
   25.0366  -20.6712  -10.0122 C   0  0  0  0  0  0  0  0  0  0  0  0
   23.8458  -20.3072  -10.5467 C   0  0  0  0  0  0  0  0  0  0  0  0
   22.6141  -20.0613   -9.9791 C   0  0  0  0  0  0  0  0  0  0  0  0
   21.5464  -19.6990  -10.7688 C   0  0  0  0  0  0  0  0  0  0  0  0
   21.6901  -19.5762  -12.1372 C   0  0  0  0  0  0  0  0  0  0  0  0
   22.9099  -19.8172  -12.7197 C   0  0  0  0  0  0  0  0  0  0  0  0
   23.9767  -20.1795  -11.9283 C   0  0  0  0  0  0  0  0  0  0  0  0
   24.7529  -22.6604  -13.8635 O   0  0  0  0  0  0  0  0  0  0  0  0
   23.9053  -22.7093  -14.7850 O   0  0  0  0  0  0  0  0  0  0  0  0
  2  1  1  0
  2  4  1  0
  3  2  2  0
  5  4  1  0
  5  6  1  1
  7  8  2  0
  7  5  1  0
  9 10  1  0
 10 12  1  0
 11 10  2  0
 12 13  1  0
 13 14  1  0
 14 15  1  0
 16 15  1  1
 16 17  1  0
 17  7  1  0
 18 16  1  0
 19 18  2  0
 20 18  1  0
 21 22  1  6
 21 20  1  0
 22 23  1  0
 23 31  1  0
 24 23  2  0
 24 25  1  0
 25 26  1  0
 26 27  1  0
 27 28  2  0
 29 28  1  0
 30 29  2  0
 31 26  2  0
 31 30  1  0
 32 34  1  0
 32 21  1  0
 33 32  2  0
M  END
$$$$
