NRW.pdb
     RDKit          3D

 34 35  0  0  1  0  0  0  0  0999 V2000
   30.5727  -22.4989  -17.5086 N   0  0  0  0  0  0  0  0  0  0  0  0
   29.4183  -22.6053  -16.6902 C   0  0  0  0  0  0  0  0  0  0  0  0
   28.6241  -23.5530  -16.8644 O   0  0  0  0  0  0  0  0  0  0  0  0
   29.1422  -21.6162  -15.6391 C   0  0  0  0  0  0  0  0  0  0  0  0
   27.9488  -20.7569  -16.0091 C   0  0  2  0  0  0  0  0  0  0  0  0
   28.2495  -19.8970  -17.1308 N   0  0  0  0  0  0  0  0  0  0  0  0
   27.4346  -20.0054  -14.8489 C   0  0  0  0  0  0  0  0  0  0  0  0
   27.3357  -18.7468  -14.8206 O   0  0  0  0  0  0  0  0  0  0  0  0
   20.7157  -19.0453  -12.4441 N   0  0  0  0  0  0  0  0  0  0  0  0
   20.7333  -20.3589  -12.9715 C   0  0  0  0  0  0  0  0  0  0  0  0
   19.7823  -21.2120  -12.6724 N   0  0  0  0  0  0  0  0  0  0  0  0
   21.7552  -20.8285  -13.8365 N   0  0  0  0  0  0  0  0  0  0  0  0
   22.8691  -19.9906  -14.2227 C   0  0  0  0  0  0  0  0  0  0  0  0
   24.1127  -20.5711  -13.5927 C   0  0  0  0  0  0  0  0  0  0  0  0
   25.0727  -19.4866  -13.1340 C   0  0  0  0  0  0  0  0  0  0  0  0
   26.2881  -20.1461  -12.5959 C   0  0  2  0  0  0  0  0  0  0  0  0
   27.0316  -20.7241  -13.7104 N   0  0  0  0  0  0  0  0  0  0  0  0
   26.0829  -21.0851  -11.5078 C   0  0  0  0  0  0  0  0  0  0  0  0
   25.6645  -22.2314  -11.7695 O   0  0  0  0  0  0  0  0  0  0  0  0
   19.7556  -22.1780  -12.9981 N   0  0  0  0  0  0  0  0  0  0  0  0
   26.3445  -20.7311  -10.1738 C   0  0  2  0  0  0  0  0  0  0  0  0
   26.1336  -21.5884   -9.0389 C   0  0  0  0  0  0  0  0  0  0  0  0
   27.4340  -21.6890   -8.2742 C   0  0  0  0  0  0  0  0  0  0  0  0
   27.6884  -20.4764   -7.4590 C   0  0  0  0  0  0  0  0  0  0  0  0
   27.1999  -19.2165   -7.7287 N   0  0  0  0  0  0  0  0  0  0  0  0
   27.6608  -18.4113   -6.7518 C   0  0  0  0  0  0  0  0  0  0  0  0
   28.4164  -19.1357   -5.8913 C   0  0  0  0  0  0  0  0  0  0  0  0
   29.1025  -18.7901   -4.7468 C   0  0  0  0  0  0  0  0  0  0  0  0
   29.8066  -19.7429   -4.0459 C   0  0  0  0  0  0  0  0  0  0  0  0
   29.8378  -21.0555   -4.4752 C   0  0  0  0  0  0  0  0  0  0  0  0
   29.1600  -21.4177   -5.6132 C   0  0  0  0  0  0  0  0  0  0  0  0
   28.4564  -20.4634   -6.3129 C   0  0  0  0  0  0  0  0  0  0  0  0
   25.0035  -21.1514   -8.1655 O   0  0  0  0  0  0  0  0  0  0  0  0
   24.4015  -20.0940   -8.4646 O   0  0  0  0  0  0  0  0  0  0  0  0
  2  1  1  0
  2  4  1  0
  3  2  2  0
  5  4  1  0
  5  6  1  6
  7  8  2  0
  7  5  1  0
  9 10  1  0
 10 12  1  0
 11 10  2  0
 12 13  1  0
 13 14  1  0
 14 15  1  0
 16 15  1  6
 16 17  1  0
 17  7  1  0
 18 16  1  0
 19 18  2  0
 20 18  1  0
 21 22  1  1
 21 20  1  0
 22 23  1  0
 23 31  1  0
 24 23  2  0
 24 25  1  0
 25 26  1  0
 26 27  1  0
 27 28  2  0
 29 28  1  0
 30 29  2  0
 31 26  2  0
 31 30  1  0
 32 34  1  0
 32 21  1  0
 33 32  2  0
M  END
$$$$
