NRW.pdb
     RDKit          3D

 34 35  0  0  1  0  0  0  0  0999 V2000
   32.2519  -25.8178  -16.2876 N   0  0  0  0  0  0  0  0  0  0  0  0
   32.0439  -24.9566  -15.1791 C   0  0  0  0  0  0  0  0  0  0  0  0
   32.9140  -24.8785  -14.2870 O   0  0  0  0  0  0  0  0  0  0  0  0
   30.8185  -24.1537  -15.0643 C   0  0  0  0  0  0  0  0  0  0  0  0
   29.9108  -24.3840  -16.2570 C   0  0  2  0  0  0  0  0  0  0  0  0
   30.6200  -24.1903  -17.5009 N   0  0  0  0  0  0  0  0  0  0  0  0
   28.6851  -23.5675  -16.1777 C   0  0  0  0  0  0  0  0  0  0  0  0
   28.6113  -22.3770  -16.5924 O   0  0  0  0  0  0  0  0  0  0  0  0
   25.6976  -28.0994  -19.3673 N   0  0  0  0  0  0  0  0  0  0  0  0
   24.8092  -27.8320  -18.2981 C   0  0  0  0  0  0  0  0  0  0  0  0
   24.2475  -28.8146  -17.6342 N   0  0  0  0  0  0  0  0  0  0  0  0
   24.4752  -26.5167  -17.8840 N   0  0  0  0  0  0  0  0  0  0  0  0
   25.0212  -25.3505  -18.5427 C   0  0  0  0  0  0  0  0  0  0  0  0
   25.9744  -24.6888  -17.5763 C   0  0  0  0  0  0  0  0  0  0  0  0
   25.2594  -24.1814  -16.3356 C   0  0  0  0  0  0  0  0  0  0  0  0
   26.2486  -23.4592  -15.4980 C   0  0  2  0  0  0  0  0  0  0  0  0
   27.5339  -24.1405  -15.6106 N   0  0  0  0  0  0  0  0  0  0  0  0
   25.8637  -23.2057  -14.1213 C   0  0  0  0  0  0  0  0  0  0  0  0
   26.4284  -23.8429  -13.2087 O   0  0  0  0  0  0  0  0  0  0  0  0
   23.6558  -28.6873  -16.8135 N   0  0  0  0  0  0  0  0  0  0  0  0
   24.8739  -22.2629  -13.7976 C   0  0  1  0  0  0  0  0  0  0  0  0
   24.8570  -21.4660  -12.6010 C   0  0  0  0  0  0  0  0  0  0  0  0
   26.1921  -20.7670  -12.4796 C   0  0  0  0  0  0  0  0  0  0  0  0
   26.5447  -20.4955  -11.0647 C   0  0  0  0  0  0  0  0  0  0  0  0
   25.6463  -20.2171  -10.0577 N   0  0  0  0  0  0  0  0  0  0  0  0
   26.3726  -20.0366   -8.9375 C   0  0  0  0  0  0  0  0  0  0  0  0
   27.6876  -20.1951   -9.2239 C   0  0  0  0  0  0  0  0  0  0  0  0
   28.8201  -20.1158   -8.4423 C   0  0  0  0  0  0  0  0  0  0  0  0
   30.0621  -20.3250   -8.9978 C   0  0  0  0  0  0  0  0  0  0  0  0
   30.1944  -20.6166  -10.3416 C   0  0  0  0  0  0  0  0  0  0  0  0
   29.0769  -20.6996  -11.1352 C   0  0  0  0  0  0  0  0  0  0  0  0
   27.8355  -20.4901  -10.5779 C   0  0  0  0  0  0  0  0  0  0  0  0
   23.7151  -20.5049  -12.5428 O   0  0  0  0  0  0  0  0  0  0  0  0
   23.3770  -20.0576  -11.4223 O   0  0  0  0  0  0  0  0  0  0  0  0
  2  1  1  0
  2  4  1  0
  3  2  2  0
  5  4  1  0
  5  6  1  6
  7  8  2  0
  7  5  1  0
  9 10  1  0
 10 12  1  0
 11 10  2  0
 12 13  1  0
 13 14  1  0
 14 15  1  0
 16 15  1  1
 16 17  1  0
 17  7  1  0
 18 16  1  0
 19 18  2  0
 20 18  1  0
 21 22  1  1
 21 20  1  0
 22 23  1  0
 23 31  1  0
 24 23  2  0
 24 25  1  0
 25 26  1  0
 26 27  1  0
 27 28  2  0
 29 28  1  0
 30 29  2  0
 31 26  2  0
 31 30  1  0
 32 34  1  0
 32 21  1  0
 33 32  2  0
M  END
$$$$
