NRW.pdb
     RDKit          3D

 34 35  0  0  1  0  0  0  0  0999 V2000
   29.0043  -16.0205  -16.5911 N   0  0  0  0  0  0  0  0  0  0  0  0
   27.6297  -15.7012  -16.4419 C   0  0  0  0  0  0  0  0  0  0  0  0
   27.1473  -14.7404  -17.0769 O   0  0  0  0  0  0  0  0  0  0  0  0
   26.7634  -16.4847  -15.5503 C   0  0  0  0  0  0  0  0  0  0  0  0
   27.5555  -17.5708  -14.8485 C   0  0  2  0  0  0  0  0  0  0  0  0
   28.4219  -18.2675  -15.7714 N   0  0  0  0  0  0  0  0  0  0  0  0
   26.6789  -18.4906  -14.0997 C   0  0  0  0  0  0  0  0  0  0  0  0
   25.6943  -18.1081  -13.4076 O   0  0  0  0  0  0  0  0  0  0  0  0
   23.5854  -26.5368  -13.4579 N   0  0  0  0  0  0  0  0  0  0  0  0
   22.8376  -25.3683  -13.7398 C   0  0  0  0  0  0  0  0  0  0  0  0
   21.5559  -25.3123  -13.4642 N   0  0  0  0  0  0  0  0  0  0  0  0
   23.4099  -24.2094  -14.3248 N   0  0  0  0  0  0  0  0  0  0  0  0
   24.8286  -24.1127  -14.5894 C   0  0  0  0  0  0  0  0  0  0  0  0
   25.4237  -23.2009  -13.5430 C   0  0  0  0  0  0  0  0  0  0  0  0
   26.3756  -22.1862  -14.1531 C   0  0  0  0  0  0  0  0  0  0  0  0
   26.1646  -20.8876  -13.4670 C   0  0  2  0  0  0  0  0  0  0  0  0
   26.9493  -19.8686  -14.1560 N   0  0  0  0  0  0  0  0  0  0  0  0
   26.3668  -20.8784  -12.0294 C   0  0  0  0  0  0  0  0  0  0  0  0
   27.5048  -21.1206  -11.5776 O   0  0  0  0  0  0  0  0  0  0  0  0
   20.9769  -24.4835  -13.5966 N   0  0  0  0  0  0  0  0  0  0  0  0
   25.3132  -20.6040  -11.1418 C   0  0  1  0  0  0  0  0  0  0  0  0
   25.3571  -20.8209   -9.7211 C   0  0  0  0  0  0  0  0  0  0  0  0
   26.5427  -20.0660   -9.1640 C   0  0  0  0  0  0  0  0  0  0  0  0
   26.6237  -20.1805   -7.6874 C   0  0  0  0  0  0  0  0  0  0  0  0
   25.6154  -20.6355   -6.8657 N   0  0  0  0  0  0  0  0  0  0  0  0
   26.0948  -20.5820   -5.6078 C   0  0  0  0  0  0  0  0  0  0  0  0
   27.3645  -20.1089   -5.6304 C   0  0  0  0  0  0  0  0  0  0  0  0
   28.2795  -19.8684   -4.6280 C   0  0  0  0  0  0  0  0  0  0  0  0
   29.5280  -19.3751   -4.9324 C   0  0  0  0  0  0  0  0  0  0  0  0
   29.8839  -19.1138   -6.2414 C   0  0  0  0  0  0  0  0  0  0  0  0
   28.9850  -19.3476   -7.2527 C   0  0  0  0  0  0  0  0  0  0  0  0
   27.7367  -19.8409   -6.9464 C   0  0  0  0  0  0  0  0  0  0  0  0
   24.0861  -20.4589   -9.0248 O   0  0  0  0  0  0  0  0  0  0  0  0
   24.0436  -20.5724   -7.7777 O   0  0  0  0  0  0  0  0  0  0  0  0
  2  1  1  0
  2  4  1  0
  3  2  2  0
  5  4  1  0
  5  6  1  6
  7  8  2  0
  7  5  1  0
  9 10  1  0
 10 12  1  0
 11 10  2  0
 12 13  1  0
 13 14  1  0
 14 15  1  0
 16 15  1  6
 16 17  1  0
 17  7  1  0
 18 16  1  0
 19 18  2  0
 20 18  1  0
 21 22  1  1
 21 20  1  0
 22 23  1  0
 23 31  1  0
 24 23  2  0
 24 25  1  0
 25 26  1  0
 26 27  1  0
 27 28  2  0
 29 28  1  0
 30 29  2  0
 31 26  2  0
 31 30  1  0
 32 34  1  0
 32 21  1  0
 33 32  2  0
M  END
$$$$
