PHE.pdb
     RDKit          3D

 27 28  0  0  1  0  0  0  0  0999 V2000
   26.6712  -20.9093  -15.8904 N   0  0  0  0  0  0  0  0  0  0  0  0
   27.9875  -21.5356  -15.8728 C   0  0  0  0  0  0  0  0  0  0  0  0
   28.8538  -20.3823  -16.3748 C   0  0  0  0  0  0  0  0  0  0  0  0
   28.1693  -19.1567  -15.8042 C   0  0  0  0  0  0  0  0  0  0  0  0
   26.9248  -19.7031  -15.1548 C   0  0  1  0  0  0  0  0  0  0  0  0
   25.7954  -18.7452  -15.2084 C   0  0  0  0  0  0  0  0  0  0  0  0
   25.8882  -17.6208  -14.6402 O   0  0  0  0  0  0  0  0  0  0  0  0
   24.6265  -19.1395  -15.9131 N   0  0  0  0  0  0  0  0  0  0  0  0
   23.4602  -18.3147  -16.0510 C   0  0  1  0  0  0  0  0  0  0  0  0
   23.2044  -17.8211  -17.4300 C   0  0  0  0  0  0  0  0  0  0  0  0
   24.3273  -16.9831  -17.9256 C   0  0  0  0  0  0  0  0  0  0  0  0
   25.2579  -17.2693  -18.8977 C   0  0  0  0  0  0  0  0  0  0  0  0
   26.1077  -16.2301  -19.0413 N   0  0  0  0  0  0  0  0  0  0  0  0
   25.7217  -15.2907  -18.1685 C   0  0  0  0  0  0  0  0  0  0  0  0
   24.6366  -15.7448  -17.4858 N   0  0  0  0  0  0  0  0  0  0  0  0
   22.2769  -18.9517  -15.4164 C   0  0  0  0  0  0  0  0  0  0  0  0
   22.0112  -20.1332  -15.7182 O   0  0  0  0  0  0  0  0  0  0  0  0
   21.4526  -18.2702  -14.4929 N   0  0  0  0  0  0  0  0  0  0  0  0
   20.3048  -18.9561  -13.9072 C   0  0  1  0  0  0  0  0  0  0  0  0
   20.0231  -18.3264  -12.5619 C   0  0  0  0  0  0  0  0  0  0  0  0
   18.8675  -18.9127  -11.8314 C   0  0  0  0  0  0  0  0  0  0  0  0
   19.0763  -20.2641  -11.2911 C   0  0  0  0  0  0  0  0  0  0  0  0
   19.9239  -20.5930  -10.4523 O   0  0  0  0  0  0  0  0  0  0  0  0
   19.1569  -18.8734  -14.8195 C   0  0  0  0  0  0  0  0  0  0  0  0
   18.9060  -17.8499  -15.4702 O   0  0  0  0  0  0  0  0  0  0  0  0
   18.2378  -21.2720  -11.7708 O   0  0  0  0  0  0  0  0  0  0  0  0
   18.3241  -19.9689  -14.9629 O   0  0  0  0  0  0  0  0  0  0  0  0
  2  1  1  0
  3  2  1  0
  4  3  1  0
  4  5  1  0
  5  1  1  0
  5  6  1  6
  6  7  2  0
  8  6  1  0
  8  9  1  0
  9 10  1  6
 11 10  1  0
 12 11  2  0
 13 12  1  0
 14 13  1  0
 14 15  2  0
 15 11  1  0
 16 17  2  0
 16  9  1  0
 18 16  1  0
 19 18  1  0
 19 20  1  1
 21 20  1  0
 22 23  2  0
 22 21  1  0
 24 19  1  0
 24 27  1  0
 25 24  2  0
 26 22  1  0
M  END
$$$$
