PHE.pdb
     RDKit          3D

 27 28  0  0  1  0  0  0  0  0999 V2000
   27.2141  -17.5728  -16.7254 N   0  0  0  0  0  0  0  0  0  0  0  0
   28.6594  -17.4569  -16.8769 C   0  0  0  0  0  0  0  0  0  0  0  0
   28.8365  -15.9467  -16.7332 C   0  0  0  0  0  0  0  0  0  0  0  0
   27.7627  -15.5621  -15.7356 C   0  0  0  0  0  0  0  0  0  0  0  0
   27.0002  -16.8413  -15.5090 C   0  0  1  0  0  0  0  0  0  0  0  0
   25.5662  -16.5986  -15.2249 C   0  0  0  0  0  0  0  0  0  0  0  0
   25.2260  -15.8509  -14.2653 O   0  0  0  0  0  0  0  0  0  0  0  0
   24.6095  -17.2317  -16.0631 N   0  0  0  0  0  0  0  0  0  0  0  0
   23.1922  -17.0401  -15.9446 C   0  0  1  0  0  0  0  0  0  0  0  0
   22.5790  -16.2304  -17.0304 C   0  0  0  0  0  0  0  0  0  0  0  0
   22.9971  -14.8065  -16.9506 C   0  0  0  0  0  0  0  0  0  0  0  0
   22.3703  -13.7539  -16.3244 C   0  0  0  0  0  0  0  0  0  0  0  0
   23.0885  -12.6235  -16.4949 N   0  0  0  0  0  0  0  0  0  0  0  0
   24.1628  -12.9533  -17.2231 C   0  0  0  0  0  0  0  0  0  0  0  0
   24.1119  -14.2831  -17.5036 N   0  0  0  0  0  0  0  0  0  0  0  0
   22.4972  -18.3302  -15.6973 C   0  0  0  0  0  0  0  0  0  0  0  0
   23.0173  -19.3742  -16.1416 O   0  0  0  0  0  0  0  0  0  0  0  0
   21.2805  -18.4118  -14.9834 N   0  0  0  0  0  0  0  0  0  0  0  0
   20.6256  -19.7061  -14.8191 C   0  0  1  0  0  0  0  0  0  0  0  0
   19.5220  -19.5430  -13.7988 C   0  0  0  0  0  0  0  0  0  0  0  0
   18.7141  -20.7683  -13.5564 C   0  0  0  0  0  0  0  0  0  0  0  0
   17.6223  -20.6274  -12.5816 C   0  0  0  0  0  0  0  0  0  0  0  0
   17.3304  -19.6020  -11.9544 O   0  0  0  0  0  0  0  0  0  0  0  0
   20.1278  -20.1803  -16.1168 C   0  0  0  0  0  0  0  0  0  0  0  0
   19.7017  -19.4031  -16.9819 O   0  0  0  0  0  0  0  0  0  0  0  0
   16.8408  -21.7591  -12.3415 O   0  0  0  0  0  0  0  0  0  0  0  0
   20.1313  -21.5366  -16.3901 O   0  0  0  0  0  0  0  0  0  0  0  0
  2  1  1  0
  3  2  1  0
  4  3  1  0
  4  5  1  0
  5  1  1  0
  5  6  1  6
  6  7  2  0
  8  6  1  0
  8  9  1  0
  9 10  1  6
 11 10  1  0
 12 11  2  0
 13 12  1  0
 14 13  1  0
 14 15  2  0
 15 11  1  0
 16 17  2  0
 16  9  1  0
 18 16  1  0
 19 18  1  0
 19 20  1  1
 21 20  1  0
 22 23  2  0
 22 21  1  0
 24 19  1  0
 24 27  1  0
 25 24  2  0
 26 22  1  0
M  END
$$$$
