PHE.pdb
     RDKit          3D

 27 28  0  0  1  0  0  0  0  0999 V2000
   22.2423   -8.4179  -15.6267 N   0  0  0  0  0  0  0  0  0  0  0  0
   23.2995   -8.4578  -16.6296 C   0  0  0  0  0  0  0  0  0  0  0  0
   22.5153   -8.9485  -17.8448 C   0  0  0  0  0  0  0  0  0  0  0  0
   21.1492   -8.3206  -17.6563 C   0  0  0  0  0  0  0  0  0  0  0  0
   21.2375   -7.6528  -16.3089 C   0  0  1  0  0  0  0  0  0  0  0  0
   19.9366   -7.6439  -15.5992 C   0  0  0  0  0  0  0  0  0  0  0  0
   18.9149   -7.1466  -16.1511 O   0  0  0  0  0  0  0  0  0  0  0  0
   19.8902   -8.2082  -14.2962 N   0  0  0  0  0  0  0  0  0  0  0  0
   18.6804   -8.3855  -13.5449 C   0  0  1  0  0  0  0  0  0  0  0  0
   18.4059   -9.7852  -13.1251 C   0  0  0  0  0  0  0  0  0  0  0  0
   18.1679  -10.6684  -14.2965 C   0  0  0  0  0  0  0  0  0  0  0  0
   19.0275  -11.5575  -14.8994 C   0  0  0  0  0  0  0  0  0  0  0  0
   18.4111  -12.1613  -15.9377 N   0  0  0  0  0  0  0  0  0  0  0  0
   17.1702  -11.6612  -15.9954 C   0  0  0  0  0  0  0  0  0  0  0  0
   17.0168  -10.7506  -14.9970 N   0  0  0  0  0  0  0  0  0  0  0  0
   18.5916   -7.4015  -12.4347 C   0  0  0  0  0  0  0  0  0  0  0  0
   19.6143   -7.1906  -11.7512 O   0  0  0  0  0  0  0  0  0  0  0  0
   17.3999   -6.7051  -12.1318 N   0  0  0  0  0  0  0  0  0  0  0  0
   17.4101   -5.6720  -11.1004 C   0  0  1  0  0  0  0  0  0  0  0  0
   16.3008   -4.6930  -11.4114 C   0  0  0  0  0  0  0  0  0  0  0  0
   16.2300   -3.5230  -10.4955 C   0  0  0  0  0  0  0  0  0  0  0  0
   15.0860   -2.6226  -10.7017 C   0  0  0  0  0  0  0  0  0  0  0  0
   14.2270   -2.7231  -11.5860 O   0  0  0  0  0  0  0  0  0  0  0  0
   17.2621   -6.2893   -9.7762 C   0  0  0  0  0  0  0  0  0  0  0  0
   16.9019   -7.4659   -9.6353 O   0  0  0  0  0  0  0  0  0  0  0  0
   14.9576   -1.5522   -9.8147 O   0  0  0  0  0  0  0  0  0  0  0  0
   17.5315   -5.5402   -8.6446 O   0  0  0  0  0  0  0  0  0  0  0  0
  2  1  1  0
  3  2  1  0
  4  3  1  0
  4  5  1  0
  5  1  1  0
  5  6  1  1
  6  7  2  0
  8  6  1  0
  8  9  1  0
  9 10  1  1
 11 10  1  0
 12 11  2  0
 13 12  1  0
 14 13  1  0
 14 15  2  0
 15 11  1  0
 16 17  2  0
 16  9  1  0
 18 16  1  0
 19 18  1  0
 19 20  1  6
 21 20  1  0
 22 23  2  0
 22 21  1  0
 24 19  1  0
 24 27  1  0
 25 24  2  0
 26 22  1  0
M  END
$$$$
