PHE.pdb
     RDKit          3D

 27 28  0  0  1  0  0  0  0  0999 V2000
   26.7131  -21.4405  -16.7095 N   0  0  0  0  0  0  0  0  0  0  0  0
   27.8757  -22.3179  -16.7729 C   0  0  0  0  0  0  0  0  0  0  0  0
   28.9553  -21.3942  -16.2125 C   0  0  0  0  0  0  0  0  0  0  0  0
   28.2090  -20.5667  -15.1856 C   0  0  0  0  0  0  0  0  0  0  0  0
   26.7733  -20.9933  -15.3469 C   0  0  1  0  0  0  0  0  0  0  0  0
   25.8237  -19.8932  -15.0571 C   0  0  0  0  0  0  0  0  0  0  0  0
   25.8215  -19.3378  -13.9225 O   0  0  0  0  0  0  0  0  0  0  0  0
   24.9332  -19.4985  -16.0914 N   0  0  0  0  0  0  0  0  0  0  0  0
   24.0127  -18.4033  -15.9784 C   0  0  1  0  0  0  0  0  0  0  0  0
   24.3699  -17.2028  -16.7796 C   0  0  0  0  0  0  0  0  0  0  0  0
   25.6614  -16.6165  -16.3361 C   0  0  0  0  0  0  0  0  0  0  0  0
   25.9166  -15.7977  -15.2603 C   0  0  0  0  0  0  0  0  0  0  0  0
   27.2308  -15.4914  -15.2168 N   0  0  0  0  0  0  0  0  0  0  0  0
   27.8071  -16.1095  -16.2555 C   0  0  0  0  0  0  0  0  0  0  0  0
   26.8547  -16.7968  -16.9412 N   0  0  0  0  0  0  0  0  0  0  0  0
   22.6124  -18.8592  -16.1786 C   0  0  0  0  0  0  0  0  0  0  0  0
   22.3955  -19.7343  -17.0416 O   0  0  0  0  0  0  0  0  0  0  0  0
   21.5313  -18.3393  -15.4318 N   0  0  0  0  0  0  0  0  0  0  0  0
   20.1889  -18.8750  -15.6369 C   0  0  1  0  0  0  0  0  0  0  0  0
   19.3770  -18.5839  -14.3952 C   0  0  0  0  0  0  0  0  0  0  0  0
   18.0145  -19.1809  -14.3898 C   0  0  0  0  0  0  0  0  0  0  0  0
   17.1888  -18.8697  -13.2137 C   0  0  0  0  0  0  0  0  0  0  0  0
   17.5144  -18.1502  -12.2618 O   0  0  0  0  0  0  0  0  0  0  0  0
   19.5984  -18.2883  -16.8467 C   0  0  0  0  0  0  0  0  0  0  0  0
   19.9014  -17.1548  -17.2435 O   0  0  0  0  0  0  0  0  0  0  0  0
   15.9158  -19.4412  -13.1674 O   0  0  0  0  0  0  0  0  0  0  0  0
   18.6735  -19.0177  -17.5725 O   0  0  0  0  0  0  0  0  0  0  0  0
  2  1  1  0
  3  2  1  0
  4  3  1  0
  4  5  1  0
  5  1  1  0
  5  6  1  6
  6  7  2  0
  8  6  1  0
  8  9  1  0
  9 10  1  6
 11 10  1  0
 12 11  2  0
 13 12  1  0
 14 13  1  0
 14 15  2  0
 15 11  1  0
 16 17  2  0
 16  9  1  0
 18 16  1  0
 19 18  1  0
 19 20  1  1
 21 20  1  0
 22 23  2  0
 22 21  1  0
 24 19  1  0
 24 27  1  0
 25 24  2  0
 26 22  1  0
M  END
$$$$
