PHE.pdb
     RDKit          3D

 27 28  0  0  1  0  0  0  0  0999 V2000
   21.7306  -12.6877  -16.7950 N   0  0  0  0  0  0  0  0  0  0  0  0
   22.0552  -13.9499  -17.4482 C   0  0  0  0  0  0  0  0  0  0  0  0
   20.7246  -14.2637  -18.1293 C   0  0  0  0  0  0  0  0  0  0  0  0
   20.1904  -12.8950  -18.5003 C   0  0  0  0  0  0  0  0  0  0  0  0
   21.1811  -11.9388  -17.8893 C   0  0  1  0  0  0  0  0  0  0  0  0
   20.5471  -10.6698  -17.4608 C   0  0  0  0  0  0  0  0  0  0  0  0
   20.1455   -9.8374  -18.3220 O   0  0  0  0  0  0  0  0  0  0  0  0
   20.4137  -10.4352  -16.0659 N   0  0  0  0  0  0  0  0  0  0  0  0
   19.8096   -9.2591  -15.5077 C   0  0  1  0  0  0  0  0  0  0  0  0
   18.7874   -9.5200  -14.4600 C   0  0  0  0  0  0  0  0  0  0  0  0
   17.4818   -9.9048  -15.0566 C   0  0  0  0  0  0  0  0  0  0  0  0
   17.1352  -10.0156  -16.3835 C   0  0  0  0  0  0  0  0  0  0  0  0
   15.8434  -10.3930  -16.4916 N   0  0  0  0  0  0  0  0  0  0  0  0
   15.3718  -10.5212  -15.2449 C   0  0  0  0  0  0  0  0  0  0  0  0
   16.3667  -10.2247  -14.3662 N   0  0  0  0  0  0  0  0  0  0  0  0
   20.8414   -8.2698  -15.1012 C   0  0  0  0  0  0  0  0  0  0  0  0
   21.7950   -8.6671  -14.4009 O   0  0  0  0  0  0  0  0  0  0  0  0
   20.7780   -6.9093  -15.4780 N   0  0  0  0  0  0  0  0  0  0  0  0
   21.8336   -5.9937  -15.0557 C   0  0  1  0  0  0  0  0  0  0  0  0
   21.9465   -4.9023  -16.0958 C   0  0  0  0  0  0  0  0  0  0  0  0
   22.9851   -3.8765  -15.8097 C   0  0  0  0  0  0  0  0  0  0  0  0
   23.1957   -2.8737  -16.8642 C   0  0  0  0  0  0  0  0  0  0  0  0
   24.2677   -2.6176  -17.4255 O   0  0  0  0  0  0  0  0  0  0  0  0
   21.5312   -5.4683  -13.7182 C   0  0  0  0  0  0  0  0  0  0  0  0
   22.3962   -4.9360  -13.0093 O   0  0  0  0  0  0  0  0  0  0  0  0
   22.0789   -2.1408  -17.2701 O   0  0  0  0  0  0  0  0  0  0  0  0
   20.2418   -5.5669  -13.2262 O   0  0  0  0  0  0  0  0  0  0  0  0
  2  1  1  0
  3  2  1  0
  4  3  1  0
  4  5  1  0
  5  1  1  0
  5  6  1  1
  6  7  2  0
  8  6  1  0
  8  9  1  0
  9 10  1  1
 11 10  1  0
 12 11  2  0
 13 12  1  0
 14 13  1  0
 14 15  2  0
 15 11  1  0
 16 17  2  0
 16  9  1  0
 18 16  1  0
 19 18  1  0
 19 20  1  6
 21 20  1  0
 22 23  2  0
 22 21  1  0
 24 19  1  0
 24 27  1  0
 25 24  2  0
 26 22  1  0
M  END
$$$$
