PHE.pdb
     RDKit          3D

 27 28  0  0  1  0  0  0  0  0999 V2000
   26.5708  -16.6357  -17.1040 N   0  0  0  0  0  0  0  0  0  0  0  0
   26.9347  -15.2314  -16.9601 C   0  0  0  0  0  0  0  0  0  0  0  0
   25.5991  -14.6397  -16.5142 C   0  0  0  0  0  0  0  0  0  0  0  0
   24.9866  -15.7473  -15.6811 C   0  0  0  0  0  0  0  0  0  0  0  0
   25.9492  -16.8955  -15.8365 C   0  0  1  0  0  0  0  0  0  0  0  0
   25.2687  -18.2110  -15.7853 C   0  0  0  0  0  0  0  0  0  0  0  0
   24.7683  -18.7089  -16.8329 O   0  0  0  0  0  0  0  0  0  0  0  0
   25.2052  -18.8744  -14.5306 N   0  0  0  0  0  0  0  0  0  0  0  0
   24.5792  -20.1504  -14.3323 C   0  0  1  0  0  0  0  0  0  0  0  0
   25.4375  -21.1711  -13.6749 C   0  0  0  0  0  0  0  0  0  0  0  0
   26.6198  -21.5081  -14.5099 C   0  0  0  0  0  0  0  0  0  0  0  0
   27.8936  -20.9910  -14.4560 C   0  0  0  0  0  0  0  0  0  0  0  0
   28.6674  -21.5748  -15.3957 N   0  0  0  0  0  0  0  0  0  0  0  0
   27.8932  -22.4557  -16.0422 C   0  0  0  0  0  0  0  0  0  0  0  0
   26.6439  -22.4189  -15.5060 N   0  0  0  0  0  0  0  0  0  0  0  0
   23.2430  -19.9978  -13.6998 C   0  0  0  0  0  0  0  0  0  0  0  0
   23.1742  -19.4038  -12.6043 O   0  0  0  0  0  0  0  0  0  0  0  0
   22.0617  -20.4978  -14.2923 N   0  0  0  0  0  0  0  0  0  0  0  0
   20.7800  -20.3049  -13.6207 C   0  0  1  0  0  0  0  0  0  0  0  0
   19.7248  -20.0950  -14.6829 C   0  0  0  0  0  0  0  0  0  0  0  0
   19.0996  -18.7453  -14.6793 C   0  0  0  0  0  0  0  0  0  0  0  0
   18.0478  -18.5292  -15.6837 C   0  0  0  0  0  0  0  0  0  0  0  0
   18.2167  -18.3967  -16.9019 O   0  0  0  0  0  0  0  0  0  0  0  0
   20.4908  -21.4587  -12.7594 C   0  0  0  0  0  0  0  0  0  0  0  0
   21.0690  -22.5451  -12.8989 O   0  0  0  0  0  0  0  0  0  0  0  0
   16.7332  -18.4678  -15.2177 O   0  0  0  0  0  0  0  0  0  0  0  0
   19.5441  -21.3372  -11.7578 O   0  0  0  0  0  0  0  0  0  0  0  0
  2  1  1  0
  3  2  1  0
  4  3  1  0
  4  5  1  0
  5  1  1  0
  5  6  1  6
  6  7  2  0
  8  6  1  0
  8  9  1  0
  9 10  1  1
 11 10  1  0
 12 11  2  0
 13 12  1  0
 14 13  1  0
 14 15  2  0
 15 11  1  0
 16 17  2  0
 16  9  1  0
 18 16  1  0
 19 18  1  0
 19 20  1  6
 21 20  1  0
 22 23  2  0
 22 21  1  0
 24 19  1  0
 24 27  1  0
 25 24  2  0
 26 22  1  0
M  END
$$$$
