PHE.pdb
     RDKit          3D

 27 28  0  0  1  0  0  0  0  0999 V2000
   22.1312  -29.5635   -9.7140 N   0  0  0  0  0  0  0  0  0  0  0  0
   21.1456  -28.7752  -10.4436 C   0  0  0  0  0  0  0  0  0  0  0  0
   20.6051  -29.8268  -11.4105 C   0  0  0  0  0  0  0  0  0  0  0  0
   20.6659  -31.1079  -10.6035 C   0  0  0  0  0  0  0  0  0  0  0  0
   21.3472  -30.7006   -9.3233 C   0  0  1  0  0  0  0  0  0  0  0  0
   22.1635  -31.7953   -8.7476 C   0  0  0  0  0  0  0  0  0  0  0  0
   21.6065  -32.8424   -8.3129 O   0  0  0  0  0  0  0  0  0  0  0  0
   23.5726  -31.6185   -8.7069 N   0  0  0  0  0  0  0  0  0  0  0  0
   24.4928  -32.6316   -8.2753 C   0  0  1  0  0  0  0  0  0  0  0  0
   25.8277  -32.5813   -8.9282 C   0  0  0  0  0  0  0  0  0  0  0  0
   25.8408  -33.3484  -10.2010 C   0  0  0  0  0  0  0  0  0  0  0  0
   24.8857  -34.1980  -10.7098 C   0  0  0  0  0  0  0  0  0  0  0  0
   25.2942  -34.6903  -11.8987 N   0  0  0  0  0  0  0  0  0  0  0  0
   26.4985  -34.1590  -12.1447 C   0  0  0  0  0  0  0  0  0  0  0  0
   26.8364  -33.3401  -11.1127 N   0  0  0  0  0  0  0  0  0  0  0  0
   24.5564  -32.6991   -6.7920 C   0  0  0  0  0  0  0  0  0  0  0  0
   24.7487  -31.6392   -6.1618 O   0  0  0  0  0  0  0  0  0  0  0  0
   24.4078  -33.9111   -6.0807 N   0  0  0  0  0  0  0  0  0  0  0  0
   24.3724  -33.8917   -4.6215 C   0  0  1  0  0  0  0  0  0  0  0  0
   23.2093  -34.7469   -4.1727 C   0  0  0  0  0  0  0  0  0  0  0  0
   23.0634  -34.8726   -2.6978 C   0  0  0  0  0  0  0  0  0  0  0  0
   21.9630  -35.7331   -2.2388 C   0  0  0  0  0  0  0  0  0  0  0  0
   21.0859  -36.2392   -2.9492 O   0  0  0  0  0  0  0  0  0  0  0  0
   25.6568  -34.3613   -4.0862 C   0  0  0  0  0  0  0  0  0  0  0  0
   26.3725  -35.1631   -4.7018 O   0  0  0  0  0  0  0  0  0  0  0  0
   21.9027  -36.0047   -0.8707 O   0  0  0  0  0  0  0  0  0  0  0  0
   26.0889  -33.8986   -2.8559 O   0  0  0  0  0  0  0  0  0  0  0  0
  2  1  1  0
  3  2  1  0
  4  3  1  0
  4  5  1  0
  5  1  1  0
  5  6  1  6
  6  7  2  0
  8  6  1  0
  8  9  1  0
  9 10  1  6
 11 10  1  0
 12 11  2  0
 13 12  1  0
 14 13  1  0
 14 15  2  0
 15 11  1  0
 16 17  2  0
 16  9  1  0
 18 16  1  0
 19 18  1  0
 19 20  1  1
 21 20  1  0
 22 23  2  0
 22 21  1  0
 24 19  1  0
 24 27  1  0
 25 24  2  0
 26 22  1  0
M  END
$$$$
