PHE.pdb
     RDKit          3D

 27 28  0  0  1  0  0  0  0  0999 V2000
   26.1786  -18.7022  -15.0204 N   0  0  0  0  0  0  0  0  0  0  0  0
   27.4268  -18.2558  -15.6270 C   0  0  0  0  0  0  0  0  0  0  0  0
   28.4268  -19.1598  -14.9090 C   0  0  0  0  0  0  0  0  0  0  0  0
   27.6546  -20.4486  -14.7122 C   0  0  0  0  0  0  0  0  0  0  0  0
   26.2691  -20.1227  -15.2056 C   0  0  1  0  0  0  0  0  0  0  0  0
   25.2204  -20.8693  -14.4715 C   0  0  0  0  0  0  0  0  0  0  0  0
   25.1845  -22.1310  -14.5230 O   0  0  0  0  0  0  0  0  0  0  0  0
   24.2757  -20.1182  -13.7219 N   0  0  0  0  0  0  0  0  0  0  0  0
   23.2332  -20.7074  -12.9311 C   0  0  1  0  0  0  0  0  0  0  0  0
   23.2058  -20.2714  -11.5099 C   0  0  0  0  0  0  0  0  0  0  0  0
   24.4674  -20.6234  -10.8077 C   0  0  0  0  0  0  0  0  0  0  0  0
   25.5826  -21.2621  -11.2990 C   0  0  0  0  0  0  0  0  0  0  0  0
   26.5089  -21.3853  -10.3246 N   0  0  0  0  0  0  0  0  0  0  0  0
   25.9883  -20.8300   -9.2229 C   0  0  0  0  0  0  0  0  0  0  0  0
   24.7437  -20.3640   -9.5120 N   0  0  0  0  0  0  0  0  0  0  0  0
   21.9177  -20.5982  -13.6140 C   0  0  0  0  0  0  0  0  0  0  0  0
   21.6373  -19.5240  -14.1841 O   0  0  0  0  0  0  0  0  0  0  0  0
   20.9851  -21.6595  -13.6381 N   0  0  0  0  0  0  0  0  0  0  0  0
   19.7359  -21.5058  -14.3776 C   0  0  1  0  0  0  0  0  0  0  0  0
   19.2012  -22.8872  -14.6801 C   0  0  0  0  0  0  0  0  0  0  0  0
   17.8804  -22.9060  -15.3642 C   0  0  0  0  0  0  0  0  0  0  0  0
   17.3061  -24.2386  -15.6013 C   0  0  0  0  0  0  0  0  0  0  0  0
   17.7952  -25.3185  -15.2481 O   0  0  0  0  0  0  0  0  0  0  0  0
   18.7924  -20.6946  -13.5976 C   0  0  0  0  0  0  0  0  0  0  0  0
   18.8432  -20.6329  -12.3617 O   0  0  0  0  0  0  0  0  0  0  0  0
   16.0932  -24.2895  -16.2907 O   0  0  0  0  0  0  0  0  0  0  0  0
   17.8125  -19.9732  -14.2561 O   0  0  0  0  0  0  0  0  0  0  0  0
  2  1  1  0
  3  2  1  0
  4  3  1  0
  4  5  1  0
  5  1  1  0
  5  6  1  1
  6  7  2  0
  8  6  1  0
  8  9  1  0
  9 10  1  1
 11 10  1  0
 12 11  2  0
 13 12  1  0
 14 13  1  0
 14 15  2  0
 15 11  1  0
 16 17  2  0
 16  9  1  0
 18 16  1  0
 19 18  1  0
 19 20  1  1
 21 20  1  0
 22 23  2  0
 22 21  1  0
 24 19  1  0
 24 27  1  0
 25 24  2  0
 26 22  1  0
M  END
$$$$
