PHE.pdb
     RDKit          3D

 27 28  0  0  1  0  0  0  0  0999 V2000
   27.0064  -20.4099  -16.0745 N   0  0  0  0  0  0  0  0  0  0  0  0
   28.4480  -20.6121  -16.1526 C   0  0  0  0  0  0  0  0  0  0  0  0
   28.9488  -19.2761  -15.6076 C   0  0  0  0  0  0  0  0  0  0  0  0
   27.9061  -18.9080  -14.5716 C   0  0  0  0  0  0  0  0  0  0  0  0
   26.8570  -19.9797  -14.7132 C   0  0  1  0  0  0  0  0  0  0  0  0
   25.4957  -19.4777  -14.4117 C   0  0  0  0  0  0  0  0  0  0  0  0
   25.2309  -19.0051  -13.2706 O   0  0  0  0  0  0  0  0  0  0  0  0
   24.5208  -19.5499  -15.4427 N   0  0  0  0  0  0  0  0  0  0  0  0
   23.2172  -18.9567  -15.3525 C   0  0  1  0  0  0  0  0  0  0  0  0
   22.9683  -17.8481  -16.3115 C   0  0  0  0  0  0  0  0  0  0  0  0
   23.9586  -16.7523  -16.1462 C   0  0  0  0  0  0  0  0  0  0  0  0
   24.8991  -16.2932  -17.0393 C   0  0  0  0  0  0  0  0  0  0  0  0
   25.5992  -15.2783  -16.4891 N   0  0  0  0  0  0  0  0  0  0  0  0
   25.1089  -15.0929  -15.2569 C   0  0  0  0  0  0  0  0  0  0  0  0
   24.1085  -15.9890  -15.0428 N   0  0  0  0  0  0  0  0  0  0  0  0
   22.1554  -19.9966  -15.3543 C   0  0  0  0  0  0  0  0  0  0  0  0
   22.1808  -20.8628  -16.2524 O   0  0  0  0  0  0  0  0  0  0  0  0
   21.1300  -20.0354  -14.3829 N   0  0  0  0  0  0  0  0  0  0  0  0
   20.2249  -21.1798  -14.3343 C   0  0  1  0  0  0  0  0  0  0  0  0
   19.8347  -21.4036  -12.8909 C   0  0  0  0  0  0  0  0  0  0  0  0
   18.8638  -22.5095  -12.6742 C   0  0  0  0  0  0  0  0  0  0  0  0
   18.4529  -22.7306  -11.2798 C   0  0  0  0  0  0  0  0  0  0  0  0
   18.8270  -22.0811  -10.2959 O   0  0  0  0  0  0  0  0  0  0  0  0
   19.0646  -20.9338  -15.2001 C   0  0  0  0  0  0  0  0  0  0  0  0
   18.6328  -19.7926  -15.4132 O   0  0  0  0  0  0  0  0  0  0  0  0
   17.5547  -23.7732  -11.0444 O   0  0  0  0  0  0  0  0  0  0  0  0
   18.4273  -22.0048  -15.8009 O   0  0  0  0  0  0  0  0  0  0  0  0
  2  1  1  0
  3  2  1  0
  4  3  1  0
  4  5  1  0
  5  1  1  0
  5  6  1  6
  6  7  2  0
  8  6  1  0
  8  9  1  0
  9 10  1  6
 11 10  1  0
 12 11  2  0
 13 12  1  0
 14 13  1  0
 14 15  2  0
 15 11  1  0
 16 17  2  0
 16  9  1  0
 18 16  1  0
 19 18  1  0
 19 20  1  1
 21 20  1  0
 22 23  2  0
 22 21  1  0
 24 19  1  0
 24 27  1  0
 25 24  2  0
 26 22  1  0
M  END
$$$$
