PHE.pdb
     RDKit          3D

 27 28  0  0  1  0  0  0  0  0999 V2000
   19.2929  -13.7777    4.8620 N   0  0  0  0  0  0  0  0  0  0  0  0
   19.2756  -12.3687    4.4884 C   0  0  0  0  0  0  0  0  0  0  0  0
   17.9249  -12.2826    3.7805 C   0  0  0  0  0  0  0  0  0  0  0  0
   17.0650  -13.2671    4.5470 C   0  0  0  0  0  0  0  0  0  0  0  0
   18.0222  -13.9099    5.5163 C   0  0  1  0  0  0  0  0  0  0  0  0
   17.6660  -15.3185    5.8080 C   0  0  0  0  0  0  0  0  0  0  0  0
   16.5824  -15.5911    6.3972 O   0  0  0  0  0  0  0  0  0  0  0  0
   18.5792  -16.3290    5.4036 N   0  0  0  0  0  0  0  0  0  0  0  0
   18.3384  -17.7345    5.5649 C   0  0  1  0  0  0  0  0  0  0  0  0
   18.2529  -18.5028    4.2948 C   0  0  0  0  0  0  0  0  0  0  0  0
   17.3775  -17.8227    3.3048 C   0  0  0  0  0  0  0  0  0  0  0  0
   17.7304  -17.1157    2.1786 C   0  0  0  0  0  0  0  0  0  0  0  0
   16.6228  -16.6603    1.5553 N   0  0  0  0  0  0  0  0  0  0  0  0
   15.5741  -17.0737    2.2781 C   0  0  0  0  0  0  0  0  0  0  0  0
   16.0287  -17.7828    3.3459 N   0  0  0  0  0  0  0  0  0  0  0  0
   19.2721  -18.3263    6.5582 C   0  0  0  0  0  0  0  0  0  0  0  0
   20.4982  -18.2176    6.3518 O   0  0  0  0  0  0  0  0  0  0  0  0
   18.8213  -19.0002    7.7155 N   0  0  0  0  0  0  0  0  0  0  0  0
   19.7937  -19.5472    8.6568 C   0  0  1  0  0  0  0  0  0  0  0  0
   19.8665  -18.6152    9.8450 C   0  0  0  0  0  0  0  0  0  0  0  0
   18.5966  -18.4808   10.6078 C   0  0  0  0  0  0  0  0  0  0  0  0
   18.4489  -17.2403   11.3832 C   0  0  0  0  0  0  0  0  0  0  0  0
   19.0541  -16.9518   12.4227 O   0  0  0  0  0  0  0  0  0  0  0  0
   19.4071  -20.9127    9.0345 C   0  0  0  0  0  0  0  0  0  0  0  0
   18.3444  -21.4240    8.6563 O   0  0  0  0  0  0  0  0  0  0  0  0
   17.5388  -16.2985   10.8998 O   0  0  0  0  0  0  0  0  0  0  0  0
   20.2508  -21.6589    9.8381 O   0  0  0  0  0  0  0  0  0  0  0  0
  2  1  1  0
  3  2  1  0
  4  3  1  0
  4  5  1  0
  5  1  1  0
  5  6  1  6
  6  7  2  0
  8  6  1  0
  8  9  1  0
  9 10  1  6
 11 10  1  0
 12 11  2  0
 13 12  1  0
 14 13  1  0
 14 15  2  0
 15 11  1  0
 16 17  2  0
 16  9  1  0
 18 16  1  0
 19 18  1  0
 19 20  1  1
 21 20  1  0
 22 23  2  0
 22 21  1  0
 24 19  1  0
 24 27  1  0
 25 24  2  0
 26 22  1  0
M  END
$$$$
