PHE.pdb
     RDKit          3D

 27 28  0  0  1  0  0  0  0  0999 V2000
   24.4730  -12.2717  -15.8971 N   0  0  0  0  0  0  0  0  0  0  0  0
   25.2983  -13.3640  -16.3981 C   0  0  0  0  0  0  0  0  0  0  0  0
   24.3130  -14.0500  -17.3421 C   0  0  0  0  0  0  0  0  0  0  0  0
   23.4944  -12.8987  -17.8902 C   0  0  0  0  0  0  0  0  0  0  0  0
   23.9893  -11.7011  -17.1221 C   0  0  1  0  0  0  0  0  0  0  0  0
   22.9261  -10.6909  -16.9090 C   0  0  0  0  0  0  0  0  0  0  0  0
   22.4945  -10.0080  -17.8801 O   0  0  0  0  0  0  0  0  0  0  0  0
   22.4238  -10.5276  -15.5901 N   0  0  0  0  0  0  0  0  0  0  0  0
   21.4325   -9.5553  -15.2275 C   0  0  1  0  0  0  0  0  0  0  0  0
   20.4593  -10.0098  -14.1994 C   0  0  0  0  0  0  0  0  0  0  0  0
   19.4292  -10.9076  -14.7838 C   0  0  0  0  0  0  0  0  0  0  0  0
   19.2750  -11.3145  -16.0890 C   0  0  0  0  0  0  0  0  0  0  0  0
   18.2067  -12.1334  -16.1925 N   0  0  0  0  0  0  0  0  0  0  0  0
   17.6853  -12.2469  -14.9643 C   0  0  0  0  0  0  0  0  0  0  0  0
   18.4269  -11.5015  -14.1017 N   0  0  0  0  0  0  0  0  0  0  0  0
   22.0587   -8.2436  -14.9175 C   0  0  0  0  0  0  0  0  0  0  0  0
   23.1371   -8.2395  -14.2891 O   0  0  0  0  0  0  0  0  0  0  0  0
   21.4789   -7.0152  -15.3068 N   0  0  0  0  0  0  0  0  0  0  0  0
   22.1997   -5.7687  -15.0666 C   0  0  1  0  0  0  0  0  0  0  0  0
   22.0638   -4.9072  -16.3015 C   0  0  0  0  0  0  0  0  0  0  0  0
   20.6917   -4.3894  -16.5499 C   0  0  0  0  0  0  0  0  0  0  0  0
   20.5543   -3.4755  -17.6936 C   0  0  0  0  0  0  0  0  0  0  0  0
   20.6820   -3.7741  -18.8871 O   0  0  0  0  0  0  0  0  0  0  0  0
   21.6738   -5.1138  -13.8620 C   0  0  0  0  0  0  0  0  0  0  0  0
   20.6211   -5.4789  -13.3210 O   0  0  0  0  0  0  0  0  0  0  0  0
   20.2508   -2.1439  -17.4043 O   0  0  0  0  0  0  0  0  0  0  0  0
   22.3697   -4.0547  -13.3070 O   0  0  0  0  0  0  0  0  0  0  0  0
  2  1  1  0
  3  2  1  0
  4  3  1  0
  4  5  1  0
  5  1  1  0
  5  6  1  1
  6  7  2  0
  8  6  1  0
  8  9  1  0
  9 10  1  1
 11 10  1  0
 12 11  2  0
 13 12  1  0
 14 13  1  0
 14 15  2  0
 15 11  1  0
 16 17  2  0
 16  9  1  0
 18 16  1  0
 19 18  1  0
 19 20  1  6
 21 20  1  0
 22 23  2  0
 22 21  1  0
 24 19  1  0
 24 27  1  0
 25 24  2  0
 26 22  1  0
M  END
$$$$
