PTD.pdb
     RDKit          3D

 23 23  0  0  1  0  0  0  0  0999 V2000
    9.8559  -15.2987   14.2629 N   0  0  0  0  0  0  0  0  0  0  0  0
   10.3152  -16.4464   13.5435 C   0  0  0  0  0  0  0  0  0  0  0  0
    9.3877  -17.5517   14.0559 C   0  0  0  0  0  0  0  0  0  0  0  0
    9.4497  -17.2428   15.5522 C   0  0  0  0  0  0  0  0  0  0  0  0
    9.2327  -15.7281   15.4931 C   0  0  1  0  0  0  0  0  0  0  0  0
    9.8119  -15.0416   16.6568 C   0  0  0  0  0  0  0  0  0  0  0  0
   11.0416  -14.7133   16.6110 O   0  0  0  0  0  0  0  0  0  0  0  0
    8.1130  -12.2404   19.1095 C   0  0  0  0  0  0  0  0  0  0  0  0
    8.6559  -13.4532   19.8323 C   0  0  1  0  0  0  0  0  0  0  0  0
    7.6109  -14.3071   20.1692 O   0  0  0  0  0  0  0  0  0  0  0  0
    9.6750  -14.1595   18.9522 C   0  0  2  0  0  0  0  0  0  0  0  0
    9.0214  -14.7505   17.8059 N   0  0  0  0  0  0  0  0  0  0  0  0
   10.3804  -15.2048   19.7648 C   0  0  0  0  0  0  0  0  0  0  0  0
   10.1128  -16.4106   19.5819 O   0  0  0  0  0  0  0  0  0  0  0  0
   11.3397  -14.8438   20.7297 N   0  0  0  0  0  0  0  0  0  0  0  0
   12.1022  -15.8412   21.4966 C   0  0  1  0  0  0  0  0  0  0  0  0
   13.4217  -15.2489   21.9070 C   0  0  0  0  0  0  0  0  0  0  0  0
   14.3178  -14.9983   20.7839 C   0  0  0  0  0  0  0  0  0  0  0  0
   14.8536  -13.8830   20.5419 O   0  0  0  0  0  0  0  0  0  0  0  0
   11.2734  -16.1999   22.6752 C   0  0  0  0  0  0  0  0  0  0  0  0
   11.7003  -17.2852   23.4735 O   0  0  0  0  0  0  0  0  0  0  0  0
   14.6186  -16.0584   19.8983 O   0  0  0  0  0  0  0  0  0  0  0  0
   10.2288  -15.5845   22.9797 O   0  0  0  0  0  0  0  0  0  0  0  0
  2  1  1  0
  3  2  1  0
  4  3  1  0
  4  5  1  0
  5  1  1  0
  5  6  1  1
  7  6  2  0
  9  8  1  6
  9 11  1  0
 10  9  1  0
 11 12  1  6
 11 13  1  0
 12  6  1  0
 13 15  1  0
 13 14  2  0
 15 16  1  0
 16 17  1  1
 17 18  1  0
 18 22  1  0
 18 19  2  0
 20 16  1  0
 20 21  1  0
 23 20  2  0
M  END
$$$$
