PTD.pdb
     RDKit          3D

 23 23  0  0  1  0  0  0  0  0999 V2000
    8.3503  -15.5695   17.6599 N   0  0  0  0  0  0  0  0  0  0  0  0
    7.2296  -15.1565   16.8728 C   0  0  0  0  0  0  0  0  0  0  0  0
    7.7941  -13.9668   16.0913 C   0  0  0  0  0  0  0  0  0  0  0  0
    8.5085  -13.2454   17.2347 C   0  0  0  0  0  0  0  0  0  0  0  0
    9.2317  -14.4426   17.8582 C   0  0  1  0  0  0  0  0  0  0  0  0
    9.5210  -14.2315   19.2839 C   0  0  0  0  0  0  0  0  0  0  0  0
   10.3672  -13.3335   19.5996 O   0  0  0  0  0  0  0  0  0  0  0  0
    7.2514  -13.4522   22.1052 C   0  0  0  0  0  0  0  0  0  0  0  0
    8.0484  -14.6587   22.5496 C   0  0  1  0  0  0  0  0  0  0  0  0
    7.2480  -15.7951   22.5016 O   0  0  0  0  0  0  0  0  0  0  0  0
    9.2738  -14.8169   21.6634 C   0  0  2  0  0  0  0  0  0  0  0  0
    8.8741  -15.0092   20.2873 N   0  0  0  0  0  0  0  0  0  0  0  0
   10.0837  -15.9806   22.1538 C   0  0  0  0  0  0  0  0  0  0  0  0
    9.9090  -17.1086   21.6479 O   0  0  0  0  0  0  0  0  0  0  0  0
   11.0376  -15.8169   23.1759 N   0  0  0  0  0  0  0  0  0  0  0  0
   11.7818  -16.9488   23.7499 C   0  0  1  0  0  0  0  0  0  0  0  0
   13.1867  -16.5126   24.0606 C   0  0  0  0  0  0  0  0  0  0  0  0
   14.0044  -16.3049   22.8709 C   0  0  0  0  0  0  0  0  0  0  0  0
   13.8618  -16.9451   21.7941 O   0  0  0  0  0  0  0  0  0  0  0  0
   11.0536  -17.3621   24.9762 C   0  0  0  0  0  0  0  0  0  0  0  0
   11.3989  -18.6021   25.5595 O   0  0  0  0  0  0  0  0  0  0  0  0
   15.0270  -15.3293   22.9047 O   0  0  0  0  0  0  0  0  0  0  0  0
   10.1610  -16.6618   25.5008 O   0  0  0  0  0  0  0  0  0  0  0  0
  2  1  1  0
  3  2  1  0
  4  3  1  0
  4  5  1  0
  5  1  1  0
  5  6  1  1
  7  6  2  0
  9  8  1  6
  9 11  1  0
 10  9  1  0
 11 12  1  6
 11 13  1  0
 12  6  1  0
 13 15  1  0
 13 14  2  0
 15 16  1  0
 16 17  1  1
 17 18  1  0
 18 22  1  0
 18 19  2  0
 20 16  1  0
 20 21  1  0
 23 20  2  0
M  END
$$$$
