PTD.pdb
     RDKit          3D

 23 23  0  0  1  0  0  0  0  0999 V2000
    7.8467  -16.0682   16.6924 N   0  0  0  0  0  0  0  0  0  0  0  0
    6.8308  -15.6686   15.7682 C   0  0  0  0  0  0  0  0  0  0  0  0
    7.6135  -14.8209   14.7615 C   0  0  0  0  0  0  0  0  0  0  0  0
    8.4334  -13.9806   15.7413 C   0  0  0  0  0  0  0  0  0  0  0  0
    8.9171  -15.0988   16.6691 C   0  0  1  0  0  0  0  0  0  0  0  0
    9.2220  -14.6029   18.0189 C   0  0  0  0  0  0  0  0  0  0  0  0
   10.2873  -13.9247   18.1843 O   0  0  0  0  0  0  0  0  0  0  0  0
    7.0474  -12.6570   20.5632 C   0  0  0  0  0  0  0  0  0  0  0  0
    7.5636  -13.9224   21.2116 C   0  0  1  0  0  0  0  0  0  0  0  0
    6.5492  -14.8726   21.2628 O   0  0  0  0  0  0  0  0  0  0  0  0
    8.7608  -14.4443   20.4330 C   0  0  2  0  0  0  0  0  0  0  0  0
    8.3514  -14.8724   19.1141 N   0  0  0  0  0  0  0  0  0  0  0  0
    9.3824  -15.5772   21.1952 C   0  0  0  0  0  0  0  0  0  0  0  0
    9.0614  -16.7523   20.9213 O   0  0  0  0  0  0  0  0  0  0  0  0
   10.3224  -15.3324   22.2140 N   0  0  0  0  0  0  0  0  0  0  0  0
   11.0206  -16.4171   22.9213 C   0  0  1  0  0  0  0  0  0  0  0  0
   12.2458  -15.8630   23.5939 C   0  0  0  0  0  0  0  0  0  0  0  0
   13.2501  -16.8773   23.8934 C   0  0  0  0  0  0  0  0  0  0  0  0
   12.9923  -17.9947   24.4175 O   0  0  0  0  0  0  0  0  0  0  0  0
   10.0596  -16.9732   23.9073 C   0  0  0  0  0  0  0  0  0  0  0  0
   10.0633  -18.3715   24.1125 O   0  0  0  0  0  0  0  0  0  0  0  0
   14.6040  -16.6123   23.5848 O   0  0  0  0  0  0  0  0  0  0  0  0
    9.2615  -16.2582   24.5509 O   0  0  0  0  0  0  0  0  0  0  0  0
  2  1  1  0
  3  2  1  0
  4  3  1  0
  4  5  1  0
  5  1  1  0
  5  6  1  1
  7  6  2  0
  9  8  1  6
  9 11  1  0
 10  9  1  0
 11 12  1  6
 11 13  1  0
 12  6  1  0
 13 15  1  0
 13 14  2  0
 15 16  1  0
 16 17  1  1
 17 18  1  0
 18 22  1  0
 18 19  2  0
 20 16  1  0
 20 21  1  0
 23 20  2  0
M  END
$$$$
