PTD.pdb
     RDKit          3D

 23 23  0  0  1  0  0  0  0  0999 V2000
    8.4175  -14.5169   15.2361 N   0  0  0  0  0  0  0  0  0  0  0  0
    8.9267  -15.2455   14.1155 C   0  0  0  0  0  0  0  0  0  0  0  0
    8.3431  -16.6437   14.3366 C   0  0  0  0  0  0  0  0  0  0  0  0
    8.6476  -16.7983   15.8271 C   0  0  0  0  0  0  0  0  0  0  0  0
    8.1461  -15.4365   16.3162 C   0  0  1  0  0  0  0  0  0  0  0  0
    8.8108  -15.0172   17.5585 C   0  0  0  0  0  0  0  0  0  0  0  0
    9.9485  -14.4516   17.4707 O   0  0  0  0  0  0  0  0  0  0  0  0
    7.3491  -12.7278   20.0853 C   0  0  0  0  0  0  0  0  0  0  0  0
    7.8528  -13.9308   20.8514 C   0  0  1  0  0  0  0  0  0  0  0  0
    6.7815  -14.7407   21.2132 O   0  0  0  0  0  0  0  0  0  0  0  0
    8.8527  -14.6973   20.0001 C   0  0  2  0  0  0  0  0  0  0  0  0
    8.2012  -15.2366   18.8275 N   0  0  0  0  0  0  0  0  0  0  0  0
    9.4596  -15.7921   20.8271 C   0  0  0  0  0  0  0  0  0  0  0  0
    9.1116  -16.9752   20.6323 O   0  0  0  0  0  0  0  0  0  0  0  0
   10.4159  -15.5026   21.8186 N   0  0  0  0  0  0  0  0  0  0  0  0
   11.0447  -16.5497   22.6388 C   0  0  1  0  0  0  0  0  0  0  0  0
   12.4362  -16.1194   23.0116 C   0  0  0  0  0  0  0  0  0  0  0  0
   13.3544  -16.0861   21.8789 C   0  0  0  0  0  0  0  0  0  0  0  0
   14.0775  -15.0963   21.5836 O   0  0  0  0  0  0  0  0  0  0  0  0
   10.1872  -16.7266   23.8380 C   0  0  0  0  0  0  0  0  0  0  0  0
   10.4208  -17.8578   24.6523 O   0  0  0  0  0  0  0  0  0  0  0  0
   13.4565  -17.2242   21.0466 O   0  0  0  0  0  0  0  0  0  0  0  0
    9.2813  -15.9223   24.1461 O   0  0  0  0  0  0  0  0  0  0  0  0
  2  1  1  0
  3  2  1  0
  4  3  1  0
  4  5  1  0
  5  1  1  0
  5  6  1  1
  7  6  2  0
  9  8  1  6
  9 11  1  0
 10  9  1  0
 11 12  1  6
 11 13  1  0
 12  6  1  0
 13 15  1  0
 13 14  2  0
 15 16  1  0
 16 17  1  1
 17 18  1  0
 18 22  1  0
 18 19  2  0
 20 16  1  0
 20 21  1  0
 23 20  2  0
M  END
$$$$
