PTD.pdb
     RDKit          3D

 23 23  0  0  1  0  0  0  0  0999 V2000
    8.5175  -15.2355   18.0618 N   0  0  0  0  0  0  0  0  0  0  0  0
    7.4341  -14.8073   17.2319 C   0  0  0  0  0  0  0  0  0  0  0  0
    7.9669  -13.4995   16.6400 C   0  0  0  0  0  0  0  0  0  0  0  0
    8.5331  -12.8722   17.9144 C   0  0  0  0  0  0  0  0  0  0  0  0
    9.2934  -14.0843   18.4604 C   0  0  1  0  0  0  0  0  0  0  0  0
    9.4534  -14.0238   19.9204 C   0  0  0  0  0  0  0  0  0  0  0  0
   10.1933  -13.1085   20.4071 O   0  0  0  0  0  0  0  0  0  0  0  0
    7.2471  -13.5714   22.8096 C   0  0  0  0  0  0  0  0  0  0  0  0
    7.9349  -14.8981   23.0439 C   0  0  1  0  0  0  0  0  0  0  0  0
    7.0522  -15.9393   22.7770 O   0  0  0  0  0  0  0  0  0  0  0  0
    9.1730  -14.9943   22.1665 C   0  0  2  0  0  0  0  0  0  0  0  0
    8.7998  -14.9624   20.7700 N   0  0  0  0  0  0  0  0  0  0  0  0
    9.9074  -16.2603   22.4961 C   0  0  0  0  0  0  0  0  0  0  0  0
   10.0093  -17.1554   21.6317 O   0  0  0  0  0  0  0  0  0  0  0  0
   10.4831  -16.4514   23.7664 N   0  0  0  0  0  0  0  0  0  0  0  0
   11.2597  -17.6531   24.1086 C   0  0  1  0  0  0  0  0  0  0  0  0
   12.6831  -17.4683   23.6612 C   0  0  0  0  0  0  0  0  0  0  0  0
   13.5323  -18.6201   23.9427 C   0  0  0  0  0  0  0  0  0  0  0  0
   13.1357  -19.6656   24.5253 O   0  0  0  0  0  0  0  0  0  0  0  0
   11.1663  -17.8181   25.5813 C   0  0  0  0  0  0  0  0  0  0  0  0
   11.4586  -19.0914   26.1203 O   0  0  0  0  0  0  0  0  0  0  0  0
   14.8887  -18.5840   23.5461 O   0  0  0  0  0  0  0  0  0  0  0  0
   10.8436  -16.8843   26.3471 O   0  0  0  0  0  0  0  0  0  0  0  0
  2  1  1  0
  3  2  1  0
  4  3  1  0
  4  5  1  0
  5  1  1  0
  5  6  1  1
  7  6  2  0
  9  8  1  6
  9 11  1  0
 10  9  1  0
 11 12  1  6
 11 13  1  0
 12  6  1  0
 13 15  1  0
 13 14  2  0
 15 16  1  0
 16 17  1  1
 17 18  1  0
 18 22  1  0
 18 19  2  0
 20 16  1  0
 20 21  1  0
 23 20  2  0
M  END
$$$$
