PTD.pdb
     RDKit          3D

 23 23  0  0  1  0  0  0  0  0999 V2000
    7.4331  -15.2048   19.5091 N   0  0  0  0  0  0  0  0  0  0  0  0
    6.3074  -14.4597   19.0365 C   0  0  0  0  0  0  0  0  0  0  0  0
    6.9688  -13.3056   18.2780 C   0  0  0  0  0  0  0  0  0  0  0  0
    8.0364  -12.9242   19.3042 C   0  0  0  0  0  0  0  0  0  0  0  0
    8.5713  -14.3230   19.6242 C   0  0  1  0  0  0  0  0  0  0  0  0
    9.1704  -14.3916   20.9648 C   0  0  0  0  0  0  0  0  0  0  0  0
   10.1684  -13.6417   21.2169 O   0  0  0  0  0  0  0  0  0  0  0  0
    7.3253  -13.7084   24.0326 C   0  0  0  0  0  0  0  0  0  0  0  0
    8.0509  -15.0082   24.3006 C   0  0  1  0  0  0  0  0  0  0  0  0
    7.1559  -16.0704   24.2284 O   0  0  0  0  0  0  0  0  0  0  0  0
    9.1817  -15.1788   23.2985 C   0  0  2  0  0  0  0  0  0  0  0  0
    8.6508  -15.2725   21.9569 N   0  0  0  0  0  0  0  0  0  0  0  0
    9.9654  -16.4083   23.6517 C   0  0  0  0  0  0  0  0  0  0  0  0
    9.6565  -17.5036   23.1379 O   0  0  0  0  0  0  0  0  0  0  0  0
   11.0439  -16.3428   24.5539 N   0  0  0  0  0  0  0  0  0  0  0  0
   11.7672  -17.5407   25.0081 C   0  0  1  0  0  0  0  0  0  0  0  0
   13.2158  -17.1965   25.2169 C   0  0  0  0  0  0  0  0  0  0  0  0
   13.8843  -16.7457   24.0016 C   0  0  0  0  0  0  0  0  0  0  0  0
   14.6223  -15.7255   23.9373 O   0  0  0  0  0  0  0  0  0  0  0  0
   11.1211  -17.9774   26.2717 C   0  0  0  0  0  0  0  0  0  0  0  0
   11.5163  -19.2197   26.8173 O   0  0  0  0  0  0  0  0  0  0  0  0
   13.7080  -17.4842   22.8091 O   0  0  0  0  0  0  0  0  0  0  0  0
   10.2544  -17.2944   26.8590 O   0  0  0  0  0  0  0  0  0  0  0  0
  2  1  1  0
  3  2  1  0
  4  3  1  0
  4  5  1  0
  5  1  1  0
  5  6  1  1
  7  6  2  0
  9  8  1  6
  9 11  1  0
 10  9  1  0
 11 12  1  6
 11 13  1  0
 12  6  1  0
 13 15  1  0
 13 14  2  0
 15 16  1  0
 16 17  1  1
 17 18  1  0
 18 22  1  0
 18 19  2  0
 20 16  1  0
 20 21  1  0
 23 20  2  0
M  END
$$$$
