PTD.pdb
     RDKit          3D

 23 23  0  0  1  0  0  0  0  0999 V2000
    8.0396  -15.2971   17.7193 N   0  0  0  0  0  0  0  0  0  0  0  0
    6.9499  -14.6670   17.0401 C   0  0  0  0  0  0  0  0  0  0  0  0
    7.6267  -13.4693   16.3678 C   0  0  0  0  0  0  0  0  0  0  0  0
    8.4652  -12.9741   17.5468 C   0  0  0  0  0  0  0  0  0  0  0  0
    9.0589  -14.3121   17.9968 C   0  0  1  0  0  0  0  0  0  0  0  0
    9.4236  -14.3031   19.4208 C   0  0  0  0  0  0  0  0  0  0  0  0
   10.3749  -13.5426   19.7934 O   0  0  0  0  0  0  0  0  0  0  0  0
    7.3928  -13.4520   22.3145 C   0  0  0  0  0  0  0  0  0  0  0  0
    7.9822  -14.8033   22.6532 C   0  0  1  0  0  0  0  0  0  0  0  0
    7.0065  -15.7868   22.5289 O   0  0  0  0  0  0  0  0  0  0  0  0
    9.1641  -15.0892   21.7404 C   0  0  2  0  0  0  0  0  0  0  0  0
    8.7336  -15.1221   20.3605 N   0  0  0  0  0  0  0  0  0  0  0  0
    9.7842  -16.3956   22.1396 C   0  0  0  0  0  0  0  0  0  0  0  0
    9.4618  -17.4397   21.5356 O   0  0  0  0  0  0  0  0  0  0  0  0
   10.7245  -16.4590   23.1852 N   0  0  0  0  0  0  0  0  0  0  0  0
   11.3508  -17.7212   23.6083 C   0  0  1  0  0  0  0  0  0  0  0  0
   12.8185  -17.6799   23.2849 C   0  0  0  0  0  0  0  0  0  0  0  0
   13.5318  -18.8900   23.6773 C   0  0  0  0  0  0  0  0  0  0  0  0
   12.9882  -19.8824   24.2335 O   0  0  0  0  0  0  0  0  0  0  0  0
   11.1159  -17.8470   25.0691 C   0  0  0  0  0  0  0  0  0  0  0  0
   10.4680  -16.7762   25.7255 O   0  0  0  0  0  0  0  0  0  0  0  0
   14.9205  -18.9774   23.4279 O   0  0  0  0  0  0  0  0  0  0  0  0
   11.4660  -18.8511   25.7262 O   0  0  0  0  0  0  0  0  0  0  0  0
  2  1  1  0
  3  2  1  0
  4  3  1  0
  4  5  1  0
  5  1  1  0
  5  6  1  1
  7  6  2  0
  9  8  1  6
  9 11  1  0
 10  9  1  0
 11 12  1  6
 11 13  1  0
 12  6  1  0
 13 15  1  0
 13 14  2  0
 15 16  1  0
 16 17  1  1
 17 18  1  0
 18 22  1  0
 18 19  2  0
 20 16  1  0
 20 21  1  0
 23 20  2  0
M  END
$$$$
