PTD.pdb
     RDKit          3D

 23 23  0  0  1  0  0  0  0  0999 V2000
    8.9307  -14.4356   18.1764 N   0  0  0  0  0  0  0  0  0  0  0  0
    7.9199  -14.1953   17.1934 C   0  0  0  0  0  0  0  0  0  0  0  0
    7.6345  -12.7013   17.3699 C   0  0  0  0  0  0  0  0  0  0  0  0
    7.5498  -12.6516   18.8959 C   0  0  0  0  0  0  0  0  0  0  0  0
    8.8081  -13.4571   19.2317 C   0  0  1  0  0  0  0  0  0  0  0  0
    8.7170  -14.0988   20.5511 C   0  0  0  0  0  0  0  0  0  0  0  0
    8.4655  -13.3648   21.5611 O   0  0  0  0  0  0  0  0  0  0  0  0
    6.4296  -16.3098   22.0795 C   0  0  0  0  0  0  0  0  0  0  0  0
    7.7483  -17.0427   22.1874 C   0  0  1  0  0  0  0  0  0  0  0  0
    7.8140  -18.0384   21.2185 O   0  0  0  0  0  0  0  0  0  0  0  0
    8.8956  -16.0566   22.0347 C   0  0  2  0  0  0  0  0  0  0  0  0
    8.9048  -15.5035   20.6989 N   0  0  0  0  0  0  0  0  0  0  0  0
   10.1867  -16.7602   22.3322 C   0  0  0  0  0  0  0  0  0  0  0  0
   10.8526  -17.2466   21.3947 O   0  0  0  0  0  0  0  0  0  0  0  0
   10.6568  -16.8785   23.6538 N   0  0  0  0  0  0  0  0  0  0  0  0
   11.8097  -17.7204   24.0093 C   0  0  1  0  0  0  0  0  0  0  0  0
   12.9371  -16.8446   24.4809 C   0  0  0  0  0  0  0  0  0  0  0  0
   13.9016  -16.5289   23.4334 C   0  0  0  0  0  0  0  0  0  0  0  0
   15.1137  -16.8750   23.4605 O   0  0  0  0  0  0  0  0  0  0  0  0
   11.3516  -18.6447   25.0773 C   0  0  0  0  0  0  0  0  0  0  0  0
   12.2151  -19.7000   25.4486 O   0  0  0  0  0  0  0  0  0  0  0  0
   13.4723  -15.7895   22.3076 O   0  0  0  0  0  0  0  0  0  0  0  0
   10.2468  -18.5225   25.6491 O   0  0  0  0  0  0  0  0  0  0  0  0
  2  1  1  0
  3  2  1  0
  4  3  1  0
  4  5  1  0
  5  1  1  0
  5  6  1  1
  7  6  2  0
  9  8  1  6
  9 11  1  0
 10  9  1  0
 11 12  1  6
 11 13  1  0
 12  6  1  0
 13 15  1  0
 13 14  2  0
 15 16  1  0
 16 17  1  1
 17 18  1  0
 18 22  1  0
 18 19  2  0
 20 16  1  0
 20 21  1  0
 23 20  2  0
M  END
$$$$
