PTD.pdb
     RDKit          3D

 23 23  0  0  1  0  0  0  0  0999 V2000
    8.1064  -16.8319   14.8875 N   0  0  0  0  0  0  0  0  0  0  0  0
    7.2368  -16.5585   13.7853 C   0  0  0  0  0  0  0  0  0  0  0  0
    8.2205  -16.1982   12.6686 C   0  0  0  0  0  0  0  0  0  0  0  0
    9.1377  -15.2574   13.4508 C   0  0  0  0  0  0  0  0  0  0  0  0
    9.3454  -16.1128   14.7039 C   0  0  1  0  0  0  0  0  0  0  0  0
    9.6720  -15.2962   15.8818 C   0  0  0  0  0  0  0  0  0  0  0  0
   10.8135  -14.7329   15.9256 O   0  0  0  0  0  0  0  0  0  0  0  0
    8.3395  -12.7941   19.8579 C   0  0  0  0  0  0  0  0  0  0  0  0
    7.9084  -13.6884   18.7167 C   0  0  1  0  0  0  0  0  0  0  0  0
    7.1954  -12.9465   17.7809 O   0  0  0  0  0  0  0  0  0  0  0  0
    9.1306  -14.3346   18.0835 C   0  0  2  0  0  0  0  0  0  0  0  0
    8.7390  -15.1378   16.9469 N   0  0  0  0  0  0  0  0  0  0  0  0
    9.8300  -15.1702   19.1147 C   0  0  0  0  0  0  0  0  0  0  0  0
    9.4076  -16.3178   19.3665 O   0  0  0  0  0  0  0  0  0  0  0  0
   10.9559  -14.6774   19.8010 N   0  0  0  0  0  0  0  0  0  0  0  0
   11.6708  -15.4678   20.8152 C   0  0  1  0  0  0  0  0  0  0  0  0
   13.0117  -14.8409   21.0785 C   0  0  0  0  0  0  0  0  0  0  0  0
   13.7947  -15.5505   22.0837 C   0  0  0  0  0  0  0  0  0  0  0  0
   14.1432  -15.0537   23.1890 O   0  0  0  0  0  0  0  0  0  0  0  0
   10.8204  -15.4717   22.0324 C   0  0  0  0  0  0  0  0  0  0  0  0
   10.9581  -16.5568   22.9273 O   0  0  0  0  0  0  0  0  0  0  0  0
   14.1992  -16.8799   21.8237 O   0  0  0  0  0  0  0  0  0  0  0  0
   10.0011  -14.5629   22.2877 O   0  0  0  0  0  0  0  0  0  0  0  0
  2  1  1  0
  3  2  1  0
  4  3  1  0
  4  5  1  0
  5  1  1  0
  5  6  1  1
  7  6  2  0
  9  8  1  1
  9 11  1  0
 10  9  1  0
 11 12  1  6
 11 13  1  0
 12  6  1  0
 13 15  1  0
 13 14  2  0
 15 16  1  0
 16 17  1  1
 17 18  1  0
 18 22  1  0
 18 19  2  0
 20 16  1  0
 20 21  1  0
 23 20  2  0
M  END
$$$$
