PTD.pdb
     RDKit          3D

 23 23  0  0  1  0  0  0  0  0999 V2000
    8.7724  -14.4334   18.7578 N   0  0  0  0  0  0  0  0  0  0  0  0
    7.7146  -13.6359   18.2185 C   0  0  0  0  0  0  0  0  0  0  0  0
    7.7350  -12.4018   19.1248 C   0  0  0  0  0  0  0  0  0  0  0  0
    7.8426  -13.1011   20.4804 C   0  0  0  0  0  0  0  0  0  0  0  0
    8.9600  -14.0945   20.1492 C   0  0  1  0  0  0  0  0  0  0  0  0
    8.9082  -15.2888   21.0046 C   0  0  0  0  0  0  0  0  0  0  0  0
    7.8688  -16.0228   20.9508 O   0  0  0  0  0  0  0  0  0  0  0  0
    8.5008  -17.9818   20.8791 C   0  0  0  0  0  0  0  0  0  0  0  0
    9.8426  -18.0296   21.5758 C   0  0  1  0  0  0  0  0  0  0  0  0
   10.8643  -17.9650   20.6343 O   0  0  0  0  0  0  0  0  0  0  0  0
    9.9438  -16.8835   22.5699 C   0  0  2  0  0  0  0  0  0  0  0  0
    9.9899  -15.6185   21.8714 N   0  0  0  0  0  0  0  0  0  0  0  0
   11.1700  -17.0754   23.4126 C   0  0  0  0  0  0  0  0  0  0  0  0
   12.1799  -16.3731   23.1983 O   0  0  0  0  0  0  0  0  0  0  0  0
   11.1964  -18.0359   24.4413 N   0  0  0  0  0  0  0  0  0  0  0  0
   12.3332  -18.1726   25.3650 C   0  0  1  0  0  0  0  0  0  0  0  0
   11.9466  -19.0840   26.4965 C   0  0  0  0  0  0  0  0  0  0  0  0
   11.0761  -18.4489   27.4794 C   0  0  0  0  0  0  0  0  0  0  0  0
   10.7819  -17.2229   27.4761 O   0  0  0  0  0  0  0  0  0  0  0  0
   13.4615  -18.7285   24.5760 C   0  0  0  0  0  0  0  0  0  0  0  0
   14.7713  -18.5184   25.0633 O   0  0  0  0  0  0  0  0  0  0  0  0
   10.5156  -19.2387   28.5093 O   0  0  0  0  0  0  0  0  0  0  0  0
   13.2944  -19.3654   23.5134 O   0  0  0  0  0  0  0  0  0  0  0  0
  2  1  1  0
  3  2  1  0
  4  3  1  0
  4  5  1  0
  5  1  1  0
  5  6  1  1
  7  6  2  0
  9  8  1  6
  9 11  1  0
 10  9  1  0
 11 12  1  6
 11 13  1  0
 12  6  1  0
 13 15  1  0
 13 14  2  0
 15 16  1  0
 16 17  1  1
 17 18  1  0
 18 22  1  0
 18 19  2  0
 20 16  1  0
 20 21  1  0
 23 20  2  0
M  END
$$$$
