PTD.pdb
     RDKit          3D

 23 23  0  0  1  0  0  0  0  0999 V2000
    9.5336  -15.1331   14.5112 N   0  0  0  0  0  0  0  0  0  0  0  0
    9.9776  -16.2365   13.7167 C   0  0  0  0  0  0  0  0  0  0  0  0
    9.0655  -17.3725   14.1882 C   0  0  0  0  0  0  0  0  0  0  0  0
    9.1639  -17.1487   15.6977 C   0  0  0  0  0  0  0  0  0  0  0  0
    8.9420  -15.6339   15.7300 C   0  0  1  0  0  0  0  0  0  0  0  0
    9.5483  -15.0123   16.9162 C   0  0  0  0  0  0  0  0  0  0  0  0
   10.7561  -14.6159   16.8367 O   0  0  0  0  0  0  0  0  0  0  0  0
    7.6543  -12.5060   19.3854 C   0  0  0  0  0  0  0  0  0  0  0  0
    8.4142  -13.5675   20.1495 C   0  0  1  0  0  0  0  0  0  0  0  0
    7.5271  -14.5199   20.6401 O   0  0  0  0  0  0  0  0  0  0  0  0
    9.4530  -14.2064   19.2415 C   0  0  2  0  0  0  0  0  0  0  0  0
    8.8074  -14.8566   18.1232 N   0  0  0  0  0  0  0  0  0  0  0  0
   10.2605  -15.1877   20.0387 C   0  0  0  0  0  0  0  0  0  0  0  0
   10.0871  -16.4120   19.8651 O   0  0  0  0  0  0  0  0  0  0  0  0
   11.2108  -14.7463   20.9787 N   0  0  0  0  0  0  0  0  0  0  0  0
   11.9643  -15.6750   21.8355 C   0  0  1  0  0  0  0  0  0  0  0  0
   13.2697  -15.0403   22.2275 C   0  0  0  0  0  0  0  0  0  0  0  0
   14.2966  -15.1451   21.1972 C   0  0  0  0  0  0  0  0  0  0  0  0
   14.1507  -15.7753   20.1149 O   0  0  0  0  0  0  0  0  0  0  0  0
   11.1128  -15.9511   23.0201 C   0  0  0  0  0  0  0  0  0  0  0  0
    9.9630  -15.1504   23.2045 O   0  0  0  0  0  0  0  0  0  0  0  0
   15.5414  -14.5078   21.4038 O   0  0  0  0  0  0  0  0  0  0  0  0
   11.3744  -16.8528   23.8454 O   0  0  0  0  0  0  0  0  0  0  0  0
  2  1  1  0
  3  2  1  0
  4  3  1  0
  4  5  1  0
  5  1  1  0
  5  6  1  1
  7  6  2  0
  9  8  1  6
  9 11  1  0
 10  9  1  0
 11 12  1  6
 11 13  1  0
 12  6  1  0
 13 15  1  0
 13 14  2  0
 15 16  1  0
 16 17  1  1
 17 18  1  0
 18 22  1  0
 18 19  2  0
 20 16  1  0
 20 21  1  0
 23 20  2  0
M  END
$$$$
