PTD.pdb
     RDKit          3D

 23 23  0  0  1  0  0  0  0  0999 V2000
    8.2698  -15.2768   17.9214 N   0  0  0  0  0  0  0  0  0  0  0  0
    7.1038  -14.7537   17.2791 C   0  0  0  0  0  0  0  0  0  0  0  0
    7.6411  -13.4964   16.5900 C   0  0  0  0  0  0  0  0  0  0  0  0
    8.4653  -12.9237   17.7436 C   0  0  0  0  0  0  0  0  0  0  0  0
    9.1984  -14.1987   18.1700 C   0  0  1  0  0  0  0  0  0  0  0  0
    9.6056  -14.1555   19.5818 C   0  0  0  0  0  0  0  0  0  0  0  0
   10.5260  -13.3418   19.9178 O   0  0  0  0  0  0  0  0  0  0  0  0
    7.2571  -13.9167   22.6401 C   0  0  0  0  0  0  0  0  0  0  0  0
    8.2359  -15.0481   22.8635 C   0  0  1  0  0  0  0  0  0  0  0  0
    7.5989  -16.2680   22.6624 O   0  0  0  0  0  0  0  0  0  0  0  0
    9.4220  -14.8910   21.9251 C   0  0  2  0  0  0  0  0  0  0  0  0
    8.9893  -15.0000   20.5499 N   0  0  0  0  0  0  0  0  0  0  0  0
   10.4437  -15.9403   22.2502 C   0  0  0  0  0  0  0  0  0  0  0  0
   10.5185  -16.9664   21.5426 O   0  0  0  0  0  0  0  0  0  0  0  0
   11.3187  -15.7827   23.3415 N   0  0  0  0  0  0  0  0  0  0  0  0
   12.3202  -16.7978   23.7035 C   0  0  1  0  0  0  0  0  0  0  0  0
   13.6915  -16.1838   23.6487 C   0  0  0  0  0  0  0  0  0  0  0  0
   14.7538  -17.1047   24.0367 C   0  0  0  0  0  0  0  0  0  0  0  0
   14.8417  -18.2948   23.6297 O   0  0  0  0  0  0  0  0  0  0  0  0
   11.9832  -17.2623   25.0730 C   0  0  0  0  0  0  0  0  0  0  0  0
   12.5503  -18.4799   25.5125 O   0  0  0  0  0  0  0  0  0  0  0  0
   15.7588  -16.6560   24.9240 O   0  0  0  0  0  0  0  0  0  0  0  0
   11.2278  -16.6233   25.8369 O   0  0  0  0  0  0  0  0  0  0  0  0
  2  1  1  0
  3  2  1  0
  4  3  1  0
  4  5  1  0
  5  1  1  0
  5  6  1  1
  7  6  2  0
  9  8  1  6
  9 11  1  0
 10  9  1  0
 11 12  1  6
 11 13  1  0
 12  6  1  0
 13 15  1  0
 13 14  2  0
 15 16  1  0
 16 17  1  1
 17 18  1  0
 18 22  1  0
 18 19  2  0
 20 16  1  0
 20 21  1  0
 23 20  2  0
M  END
$$$$
