PTD.pdb
     RDKit          3D

 23 23  0  0  1  0  0  0  0  0999 V2000
    8.3476  -14.8898   18.2459 N   0  0  0  0  0  0  0  0  0  0  0  0
    7.1386  -14.6630   17.5161 C   0  0  0  0  0  0  0  0  0  0  0  0
    7.2460  -13.1802   17.1497 C   0  0  0  0  0  0  0  0  0  0  0  0
    7.6912  -12.6295   18.5050 C   0  0  0  0  0  0  0  0  0  0  0  0
    8.7928  -13.6439   18.8253 C   0  0  1  0  0  0  0  0  0  0  0  0
    9.0191  -13.7748   20.2718 C   0  0  0  0  0  0  0  0  0  0  0  0
    9.3349  -12.7301   20.9284 O   0  0  0  0  0  0  0  0  0  0  0  0
    7.2766  -16.7397   22.5243 C   0  0  0  0  0  0  0  0  0  0  0  0
    7.8348  -15.4475   23.0782 C   0  0  1  0  0  0  0  0  0  0  0  0
    8.0549  -15.5776   24.4453 O   0  0  0  0  0  0  0  0  0  0  0  0
    9.1216  -15.0925   22.3500 C   0  0  2  0  0  0  0  0  0  0  0  0
    8.8895  -15.0349   20.9241 N   0  0  0  0  0  0  0  0  0  0  0  0
   10.1680  -16.1151   22.6818 C   0  0  0  0  0  0  0  0  0  0  0  0
   10.1401  -17.2290   22.1185 O   0  0  0  0  0  0  0  0  0  0  0  0
   11.1803  -15.8347   23.6188 N   0  0  0  0  0  0  0  0  0  0  0  0
   12.2735  -16.7764   23.9057 C   0  0  1  0  0  0  0  0  0  0  0  0
   13.5472  -16.0073   24.1221 C   0  0  0  0  0  0  0  0  0  0  0  0
   14.7335  -16.8543   24.1698 C   0  0  0  0  0  0  0  0  0  0  0  0
   14.7180  -18.1035   23.9995 O   0  0  0  0  0  0  0  0  0  0  0  0
   11.8786  -17.5335   25.1204 C   0  0  0  0  0  0  0  0  0  0  0  0
   12.4353  -18.8195   25.3037 O   0  0  0  0  0  0  0  0  0  0  0  0
   15.9906  -16.2584   24.4213 O   0  0  0  0  0  0  0  0  0  0  0  0
   11.0841  -17.0791   25.9718 O   0  0  0  0  0  0  0  0  0  0  0  0
  2  1  1  0
  3  2  1  0
  4  3  1  0
  4  5  1  0
  5  1  1  0
  5  6  1  1
  7  6  2  0
  9  8  1  6
  9 11  1  0
 10  9  1  0
 11 12  1  6
 11 13  1  0
 12  6  1  0
 13 15  1  0
 13 14  2  0
 15 16  1  0
 16 17  1  1
 17 18  1  0
 18 22  1  0
 18 19  2  0
 20 16  1  0
 20 21  1  0
 23 20  2  0
M  END
$$$$
