WAI.pdb
     RDKit          3D

 28 29  0  0  1  0  0  0  0  0999 V2000
   24.7628  -19.4383  -12.7180 N   0  0  0  0  0  0  0  0  0  0  0  0
   24.9593  -20.5284  -13.6303 C   0  0  1  0  0  0  0  0  0  0  0  0
   24.4090  -20.2448  -15.0054 C   0  0  0  0  0  0  0  0  0  0  0  0
   23.0624  -19.6722  -15.0020 C   0  0  0  0  0  0  0  0  0  0  0  0
   22.7381  -18.3420  -14.8848 C   0  0  0  0  0  0  0  0  0  0  0  0
   21.4068  -18.2506  -14.9273 N   0  0  0  0  0  0  0  0  0  0  0  0
   20.8672  -19.4727  -15.0672 C   0  0  0  0  0  0  0  0  0  0  0  0
   19.5365  -19.8794  -15.1582 C   0  0  0  0  0  0  0  0  0  0  0  0
   19.2830  -21.2266  -15.2994 C   0  0  0  0  0  0  0  0  0  0  0  0
   20.3052  -22.1416  -15.3492 C   0  0  0  0  0  0  0  0  0  0  0  0
   21.6231  -21.7546  -15.2606 C   0  0  0  0  0  0  0  0  0  0  0  0
   21.8906  -20.3858  -15.1167 C   0  0  0  0  0  0  0  0  0  0  0  0
   26.3804  -20.9115  -13.7824 C   0  0  0  0  0  0  0  0  0  0  0  0
   26.6323  -21.7772  -14.6744 O   0  0  0  0  0  0  0  0  0  0  0  0
   29.7127  -20.5377  -12.3763 C   0  0  0  0  0  0  0  0  0  0  0  0
   28.3456  -21.2367  -12.3503 C   0  0  2  0  0  0  0  0  0  0  0  0
   27.4232  -20.3648  -12.9962 N   0  0  0  0  0  0  0  0  0  0  0  0
   28.0391  -21.4616  -10.9175 C   0  0  0  0  0  0  0  0  0  0  0  0
   28.5096  -22.4870  -10.3674 O   0  0  0  0  0  0  0  0  0  0  0  0
   28.9644  -18.5946   -6.7065 C   0  0  0  0  0  0  0  0  0  0  0  0
   28.6810  -19.8057   -7.5895 C   0  0  0  0  0  0  0  0  0  0  0  0
   27.1858  -19.8619   -7.7912 C   0  0  2  0  0  0  0  0  0  0  0  0
   26.5558  -20.1641   -6.4509 C   0  0  0  0  0  0  0  0  0  0  0  0
   26.7751  -20.8808   -8.8089 C   0  0  2  0  0  0  0  0  0  0  0  0
   27.2470  -20.5881  -10.1332 N   0  0  0  0  0  0  0  0  0  0  0  0
   25.2934  -20.9411   -8.8418 C   0  0  0  0  0  0  0  0  0  0  0  0
   24.6183  -20.5002   -9.8128 O   0  0  0  0  0  0  0  0  0  0  0  0
   24.5920  -21.4949   -7.7854 O   0  0  0  0  0  0  0  0  0  0  0  0
  2  1  1  1
  2  3  1  0
  2 13  1  0
  4  3  1  0
  4  5  2  0
  6  5  1  0
  7  6  1  0
  8  7  2  0
  9  8  1  0
 10  9  2  0
 10 11  1  0
 11 12  2  0
 12  7  1  0
 12  4  1  0
 13 14  2  0
 13 17  1  0
 16 15  1  1
 17 16  1  0
 18 19  2  0
 18 16  1  0
 20 21  1  0
 21 22  1  0
 22 23  1  1
 24 22  1  0
 24 25  1  6
 25 18  1  0
 26 24  1  0
 27 26  2  0
 28 26  1  0
M  END
$$$$
