WAI.pdb
     RDKit          3D

 28 29  0  0  1  0  0  0  0  0999 V2000
   26.0741  -17.6109  -16.8773 N   0  0  0  0  0  0  0  0  0  0  0  0
   25.4763  -18.5433  -15.9650 C   0  0  1  0  0  0  0  0  0  0  0  0
   24.3260  -19.3026  -16.5769 C   0  0  0  0  0  0  0  0  0  0  0  0
   23.2221  -18.4529  -17.0247 C   0  0  0  0  0  0  0  0  0  0  0  0
   23.1190  -17.8151  -18.2375 C   0  0  0  0  0  0  0  0  0  0  0  0
   21.9630  -17.1471  -18.2401 N   0  0  0  0  0  0  0  0  0  0  0  0
   21.3226  -17.3337  -17.0742 C   0  0  0  0  0  0  0  0  0  0  0  0
   20.0992  -16.8469  -16.6152 C   0  0  0  0  0  0  0  0  0  0  0  0
   19.6928  -17.2154  -15.3510 C   0  0  0  0  0  0  0  0  0  0  0  0
   20.4651  -18.0352  -14.5660 C   0  0  0  0  0  0  0  0  0  0  0  0
   21.6746  -18.5230  -15.0060 C   0  0  0  0  0  0  0  0  0  0  0  0
   22.0962  -18.1533  -16.2910 C   0  0  0  0  0  0  0  0  0  0  0  0
   26.4378  -19.5330  -15.4306 C   0  0  0  0  0  0  0  0  0  0  0  0
   27.1967  -20.0890  -16.2812 O   0  0  0  0  0  0  0  0  0  0  0  0
   28.8376  -19.4438  -13.6489 C   0  0  0  0  0  0  0  0  0  0  0  0
   27.7150  -20.4884  -13.5666 C   0  0  2  0  0  0  0  0  0  0  0  0
   26.5327  -19.8643  -14.0574 N   0  0  0  0  0  0  0  0  0  0  0  0
   27.6290  -20.8706  -12.1369 C   0  0  0  0  0  0  0  0  0  0  0  0
   28.5153  -21.6300  -11.6749 O   0  0  0  0  0  0  0  0  0  0  0  0
   26.7054  -19.1776   -7.0692 C   0  0  0  0  0  0  0  0  0  0  0  0
   26.2092  -19.4035   -8.4938 C   0  0  0  0  0  0  0  0  0  0  0  0
   26.5211  -20.8384   -8.8450 C   0  0  2  0  0  0  0  0  0  0  0  0
   28.0184  -21.0178   -8.7435 C   0  0  0  0  0  0  0  0  0  0  0  0
   26.0351  -21.2212  -10.2088 C   0  0  2  0  0  0  0  0  0  0  0  0
   26.6064  -20.4298  -11.2620 N   0  0  0  0  0  0  0  0  0  0  0  0
   24.5613  -21.0569  -10.2455 C   0  0  0  0  0  0  0  0  0  0  0  0
   23.9891  -20.2431  -11.0221 O   0  0  0  0  0  0  0  0  0  0  0  0
   23.7525  -21.8077   -9.4108 O   0  0  0  0  0  0  0  0  0  0  0  0
  2  1  1  6
  2  3  1  0
  2 13  1  0
  4  3  1  0
  4  5  2  0
  6  5  1  0
  7  6  1  0
  8  7  2  0
  9  8  1  0
 10  9  2  0
 10 11  1  0
 11 12  2  0
 12  7  1  0
 12  4  1  0
 13 14  2  0
 13 17  1  0
 16 15  1  1
 17 16  1  0
 18 19  2  0
 18 16  1  0
 20 21  1  0
 21 22  1  0
 22 23  1  6
 24 22  1  0
 24 25  1  6
 25 18  1  0
 26 24  1  0
 27 26  2  0
 28 26  1  0
M  END
$$$$
