WAI.pdb
     RDKit          3D

 28 29  0  0  1  0  0  0  0  0999 V2000
   26.9355  -21.3551  -13.5262 N   0  0  0  0  0  0  0  0  0  0  0  0
   26.0125  -21.4496  -12.4315 C   0  0  1  0  0  0  0  0  0  0  0  0
   26.3603  -20.5233  -11.2935 C   0  0  0  0  0  0  0  0  0  0  0  0
   27.5071  -20.9619  -10.4973 C   0  0  0  0  0  0  0  0  0  0  0  0
   28.6026  -21.6560  -10.9518 C   0  0  0  0  0  0  0  0  0  0  0  0
   29.4099  -21.8557   -9.9074 N   0  0  0  0  0  0  0  0  0  0  0  0
   28.8718  -21.3153   -8.8016 C   0  0  0  0  0  0  0  0  0  0  0  0
   29.3365  -21.2691   -7.4877 C   0  0  0  0  0  0  0  0  0  0  0  0
   28.5525  -20.6337   -6.5492 C   0  0  0  0  0  0  0  0  0  0  0  0
   27.3521  -20.0634   -6.8932 C   0  0  0  0  0  0  0  0  0  0  0  0
   26.8810  -20.1014   -8.1859 C   0  0  0  0  0  0  0  0  0  0  0  0
   27.6720  -20.7458   -9.1477 C   0  0  0  0  0  0  0  0  0  0  0  0
   24.6126  -21.1763  -12.8250 C   0  0  0  0  0  0  0  0  0  0  0  0
   24.2790  -19.9542  -12.8869 O   0  0  0  0  0  0  0  0  0  0  0  0
   22.1034  -21.9580  -14.8924 C   0  0  0  0  0  0  0  0  0  0  0  0
   22.3169  -21.8436  -13.3759 C   0  0  2  0  0  0  0  0  0  0  0  0
   23.6739  -22.1937  -13.1220 N   0  0  0  0  0  0  0  0  0  0  0  0
   21.3431  -22.7787  -12.7636 C   0  0  0  0  0  0  0  0  0  0  0  0
   21.5199  -24.0096  -12.9341 O   0  0  0  0  0  0  0  0  0  0  0  0
   18.7787  -24.1420   -7.7345 C   0  0  0  0  0  0  0  0  0  0  0  0
   18.2891  -23.9908   -9.1713 C   0  0  0  0  0  0  0  0  0  0  0  0
   19.2306  -23.0302   -9.8572 C   0  0  2  0  0  0  0  0  0  0  0  0
   18.7493  -21.6288   -9.5591 C   0  0  0  0  0  0  0  0  0  0  0  0
   19.3150  -23.2558  -11.3352 C   0  0  2  0  0  0  0  0  0  0  0  0
   20.2257  -22.3652  -11.9982 N   0  0  0  0  0  0  0  0  0  0  0  0
   17.9644  -23.0643  -11.9176 C   0  0  0  0  0  0  0  0  0  0  0  0
   17.6548  -22.0423  -12.5903 O   0  0  0  0  0  0  0  0  0  0  0  0
   16.9820  -24.0219  -11.7365 O   0  0  0  0  0  0  0  0  0  0  0  0
  2  1  1  6
  2  3  1  0
  2 13  1  0
  4  3  1  0
  4  5  2  0
  6  5  1  0
  7  6  1  0
  8  7  2  0
  9  8  1  0
 10  9  2  0
 10 11  1  0
 11 12  2  0
 12  7  1  0
 12  4  1  0
 13 14  2  0
 13 17  1  0
 16 15  1  6
 17 16  1  0
 18 19  2  0
 18 16  1  0
 20 21  1  0
 21 22  1  0
 22 23  1  6
 24 22  1  0
 24 25  1  6
 25 18  1  0
 26 24  1  0
 27 26  2  0
 28 26  1  0
M  END
$$$$
