WAI.pdb
     RDKit          3D

 28 29  0  0  1  0  0  0  0  0999 V2000
   20.7692  -12.8367  -18.1468 N   0  0  0  0  0  0  0  0  0  0  0  0
   19.9277  -11.6744  -18.1558 C   0  0  1  0  0  0  0  0  0  0  0  0
   18.7697  -11.7850  -17.1961 C   0  0  0  0  0  0  0  0  0  0  0  0
   17.8166  -12.8435  -17.5317 C   0  0  0  0  0  0  0  0  0  0  0  0
   17.7540  -14.0971  -16.9723 C   0  0  0  0  0  0  0  0  0  0  0  0
   16.7456  -14.7460  -17.5593 N   0  0  0  0  0  0  0  0  0  0  0  0
   16.1608  -13.9544  -18.4734 C   0  0  0  0  0  0  0  0  0  0  0  0
   15.0832  -14.1858  -19.3276 C   0  0  0  0  0  0  0  0  0  0  0  0
   14.7002  -13.1664  -20.1721 C   0  0  0  0  0  0  0  0  0  0  0  0
   15.3562  -11.9604  -20.1751 C   0  0  0  0  0  0  0  0  0  0  0  0
   16.4212  -11.7180  -19.3376 C   0  0  0  0  0  0  0  0  0  0  0  0
   16.8180  -12.7495  -18.4748 C   0  0  0  0  0  0  0  0  0  0  0  0
   20.6566  -10.4254  -17.8425 C   0  0  0  0  0  0  0  0  0  0  0  0
   21.5594  -10.5137  -16.9562 O   0  0  0  0  0  0  0  0  0  0  0  0
   20.7286   -6.9120  -19.0778 C   0  0  0  0  0  0  0  0  0  0  0  0
   21.1703   -8.0450  -18.1400 C   0  0  2  0  0  0  0  0  0  0  0  0
   20.3885   -9.1873  -18.4748 N   0  0  0  0  0  0  0  0  0  0  0  0
   20.9244   -7.5452  -16.7662 C   0  0  0  0  0  0  0  0  0  0  0  0
   19.7558   -7.6153  -16.3134 O   0  0  0  0  0  0  0  0  0  0  0  0
   22.9394   -9.8392  -12.8782 C   0  0  0  0  0  0  0  0  0  0  0  0
   22.0511   -9.0100  -13.8002 C   0  0  0  0  0  0  0  0  0  0  0  0
   22.4440   -7.5653  -13.6059 C   0  0  2  0  0  0  0  0  0  0  0  0
   22.1294   -7.1956  -12.1746 C   0  0  0  0  0  0  0  0  0  0  0  0
   21.7460   -6.6411  -14.5552 C   0  0  2  0  0  0  0  0  0  0  0  0
   21.9296   -6.9936  -15.9351 N   0  0  0  0  0  0  0  0  0  0  0  0
   22.2718   -5.2697  -14.3477 C   0  0  0  0  0  0  0  0  0  0  0  0
   23.2917   -4.8361  -14.9515 O   0  0  0  0  0  0  0  0  0  0  0  0
   21.6456   -4.4060  -13.4664 O   0  0  0  0  0  0  0  0  0  0  0  0
  2  1  1  1
  2  3  1  0
  2 13  1  0
  4  3  1  0
  4  5  2  0
  6  5  1  0
  7  6  1  0
  8  7  2  0
  9  8  1  0
 10  9  2  0
 10 11  1  0
 11 12  2  0
 12  7  1  0
 12  4  1  0
 13 14  2  0
 13 17  1  0
 16 15  1  6
 17 16  1  0
 18 19  2  0
 18 16  1  0
 20 21  1  0
 21 22  1  0
 22 23  1  1
 24 22  1  0
 24 25  1  6
 25 18  1  0
 26 24  1  0
 27 26  2  0
 28 26  1  0
M  END
$$$$
