WAI.pdb
     RDKit          3D

 28 29  0  0  1  0  0  0  0  0999 V2000
   27.7909  -21.2424  -12.6568 N   0  0  0  0  0  0  0  0  0  0  0  0
   26.7001  -21.4693  -11.7525 C   0  0  1  0  0  0  0  0  0  0  0  0
   26.7295  -20.5470  -10.5597 C   0  0  0  0  0  0  0  0  0  0  0  0
   27.9520  -20.6443   -9.7613 C   0  0  0  0  0  0  0  0  0  0  0  0
   29.1899  -21.0445  -10.2040 C   0  0  0  0  0  0  0  0  0  0  0  0
   30.0228  -20.9911   -9.1618 N   0  0  0  0  0  0  0  0  0  0  0  0
   29.3640  -20.5718   -8.0690 C   0  0  0  0  0  0  0  0  0  0  0  0
   29.8024  -20.3610   -6.7622 C   0  0  0  0  0  0  0  0  0  0  0  0
   28.8812  -19.9197   -5.8371 C   0  0  0  0  0  0  0  0  0  0  0  0
   27.5731  -19.6937   -6.1873 C   0  0  0  0  0  0  0  0  0  0  0  0
   27.1265  -19.8975   -7.4732 C   0  0  0  0  0  0  0  0  0  0  0  0
   28.0568  -20.3465   -8.4213 C   0  0  0  0  0  0  0  0  0  0  0  0
   25.3738  -21.3352  -12.3947 C   0  0  0  0  0  0  0  0  0  0  0  0
   24.9312  -20.1532  -12.5190 O   0  0  0  0  0  0  0  0  0  0  0  0
   23.0258  -23.5231  -14.2524 C   0  0  0  0  0  0  0  0  0  0  0  0
   23.3915  -22.2097  -13.5455 C   0  0  2  0  0  0  0  0  0  0  0  0
   24.6159  -22.4388  -12.8552 N   0  0  0  0  0  0  0  0  0  0  0  0
   22.2537  -21.9114  -12.6433 C   0  0  0  0  0  0  0  0  0  0  0  0
   22.3289  -22.2977  -11.4514 O   0  0  0  0  0  0  0  0  0  0  0  0
   19.7700  -17.2035  -12.1654 C   0  0  0  0  0  0  0  0  0  0  0  0
   20.3705  -18.5637  -11.8251 C   0  0  0  0  0  0  0  0  0  0  0  0
   19.3911  -19.6083  -12.3038 C   0  0  2  0  0  0  0  0  0  0  0  0
   18.1374  -19.4740  -11.4703 C   0  0  0  0  0  0  0  0  0  0  0  0
   19.9370  -20.9999  -12.2151 C   0  0  2  0  0  0  0  0  0  0  0  0
   21.0875  -21.2166  -13.0467 N   0  0  0  0  0  0  0  0  0  0  0  0
   18.8743  -21.9486  -12.6285 C   0  0  0  0  0  0  0  0  0  0  0  0
   18.7161  -22.3088  -13.8277 O   0  0  0  0  0  0  0  0  0  0  0  0
   18.0058  -22.4785  -11.6906 O   0  0  0  0  0  0  0  0  0  0  0  0
  2  1  1  6
  2  3  1  0
  2 13  1  0
  4  3  1  0
  4  5  2  0
  6  5  1  0
  7  6  1  0
  8  7  2  0
  9  8  1  0
 10  9  2  0
 10 11  1  0
 11 12  2  0
 12  7  1  0
 12  4  1  0
 13 14  2  0
 13 17  1  0
 16 15  1  1
 17 16  1  0
 18 19  2  0
 18 16  1  0
 20 21  1  0
 21 22  1  0
 22 23  1  1
 24 22  1  0
 24 25  1  6
 25 18  1  0
 26 24  1  0
 27 26  2  0
 28 26  1  0
M  END
$$$$
