WAI.pdb
     RDKit          3D

 28 29  0  0  1  0  0  0  0  0999 V2000
   27.7653  -21.4886  -13.7631 N   0  0  0  0  0  0  0  0  0  0  0  0
   26.6640  -21.8080  -12.9004 C   0  0  1  0  0  0  0  0  0  0  0  0
   26.5736  -20.8918  -11.7061 C   0  0  0  0  0  0  0  0  0  0  0  0
   27.7335  -20.9565  -10.8162 C   0  0  0  0  0  0  0  0  0  0  0  0
   29.0512  -21.0548  -11.1937 C   0  0  0  0  0  0  0  0  0  0  0  0
   29.7845  -21.0863  -10.0785 N   0  0  0  0  0  0  0  0  0  0  0  0
   28.9852  -21.0118   -9.0015 C   0  0  0  0  0  0  0  0  0  0  0  0
   29.2844  -21.0087   -7.6396 C   0  0  0  0  0  0  0  0  0  0  0  0
   28.2357  -20.9200   -6.7500 C   0  0  0  0  0  0  0  0  0  0  0  0
   26.9369  -20.8372   -7.1870 C   0  0  0  0  0  0  0  0  0  0  0  0
   26.6268  -20.8392   -8.5280 C   0  0  0  0  0  0  0  0  0  0  0  0
   27.6875  -20.9291   -9.4405 C   0  0  0  0  0  0  0  0  0  0  0  0
   25.3559  -21.7802  -13.5914 C   0  0  0  0  0  0  0  0  0  0  0  0
   25.0670  -20.7031  -14.1955 O   0  0  0  0  0  0  0  0  0  0  0  0
   22.9374  -24.2401  -14.8160 C   0  0  0  0  0  0  0  0  0  0  0  0
   23.2750  -22.8030  -14.3930 C   0  0  2  0  0  0  0  0  0  0  0  0
   24.4551  -22.8724  -13.5987 N   0  0  0  0  0  0  0  0  0  0  0  0
   22.0902  -22.3176  -13.6460 C   0  0  0  0  0  0  0  0  0  0  0  0
   22.0037  -22.6032  -12.4269 O   0  0  0  0  0  0  0  0  0  0  0  0
   18.9065  -17.4714  -12.5910 C   0  0  0  0  0  0  0  0  0  0  0  0
   18.6833  -18.9686  -12.7790 C   0  0  0  0  0  0  0  0  0  0  0  0
   19.9320  -19.5213  -13.4232 C   0  0  2  0  0  0  0  0  0  0  0  0
   20.0420  -18.9118  -14.8019 C   0  0  0  0  0  0  0  0  0  0  0  0
   19.9295  -21.0165  -13.5060 C   0  0  2  0  0  0  0  0  0  0  0  0
   21.0507  -21.5509  -14.2266 N   0  0  0  0  0  0  0  0  0  0  0  0
   18.6850  -21.4471  -14.1886 C   0  0  0  0  0  0  0  0  0  0  0  0
   18.6712  -21.8425  -15.3871 O   0  0  0  0  0  0  0  0  0  0  0  0
   17.4755  -21.4275  -13.5166 O   0  0  0  0  0  0  0  0  0  0  0  0
  2  1  1  6
  2  3  1  0
  2 13  1  0
  4  3  1  0
  4  5  2  0
  6  5  1  0
  7  6  1  0
  8  7  2  0
  9  8  1  0
 10  9  2  0
 10 11  1  0
 11 12  2  0
 12  7  1  0
 12  4  1  0
 13 14  2  0
 13 17  1  0
 16 15  1  1
 17 16  1  0
 18 19  2  0
 18 16  1  0
 20 21  1  0
 21 22  1  0
 22 23  1  6
 24 22  1  0
 24 25  1  6
 25 18  1  0
 26 24  1  0
 27 26  2  0
 28 26  1  0
M  END
$$$$
