WAI.pdb
     RDKit          3D

 28 29  0  0  1  0  0  0  0  0999 V2000
   18.7562  -12.3238  -17.1282 N   0  0  0  0  0  0  0  0  0  0  0  0
   20.0697  -11.8663  -17.4812 C   0  0  1  0  0  0  0  0  0  0  0  0
   20.1058  -11.1727  -18.8197 C   0  0  0  0  0  0  0  0  0  0  0  0
   19.7004  -12.0205  -19.9414 C   0  0  0  0  0  0  0  0  0  0  0  0
   19.3873  -13.3575  -19.8864 C   0  0  0  0  0  0  0  0  0  0  0  0
   19.0727  -13.7448  -21.1248 N   0  0  0  0  0  0  0  0  0  0  0  0
   19.1729  -12.7057  -21.9700 C   0  0  0  0  0  0  0  0  0  0  0  0
   18.9486  -12.6197  -23.3435 C   0  0  0  0  0  0  0  0  0  0  0  0
   19.1353  -11.3971  -23.9514 C   0  0  0  0  0  0  0  0  0  0  0  0
   19.5296  -10.2970  -23.2309 C   0  0  0  0  0  0  0  0  0  0  0  0
   19.7546  -10.3672  -21.8748 C   0  0  0  0  0  0  0  0  0  0  0  0
   19.5671  -11.6072  -21.2478 C   0  0  0  0  0  0  0  0  0  0  0  0
   20.6548  -10.9473  -16.4800 C   0  0  0  0  0  0  0  0  0  0  0  0
   19.8334  -10.2227  -15.8406 O   0  0  0  0  0  0  0  0  0  0  0  0
   23.9597  -10.4568  -14.8723 C   0  0  0  0  0  0  0  0  0  0  0  0
   22.5083  -10.0406  -15.1528 C   0  0  2  0  0  0  0  0  0  0  0  0
   22.0444  -10.8557  -16.2246 N   0  0  0  0  0  0  0  0  0  0  0  0
   22.5646   -8.5985  -15.4915 C   0  0  0  0  0  0  0  0  0  0  0  0
   23.0119   -8.2742  -16.6184 O   0  0  0  0  0  0  0  0  0  0  0  0
   19.6349   -3.9280  -16.7138 C   0  0  0  0  0  0  0  0  0  0  0  0
   20.8858   -4.2229  -15.8922 C   0  0  0  0  0  0  0  0  0  0  0  0
   20.9010   -5.7103  -15.6337 C   0  0  2  0  0  0  0  0  0  0  0  0
   19.6829   -6.0412  -14.8024 C   0  0  0  0  0  0  0  0  0  0  0  0
   22.1498   -6.1673  -14.9451 C   0  0  2  0  0  0  0  0  0  0  0  0
   22.1435   -7.5657  -14.6188 N   0  0  0  0  0  0  0  0  0  0  0  0
   22.3036   -5.3934  -13.6891 C   0  0  0  0  0  0  0  0  0  0  0  0
   22.6125   -4.1698  -13.6802 O   0  0  0  0  0  0  0  0  0  0  0  0
   22.1087   -6.0040  -12.4627 O   0  0  0  0  0  0  0  0  0  0  0  0
  2  1  1  1
  2  3  1  0
  2 13  1  0
  4  3  1  0
  4  5  2  0
  6  5  1  0
  7  6  1  0
  8  7  2  0
  9  8  1  0
 10  9  2  0
 10 11  1  0
 11 12  2  0
 12  7  1  0
 12  4  1  0
 13 14  2  0
 13 17  1  0
 16 15  1  6
 17 16  1  0
 18 19  2  0
 18 16  1  0
 20 21  1  0
 21 22  1  0
 22 23  1  1
 24 22  1  0
 24 25  1  1
 25 18  1  0
 26 24  1  0
 27 26  2  0
 28 26  1  0
M  END
$$$$
