WAI.pdb
     RDKit          3D

 28 29  0  0  1  0  0  0  0  0999 V2000
   23.2605  -20.9681  -17.7343 N   0  0  0  0  0  0  0  0  0  0  0  0
   23.2157  -20.0918  -16.5987 C   0  0  1  0  0  0  0  0  0  0  0  0
   22.1112  -20.4431  -15.6339 C   0  0  0  0  0  0  0  0  0  0  0  0
   20.7665  -20.1703  -16.1426 C   0  0  0  0  0  0  0  0  0  0  0  0
   19.7746  -21.0933  -16.3722 C   0  0  0  0  0  0  0  0  0  0  0  0
   18.7114  -20.4300  -16.8328 N   0  0  0  0  0  0  0  0  0  0  0  0
   18.9860  -19.1173  -16.9065 C   0  0  0  0  0  0  0  0  0  0  0  0
   18.2023  -18.0415  -17.3222 C   0  0  0  0  0  0  0  0  0  0  0  0
   18.7645  -16.7837  -17.2874 C   0  0  0  0  0  0  0  0  0  0  0  0
   20.0543  -16.5924  -16.8579 C   0  0  0  0  0  0  0  0  0  0  0  0
   20.8392  -17.6448  -16.4448 C   0  0  0  0  0  0  0  0  0  0  0  0
   20.2756  -18.9282  -16.4768 C   0  0  0  0  0  0  0  0  0  0  0  0
   24.4852  -20.0575  -15.8393 C   0  0  0  0  0  0  0  0  0  0  0  0
   25.1136  -21.1557  -15.7532 O   0  0  0  0  0  0  0  0  0  0  0  0
   26.5247  -17.5331  -14.0089 C   0  0  0  0  0  0  0  0  0  0  0  0
   26.1816  -18.9655  -14.4434 C   0  0  2  0  0  0  0  0  0  0  0  0
   24.9982  -18.8861  -15.2317 N   0  0  0  0  0  0  0  0  0  0  0  0
   26.0020  -19.7319  -13.1872 C   0  0  0  0  0  0  0  0  0  0  0  0
   24.8376  -19.8623  -12.7371 O   0  0  0  0  0  0  0  0  0  0  0  0
   30.3341  -21.0171   -9.6345 C   0  0  0  0  0  0  0  0  0  0  0  0
   29.0167  -20.4266  -10.1268 C   0  0  0  0  0  0  0  0  0  0  0  0
   28.2042  -21.5704  -10.6847 C   0  0  2  0  0  0  0  0  0  0  0  0
   29.0536  -22.2708  -11.7202 C   0  0  0  0  0  0  0  0  0  0  0  0
   26.9060  -21.1230  -11.2823 C   0  0  2  0  0  0  0  0  0  0  0  0
   27.0662  -20.3252  -12.4654 N   0  0  0  0  0  0  0  0  0  0  0  0
   26.1752  -20.3206  -10.2712 C   0  0  0  0  0  0  0  0  0  0  0  0
   26.1931  -19.0587  -10.2651 O   0  0  0  0  0  0  0  0  0  0  0  0
   25.4358  -20.9460   -9.2828 O   0  0  0  0  0  0  0  0  0  0  0  0
  2  1  1  6
  2  3  1  0
  2 13  1  0
  4  3  1  0
  4  5  2  0
  6  5  1  0
  7  6  1  0
  8  7  2  0
  9  8  1  0
 10  9  2  0
 10 11  1  0
 11 12  2  0
 12  7  1  0
 12  4  1  0
 13 14  2  0
 13 17  1  0
 16 15  1  1
 17 16  1  0
 18 19  2  0
 18 16  1  0
 20 21  1  0
 21 22  1  0
 22 23  1  6
 24 22  1  0
 24 25  1  6
 25 18  1  0
 26 24  1  0
 27 26  2  0
 28 26  1  0
M  END
$$$$
