WAI.pdb
     RDKit          3D

 28 29  0  0  1  0  0  0  0  0999 V2000
   27.0461  -19.8302  -11.7912 N   0  0  0  0  0  0  0  0  0  0  0  0
   26.5167  -21.1639  -11.7949 C   0  0  1  0  0  0  0  0  0  0  0  0
   26.0117  -21.5950  -10.4409 C   0  0  0  0  0  0  0  0  0  0  0  0
   26.6644  -20.9197   -9.3188 C   0  0  0  0  0  0  0  0  0  0  0  0
   26.1105  -19.9605   -8.5054 C   0  0  0  0  0  0  0  0  0  0  0  0
   27.0391  -19.6097   -7.6125 N   0  0  0  0  0  0  0  0  0  0  0  0
   28.1664  -20.3086   -7.8243 C   0  0  0  0  0  0  0  0  0  0  0  0
   29.3916  -20.2907   -7.1587 C   0  0  0  0  0  0  0  0  0  0  0  0
   30.3823  -21.1355   -7.6103 C   0  0  0  0  0  0  0  0  0  0  0  0
   30.1732  -21.9693   -8.6807 C   0  0  0  0  0  0  0  0  0  0  0  0
   28.9693  -21.9975   -9.3471 C   0  0  0  0  0  0  0  0  0  0  0  0
   27.9553  -21.1413   -8.8946 C   0  0  0  0  0  0  0  0  0  0  0  0
   25.4178  -21.3516  -12.7679 C   0  0  0  0  0  0  0  0  0  0  0  0
   24.7439  -20.3162  -13.0547 O   0  0  0  0  0  0  0  0  0  0  0  0
   23.9515  -24.1493  -14.7458 C   0  0  0  0  0  0  0  0  0  0  0  0
   24.0241  -22.6872  -14.2819 C   0  0  2  0  0  0  0  0  0  0  0  0
   25.1087  -22.5984  -13.3631 N   0  0  0  0  0  0  0  0  0  0  0  0
   22.7066  -22.3972  -13.6675 C   0  0  0  0  0  0  0  0  0  0  0  0
   22.4712  -22.8665  -12.5275 O   0  0  0  0  0  0  0  0  0  0  0  0
   20.5092  -17.6338  -12.9749 C   0  0  0  0  0  0  0  0  0  0  0  0
   20.9357  -19.0899  -12.8175 C   0  0  0  0  0  0  0  0  0  0  0  0
   20.0397  -19.9093  -13.7149 C   0  0  2  0  0  0  0  0  0  0  0  0
   18.6186  -19.7202  -13.2362 C   0  0  0  0  0  0  0  0  0  0  0  0
   20.4031  -21.3620  -13.7280 C   0  0  2  0  0  0  0  0  0  0  0  0
   21.6984  -21.6221  -14.2907 N   0  0  0  0  0  0  0  0  0  0  0  0
   19.3894  -22.0927  -14.5273 C   0  0  0  0  0  0  0  0  0  0  0  0
   18.3516  -22.5928  -14.0119 O   0  0  0  0  0  0  0  0  0  0  0  0
   19.5555  -22.2510  -15.8918 O   0  0  0  0  0  0  0  0  0  0  0  0
  2  1  1  1
  2  3  1  0
  2 13  1  0
  4  3  1  0
  4  5  2  0
  6  5  1  0
  7  6  1  0
  8  7  2  0
  9  8  1  0
 10  9  2  0
 10 11  1  0
 11 12  2  0
 12  7  1  0
 12  4  1  0
 13 14  2  0
 13 17  1  0
 16 15  1  1
 17 16  1  0
 18 19  2  0
 18 16  1  0
 20 21  1  0
 21 22  1  0
 22 23  1  1
 24 22  1  0
 24 25  1  6
 25 18  1  0
 26 24  1  0
 27 26  2  0
 28 26  1  0
M  END
$$$$
