WAI.pdb
     RDKit          3D

 28 29  0  0  1  0  0  0  0  0999 V2000
   29.1373  -21.6846  -10.3044 N   0  0  0  0  0  0  0  0  0  0  0  0
   27.7763  -21.3190  -10.0340 C   0  0  1  0  0  0  0  0  0  0  0  0
   27.6534  -19.9576   -9.3969 C   0  0  0  0  0  0  0  0  0  0  0  0
   28.3986  -19.8160   -8.1455 C   0  0  0  0  0  0  0  0  0  0  0  0
   29.7130  -19.4377   -8.0130 C   0  0  0  0  0  0  0  0  0  0  0  0
   29.9979  -19.4350   -6.7086 N   0  0  0  0  0  0  0  0  0  0  0  0
   28.9148  -19.7975   -6.0017 C   0  0  0  0  0  0  0  0  0  0  0  0
   28.7255  -19.9386   -4.6274 C   0  0  0  0  0  0  0  0  0  0  0  0
   27.4808  -20.3320   -4.1858 C   0  0  0  0  0  0  0  0  0  0  0  0
   26.4577  -20.5779   -5.0676 C   0  0  0  0  0  0  0  0  0  0  0  0
   26.6303  -20.4427   -6.4264 C   0  0  0  0  0  0  0  0  0  0  0  0
   27.8935  -20.0429   -6.8850 C   0  0  0  0  0  0  0  0  0  0  0  0
   26.9191  -21.3325  -11.2400 C   0  0  0  0  0  0  0  0  0  0  0  0
   27.3854  -20.7447  -12.2625 O   0  0  0  0  0  0  0  0  0  0  0  0
   23.8442  -23.0582  -12.3741 C   0  0  0  0  0  0  0  0  0  0  0  0
   24.9169  -21.9674  -12.5077 C   0  0  2  0  0  0  0  0  0  0  0  0
   25.6483  -21.9550  -11.2857 N   0  0  0  0  0  0  0  0  0  0  0  0
   24.1769  -20.7086  -12.7638 C   0  0  0  0  0  0  0  0  0  0  0  0
   24.1028  -19.8684  -11.8344 O   0  0  0  0  0  0  0  0  0  0  0  0
   25.7221  -17.0893  -15.8095 C   0  0  0  0  0  0  0  0  0  0  0  0
   24.9937  -17.8197  -14.6857 C   0  0  0  0  0  0  0  0  0  0  0  0
   23.6780  -18.2965  -15.2524 C   0  0  2  0  0  0  0  0  0  0  0  0
   22.8783  -17.0739  -15.6396 C   0  0  0  0  0  0  0  0  0  0  0  0
   22.9072  -19.1489  -14.2923 C   0  0  2  0  0  0  0  0  0  0  0  0
   23.5491  -20.3985  -13.9947 N   0  0  0  0  0  0  0  0  0  0  0  0
   21.5761  -19.4342  -14.8815 C   0  0  0  0  0  0  0  0  0  0  0  0
   21.4045  -20.3048  -15.7788 O   0  0  0  0  0  0  0  0  0  0  0  0
   20.4585  -18.7386  -14.4551 O   0  0  0  0  0  0  0  0  0  0  0  0
  2  1  1  6
  2  3  1  0
  2 13  1  0
  4  3  1  0
  4  5  2  0
  6  5  1  0
  7  6  1  0
  8  7  2  0
  9  8  1  0
 10  9  2  0
 10 11  1  0
 11 12  2  0
 12  7  1  0
 12  4  1  0
 13 14  2  0
 13 17  1  0
 16 15  1  1
 17 16  1  0
 18 19  2  0
 18 16  1  0
 20 21  1  0
 21 22  1  0
 22 23  1  1
 24 22  1  0
 24 25  1  6
 25 18  1  0
 26 24  1  0
 27 26  2  0
 28 26  1  0
M  END
$$$$
