QMI.pdb
     RDKit          3D

 26 25  0  0  1  0  0  0  0  0999 V2000
   13.9525  -18.9346   21.1648 N   0  0  0  0  0  0  0  0  0  0  0  0
   13.3119  -19.3923   19.9589 C   0  0  0  0  0  0  0  0  0  0  0  0
   13.6979  -20.4871   19.5200 O   0  0  0  0  0  0  0  0  0  0  0  0
   12.2804  -18.5845   19.3224 C   0  0  0  0  0  0  0  0  0  0  0  0
   11.9724  -17.3145   20.0408 C   0  0  0  0  0  0  0  0  0  0  0  0
   10.5900  -17.3045   20.5733 C   0  0  2  0  0  0  0  0  0  0  0  0
    9.5424  -17.0472   19.6298 N   0  0  0  0  0  0  0  0  0  0  0  0
   10.4169  -16.2953   21.6728 C   0  0  0  0  0  0  0  0  0  0  0  0
   11.2987  -15.4476   21.9679 O   0  0  0  0  0  0  0  0  0  0  0  0
    6.0970  -12.6044   26.6911 C   0  0  0  0  0  0  0  0  0  0  0  0
    6.0819  -13.9257   25.4778 S   0  0  0  0  0  0  0  0  0  0  0  0
    7.2362  -13.5681   24.1018 C   0  0  0  0  0  0  0  0  0  0  0  0
    7.5780  -14.8702   23.4427 C   0  0  0  0  0  0  0  0  0  0  0  0
    9.0213  -15.2525   23.5093 C   0  0  2  0  0  0  0  0  0  0  0  0
    9.2221  -16.2499   22.4486 N   0  0  0  0  0  0  0  0  0  0  0  0
    9.4099  -15.8926   24.8028 C   0  0  0  0  0  0  0  0  0  0  0  0
    9.6090  -17.1307   24.8398 O   0  0  0  0  0  0  0  0  0  0  0  0
   10.5972  -14.3262   30.6660 C   0  0  0  0  0  0  0  0  0  0  0  0
   10.9459  -15.1288   29.4667 C   0  0  0  0  0  0  0  0  0  0  0  0
   10.3973  -14.7102   28.1663 C   0  0  2  0  0  0  0  0  0  0  0  0
    9.2500  -13.7331   28.2276 C   0  0  0  0  0  0  0  0  0  0  0  0
   10.2086  -15.7617   27.1481 C   0  0  2  0  0  0  0  0  0  0  0  0
    9.5570  -15.1382   25.9783 N   0  0  0  0  0  0  0  0  0  0  0  0
    9.4697  -16.9640   27.5267 C   0  0  0  0  0  0  0  0  0  0  0  0
    8.1271  -17.1467   27.1784 O   0  0  0  0  0  0  0  0  0  0  0  0
    9.9971  -17.8930   28.1815 O   0  0  0  0  0  0  0  0  0  0  0  0
  2  3  2  0
  2  1  1  0
  4  2  1  0
  5  4  1  0
  6  5  1  0
  6  7  1  6
  8  9  2  0
  8  6  1  0
 10 11  1  0
 11 12  1  0
 13 12  1  0
 14 13  1  1
 14 15  1  0
 15  8  1  0
 16 14  1  0
 16 17  2  0
 19 20  1  0
 19 18  1  0
 20 21  1  1
 20 22  1  0
 22 23  1  6
 22 24  1  0
 23 16  1  0
 24 25  1  0
 26 24  2  0
M  END
$$$$
