QMI.pdb
     RDKit          3D

 26 25  0  0  1  0  0  0  0  0999 V2000
    9.0786  -12.7082   17.2362 N   0  0  0  0  0  0  0  0  0  0  0  0
    8.3605  -13.9540   17.1559 C   0  0  0  0  0  0  0  0  0  0  0  0
    8.0175  -14.3116   16.0180 O   0  0  0  0  0  0  0  0  0  0  0  0
    8.0711  -14.7148   18.3639 C   0  0  0  0  0  0  0  0  0  0  0  0
    8.5735  -14.0813   19.6170 C   0  0  0  0  0  0  0  0  0  0  0  0
    9.0492  -15.0905   20.5916 C   0  0  2  0  0  0  0  0  0  0  0  0
    8.3299  -16.3293   20.6330 N   0  0  0  0  0  0  0  0  0  0  0  0
    9.0471  -14.5608   21.9976 C   0  0  0  0  0  0  0  0  0  0  0  0
    9.6516  -13.5096   22.3331 O   0  0  0  0  0  0  0  0  0  0  0  0
    6.9909  -11.6435   26.3717 C   0  0  0  0  0  0  0  0  0  0  0  0
    5.6267  -12.7084   25.8997 S   0  0  0  0  0  0  0  0  0  0  0  0
    6.0603  -13.7240   24.4388 C   0  0  0  0  0  0  0  0  0  0  0  0
    6.9497  -14.8371   24.9044 C   0  0  0  0  0  0  0  0  0  0  0  0
    8.3637  -14.7577   24.4270 C   0  0  2  0  0  0  0  0  0  0  0  0
    8.3464  -15.2377   23.0380 N   0  0  0  0  0  0  0  0  0  0  0  0
    9.3014  -15.6361   25.1907 C   0  0  0  0  0  0  0  0  0  0  0  0
    9.9917  -16.4818   24.5722 O   0  0  0  0  0  0  0  0  0  0  0  0
   10.3899  -13.6931   30.0370 C   0  0  0  0  0  0  0  0  0  0  0  0
   10.6979  -14.3120   28.7231 C   0  0  0  0  0  0  0  0  0  0  0  0
   10.6481  -15.7794   28.6171 C   0  0  2  0  0  0  0  0  0  0  0  0
   11.6739  -16.5264   29.4323 C   0  0  0  0  0  0  0  0  0  0  0  0
   10.4537  -16.3483   27.2692 C   0  0  2  0  0  0  0  0  0  0  0  0
    9.4268  -15.5357   26.5859 N   0  0  0  0  0  0  0  0  0  0  0  0
   10.0994  -17.7617   27.1615 C   0  0  0  0  0  0  0  0  0  0  0  0
   11.0618  -18.7486   26.9221 O   0  0  0  0  0  0  0  0  0  0  0  0
    8.9186  -18.1645   27.2772 O   0  0  0  0  0  0  0  0  0  0  0  0
  2  3  2  0
  2  1  1  0
  4  2  1  0
  5  4  1  0
  6  5  1  0
  6  7  1  1
  8  9  2  0
  8  6  1  0
 10 11  1  0
 11 12  1  0
 13 12  1  0
 14 13  1  1
 14 15  1  0
 15  8  1  0
 16 14  1  0
 16 17  2  0
 19 20  1  0
 19 18  1  0
 20 21  1  6
 20 22  1  0
 22 23  1  1
 22 24  1  0
 23 16  1  0
 24 25  1  0
 26 24  2  0
M  END
$$$$
