QMI.pdb
     RDKit          3D

 26 25  0  0  1  0  0  0  0  0999 V2000
    7.7709  -12.7179   17.3934 N   0  0  0  0  0  0  0  0  0  0  0  0
    7.8848  -14.1324   17.1477 C   0  0  0  0  0  0  0  0  0  0  0  0
    7.7431  -14.4927   15.9686 O   0  0  0  0  0  0  0  0  0  0  0  0
    8.1466  -15.0508   18.2476 C   0  0  0  0  0  0  0  0  0  0  0  0
    8.2437  -14.3908   19.5814 C   0  0  0  0  0  0  0  0  0  0  0  0
    8.9664  -15.2343   20.5617 C   0  0  2  0  0  0  0  0  0  0  0  0
    9.2382  -16.5848   20.1667 N   0  0  0  0  0  0  0  0  0  0  0  0
    8.2392  -15.3226   21.8735 C   0  0  0  0  0  0  0  0  0  0  0  0
    7.6837  -14.3321   22.4153 O   0  0  0  0  0  0  0  0  0  0  0  0
    6.2963  -20.8300   24.8015 C   0  0  0  0  0  0  0  0  0  0  0  0
    5.5580  -20.1775   23.3024 S   0  0  0  0  0  0  0  0  0  0  0  0
    5.8844  -18.3831   23.1358 C   0  0  0  0  0  0  0  0  0  0  0  0
    7.0259  -18.0405   24.0448 C   0  0  0  0  0  0  0  0  0  0  0  0
    7.5380  -16.6423   23.9166 C   0  0  2  0  0  0  0  0  0  0  0  0
    8.1426  -16.5569   22.5797 N   0  0  0  0  0  0  0  0  0  0  0  0
    8.6023  -16.3033   24.9098 C   0  0  0  0  0  0  0  0  0  0  0  0
    9.8076  -16.4265   24.5843 O   0  0  0  0  0  0  0  0  0  0  0  0
    7.5828  -12.1139   27.7245 C   0  0  0  0  0  0  0  0  0  0  0  0
    8.3473  -13.1738   27.0200 C   0  0  0  0  0  0  0  0  0  0  0  0
    8.9563  -14.2443   27.8264 C   0  0  2  0  0  0  0  0  0  0  0  0
    9.9526  -13.7914   28.8642 C   0  0  0  0  0  0  0  0  0  0  0  0
    9.3788  -15.4646   27.1118 C   0  0  2  0  0  0  0  0  0  0  0  0
    8.2825  -15.8498   26.1999 N   0  0  0  0  0  0  0  0  0  0  0  0
    9.7760  -16.6258   27.9047 C   0  0  0  0  0  0  0  0  0  0  0  0
   11.0649  -16.7536   28.4335 O   0  0  0  0  0  0  0  0  0  0  0  0
    8.9862  -17.5663   28.1528 O   0  0  0  0  0  0  0  0  0  0  0  0
  2  3  2  0
  2  1  1  0
  4  2  1  0
  5  4  1  0
  6  5  1  0
  6  7  1  6
  8  9  2  0
  8  6  1  0
 10 11  1  0
 11 12  1  0
 13 12  1  0
 14 13  1  1
 14 15  1  0
 15  8  1  0
 16 14  1  0
 16 17  2  0
 19 20  1  0
 19 18  1  0
 20 21  1  6
 20 22  1  0
 22 23  1  6
 22 24  1  0
 23 16  1  0
 24 25  1  0
 26 24  2  0
M  END
$$$$
