QMI.pdb
     RDKit          3D

 26 25  0  0  1  0  0  0  0  0999 V2000
    9.7316  -21.5831   19.0030 N   0  0  0  0  0  0  0  0  0  0  0  0
    8.7233  -22.0308   19.9288 C   0  0  0  0  0  0  0  0  0  0  0  0
    8.2290  -23.1455   19.6974 O   0  0  0  0  0  0  0  0  0  0  0  0
    8.3335  -21.1915   21.0537 C   0  0  0  0  0  0  0  0  0  0  0  0
    9.0427  -19.8808   21.1094 C   0  0  0  0  0  0  0  0  0  0  0  0
    8.7745  -19.1632   22.3773 C   0  0  2  0  0  0  0  0  0  0  0  0
    7.3987  -19.0130   22.7492 N   0  0  0  0  0  0  0  0  0  0  0  0
    9.3587  -17.7789   22.3758 C   0  0  0  0  0  0  0  0  0  0  0  0
   10.5786  -17.5518   22.1672 O   0  0  0  0  0  0  0  0  0  0  0  0
    6.6464  -13.1763   19.2061 C   0  0  0  0  0  0  0  0  0  0  0  0
    6.9986  -12.2439   20.6975 S   0  0  0  0  0  0  0  0  0  0  0  0
    8.3616  -13.0139   21.6480 C   0  0  0  0  0  0  0  0  0  0  0  0
    8.0436  -14.4705   21.8033 C   0  0  0  0  0  0  0  0  0  0  0  0
    9.0757  -15.2683   22.5326 C   0  0  2  0  0  0  0  0  0  0  0  0
    8.5423  -16.6354   22.6153 N   0  0  0  0  0  0  0  0  0  0  0  0
    9.3154  -14.7977   23.9309 C   0  0  0  0  0  0  0  0  0  0  0  0
    9.5441  -13.5818   24.1388 O   0  0  0  0  0  0  0  0  0  0  0  0
    6.8233  -12.3783   25.8899 C   0  0  0  0  0  0  0  0  0  0  0  0
    7.9549  -13.3006   25.6196 C   0  0  0  0  0  0  0  0  0  0  0  0
    8.3362  -14.2595   26.6694 C   0  0  2  0  0  0  0  0  0  0  0  0
    8.3523  -13.7138   28.0753 C   0  0  0  0  0  0  0  0  0  0  0  0
    9.4764  -15.1512   26.3813 C   0  0  2  0  0  0  0  0  0  0  0  0
    9.2902  -15.6871   25.0175 N   0  0  0  0  0  0  0  0  0  0  0  0
    9.7380  -16.2559   27.3011 C   0  0  0  0  0  0  0  0  0  0  0  0
   10.5144  -16.0902   28.4531 O   0  0  0  0  0  0  0  0  0  0  0  0
    9.2825  -17.4071   27.1082 O   0  0  0  0  0  0  0  0  0  0  0  0
  2  3  2  0
  2  1  1  0
  4  2  1  0
  5  4  1  0
  6  5  1  0
  6  7  1  6
  8  9  2  0
  8  6  1  0
 10 11  1  0
 11 12  1  0
 13 12  1  0
 14 13  1  1
 14 15  1  0
 15  8  1  0
 16 14  1  0
 16 17  2  0
 19 20  1  0
 19 18  1  0
 20 21  1  1
 20 22  1  0
 22 23  1  6
 22 24  1  0
 23 16  1  0
 24 25  1  0
 26 24  2  0
M  END
$$$$
