QMI.pdb
     RDKit          3D

 26 25  0  0  1  0  0  0  0  0999 V2000
   13.0696  -18.5790   17.1645 N   0  0  0  0  0  0  0  0  0  0  0  0
   11.6469  -18.3692   17.2410 C   0  0  0  0  0  0  0  0  0  0  0  0
   11.0051  -18.6107   16.2066 O   0  0  0  0  0  0  0  0  0  0  0  0
   11.0391  -17.8962   18.4774 C   0  0  0  0  0  0  0  0  0  0  0  0
   12.0026  -17.7267   19.6030 C   0  0  0  0  0  0  0  0  0  0  0  0
   11.3541  -17.9342   20.9187 C   0  0  2  0  0  0  0  0  0  0  0  0
   10.3242  -18.9291   20.9750 N   0  0  0  0  0  0  0  0  0  0  0  0
   10.7408  -16.6698   21.4504 C   0  0  0  0  0  0  0  0  0  0  0  0
   11.3613  -15.5762   21.4975 O   0  0  0  0  0  0  0  0  0  0  0  0
    7.4195  -12.9815   18.4015 C   0  0  0  0  0  0  0  0  0  0  0  0
    7.6926  -13.4419   20.1136 S   0  0  0  0  0  0  0  0  0  0  0  0
    7.2211  -15.1868   20.4086 C   0  0  0  0  0  0  0  0  0  0  0  0
    7.3601  -15.4551   21.8768 C   0  0  0  0  0  0  0  0  0  0  0  0
    8.7602  -15.4098   22.3977 C   0  0  2  0  0  0  0  0  0  0  0  0
    9.4009  -16.6494   21.9359 N   0  0  0  0  0  0  0  0  0  0  0  0
    8.8414  -15.3950   23.8900 C   0  0  0  0  0  0  0  0  0  0  0  0
    9.5256  -16.2679   24.4765 O   0  0  0  0  0  0  0  0  0  0  0  0
    5.5450  -11.9582   27.2310 C   0  0  0  0  0  0  0  0  0  0  0  0
    6.1962  -13.0652   26.4861 C   0  0  0  0  0  0  0  0  0  0  0  0
    7.6432  -13.2675   26.6659 C   0  0  2  0  0  0  0  0  0  0  0  0
    8.5066  -12.0574   26.4109 C   0  0  0  0  0  0  0  0  0  0  0  0
    8.2186  -14.5139   26.1241 C   0  0  2  0  0  0  0  0  0  0  0  0
    8.1683  -14.4249   24.6506 N   0  0  0  0  0  0  0  0  0  0  0  0
    7.6365  -15.7846   26.5499 C   0  0  0  0  0  0  0  0  0  0  0  0
    7.9905  -16.3910   27.7600 O   0  0  0  0  0  0  0  0  0  0  0  0
    6.7917  -16.3974   25.8565 O   0  0  0  0  0  0  0  0  0  0  0  0
  2  3  2  0
  2  1  1  0
  4  2  1  0
  5  4  1  0
  6  5  1  0
  6  7  1  6
  8  9  2  0
  8  6  1  0
 10 11  1  0
 11 12  1  0
 13 12  1  0
 14 13  1  1
 14 15  1  0
 15  8  1  0
 16 14  1  0
 16 17  2  0
 19 20  1  0
 19 18  1  0
 20 21  1  6
 20 22  1  0
 22 23  1  6
 22 24  1  0
 23 16  1  0
 24 25  1  0
 26 24  2  0
M  END
$$$$
