QMI.pdb
     RDKit          3D

 26 25  0  0  1  0  0  0  0  0999 V2000
   10.6799  -20.5826   17.8302 N   0  0  0  0  0  0  0  0  0  0  0  0
    9.6434  -21.1591   18.6473 C   0  0  0  0  0  0  0  0  0  0  0  0
    9.0004  -22.0885   18.1345 O   0  0  0  0  0  0  0  0  0  0  0  0
    9.3951  -20.6479   19.9885 C   0  0  0  0  0  0  0  0  0  0  0  0
   10.1903  -19.4346   20.3342 C   0  0  0  0  0  0  0  0  0  0  0  0
    9.9056  -18.9632   21.7094 C   0  0  2  0  0  0  0  0  0  0  0  0
    8.5513  -19.0875   22.1612 N   0  0  0  0  0  0  0  0  0  0  0  0
   10.2765  -17.5195   21.8983 C   0  0  0  0  0  0  0  0  0  0  0  0
   11.4572  -17.0975   21.7938 O   0  0  0  0  0  0  0  0  0  0  0  0
    7.0106  -12.0989   20.1939 C   0  0  0  0  0  0  0  0  0  0  0  0
    6.5050  -13.8177   20.1047 S   0  0  0  0  0  0  0  0  0  0  0  0
    7.8638  -14.9306   20.6236 C   0  0  0  0  0  0  0  0  0  0  0  0
    8.4910  -14.3431   21.8517 C   0  0  0  0  0  0  0  0  0  0  0  0
    9.6327  -15.1264   22.4145 C   0  0  2  0  0  0  0  0  0  0  0  0
    9.2886  -16.5407   22.2109 N   0  0  0  0  0  0  0  0  0  0  0  0
    9.8304  -14.9222   23.8819 C   0  0  0  0  0  0  0  0  0  0  0  0
   10.9052  -14.4224   24.2930 O   0  0  0  0  0  0  0  0  0  0  0  0
    6.2849  -12.3040   26.1388 C   0  0  0  0  0  0  0  0  0  0  0  0
    7.4834  -13.0947   25.7610 C   0  0  0  0  0  0  0  0  0  0  0  0
    7.9640  -14.1206   26.7010 C   0  0  2  0  0  0  0  0  0  0  0  0
    8.1227  -13.6700   28.1315 C   0  0  0  0  0  0  0  0  0  0  0  0
    9.0663  -14.9877   26.2414 C   0  0  2  0  0  0  0  0  0  0  0  0
    8.8390  -15.2778   24.8110 N   0  0  0  0  0  0  0  0  0  0  0  0
    9.3021  -16.2406   26.9552 C   0  0  0  0  0  0  0  0  0  0  0  0
    9.2373  -17.4812   26.3117 O   0  0  0  0  0  0  0  0  0  0  0  0
    9.5740  -16.2711   28.1779 O   0  0  0  0  0  0  0  0  0  0  0  0
  2  3  2  0
  2  1  1  0
  4  2  1  0
  5  4  1  0
  6  5  1  0
  6  7  1  6
  8  9  2  0
  8  6  1  0
 10 11  1  0
 11 12  1  0
 13 12  1  0
 14 13  1  1
 14 15  1  0
 15  8  1  0
 16 14  1  0
 16 17  2  0
 19 20  1  0
 19 18  1  0
 20 21  1  1
 20 22  1  0
 22 23  1  6
 22 24  1  0
 23 16  1  0
 24 25  1  0
 26 24  2  0
M  END
$$$$
