QMI.pdb
     RDKit          3D

 26 25  0  0  1  0  0  0  0  0999 V2000
    8.2574  -16.2521   16.9393 N   0  0  0  0  0  0  0  0  0  0  0  0
    9.3262  -17.0679   17.4553 C   0  0  0  0  0  0  0  0  0  0  0  0
    9.3139  -18.2607   17.1126 O   0  0  0  0  0  0  0  0  0  0  0  0
   10.3379  -16.4881   18.3282 C   0  0  0  0  0  0  0  0  0  0  0  0
    9.7816  -15.7642   19.5074 C   0  0  0  0  0  0  0  0  0  0  0  0
    9.6912  -16.6401   20.6987 C   0  0  2  0  0  0  0  0  0  0  0  0
    8.5285  -17.4724   20.7946 N   0  0  0  0  0  0  0  0  0  0  0  0
    9.7492  -15.8569   21.9797 C   0  0  0  0  0  0  0  0  0  0  0  0
   10.7403  -15.1546   22.3074 O   0  0  0  0  0  0  0  0  0  0  0  0
    6.0662  -11.2966   25.8742 C   0  0  0  0  0  0  0  0  0  0  0  0
    5.6084  -13.0149   25.6386 S   0  0  0  0  0  0  0  0  0  0  0  0
    7.0654  -14.1122   25.8036 C   0  0  0  0  0  0  0  0  0  0  0  0
    7.2763  -14.7921   24.4845 C   0  0  0  0  0  0  0  0  0  0  0  0
    8.6993  -15.1140   24.1599 C   0  0  2  0  0  0  0  0  0  0  0  0
    8.6626  -15.8731   22.9019 N   0  0  0  0  0  0  0  0  0  0  0  0
    9.3639  -15.9777   25.1828 C   0  0  0  0  0  0  0  0  0  0  0  0
    9.7141  -17.1411   24.8701 O   0  0  0  0  0  0  0  0  0  0  0  0
   10.8706  -13.1395   29.5441 C   0  0  0  0  0  0  0  0  0  0  0  0
   11.0089  -14.0411   28.3726 C   0  0  0  0  0  0  0  0  0  0  0  0
   10.7625  -15.4790   28.5691 C   0  0  2  0  0  0  0  0  0  0  0  0
   11.6662  -16.1648   29.5629 C   0  0  0  0  0  0  0  0  0  0  0  0
   10.5118  -16.2878   27.3603 C   0  0  2  0  0  0  0  0  0  0  0  0
    9.6050  -15.5153   26.4868 N   0  0  0  0  0  0  0  0  0  0  0  0
    9.9806  -17.6382   27.5316 C   0  0  0  0  0  0  0  0  0  0  0  0
   10.8151  -18.7602   27.5769 O   0  0  0  0  0  0  0  0  0  0  0  0
    8.7534  -17.8630   27.6468 O   0  0  0  0  0  0  0  0  0  0  0  0
  2  3  2  0
  2  1  1  0
  4  2  1  0
  5  4  1  0
  6  5  1  0
  6  7  1  6
  8  9  2  0
  8  6  1  0
 10 11  1  0
 11 12  1  0
 13 12  1  0
 14 13  1  1
 14 15  1  0
 15  8  1  0
 16 14  1  0
 16 17  2  0
 19 20  1  0
 19 18  1  0
 20 21  1  6
 20 22  1  0
 22 23  1  6
 22 24  1  0
 23 16  1  0
 24 25  1  0
 26 24  2  0
M  END
$$$$
