QMI.pdb
     RDKit          3D

 26 25  0  0  1  0  0  0  0  0999 V2000
    9.2146  -18.6081   17.4469 N   0  0  0  0  0  0  0  0  0  0  0  0
    9.3750  -17.1802   17.5443 C   0  0  0  0  0  0  0  0  0  0  0  0
   10.3458  -16.6995   16.9388 O   0  0  0  0  0  0  0  0  0  0  0  0
    8.4334  -16.3861   18.3218 C   0  0  0  0  0  0  0  0  0  0  0  0
    9.0569  -15.6333   19.4481 C   0  0  0  0  0  0  0  0  0  0  0  0
    9.2021  -16.4743   20.6589 C   0  0  2  0  0  0  0  0  0  0  0  0
    8.2087  -17.4881   20.8571 N   0  0  0  0  0  0  0  0  0  0  0  0
    9.2154  -15.6531   21.9171 C   0  0  0  0  0  0  0  0  0  0  0  0
    9.9315  -14.6280   22.0570 O   0  0  0  0  0  0  0  0  0  0  0  0
    6.9452  -11.6724   25.7379 C   0  0  0  0  0  0  0  0  0  0  0  0
    5.7630  -13.0179   25.6378 S   0  0  0  0  0  0  0  0  0  0  0  0
    6.1772  -14.1565   24.2645 C   0  0  0  0  0  0  0  0  0  0  0  0
    7.0499  -15.2417   24.8188 C   0  0  0  0  0  0  0  0  0  0  0  0
    8.4504  -15.2547   24.2970 C   0  0  2  0  0  0  0  0  0  0  0  0
    8.4014  -16.0037   23.0333 N   0  0  0  0  0  0  0  0  0  0  0  0
    9.4154  -15.9586   25.1955 C   0  0  0  0  0  0  0  0  0  0  0  0
   10.0368  -16.9599   24.7651 O   0  0  0  0  0  0  0  0  0  0  0  0
   10.5991  -13.1718   29.6323 C   0  0  0  0  0  0  0  0  0  0  0  0
   10.8720  -14.0010   28.4314 C   0  0  0  0  0  0  0  0  0  0  0  0
   10.8328  -15.4656   28.5743 C   0  0  2  0  0  0  0  0  0  0  0  0
   11.8798  -16.0596   29.4830 C   0  0  0  0  0  0  0  0  0  0  0  0
   10.6183  -16.2539   27.3452 C   0  0  2  0  0  0  0  0  0  0  0  0
    9.6418  -15.5236   26.5115 N   0  0  0  0  0  0  0  0  0  0  0  0
   10.1894  -17.6439   27.4831 C   0  0  0  0  0  0  0  0  0  0  0  0
   11.1062  -18.6999   27.5199 O   0  0  0  0  0  0  0  0  0  0  0  0
    8.9813  -17.9635   27.5754 O   0  0  0  0  0  0  0  0  0  0  0  0
  2  3  2  0
  2  1  1  0
  4  2  1  0
  5  4  1  0
  6  5  1  0
  6  7  1  1
  8  9  2  0
  8  6  1  0
 10 11  1  0
 11 12  1  0
 13 12  1  0
 14 13  1  1
 14 15  1  0
 15  8  1  0
 16 14  1  0
 16 17  2  0
 19 20  1  0
 19 18  1  0
 20 21  1  6
 20 22  1  0
 22 23  1  6
 22 24  1  0
 23 16  1  0
 24 25  1  0
 26 24  2  0
M  END
$$$$
