QMI.pdb
     RDKit          3D

 26 25  0  0  1  0  0  0  0  0999 V2000
    9.0170  -12.7038   17.2659 N   0  0  0  0  0  0  0  0  0  0  0  0
    8.1587  -13.8509   17.1185 C   0  0  0  0  0  0  0  0  0  0  0  0
    8.0498  -14.3044   15.9684 O   0  0  0  0  0  0  0  0  0  0  0  0
    7.4746  -14.4107   18.2762 C   0  0  0  0  0  0  0  0  0  0  0  0
    7.8796  -13.8014   19.5757 C   0  0  0  0  0  0  0  0  0  0  0  0
    8.5823  -14.7741   20.4445 C   0  0  2  0  0  0  0  0  0  0  0  0
    8.0233  -16.0919   20.5129 N   0  0  0  0  0  0  0  0  0  0  0  0
    8.6843  -14.2911   21.8636 C   0  0  0  0  0  0  0  0  0  0  0  0
    9.1766  -13.1752   22.1724 O   0  0  0  0  0  0  0  0  0  0  0  0
    5.8589  -12.4139   27.0460 C   0  0  0  0  0  0  0  0  0  0  0  0
    6.2280  -12.0682   25.3249 S   0  0  0  0  0  0  0  0  0  0  0  0
    5.9691  -13.5537   24.2856 C   0  0  0  0  0  0  0  0  0  0  0  0
    6.8461  -14.6445   24.8221 C   0  0  0  0  0  0  0  0  0  0  0  0
    8.2598  -14.6143   24.3381 C   0  0  2  0  0  0  0  0  0  0  0  0
    8.2188  -15.0903   22.9482 N   0  0  0  0  0  0  0  0  0  0  0  0
    9.1693  -15.5271   25.0955 C   0  0  0  0  0  0  0  0  0  0  0  0
    9.8397  -16.3835   24.4700 O   0  0  0  0  0  0  0  0  0  0  0  0
   10.7363  -13.3072   29.6007 C   0  0  0  0  0  0  0  0  0  0  0  0
   10.8736  -14.0926   28.3482 C   0  0  0  0  0  0  0  0  0  0  0  0
   10.6886  -15.5513   28.4186 C   0  0  2  0  0  0  0  0  0  0  0  0
   11.7086  -16.2982   29.2411 C   0  0  0  0  0  0  0  0  0  0  0  0
   10.3369  -16.2441   27.1638 C   0  0  2  0  0  0  0  0  0  0  0  0
    9.2901  -15.4471   26.4924 N   0  0  0  0  0  0  0  0  0  0  0  0
    9.9046  -17.6376   27.2428 C   0  0  0  0  0  0  0  0  0  0  0  0
   10.7919  -18.6994   27.0363 O   0  0  0  0  0  0  0  0  0  0  0  0
    8.7200  -17.9554   27.4990 O   0  0  0  0  0  0  0  0  0  0  0  0
  2  3  2  0
  2  1  1  0
  4  2  1  0
  5  4  1  0
  6  5  1  0
  6  7  1  1
  8  9  2  0
  8  6  1  0
 10 11  1  0
 11 12  1  0
 13 12  1  0
 14 13  1  1
 14 15  1  0
 15  8  1  0
 16 14  1  0
 16 17  2  0
 19 20  1  0
 19 18  1  0
 20 21  1  6
 20 22  1  0
 22 23  1  1
 22 24  1  0
 23 16  1  0
 24 25  1  0
 26 24  2  0
M  END
$$$$
