QMI.pdb
     RDKit          3D

 26 25  0  0  1  0  0  0  0  0999 V2000
   10.6435  -15.5986   16.8521 N   0  0  0  0  0  0  0  0  0  0  0  0
    9.7827  -16.7227   17.1163 C   0  0  0  0  0  0  0  0  0  0  0  0
    9.1500  -17.1634   16.1439 O   0  0  0  0  0  0  0  0  0  0  0  0
    9.6869  -17.2751   18.4607 C   0  0  0  0  0  0  0  0  0  0  0  0
   10.4964  -16.5444   19.4779 C   0  0  0  0  0  0  0  0  0  0  0  0
   10.4271  -17.1946   20.8072 C   0  0  2  0  0  0  0  0  0  0  0  0
    9.4150  -18.1947   20.9787 N   0  0  0  0  0  0  0  0  0  0  0  0
   10.2187  -16.1978   21.9119 C   0  0  0  0  0  0  0  0  0  0  0  0
   10.9203  -15.1611   22.0388 O   0  0  0  0  0  0  0  0  0  0  0  0
    6.4836  -12.2796   25.8207 C   0  0  0  0  0  0  0  0  0  0  0  0
    5.7104  -13.5384   24.8031 S   0  0  0  0  0  0  0  0  0  0  0  0
    6.9148  -14.2692   23.6329 C   0  0  0  0  0  0  0  0  0  0  0  0
    7.6083  -15.3965   24.3364 C   0  0  0  0  0  0  0  0  0  0  0  0
    9.0731  -15.5073   24.0611 C   0  0  2  0  0  0  0  0  0  0  0  0
    9.1962  -16.3835   22.8874 N   0  0  0  0  0  0  0  0  0  0  0  0
    9.8431  -16.1419   25.1740 C   0  0  0  0  0  0  0  0  0  0  0  0
   10.4955  -17.1898   24.9498 O   0  0  0  0  0  0  0  0  0  0  0  0
   10.5797  -12.7859   29.0944 C   0  0  0  0  0  0  0  0  0  0  0  0
   11.1164  -13.8647   28.2270 C   0  0  0  0  0  0  0  0  0  0  0  0
   10.8454  -15.2611   28.6062 C   0  0  2  0  0  0  0  0  0  0  0  0
   11.6690  -15.7968   29.7504 C   0  0  0  0  0  0  0  0  0  0  0  0
   10.6771  -16.2335   27.5087 C   0  0  2  0  0  0  0  0  0  0  0  0
    9.8522  -15.5906   26.4656 N   0  0  0  0  0  0  0  0  0  0  0  0
   10.1146  -17.5436   27.8280 C   0  0  0  0  0  0  0  0  0  0  0  0
    8.7415  -17.7985   27.7447 O   0  0  0  0  0  0  0  0  0  0  0  0
   10.8295  -18.5061   28.1923 O   0  0  0  0  0  0  0  0  0  0  0  0
  2  3  2  0
  2  1  1  0
  4  2  1  0
  5  4  1  0
  6  5  1  0
  6  7  1  6
  8  9  2  0
  8  6  1  0
 10 11  1  0
 11 12  1  0
 13 12  1  0
 14 13  1  1
 14 15  1  0
 15  8  1  0
 16 14  1  0
 16 17  2  0
 19 20  1  0
 19 18  1  0
 20 21  1  1
 20 22  1  0
 22 23  1  6
 22 24  1  0
 23 16  1  0
 24 25  1  0
 26 24  2  0
M  END
$$$$
