QMI.pdb
     RDKit          3D

 26 25  0  0  1  0  0  0  0  0999 V2000
    7.4361  -12.6045   17.7624 N   0  0  0  0  0  0  0  0  0  0  0  0
    7.9928  -13.8193   17.2253 C   0  0  0  0  0  0  0  0  0  0  0  0
    8.1198  -13.8602   15.9915 O   0  0  0  0  0  0  0  0  0  0  0  0
    8.3666  -14.9119   18.1131 C   0  0  0  0  0  0  0  0  0  0  0  0
    8.1195  -14.6342   19.5573 C   0  0  0  0  0  0  0  0  0  0  0  0
    8.8151  -15.6068   20.4318 C   0  0  2  0  0  0  0  0  0  0  0  0
    8.1546  -16.8602   20.6476 N   0  0  0  0  0  0  0  0  0  0  0  0
    9.0907  -15.0413   21.7963 C   0  0  0  0  0  0  0  0  0  0  0  0
    9.8552  -14.0606   21.9883 O   0  0  0  0  0  0  0  0  0  0  0  0
    7.0439  -12.1090   26.7126 C   0  0  0  0  0  0  0  0  0  0  0  0
    5.7434  -12.6804   25.6171 S   0  0  0  0  0  0  0  0  0  0  0  0
    6.4377  -13.6161   24.2041 C   0  0  0  0  0  0  0  0  0  0  0  0
    7.1751  -14.7979   24.7575 C   0  0  0  0  0  0  0  0  0  0  0  0
    8.5813  -14.9483   24.2741 C   0  0  2  0  0  0  0  0  0  0  0  0
    8.4870  -15.6001   22.9602 N   0  0  0  0  0  0  0  0  0  0  0  0
    9.4219  -15.8234   25.1468 C   0  0  0  0  0  0  0  0  0  0  0  0
    9.9468  -16.8536   24.6598 O   0  0  0  0  0  0  0  0  0  0  0  0
   10.5409  -13.5450   29.8643 C   0  0  0  0  0  0  0  0  0  0  0  0
   10.8781  -14.2747   28.6161 C   0  0  0  0  0  0  0  0  0  0  0  0
   10.7309  -15.7394   28.6057 C   0  0  2  0  0  0  0  0  0  0  0  0
   11.6814  -16.4959   29.4994 C   0  0  0  0  0  0  0  0  0  0  0  0
   10.5331  -16.3843   27.2930 C   0  0  2  0  0  0  0  0  0  0  0  0
    9.6370  -15.5177   26.5006 N   0  0  0  0  0  0  0  0  0  0  0  0
   10.0253  -17.7540   27.2667 C   0  0  0  0  0  0  0  0  0  0  0  0
   10.8822  -18.8599   27.2637 O   0  0  0  0  0  0  0  0  0  0  0  0
    8.7991  -18.0109   27.2456 O   0  0  0  0  0  0  0  0  0  0  0  0
  2  3  2  0
  2  1  1  0
  4  2  1  0
  5  4  1  0
  6  5  1  0
  6  7  1  1
  8  9  2  0
  8  6  1  0
 10 11  1  0
 11 12  1  0
 13 12  1  0
 14 13  1  1
 14 15  1  0
 15  8  1  0
 16 14  1  0
 16 17  2  0
 19 20  1  0
 19 18  1  0
 20 21  1  6
 20 22  1  0
 22 23  1  6
 22 24  1  0
 23 16  1  0
 24 25  1  0
 26 24  2  0
M  END
$$$$
