QMI.pdb
     RDKit          3D

 26 25  0  0  1  0  0  0  0  0999 V2000
   11.0094  -20.9248   20.7335 N   0  0  0  0  0  0  0  0  0  0  0  0
   11.6672  -20.1320   19.7271 C   0  0  0  0  0  0  0  0  0  0  0  0
   12.1835  -20.7615   18.7904 O   0  0  0  0  0  0  0  0  0  0  0  0
   11.7049  -18.6805   19.8433 C   0  0  0  0  0  0  0  0  0  0  0  0
   10.9530  -18.1441   21.0142 C   0  0  0  0  0  0  0  0  0  0  0  0
   10.3086  -16.8460   20.7069 C   0  0  2  0  0  0  0  0  0  0  0  0
   11.0121  -15.9788   19.8088 N   0  0  0  0  0  0  0  0  0  0  0  0
   10.0485  -16.0385   21.9470 C   0  0  0  0  0  0  0  0  0  0  0  0
   10.8056  -15.1090   22.3290 O   0  0  0  0  0  0  0  0  0  0  0  0
    6.4705  -12.2656   26.8022 C   0  0  0  0  0  0  0  0  0  0  0  0
    7.0555  -13.1079   25.3304 S   0  0  0  0  0  0  0  0  0  0  0  0
    6.6062  -14.8829   25.3661 C   0  0  0  0  0  0  0  0  0  0  0  0
    7.1261  -15.5107   24.1082 C   0  0  0  0  0  0  0  0  0  0  0  0
    8.6129  -15.4857   23.9573 C   0  0  2  0  0  0  0  0  0  0  0  0
    8.9093  -16.2925   22.7651 N   0  0  0  0  0  0  0  0  0  0  0  0
    9.3398  -16.1050   25.1070 C   0  0  0  0  0  0  0  0  0  0  0  0
    9.5467  -17.3424   25.1078 O   0  0  0  0  0  0  0  0  0  0  0  0
   10.5587  -12.6962   29.3050 C   0  0  0  0  0  0  0  0  0  0  0  0
   10.6883  -13.6608   28.1838 C   0  0  0  0  0  0  0  0  0  0  0  0
   10.4556  -15.0872   28.4634 C   0  0  2  0  0  0  0  0  0  0  0  0
   11.1671  -15.6382   29.6737 C   0  0  0  0  0  0  0  0  0  0  0  0
   10.4755  -16.0086   27.3107 C   0  0  2  0  0  0  0  0  0  0  0  0
    9.7966  -15.3319   26.1869 N   0  0  0  0  0  0  0  0  0  0  0  0
    9.9061  -17.3429   27.4841 C   0  0  0  0  0  0  0  0  0  0  0  0
    8.5272  -17.5716   27.4232 O   0  0  0  0  0  0  0  0  0  0  0  0
   10.6198  -18.3508   27.6960 O   0  0  0  0  0  0  0  0  0  0  0  0
  2  3  2  0
  2  1  1  0
  4  2  1  0
  5  4  1  0
  6  5  1  0
  6  7  1  6
  8  9  2  0
  8  6  1  0
 10 11  1  0
 11 12  1  0
 13 12  1  0
 14 13  1  1
 14 15  1  0
 15  8  1  0
 16 14  1  0
 16 17  2  0
 19 20  1  0
 19 18  1  0
 20 21  1  1
 20 22  1  0
 22 23  1  6
 22 24  1  0
 23 16  1  0
 24 25  1  0
 26 24  2  0
M  END
$$$$
