QMI.pdb
     RDKit          3D

 26 25  0  0  1  0  0  0  0  0999 V2000
    7.1556  -18.9854   17.3378 N   0  0  0  0  0  0  0  0  0  0  0  0
    8.1607  -18.0272   17.7198 C   0  0  0  0  0  0  0  0  0  0  0  0
    8.9300  -17.6576   16.8187 O   0  0  0  0  0  0  0  0  0  0  0  0
    8.2371  -17.5503   19.0940 C   0  0  0  0  0  0  0  0  0  0  0  0
    9.4920  -17.9341   19.8024 C   0  0  0  0  0  0  0  0  0  0  0  0
    9.2898  -18.0316   21.2667 C   0  0  2  0  0  0  0  0  0  0  0  0
    7.9989  -18.4717   21.7068 N   0  0  0  0  0  0  0  0  0  0  0  0
    9.5413  -16.7220   21.9587 C   0  0  0  0  0  0  0  0  0  0  0  0
   10.5848  -16.0425   21.7780 O   0  0  0  0  0  0  0  0  0  0  0  0
    6.0906  -11.6206   26.9496 C   0  0  0  0  0  0  0  0  0  0  0  0
    6.1681  -13.1705   26.0498 S   0  0  0  0  0  0  0  0  0  0  0  0
    7.5427  -13.1603   24.8397 C   0  0  0  0  0  0  0  0  0  0  0  0
    7.5236  -14.4729   24.1163 C   0  0  0  0  0  0  0  0  0  0  0  0
    8.8538  -14.9409   23.6209 C   0  0  2  0  0  0  0  0  0  0  0  0
    8.5909  -16.1770   22.8705 N   0  0  0  0  0  0  0  0  0  0  0  0
    9.8129  -15.2794   24.7161 C   0  0  0  0  0  0  0  0  0  0  0  0
   10.9587  -14.7686   24.7085 O   0  0  0  0  0  0  0  0  0  0  0  0
    9.5436  -13.3889   29.0261 C   0  0  0  0  0  0  0  0  0  0  0  0
   10.0054  -14.1927   27.8664 C   0  0  0  0  0  0  0  0  0  0  0  0
   10.0472  -15.6573   28.0081 C   0  0  2  0  0  0  0  0  0  0  0  0
   10.6651  -16.1708   29.2845 C   0  0  0  0  0  0  0  0  0  0  0  0
   10.4449  -16.4352   26.8185 C   0  0  2  0  0  0  0  0  0  0  0  0
    9.4595  -16.1572   25.7539 N   0  0  0  0  0  0  0  0  0  0  0  0
   10.6049  -17.8805   26.9611 C   0  0  0  0  0  0  0  0  0  0  0  0
   11.7658  -18.4459   27.4995 O   0  0  0  0  0  0  0  0  0  0  0  0
    9.7139  -18.6884   26.6100 O   0  0  0  0  0  0  0  0  0  0  0  0
  2  3  2  0
  2  1  1  0
  4  2  1  0
  5  4  1  0
  6  5  1  0
  6  7  1  6
  8  9  2  0
  8  6  1  0
 10 11  1  0
 11 12  1  0
 13 12  1  0
 14 13  1  1
 14 15  1  0
 15  8  1  0
 16 14  1  0
 16 17  2  0
 19 20  1  0
 19 18  1  0
 20 21  1  1
 20 22  1  0
 22 23  1  6
 22 24  1  0
 23 16  1  0
 24 25  1  0
 26 24  2  0
M  END
$$$$
