GNM.pdb
     RDKit          3D

 21 20  0  0  1  0  0  0  0  0999 V2000
   16.8722  -14.4076  -16.4695 N   0  0  0  0  0  0  0  0  0  0  0  0
   17.3197  -13.4846  -15.4704 C   0  0  0  0  0  0  0  0  0  0  0  0
   18.0674  -12.3500  -16.0889 C   0  0  0  0  0  0  0  0  0  0  0  0
   18.9939  -12.5576  -16.9156 O   0  0  0  0  0  0  0  0  0  0  0  0
   16.7079   -6.4294  -16.4288 N   0  0  0  0  0  0  0  0  0  0  0  0
   17.7766   -7.4039  -16.6544 C   0  0  0  0  0  0  0  0  0  0  0  0
   18.7856   -6.9107  -17.1575 O   0  0  0  0  0  0  0  0  0  0  0  0
   17.4557   -8.7490  -16.2504 C   0  0  0  0  0  0  0  0  0  0  0  0
   18.4285   -9.8568  -16.4356 C   0  0  2  0  0  0  0  0  0  0  0  0
   17.7486  -11.0125  -15.7571 N   0  0  0  0  0  0  0  0  0  0  0  0
   19.7227   -9.6950  -15.7391 C   0  0  0  0  0  0  0  0  0  0  0  0
   19.7756   -9.7789  -14.4488 O   0  0  0  0  0  0  0  0  0  0  0  0
   27.4435  -10.8330  -15.0617 C   0  0  0  0  0  0  0  0  0  0  0  0
   25.9577  -10.9678  -16.1278 S   0  0  0  0  0  0  0  0  0  0  0  0
   24.6000  -10.0573  -15.3661 C   0  0  0  0  0  0  0  0  0  0  0  0
   23.3012  -10.1579  -16.0860 C   0  0  0  0  0  0  0  0  0  0  0  0
   22.1892   -9.3259  -15.5395 C   0  0  2  0  0  0  0  0  0  0  0  0
   20.9771   -9.4515  -16.3515 N   0  0  0  0  0  0  0  0  0  0  0  0
   22.5279   -7.8854  -15.5239 C   0  0  0  0  0  0  0  0  0  0  0  0
   22.9190   -7.2264  -14.3455 O   0  0  0  0  0  0  0  0  0  0  0  0
   22.4849   -7.1632  -16.5615 O   0  0  0  0  0  0  0  0  0  0  0  0
  1  2  1  0
  2  3  1  0
  3  4  2  0
  5  6  1  0
  6  8  1  0
  7  6  2  0
  9  8  1  1
  9 11  1  0
 10  3  1  0
 10  9  1  0
 11 12  2  0
 13 14  1  0
 14 15  1  0
 15 16  1  0
 17 16  1  6
 17 19  1  0
 18 11  1  0
 18 17  1  0
 19 21  2  0
 19 20  1  0
M  END
$$$$
