GNM.pdb
     RDKit          3D

 21 20  0  0  1  0  0  0  0  0999 V2000
   17.7169  -10.6236  -16.5561 N   0  0  0  0  0  0  0  0  0  0  0  0
   18.9527   -9.9215  -16.7295 C   0  0  0  0  0  0  0  0  0  0  0  0
   18.9624   -8.6551  -15.9388 C   0  0  0  0  0  0  0  0  0  0  0  0
   17.9269   -8.2520  -15.3469 O   0  0  0  0  0  0  0  0  0  0  0  0
   21.1201   -4.2073  -13.8756 N   0  0  0  0  0  0  0  0  0  0  0  0
   21.9734   -5.3914  -13.7654 C   0  0  0  0  0  0  0  0  0  0  0  0
   22.9480   -5.2217  -13.0334 O   0  0  0  0  0  0  0  0  0  0  0  0
   21.5215   -6.5283  -14.5263 C   0  0  0  0  0  0  0  0  0  0  0  0
   20.1517   -6.5696  -15.1006 C   0  0  2  0  0  0  0  0  0  0  0  0
   20.1405   -7.8789  -15.8381 N   0  0  0  0  0  0  0  0  0  0  0  0
   19.8533   -5.5397  -16.1186 C   0  0  0  0  0  0  0  0  0  0  0  0
   20.4200   -5.5981  -17.2806 O   0  0  0  0  0  0  0  0  0  0  0  0
   14.9692   -0.9291  -20.0852 C   0  0  0  0  0  0  0  0  0  0  0  0
   15.2166   -2.2404  -18.8275 S   0  0  0  0  0  0  0  0  0  0  0  0
   16.9742   -2.3657  -18.4430 C   0  0  0  0  0  0  0  0  0  0  0  0
   17.3201   -3.4130  -17.4438 C   0  0  0  0  0  0  0  0  0  0  0  0
   18.7604   -3.4961  -17.0617 C   0  0  2  0  0  0  0  0  0  0  0  0
   18.9699   -4.4426  -15.9642 N   0  0  0  0  0  0  0  0  0  0  0  0
   19.2873   -2.1957  -16.5912 C   0  0  0  0  0  0  0  0  0  0  0  0
   19.5056   -1.1204  -17.4697 O   0  0  0  0  0  0  0  0  0  0  0  0
   19.5732   -1.9737  -15.3792 O   0  0  0  0  0  0  0  0  0  0  0  0
  1  2  1  0
  2  3  1  0
  3  4  2  0
  5  6  1  0
  6  8  1  0
  7  6  2  0
  9  8  1  6
  9 11  1  0
 10  3  1  0
 10  9  1  0
 11 12  2  0
 13 14  1  0
 14 15  1  0
 15 16  1  0
 17 16  1  1
 17 19  1  0
 18 11  1  0
 18 17  1  0
 19 21  2  0
 19 20  1  0
M  END
$$$$
