GNM.pdb
     RDKit          3D

 21 20  0  0  1  0  0  0  0  0999 V2000
   28.9159  -21.8075  -15.0488 N   0  0  0  0  0  0  0  0  0  0  0  0
   27.4960  -21.6887  -15.1902 C   0  0  0  0  0  0  0  0  0  0  0  0
   26.9147  -20.8811  -14.0772 C   0  0  0  0  0  0  0  0  0  0  0  0
   27.4196  -19.7768  -13.7446 O   0  0  0  0  0  0  0  0  0  0  0  0
   22.1752  -20.5410  -10.7816 N   0  0  0  0  0  0  0  0  0  0  0  0
   22.5542  -20.0025  -12.0889 C   0  0  0  0  0  0  0  0  0  0  0  0
   21.8960  -19.0160  -12.4174 O   0  0  0  0  0  0  0  0  0  0  0  0
   23.6179  -20.7183  -12.7459 C   0  0  0  0  0  0  0  0  0  0  0  0
   25.0410  -20.4505  -12.4127 C   0  0  2  0  0  0  0  0  0  0  0  0
   25.7796  -21.3424  -13.3704 N   0  0  0  0  0  0  0  0  0  0  0  0
   25.4732  -20.8746  -11.0638 C   0  0  0  0  0  0  0  0  0  0  0  0
   25.6001  -22.1338  -10.7934 O   0  0  0  0  0  0  0  0  0  0  0  0
   28.9047  -19.5432   -4.0252 C   0  0  0  0  0  0  0  0  0  0  0  0
   28.4596  -18.8412   -5.6597 S   0  0  0  0  0  0  0  0  0  0  0  0
   27.4337  -20.0262   -6.5516 C   0  0  0  0  0  0  0  0  0  0  0  0
   27.0254  -19.5938   -7.9160 C   0  0  0  0  0  0  0  0  0  0  0  0
   26.2108  -20.5746   -8.6919 C   0  0  2  0  0  0  0  0  0  0  0  0
   25.7857  -20.0190   -9.9784 N   0  0  0  0  0  0  0  0  0  0  0  0
   24.9723  -20.9573   -7.9783 C   0  0  0  0  0  0  0  0  0  0  0  0
   23.7033  -20.5385   -8.4143 O   0  0  0  0  0  0  0  0  0  0  0  0
   24.9789  -21.6780   -6.9387 O   0  0  0  0  0  0  0  0  0  0  0  0
  1  2  1  0
  2  3  1  0
  3  4  2  0
  5  6  1  0
  6  8  1  0
  7  6  2  0
  9  8  1  1
  9 11  1  0
 10  3  1  0
 10  9  1  0
 11 12  2  0
 13 14  1  0
 14 15  1  0
 15 16  1  0
 17 16  1  1
 17 19  1  0
 18 11  1  0
 18 17  1  0
 19 21  2  0
 19 20  1  0
M  END
$$$$
