GNM.pdb
     RDKit          3D

 21 20  0  0  1  0  0  0  0  0999 V2000
   12.3635  -16.9959    2.3201 N   0  0  0  0  0  0  0  0  0  0  0  0
   13.5005  -17.7219    1.8400 C   0  0  0  0  0  0  0  0  0  0  0  0
   14.2847  -18.2955    2.9736 C   0  0  0  0  0  0  0  0  0  0  0  0
   13.9333  -18.1050    4.1675 O   0  0  0  0  0  0  0  0  0  0  0  0
   14.9394  -22.0605    4.3602 N   0  0  0  0  0  0  0  0  0  0  0  0
   16.1369  -22.1491    3.5231 C   0  0  0  0  0  0  0  0  0  0  0  0
   16.3896  -23.2963    3.1564 O   0  0  0  0  0  0  0  0  0  0  0  0
   16.7947  -20.8899    3.2836 C   0  0  0  0  0  0  0  0  0  0  0  0
   16.2628  -19.6268    3.8575 C   0  0  2  0  0  0  0  0  0  0  0  0
   15.4438  -19.0682    2.7282 N   0  0  0  0  0  0  0  0  0  0  0  0
   17.2706  -18.5898    4.1659 C   0  0  0  0  0  0  0  0  0  0  0  0
   17.9560  -18.0518    3.2091 O   0  0  0  0  0  0  0  0  0  0  0  0
   19.0948  -11.5236    5.3030 C   0  0  0  0  0  0  0  0  0  0  0  0
   17.8796  -12.8891    5.1583 S   0  0  0  0  0  0  0  0  0  0  0  0
   18.7004  -14.4516    5.5286 C   0  0  0  0  0  0  0  0  0  0  0  0
   17.8555  -15.6610    5.3323 C   0  0  0  0  0  0  0  0  0  0  0  0
   18.5198  -16.9692    5.6058 C   0  0  2  0  0  0  0  0  0  0  0  0
   17.5860  -18.0867    5.4525 N   0  0  0  0  0  0  0  0  0  0  0  0
   19.0381  -17.0515    6.9894 C   0  0  0  0  0  0  0  0  0  0  0  0
   20.2484  -16.4447    7.3672 O   0  0  0  0  0  0  0  0  0  0  0  0
   18.4299  -17.6699    7.9102 O   0  0  0  0  0  0  0  0  0  0  0  0
  1  2  1  0
  2  3  1  0
  3  4  2  0
  5  6  1  0
  6  8  1  0
  7  6  2  0
  9  8  1  6
  9 11  1  0
 10  3  1  0
 10  9  1  0
 11 12  2  0
 13 14  1  0
 14 15  1  0
 15 16  1  0
 17 16  1  1
 17 19  1  0
 18 11  1  0
 18 17  1  0
 19 21  2  0
 19 20  1  0
M  END
$$$$
