GNM.pdb
     RDKit          3D

 21 20  0  0  1  0  0  0  0  0999 V2000
   18.4238  -14.0828  -17.5302 N   0  0  0  0  0  0  0  0  0  0  0  0
   18.8828  -12.8455  -18.0858 C   0  0  0  0  0  0  0  0  0  0  0  0
   19.5622  -12.0143  -17.0483 C   0  0  0  0  0  0  0  0  0  0  0  0
   19.7836  -12.4691  -15.8953 O   0  0  0  0  0  0  0  0  0  0  0  0
   23.1706  -10.7514  -17.0229 N   0  0  0  0  0  0  0  0  0  0  0  0
   22.8234   -9.4088  -17.4915 C   0  0  0  0  0  0  0  0  0  0  0  0
   23.7152   -8.8798  -18.1543 O   0  0  0  0  0  0  0  0  0  0  0  0
   21.5144   -8.9561  -17.0954 C   0  0  0  0  0  0  0  0  0  0  0  0
   20.6135   -9.8250  -16.2945 C   0  0  2  0  0  0  0  0  0  0  0  0
   19.9730  -10.6928  -17.3408 N   0  0  0  0  0  0  0  0  0  0  0  0
   19.4964   -9.1348  -15.6150 C   0  0  0  0  0  0  0  0  0  0  0  0
   18.4368   -8.8101  -16.2833 O   0  0  0  0  0  0  0  0  0  0  0  0
   14.7410   -8.3218   -9.4571 C   0  0  0  0  0  0  0  0  0  0  0  0
   16.1403   -9.2014  -10.2513 S   0  0  0  0  0  0  0  0  0  0  0  0
   16.6445   -8.2969  -11.7278 C   0  0  0  0  0  0  0  0  0  0  0  0
   17.7305   -8.9433  -12.5138 C   0  0  0  0  0  0  0  0  0  0  0  0
   18.2395   -8.1650  -13.6811 C   0  0  2  0  0  0  0  0  0  0  0  0
   19.4459   -8.7734  -14.2458 N   0  0  0  0  0  0  0  0  0  0  0  0
   18.6105   -6.7818  -13.3086 C   0  0  0  0  0  0  0  0  0  0  0  0
   17.6427   -5.7890  -13.0777 O   0  0  0  0  0  0  0  0  0  0  0  0
   19.8124   -6.4096  -13.1776 O   0  0  0  0  0  0  0  0  0  0  0  0
  1  2  1  0
  2  3  1  0
  3  4  2  0
  5  6  1  0
  6  8  1  0
  7  6  2  0
  9  8  1  6
  9 11  1  0
 10  3  1  0
 10  9  1  0
 11 12  2  0
 13 14  1  0
 14 15  1  0
 15 16  1  0
 17 16  1  1
 17 19  1  0
 18 11  1  0
 18 17  1  0
 19 21  2  0
 19 20  1  0
M  END
$$$$
