GNM.pdb
     RDKit          3D

 21 20  0  0  1  0  0  0  0  0999 V2000
   28.1810  -24.4229  -17.3496 N   0  0  0  0  0  0  0  0  0  0  0  0
   27.0250  -24.0888  -16.5735 C   0  0  0  0  0  0  0  0  0  0  0  0
   27.2754  -22.8770  -15.7381 C   0  0  0  0  0  0  0  0  0  0  0  0
   28.4476  -22.4869  -15.4959 O   0  0  0  0  0  0  0  0  0  0  0  0
   26.9873  -17.8382  -14.4726 N   0  0  0  0  0  0  0  0  0  0  0  0
   25.6927  -18.4910  -14.6738 C   0  0  0  0  0  0  0  0  0  0  0  0
   24.7361  -17.7718  -14.3873 O   0  0  0  0  0  0  0  0  0  0  0  0
   25.7736  -19.8428  -15.1655 C   0  0  0  0  0  0  0  0  0  0  0  0
   26.4288  -20.9104  -14.3662 C   0  0  2  0  0  0  0  0  0  0  0  0
   26.1956  -22.1391  -15.1993 N   0  0  0  0  0  0  0  0  0  0  0  0
   25.8102  -21.1986  -13.0545 C   0  0  0  0  0  0  0  0  0  0  0  0
   24.7603  -21.9523  -12.9883 O   0  0  0  0  0  0  0  0  0  0  0  0
   27.6137  -18.9197   -7.0757 C   0  0  0  0  0  0  0  0  0  0  0  0
   26.5105  -20.3068   -6.6054 S   0  0  0  0  0  0  0  0  0  0  0  0
   25.5825  -20.8412   -8.0565 C   0  0  0  0  0  0  0  0  0  0  0  0
   26.2740  -20.6178   -9.3553 C   0  0  0  0  0  0  0  0  0  0  0  0
   25.5374  -21.0735  -10.5706 C   0  0  2  0  0  0  0  0  0  0  0  0
   26.2590  -20.7257  -11.7964 N   0  0  0  0  0  0  0  0  0  0  0  0
   24.2043  -20.4410  -10.6831 C   0  0  0  0  0  0  0  0  0  0  0  0
   23.0792  -20.9542  -10.0149 O   0  0  0  0  0  0  0  0  0  0  0  0
   23.9960  -19.4084  -11.3834 O   0  0  0  0  0  0  0  0  0  0  0  0
  1  2  1  0
  2  3  1  0
  3  4  2  0
  5  6  1  0
  6  8  1  0
  7  6  2  0
  9  8  1  6
  9 11  1  0
 10  3  1  0
 10  9  1  0
 11 12  2  0
 13 14  1  0
 14 15  1  0
 15 16  1  0
 17 16  1  1
 17 19  1  0
 18 11  1  0
 18 17  1  0
 19 21  2  0
 19 20  1  0
M  END
$$$$
