GNM.pdb
     RDKit          3D

 21 20  0  0  1  0  0  0  0  0999 V2000
   17.4377  -13.2035  -16.8255 N   0  0  0  0  0  0  0  0  0  0  0  0
   17.7144  -12.5614  -15.5759 C   0  0  0  0  0  0  0  0  0  0  0  0
   17.8849  -11.0895  -15.7587 C   0  0  0  0  0  0  0  0  0  0  0  0
   18.5053  -10.6267  -16.7517 O   0  0  0  0  0  0  0  0  0  0  0  0
   13.8996   -8.7016  -14.1115 N   0  0  0  0  0  0  0  0  0  0  0  0
   14.9880   -8.2742  -14.9920 C   0  0  0  0  0  0  0  0  0  0  0  0
   14.6260   -8.0770  -16.1515 O   0  0  0  0  0  0  0  0  0  0  0  0
   16.2716   -8.1636  -14.3472 C   0  0  0  0  0  0  0  0  0  0  0  0
   17.5004   -8.6958  -14.9912 C   0  0  2  0  0  0  0  0  0  0  0  0
   17.3506  -10.1807  -14.8157 N   0  0  0  0  0  0  0  0  0  0  0  0
   18.7740   -8.3456  -14.3270 C   0  0  0  0  0  0  0  0  0  0  0  0
   19.1501   -8.9927  -13.2713 O   0  0  0  0  0  0  0  0  0  0  0  0
   25.7786  -10.1849  -14.4381 C   0  0  0  0  0  0  0  0  0  0  0  0
   24.0256  -10.2066  -14.9758 S   0  0  0  0  0  0  0  0  0  0  0  0
   23.2098   -8.7087  -14.3900 C   0  0  0  0  0  0  0  0  0  0  0  0
   21.7710   -8.5996  -14.7547 C   0  0  0  0  0  0  0  0  0  0  0  0
   21.0749   -7.3635  -14.2911 C   0  0  2  0  0  0  0  0  0  0  0  0
   19.6799   -7.3355  -14.7355 N   0  0  0  0  0  0  0  0  0  0  0  0
   21.7037   -6.1363  -14.8280 C   0  0  0  0  0  0  0  0  0  0  0  0
   22.7877   -5.5139  -14.1850 O   0  0  0  0  0  0  0  0  0  0  0  0
   21.3066   -5.5746  -15.8896 O   0  0  0  0  0  0  0  0  0  0  0  0
  1  2  1  0
  2  3  1  0
  3  4  2  0
  5  6  1  0
  6  8  1  0
  7  6  2  0
  9  8  1  1
  9 11  1  0
 10  3  1  0
 10  9  1  0
 11 12  2  0
 13 14  1  0
 14 15  1  0
 15 16  1  0
 17 16  1  6
 17 19  1  0
 18 11  1  0
 18 17  1  0
 19 21  2  0
 19 20  1  0
M  END
$$$$
