GNM.pdb
     RDKit          3D

 21 20  0  0  1  0  0  0  0  0999 V2000
   20.6268  -19.2289  -10.9984 N   0  0  0  0  0  0  0  0  0  0  0  0
   21.6875  -19.8003  -11.7721 C   0  0  0  0  0  0  0  0  0  0  0  0
   22.7491  -20.3649  -10.8870 C   0  0  0  0  0  0  0  0  0  0  0  0
   22.4665  -21.1933   -9.9821 O   0  0  0  0  0  0  0  0  0  0  0  0
   25.7394  -23.4504  -12.3669 N   0  0  0  0  0  0  0  0  0  0  0  0
   25.5910  -22.0616  -12.8048 C   0  0  0  0  0  0  0  0  0  0  0  0
   25.1337  -21.9571  -13.9425 O   0  0  0  0  0  0  0  0  0  0  0  0
   26.0032  -21.0802  -11.8340 C   0  0  0  0  0  0  0  0  0  0  0  0
   25.2248  -20.8627  -10.5871 C   0  0  2  0  0  0  0  0  0  0  0  0
   24.1003  -19.9787  -11.0479 N   0  0  0  0  0  0  0  0  0  0  0  0
   25.9168  -20.1013   -9.5253 C   0  0  0  0  0  0  0  0  0  0  0  0
   26.1792  -18.8460   -9.6984 O   0  0  0  0  0  0  0  0  0  0  0  0
   26.1100  -20.3864   -2.8150 C   0  0  0  0  0  0  0  0  0  0  0  0
   27.8720  -20.2476   -3.3033 S   0  0  0  0  0  0  0  0  0  0  0  0
   27.9696  -19.6055   -4.9857 C   0  0  0  0  0  0  0  0  0  0  0  0
   27.1763  -20.3656   -5.9896 C   0  0  0  0  0  0  0  0  0  0  0  0
   27.1297  -19.7784   -7.3609 C   0  0  2  0  0  0  0  0  0  0  0  0
   26.3435  -20.6108   -8.2738 N   0  0  0  0  0  0  0  0  0  0  0  0
   28.4765  -19.6641   -7.9633 C   0  0  0  0  0  0  0  0  0  0  0  0
   29.3564  -18.6216   -7.6245 O   0  0  0  0  0  0  0  0  0  0  0  0
   28.9153  -20.4899   -8.8151 O   0  0  0  0  0  0  0  0  0  0  0  0
  1  2  1  0
  2  3  1  0
  3  4  2  0
  5  6  1  0
  6  8  1  0
  7  6  2  0
  9  8  1  6
  9 11  1  0
 10  3  1  0
 10  9  1  0
 11 12  2  0
 13 14  1  0
 14 15  1  0
 15 16  1  0
 17 16  1  1
 17 19  1  0
 18 11  1  0
 18 17  1  0
 19 21  2  0
 19 20  1  0
M  END
$$$$
