GNM.pdb
     RDKit          3D

 21 20  0  0  1  0  0  0  0  0999 V2000
   18.9647  -14.8697  -16.9630 N   0  0  0  0  0  0  0  0  0  0  0  0
   19.5516  -14.1162  -18.0298 C   0  0  0  0  0  0  0  0  0  0  0  0
   19.4452  -12.6501  -17.7687 C   0  0  0  0  0  0  0  0  0  0  0  0
   20.0590  -11.8171  -18.4861 O   0  0  0  0  0  0  0  0  0  0  0  0
   16.0616  -10.3801  -17.8656 N   0  0  0  0  0  0  0  0  0  0  0  0
   15.9471  -10.4601  -16.4085 C   0  0  0  0  0  0  0  0  0  0  0  0
   14.7869  -10.3748  -16.0069 O   0  0  0  0  0  0  0  0  0  0  0  0
   17.2006  -10.6224  -15.7173 C   0  0  0  0  0  0  0  0  0  0  0  0
   18.4835  -10.6907  -16.4638 C   0  0  2  0  0  0  0  0  0  0  0  0
   18.6490  -12.1647  -16.7051 N   0  0  0  0  0  0  0  0  0  0  0  0
   19.6857  -10.2759  -15.7096 C   0  0  0  0  0  0  0  0  0  0  0  0
   20.0815  -10.9723  -14.6932 O   0  0  0  0  0  0  0  0  0  0  0  0
   26.9532  -10.7591  -14.9311 C   0  0  0  0  0  0  0  0  0  0  0  0
   25.4030  -10.9216  -15.8969 S   0  0  0  0  0  0  0  0  0  0  0  0
   24.1792   -9.7668  -15.2479 C   0  0  0  0  0  0  0  0  0  0  0  0
   22.8259   -9.8864  -15.8557 C   0  0  0  0  0  0  0  0  0  0  0  0
   21.7827   -8.9728  -15.3040 C   0  0  2  0  0  0  0  0  0  0  0  0
   20.4997   -9.1498  -15.9874 N   0  0  0  0  0  0  0  0  0  0  0  0
   22.1460   -7.5481  -15.4709 C   0  0  0  0  0  0  0  0  0  0  0  0
   21.7064   -6.7929  -16.5719 O   0  0  0  0  0  0  0  0  0  0  0  0
   22.8705   -6.9269  -14.6407 O   0  0  0  0  0  0  0  0  0  0  0  0
  1  2  1  0
  2  3  1  0
  3  4  2  0
  5  6  1  0
  6  8  1  0
  7  6  2  0
  9  8  1  1
  9 11  1  0
 10  3  1  0
 10  9  1  0
 11 12  2  0
 13 14  1  0
 14 15  1  0
 15 16  1  0
 17 16  1  6
 17 19  1  0
 18 11  1  0
 18 17  1  0
 19 21  2  0
 19 20  1  0
M  END
$$$$
