GNM.pdb
     RDKit          3D

 21 20  0  0  1  0  0  0  0  0999 V2000
   27.8920  -21.3017  -14.7395 N   0  0  0  0  0  0  0  0  0  0  0  0
   26.9673  -20.7593  -13.7903 C   0  0  0  0  0  0  0  0  0  0  0  0
   25.5717  -20.8060  -14.3185 C   0  0  0  0  0  0  0  0  0  0  0  0
   25.3326  -21.2177  -15.4841 O   0  0  0  0  0  0  0  0  0  0  0  0
   20.8986  -22.3438  -13.7746 N   0  0  0  0  0  0  0  0  0  0  0  0
   21.1800  -21.5468  -12.5796 C   0  0  0  0  0  0  0  0  0  0  0  0
   20.3931  -21.7591  -11.6575 O   0  0  0  0  0  0  0  0  0  0  0  0
   22.3153  -20.6680  -12.6994 C   0  0  0  0  0  0  0  0  0  0  0  0
   23.0642  -20.5546  -13.9778 C   0  0  2  0  0  0  0  0  0  0  0  0
   24.4846  -20.3868  -13.5166 N   0  0  0  0  0  0  0  0  0  0  0  0
   22.7674  -19.3546  -14.7890 C   0  0  0  0  0  0  0  0  0  0  0  0
   23.1736  -18.1915  -14.3926 O   0  0  0  0  0  0  0  0  0  0  0  0
   25.9282  -14.9842  -18.9439 C   0  0  0  0  0  0  0  0  0  0  0  0
   25.0804  -16.6043  -19.0815 S   0  0  0  0  0  0  0  0  0  0  0  0
   23.8090  -16.7153  -17.8073 C   0  0  0  0  0  0  0  0  0  0  0  0
   23.0352  -17.9867  -17.8085 C   0  0  0  0  0  0  0  0  0  0  0  0
   21.9517  -18.0890  -16.7872 C   0  0  2  0  0  0  0  0  0  0  0  0
   22.0582  -19.3289  -16.0154 N   0  0  0  0  0  0  0  0  0  0  0  0
   20.6061  -18.1003  -17.4028 C   0  0  0  0  0  0  0  0  0  0  0  0
   19.8241  -16.9366  -17.5019 O   0  0  0  0  0  0  0  0  0  0  0  0
   20.0796  -19.1502  -17.8725 O   0  0  0  0  0  0  0  0  0  0  0  0
  1  2  1  0
  2  3  1  0
  3  4  2  0
  5  6  1  0
  6  8  1  0
  7  6  2  0
  9  8  1  1
  9 11  1  0
 10  3  1  0
 10  9  1  0
 11 12  2  0
 13 14  1  0
 14 15  1  0
 15 16  1  0
 17 16  1  6
 17 19  1  0
 18 11  1  0
 18 17  1  0
 19 21  2  0
 19 20  1  0
M  END
$$$$
