GNM.pdb
     RDKit          3D

 21 20  0  0  1  0  0  0  0  0999 V2000
   25.6031  -18.2888  -21.4243 N   0  0  0  0  0  0  0  0  0  0  0  0
   26.6262  -17.4898  -20.8201 C   0  0  0  0  0  0  0  0  0  0  0  0
   26.1241  -16.1156  -20.5227 C   0  0  0  0  0  0  0  0  0  0  0  0
   26.8302  -15.2907  -19.8855 O   0  0  0  0  0  0  0  0  0  0  0  0
   22.8053  -13.5262  -24.1639 N   0  0  0  0  0  0  0  0  0  0  0  0
   23.6994  -13.3283  -23.0221 C   0  0  0  0  0  0  0  0  0  0  0  0
   24.5845  -12.5004  -23.2358 O   0  0  0  0  0  0  0  0  0  0  0  0
   23.3835  -14.1306  -21.8679 C   0  0  0  0  0  0  0  0  0  0  0  0
   24.3610  -14.2988  -20.7615 C   0  0  2  0  0  0  0  0  0  0  0  0
   24.8389  -15.7106  -20.9528 N   0  0  0  0  0  0  0  0  0  0  0  0
   23.7958  -14.2541  -19.3959 C   0  0  0  0  0  0  0  0  0  0  0  0
   23.0037  -15.1955  -18.9947 O   0  0  0  0  0  0  0  0  0  0  0  0
   26.9594  -16.9956  -14.8343 C   0  0  0  0  0  0  0  0  0  0  0  0
   26.4189  -15.2440  -14.7858 S   0  0  0  0  0  0  0  0  0  0  0  0
   25.0600  -15.0131  -15.9487 C   0  0  0  0  0  0  0  0  0  0  0  0
   24.5724  -13.6119  -16.0667 C   0  0  0  0  0  0  0  0  0  0  0  0
   23.4922  -13.3820  -17.0706 C   0  0  2  0  0  0  0  0  0  0  0  0
   24.0370  -13.2520  -18.4236 N   0  0  0  0  0  0  0  0  0  0  0  0
   22.7429  -12.1337  -16.8058 C   0  0  0  0  0  0  0  0  0  0  0  0
   21.7450  -12.0608  -15.8186 O   0  0  0  0  0  0  0  0  0  0  0  0
   22.9511  -11.0638  -17.4477 O   0  0  0  0  0  0  0  0  0  0  0  0
  1  2  1  0
  2  3  1  0
  3  4  2  0
  5  6  1  0
  6  8  1  0
  7  6  2  0
  9  8  1  6
  9 11  1  0
 10  3  1  0
 10  9  1  0
 11 12  2  0
 13 14  1  0
 14 15  1  0
 15 16  1  0
 17 16  1  1
 17 19  1  0
 18 11  1  0
 18 17  1  0
 19 21  2  0
 19 20  1  0
M  END
$$$$
