GNM.pdb
     RDKit          3D

 21 20  0  0  1  0  0  0  0  0999 V2000
   20.5420  -13.9887  -18.5068 N   0  0  0  0  0  0  0  0  0  0  0  0
   19.5727  -13.1522  -17.8657 C   0  0  0  0  0  0  0  0  0  0  0  0
   19.9807  -11.7175  -17.9293 C   0  0  0  0  0  0  0  0  0  0  0  0
   20.9139  -11.3414  -18.6861 O   0  0  0  0  0  0  0  0  0  0  0  0
   16.0769   -8.6927  -16.8996 N   0  0  0  0  0  0  0  0  0  0  0  0
   17.3661   -8.3561  -17.5055 C   0  0  0  0  0  0  0  0  0  0  0  0
   17.2642   -7.9057  -18.6461 O   0  0  0  0  0  0  0  0  0  0  0  0
   18.5078   -8.6110  -16.6645 C   0  0  0  0  0  0  0  0  0  0  0  0
   19.7135   -9.2969  -17.1974 C   0  0  2  0  0  0  0  0  0  0  0  0
   19.3242  -10.7471  -17.1369 N   0  0  0  0  0  0  0  0  0  0  0  0
   20.9338   -9.1802  -16.3709 C   0  0  0  0  0  0  0  0  0  0  0  0
   20.9349   -9.6253  -15.1558 O   0  0  0  0  0  0  0  0  0  0  0  0
   28.2541  -11.1053  -15.3333 C   0  0  0  0  0  0  0  0  0  0  0  0
   26.8657  -10.8472  -16.5030 S   0  0  0  0  0  0  0  0  0  0  0  0
   25.6244   -9.7967  -15.7234 C   0  0  0  0  0  0  0  0  0  0  0  0
   24.3468   -9.6772  -16.4775 C   0  0  0  0  0  0  0  0  0  0  0  0
   23.3507   -8.7157  -15.9201 C   0  0  2  0  0  0  0  0  0  0  0  0
   22.1675   -8.6132  -16.7767 N   0  0  0  0  0  0  0  0  0  0  0  0
   23.9003   -7.3462  -15.8101 C   0  0  0  0  0  0  0  0  0  0  0  0
   23.5323   -6.3236  -16.7016 O   0  0  0  0  0  0  0  0  0  0  0  0
   24.7302   -7.0139  -14.9151 O   0  0  0  0  0  0  0  0  0  0  0  0
  1  2  1  0
  2  3  1  0
  3  4  2  0
  5  6  1  0
  6  8  1  0
  7  6  2  0
  9  8  1  1
  9 11  1  0
 10  3  1  0
 10  9  1  0
 11 12  2  0
 13 14  1  0
 14 15  1  0
 15 16  1  0
 17 16  1  6
 17 19  1  0
 18 11  1  0
 18 17  1  0
 19 21  2  0
 19 20  1  0
M  END
$$$$
