KHD.pdb
     RDKit          3D

 28 28  0  0  1  0  0  0  0  0999 V2000
   11.4400  -17.8219   14.0423 N   0  0  0  0  0  0  0  0  0  0  0  0
   11.5958  -16.4124   13.7412 C   0  0  1  0  0  0  0  0  0  0  0  0
   10.4976  -16.0700   12.7550 C   0  0  0  0  0  0  0  0  0  0  0  0
    9.9664  -17.2548   12.0353 C   0  0  0  0  0  0  0  0  0  0  0  0
    8.9340  -17.0114   10.9990 C   0  0  0  0  0  0  0  0  0  0  0  0
    8.4782  -18.2315   10.2466 C   0  0  0  0  0  0  0  0  0  0  0  0
    7.4225  -17.9960    9.3037 N   0  0  0  0  0  0  0  0  0  0  0  0
   11.3315  -15.6196   14.9643 C   0  0  0  0  0  0  0  0  0  0  0  0
   12.1864  -14.7764   15.3239 O   0  0  0  0  0  0  0  0  0  0  0  0
   10.1620  -15.7650   15.7487 N   0  0  0  0  0  0  0  0  0  0  0  0
    9.9883  -15.0566   16.9733 C   0  0  1  0  0  0  0  0  0  0  0  0
    8.5716  -14.7676   17.3286 C   0  0  0  0  0  0  0  0  0  0  0  0
    8.3662  -14.1307   18.6448 C   0  0  0  0  0  0  0  0  0  0  0  0
    8.3967  -12.7805   18.9012 C   0  0  0  0  0  0  0  0  0  0  0  0
    8.1527  -12.6090   20.2291 N   0  0  0  0  0  0  0  0  0  0  0  0
    7.9733  -13.8010   20.7984 C   0  0  0  0  0  0  0  0  0  0  0  0
    8.1036  -14.7127   19.8369 N   0  0  0  0  0  0  0  0  0  0  0  0
   10.7870  -15.6243   18.0922 C   0  0  0  0  0  0  0  0  0  0  0  0
   10.8624  -16.8619   18.3042 O   0  0  0  0  0  0  0  0  0  0  0  0
   11.5164  -14.7911   18.9981 N   0  0  0  0  0  0  0  0  0  0  0  0
   12.3293  -15.2550   20.0753 C   0  0  1  0  0  0  0  0  0  0  0  0
   13.4577  -14.3656   20.4764 C   0  0  0  0  0  0  0  0  0  0  0  0
   14.8030  -14.9398   20.2965 C   0  0  0  0  0  0  0  0  0  0  0  0
   15.0938  -15.7562   19.3880 O   0  0  0  0  0  0  0  0  0  0  0  0
   11.5343  -15.4883   21.3212 C   0  0  0  0  0  0  0  0  0  0  0  0
   10.2309  -15.0854   21.4049 O   0  0  0  0  0  0  0  0  0  0  0  0
   15.8250  -14.5790   21.1609 O   0  0  0  0  0  0  0  0  0  0  0  0
   12.0863  -16.0551   22.2745 O   0  0  0  0  0  0  0  0  0  0  0  0
  2  1  1  1
  2  3  1  0
  4  3  1  0
  5  4  1  0
  6  5  1  0
  7  6  1  0
  8  9  2  0
  8  2  1  0
 10  8  1  0
 11 10  1  0
 11 12  1  1
 12 13  1  0
 13 17  1  0
 13 14  2  0
 14 15  1  0
 16 15  1  0
 17 16  2  0
 18 20  1  0
 18 11  1  0
 19 18  2  0
 21 25  1  0
 21 20  1  0
 21 22  1  1
 22 23  1  0
 23 27  1  0
 23 24  2  0
 25 26  1  0
 28 25  2  0
M  END
$$$$
