KHD.pdb
     RDKit          3D

 28 28  0  0  1  0  0  0  0  0999 V2000
    7.2308  -15.7025   19.6011 N   0  0  0  0  0  0  0  0  0  0  0  0
    8.4054  -14.8535   19.6352 C   0  0  1  0  0  0  0  0  0  0  0  0
    7.9128  -13.4446   19.3739 C   0  0  0  0  0  0  0  0  0  0  0  0
    7.4646  -13.2310   17.9748 C   0  0  0  0  0  0  0  0  0  0  0  0
    8.0161  -14.1392   16.9405 C   0  0  0  0  0  0  0  0  0  0  0  0
    7.4801  -13.9316   15.5506 C   0  0  0  0  0  0  0  0  0  0  0  0
    7.9893  -14.8446   14.5678 N   0  0  0  0  0  0  0  0  0  0  0  0
    8.9725  -14.8589   21.0037 C   0  0  0  0  0  0  0  0  0  0  0  0
    9.9370  -14.0979   21.2518 O   0  0  0  0  0  0  0  0  0  0  0  0
    8.4804  -15.6798   22.0469 N   0  0  0  0  0  0  0  0  0  0  0  0
    9.1189  -15.7368   23.3199 C   0  0  1  0  0  0  0  0  0  0  0  0
    8.2030  -16.0021   24.4634 C   0  0  0  0  0  0  0  0  0  0  0  0
    7.3309  -14.8754   24.8507 C   0  0  0  0  0  0  0  0  0  0  0  0
    7.4784  -13.5676   24.4540 C   0  0  0  0  0  0  0  0  0  0  0  0
    6.4696  -12.8504   25.0199 N   0  0  0  0  0  0  0  0  0  0  0  0
    5.7079  -13.6667   25.7484 C   0  0  0  0  0  0  0  0  0  0  0  0
    6.2337  -14.8851   25.6412 N   0  0  0  0  0  0  0  0  0  0  0  0
   10.3434  -16.5813   23.3195 C   0  0  0  0  0  0  0  0  0  0  0  0
   10.3861  -17.7032   22.7523 O   0  0  0  0  0  0  0  0  0  0  0  0
   11.5478  -16.1654   23.9701 N   0  0  0  0  0  0  0  0  0  0  0  0
   12.7944  -16.8583   23.9225 C   0  0  1  0  0  0  0  0  0  0  0  0
   14.0173  -16.0060   23.8650 C   0  0  0  0  0  0  0  0  0  0  0  0
   15.2919  -16.7423   23.7935 C   0  0  0  0  0  0  0  0  0  0  0  0
   15.5241  -17.6490   22.9565 O   0  0  0  0  0  0  0  0  0  0  0  0
   12.9835  -17.7598   25.1015 C   0  0  0  0  0  0  0  0  0  0  0  0
   13.9071  -18.7669   25.0709 O   0  0  0  0  0  0  0  0  0  0  0  0
   16.3101  -16.4412   24.6848 O   0  0  0  0  0  0  0  0  0  0  0  0
   12.2827  -17.5710   26.1055 O   0  0  0  0  0  0  0  0  0  0  0  0
  2  1  1  1
  2  3  1  0
  4  3  1  0
  5  4  1  0
  6  5  1  0
  7  6  1  0
  8  9  2  0
  8  2  1  0
 10  8  1  0
 11 10  1  0
 11 12  1  1
 12 13  1  0
 13 17  1  0
 13 14  2  0
 14 15  1  0
 16 15  1  0
 17 16  2  0
 18 20  1  0
 18 11  1  0
 19 18  2  0
 21 25  1  0
 21 20  1  0
 21 22  1  1
 22 23  1  0
 23 27  1  0
 23 24  2  0
 25 26  1  0
 28 25  2  0
M  END
$$$$
