KHD.pdb
     RDKit          3D

 28 28  0  0  1  0  0  0  0  0999 V2000
    9.5208  -17.2062   16.3733 N   0  0  0  0  0  0  0  0  0  0  0  0
    9.4380  -17.9659   17.6052 C   0  0  1  0  0  0  0  0  0  0  0  0
   10.4227  -19.1085   17.4608 C   0  0  0  0  0  0  0  0  0  0  0  0
   10.0866  -20.0344   16.3501 C   0  0  0  0  0  0  0  0  0  0  0  0
   10.6917  -21.3876   16.3894 C   0  0  0  0  0  0  0  0  0  0  0  0
   10.2773  -22.3098   15.2758 C   0  0  0  0  0  0  0  0  0  0  0  0
   10.8347  -23.6299   15.3504 N   0  0  0  0  0  0  0  0  0  0  0  0
    9.9196  -17.1288   18.7285 C   0  0  0  0  0  0  0  0  0  0  0  0
   11.0283  -16.5559   18.6119 O   0  0  0  0  0  0  0  0  0  0  0  0
    9.1912  -16.9420   19.9280 N   0  0  0  0  0  0  0  0  0  0  0  0
    9.6567  -16.0761   20.9601 C   0  0  1  0  0  0  0  0  0  0  0  0
    8.6239  -15.1580   21.5141 C   0  0  0  0  0  0  0  0  0  0  0  0
    7.9694  -14.2733   20.5297 C   0  0  0  0  0  0  0  0  0  0  0  0
    8.5646  -13.2293   19.8621 C   0  0  0  0  0  0  0  0  0  0  0  0
    7.6274  -12.6773   19.0441 N   0  0  0  0  0  0  0  0  0  0  0  0
    6.4799  -13.3414   19.1829 C   0  0  0  0  0  0  0  0  0  0  0  0
    6.6943  -14.3015   20.0799 N   0  0  0  0  0  0  0  0  0  0  0  0
   10.4538  -16.7834   21.9977 C   0  0  0  0  0  0  0  0  0  0  0  0
   10.1006  -17.8911   22.4777 O   0  0  0  0  0  0  0  0  0  0  0  0
   11.6726  -16.2404   22.5141 N   0  0  0  0  0  0  0  0  0  0  0  0
   12.5688  -16.9142   23.3968 C   0  0  1  0  0  0  0  0  0  0  0  0
   13.9516  -16.3603   23.4769 C   0  0  0  0  0  0  0  0  0  0  0  0
   14.8621  -17.0764   24.3879 C   0  0  0  0  0  0  0  0  0  0  0  0
   15.0899  -18.3091   24.3146 O   0  0  0  0  0  0  0  0  0  0  0  0
   12.0605  -16.9406   24.8038 C   0  0  0  0  0  0  0  0  0  0  0  0
   12.6298  -17.7601   25.7379 O   0  0  0  0  0  0  0  0  0  0  0  0
   15.5182  -16.3798   25.3909 O   0  0  0  0  0  0  0  0  0  0  0  0
   11.1116  -16.2018   25.1011 O   0  0  0  0  0  0  0  0  0  0  0  0
  2  1  1  6
  2  3  1  0
  4  3  1  0
  5  4  1  0
  6  5  1  0
  7  6  1  0
  8  9  2  0
  8  2  1  0
 10  8  1  0
 11 10  1  0
 11 12  1  1
 12 13  1  0
 13 17  1  0
 13 14  2  0
 14 15  1  0
 16 15  1  0
 17 16  2  0
 18 20  1  0
 18 11  1  0
 19 18  2  0
 21 25  1  0
 21 20  1  0
 21 22  1  1
 22 23  1  0
 23 27  1  0
 23 24  2  0
 25 26  1  0
 28 25  2  0
M  END
$$$$
