KHD.pdb
     RDKit          3D

 28 28  0  0  1  0  0  0  0  0999 V2000
    9.8619  -17.4942   17.3061 N   0  0  0  0  0  0  0  0  0  0  0  0
    9.4108  -18.0783   18.5540 C   0  0  1  0  0  0  0  0  0  0  0  0
   10.2128  -19.3509   18.7359 C   0  0  0  0  0  0  0  0  0  0  0  0
    9.9440  -20.3674   17.6877 C   0  0  0  0  0  0  0  0  0  0  0  0
   10.6861  -21.6479   17.7795 C   0  0  0  0  0  0  0  0  0  0  0  0
   10.4326  -22.6196   16.6599 C   0  0  0  0  0  0  0  0  0  0  0  0
   11.1359  -23.8651   16.7746 N   0  0  0  0  0  0  0  0  0  0  0  0
    9.7774  -17.1807   19.6740 C   0  0  0  0  0  0  0  0  0  0  0  0
   10.8456  -16.5302   19.5910 O   0  0  0  0  0  0  0  0  0  0  0  0
    8.9826  -17.0194   20.8343 N   0  0  0  0  0  0  0  0  0  0  0  0
    9.3609  -16.1328   21.8843 C   0  0  1  0  0  0  0  0  0  0  0  0
    8.3480  -15.0928   22.2150 C   0  0  0  0  0  0  0  0  0  0  0  0
    7.9436  -14.2232   21.0924 C   0  0  0  0  0  0  0  0  0  0  0  0
    6.7350  -14.2596   20.4385 C   0  0  0  0  0  0  0  0  0  0  0  0
    6.7584  -13.2955   19.4781 N   0  0  0  0  0  0  0  0  0  0  0  0
    7.9340  -12.6681   19.5167 C   0  0  0  0  0  0  0  0  0  0  0  0
    8.6424  -13.2331   20.4921 N   0  0  0  0  0  0  0  0  0  0  0  0
    9.9103  -16.8389   23.0725 C   0  0  0  0  0  0  0  0  0  0  0  0
    9.2781  -17.7514   23.6642 O   0  0  0  0  0  0  0  0  0  0  0  0
   11.1943  -16.5172   23.6154 N   0  0  0  0  0  0  0  0  0  0  0  0
   11.8385  -17.2130   24.6818 C   0  0  1  0  0  0  0  0  0  0  0  0
   13.2814  -16.8990   24.8934 C   0  0  0  0  0  0  0  0  0  0  0  0
   14.1036  -16.8744   23.6706 C   0  0  0  0  0  0  0  0  0  0  0  0
   14.1336  -17.8111   22.8349 O   0  0  0  0  0  0  0  0  0  0  0  0
   11.1727  -16.9668   25.9988 C   0  0  0  0  0  0  0  0  0  0  0  0
   11.6083  -17.5962   27.1313 O   0  0  0  0  0  0  0  0  0  0  0  0
   14.8982  -15.7713   23.3992 O   0  0  0  0  0  0  0  0  0  0  0  0
   10.2174  -16.1790   26.0376 O   0  0  0  0  0  0  0  0  0  0  0  0
  2  1  1  6
  2  3  1  0
  4  3  1  0
  5  4  1  0
  6  5  1  0
  7  6  1  0
  8  9  2  0
  8  2  1  0
 10  8  1  0
 11 10  1  0
 11 12  1  1
 12 13  1  0
 13 17  1  0
 13 14  2  0
 14 15  1  0
 16 15  1  0
 17 16  2  0
 18 20  1  0
 18 11  1  0
 19 18  2  0
 21 25  1  0
 21 20  1  0
 21 22  1  1
 22 23  1  0
 23 27  1  0
 23 24  2  0
 25 26  1  0
 28 25  2  0
M  END
$$$$
