KHD.pdb
     RDKit          3D

 28 28  0  0  1  0  0  0  0  0999 V2000
   11.8005  -17.2267   16.7361 N   0  0  0  0  0  0  0  0  0  0  0  0
   11.1350  -17.9923   17.7717 C   0  0  1  0  0  0  0  0  0  0  0  0
   12.0096  -19.2031   18.0264 C   0  0  0  0  0  0  0  0  0  0  0  0
   13.1998  -19.2624   17.1409 C   0  0  0  0  0  0  0  0  0  0  0  0
   14.0490  -20.4750   17.2276 C   0  0  0  0  0  0  0  0  0  0  0  0
   15.2661  -20.4720   16.3441 C   0  0  0  0  0  0  0  0  0  0  0  0
   16.0552  -21.6689   16.4046 N   0  0  0  0  0  0  0  0  0  0  0  0
   11.1207  -17.2062   19.0273 C   0  0  0  0  0  0  0  0  0  0  0  0
   12.0704  -16.4186   19.2478 O   0  0  0  0  0  0  0  0  0  0  0  0
   10.0884  -17.2985   19.9917 N   0  0  0  0  0  0  0  0  0  0  0  0
   10.0597  -16.4565   21.1414 C   0  0  1  0  0  0  0  0  0  0  0  0
    8.7322  -15.8493   21.4343 C   0  0  0  0  0  0  0  0  0  0  0  0
    8.2786  -14.8247   20.4728 C   0  0  0  0  0  0  0  0  0  0  0  0
    8.9767  -14.3846   19.3735 C   0  0  0  0  0  0  0  0  0  0  0  0
    8.2113  -13.4488   18.7485 N   0  0  0  0  0  0  0  0  0  0  0  0
    7.0701  -13.2970   19.4207 C   0  0  0  0  0  0  0  0  0  0  0  0
    7.1186  -14.1296   20.4584 N   0  0  0  0  0  0  0  0  0  0  0  0
   10.7181  -17.0678   22.3268 C   0  0  0  0  0  0  0  0  0  0  0  0
   10.3555  -18.1751   22.8008 O   0  0  0  0  0  0  0  0  0  0  0  0
   11.8048  -16.4268   23.0013 N   0  0  0  0  0  0  0  0  0  0  0  0
   12.4810  -16.9372   24.1497 C   0  0  1  0  0  0  0  0  0  0  0  0
   13.8273  -16.3590   24.4296 C   0  0  0  0  0  0  0  0  0  0  0  0
   14.7996  -16.4720   23.3279 C   0  0  0  0  0  0  0  0  0  0  0  0
   14.9740  -17.5211   22.6605 O   0  0  0  0  0  0  0  0  0  0  0  0
   11.6877  -16.7430   25.4033 C   0  0  0  0  0  0  0  0  0  0  0  0
   12.1138  -17.2717   26.5896 O   0  0  0  0  0  0  0  0  0  0  0  0
   15.5794  -15.3782   22.9851 O   0  0  0  0  0  0  0  0  0  0  0  0
   10.6359  -16.0917   25.3397 O   0  0  0  0  0  0  0  0  0  0  0  0
  2  1  1  6
  2  3  1  0
  4  3  1  0
  5  4  1  0
  6  5  1  0
  7  6  1  0
  8  9  2  0
  8  2  1  0
 10  8  1  0
 11 10  1  0
 11 12  1  1
 12 13  1  0
 13 17  1  0
 13 14  2  0
 14 15  1  0
 16 15  1  0
 17 16  2  0
 18 20  1  0
 18 11  1  0
 19 18  2  0
 21 25  1  0
 21 20  1  0
 21 22  1  1
 22 23  1  0
 23 27  1  0
 23 24  2  0
 25 26  1  0
 28 25  2  0
M  END
$$$$
