KHD.pdb
     RDKit          3D

 28 28  0  0  1  0  0  0  0  0999 V2000
   10.3300  -17.4981   15.0948 N   0  0  0  0  0  0  0  0  0  0  0  0
   10.9953  -16.2214   14.9246 C   0  0  1  0  0  0  0  0  0  0  0  0
   10.0800  -15.3835   14.0551 C   0  0  0  0  0  0  0  0  0  0  0  0
    8.6392  -15.6158   14.3276 C   0  0  0  0  0  0  0  0  0  0  0  0
    7.7637  -15.8840   13.1611 C   0  0  0  0  0  0  0  0  0  0  0  0
    6.4839  -15.0948   13.1228 C   0  0  0  0  0  0  0  0  0  0  0  0
    5.6883  -15.2974   11.9461 N   0  0  0  0  0  0  0  0  0  0  0  0
   11.0809  -15.5367   16.2355 C   0  0  0  0  0  0  0  0  0  0  0  0
   11.6341  -14.4130   16.2856 O   0  0  0  0  0  0  0  0  0  0  0  0
   10.5694  -16.0864   17.4357 N   0  0  0  0  0  0  0  0  0  0  0  0
   10.7781  -15.4562   18.6970 C   0  0  1  0  0  0  0  0  0  0  0  0
    9.5907  -15.4549   19.5952 C   0  0  0  0  0  0  0  0  0  0  0  0
    8.6441  -14.3402   19.3919 C   0  0  0  0  0  0  0  0  0  0  0  0
    8.7791  -13.3239   18.4761 C   0  0  0  0  0  0  0  0  0  0  0  0
    7.6951  -12.5108   18.6020 N   0  0  0  0  0  0  0  0  0  0  0  0
    6.8993  -12.9879   19.5592 C   0  0  0  0  0  0  0  0  0  0  0  0
    7.4783  -14.0903   20.0302 N   0  0  0  0  0  0  0  0  0  0  0  0
   12.0367  -15.8876   19.3619 C   0  0  0  0  0  0  0  0  0  0  0  0
   12.3366  -17.1000   19.5116 O   0  0  0  0  0  0  0  0  0  0  0  0
   12.9818  -14.9438   19.8746 N   0  0  0  0  0  0  0  0  0  0  0  0
   14.2298  -15.2718   20.4839 C   0  0  1  0  0  0  0  0  0  0  0  0
   15.3410  -14.3001   20.2684 C   0  0  0  0  0  0  0  0  0  0  0  0
   15.7548  -14.1219   18.8653 C   0  0  0  0  0  0  0  0  0  0  0  0
   15.7270  -15.0416   18.0109 O   0  0  0  0  0  0  0  0  0  0  0  0
   14.1092  -15.4275   21.9670 C   0  0  0  0  0  0  0  0  0  0  0  0
   12.9267  -15.1725   22.6032 O   0  0  0  0  0  0  0  0  0  0  0  0
   16.2041  -12.8834   18.4336 O   0  0  0  0  0  0  0  0  0  0  0  0
   15.1070  -15.7930   22.6038 O   0  0  0  0  0  0  0  0  0  0  0  0
  2  1  1  1
  2  3  1  0
  4  3  1  0
  5  4  1  0
  6  5  1  0
  7  6  1  0
  8  9  2  0
  8  2  1  0
 10  8  1  0
 11 10  1  0
 11 12  1  1
 12 13  1  0
 13 17  1  0
 13 14  2  0
 14 15  1  0
 16 15  1  0
 17 16  2  0
 18 20  1  0
 18 11  1  0
 19 18  2  0
 21 25  1  0
 21 20  1  0
 21 22  1  1
 22 23  1  0
 23 27  1  0
 23 24  2  0
 25 26  1  0
 28 25  2  0
M  END
$$$$
