KHD.pdb
     RDKit          3D

 28 28  0  0  1  0  0  0  0  0999 V2000
    9.9905  -12.3483   19.5120 N   0  0  0  0  0  0  0  0  0  0  0  0
    9.2694  -13.4008   20.2006 C   0  0  1  0  0  0  0  0  0  0  0  0
    8.0756  -13.7318   19.3282 C   0  0  0  0  0  0  0  0  0  0  0  0
    8.4247  -13.8929   17.8943 C   0  0  0  0  0  0  0  0  0  0  0  0
    7.3242  -14.2433   16.9642 C   0  0  0  0  0  0  0  0  0  0  0  0
    7.7176  -14.3582   15.5170 C   0  0  0  0  0  0  0  0  0  0  0  0
    6.6498  -14.7256   14.6317 N   0  0  0  0  0  0  0  0  0  0  0  0
   10.1115  -14.6186   20.2492 C   0  0  0  0  0  0  0  0  0  0  0  0
    9.6253  -15.6593   20.7509 O   0  0  0  0  0  0  0  0  0  0  0  0
   11.4381  -14.6678   19.7574 N   0  0  0  0  0  0  0  0  0  0  0  0
   12.1635  -15.8923   19.6802 C   0  0  1  0  0  0  0  0  0  0  0  0
   12.7011  -16.2122   18.3291 C   0  0  0  0  0  0  0  0  0  0  0  0
   11.7255  -16.7806   17.3777 C   0  0  0  0  0  0  0  0  0  0  0  0
   10.4311  -17.1411   17.6683 C   0  0  0  0  0  0  0  0  0  0  0  0
    9.8682  -17.6104   16.5215 N   0  0  0  0  0  0  0  0  0  0  0  0
   10.7660  -17.5521   15.5378 C   0  0  0  0  0  0  0  0  0  0  0  0
   11.8825  -17.0509   16.0619 N   0  0  0  0  0  0  0  0  0  0  0  0
   13.1556  -16.0511   20.7770 C   0  0  0  0  0  0  0  0  0  0  0  0
   13.9609  -15.1378   21.0925 O   0  0  0  0  0  0  0  0  0  0  0  0
   13.2533  -17.2587   21.5379 N   0  0  0  0  0  0  0  0  0  0  0  0
   14.2039  -17.5089   22.5724 C   0  0  1  0  0  0  0  0  0  0  0  0
   13.8500  -18.5854   23.5426 C   0  0  0  0  0  0  0  0  0  0  0  0
   12.6360  -18.3365   24.3401 C   0  0  0  0  0  0  0  0  0  0  0  0
   12.2604  -17.1919   24.6943 O   0  0  0  0  0  0  0  0  0  0  0  0
   15.5463  -17.8806   22.0263 C   0  0  0  0  0  0  0  0  0  0  0  0
   16.6339  -17.9765   22.8487 O   0  0  0  0  0  0  0  0  0  0  0  0
   11.8439  -19.4029   24.7365 O   0  0  0  0  0  0  0  0  0  0  0  0
   15.6479  -18.0991   20.8112 O   0  0  0  0  0  0  0  0  0  0  0  0
  2  1  1  6
  2  3  1  0
  4  3  1  0
  5  4  1  0
  6  5  1  0
  7  6  1  0
  8  9  2  0
  8  2  1  0
 10  8  1  0
 11 10  1  0
 11 12  1  6
 12 13  1  0
 13 17  1  0
 13 14  2  0
 14 15  1  0
 16 15  1  0
 17 16  2  0
 18 20  1  0
 18 11  1  0
 19 18  2  0
 21 25  1  0
 21 20  1  0
 21 22  1  1
 22 23  1  0
 23 27  1  0
 23 24  2  0
 25 26  1  0
 28 25  2  0
M  END
$$$$
