KHD.pdb
     RDKit          3D

 28 28  0  0  1  0  0  0  0  0999 V2000
    9.8511  -17.1823   16.7335 N   0  0  0  0  0  0  0  0  0  0  0  0
    9.4197  -17.8289   17.9572 C   0  0  1  0  0  0  0  0  0  0  0  0
   10.1226  -19.1708   17.9933 C   0  0  0  0  0  0  0  0  0  0  0  0
   11.5825  -19.0741   17.7416 C   0  0  0  0  0  0  0  0  0  0  0  0
   12.1501  -19.9605   16.6970 C   0  0  0  0  0  0  0  0  0  0  0  0
   13.6420  -19.8783   16.5252 C   0  0  0  0  0  0  0  0  0  0  0  0
   14.3953  -20.7291   17.4013 N   0  0  0  0  0  0  0  0  0  0  0  0
    9.9174  -17.0567   19.1193 C   0  0  0  0  0  0  0  0  0  0  0  0
   10.9304  -16.3348   18.9651 O   0  0  0  0  0  0  0  0  0  0  0  0
    9.3070  -17.0916   20.3962 N   0  0  0  0  0  0  0  0  0  0  0  0
    9.7726  -16.2804   21.4717 C   0  0  1  0  0  0  0  0  0  0  0  0
    8.7405  -15.3902   22.0708 C   0  0  0  0  0  0  0  0  0  0  0  0
    8.0674  -14.4760   21.1267 C   0  0  0  0  0  0  0  0  0  0  0  0
    6.7571  -14.5585   20.7194 C   0  0  0  0  0  0  0  0  0  0  0  0
    6.5289  -13.5292   19.8588 N   0  0  0  0  0  0  0  0  0  0  0  0
    7.6478  -12.8175   19.7217 C   0  0  0  0  0  0  0  0  0  0  0  0
    8.5701  -13.3946   20.4889 N   0  0  0  0  0  0  0  0  0  0  0  0
   10.5674  -17.0412   22.4726 C   0  0  0  0  0  0  0  0  0  0  0  0
   10.2533  -18.2031   22.8380 O   0  0  0  0  0  0  0  0  0  0  0  0
   11.7389  -16.4912   23.0825 N   0  0  0  0  0  0  0  0  0  0  0  0
   12.5474  -17.1466   24.0589 C   0  0  1  0  0  0  0  0  0  0  0  0
   13.9290  -16.6117   24.2333 C   0  0  0  0  0  0  0  0  0  0  0  0
   14.7564  -16.6023   23.0138 C   0  0  0  0  0  0  0  0  0  0  0  0
   15.0083  -17.6300   22.3377 O   0  0  0  0  0  0  0  0  0  0  0  0
   11.9254  -17.1144   25.4192 C   0  0  0  0  0  0  0  0  0  0  0  0
   12.4759  -17.8135   26.4568 O   0  0  0  0  0  0  0  0  0  0  0  0
   15.3008  -15.4100   22.5622 O   0  0  0  0  0  0  0  0  0  0  0  0
   10.8998  -16.4389   25.5819 O   0  0  0  0  0  0  0  0  0  0  0  0
  2  1  1  6
  2  3  1  0
  4  3  1  0
  5  4  1  0
  6  5  1  0
  7  6  1  0
  8  9  2  0
  8  2  1  0
 10  8  1  0
 11 10  1  0
 11 12  1  1
 12 13  1  0
 13 17  1  0
 13 14  2  0
 14 15  1  0
 16 15  1  0
 17 16  2  0
 18 20  1  0
 18 11  1  0
 19 18  2  0
 21 25  1  0
 21 20  1  0
 21 22  1  1
 22 23  1  0
 23 27  1  0
 23 24  2  0
 25 26  1  0
 28 25  2  0
M  END
$$$$
