KHD.pdb
     RDKit          3D

 28 28  0  0  1  0  0  0  0  0999 V2000
   15.4069  -18.7710   15.9735 N   0  0  0  0  0  0  0  0  0  0  0  0
   14.5906  -19.5620   16.8732 C   0  0  1  0  0  0  0  0  0  0  0  0
   15.3485  -20.8540   17.1014 C   0  0  0  0  0  0  0  0  0  0  0  0
   16.7415  -20.8141   16.5895 C   0  0  0  0  0  0  0  0  0  0  0  0
   17.4501  -22.1094   16.4517 C   0  0  0  0  0  0  0  0  0  0  0  0
   18.8745  -22.0158   15.9777 C   0  0  0  0  0  0  0  0  0  0  0  0
   19.5172  -23.2790   15.7536 N   0  0  0  0  0  0  0  0  0  0  0  0
   14.5084  -18.8796   18.1855 C   0  0  0  0  0  0  0  0  0  0  0  0
   15.4006  -18.0510   18.4830 O   0  0  0  0  0  0  0  0  0  0  0  0
   13.4728  -19.1150   19.1217 N   0  0  0  0  0  0  0  0  0  0  0  0
   13.4156  -18.4215   20.3657 C   0  0  1  0  0  0  0  0  0  0  0  0
   12.0496  -18.2938   20.9439 C   0  0  0  0  0  0  0  0  0  0  0  0
   11.9765  -17.6117   22.2513 C   0  0  0  0  0  0  0  0  0  0  0  0
   11.9543  -16.2519   22.4517 C   0  0  0  0  0  0  0  0  0  0  0  0
   11.8742  -16.0356   23.7930 N   0  0  0  0  0  0  0  0  0  0  0  0
   11.8461  -17.2094   24.4244 C   0  0  0  0  0  0  0  0  0  0  0  0
   11.9082  -18.1540   23.4883 N   0  0  0  0  0  0  0  0  0  0  0  0
   14.4411  -18.8853   21.3381 C   0  0  0  0  0  0  0  0  0  0  0  0
   14.5936  -20.1003   21.6262 O   0  0  0  0  0  0  0  0  0  0  0  0
   15.3152  -17.9715   22.0073 N   0  0  0  0  0  0  0  0  0  0  0  0
   16.3154  -18.3316   22.9593 C   0  0  1  0  0  0  0  0  0  0  0  0
   17.7268  -18.0497   22.5671 C   0  0  0  0  0  0  0  0  0  0  0  0
   17.9845  -16.6772   22.0964 C   0  0  0  0  0  0  0  0  0  0  0  0
   17.4647  -16.1883   21.0633 O   0  0  0  0  0  0  0  0  0  0  0  0
   16.1151  -17.6458   24.2738 C   0  0  0  0  0  0  0  0  0  0  0  0
   16.7611  -18.0827   25.3963 O   0  0  0  0  0  0  0  0  0  0  0  0
   18.8426  -15.8557   22.8111 O   0  0  0  0  0  0  0  0  0  0  0  0
   15.3498  -16.6727   24.3198 O   0  0  0  0  0  0  0  0  0  0  0  0
  2  1  1  6
  2  3  1  0
  4  3  1  0
  5  4  1  0
  6  5  1  0
  7  6  1  0
  8  9  2  0
  8  2  1  0
 10  8  1  0
 11 10  1  0
 11 12  1  1
 12 13  1  0
 13 17  1  0
 13 14  2  0
 14 15  1  0
 16 15  1  0
 17 16  2  0
 18 20  1  0
 18 11  1  0
 19 18  2  0
 21 25  1  0
 21 20  1  0
 21 22  1  6
 22 23  1  0
 23 27  1  0
 23 24  2  0
 25 26  1  0
 28 25  2  0
M  END
$$$$
