KHD.pdb
     RDKit          3D

 28 28  0  0  1  0  0  0  0  0999 V2000
    9.2388  -18.2539   16.9709 N   0  0  0  0  0  0  0  0  0  0  0  0
   10.2945  -17.3169   16.6403 C   0  0  1  0  0  0  0  0  0  0  0  0
    9.7177  -16.3872   15.5921 C   0  0  0  0  0  0  0  0  0  0  0  0
    8.6421  -17.0130   14.7824 C   0  0  0  0  0  0  0  0  0  0  0  0
    7.9875  -16.1668   13.7555 C   0  0  0  0  0  0  0  0  0  0  0  0
    6.8817  -16.8325   12.9834 C   0  0  0  0  0  0  0  0  0  0  0  0
    6.2706  -16.0098   11.9792 N   0  0  0  0  0  0  0  0  0  0  0  0
   10.5975  -16.4839   17.8273 C   0  0  0  0  0  0  0  0  0  0  0  0
   11.4606  -15.5817   17.7172 O   0  0  0  0  0  0  0  0  0  0  0  0
    9.9616  -16.6542   19.0806 N   0  0  0  0  0  0  0  0  0  0  0  0
   10.2980  -15.8482   20.2071 C   0  0  1  0  0  0  0  0  0  0  0  0
    9.1420  -15.1650   20.8500 C   0  0  0  0  0  0  0  0  0  0  0  0
    8.3614  -14.2752   19.9674 C   0  0  0  0  0  0  0  0  0  0  0  0
    8.5917  -12.9351   19.7652 C   0  0  0  0  0  0  0  0  0  0  0  0
    7.6615  -12.4878   18.8780 N   0  0  0  0  0  0  0  0  0  0  0  0
    6.8691  -13.5007   18.5272 C   0  0  0  0  0  0  0  0  0  0  0  0
    7.2974  -14.5741   19.1880 N   0  0  0  0  0  0  0  0  0  0  0  0
   11.2010  -16.5378   21.1670 C   0  0  0  0  0  0  0  0  0  0  0  0
   11.0747  -17.7564   21.4522 O   0  0  0  0  0  0  0  0  0  0  0  0
   12.2685  -15.8506   21.8266 N   0  0  0  0  0  0  0  0  0  0  0  0
   13.2461  -16.4584   22.6699 C   0  0  1  0  0  0  0  0  0  0  0  0
   14.4813  -15.6612   22.9232 C   0  0  0  0  0  0  0  0  0  0  0  0
   15.5161  -16.3444   23.7196 C   0  0  0  0  0  0  0  0  0  0  0  0
   15.7791  -16.0535   24.9124 O   0  0  0  0  0  0  0  0  0  0  0  0
   12.6957  -16.7933   24.0202 C   0  0  0  0  0  0  0  0  0  0  0  0
   13.3460  -17.6701   24.8429 O   0  0  0  0  0  0  0  0  0  0  0  0
   16.2570  -17.3682   23.1497 O   0  0  0  0  0  0  0  0  0  0  0  0
   11.6367  -16.2567   24.3741 O   0  0  0  0  0  0  0  0  0  0  0  0
  2  1  1  1
  2  3  1  0
  4  3  1  0
  5  4  1  0
  6  5  1  0
  7  6  1  0
  8  9  2  0
  8  2  1  0
 10  8  1  0
 11 10  1  0
 11 12  1  1
 12 13  1  0
 13 17  1  0
 13 14  2  0
 14 15  1  0
 16 15  1  0
 17 16  2  0
 18 20  1  0
 18 11  1  0
 19 18  2  0
 21 25  1  0
 21 20  1  0
 21 22  1  1
 22 23  1  0
 23 27  1  0
 23 24  2  0
 25 26  1  0
 28 25  2  0
M  END
$$$$
