KHD.pdb
     RDKit          3D

 28 28  0  0  1  0  0  0  0  0999 V2000
    8.6117  -18.5006   17.6950 N   0  0  0  0  0  0  0  0  0  0  0  0
    9.7093  -17.7058   17.1801 C   0  0  1  0  0  0  0  0  0  0  0  0
    9.1093  -16.7899   16.1328 C   0  0  0  0  0  0  0  0  0  0  0  0
    8.1706  -17.4844   15.2160 C   0  0  0  0  0  0  0  0  0  0  0  0
    7.5001  -16.6606   14.1813 C   0  0  0  0  0  0  0  0  0  0  0  0
    6.5896  -17.4135   13.2504 C   0  0  0  0  0  0  0  0  0  0  0  0
    5.9561  -16.6068   12.2470 N   0  0  0  0  0  0  0  0  0  0  0  0
   10.2297  -16.8345   18.2593 C   0  0  0  0  0  0  0  0  0  0  0  0
   11.1137  -15.9937   17.9719 O   0  0  0  0  0  0  0  0  0  0  0  0
    9.7793  -16.9024   19.5997 N   0  0  0  0  0  0  0  0  0  0  0  0
   10.2846  -16.0274   20.6051 C   0  0  1  0  0  0  0  0  0  0  0  0
    9.2403  -15.3060   21.3834 C   0  0  0  0  0  0  0  0  0  0  0  0
    8.3076  -14.4868   20.5840 C   0  0  0  0  0  0  0  0  0  0  0  0
    8.5226  -13.1946   20.1674 C   0  0  0  0  0  0  0  0  0  0  0  0
    7.4314  -12.8066   19.4525 N   0  0  0  0  0  0  0  0  0  0  0  0
    6.5546  -13.8100   19.4135 C   0  0  0  0  0  0  0  0  0  0  0  0
    7.0901  -14.8187   20.0977 N   0  0  0  0  0  0  0  0  0  0  0  0
   11.3381  -16.6551   21.4468 C   0  0  0  0  0  0  0  0  0  0  0  0
   11.3198  -17.8765   21.7471 O   0  0  0  0  0  0  0  0  0  0  0  0
   12.4366  -15.9013   21.9684 N   0  0  0  0  0  0  0  0  0  0  0  0
   13.4948  -16.4282   22.7677 C   0  0  1  0  0  0  0  0  0  0  0  0
   14.6351  -15.5053   23.0383 C   0  0  0  0  0  0  0  0  0  0  0  0
   15.7996  -16.1236   23.6967 C   0  0  0  0  0  0  0  0  0  0  0  0
   16.0786  -15.9612   24.9101 O   0  0  0  0  0  0  0  0  0  0  0  0
   13.0146  -16.8836   24.1095 C   0  0  0  0  0  0  0  0  0  0  0  0
   13.4982  -18.0311   24.6731 O   0  0  0  0  0  0  0  0  0  0  0  0
   16.6528  -16.9342   22.9640 O   0  0  0  0  0  0  0  0  0  0  0  0
   12.1683  -16.1954   24.6968 O   0  0  0  0  0  0  0  0  0  0  0  0
  2  1  1  1
  2  3  1  0
  4  3  1  0
  5  4  1  0
  6  5  1  0
  7  6  1  0
  8  9  2  0
  8  2  1  0
 10  8  1  0
 11 10  1  0
 11 12  1  1
 12 13  1  0
 13 17  1  0
 13 14  2  0
 14 15  1  0
 16 15  1  0
 17 16  2  0
 18 20  1  0
 18 11  1  0
 19 18  2  0
 21 25  1  0
 21 20  1  0
 21 22  1  1
 22 23  1  0
 23 27  1  0
 23 24  2  0
 25 26  1  0
 28 25  2  0
M  END
$$$$
