KHD.pdb
     RDKit          3D

 28 28  0  0  1  0  0  0  0  0999 V2000
    8.1759  -15.4362   18.9424 N   0  0  0  0  0  0  0  0  0  0  0  0
    8.8584  -14.2622   19.4500 C   0  0  1  0  0  0  0  0  0  0  0  0
    8.1203  -13.0681   18.8796 C   0  0  0  0  0  0  0  0  0  0  0  0
    7.4062  -13.3710   17.6138 C   0  0  0  0  0  0  0  0  0  0  0  0
    8.2367  -13.6419   16.4155 C   0  0  0  0  0  0  0  0  0  0  0  0
    7.4736  -13.8245   15.1323 C   0  0  0  0  0  0  0  0  0  0  0  0
    8.2633  -14.2769   14.0230 N   0  0  0  0  0  0  0  0  0  0  0  0
    8.6951  -14.2003   20.9210 C   0  0  0  0  0  0  0  0  0  0  0  0
    9.2016  -13.2328   21.5363 O   0  0  0  0  0  0  0  0  0  0  0  0
    7.9957  -15.1782   21.6684 N   0  0  0  0  0  0  0  0  0  0  0  0
    8.0824  -15.2385   23.0899 C   0  0  1  0  0  0  0  0  0  0  0  0
    6.7812  -15.0940   23.7987 C   0  0  0  0  0  0  0  0  0  0  0  0
    6.8168  -14.2761   25.0275 C   0  0  0  0  0  0  0  0  0  0  0  0
    7.9371  -13.7092   25.5871 C   0  0  0  0  0  0  0  0  0  0  0  0
    7.5427  -13.0323   26.7000 N   0  0  0  0  0  0  0  0  0  0  0  0
    6.2239  -13.1610   26.8458 C   0  0  0  0  0  0  0  0  0  0  0  0
    5.7941  -13.9120   25.8340 N   0  0  0  0  0  0  0  0  0  0  0  0
    8.9103  -16.3751   23.5746 C   0  0  0  0  0  0  0  0  0  0  0  0
    8.7491  -17.5506   23.1567 O   0  0  0  0  0  0  0  0  0  0  0  0
    9.9405  -16.1966   24.5511 N   0  0  0  0  0  0  0  0  0  0  0  0
   10.6891  -17.2456   25.1638 C   0  0  1  0  0  0  0  0  0  0  0  0
   12.1658  -17.2060   24.9562 C   0  0  0  0  0  0  0  0  0  0  0  0
   12.6007  -17.1844   23.5482 C   0  0  0  0  0  0  0  0  0  0  0  0
   13.2310  -16.2297   23.0307 O   0  0  0  0  0  0  0  0  0  0  0  0
   10.4891  -17.2893   26.6459 C   0  0  0  0  0  0  0  0  0  0  0  0
   11.0196  -18.3031   27.3937 O   0  0  0  0  0  0  0  0  0  0  0  0
   12.3137  -18.2616   22.7241 O   0  0  0  0  0  0  0  0  0  0  0  0
    9.8314  -16.3846   27.1783 O   0  0  0  0  0  0  0  0  0  0  0  0
  2  1  1  6
  2  3  1  0
  4  3  1  0
  5  4  1  0
  6  5  1  0
  7  6  1  0
  8  9  2  0
  8  2  1  0
 10  8  1  0
 11 10  1  0
 11 12  1  1
 12 13  1  0
 13 17  1  0
 13 14  2  0
 14 15  1  0
 16 15  1  0
 17 16  2  0
 18 20  1  0
 18 11  1  0
 19 18  2  0
 21 25  1  0
 21 20  1  0
 21 22  1  1
 22 23  1  0
 23 27  1  0
 23 24  2  0
 25 26  1  0
 28 25  2  0
M  END
$$$$
