KHD.pdb
     RDKit          3D

 28 28  0  0  1  0  0  0  0  0999 V2000
   83.4155  -30.0471   -2.4443 N   0  0  0  0  0  0  0  0  0  0  0  0
   84.8243  -29.9057   -2.1330 C   0  0  1  0  0  0  0  0  0  0  0  0
   84.8890  -29.2427   -0.7721 C   0  0  0  0  0  0  0  0  0  0  0  0
   86.2407  -29.2930   -0.1599 C   0  0  0  0  0  0  0  0  0  0  0  0
   87.1576  -28.1638   -0.4482 C   0  0  0  0  0  0  0  0  0  0  0  0
   88.2269  -28.4479   -1.4670 C   0  0  0  0  0  0  0  0  0  0  0  0
   87.7779  -29.1683   -2.6240 N   0  0  0  0  0  0  0  0  0  0  0  0
   85.4281  -31.2499   -1.9805 C   0  0  0  0  0  0  0  0  0  0  0  0
   85.5236  -31.7326   -0.8278 O   0  0  0  0  0  0  0  0  0  0  0  0
   85.9028  -32.0181   -3.0707 N   0  0  0  0  0  0  0  0  0  0  0  0
   85.7866  -33.4386   -3.0932 C   0  0  1  0  0  0  0  0  0  0  0  0
   87.0600  -34.1622   -3.3604 C   0  0  0  0  0  0  0  0  0  0  0  0
   87.5457  -34.0964   -4.7532 C   0  0  0  0  0  0  0  0  0  0  0  0
   87.4995  -32.9934   -5.5724 C   0  0  0  0  0  0  0  0  0  0  0  0
   88.0528  -33.3444   -6.7653 N   0  0  0  0  0  0  0  0  0  0  0  0
   88.4372  -34.6197   -6.7108 C   0  0  0  0  0  0  0  0  0  0  0  0
   88.1280  -35.0656   -5.4951 N   0  0  0  0  0  0  0  0  0  0  0  0
   85.0170  -33.9777   -1.9403 C   0  0  0  0  0  0  0  0  0  0  0  0
   85.4425  -33.9124   -0.7583 O   0  0  0  0  0  0  0  0  0  0  0  0
   83.7437  -34.6075   -2.1105 N   0  0  0  0  0  0  0  0  0  0  0  0
   82.6448  -34.5077   -1.2056 C   0  0  1  0  0  0  0  0  0  0  0  0
   81.9768  -33.1761   -1.1284 C   0  0  0  0  0  0  0  0  0  0  0  0
   82.8565  -32.0185   -1.3685 C   0  0  0  0  0  0  0  0  0  0  0  0
   82.9472  -31.4329   -2.4755 O   0  0  0  0  0  0  0  0  0  0  0  0
   81.5603  -35.4874   -1.5258 C   0  0  0  0  0  0  0  0  0  0  0  0
   81.8181  -36.5912   -2.2897 O   0  0  0  0  0  0  0  0  0  0  0  0
   83.6395  -31.5249   -0.3363 O   0  0  0  0  0  0  0  0  0  0  0  0
   80.4237  -35.2737   -1.0818 O   0  0  0  0  0  0  0  0  0  0  0  0
  2  1  1  1
  2  3  1  0
  4  3  1  0
  5  4  1  0
  6  5  1  0
  7  6  1  0
  8  9  2  0
  8  2  1  0
 10  8  1  0
 11 10  1  0
 11 12  1  1
 12 13  1  0
 13 17  1  0
 13 14  2  0
 14 15  1  0
 16 15  1  0
 17 16  2  0
 18 20  1  0
 18 11  1  0
 19 18  2  0
 21 25  1  0
 21 20  1  0
 21 22  1  6
 22 23  1  0
 23 27  1  0
 23 24  2  0
 25 26  1  0
 28 25  2  0
M  END
$$$$
