KHD.pdb
     RDKit          3D

 28 28  0  0  1  0  0  0  0  0999 V2000
    7.9555  -19.0819   18.7621 N   0  0  0  0  0  0  0  0  0  0  0  0
    8.9722  -18.2488   18.1506 C   0  0  1  0  0  0  0  0  0  0  0  0
    8.2758  -17.4782   17.0474 C   0  0  0  0  0  0  0  0  0  0  0  0
    8.7874  -17.8042   15.6924 C   0  0  0  0  0  0  0  0  0  0  0  0
    9.7765  -16.8721   15.0992 C   0  0  0  0  0  0  0  0  0  0  0  0
   10.1072  -17.1205   13.6531 C   0  0  0  0  0  0  0  0  0  0  0  0
   11.1690  -16.3084   13.1317 N   0  0  0  0  0  0  0  0  0  0  0  0
    9.4421  -17.2484   19.1371 C   0  0  0  0  0  0  0  0  0  0  0  0
   10.4337  -16.5410   18.8418 O   0  0  0  0  0  0  0  0  0  0  0  0
    8.8280  -17.0499   20.3971 N   0  0  0  0  0  0  0  0  0  0  0  0
    9.3258  -16.0949   21.3309 C   0  0  1  0  0  0  0  0  0  0  0  0
    8.4031  -14.9606   21.6115 C   0  0  0  0  0  0  0  0  0  0  0  0
    7.9864  -14.1765   20.4319 C   0  0  0  0  0  0  0  0  0  0  0  0
    8.6825  -13.1327   19.8700 C   0  0  0  0  0  0  0  0  0  0  0  0
    7.9666  -12.6900   18.8006 N   0  0  0  0  0  0  0  0  0  0  0  0
    6.8580  -13.4211   18.6834 C   0  0  0  0  0  0  0  0  0  0  0  0
    6.8775  -14.3146   19.6702 N   0  0  0  0  0  0  0  0  0  0  0  0
    9.9015  -16.7201   22.5516 C   0  0  0  0  0  0  0  0  0  0  0  0
    9.3760  -17.7187   23.1073 O   0  0  0  0  0  0  0  0  0  0  0  0
   11.0904  -16.2172   23.1686 N   0  0  0  0  0  0  0  0  0  0  0  0
   11.8244  -16.8709   24.2031 C   0  0  1  0  0  0  0  0  0  0  0  0
   13.2318  -16.4161   24.3974 C   0  0  0  0  0  0  0  0  0  0  0  0
   14.2385  -17.1316   23.5935 C   0  0  0  0  0  0  0  0  0  0  0  0
   13.9766  -18.1349   22.8854 O   0  0  0  0  0  0  0  0  0  0  0  0
   11.1645  -16.7290   25.5384 C   0  0  0  0  0  0  0  0  0  0  0  0
   11.5843  -17.4688   26.6083 O   0  0  0  0  0  0  0  0  0  0  0  0
   15.5555  -16.6984   23.5980 O   0  0  0  0  0  0  0  0  0  0  0  0
   10.2288  -15.9248   25.6503 O   0  0  0  0  0  0  0  0  0  0  0  0
  2  1  1  1
  2  3  1  0
  4  3  1  0
  5  4  1  0
  6  5  1  0
  7  6  1  0
  8  9  2  0
  8  2  1  0
 10  8  1  0
 11 10  1  0
 11 12  1  1
 12 13  1  0
 13 17  1  0
 13 14  2  0
 14 15  1  0
 16 15  1  0
 17 16  2  0
 18 20  1  0
 18 11  1  0
 19 18  2  0
 21 25  1  0
 21 20  1  0
 21 22  1  1
 22 23  1  0
 23 27  1  0
 23 24  2  0
 25 26  1  0
 28 25  2  0
M  END
$$$$
