KHD.pdb
     RDKit          3D

 28 28  0  0  1  0  0  0  0  0999 V2000
    6.5030  -16.1606   19.4783 N   0  0  0  0  0  0  0  0  0  0  0  0
    7.6153  -15.8827   20.3656 C   0  0  1  0  0  0  0  0  0  0  0  0
    7.6197  -14.3821   20.5759 C   0  0  0  0  0  0  0  0  0  0  0  0
    8.2901  -13.6391   19.4793 C   0  0  0  0  0  0  0  0  0  0  0  0
    8.3740  -12.1646   19.6124 C   0  0  0  0  0  0  0  0  0  0  0  0
    9.1060  -11.4595   18.5036 C   0  0  0  0  0  0  0  0  0  0  0  0
    9.1082  -10.0280   18.6007 N   0  0  0  0  0  0  0  0  0  0  0  0
    7.3507  -16.4967   21.6875 C   0  0  0  0  0  0  0  0  0  0  0  0
    6.1732  -16.5022   22.1169 O   0  0  0  0  0  0  0  0  0  0  0  0
    8.3603  -17.0784   22.4916 N   0  0  0  0  0  0  0  0  0  0  0  0
    8.0907  -17.5461   23.8108 C   0  0  1  0  0  0  0  0  0  0  0  0
    7.7663  -18.9963   23.9020 C   0  0  0  0  0  0  0  0  0  0  0  0
    7.5475  -19.5116   25.2682 C   0  0  0  0  0  0  0  0  0  0  0  0
    7.5196  -18.7602   26.4190 C   0  0  0  0  0  0  0  0  0  0  0  0
    7.2837  -19.6078   27.4574 N   0  0  0  0  0  0  0  0  0  0  0  0
    7.1654  -20.8505   26.9894 C   0  0  0  0  0  0  0  0  0  0  0  0
    7.3257  -20.7839   25.6695 N   0  0  0  0  0  0  0  0  0  0  0  0
    9.0964  -17.0893   24.8069 C   0  0  0  0  0  0  0  0  0  0  0  0
   10.3336  -17.1419   24.5859 O   0  0  0  0  0  0  0  0  0  0  0  0
    8.7126  -16.5641   26.0812 N   0  0  0  0  0  0  0  0  0  0  0  0
    9.6116  -16.1462   27.1075 C   0  0  1  0  0  0  0  0  0  0  0  0
    9.0316  -15.2822   28.1764 C   0  0  0  0  0  0  0  0  0  0  0  0
    9.9871  -14.8267   29.2017 C   0  0  0  0  0  0  0  0  0  0  0  0
   10.4982  -15.5863   30.0610 O   0  0  0  0  0  0  0  0  0  0  0  0
   10.2348  -17.3063   27.8176 C   0  0  0  0  0  0  0  0  0  0  0  0
   11.5599  -17.2915   28.1526 O   0  0  0  0  0  0  0  0  0  0  0  0
   10.3625  -13.4928   29.2466 O   0  0  0  0  0  0  0  0  0  0  0  0
    9.5207  -18.2800   28.0943 O   0  0  0  0  0  0  0  0  0  0  0  0
  2  1  1  6
  2  3  1  0
  4  3  1  0
  5  4  1  0
  6  5  1  0
  7  6  1  0
  8  9  2  0
  8  2  1  0
 10  8  1  0
 11 10  1  0
 11 12  1  6
 12 13  1  0
 13 17  1  0
 13 14  2  0
 14 15  1  0
 16 15  1  0
 17 16  2  0
 18 20  1  0
 18 11  1  0
 19 18  2  0
 21 25  1  0
 21 20  1  0
 21 22  1  1
 22 23  1  0
 23 27  1  0
 23 24  2  0
 25 26  1  0
 28 25  2  0
M  END
$$$$
