KHD.pdb
     RDKit          3D

 28 28  0  0  1  0  0  0  0  0999 V2000
    9.2771  -18.3495   16.8169 N   0  0  0  0  0  0  0  0  0  0  0  0
    8.6807  -18.4907   18.1306 C   0  0  1  0  0  0  0  0  0  0  0  0
    9.2445  -19.7712   18.7123 C   0  0  0  0  0  0  0  0  0  0  0  0
   10.3485  -20.3457   17.9029 C   0  0  0  0  0  0  0  0  0  0  0  0
   10.4927  -21.8215   17.9044 C   0  0  0  0  0  0  0  0  0  0  0  0
   11.6404  -22.3562   17.0925 C   0  0  0  0  0  0  0  0  0  0  0  0
   11.7842  -23.7835   17.1231 N   0  0  0  0  0  0  0  0  0  0  0  0
    9.1480  -17.3864   19.0004 C   0  0  0  0  0  0  0  0  0  0  0  0
   10.3149  -16.9569   18.8427 O   0  0  0  0  0  0  0  0  0  0  0  0
    8.3436  -16.7903   20.0014 N   0  0  0  0  0  0  0  0  0  0  0  0
    8.7929  -15.6647   20.7517 C   0  0  1  0  0  0  0  0  0  0  0  0
    7.8483  -14.5141   20.7720 C   0  0  0  0  0  0  0  0  0  0  0  0
    7.5268  -13.9354   19.4522 C   0  0  0  0  0  0  0  0  0  0  0  0
    7.8427  -12.6661   19.0292 C   0  0  0  0  0  0  0  0  0  0  0  0
    7.3801  -12.5303   17.7565 N   0  0  0  0  0  0  0  0  0  0  0  0
    6.7927  -13.6665   17.3810 C   0  0  0  0  0  0  0  0  0  0  0  0
    6.8852  -14.5080   18.4085 N   0  0  0  0  0  0  0  0  0  0  0  0
    9.3238  -16.0328   22.0914 C   0  0  0  0  0  0  0  0  0  0  0  0
    8.5718  -16.2508   23.0760 O   0  0  0  0  0  0  0  0  0  0  0  0
   10.7273  -16.1577   22.3393 N   0  0  0  0  0  0  0  0  0  0  0  0
   11.3124  -16.7859   23.4793 C   0  0  1  0  0  0  0  0  0  0  0  0
   11.1883  -18.2709   23.5464 C   0  0  0  0  0  0  0  0  0  0  0  0
   11.8259  -18.9012   24.7160 C   0  0  0  0  0  0  0  0  0  0  0  0
   12.8106  -19.6763   24.6365 O   0  0  0  0  0  0  0  0  0  0  0  0
   12.7757  -16.4957   23.5935 C   0  0  0  0  0  0  0  0  0  0  0  0
   13.4377  -15.8352   22.5967 O   0  0  0  0  0  0  0  0  0  0  0  0
   11.3357  -18.6445   25.9872 O   0  0  0  0  0  0  0  0  0  0  0  0
   13.3722  -16.8687   24.6132 O   0  0  0  0  0  0  0  0  0  0  0  0
  2  1  1  6
  2  3  1  0
  4  3  1  0
  5  4  1  0
  6  5  1  0
  7  6  1  0
  8  9  2  0
  8  2  1  0
 10  8  1  0
 11 10  1  0
 11 12  1  1
 12 13  1  0
 13 17  1  0
 13 14  2  0
 14 15  1  0
 16 15  1  0
 17 16  2  0
 18 20  1  0
 18 11  1  0
 19 18  2  0
 21 25  1  0
 21 20  1  0
 21 22  1  6
 22 23  1  0
 23 27  1  0
 23 24  2  0
 25 26  1  0
 28 25  2  0
M  END
$$$$
