TNR.pdb
     RDKit          3D

 27 26  0  0  1  0  0  0  0  0999 V2000
   24.6245  -13.1801  -16.7932 C   0  0  0  0  0  0  0  0  0  0  0  0
   24.5398  -14.6036  -16.2850 C   0  0  1  0  0  0  0  0  0  0  0  0
   24.2977  -14.4926  -14.8987 O   0  0  0  0  0  0  0  0  0  0  0  0
   23.3128  -15.2648  -16.8757 C   0  0  2  0  0  0  0  0  0  0  0  0
   22.1076  -14.5420  -16.5682 N   0  0  0  0  0  0  0  0  0  0  0  0
   23.1592  -16.6623  -16.4134 C   0  0  0  0  0  0  0  0  0  0  0  0
   22.2680  -17.0201  -15.5857 O   0  0  0  0  0  0  0  0  0  0  0  0
   23.5077  -22.1109  -18.2022 N   0  0  0  0  0  0  0  0  0  0  0  0
   24.5297  -21.1849  -17.8530 C   0  0  0  0  0  0  0  0  0  0  0  0
   25.6365  -21.6444  -17.5115 O   0  0  0  0  0  0  0  0  0  0  0  0
   24.2972  -19.7542  -17.8903 C   0  0  0  0  0  0  0  0  0  0  0  0
   23.8755  -19.0887  -16.6264 C   0  0  2  0  0  0  0  0  0  0  0  0
   24.0231  -17.6433  -16.8991 N   0  0  0  0  0  0  0  0  0  0  0  0
   24.7961  -19.3979  -15.5195 C   0  0  0  0  0  0  0  0  0  0  0  0
   25.9609  -18.8489  -15.5779 O   0  0  0  0  0  0  0  0  0  0  0  0
   24.3265  -20.6399   -7.0346 N   0  0  0  0  0  0  0  0  0  0  0  0
   23.9443  -21.6086   -8.0062 C   0  0  0  0  0  0  0  0  0  0  0  0
   23.0377  -22.4705   -7.7162 N   0  0  0  0  0  0  0  0  0  0  0  0
   24.5908  -21.5718   -9.2634 N   0  0  0  0  0  0  0  0  0  0  0  0
   25.5203  -20.5210   -9.5971 C   0  0  0  0  0  0  0  0  0  0  0  0
   26.0552  -20.7339  -11.0118 C   0  0  0  0  0  0  0  0  0  0  0  0
   24.9957  -20.4864  -12.0383 C   0  0  0  0  0  0  0  0  0  0  0  0
   25.5653  -20.4061  -13.4103 C   0  0  2  0  0  0  0  0  0  0  0  0
   24.5020  -20.2378  -14.4057 N   0  0  0  0  0  0  0  0  0  0  0  0
   26.3377  -21.6044  -13.7543 C   0  0  0  0  0  0  0  0  0  0  0  0
   25.8500  -22.6521  -14.2730 O   0  0  0  0  0  0  0  0  0  0  0  0
   27.7240  -21.6453  -13.5106 O   0  0  0  0  0  0  0  0  0  0  0  0
  2  1  1  6
  2  4  1  0
  3  2  1  0
  4  6  1  0
  4  5  1  1
  6  7  2  0
  8  9  1  0
  9 11  1  0
 10  9  2  0
 12 11  1  6
 13 12  1  0
 13  6  1  0
 14 15  2  0
 14 12  1  0
 16 17  1  0
 17 19  1  0
 18 17  2  0
 19 20  1  0
 21 20  1  0
 21 22  1  0
 23 22  1  1
 23 25  1  0
 23 24  1  0
 24 14  1  0
 25 27  1  0
 26 25  2  0
M  END
$$$$
