TNR.pdb
     RDKit          3D

 27 26  0  0  1  0  0  0  0  0999 V2000
   28.4537  -20.8959  -17.1620 C   0  0  0  0  0  0  0  0  0  0  0  0
   27.2906  -19.9870  -16.8259 C   0  0  1  0  0  0  0  0  0  0  0  0
   26.1610  -20.8315  -16.7641 O   0  0  0  0  0  0  0  0  0  0  0  0
   27.4832  -19.4376  -15.4286 C   0  0  2  0  0  0  0  0  0  0  0  0
   27.7261  -20.4789  -14.4663 N   0  0  0  0  0  0  0  0  0  0  0  0
   26.3198  -18.6398  -14.9811 C   0  0  0  0  0  0  0  0  0  0  0  0
   25.5959  -18.9709  -13.9943 O   0  0  0  0  0  0  0  0  0  0  0  0
   25.6725  -13.0237  -15.0587 N   0  0  0  0  0  0  0  0  0  0  0  0
   24.7520  -14.0852  -15.2823 C   0  0  0  0  0  0  0  0  0  0  0  0
   23.5869  -13.9399  -14.8648 O   0  0  0  0  0  0  0  0  0  0  0  0
   25.1501  -15.2974  -15.9709 C   0  0  0  0  0  0  0  0  0  0  0  0
   24.8469  -16.5984  -15.3123 C   0  0  2  0  0  0  0  0  0  0  0  0
   25.9898  -17.4684  -15.6621 N   0  0  0  0  0  0  0  0  0  0  0  0
   23.6508  -17.2320  -15.8922 C   0  0  0  0  0  0  0  0  0  0  0  0
   23.8454  -17.9734  -16.9285 O   0  0  0  0  0  0  0  0  0  0  0  0
   19.4529  -23.9408  -13.7763 N   0  0  0  0  0  0  0  0  0  0  0  0
   18.6371  -23.4783  -14.8483 C   0  0  0  0  0  0  0  0  0  0  0  0
   17.6012  -24.1551  -15.1913 N   0  0  0  0  0  0  0  0  0  0  0  0
   19.0130  -22.2760  -15.4912 N   0  0  0  0  0  0  0  0  0  0  0  0
   20.0775  -21.4516  -14.9747 C   0  0  0  0  0  0  0  0  0  0  0  0
   20.1771  -20.1645  -15.7910 C   0  0  0  0  0  0  0  0  0  0  0  0
   21.3023  -19.3021  -15.3139 C   0  0  0  0  0  0  0  0  0  0  0  0
   21.3076  -17.9777  -15.9916 C   0  0  2  0  0  0  0  0  0  0  0  0
   22.3192  -17.0956  -15.4015 N   0  0  0  0  0  0  0  0  0  0  0  0
   20.0037  -17.3120  -15.9045 C   0  0  0  0  0  0  0  0  0  0  0  0
   19.7123  -16.4037  -15.0711 O   0  0  0  0  0  0  0  0  0  0  0  0
   18.9667  -17.6714  -16.7867 O   0  0  0  0  0  0  0  0  0  0  0  0
  2  1  1  1
  2  4  1  0
  3  2  1  0
  4  6  1  0
  4  5  1  1
  6  7  2  0
  8  9  1  0
  9 11  1  0
 10  9  2  0
 12 11  1  6
 13 12  1  0
 13  6  1  0
 14 15  2  0
 14 12  1  0
 16 17  1  0
 17 19  1  0
 18 17  2  0
 19 20  1  0
 21 20  1  0
 21 22  1  0
 23 22  1  1
 23 25  1  0
 23 24  1  0
 24 14  1  0
 25 27  1  0
 26 25  2  0
M  END
$$$$
