TNR.pdb
     RDKit          3D

 27 26  0  0  1  0  0  0  0  0999 V2000
   15.5639   -8.4585  -14.7391 C   0  0  0  0  0  0  0  0  0  0  0  0
   16.0274   -9.8833  -14.9561 C   0  0  1  0  0  0  0  0  0  0  0  0
   15.6909  -10.1872  -16.2930 O   0  0  0  0  0  0  0  0  0  0  0  0
   17.5387   -9.9258  -14.8816 C   0  0  2  0  0  0  0  0  0  0  0  0
   18.0625  -11.2149  -15.2467 N   0  0  0  0  0  0  0  0  0  0  0  0
   18.0375   -9.5755  -13.5329 C   0  0  0  0  0  0  0  0  0  0  0  0
   17.6623  -10.1771  -12.4819 O   0  0  0  0  0  0  0  0  0  0  0  0
   20.8591   -6.6018  -10.0198 N   0  0  0  0  0  0  0  0  0  0  0  0
   21.3776   -6.5997  -11.3445 C   0  0  0  0  0  0  0  0  0  0  0  0
   22.4549   -6.0063  -11.5446 O   0  0  0  0  0  0  0  0  0  0  0  0
   20.6805   -7.2628  -12.4292 C   0  0  0  0  0  0  0  0  0  0  0  0
   19.4557   -8.0402  -12.0916 C   0  0  2  0  0  0  0  0  0  0  0  0
   18.9621   -8.5411  -13.3919 N   0  0  0  0  0  0  0  0  0  0  0  0
   18.3958   -7.1718  -11.5524 C   0  0  0  0  0  0  0  0  0  0  0  0
   17.9442   -6.2639  -12.3483 O   0  0  0  0  0  0  0  0  0  0  0  0
   11.5131   -8.9954   -7.6150 N   0  0  0  0  0  0  0  0  0  0  0  0
   12.4150   -9.6653   -8.4904 C   0  0  0  0  0  0  0  0  0  0  0  0
   12.2805  -10.9263   -8.6917 N   0  0  0  0  0  0  0  0  0  0  0  0
   13.4294   -8.8960   -9.1063 N   0  0  0  0  0  0  0  0  0  0  0  0
   13.3323   -7.4598   -9.1919 C   0  0  0  0  0  0  0  0  0  0  0  0
   14.5194   -6.9074   -9.9784 C   0  0  0  0  0  0  0  0  0  0  0  0
   15.7357   -6.7863   -9.1162 C   0  0  0  0  0  0  0  0  0  0  0  0
   16.8861   -6.2102   -9.8633 C   0  0  2  0  0  0  0  0  0  0  0  0
   17.8369   -7.2594  -10.2438 N   0  0  0  0  0  0  0  0  0  0  0  0
   17.6004   -5.1998   -9.0762 C   0  0  0  0  0  0  0  0  0  0  0  0
   18.6794   -5.4072   -8.4460 O   0  0  0  0  0  0  0  0  0  0  0  0
   17.0928   -3.8897   -8.9812 O   0  0  0  0  0  0  0  0  0  0  0  0
  2  1  1  6
  2  4  1  0
  3  2  1  0
  4  6  1  0
  4  5  1  1
  6  7  2  0
  8  9  1  0
  9 11  1  0
 10  9  2  0
 12 11  1  6
 13 12  1  0
 13  6  1  0
 14 15  2  0
 14 12  1  0
 16 17  1  0
 17 19  1  0
 18 17  2  0
 19 20  1  0
 21 20  1  0
 21 22  1  0
 23 22  1  1
 23 25  1  0
 23 24  1  0
 24 14  1  0
 25 27  1  0
 26 25  2  0
M  END
$$$$
