TNR.pdb
     RDKit          3D

 27 26  0  0  1  0  0  0  0  0999 V2000
   25.7370  -15.3835  -15.8307 C   0  0  0  0  0  0  0  0  0  0  0  0
   25.2662  -16.6971  -15.2434 C   0  0  1  0  0  0  0  0  0  0  0  0
   24.2999  -17.1870  -16.1484 O   0  0  0  0  0  0  0  0  0  0  0  0
   26.4109  -17.6872  -15.2720 C   0  0  2  0  0  0  0  0  0  0  0  0
   26.9161  -17.8922  -16.6031 N   0  0  0  0  0  0  0  0  0  0  0  0
   26.0245  -18.9981  -14.7039 C   0  0  0  0  0  0  0  0  0  0  0  0
   26.0854  -20.0795  -15.3629 O   0  0  0  0  0  0  0  0  0  0  0  0
   26.2864  -22.5561  -11.1187 N   0  0  0  0  0  0  0  0  0  0  0  0
   26.3548  -21.2433  -10.5747 C   0  0  0  0  0  0  0  0  0  0  0  0
   26.8837  -21.1066   -9.4548 O   0  0  0  0  0  0  0  0  0  0  0  0
   25.8278  -20.0998  -11.2936 C   0  0  0  0  0  0  0  0  0  0  0  0
   25.2998  -20.3295  -12.6672 C   0  0  2  0  0  0  0  0  0  0  0  0
   25.5715  -19.0671  -13.3868 N   0  0  0  0  0  0  0  0  0  0  0  0
   23.8369  -20.4977  -12.6628 C   0  0  0  0  0  0  0  0  0  0  0  0
   23.1435  -19.4416  -12.4067 O   0  0  0  0  0  0  0  0  0  0  0  0
   19.1056  -24.0097   -7.9510 N   0  0  0  0  0  0  0  0  0  0  0  0
   18.8347  -24.3687   -9.3024 C   0  0  0  0  0  0  0  0  0  0  0  0
   18.3733  -25.5378   -9.5651 N   0  0  0  0  0  0  0  0  0  0  0  0
   19.0893  -23.4036  -10.3044 N   0  0  0  0  0  0  0  0  0  0  0  0
   19.4763  -22.0564   -9.9655 C   0  0  0  0  0  0  0  0  0  0  0  0
   19.8041  -21.2773  -11.2377 C   0  0  0  0  0  0  0  0  0  0  0  0
   21.2813  -21.1767  -11.4500 C   0  0  0  0  0  0  0  0  0  0  0  0
   21.6807  -21.6770  -12.7929 C   0  0  2  0  0  0  0  0  0  0  0  0
   23.1408  -21.7149  -12.9207 N   0  0  0  0  0  0  0  0  0  0  0  0
   21.1420  -20.8420  -13.8716 C   0  0  0  0  0  0  0  0  0  0  0  0
   21.5863  -19.6990  -14.1888 O   0  0  0  0  0  0  0  0  0  0  0  0
   20.0529  -21.2964  -14.6398 O   0  0  0  0  0  0  0  0  0  0  0  0
  2  1  1  6
  2  4  1  0
  3  2  1  0
  4  6  1  0
  4  5  1  6
  6  7  2  0
  8  9  1  0
  9 11  1  0
 10  9  2  0
 12 11  1  1
 13 12  1  0
 13  6  1  0
 14 15  2  0
 14 12  1  0
 16 17  1  0
 17 19  1  0
 18 17  2  0
 19 20  1  0
 21 20  1  0
 21 22  1  0
 23 22  1  1
 23 25  1  0
 23 24  1  0
 24 14  1  0
 25 27  1  0
 26 25  2  0
M  END
$$$$
