TNR.pdb
     RDKit          3D

 27 26  0  0  1  0  0  0  0  0999 V2000
   28.9806  -24.3540  -16.4680 C   0  0  0  0  0  0  0  0  0  0  0  0
   28.5309  -24.3402  -17.9135 C   0  0  1  0  0  0  0  0  0  0  0  0
   27.1278  -24.1911  -17.8679 O   0  0  0  0  0  0  0  0  0  0  0  0
   29.0660  -23.0927  -18.5834 C   0  0  2  0  0  0  0  0  0  0  0  0
   30.4897  -23.1523  -18.7803 N   0  0  0  0  0  0  0  0  0  0  0  0
   28.7438  -21.8693  -17.8154 C   0  0  0  0  0  0  0  0  0  0  0  0
   29.4310  -21.4767  -16.8249 O   0  0  0  0  0  0  0  0  0  0  0  0
   28.5219  -17.8455  -20.3441 N   0  0  0  0  0  0  0  0  0  0  0  0
   28.0025  -17.9307  -19.0224 C   0  0  0  0  0  0  0  0  0  0  0  0
   28.4547  -17.1424  -18.1699 O   0  0  0  0  0  0  0  0  0  0  0  0
   26.9827  -18.9003  -18.6729 C   0  0  0  0  0  0  0  0  0  0  0  0
   27.2657  -19.8236  -17.5390 C   0  0  2  0  0  0  0  0  0  0  0  0
   27.6398  -21.1007  -18.1829 N   0  0  0  0  0  0  0  0  0  0  0  0
   26.0534  -20.0970  -16.7491 C   0  0  0  0  0  0  0  0  0  0  0  0
   25.2037  -20.9117  -17.2743 O   0  0  0  0  0  0  0  0  0  0  0  0
   25.0966  -20.6122   -8.3435 N   0  0  0  0  0  0  0  0  0  0  0  0
   23.7593  -20.8637   -8.7639 C   0  0  0  0  0  0  0  0  0  0  0  0
   22.8456  -21.0565   -7.8825 N   0  0  0  0  0  0  0  0  0  0  0  0
   23.4987  -20.8871  -10.1537 N   0  0  0  0  0  0  0  0  0  0  0  0
   24.5557  -20.7018  -11.1171 C   0  0  0  0  0  0  0  0  0  0  0  0
   23.9816  -20.7566  -12.5314 C   0  0  0  0  0  0  0  0  0  0  0  0
   24.5158  -19.6468  -13.3801 C   0  0  0  0  0  0  0  0  0  0  0  0
   24.5244  -20.0108  -14.8225 C   0  0  2  0  0  0  0  0  0  0  0  0
   25.7550  -19.5445  -15.4691 N   0  0  0  0  0  0  0  0  0  0  0  0
   23.3789  -19.4402  -15.5388 C   0  0  0  0  0  0  0  0  0  0  0  0
   23.1270  -18.2019  -15.6256 O   0  0  0  0  0  0  0  0  0  0  0  0
   22.4629  -20.2858  -16.1937 O   0  0  0  0  0  0  0  0  0  0  0  0
  2  1  1  1
  2  4  1  0
  3  2  1  0
  4  6  1  0
  4  5  1  1
  6  7  2  0
  8  9  1  0
  9 11  1  0
 10  9  2  0
 12 11  1  6
 13 12  1  0
 13  6  1  0
 14 15  2  0
 14 12  1  0
 16 17  1  0
 17 19  1  0
 18 17  2  0
 19 20  1  0
 21 20  1  0
 21 22  1  0
 23 22  1  1
 23 25  1  0
 23 24  1  0
 24 14  1  0
 25 27  1  0
 26 25  2  0
M  END
$$$$
