TNR.pdb
     RDKit          3D

 27 26  0  0  1  0  0  0  0  0999 V2000
   18.7120  -23.7254  -15.4749 C   0  0  0  0  0  0  0  0  0  0  0  0
   19.9397  -23.9984  -16.3174 C   0  0  1  0  0  0  0  0  0  0  0  0
   19.4802  -24.0232  -17.6520 O   0  0  0  0  0  0  0  0  0  0  0  0
   20.8787  -22.8153  -16.2167 C   0  0  2  0  0  0  0  0  0  0  0  0
   22.0641  -22.9960  -17.0112 N   0  0  0  0  0  0  0  0  0  0  0  0
   21.2812  -22.5443  -14.8185 C   0  0  0  0  0  0  0  0  0  0  0  0
   22.4088  -22.8832  -14.3482 O   0  0  0  0  0  0  0  0  0  0  0  0
   21.2566  -19.8782  -10.2296 N   0  0  0  0  0  0  0  0  0  0  0  0
   20.9154  -19.2139  -11.4404 C   0  0  0  0  0  0  0  0  0  0  0  0
   20.8417  -17.9701  -11.4185 O   0  0  0  0  0  0  0  0  0  0  0  0
   20.6598  -19.9532  -12.6612 C   0  0  0  0  0  0  0  0  0  0  0  0
   20.7357  -21.4393  -12.5987 C   0  0  2  0  0  0  0  0  0  0  0  0
   20.3947  -21.8876  -13.9655 N   0  0  0  0  0  0  0  0  0  0  0  0
   19.7024  -21.9964  -11.7098 C   0  0  0  0  0  0  0  0  0  0  0  0
   18.4838  -21.8883  -12.1159 O   0  0  0  0  0  0  0  0  0  0  0  0
   18.4857  -26.8287   -4.4535 N   0  0  0  0  0  0  0  0  0  0  0  0
   17.2093  -26.2721   -4.7525 C   0  0  0  0  0  0  0  0  0  0  0  0
   16.1706  -26.7056   -4.1344 N   0  0  0  0  0  0  0  0  0  0  0  0
   17.1479  -25.2516   -5.7296 N   0  0  0  0  0  0  0  0  0  0  0  0
   18.3315  -24.8058   -6.4224 C   0  0  0  0  0  0  0  0  0  0  0  0
   17.9567  -23.7473   -7.4577 C   0  0  0  0  0  0  0  0  0  0  0  0
   19.1421  -23.3385   -8.2732 C   0  0  0  0  0  0  0  0  0  0  0  0
   18.7607  -23.0052   -9.6721 C   0  0  2  0  0  0  0  0  0  0  0  0
   19.9418  -22.6393  -10.4600 N   0  0  0  0  0  0  0  0  0  0  0  0
   17.8026  -21.8964   -9.7297 C   0  0  0  0  0  0  0  0  0  0  0  0
   18.1198  -20.6704   -9.7610 O   0  0  0  0  0  0  0  0  0  0  0  0
   16.4192  -22.1586   -9.7535 O   0  0  0  0  0  0  0  0  0  0  0  0
  2  1  1  1
  2  4  1  0
  3  2  1  0
  4  6  1  0
  4  5  1  6
  6  7  2  0
  8  9  1  0
  9 11  1  0
 10  9  2  0
 12 11  1  6
 13 12  1  0
 13  6  1  0
 14 15  2  0
 14 12  1  0
 16 17  1  0
 17 19  1  0
 18 17  2  0
 19 20  1  0
 21 20  1  0
 21 22  1  0
 23 22  1  1
 23 25  1  0
 23 24  1  0
 24 14  1  0
 25 27  1  0
 26 25  2  0
M  END
$$$$
