TNR.pdb
     RDKit          3D

 27 26  0  0  1  0  0  0  0  0999 V2000
   25.6983  -13.5492  -15.2795 C   0  0  0  0  0  0  0  0  0  0  0  0
   26.1271  -14.0649  -16.6367 C   0  0  1  0  0  0  0  0  0  0  0  0
   27.4072  -14.6256  -16.4370 O   0  0  0  0  0  0  0  0  0  0  0  0
   25.2223  -15.2110  -17.0359 C   0  0  2  0  0  0  0  0  0  0  0  0
   25.7106  -15.9071  -18.1962 N   0  0  0  0  0  0  0  0  0  0  0  0
   23.8384  -14.7586  -17.3012 C   0  0  0  0  0  0  0  0  0  0  0  0
   23.5319  -14.0192  -18.2845 O   0  0  0  0  0  0  0  0  0  0  0  0
   18.5192  -14.5990  -16.4375 N   0  0  0  0  0  0  0  0  0  0  0  0
   19.1769  -15.7927  -16.0298 C   0  0  0  0  0  0  0  0  0  0  0  0
   18.4676  -16.7490  -15.6621 O   0  0  0  0  0  0  0  0  0  0  0  0
   20.6229  -15.8988  -16.0385 C   0  0  0  0  0  0  0  0  0  0  0  0
   21.3967  -14.7594  -16.6053 C   0  0  2  0  0  0  0  0  0  0  0  0
   22.8124  -15.1532  -16.4431 N   0  0  0  0  0  0  0  0  0  0  0  0
   21.2138  -13.5333  -15.8108 C   0  0  0  0  0  0  0  0  0  0  0  0
   21.6645  -13.5649  -14.6036 O   0  0  0  0  0  0  0  0  0  0  0  0
   23.3193   -5.2545  -15.7108 N   0  0  0  0  0  0  0  0  0  0  0  0
   22.4410   -5.3614  -14.5947 C   0  0  0  0  0  0  0  0  0  0  0  0
   22.2833   -4.3527  -13.8160 N   0  0  0  0  0  0  0  0  0  0  0  0
   21.7733   -6.5924  -14.3971 N   0  0  0  0  0  0  0  0  0  0  0  0
   21.9643   -7.7012  -15.2990 C   0  0  0  0  0  0  0  0  0  0  0  0
   21.1521   -8.9029  -14.8202 C   0  0  0  0  0  0  0  0  0  0  0  0
   21.2940  -10.0635  -15.7531 C   0  0  0  0  0  0  0  0  0  0  0  0
   20.4961  -11.2350  -15.3013 C   0  0  2  0  0  0  0  0  0  0  0  0
   20.5928  -12.3338  -16.2671 N   0  0  0  0  0  0  0  0  0  0  0  0
   19.0801  -10.8977  -15.1222 C   0  0  0  0  0  0  0  0  0  0  0  0
   18.1624  -11.1768  -15.9495 O   0  0  0  0  0  0  0  0  0  0  0  0
   18.6574  -10.2144  -13.9657 O   0  0  0  0  0  0  0  0  0  0  0  0
  2  1  1  1
  2  4  1  0
  3  2  1  0
  4  6  1  0
  4  5  1  6
  6  7  2  0
  8  9  1  0
  9 11  1  0
 10  9  2  0
 12 11  1  1
 13 12  1  0
 13  6  1  0
 14 15  2  0
 14 12  1  0
 16 17  1  0
 17 19  1  0
 18 17  2  0
 19 20  1  0
 21 20  1  0
 21 22  1  0
 23 22  1  6
 23 25  1  0
 23 24  1  0
 24 14  1  0
 25 27  1  0
 26 25  2  0
M  END
$$$$
