TNR.pdb
     RDKit          3D

 27 26  0  0  1  0  0  0  0  0999 V2000
   14.8945  -23.3314   -7.7660 C   0  0  0  0  0  0  0  0  0  0  0  0
   14.8905  -23.4312   -6.2554 C   0  0  1  0  0  0  0  0  0  0  0  0
   14.1597  -22.3093   -5.8079 O   0  0  0  0  0  0  0  0  0  0  0  0
   14.0887  -24.6478   -5.8448 C   0  0  2  0  0  0  0  0  0  0  0  0
   12.7458  -24.6097   -6.3589 N   0  0  0  0  0  0  0  0  0  0  0  0
   14.0298  -24.8025   -4.3741 C   0  0  0  0  0  0  0  0  0  0  0  0
   12.9416  -24.7944   -3.7236 O   0  0  0  0  0  0  0  0  0  0  0  0
   15.6913  -28.0398   -3.0350 N   0  0  0  0  0  0  0  0  0  0  0  0
   16.7671  -27.3138   -2.4524 C   0  0  0  0  0  0  0  0  0  0  0  0
   17.8558  -27.9035   -2.3122 O   0  0  0  0  0  0  0  0  0  0  0  0
   16.6080  -25.9350   -2.0331 C   0  0  0  0  0  0  0  0  0  0  0  0
   15.2706  -25.3059   -2.2170 C   0  0  2  0  0  0  0  0  0  0  0  0
   15.2131  -24.9663   -3.6546 N   0  0  0  0  0  0  0  0  0  0  0  0
   15.1672  -24.0321   -1.4856 C   0  0  0  0  0  0  0  0  0  0  0  0
   15.7848  -23.0265   -2.0041 O   0  0  0  0  0  0  0  0  0  0  0  0
    9.6191  -17.9583   -0.4692 N   0  0  0  0  0  0  0  0  0  0  0  0
   10.6899  -17.4844    0.3415 C   0  0  0  0  0  0  0  0  0  0  0  0
   10.6940  -16.2608    0.7306 N   0  0  0  0  0  0  0  0  0  0  0  0
   11.7114  -18.4001    0.6853 N   0  0  0  0  0  0  0  0  0  0  0  0
   11.7350  -19.7351    0.1406 C   0  0  0  0  0  0  0  0  0  0  0  0
   13.0233  -20.4412    0.5581 C   0  0  0  0  0  0  0  0  0  0  0  0
   13.0916  -21.8268   -0.0013 C   0  0  0  0  0  0  0  0  0  0  0  0
   14.4147  -22.4586    0.2507 C   0  0  2  0  0  0  0  0  0  0  0  0
   14.4454  -23.8276   -0.2732 N   0  0  0  0  0  0  0  0  0  0  0  0
   14.7384  -22.5015    1.6805 C   0  0  0  0  0  0  0  0  0  0  0  0
   14.7964  -23.5592    2.3751 O   0  0  0  0  0  0  0  0  0  0  0  0
   15.0120  -21.3097    2.3789 O   0  0  0  0  0  0  0  0  0  0  0  0
  2  1  1  6
  2  4  1  0
  3  2  1  0
  4  6  1  0
  4  5  1  1
  6  7  2  0
  8  9  1  0
  9 11  1  0
 10  9  2  0
 12 11  1  6
 13 12  1  0
 13  6  1  0
 14 15  2  0
 14 12  1  0
 16 17  1  0
 17 19  1  0
 18 17  2  0
 19 20  1  0
 21 20  1  0
 21 22  1  0
 23 22  1  1
 23 25  1  0
 23 24  1  0
 24 14  1  0
 25 27  1  0
 26 25  2  0
M  END
$$$$
