TNR.pdb
     RDKit          3D

 27 26  0  0  1  0  0  0  0  0999 V2000
   24.5020  -26.0377  -18.6644 C   0  0  0  0  0  0  0  0  0  0  0  0
   23.9609  -25.1750  -17.5443 C   0  0  1  0  0  0  0  0  0  0  0  0
   22.9915  -25.9693  -16.8945 O   0  0  0  0  0  0  0  0  0  0  0  0
   25.0601  -24.9379  -16.5309 C   0  0  2  0  0  0  0  0  0  0  0  0
   25.6329  -26.1690  -16.0559 N   0  0  0  0  0  0  0  0  0  0  0  0
   24.5831  -24.1566  -15.3680 C   0  0  0  0  0  0  0  0  0  0  0  0
   24.6496  -24.5845  -14.1764 O   0  0  0  0  0  0  0  0  0  0  0  0
   26.0652  -21.3891  -12.9152 N   0  0  0  0  0  0  0  0  0  0  0  0
   25.7289  -20.5274  -13.9961 C   0  0  0  0  0  0  0  0  0  0  0  0
   26.5017  -19.5824  -14.2462 O   0  0  0  0  0  0  0  0  0  0  0  0
   24.5290  -20.7358  -14.7827 C   0  0  0  0  0  0  0  0  0  0  0  0
   23.7080  -21.9425  -14.4858 C   0  0  2  0  0  0  0  0  0  0  0  0
   24.0336  -22.8912  -15.5718 N   0  0  0  0  0  0  0  0  0  0  0  0
   22.2678  -21.6584  -14.6014 C   0  0  0  0  0  0  0  0  0  0  0  0
   21.8281  -21.4218  -15.7898 O   0  0  0  0  0  0  0  0  0  0  0  0
   18.8308  -25.1465   -8.7717 N   0  0  0  0  0  0  0  0  0  0  0  0
   18.9294  -25.9248   -9.9604 C   0  0  0  0  0  0  0  0  0  0  0  0
   18.9240  -27.2063   -9.8788 N   0  0  0  0  0  0  0  0  0  0  0  0
   19.0280  -25.2370  -11.1922 N   0  0  0  0  0  0  0  0  0  0  0  0
   18.9585  -23.7980  -11.2541 C   0  0  0  0  0  0  0  0  0  0  0  0
   19.0739  -23.3367  -12.7056 C   0  0  0  0  0  0  0  0  0  0  0  0
   19.0235  -21.8454  -12.8094 C   0  0  0  0  0  0  0  0  0  0  0  0
   19.9432  -21.3345  -13.8613 C   0  0  2  0  0  0  0  0  0  0  0  0
   21.3382  -21.6306  -13.5209 N   0  0  0  0  0  0  0  0  0  0  0  0
   19.8090  -19.8864  -14.0507 C   0  0  0  0  0  0  0  0  0  0  0  0
   20.5569  -19.0167  -13.5134 O   0  0  0  0  0  0  0  0  0  0  0  0
   18.7921  -19.3735  -14.8789 O   0  0  0  0  0  0  0  0  0  0  0  0
  2  1  1  6
  2  4  1  0
  3  2  1  0
  4  6  1  0
  4  5  1  1
  6  7  2  0
  8  9  1  0
  9 11  1  0
 10  9  2  0
 12 11  1  6
 13 12  1  0
 13  6  1  0
 14 15  2  0
 14 12  1  0
 16 17  1  0
 17 19  1  0
 18 17  2  0
 19 20  1  0
 21 20  1  0
 21 22  1  0
 23 22  1  1
 23 25  1  0
 23 24  1  0
 24 14  1  0
 25 27  1  0
 26 25  2  0
M  END
$$$$
