TNR.pdb
     RDKit          3D

 27 26  0  0  1  0  0  0  0  0999 V2000
   23.8595  -13.7464  -16.3143 C   0  0  0  0  0  0  0  0  0  0  0  0
   23.4134  -12.3023  -16.2291 C   0  0  1  0  0  0  0  0  0  0  0  0
   23.7554  -11.8808  -14.9259 O   0  0  0  0  0  0  0  0  0  0  0  0
   24.2535  -11.4711  -17.1751 C   0  0  2  0  0  0  0  0  0  0  0  0
   25.6554  -11.5459  -16.8619 N   0  0  0  0  0  0  0  0  0  0  0  0
   23.8429  -10.0493  -17.1778 C   0  0  0  0  0  0  0  0  0  0  0  0
   24.4337   -9.1603  -16.4936 O   0  0  0  0  0  0  0  0  0  0  0  0
   24.5333   -7.2269  -19.5160 N   0  0  0  0  0  0  0  0  0  0  0  0
   23.3185   -7.4904  -20.2079 C   0  0  0  0  0  0  0  0  0  0  0  0
   23.2895   -7.2684  -21.4338 O   0  0  0  0  0  0  0  0  0  0  0  0
   22.1504   -7.9991  -19.5158 C   0  0  0  0  0  0  0  0  0  0  0  0
   22.2708   -8.2585  -18.0542 C   0  0  2  0  0  0  0  0  0  0  0  0
   22.7609   -9.6502  -17.9619 N   0  0  0  0  0  0  0  0  0  0  0  0
   20.9561   -8.2372  -17.3913 C   0  0  0  0  0  0  0  0  0  0  0  0
   20.5088   -9.3732  -16.9778 O   0  0  0  0  0  0  0  0  0  0  0  0
   17.8891   -8.8885  -10.0962 N   0  0  0  0  0  0  0  0  0  0  0  0
   16.7413   -9.0768  -10.9180 C   0  0  0  0  0  0  0  0  0  0  0  0
   15.7047   -9.6582  -10.4318 N   0  0  0  0  0  0  0  0  0  0  0  0
   16.7997   -8.6050  -12.2499 N   0  0  0  0  0  0  0  0  0  0  0  0
   18.0507   -8.5284  -12.9631 C   0  0  0  0  0  0  0  0  0  0  0  0
   17.8198   -7.9302  -14.3493 C   0  0  0  0  0  0  0  0  0  0  0  0
   19.0883   -7.8817  -15.1404 C   0  0  0  0  0  0  0  0  0  0  0  0
   18.8769   -7.2817  -16.4853 C   0  0  2  0  0  0  0  0  0  0  0  0
   20.1569   -7.0774  -17.1706 N   0  0  0  0  0  0  0  0  0  0  0  0
   18.1813   -5.9929  -16.4074 C   0  0  0  0  0  0  0  0  0  0  0  0
   16.9939   -5.8384  -15.9943 O   0  0  0  0  0  0  0  0  0  0  0  0
   18.8350   -4.8120  -16.8087 O   0  0  0  0  0  0  0  0  0  0  0  0
  2  1  1  1
  2  4  1  0
  3  2  1  0
  4  6  1  0
  4  5  1  1
  6  7  2  0
  8  9  1  0
  9 11  1  0
 10  9  2  0
 12 11  1  6
 13 12  1  0
 13  6  1  0
 14 15  2  0
 14 12  1  0
 16 17  1  0
 17 19  1  0
 18 17  2  0
 19 20  1  0
 21 20  1  0
 21 22  1  0
 23 22  1  1
 23 25  1  0
 23 24  1  0
 24 14  1  0
 25 27  1  0
 26 25  2  0
M  END
$$$$
