TNR.pdb
     RDKit          3D

 27 26  0  0  1  0  0  0  0  0999 V2000
   19.6249  -23.9015  -10.0144 C   0  0  0  0  0  0  0  0  0  0  0  0
   18.8152  -24.1705   -8.7638 C   0  0  1  0  0  0  0  0  0  0  0  0
   17.6163  -23.4440   -8.9304 O   0  0  0  0  0  0  0  0  0  0  0  0
   18.4223  -25.6321   -8.7369 C   0  0  2  0  0  0  0  0  0  0  0  0
   17.7288  -26.0283   -9.9333 N   0  0  0  0  0  0  0  0  0  0  0  0
   17.5752  -25.9571   -7.5676 C   0  0  0  0  0  0  0  0  0  0  0  0
   16.3328  -26.1919   -7.6609 O   0  0  0  0  0  0  0  0  0  0  0  0
   16.6447  -26.8149   -2.3225 N   0  0  0  0  0  0  0  0  0  0  0  0
   18.0144  -26.9030   -2.6965 C   0  0  0  0  0  0  0  0  0  0  0  0
   18.8400  -27.1947   -1.8098 O   0  0  0  0  0  0  0  0  0  0  0  0
   18.4417  -26.6616   -4.0609 C   0  0  0  0  0  0  0  0  0  0  0  0
   17.3987  -26.2886   -5.0566 C   0  0  2  0  0  0  0  0  0  0  0  0
   18.1513  -26.0129   -6.2988 N   0  0  0  0  0  0  0  0  0  0  0  0
   16.7273  -25.0303   -4.6906 C   0  0  0  0  0  0  0  0  0  0  0  0
   17.4289  -23.9555   -4.8094 O   0  0  0  0  0  0  0  0  0  0  0  0
    9.5482  -20.6798   -6.6535 N   0  0  0  0  0  0  0  0  0  0  0  0
   10.3417  -19.7578   -5.9126 C   0  0  0  0  0  0  0  0  0  0  0  0
    9.9827  -18.5268   -5.8456 N   0  0  0  0  0  0  0  0  0  0  0  0
   11.5035  -20.2518   -5.2753 N   0  0  0  0  0  0  0  0  0  0  0  0
   11.9442  -21.6110   -5.4701 C   0  0  0  0  0  0  0  0  0  0  0  0
   13.1841  -21.8794   -4.6196 C   0  0  0  0  0  0  0  0  0  0  0  0
   13.7430  -23.2412   -4.8853 C   0  0  0  0  0  0  0  0  0  0  0  0
   14.8896  -23.5510   -3.9894 C   0  0  2  0  0  0  0  0  0  0  0  0
   15.3839  -24.9105   -4.2286 N   0  0  0  0  0  0  0  0  0  0  0  0
   14.5270  -23.4315   -2.5734 C   0  0  0  0  0  0  0  0  0  0  0  0
   14.4274  -22.3363   -1.9447 O   0  0  0  0  0  0  0  0  0  0  0  0
   14.2608  -24.5861   -1.8124 O   0  0  0  0  0  0  0  0  0  0  0  0
  2  1  1  6
  2  4  1  0
  3  2  1  0
  4  6  1  0
  4  5  1  6
  6  7  2  0
  8  9  1  0
  9 11  1  0
 10  9  2  0
 12 11  1  1
 13 12  1  0
 13  6  1  0
 14 15  2  0
 14 12  1  0
 16 17  1  0
 17 19  1  0
 18 17  2  0
 19 20  1  0
 21 20  1  0
 21 22  1  0
 23 22  1  6
 23 25  1  0
 23 24  1  0
 24 14  1  0
 25 27  1  0
 26 25  2  0
M  END
$$$$
