TNR.pdb
     RDKit          3D

 27 26  0  0  1  0  0  0  0  0999 V2000
   25.9148  -16.9767  -15.5766 C   0  0  0  0  0  0  0  0  0  0  0  0
   26.6549  -17.7849  -16.6211 C   0  0  1  0  0  0  0  0  0  0  0  0
   27.4386  -16.8504  -17.3319 O   0  0  0  0  0  0  0  0  0  0  0  0
   27.6300  -18.7114  -15.9266 C   0  0  2  0  0  0  0  0  0  0  0  0
   28.5072  -19.3699  -16.8571 N   0  0  0  0  0  0  0  0  0  0  0  0
   26.9379  -19.7395  -15.1177 C   0  0  0  0  0  0  0  0  0  0  0  0
   26.5312  -20.8384  -15.6019 O   0  0  0  0  0  0  0  0  0  0  0  0
   25.3743  -22.1395  -10.6329 N   0  0  0  0  0  0  0  0  0  0  0  0
   26.0495  -20.9073  -10.4102 C   0  0  0  0  0  0  0  0  0  0  0  0
   26.4064  -20.6440   -9.2457 O   0  0  0  0  0  0  0  0  0  0  0  0
   26.3152  -19.9848  -11.4967 C   0  0  0  0  0  0  0  0  0  0  0  0
   25.9588  -20.4194  -12.8760 C   0  0  2  0  0  0  0  0  0  0  0  0
   26.7146  -19.5076  -13.7608 N   0  0  0  0  0  0  0  0  0  0  0  0
   24.5332  -20.1893  -13.1638 C   0  0  0  0  0  0  0  0  0  0  0  0
   24.1385  -18.9624  -13.1393 O   0  0  0  0  0  0  0  0  0  0  0  0
   18.9454  -23.8617  -18.3443 N   0  0  0  0  0  0  0  0  0  0  0  0
   18.8834  -24.2211  -16.9675 C   0  0  0  0  0  0  0  0  0  0  0  0
   18.4324  -25.3767  -16.6360 N   0  0  0  0  0  0  0  0  0  0  0  0
   19.3305  -23.2731  -16.0181 N   0  0  0  0  0  0  0  0  0  0  0  0
   19.6902  -21.9328  -16.4103 C   0  0  0  0  0  0  0  0  0  0  0  0
   20.2337  -21.1695  -15.2041 C   0  0  0  0  0  0  0  0  0  0  0  0
   21.6429  -21.5665  -14.8975 C   0  0  0  0  0  0  0  0  0  0  0  0
   22.2217  -20.7435  -13.8017 C   0  0  2  0  0  0  0  0  0  0  0  0
   23.5744  -21.1998  -13.4674 N   0  0  0  0  0  0  0  0  0  0  0  0
   21.4017  -20.7934  -12.5868 C   0  0  0  0  0  0  0  0  0  0  0  0
   21.5559  -21.6282  -11.6467 O   0  0  0  0  0  0  0  0  0  0  0  0
   20.3546  -19.8699  -12.4029 O   0  0  0  0  0  0  0  0  0  0  0  0
  2  1  1  1
  2  4  1  0
  3  2  1  0
  4  6  1  0
  4  5  1  6
  6  7  2  0
  8  9  1  0
  9 11  1  0
 10  9  2  0
 12 11  1  1
 13 12  1  0
 13  6  1  0
 14 15  2  0
 14 12  1  0
 16 17  1  0
 17 19  1  0
 18 17  2  0
 19 20  1  0
 21 20  1  0
 21 22  1  0
 23 22  1  6
 23 25  1  0
 23 24  1  0
 24 14  1  0
 25 27  1  0
 26 25  2  0
M  END
$$$$
