TNR.pdb
     RDKit          3D

 27 26  0  0  1  0  0  0  0  0999 V2000
   24.2916  -26.1557  -16.0385 C   0  0  0  0  0  0  0  0  0  0  0  0
   24.3593  -25.3743  -17.3333 C   0  0  1  0  0  0  0  0  0  0  0  0
   23.0609  -24.8547  -17.5256 O   0  0  0  0  0  0  0  0  0  0  0  0
   25.2675  -24.1787  -17.1397 C   0  0  2  0  0  0  0  0  0  0  0  0
   26.6416  -24.5659  -16.9628 N   0  0  0  0  0  0  0  0  0  0  0  0
   24.8552  -23.3505  -15.9845 C   0  0  0  0  0  0  0  0  0  0  0  0
   25.2677  -23.5604  -14.8041 O   0  0  0  0  0  0  0  0  0  0  0  0
   25.2854  -18.6461  -16.9547 N   0  0  0  0  0  0  0  0  0  0  0  0
   24.6812  -19.1558  -15.7719 C   0  0  0  0  0  0  0  0  0  0  0  0
   25.1909  -18.8419  -14.6789 O   0  0  0  0  0  0  0  0  0  0  0  0
   23.5129  -20.0124  -15.8296 C   0  0  0  0  0  0  0  0  0  0  0  0
   23.5830  -21.3259  -15.1309 C   0  0  2  0  0  0  0  0  0  0  0  0
   23.9751  -22.2873  -16.1833 N   0  0  0  0  0  0  0  0  0  0  0  0
   22.2585  -21.7541  -14.6508 C   0  0  0  0  0  0  0  0  0  0  0  0
   21.4255  -22.1461  -15.5530 O   0  0  0  0  0  0  0  0  0  0  0  0
   18.2040  -24.9852   -7.4282 N   0  0  0  0  0  0  0  0  0  0  0  0
   17.1778  -24.8003   -8.3984 C   0  0  0  0  0  0  0  0  0  0  0  0
   15.9875  -25.2098   -8.1448 N   0  0  0  0  0  0  0  0  0  0  0  0
   17.5253  -24.1626   -9.6119 N   0  0  0  0  0  0  0  0  0  0  0  0
   18.8852  -23.7713   -9.8897 C   0  0  0  0  0  0  0  0  0  0  0  0
   19.0061  -23.3181  -11.3432 C   0  0  0  0  0  0  0  0  0  0  0  0
   20.3893  -22.8394  -11.6518 C   0  0  0  0  0  0  0  0  0  0  0  0
   20.4855  -22.2808  -13.0273 C   0  0  2  0  0  0  0  0  0  0  0  0
   21.8359  -21.7736  -13.2893 N   0  0  0  0  0  0  0  0  0  0  0  0
   19.5297  -21.1898  -13.2440 C   0  0  0  0  0  0  0  0  0  0  0  0
   18.3554  -21.3390  -13.6948 O   0  0  0  0  0  0  0  0  0  0  0  0
   19.8936  -19.8624  -12.9463 O   0  0  0  0  0  0  0  0  0  0  0  0
  2  1  1  1
  2  4  1  0
  3  2  1  0
  4  6  1  0
  4  5  1  1
  6  7  2  0
  8  9  1  0
  9 11  1  0
 10  9  2  0
 12 11  1  6
 13 12  1  0
 13  6  1  0
 14 15  2  0
 14 12  1  0
 16 17  1  0
 17 19  1  0
 18 17  2  0
 19 20  1  0
 21 20  1  0
 21 22  1  0
 23 22  1  1
 23 25  1  0
 23 24  1  0
 24 14  1  0
 25 27  1  0
 26 25  2  0
M  END
$$$$
