TNR.pdb
     RDKit          3D

 27 26  0  0  1  0  0  0  0  0999 V2000
   26.5846  -21.4260  -17.6347 C   0  0  0  0  0  0  0  0  0  0  0  0
   27.5455  -20.3761  -17.1189 C   0  0  1  0  0  0  0  0  0  0  0  0
   26.7316  -19.3391  -16.6138 O   0  0  0  0  0  0  0  0  0  0  0  0
   28.2974  -20.9382  -15.9314 C   0  0  2  0  0  0  0  0  0  0  0  0
   29.2580  -21.9354  -16.3216 N   0  0  0  0  0  0  0  0  0  0  0  0
   27.3852  -21.5261  -14.9251 C   0  0  0  0  0  0  0  0  0  0  0  0
   26.9313  -22.7067  -15.0130 O   0  0  0  0  0  0  0  0  0  0  0  0
   24.8399  -21.6614  -10.1798 N   0  0  0  0  0  0  0  0  0  0  0  0
   25.6911  -20.5350  -10.3544 C   0  0  0  0  0  0  0  0  0  0  0  0
   25.8433  -19.7674   -9.3847 O   0  0  0  0  0  0  0  0  0  0  0  0
   26.3606  -20.2828  -11.6156 C   0  0  0  0  0  0  0  0  0  0  0  0
   26.1691  -21.2739  -12.7107 C   0  0  2  0  0  0  0  0  0  0  0  0
   26.9969  -20.7634  -13.8241 N   0  0  0  0  0  0  0  0  0  0  0  0
   24.7791  -21.2807  -13.1967 C   0  0  0  0  0  0  0  0  0  0  0  0
   24.4444  -20.3108  -13.9771 O   0  0  0  0  0  0  0  0  0  0  0  0
   19.3295  -26.4652  -16.6150 N   0  0  0  0  0  0  0  0  0  0  0  0
   18.3656  -25.4740  -16.2732 C   0  0  0  0  0  0  0  0  0  0  0  0
   17.3260  -25.3227  -17.0116 N   0  0  0  0  0  0  0  0  0  0  0  0
   18.6036  -24.6940  -15.1178 N   0  0  0  0  0  0  0  0  0  0  0  0
   19.8450  -24.7921  -14.3906 C   0  0  0  0  0  0  0  0  0  0  0  0
   20.5780  -23.4528  -14.4360 C   0  0  0  0  0  0  0  0  0  0  0  0
   21.8628  -23.5083  -13.6721 C   0  0  0  0  0  0  0  0  0  0  0  0
   22.5246  -22.1774  -13.6089 C   0  0  2  0  0  0  0  0  0  0  0  0
   23.7945  -22.2622  -12.8809 N   0  0  0  0  0  0  0  0  0  0  0  0
   21.6791  -21.1752  -12.9518 C   0  0  0  0  0  0  0  0  0  0  0  0
   21.7477  -20.8665  -11.7253 O   0  0  0  0  0  0  0  0  0  0  0  0
   20.7051  -20.4779  -13.6921 O   0  0  0  0  0  0  0  0  0  0  0  0
  2  1  1  1
  2  4  1  0
  3  2  1  0
  4  6  1  0
  4  5  1  6
  6  7  2  0
  8  9  1  0
  9 11  1  0
 10  9  2  0
 12 11  1  1
 13 12  1  0
 13  6  1  0
 14 15  2  0
 14 12  1  0
 16 17  1  0
 17 19  1  0
 18 17  2  0
 19 20  1  0
 21 20  1  0
 21 22  1  0
 23 22  1  1
 23 25  1  0
 23 24  1  0
 24 14  1  0
 25 27  1  0
 26 25  2  0
M  END
$$$$
