TNR.pdb
     RDKit          3D

 27 26  0  0  1  0  0  0  0  0999 V2000
   24.1749  -21.2918   -7.9388 C   0  0  0  0  0  0  0  0  0  0  0  0
   24.3801  -20.9224   -9.3925 C   0  0  1  0  0  0  0  0  0  0  0  0
   23.7105  -19.6915   -9.5644 O   0  0  0  0  0  0  0  0  0  0  0  0
   25.8488  -20.6396   -9.6258 C   0  0  2  0  0  0  0  0  0  0  0  0
   26.3743  -19.6919   -8.6798 N   0  0  0  0  0  0  0  0  0  0  0  0
   26.1063  -20.1373  -10.9938 C   0  0  0  0  0  0  0  0  0  0  0  0
   26.2095  -18.9034  -11.2667 O   0  0  0  0  0  0  0  0  0  0  0  0
   27.2203  -20.6747  -16.2417 N   0  0  0  0  0  0  0  0  0  0  0  0
   27.5781  -21.7861  -15.4289 C   0  0  0  0  0  0  0  0  0  0  0  0
   28.2038  -22.7200  -15.9666 O   0  0  0  0  0  0  0  0  0  0  0  0
   27.2287  -21.8367  -14.0227 C   0  0  0  0  0  0  0  0  0  0  0  0
   26.5195  -20.6621  -13.4433 C   0  0  2  0  0  0  0  0  0  0  0  0
   26.2453  -21.0461  -12.0424 N   0  0  0  0  0  0  0  0  0  0  0  0
   25.2084  -20.4540  -14.0805 C   0  0  0  0  0  0  0  0  0  0  0  0
   24.2876  -21.3039  -13.7783 O   0  0  0  0  0  0  0  0  0  0  0  0
   20.1895  -13.8358  -17.1271 N   0  0  0  0  0  0  0  0  0  0  0  0
   19.3286  -14.9665  -17.0342 C   0  0  0  0  0  0  0  0  0  0  0  0
   18.0779  -14.8311  -17.2918 N   0  0  0  0  0  0  0  0  0  0  0  0
   19.9029  -16.2032  -16.6587 N   0  0  0  0  0  0  0  0  0  0  0  0
   21.2679  -16.2867  -16.2012 C   0  0  0  0  0  0  0  0  0  0  0  0
   21.6422  -17.7470  -15.9553 C   0  0  0  0  0  0  0  0  0  0  0  0
   23.0596  -17.8764  -15.4950 C   0  0  0  0  0  0  0  0  0  0  0  0
   23.4804  -19.3001  -15.3993 C   0  0  2  0  0  0  0  0  0  0  0  0
   24.8832  -19.4010  -14.9849 N   0  0  0  0  0  0  0  0  0  0  0  0
   23.3215  -20.0057  -16.6752 C   0  0  0  0  0  0  0  0  0  0  0  0
   24.2019  -20.0583  -17.5844 O   0  0  0  0  0  0  0  0  0  0  0  0
   22.1238  -20.6893  -16.9600 O   0  0  0  0  0  0  0  0  0  0  0  0
  2  1  1  1
  2  4  1  0
  3  2  1  0
  4  6  1  0
  4  5  1  1
  6  7  2  0
  8  9  1  0
  9 11  1  0
 10  9  2  0
 12 11  1  6
 13 12  1  0
 13  6  1  0
 14 15  2  0
 14 12  1  0
 16 17  1  0
 17 19  1  0
 18 17  2  0
 19 20  1  0
 21 20  1  0
 21 22  1  0
 23 22  1  6
 23 25  1  0
 23 24  1  0
 24 14  1  0
 25 27  1  0
 26 25  2  0
M  END
$$$$
