QPV.pdb
     RDKit          3D

 24 24  0  0  1  0  0  0  0  0999 V2000
   21.5618  -20.2876  -12.3914 N   0  0  0  0  0  0  0  0  0  0  0  0
   22.0957  -19.4376  -13.4193 C   0  0  0  0  0  0  0  0  0  0  0  0
   21.2620  -18.9490  -14.2223 O   0  0  0  0  0  0  0  0  0  0  0  0
   23.5526  -19.1601  -13.5166 C   0  0  0  0  0  0  0  0  0  0  0  0
   24.2143  -19.7732  -12.3193 C   0  0  0  0  0  0  0  0  0  0  0  0
   25.0086  -21.0170  -12.6706 C   0  0  2  0  0  0  0  0  0  0  0  0
   24.0883  -22.0779  -13.0910 N   0  0  0  0  0  0  0  0  0  0  0  0
   25.7325  -21.4478  -11.4506 C   0  0  0  0  0  0  0  0  0  0  0  0
   25.1002  -22.2155  -10.6330 O   0  0  0  0  0  0  0  0  0  0  0  0
   27.0403  -21.0812  -11.1350 N   0  0  0  0  0  0  0  0  0  0  0  0
   27.8744  -20.1779  -11.9453 C   0  0  0  0  0  0  0  0  0  0  0  0
   29.2965  -20.5957  -11.6907 C   0  0  0  0  0  0  0  0  0  0  0  0
   29.2536  -21.5707  -10.5347 C   0  0  0  0  0  0  0  0  0  0  0  0
   27.8336  -21.4965   -9.9993 C   0  0  1  0  0  0  0  0  0  0  0  0
   27.8270  -20.4582   -8.9402 C   0  0  0  0  0  0  0  0  0  0  0  0
   27.5392  -19.2708   -9.2036 O   0  0  0  0  0  0  0  0  0  0  0  0
   25.8869  -21.0743   -5.6548 C   0  0  0  0  0  0  0  0  0  0  0  0
   27.3081  -20.6963   -5.3495 C   0  0  2  0  0  0  0  0  0  0  0  0
   27.4105  -19.8987   -4.0711 C   0  0  0  0  0  0  0  0  0  0  0  0
   27.9275  -19.9160   -6.5068 C   0  0  2  0  0  0  0  0  0  0  0  0
   28.1510  -20.8198   -7.6160 N   0  0  0  0  0  0  0  0  0  0  0  0
   29.2106  -19.3144   -6.1055 C   0  0  0  0  0  0  0  0  0  0  0  0
   29.2405  -18.1108   -5.4324 O   0  0  0  0  0  0  0  0  0  0  0  0
   30.2849  -19.8902   -6.3719 O   0  0  0  0  0  0  0  0  0  0  0  0
  2  1  1  0
  3  2  2  0
  4  2  1  0
  5  4  1  0
  6  5  1  0
  6  7  1  1
  8  6  1  0
  9  8  2  0
 10  8  1  0
 10 14  1  0
 11 12  1  0
 11 10  1  0
 12 13  1  0
 14 13  1  0
 15 21  1  0
 14 15  1  1
 16 15  2  0
 18 17  1  6
 19 18  1  0
 20 21  1  6
 20 18  1  0
 22 20  1  0
 22 23  1  0
 24 22  2  0
M  END
$$$$
