QPV.pdb
     RDKit          3D

 24 24  0  0  1  0  0  0  0  0999 V2000
   14.0620  -25.7517   -5.3479 N   0  0  0  0  0  0  0  0  0  0  0  0
   12.9534  -24.8379   -5.3541 C   0  0  0  0  0  0  0  0  0  0  0  0
   12.2927  -24.7760   -6.4210 O   0  0  0  0  0  0  0  0  0  0  0  0
   12.6176  -24.0184   -4.1605 C   0  0  0  0  0  0  0  0  0  0  0  0
   13.5698  -24.3960   -3.0659 C   0  0  0  0  0  0  0  0  0  0  0  0
   14.7238  -23.4192   -2.9404 C   0  0  2  0  0  0  0  0  0  0  0  0
   15.6581  -23.6264   -4.0508 N   0  0  0  0  0  0  0  0  0  0  0  0
   15.4129  -23.6998   -1.6580 C   0  0  0  0  0  0  0  0  0  0  0  0
   16.3823  -24.5466   -1.6854 O   0  0  0  0  0  0  0  0  0  0  0  0
   15.0844  -23.1112   -0.4373 N   0  0  0  0  0  0  0  0  0  0  0  0
   13.9735  -22.1658   -0.2366 C   0  0  0  0  0  0  0  0  0  0  0  0
   14.3837  -21.2913    0.9161 C   0  0  0  0  0  0  0  0  0  0  0  0
   15.6185  -21.9276    1.5153 C   0  0  0  0  0  0  0  0  0  0  0  0
   15.7389  -23.2838    0.8408 C   0  0  1  0  0  0  0  0  0  0  0  0
   15.0009  -24.2522    1.6877 C   0  0  0  0  0  0  0  0  0  0  0  0
   13.7515  -24.2861    1.6887 O   0  0  0  0  0  0  0  0  0  0  0  0
   16.8143  -27.8439    3.8310 C   0  0  0  0  0  0  0  0  0  0  0  0
   15.6345  -27.5242    2.9582 C   0  0  2  0  0  0  0  0  0  0  0  0
   15.9932  -27.5838    1.4923 C   0  0  0  0  0  0  0  0  0  0  0  0
   15.0548  -26.1540    3.3020 C   0  0  2  0  0  0  0  0  0  0  0  0
   15.7233  -25.1476    2.5035 N   0  0  0  0  0  0  0  0  0  0  0  0
   15.2475  -25.8469    4.7295 C   0  0  0  0  0  0  0  0  0  0  0  0
   14.4741  -26.4647    5.6902 O   0  0  0  0  0  0  0  0  0  0  0  0
   16.1148  -25.0226    5.0832 O   0  0  0  0  0  0  0  0  0  0  0  0
  2  1  1  0
  3  2  2  0
  4  2  1  0
  5  4  1  0
  6  5  1  0
  6  7  1  6
  8  6  1  0
  9  8  2  0
 10  8  1  0
 10 14  1  0
 11 12  1  0
 11 10  1  0
 12 13  1  0
 14 13  1  0
 15 21  1  0
 14 15  1  1
 16 15  2  0
 18 17  1  1
 19 18  1  0
 20 21  1  6
 20 18  1  0
 22 20  1  0
 22 23  1  0
 24 22  2  0
M  END
$$$$
