QPV.pdb
     RDKit          3D

 24 24  0  0  1  0  0  0  0  0999 V2000
   41.4702   -4.9465  -10.2018 N   0  0  0  0  0  0  0  0  0  0  0  0
   40.0697   -4.8058  -10.4897 C   0  0  0  0  0  0  0  0  0  0  0  0
   39.7393   -3.7881  -11.1483 O   0  0  0  0  0  0  0  0  0  0  0  0
   39.0785   -5.8131  -10.0294 C   0  0  0  0  0  0  0  0  0  0  0  0
   39.8277   -6.8930   -9.3083 C   0  0  0  0  0  0  0  0  0  0  0  0
   38.9132   -7.9925   -8.8020 C   0  0  2  0  0  0  0  0  0  0  0  0
   37.8843   -7.4079   -7.9368 N   0  0  0  0  0  0  0  0  0  0  0  0
   39.7401   -8.9379   -8.0142 C   0  0  0  0  0  0  0  0  0  0  0  0
   39.6185   -8.8976   -6.7331 O   0  0  0  0  0  0  0  0  0  0  0  0
   40.6301   -9.8595   -8.5645 N   0  0  0  0  0  0  0  0  0  0  0  0
   40.9065   -9.9986  -10.0041 C   0  0  0  0  0  0  0  0  0  0  0  0
   41.3000  -11.4357  -10.2082 C   0  0  0  0  0  0  0  0  0  0  0  0
   41.4870  -12.0264   -8.8280 C   0  0  0  0  0  0  0  0  0  0  0  0
   41.4341  -10.8443   -7.8748 C   0  0  1  0  0  0  0  0  0  0  0  0
   42.8277  -10.3661   -7.7050 C   0  0  0  0  0  0  0  0  0  0  0  0
   43.3950   -9.7032   -8.6000 O   0  0  0  0  0  0  0  0  0  0  0  0
   44.6196  -11.0141   -3.8797 C   0  0  0  0  0  0  0  0  0  0  0  0
   44.7068   -9.7153   -4.6289 C   0  0  2  0  0  0  0  0  0  0  0  0
   43.5757   -8.7837   -4.2631 C   0  0  0  0  0  0  0  0  0  0  0  0
   44.7243   -9.9536   -6.1371 C   0  0  2  0  0  0  0  0  0  0  0  0
   43.5208  -10.6656   -6.5139 N   0  0  0  0  0  0  0  0  0  0  0  0
   45.9006  -10.7490   -6.5281 C   0  0  0  0  0  0  0  0  0  0  0  0
   45.7634  -12.0736   -6.8876 O   0  0  0  0  0  0  0  0  0  0  0  0
   47.0350  -10.2296   -6.5376 O   0  0  0  0  0  0  0  0  0  0  0  0
  2  1  1  0
  3  2  2  0
  4  2  1  0
  5  4  1  0
  6  5  1  0
  6  7  1  1
  8  6  1  0
  9  8  2  0
 10  8  1  0
 10 14  1  0
 11 12  1  0
 11 10  1  0
 12 13  1  0
 14 13  1  0
 15 21  1  0
 14 15  1  6
 16 15  2  0
 18 17  1  1
 19 18  1  0
 20 21  1  1
 20 18  1  0
 22 20  1  0
 22 23  1  0
 24 22  2  0
M  END
$$$$
