QPV.pdb
     RDKit          3D

 24 24  0  0  1  0  0  0  0  0999 V2000
   19.3348  -23.7637   -7.0927 N   0  0  0  0  0  0  0  0  0  0  0  0
   18.6706  -23.7257   -8.3661 C   0  0  0  0  0  0  0  0  0  0  0  0
   17.5387  -24.2686   -8.4167 O   0  0  0  0  0  0  0  0  0  0  0  0
   19.2970  -23.0782   -9.5482 C   0  0  0  0  0  0  0  0  0  0  0  0
   20.6002  -22.4841   -9.1052 C   0  0  0  0  0  0  0  0  0  0  0  0
   20.6034  -20.9693   -9.1877 C   0  0  2  0  0  0  0  0  0  0  0  0
   19.2764  -20.5030   -9.6006 N   0  0  0  0  0  0  0  0  0  0  0  0
   21.6033  -20.5768  -10.2096 C   0  0  0  0  0  0  0  0  0  0  0  0
   21.1591  -20.0216  -11.2829 O   0  0  0  0  0  0  0  0  0  0  0  0
   22.9792  -20.7660  -10.0846 N   0  0  0  0  0  0  0  0  0  0  0  0
   23.6192  -21.5914   -9.0467 C   0  0  0  0  0  0  0  0  0  0  0  0
   24.9807  -20.9911   -8.8284 C   0  0  0  0  0  0  0  0  0  0  0  0
   25.1847  -19.9829   -9.9377 C   0  0  0  0  0  0  0  0  0  0  0  0
   24.0339  -20.2102  -10.9035 C   0  0  1  0  0  0  0  0  0  0  0  0
   24.5025  -21.1976  -11.9061 C   0  0  0  0  0  0  0  0  0  0  0  0
   24.5606  -22.4158  -11.6325 O   0  0  0  0  0  0  0  0  0  0  0  0
   24.7166  -19.7886  -15.8787 C   0  0  0  0  0  0  0  0  0  0  0  0
   24.2935  -21.1779  -15.4956 C   0  0  2  0  0  0  0  0  0  0  0  0
   22.8109  -21.2523  -15.2172 C   0  0  0  0  0  0  0  0  0  0  0  0
   25.0809  -21.6756  -14.2857 C   0  0  2  0  0  0  0  0  0  0  0  0
   24.8878  -20.7517  -13.1873 N   0  0  0  0  0  0  0  0  0  0  0  0
   26.5177  -21.7655  -14.5966 C   0  0  0  0  0  0  0  0  0  0  0  0
   27.0219  -22.8572  -15.2725 O   0  0  0  0  0  0  0  0  0  0  0  0
   27.2937  -20.8519  -14.2502 O   0  0  0  0  0  0  0  0  0  0  0  0
  2  1  1  0
  3  2  2  0
  4  2  1  0
  5  4  1  0
  6  5  1  0
  6  7  1  6
  8  6  1  0
  9  8  2  0
 10  8  1  0
 10 14  1  0
 11 12  1  0
 11 10  1  0
 12 13  1  0
 14 13  1  0
 15 21  1  0
 14 15  1  6
 16 15  2  0
 18 17  1  1
 19 18  1  0
 20 21  1  1
 20 18  1  0
 22 20  1  0
 22 23  1  0
 24 22  2  0
M  END
$$$$
