QPV.pdb
     RDKit          3D

 24 24  0  0  1  0  0  0  0  0999 V2000
   24.1572  -20.1748  -10.3558 N   0  0  0  0  0  0  0  0  0  0  0  0
   23.5247  -19.9172  -11.6197 C   0  0  0  0  0  0  0  0  0  0  0  0
   22.2776  -19.7664  -11.5944 O   0  0  0  0  0  0  0  0  0  0  0  0
   24.3115  -19.8361  -12.8781 C   0  0  0  0  0  0  0  0  0  0  0  0
   25.7632  -19.9227  -12.5142 C   0  0  0  0  0  0  0  0  0  0  0  0
   26.2844  -21.3470  -12.5488 C   0  0  2  0  0  0  0  0  0  0  0  0
   25.1837  -22.2589  -12.8738 N   0  0  0  0  0  0  0  0  0  0  0  0
   26.8071  -21.6674  -11.1989 C   0  0  0  0  0  0  0  0  0  0  0  0
   26.0462  -22.3582  -10.4234 O   0  0  0  0  0  0  0  0  0  0  0  0
   28.0566  -21.2751  -10.7200 N   0  0  0  0  0  0  0  0  0  0  0  0
   29.0195  -20.4523  -11.4709 C   0  0  0  0  0  0  0  0  0  0  0  0
   30.3788  -20.8469  -10.9625 C   0  0  0  0  0  0  0  0  0  0  0  0
   30.1433  -21.7102   -9.7426 C   0  0  0  0  0  0  0  0  0  0  0  0
   28.6592  -21.5843   -9.4421 C   0  0  1  0  0  0  0  0  0  0  0  0
   28.5064  -20.4521   -8.4963 C   0  0  0  0  0  0  0  0  0  0  0  0
   28.4592  -19.2722   -8.9059 O   0  0  0  0  0  0  0  0  0  0  0  0
   28.4637  -21.1986   -4.2304 C   0  0  0  0  0  0  0  0  0  0  0  0
   27.4541  -20.3295   -4.9241 C   0  0  2  0  0  0  0  0  0  0  0  0
   26.2110  -21.1042   -5.2924 C   0  0  0  0  0  0  0  0  0  0  0  0
   28.0550  -19.6782   -6.1676 C   0  0  2  0  0  0  0  0  0  0  0  0
   28.4133  -20.7144   -7.1137 N   0  0  0  0  0  0  0  0  0  0  0  0
   29.2570  -18.9002   -5.8225 C   0  0  0  0  0  0  0  0  0  0  0  0
   30.5149  -19.3928   -6.1010 O   0  0  0  0  0  0  0  0  0  0  0  0
   29.1472  -17.7852   -5.2734 O   0  0  0  0  0  0  0  0  0  0  0  0
  2  1  1  0
  3  2  2  0
  4  2  1  0
  5  4  1  0
  6  5  1  0
  6  7  1  1
  8  6  1  0
  9  8  2  0
 10  8  1  0
 10 14  1  0
 11 12  1  0
 11 10  1  0
 12 13  1  0
 14 13  1  0
 15 21  1  0
 14 15  1  1
 16 15  2  0
 18 17  1  6
 19 18  1  0
 20 21  1  6
 20 18  1  0
 22 20  1  0
 22 23  1  0
 24 22  2  0
M  END
$$$$
