QPV.pdb
     RDKit          3D

 24 24  0  0  1  0  0  0  0  0999 V2000
   20.0894  -19.5407  -17.4087 N   0  0  0  0  0  0  0  0  0  0  0  0
   20.3880  -18.1866  -17.7845 C   0  0  0  0  0  0  0  0  0  0  0  0
   19.4611  -17.5504  -18.3455 O   0  0  0  0  0  0  0  0  0  0  0  0
   21.7207  -17.5844  -17.5195 C   0  0  0  0  0  0  0  0  0  0  0  0
   22.5402  -18.5987  -16.7799 C   0  0  0  0  0  0  0  0  0  0  0  0
   23.8365  -18.9285  -17.4956 C   0  0  2  0  0  0  0  0  0  0  0  0
   23.5650  -19.8789  -18.5781 N   0  0  0  0  0  0  0  0  0  0  0  0
   24.7487  -19.5539  -16.5083 C   0  0  0  0  0  0  0  0  0  0  0  0
   24.6867  -20.8335  -16.3799 O   0  0  0  0  0  0  0  0  0  0  0  0
   25.6612  -18.8544  -15.7193 N   0  0  0  0  0  0  0  0  0  0  0  0
   25.8521  -17.3948  -15.7558 C   0  0  0  0  0  0  0  0  0  0  0  0
   27.2819  -17.1590  -15.3536 C   0  0  0  0  0  0  0  0  0  0  0  0
   27.8060  -18.4844  -14.8464 C   0  0  0  0  0  0  0  0  0  0  0  0
   26.5868  -19.3852  -14.7429 C   0  0  1  0  0  0  0  0  0  0  0  0
   26.0530  -19.2303  -13.3678 C   0  0  0  0  0  0  0  0  0  0  0  0
   25.4425  -18.1945  -13.0265 O   0  0  0  0  0  0  0  0  0  0  0  0
   26.5092  -22.5250  -10.5818 C   0  0  0  0  0  0  0  0  0  0  0  0
   25.2043  -21.8771  -10.9469 C   0  0  2  0  0  0  0  0  0  0  0  0
   24.5431  -22.5733  -12.1127 C   0  0  0  0  0  0  0  0  0  0  0  0
   25.3980  -20.3954  -11.2609 C   0  0  2  0  0  0  0  0  0  0  0  0
   26.2390  -20.2699  -12.4332 N   0  0  0  0  0  0  0  0  0  0  0  0
   26.0352  -19.6992  -10.1303 C   0  0  0  0  0  0  0  0  0  0  0  0
   25.3026  -19.3630   -9.0110 O   0  0  0  0  0  0  0  0  0  0  0  0
   27.2473  -19.4066  -10.1754 O   0  0  0  0  0  0  0  0  0  0  0  0
  2  1  1  0
  3  2  2  0
  4  2  1  0
  5  4  1  0
  6  5  1  0
  6  7  1  6
  8  6  1  0
  9  8  2  0
 10  8  1  0
 10 14  1  0
 11 12  1  0
 11 10  1  0
 12 13  1  0
 14 13  1  0
 15 21  1  0
 14 15  1  1
 16 15  2  0
 18 17  1  6
 19 18  1  0
 20 21  1  6
 20 18  1  0
 22 20  1  0
 22 23  1  0
 24 22  2  0
M  END
$$$$
