QPV.pdb
     RDKit          3D

 24 24  0  0  1  0  0  0  0  0999 V2000
   22.8233  -20.3015  -14.8836 N   0  0  0  0  0  0  0  0  0  0  0  0
   23.2244  -19.5757  -13.7104 C   0  0  0  0  0  0  0  0  0  0  0  0
   22.3043  -19.2495  -12.9195 O   0  0  0  0  0  0  0  0  0  0  0  0
   24.6493  -19.2363  -13.4582 C   0  0  0  0  0  0  0  0  0  0  0  0
   25.0161  -19.7820  -12.1110 C   0  0  0  0  0  0  0  0  0  0  0  0
   25.5121  -21.2140  -12.1823 C   0  0  2  0  0  0  0  0  0  0  0  0
   24.3722  -22.1128  -12.3860 N   0  0  0  0  0  0  0  0  0  0  0  0
   26.1628  -21.5294  -10.8880 C   0  0  0  0  0  0  0  0  0  0  0  0
   25.4444  -22.1212   -9.9985 O   0  0  0  0  0  0  0  0  0  0  0  0
   27.4887  -21.2318  -10.5751 N   0  0  0  0  0  0  0  0  0  0  0  0
   28.4032  -20.4731  -11.4446 C   0  0  0  0  0  0  0  0  0  0  0  0
   29.7848  -20.9685  -11.1166 C   0  0  0  0  0  0  0  0  0  0  0  0
   29.6474  -21.8238   -9.8764 C   0  0  0  0  0  0  0  0  0  0  0  0
   28.2276  -21.5951   -9.3861 C   0  0  1  0  0  0  0  0  0  0  0  0
   28.2804  -20.4636   -8.4286 C   0  0  0  0  0  0  0  0  0  0  0  0
   28.2691  -19.2796   -8.8289 O   0  0  0  0  0  0  0  0  0  0  0  0
   28.1801  -21.1001   -4.0164 C   0  0  0  0  0  0  0  0  0  0  0  0
   27.3999  -20.1601   -4.8902 C   0  0  2  0  0  0  0  0  0  0  0  0
   26.1282  -20.7971   -5.3982 C   0  0  0  0  0  0  0  0  0  0  0  0
   28.2478  -19.6720   -6.0626 C   0  0  2  0  0  0  0  0  0  0  0  0
   28.3442  -20.7313   -7.0454 N   0  0  0  0  0  0  0  0  0  0  0  0
   29.6009  -19.3033   -5.6129 C   0  0  0  0  0  0  0  0  0  0  0  0
   29.8216  -18.1081   -4.9606 O   0  0  0  0  0  0  0  0  0  0  0  0
   30.5623  -20.0715   -5.8187 O   0  0  0  0  0  0  0  0  0  0  0  0
  2  1  1  0
  3  2  2  0
  4  2  1  0
  5  4  1  0
  6  5  1  0
  6  7  1  1
  8  6  1  0
  9  8  2  0
 10  8  1  0
 10 14  1  0
 11 12  1  0
 11 10  1  0
 12 13  1  0
 14 13  1  0
 15 21  1  0
 14 15  1  1
 16 15  2  0
 18 17  1  6
 19 18  1  0
 20 21  1  6
 20 18  1  0
 22 20  1  0
 22 23  1  0
 24 22  2  0
M  END
$$$$
