QPV.pdb
     RDKit          3D

 24 24  0  0  1  0  0  0  0  0999 V2000
   21.5351  -18.0092  -18.5047 N   0  0  0  0  0  0  0  0  0  0  0  0
   22.7993  -17.6338  -17.9347 C   0  0  0  0  0  0  0  0  0  0  0  0
   23.6361  -17.1312  -18.7258 O   0  0  0  0  0  0  0  0  0  0  0  0
   23.0886  -17.8335  -16.4906 C   0  0  0  0  0  0  0  0  0  0  0  0
   21.8943  -18.4978  -15.8743 C   0  0  0  0  0  0  0  0  0  0  0  0
   21.8688  -19.9933  -16.1281 C   0  0  2  0  0  0  0  0  0  0  0  0
   20.4777  -20.4506  -16.1945 N   0  0  0  0  0  0  0  0  0  0  0  0
   22.5507  -20.6543  -14.9896 C   0  0  0  0  0  0  0  0  0  0  0  0
   21.9462  -20.6373  -13.8530 O   0  0  0  0  0  0  0  0  0  0  0  0
   23.7902  -21.2881  -15.0689 N   0  0  0  0  0  0  0  0  0  0  0  0
   24.6309  -21.3331  -16.2770 C   0  0  0  0  0  0  0  0  0  0  0  0
   25.4300  -22.6028  -16.1723 C   0  0  0  0  0  0  0  0  0  0  0  0
   25.2109  -23.1298  -14.7713 C   0  0  0  0  0  0  0  0  0  0  0  0
   24.4873  -22.0168  -14.0322 C   0  0  1  0  0  0  0  0  0  0  0  0
   25.5296  -21.1720  -13.3999 C   0  0  0  0  0  0  0  0  0  0  0  0
   26.2341  -20.3984  -14.0834 O   0  0  0  0  0  0  0  0  0  0  0  0
   27.1518  -21.6798   -9.2367 C   0  0  0  0  0  0  0  0  0  0  0  0
   26.4527  -20.4870   -9.8235 C   0  0  2  0  0  0  0  0  0  0  0  0
   24.9713  -20.5090   -9.5304 C   0  0  0  0  0  0  0  0  0  0  0  0
   26.6891  -20.4005  -11.3296 C   0  0  2  0  0  0  0  0  0  0  0  0
   25.7261  -21.2453  -12.0052 N   0  0  0  0  0  0  0  0  0  0  0  0
   28.0502  -20.8465  -11.6728 C   0  0  0  0  0  0  0  0  0  0  0  0
   29.1148  -19.9730  -11.5947 O   0  0  0  0  0  0  0  0  0  0  0  0
   28.2524  -22.0222  -12.0383 O   0  0  0  0  0  0  0  0  0  0  0  0
  2  1  1  0
  3  2  2  0
  4  2  1  0
  5  4  1  0
  6  5  1  0
  6  7  1  1
  8  6  1  0
  9  8  2  0
 10  8  1  0
 10 14  1  0
 11 12  1  0
 11 10  1  0
 12 13  1  0
 14 13  1  0
 15 21  1  0
 14 15  1  6
 16 15  2  0
 18 17  1  6
 19 18  1  0
 20 21  1  6
 20 18  1  0
 22 20  1  0
 22 23  1  0
 24 22  2  0
M  END
$$$$
