QPV.pdb
     RDKit          3D

 24 24  0  0  1  0  0  0  0  0999 V2000
   20.8661  -17.3549  -17.0846 N   0  0  0  0  0  0  0  0  0  0  0  0
   21.7473  -16.6203  -17.9494 C   0  0  0  0  0  0  0  0  0  0  0  0
   21.2218  -15.6978  -18.6213 O   0  0  0  0  0  0  0  0  0  0  0  0
   23.1956  -16.9427  -18.0354 C   0  0  0  0  0  0  0  0  0  0  0  0
   23.4730  -18.0551  -17.0694 C   0  0  0  0  0  0  0  0  0  0  0  0
   24.5519  -18.9982  -17.5672 C   0  0  2  0  0  0  0  0  0  0  0  0
   23.9970  -19.8609  -18.6144 N   0  0  0  0  0  0  0  0  0  0  0  0
   24.9846  -19.8320  -16.4202 C   0  0  0  0  0  0  0  0  0  0  0  0
   24.2552  -20.8518  -16.1275 O   0  0  0  0  0  0  0  0  0  0  0  0
   26.1189  -19.5875  -15.6470 N   0  0  0  0  0  0  0  0  0  0  0  0
   26.9858  -18.4052  -15.7841 C   0  0  0  0  0  0  0  0  0  0  0  0
   28.3529  -18.8464  -15.3392 C   0  0  0  0  0  0  0  0  0  0  0  0
   28.1769  -20.2118  -14.7121 C   0  0  0  0  0  0  0  0  0  0  0  0
   26.6749  -20.4091  -14.5945 C   0  0  1  0  0  0  0  0  0  0  0  0
   26.2777  -19.9002  -13.2592 C   0  0  0  0  0  0  0  0  0  0  0  0
   26.3551  -18.6834  -12.9841 O   0  0  0  0  0  0  0  0  0  0  0  0
   23.4901  -22.1600  -11.1365 C   0  0  0  0  0  0  0  0  0  0  0  0
   23.7135  -20.6761  -11.0746 C   0  0  2  0  0  0  0  0  0  0  0  0
   23.0421  -19.9628  -12.2242 C   0  0  0  0  0  0  0  0  0  0  0  0
   25.2046  -20.3478  -11.0515 C   0  0  2  0  0  0  0  0  0  0  0  0
   25.8055  -20.8061  -12.2869 N   0  0  0  0  0  0  0  0  0  0  0  0
   25.8689  -21.0083   -9.9150 C   0  0  0  0  0  0  0  0  0  0  0  0
   25.6906  -20.5400   -8.6299 O   0  0  0  0  0  0  0  0  0  0  0  0
   26.6011  -22.0005  -10.1057 O   0  0  0  0  0  0  0  0  0  0  0  0
  2  1  1  0
  3  2  2  0
  4  2  1  0
  5  4  1  0
  6  5  1  0
  6  7  1  6
  8  6  1  0
  9  8  2  0
 10  8  1  0
 10 14  1  0
 11 12  1  0
 11 10  1  0
 12 13  1  0
 14 13  1  0
 15 21  1  0
 14 15  1  1
 16 15  2  0
 18 17  1  6
 19 18  1  0
 20 21  1  6
 20 18  1  0
 22 20  1  0
 22 23  1  0
 24 22  2  0
M  END
$$$$
