NLP.pdb
     RDKit          3D

 24 24  0  0  1  0  0  0  0  0999 V2000
   10.5249  -16.8954   18.4134 N   0  0  0  0  0  0  0  0  0  0  0  0
   11.1348  -17.2459   19.6368 C   0  0  0  0  0  0  0  0  0  0  0  0
   11.6274  -18.3990   19.7198 O   0  0  0  0  0  0  0  0  0  0  0  0
   11.2043  -16.3124   20.7892 C   0  0  0  0  0  0  0  0  0  0  0  0
   10.3045  -16.8135   21.8680 C   0  0  2  0  0  0  0  0  0  0  0  0
    8.9810  -16.9901   21.2545 N   0  0  0  0  0  0  0  0  0  0  0  0
   10.1404  -15.9226   23.0218 C   0  0  0  0  0  0  0  0  0  0  0  0
   11.1009  -15.2035   23.4483 O   0  0  0  0  0  0  0  0  0  0  0  0
    5.7077  -13.5114   26.4453 C   0  0  0  0  0  0  0  0  0  0  0  0
    7.2137  -13.4441   26.1178 C   0  0  2  0  0  0  0  0  0  0  0  0
    7.5633  -12.0362   25.7930 C   0  0  0  0  0  0  0  0  0  0  0  0
    7.4418  -14.4440   25.0494 C   0  0  0  0  0  0  0  0  0  0  0  0
    8.8594  -14.9689   24.9651 C   0  0  2  0  0  0  0  0  0  0  0  0
    8.9208  -15.7702   23.7667 N   0  0  0  0  0  0  0  0  0  0  0  0
    9.3626  -15.5906   26.2032 C   0  0  0  0  0  0  0  0  0  0  0  0
    8.8014  -16.7386   26.4841 O   0  0  0  0  0  0  0  0  0  0  0  0
   10.3209  -15.1565   27.0984 N   0  0  0  0  0  0  0  0  0  0  0  0
   11.1864  -13.9967   27.0014 C   0  0  0  0  0  0  0  0  0  0  0  0
   10.9640  -13.3746   28.4072 C   0  0  0  0  0  0  0  0  0  0  0  0
   10.3763  -14.5152   29.2547 C   0  0  0  0  0  0  0  0  0  0  0  0
   10.7550  -15.7181   28.3462 C   0  0  1  0  0  0  0  0  0  0  0  0
   10.3535  -16.9853   28.8189 C   0  0  0  0  0  0  0  0  0  0  0  0
    8.9589  -17.2626   28.8508 O   0  0  0  0  0  0  0  0  0  0  0  0
   11.0595  -17.9077   29.2173 O   0  0  0  0  0  0  0  0  0  0  0  0
  2  3  2  0
  2  1  1  0
  4  2  1  0
  5  4  1  0
  5  6  1  6
  7  8  2  0
  7  5  1  0
 10  9  1  6
 10 12  1  0
 11 10  1  0
 13 12  1  1
 13 14  1  0
 14  7  1  0
 15 13  1  0
 16 15  2  0
 17 15  1  0
 17 18  1  0
 19 18  1  0
 20 19  1  0
 21 22  1  1
 21 20  1  0
 21 17  1  0
 22 23  1  0
 24 22  2  0
M  END
$$$$
