NLP.pdb
     RDKit          3D

 24 24  0  0  1  0  0  0  0  0999 V2000
    9.2725  -19.5448   20.3124 N   0  0  0  0  0  0  0  0  0  0  0  0
   10.3285  -18.7816   20.8545 C   0  0  0  0  0  0  0  0  0  0  0  0
   11.4105  -18.7684   20.2154 O   0  0  0  0  0  0  0  0  0  0  0  0
   10.1927  -18.0195   22.1214 C   0  0  0  0  0  0  0  0  0  0  0  0
    9.5561  -16.7038   21.8244 C   0  0  2  0  0  0  0  0  0  0  0  0
   10.3013  -16.1286   20.6961 N   0  0  0  0  0  0  0  0  0  0  0  0
    9.5843  -15.7247   22.9164 C   0  0  0  0  0  0  0  0  0  0  0  0
   10.6765  -15.2070   23.3170 O   0  0  0  0  0  0  0  0  0  0  0  0
    5.6721  -12.7088   26.5620 C   0  0  0  0  0  0  0  0  0  0  0  0
    7.1618  -12.9067   26.2134 C   0  0  2  0  0  0  0  0  0  0  0  0
    7.7649  -11.5743   25.9471 C   0  0  0  0  0  0  0  0  0  0  0  0
    7.1916  -13.8795   25.0972 C   0  0  0  0  0  0  0  0  0  0  0  0
    8.5321  -14.5470   24.8742 C   0  0  2  0  0  0  0  0  0  0  0  0
    8.4231  -15.2603   23.6247 N   0  0  0  0  0  0  0  0  0  0  0  0
    9.0428  -15.3084   26.0283 C   0  0  0  0  0  0  0  0  0  0  0  0
    8.4173  -16.4389   26.2343 O   0  0  0  0  0  0  0  0  0  0  0  0
   10.0644  -15.0185   26.9118 N   0  0  0  0  0  0  0  0  0  0  0  0
   10.9781  -13.8922   26.8962 C   0  0  0  0  0  0  0  0  0  0  0  0
   10.8563  -13.4244   28.3724 C   0  0  0  0  0  0  0  0  0  0  0  0
   10.2583  -14.6281   29.1195 C   0  0  0  0  0  0  0  0  0  0  0  0
   10.5334  -15.7352   28.0639 C   0  0  1  0  0  0  0  0  0  0  0  0
   10.0963  -17.0299   28.4147 C   0  0  0  0  0  0  0  0  0  0  0  0
   10.9339  -17.7959   29.2717 O   0  0  0  0  0  0  0  0  0  0  0  0
    9.0653  -17.6035   28.0743 O   0  0  0  0  0  0  0  0  0  0  0  0
  2  3  2  0
  2  1  1  0
  4  2  1  0
  5  4  1  0
  5  6  1  6
  7  8  2  0
  7  5  1  0
 10  9  1  6
 10 12  1  0
 11 10  1  0
 13 12  1  1
 13 14  1  0
 14  7  1  0
 15 13  1  0
 16 15  2  0
 17 15  1  0
 17 18  1  0
 19 18  1  0
 20 19  1  0
 21 22  1  1
 21 20  1  0
 21 17  1  0
 22 23  1  0
 24 22  2  0
M  END
$$$$
