NLP.pdb
     RDKit          3D

 24 24  0  0  1  0  0  0  0  0999 V2000
    9.6580  -16.8800   18.1006 N   0  0  0  0  0  0  0  0  0  0  0  0
   10.3963  -16.9064   19.3029 C   0  0  0  0  0  0  0  0  0  0  0  0
   11.1999  -17.8599   19.4590 O   0  0  0  0  0  0  0  0  0  0  0  0
   10.2486  -15.8664   20.3521 C   0  0  0  0  0  0  0  0  0  0  0  0
    9.9404  -16.5340   21.6498 C   0  0  2  0  0  0  0  0  0  0  0  0
    8.6212  -17.1611   21.4898 N   0  0  0  0  0  0  0  0  0  0  0  0
    9.8690  -15.6485   22.8172 C   0  0  0  0  0  0  0  0  0  0  0  0
   10.8701  -14.9540   23.1870 O   0  0  0  0  0  0  0  0  0  0  0  0
    5.7411  -12.9674   26.3889 C   0  0  0  0  0  0  0  0  0  0  0  0
    7.2451  -13.0481   26.0549 C   0  0  2  0  0  0  0  0  0  0  0  0
    7.7349  -11.6779   25.7505 C   0  0  0  0  0  0  0  0  0  0  0  0
    7.3667  -14.0487   24.9699 C   0  0  0  0  0  0  0  0  0  0  0  0
    8.7349  -14.6847   24.8450 C   0  0  2  0  0  0  0  0  0  0  0  0
    8.7022  -15.4751   23.6384 N   0  0  0  0  0  0  0  0  0  0  0  0
    9.2167  -15.3582   26.0643 C   0  0  0  0  0  0  0  0  0  0  0  0
    8.6407  -16.5102   26.2945 O   0  0  0  0  0  0  0  0  0  0  0  0
   10.1683  -14.9685   26.9867 N   0  0  0  0  0  0  0  0  0  0  0  0
   10.9635  -13.7557   27.0049 C   0  0  0  0  0  0  0  0  0  0  0  0
   10.7371  -13.3054   28.4742 C   0  0  0  0  0  0  0  0  0  0  0  0
   10.2347  -14.5648   29.1996 C   0  0  0  0  0  0  0  0  0  0  0  0
   10.6614  -15.6364   28.1579 C   0  0  1  0  0  0  0  0  0  0  0  0
   10.3438  -16.9693   28.4939 C   0  0  0  0  0  0  0  0  0  0  0  0
    8.9897  -17.2604   28.8167 O   0  0  0  0  0  0  0  0  0  0  0  0
   11.0940  -17.9400   28.5477 O   0  0  0  0  0  0  0  0  0  0  0  0
  2  3  2  0
  2  1  1  0
  4  2  1  0
  5  4  1  0
  5  6  1  6
  7  8  2  0
  7  5  1  0
 10  9  1  6
 10 12  1  0
 11 10  1  0
 13 12  1  1
 13 14  1  0
 14  7  1  0
 15 13  1  0
 16 15  2  0
 17 15  1  0
 17 18  1  0
 19 18  1  0
 20 19  1  0
 21 22  1  1
 21 20  1  0
 21 17  1  0
 22 23  1  0
 24 22  2  0
M  END
$$$$
