NLP.pdb
     RDKit          3D

 24 24  0  0  1  0  0  0  0  0999 V2000
    8.2815  -19.2480   20.6470 N   0  0  0  0  0  0  0  0  0  0  0  0
    9.5162  -18.5711   20.7389 C   0  0  0  0  0  0  0  0  0  0  0  0
   10.3005  -18.6782   19.7628 O   0  0  0  0  0  0  0  0  0  0  0  0
    9.8955  -17.7621   21.9247 C   0  0  0  0  0  0  0  0  0  0  0  0
    9.0733  -16.5178   21.9400 C   0  0  2  0  0  0  0  0  0  0  0  0
    9.5034  -15.7231   20.7813 N   0  0  0  0  0  0  0  0  0  0  0  0
    9.2203  -15.6751   23.1317 C   0  0  0  0  0  0  0  0  0  0  0  0
   10.3186  -15.0894   23.4002 O   0  0  0  0  0  0  0  0  0  0  0  0
    7.9238  -11.9768   25.3007 C   0  0  0  0  0  0  0  0  0  0  0  0
    6.7286  -12.9380   25.1343 C   0  0  2  0  0  0  0  0  0  0  0  0
    5.5068  -12.2647   25.6480 C   0  0  0  0  0  0  0  0  0  0  0  0
    7.1224  -14.1958   25.8096 C   0  0  0  0  0  0  0  0  0  0  0  0
    8.4425  -14.7761   25.3484 C   0  0  2  0  0  0  0  0  0  0  0  0
    8.1771  -15.4280   24.0889 N   0  0  0  0  0  0  0  0  0  0  0  0
    9.1582  -15.5677   26.3652 C   0  0  0  0  0  0  0  0  0  0  0  0
    8.6828  -16.7761   26.5253 O   0  0  0  0  0  0  0  0  0  0  0  0
   10.2372  -15.2372   27.1619 N   0  0  0  0  0  0  0  0  0  0  0  0
   11.1707  -14.1381   27.0058 C   0  0  0  0  0  0  0  0  0  0  0  0
   11.1483  -13.5572   28.4462 C   0  0  0  0  0  0  0  0  0  0  0  0
   10.5727  -14.6859   29.3177 C   0  0  0  0  0  0  0  0  0  0  0  0
   10.7608  -15.8761   28.3360 C   0  0  1  0  0  0  0  0  0  0  0  0
   10.3200  -17.1294   28.8106 C   0  0  0  0  0  0  0  0  0  0  0  0
    9.2270  -17.7397   28.1357 O   0  0  0  0  0  0  0  0  0  0  0  0
   10.7605  -17.7850   29.7508 O   0  0  0  0  0  0  0  0  0  0  0  0
  2  3  2  0
  2  1  1  0
  4  2  1  0
  5  4  1  0
  5  6  1  6
  7  8  2  0
  7  5  1  0
 10  9  1  1
 10 12  1  0
 11 10  1  0
 13 12  1  1
 13 14  1  0
 14  7  1  0
 15 13  1  0
 16 15  2  0
 17 15  1  0
 17 18  1  0
 19 18  1  0
 20 19  1  0
 21 22  1  1
 21 20  1  0
 21 17  1  0
 22 23  1  0
 24 22  2  0
M  END
$$$$
