NLP.pdb
     RDKit          3D

 24 24  0  0  1  0  0  0  0  0999 V2000
   11.1872  -19.4152   20.0098 N   0  0  0  0  0  0  0  0  0  0  0  0
   10.1614  -18.6756   20.6359 C   0  0  0  0  0  0  0  0  0  0  0  0
    9.0035  -18.7893   20.1607 O   0  0  0  0  0  0  0  0  0  0  0  0
   10.4128  -17.7955   21.8049 C   0  0  0  0  0  0  0  0  0  0  0  0
    9.5300  -16.5976   21.7027 C   0  0  2  0  0  0  0  0  0  0  0  0
   10.0165  -15.8216   20.5536 N   0  0  0  0  0  0  0  0  0  0  0  0
    9.5317  -15.7072   22.8685 C   0  0  0  0  0  0  0  0  0  0  0  0
   10.5926  -15.1169   23.2524 O   0  0  0  0  0  0  0  0  0  0  0  0
    5.5509  -12.9432   26.5937 C   0  0  0  0  0  0  0  0  0  0  0  0
    7.0507  -13.0928   26.2648 C   0  0  2  0  0  0  0  0  0  0  0  0
    7.6267  -11.7374   26.0620 C   0  0  0  0  0  0  0  0  0  0  0  0
    7.1229  -14.0198   25.1120 C   0  0  0  0  0  0  0  0  0  0  0  0
    8.4775  -14.6613   24.8987 C   0  0  2  0  0  0  0  0  0  0  0  0
    8.3768  -15.4151   23.6725 N   0  0  0  0  0  0  0  0  0  0  0  0
    9.0149  -15.3744   26.0715 C   0  0  0  0  0  0  0  0  0  0  0  0
    8.4473  -16.5325   26.2917 O   0  0  0  0  0  0  0  0  0  0  0  0
   10.0104  -15.0157   26.9595 N   0  0  0  0  0  0  0  0  0  0  0  0
   10.8616  -13.8417   26.9344 C   0  0  0  0  0  0  0  0  0  0  0  0
   10.6998  -13.3586   28.4018 C   0  0  0  0  0  0  0  0  0  0  0  0
   10.1607  -14.5815   29.1624 C   0  0  0  0  0  0  0  0  0  0  0  0
   10.5060  -15.6880   28.1271 C   0  0  1  0  0  0  0  0  0  0  0  0
   10.1365  -16.9991   28.4945 C   0  0  0  0  0  0  0  0  0  0  0  0
    8.8123  -17.1983   28.9736 O   0  0  0  0  0  0  0  0  0  0  0  0
   10.8173  -18.0204   28.4571 O   0  0  0  0  0  0  0  0  0  0  0  0
  2  3  2  0
  2  1  1  0
  4  2  1  0
  5  4  1  0
  5  6  1  6
  7  8  2  0
  7  5  1  0
 10  9  1  6
 10 12  1  0
 11 10  1  0
 13 12  1  1
 13 14  1  0
 14  7  1  0
 15 13  1  0
 16 15  2  0
 17 15  1  0
 17 18  1  0
 19 18  1  0
 20 19  1  0
 21 22  1  1
 21 20  1  0
 21 17  1  0
 22 23  1  0
 24 22  2  0
M  END
$$$$
