NLP.pdb
     RDKit          3D

 24 24  0  0  1  0  0  0  0  0999 V2000
    9.9016  -17.7847   19.6949 N   0  0  0  0  0  0  0  0  0  0  0  0
    9.8859  -16.3836   19.5278 C   0  0  0  0  0  0  0  0  0  0  0  0
   10.1683  -15.9412   18.3859 O   0  0  0  0  0  0  0  0  0  0  0  0
    9.5539  -15.4523   20.6354 C   0  0  0  0  0  0  0  0  0  0  0  0
    9.3034  -16.2473   21.8723 C   0  0  2  0  0  0  0  0  0  0  0  0
    7.9336  -16.7673   21.7599 N   0  0  0  0  0  0  0  0  0  0  0  0
    9.3902  -15.5027   23.1332 C   0  0  0  0  0  0  0  0  0  0  0  0
   10.4707  -14.9356   23.4973 O   0  0  0  0  0  0  0  0  0  0  0  0
    7.5996  -11.9900   25.4499 C   0  0  0  0  0  0  0  0  0  0  0  0
    6.6077  -13.1344   25.1557 C   0  0  2  0  0  0  0  0  0  0  0  0
    5.2452  -12.6913   25.5523 C   0  0  0  0  0  0  0  0  0  0  0  0
    7.1436  -14.3254   25.8538 C   0  0  0  0  0  0  0  0  0  0  0  0
    8.5055  -14.7813   25.3746 C   0  0  2  0  0  0  0  0  0  0  0  0
    8.3032  -15.3380   24.0589 N   0  0  0  0  0  0  0  0  0  0  0  0
    9.2528  -15.6113   26.3365 C   0  0  0  0  0  0  0  0  0  0  0  0
    8.9950  -16.8906   26.2429 O   0  0  0  0  0  0  0  0  0  0  0  0
   10.1700  -15.2537   27.3056 N   0  0  0  0  0  0  0  0  0  0  0  0
   10.9152  -14.0156   27.4292 C   0  0  0  0  0  0  0  0  0  0  0  0
   10.6427  -13.6834   28.9219 C   0  0  0  0  0  0  0  0  0  0  0  0
   10.1776  -15.0111   29.5427 C   0  0  0  0  0  0  0  0  0  0  0  0
   10.6670  -15.9860   28.4358 C   0  0  1  0  0  0  0  0  0  0  0  0
   10.3970  -17.3514   28.6672 C   0  0  0  0  0  0  0  0  0  0  0  0
   11.0401  -17.9694   29.7749 O   0  0  0  0  0  0  0  0  0  0  0  0
    9.6639  -18.1011   28.0281 O   0  0  0  0  0  0  0  0  0  0  0  0
  2  3  2  0
  2  1  1  0
  4  2  1  0
  5  4  1  0
  5  6  1  6
  7  8  2  0
  7  5  1  0
 10  9  1  1
 10 12  1  0
 11 10  1  0
 13 12  1  1
 13 14  1  0
 14  7  1  0
 15 13  1  0
 16 15  2  0
 17 15  1  0
 17 18  1  0
 19 18  1  0
 20 19  1  0
 21 22  1  1
 21 20  1  0
 21 17  1  0
 22 23  1  0
 24 22  2  0
M  END
$$$$
