NLP.pdb
     RDKit          3D

 24 24  0  0  1  0  0  0  0  0999 V2000
    9.1755  -19.1395   19.9219 N   0  0  0  0  0  0  0  0  0  0  0  0
    9.1096  -18.5517   21.2031 C   0  0  0  0  0  0  0  0  0  0  0  0
    8.3040  -19.0588   22.0235 O   0  0  0  0  0  0  0  0  0  0  0  0
    9.9439  -17.3859   21.5892 C   0  0  0  0  0  0  0  0  0  0  0  0
    9.0520  -16.2136   21.8236 C   0  0  2  0  0  0  0  0  0  0  0  0
    9.3859  -15.2257   20.7883 N   0  0  0  0  0  0  0  0  0  0  0  0
    9.1997  -15.5547   23.1258 C   0  0  0  0  0  0  0  0  0  0  0  0
   10.2988  -15.0164   23.4775 O   0  0  0  0  0  0  0  0  0  0  0  0
    7.6884  -12.0283   25.3722 C   0  0  0  0  0  0  0  0  0  0  0  0
    6.5763  -13.0754   25.1560 C   0  0  2  0  0  0  0  0  0  0  0  0
    5.2874  -12.4971   25.6190 C   0  0  0  0  0  0  0  0  0  0  0  0
    7.0348  -14.3027   25.8465 C   0  0  0  0  0  0  0  0  0  0  0  0
    8.3812  -14.8219   25.3885 C   0  0  2  0  0  0  0  0  0  0  0  0
    8.1563  -15.4485   24.1084 N   0  0  0  0  0  0  0  0  0  0  0  0
    9.1122  -15.6143   26.3937 C   0  0  0  0  0  0  0  0  0  0  0  0
    8.6418  -16.8242   26.5570 O   0  0  0  0  0  0  0  0  0  0  0  0
   10.2008  -15.2832   27.1770 N   0  0  0  0  0  0  0  0  0  0  0  0
   11.1150  -14.1675   27.0257 C   0  0  0  0  0  0  0  0  0  0  0  0
   11.1107  -13.6150   28.4774 C   0  0  0  0  0  0  0  0  0  0  0  0
   10.5679  -14.7689   29.3368 C   0  0  0  0  0  0  0  0  0  0  0  0
   10.7552  -15.9368   28.3286 C   0  0  1  0  0  0  0  0  0  0  0  0
   10.3416  -17.2056   28.7865 C   0  0  0  0  0  0  0  0  0  0  0  0
   10.9838  -17.7278   29.9430 O   0  0  0  0  0  0  0  0  0  0  0  0
    9.4807  -17.9421   28.3128 O   0  0  0  0  0  0  0  0  0  0  0  0
  2  3  2  0
  2  1  1  0
  4  2  1  0
  5  4  1  0
  5  6  1  6
  7  8  2  0
  7  5  1  0
 10  9  1  1
 10 12  1  0
 11 10  1  0
 13 12  1  1
 13 14  1  0
 14  7  1  0
 15 13  1  0
 16 15  2  0
 17 15  1  0
 17 18  1  0
 19 18  1  0
 20 19  1  0
 21 22  1  1
 21 20  1  0
 21 17  1  0
 22 23  1  0
 24 22  2  0
M  END
$$$$
