NLP.pdb
     RDKit          3D

 24 24  0  0  1  0  0  0  0  0999 V2000
    9.0303  -16.1062   18.1288 N   0  0  0  0  0  0  0  0  0  0  0  0
    9.7363  -16.2741   19.3390 C   0  0  0  0  0  0  0  0  0  0  0  0
   10.5431  -17.2357   19.4011 O   0  0  0  0  0  0  0  0  0  0  0  0
    9.5523  -15.3690   20.5015 C   0  0  0  0  0  0  0  0  0  0  0  0
    9.2796  -16.1940   21.7138 C   0  0  2  0  0  0  0  0  0  0  0  0
    7.9127  -16.7118   21.5633 N   0  0  0  0  0  0  0  0  0  0  0  0
    9.3422  -15.4801   22.9938 C   0  0  0  0  0  0  0  0  0  0  0  0
   10.3796  -14.8290   23.3418 O   0  0  0  0  0  0  0  0  0  0  0  0
    7.4918  -12.1348   25.2022 C   0  0  0  0  0  0  0  0  0  0  0  0
    6.4902  -13.2948   25.0256 C   0  0  2  0  0  0  0  0  0  0  0  0
    5.1537  -12.8389   25.4904 C   0  0  0  0  0  0  0  0  0  0  0  0
    7.0783  -14.4510   25.7402 C   0  0  0  0  0  0  0  0  0  0  0  0
    8.4574  -14.8553   25.2640 C   0  0  2  0  0  0  0  0  0  0  0  0
    8.2764  -15.4395   23.9572 N   0  0  0  0  0  0  0  0  0  0  0  0
    9.2416  -15.6382   26.2360 C   0  0  0  0  0  0  0  0  0  0  0  0
    8.9989  -16.9233   26.1982 O   0  0  0  0  0  0  0  0  0  0  0  0
   10.1795  -15.2320   27.1652 N   0  0  0  0  0  0  0  0  0  0  0  0
   10.9480  -14.0023   27.1931 C   0  0  0  0  0  0  0  0  0  0  0  0
   10.7040  -13.5638   28.6632 C   0  0  0  0  0  0  0  0  0  0  0  0
   10.2253  -14.8372   29.3802 C   0  0  0  0  0  0  0  0  0  0  0  0
   10.6809  -15.8944   28.3360 C   0  0  1  0  0  0  0  0  0  0  0  0
   10.3906  -17.2355   28.6644 C   0  0  0  0  0  0  0  0  0  0  0  0
    9.0807  -17.7120   28.3820 O   0  0  0  0  0  0  0  0  0  0  0  0
   11.1316  -18.0718   29.1738 O   0  0  0  0  0  0  0  0  0  0  0  0
  2  3  2  0
  2  1  1  0
  4  2  1  0
  5  4  1  0
  5  6  1  6
  7  8  2  0
  7  5  1  0
 10  9  1  1
 10 12  1  0
 11 10  1  0
 13 12  1  1
 13 14  1  0
 14  7  1  0
 15 13  1  0
 16 15  2  0
 17 15  1  0
 17 18  1  0
 19 18  1  0
 20 19  1  0
 21 22  1  1
 21 20  1  0
 21 17  1  0
 22 23  1  0
 24 22  2  0
M  END
$$$$
