NLP.pdb
     RDKit          3D

 24 24  0  0  1  0  0  0  0  0999 V2000
   10.3136  -18.6730   19.5163 N   0  0  0  0  0  0  0  0  0  0  0  0
    9.4621  -18.4624   20.6217 C   0  0  0  0  0  0  0  0  0  0  0  0
    8.3200  -18.9840   20.5706 O   0  0  0  0  0  0  0  0  0  0  0  0
    9.8735  -17.6642   21.8041 C   0  0  0  0  0  0  0  0  0  0  0  0
    9.0893  -16.3956   21.8235 C   0  0  2  0  0  0  0  0  0  0  0  0
    9.6082  -15.5714   20.7230 N   0  0  0  0  0  0  0  0  0  0  0  0
    9.1938  -15.6042   23.0542 C   0  0  0  0  0  0  0  0  0  0  0  0
   10.2384  -14.9274   23.3227 O   0  0  0  0  0  0  0  0  0  0  0  0
    7.5642  -12.0248   25.2235 C   0  0  0  0  0  0  0  0  0  0  0  0
    6.5295  -13.1460   24.9951 C   0  0  2  0  0  0  0  0  0  0  0  0
    5.1872  -12.6341   25.3776 C   0  0  0  0  0  0  0  0  0  0  0  0
    7.0283  -14.3185   25.7499 C   0  0  0  0  0  0  0  0  0  0  0  0
    8.3826  -14.8288   25.3053 C   0  0  2  0  0  0  0  0  0  0  0  0
    8.1640  -15.5100   24.0523 N   0  0  0  0  0  0  0  0  0  0  0  0
    9.1340  -15.5660   26.3370 C   0  0  0  0  0  0  0  0  0  0  0  0
    8.8403  -16.8396   26.3960 O   0  0  0  0  0  0  0  0  0  0  0  0
   10.0865  -15.1279   27.2364 N   0  0  0  0  0  0  0  0  0  0  0  0
   10.7530  -13.8408   27.2891 C   0  0  0  0  0  0  0  0  0  0  0  0
   10.5571  -13.4958   28.7909 C   0  0  0  0  0  0  0  0  0  0  0  0
   10.2244  -14.8379   29.4637 C   0  0  0  0  0  0  0  0  0  0  0  0
   10.7050  -15.8016   28.3430 C   0  0  1  0  0  0  0  0  0  0  0  0
   10.5435  -17.1766   28.6148 C   0  0  0  0  0  0  0  0  0  0  0  0
    9.2478  -17.6230   28.9953 O   0  0  0  0  0  0  0  0  0  0  0  0
   11.3886  -18.0661   28.5672 O   0  0  0  0  0  0  0  0  0  0  0  0
  2  3  2  0
  2  1  1  0
  4  2  1  0
  5  4  1  0
  5  6  1  6
  7  8  2  0
  7  5  1  0
 10  9  1  1
 10 12  1  0
 11 10  1  0
 13 12  1  1
 13 14  1  0
 14  7  1  0
 15 13  1  0
 16 15  2  0
 17 15  1  0
 17 18  1  0
 19 18  1  0
 20 19  1  0
 21 22  1  1
 21 20  1  0
 21 17  1  0
 22 23  1  0
 24 22  2  0
M  END
$$$$
