NLP.pdb
     RDKit          3D

 24 24  0  0  1  0  0  0  0  0999 V2000
    8.0047  -19.4521   20.8207 N   0  0  0  0  0  0  0  0  0  0  0  0
    8.9877  -18.4549   20.6454 C   0  0  0  0  0  0  0  0  0  0  0  0
    9.3459  -18.2068   19.4667 O   0  0  0  0  0  0  0  0  0  0  0  0
    9.5874  -17.7174   21.7859 C   0  0  0  0  0  0  0  0  0  0  0  0
    8.9909  -16.3515   21.8414 C   0  0  2  0  0  0  0  0  0  0  0  0
    9.6266  -15.5782   20.7657 N   0  0  0  0  0  0  0  0  0  0  0  0
    9.2005  -15.6183   23.0945 C   0  0  0  0  0  0  0  0  0  0  0  0
   10.3094  -15.0486   23.3539 O   0  0  0  0  0  0  0  0  0  0  0  0
    7.7635  -12.0344   25.2336 C   0  0  0  0  0  0  0  0  0  0  0  0
    6.6714  -13.1215   25.1608 C   0  0  2  0  0  0  0  0  0  0  0  0
    5.3958  -12.5428   25.6587 C   0  0  0  0  0  0  0  0  0  0  0  0
    7.2049  -14.2835   25.9080 C   0  0  0  0  0  0  0  0  0  0  0  0
    8.5165  -14.8270   25.3821 C   0  0  2  0  0  0  0  0  0  0  0  0
    8.2112  -15.4686   24.1263 N   0  0  0  0  0  0  0  0  0  0  0  0
    9.2937  -15.6146   26.3558 C   0  0  0  0  0  0  0  0  0  0  0  0
    9.0139  -16.8927   26.3454 O   0  0  0  0  0  0  0  0  0  0  0  0
   10.2577  -15.2190   27.2627 N   0  0  0  0  0  0  0  0  0  0  0  0
   11.0223  -13.9868   27.2866 C   0  0  0  0  0  0  0  0  0  0  0  0
   10.8211  -13.5719   28.7699 C   0  0  0  0  0  0  0  0  0  0  0  0
   10.3687  -14.8580   29.4811 C   0  0  0  0  0  0  0  0  0  0  0  0
   10.7964  -15.8973   28.4076 C   0  0  1  0  0  0  0  0  0  0  0  0
   10.5209  -17.2444   28.7237 C   0  0  0  0  0  0  0  0  0  0  0  0
    9.2415  -17.7539   28.3683 O   0  0  0  0  0  0  0  0  0  0  0  0
   11.2518  -18.0609   29.2779 O   0  0  0  0  0  0  0  0  0  0  0  0
  2  3  2  0
  2  1  1  0
  4  2  1  0
  5  4  1  0
  5  6  1  6
  7  8  2  0
  7  5  1  0
 10  9  1  1
 10 12  1  0
 11 10  1  0
 13 12  1  1
 13 14  1  0
 14  7  1  0
 15 13  1  0
 16 15  2  0
 17 15  1  0
 17 18  1  0
 19 18  1  0
 20 19  1  0
 21 22  1  1
 21 20  1  0
 21 17  1  0
 22 23  1  0
 24 22  2  0
M  END
$$$$
