NLP.pdb
     RDKit          3D

 24 24  0  0  1  0  0  0  0  0999 V2000
    8.5398  -17.5633   19.3686 N   0  0  0  0  0  0  0  0  0  0  0  0
    9.0056  -18.2797   20.4917 C   0  0  0  0  0  0  0  0  0  0  0  0
    9.1261  -19.5242   20.3658 O   0  0  0  0  0  0  0  0  0  0  0  0
    9.3449  -17.6162   21.7758 C   0  0  0  0  0  0  0  0  0  0  0  0
    8.8317  -16.2161   21.7432 C   0  0  2  0  0  0  0  0  0  0  0  0
    9.6015  -15.5171   20.7049 N   0  0  0  0  0  0  0  0  0  0  0  0
    8.9811  -15.4567   22.9893 C   0  0  0  0  0  0  0  0  0  0  0  0
   10.0901  -14.9205   23.3120 O   0  0  0  0  0  0  0  0  0  0  0  0
    7.5417  -11.8354   25.2829 C   0  0  0  0  0  0  0  0  0  0  0  0
    6.4028  -12.8530   25.0647 C   0  0  2  0  0  0  0  0  0  0  0  0
    5.1367  -12.2592   25.5690 C   0  0  0  0  0  0  0  0  0  0  0  0
    6.8487  -14.1066   25.7148 C   0  0  0  0  0  0  0  0  0  0  0  0
    8.1819  -14.6336   25.2277 C   0  0  2  0  0  0  0  0  0  0  0  0
    7.9288  -15.2429   23.9446 N   0  0  0  0  0  0  0  0  0  0  0  0
    8.9220  -15.4447   26.2110 C   0  0  0  0  0  0  0  0  0  0  0  0
    8.5497  -16.6984   26.2494 O   0  0  0  0  0  0  0  0  0  0  0  0
    9.9331  -15.0924   27.0838 N   0  0  0  0  0  0  0  0  0  0  0  0
   10.7515  -13.8950   27.0800 C   0  0  0  0  0  0  0  0  0  0  0  0
   10.6200  -13.4725   28.5690 C   0  0  0  0  0  0  0  0  0  0  0  0
   10.1363  -14.7379   29.2967 C   0  0  0  0  0  0  0  0  0  0  0  0
   10.4806  -15.7943   28.2100 C   0  0  1  0  0  0  0  0  0  0  0  0
   10.1573  -17.1282   28.5367 C   0  0  0  0  0  0  0  0  0  0  0  0
    8.8335  -17.5693   28.2614 O   0  0  0  0  0  0  0  0  0  0  0  0
   10.8792  -17.9851   29.0392 O   0  0  0  0  0  0  0  0  0  0  0  0
  2  3  2  0
  2  1  1  0
  4  2  1  0
  5  4  1  0
  5  6  1  6
  7  8  2  0
  7  5  1  0
 10  9  1  1
 10 12  1  0
 11 10  1  0
 13 12  1  1
 13 14  1  0
 14  7  1  0
 15 13  1  0
 16 15  2  0
 17 15  1  0
 17 18  1  0
 19 18  1  0
 20 19  1  0
 21 22  1  1
 21 20  1  0
 21 17  1  0
 22 23  1  0
 24 22  2  0
M  END
$$$$
