NLP.pdb
     RDKit          3D

 24 24  0  0  1  0  0  0  0  0999 V2000
   10.2154  -18.5161   19.8545 N   0  0  0  0  0  0  0  0  0  0  0  0
   10.8140  -17.2488   19.6896 C   0  0  0  0  0  0  0  0  0  0  0  0
   11.4486  -17.0511   18.6231 O   0  0  0  0  0  0  0  0  0  0  0  0
   10.7131  -16.1800   20.7153 C   0  0  0  0  0  0  0  0  0  0  0  0
    9.9843  -16.7187   21.8999 C   0  0  2  0  0  0  0  0  0  0  0  0
    8.6078  -16.9784   21.4562 N   0  0  0  0  0  0  0  0  0  0  0  0
    9.9122  -15.8244   23.0606 C   0  0  0  0  0  0  0  0  0  0  0  0
   10.9555  -15.2783   23.5448 O   0  0  0  0  0  0  0  0  0  0  0  0
    5.7161  -12.9842   26.5114 C   0  0  0  0  0  0  0  0  0  0  0  0
    7.2197  -13.1058   26.1882 C   0  0  2  0  0  0  0  0  0  0  0  0
    7.7326  -11.7608   25.8171 C   0  0  0  0  0  0  0  0  0  0  0  0
    7.3287  -14.1617   25.1554 C   0  0  0  0  0  0  0  0  0  0  0  0
    8.7148  -14.7489   24.9935 C   0  0  2  0  0  0  0  0  0  0  0  0
    8.6989  -15.4800   23.7497 N   0  0  0  0  0  0  0  0  0  0  0  0
    9.2238  -15.4662   26.1762 C   0  0  0  0  0  0  0  0  0  0  0  0
    8.7212  -16.6651   26.3241 O   0  0  0  0  0  0  0  0  0  0  0  0
   10.1361  -15.0756   27.1371 N   0  0  0  0  0  0  0  0  0  0  0  0
   10.9325  -13.8644   27.1855 C   0  0  0  0  0  0  0  0  0  0  0  0
   10.6449  -13.4092   28.6425 C   0  0  0  0  0  0  0  0  0  0  0  0
   10.1093  -14.6654   29.3496 C   0  0  0  0  0  0  0  0  0  0  0  0
   10.5776  -15.7410   28.3301 C   0  0  1  0  0  0  0  0  0  0  0  0
   10.2431  -17.0723   28.6563 C   0  0  0  0  0  0  0  0  0  0  0  0
   11.1192  -17.7745   29.5291 O   0  0  0  0  0  0  0  0  0  0  0  0
    9.2742  -17.7272   28.2815 O   0  0  0  0  0  0  0  0  0  0  0  0
  2  3  2  0
  2  1  1  0
  4  2  1  0
  5  4  1  0
  5  6  1  6
  7  8  2  0
  7  5  1  0
 10  9  1  6
 10 12  1  0
 11 10  1  0
 13 12  1  1
 13 14  1  0
 14  7  1  0
 15 13  1  0
 16 15  2  0
 17 15  1  0
 17 18  1  0
 19 18  1  0
 20 19  1  0
 21 22  1  1
 21 20  1  0
 21 17  1  0
 22 23  1  0
 24 22  2  0
M  END
$$$$
