NLP.pdb
     RDKit          3D

 24 24  0  0  1  0  0  0  0  0999 V2000
    6.2522  -17.6436   19.1502 N   0  0  0  0  0  0  0  0  0  0  0  0
    6.9043  -18.4537   20.1041 C   0  0  0  0  0  0  0  0  0  0  0  0
    6.6357  -19.6813   20.0903 O   0  0  0  0  0  0  0  0  0  0  0  0
    7.8687  -17.9047   21.0904 C   0  0  0  0  0  0  0  0  0  0  0  0
    7.8529  -16.4160   21.0000 C   0  0  2  0  0  0  0  0  0  0  0  0
    8.7155  -16.0610   19.8646 N   0  0  0  0  0  0  0  0  0  0  0  0
    8.3594  -15.7037   22.1781 C   0  0  0  0  0  0  0  0  0  0  0  0
    9.5982  -15.4428   22.3155 O   0  0  0  0  0  0  0  0  0  0  0  0
    6.1196  -12.6522   26.9831 C   0  0  0  0  0  0  0  0  0  0  0  0
    7.4352  -13.1319   26.3357 C   0  0  2  0  0  0  0  0  0  0  0  0
    8.3553  -11.9700   26.2204 C   0  0  0  0  0  0  0  0  0  0  0  0
    7.0465  -13.7941   25.0694 C   0  0  0  0  0  0  0  0  0  0  0  0
    8.1166  -14.6754   24.4608 C   0  0  2  0  0  0  0  0  0  0  0  0
    7.5405  -15.2391   23.2640 N   0  0  0  0  0  0  0  0  0  0  0  0
    8.7467  -15.6203   25.4003 C   0  0  0  0  0  0  0  0  0  0  0  0
    7.9246  -16.1011   26.2974 O   0  0  0  0  0  0  0  0  0  0  0  0
   10.0501  -16.0711   25.4785 N   0  0  0  0  0  0  0  0  0  0  0  0
   11.0913  -15.9998   24.4713 C   0  0  0  0  0  0  0  0  0  0  0  0
   12.2516  -15.4149   25.3223 C   0  0  0  0  0  0  0  0  0  0  0  0
   11.8428  -15.6789   26.7810 C   0  0  0  0  0  0  0  0  0  0  0  0
   10.7414  -16.7483   26.5389 C   0  0  1  0  0  0  0  0  0  0  0  0
   10.1087  -17.2410   27.6997 C   0  0  0  0  0  0  0  0  0  0  0  0
   10.5365  -18.5037   28.1951 O   0  0  0  0  0  0  0  0  0  0  0  0
    9.2157  -16.7174   28.3602 O   0  0  0  0  0  0  0  0  0  0  0  0
  2  3  2  0
  2  1  1  0
  4  2  1  0
  5  4  1  0
  5  6  1  6
  7  8  2  0
  7  5  1  0
 10  9  1  6
 10 12  1  0
 11 10  1  0
 13 12  1  1
 13 14  1  0
 14  7  1  0
 15 13  1  0
 16 15  2  0
 17 15  1  0
 17 18  1  0
 19 18  1  0
 20 19  1  0
 21 22  1  1
 21 20  1  0
 21 17  1  0
 22 23  1  0
 24 22  2  0
M  END
$$$$
