NLP.pdb
     RDKit          3D

 24 24  0  0  1  0  0  0  0  0999 V2000
   10.8451  -16.8227   18.2809 N   0  0  0  0  0  0  0  0  0  0  0  0
   11.1119  -17.1404   19.6297 C   0  0  0  0  0  0  0  0  0  0  0  0
   11.4365  -18.3276   19.8835 O   0  0  0  0  0  0  0  0  0  0  0  0
   11.0202  -16.1354   20.7187 C   0  0  0  0  0  0  0  0  0  0  0  0
   10.1530  -16.6802   21.8031 C   0  0  2  0  0  0  0  0  0  0  0  0
    8.8122  -16.8356   21.2222 N   0  0  0  0  0  0  0  0  0  0  0  0
   10.0220  -15.8352   22.9950 C   0  0  0  0  0  0  0  0  0  0  0  0
   11.0115  -15.1815   23.4585 O   0  0  0  0  0  0  0  0  0  0  0  0
    5.6574  -13.3330   26.4239 C   0  0  0  0  0  0  0  0  0  0  0  0
    7.1660  -13.2958   26.1037 C   0  0  2  0  0  0  0  0  0  0  0  0
    7.5535  -11.8888   25.8203 C   0  0  0  0  0  0  0  0  0  0  0  0
    7.3725  -14.2706   25.0081 C   0  0  0  0  0  0  0  0  0  0  0  0
    8.7620  -14.8687   24.9457 C   0  0  2  0  0  0  0  0  0  0  0  0
    8.8054  -15.6598   23.7398 N   0  0  0  0  0  0  0  0  0  0  0  0
    9.2066  -15.5287   26.1863 C   0  0  0  0  0  0  0  0  0  0  0  0
    8.5967  -16.6600   26.4311 O   0  0  0  0  0  0  0  0  0  0  0  0
   10.1539  -15.1447   27.1156 N   0  0  0  0  0  0  0  0  0  0  0  0
   11.0100  -13.9741   27.1002 C   0  0  0  0  0  0  0  0  0  0  0  0
   10.7708  -13.4448   28.5408 C   0  0  0  0  0  0  0  0  0  0  0  0
   10.1862  -14.6419   29.3087 C   0  0  0  0  0  0  0  0  0  0  0  0
   10.5827  -15.7812   28.3288 C   0  0  1  0  0  0  0  0  0  0  0  0
   10.1885  -17.0792   28.7163 C   0  0  0  0  0  0  0  0  0  0  0  0
   11.2162  -18.0190   29.0047 O   0  0  0  0  0  0  0  0  0  0  0  0
    9.0505  -17.5230   28.8430 O   0  0  0  0  0  0  0  0  0  0  0  0
  2  3  2  0
  2  1  1  0
  4  2  1  0
  5  4  1  0
  5  6  1  6
  7  8  2  0
  7  5  1  0
 10  9  1  6
 10 12  1  0
 11 10  1  0
 13 12  1  1
 13 14  1  0
 14  7  1  0
 15 13  1  0
 16 15  2  0
 17 15  1  0
 17 18  1  0
 19 18  1  0
 20 19  1  0
 21 22  1  1
 21 20  1  0
 21 17  1  0
 22 23  1  0
 24 22  2  0
M  END
$$$$
