FAD.pdb
     RDKit          3D

 25 25  0  0  1  0  0  0  0  0999 V2000
   24.7269  -11.0263  -17.7201 N   0  0  0  0  0  0  0  0  0  0  0  0
   24.5161  -10.5960  -16.3734 C   0  0  1  0  0  0  0  0  0  0  0  0
   25.7661   -9.9889  -15.7561 C   0  0  0  0  0  0  0  0  0  0  0  0
   26.9170  -10.9175  -15.8083 C   0  0  0  0  0  0  0  0  0  0  0  0
   27.9827  -10.6052  -16.6259 C   0  0  0  0  0  0  0  0  0  0  0  0
   29.0875  -11.4423  -16.7115 C   0  0  0  0  0  0  0  0  0  0  0  0
   29.1411  -12.6080  -15.9771 C   0  0  0  0  0  0  0  0  0  0  0  0
   28.0747  -12.9163  -15.1617 C   0  0  0  0  0  0  0  0  0  0  0  0
   26.9698  -12.0811  -15.0748 C   0  0  0  0  0  0  0  0  0  0  0  0
   23.3986   -9.6630  -16.2091 C   0  0  0  0  0  0  0  0  0  0  0  0
   23.2961   -8.7195  -17.0414 O   0  0  0  0  0  0  0  0  0  0  0  0
   20.2841   -9.2533  -14.0993 C   0  0  0  0  0  0  0  0  0  0  0  0
   21.3097   -8.8243  -15.0977 C   0  0  2  0  0  0  0  0  0  0  0  0
   22.4171   -9.7275  -15.1919 N   0  0  0  0  0  0  0  0  0  0  0  0
   21.7002   -7.4290  -14.8476 C   0  0  0  0  0  0  0  0  0  0  0  0
   22.9023   -7.1803  -14.5729 O   0  0  0  0  0  0  0  0  0  0  0  0
   20.8063   -6.3234  -14.8939 N   0  0  0  0  0  0  0  0  0  0  0  0
   21.2775   -4.9453  -14.7683 C   0  0  1  0  0  0  0  0  0  0  0  0
   22.3147   -4.7585  -15.8552 C   0  0  0  0  0  0  0  0  0  0  0  0
   22.8075   -3.3709  -15.9451 C   0  0  0  0  0  0  0  0  0  0  0  0
   22.5571   -2.5537  -15.0358 O   0  0  0  0  0  0  0  0  0  0  0  0
   20.1518   -3.9885  -14.8585 C   0  0  0  0  0  0  0  0  0  0  0  0
   19.2528   -4.0942  -15.7273 O   0  0  0  0  0  0  0  0  0  0  0  0
   23.5502   -2.9841  -17.0476 O   0  0  0  0  0  0  0  0  0  0  0  0
   20.0564   -2.9274  -13.9685 O   0  0  0  0  0  0  0  0  0  0  0  0
  2  1  1  6
  2  3  1  0
  4  5  2  0
  4  3  1  0
  6  5  1  0
  7  6  2  0
  8  7  1  0
  8  9  2  0
  9  4  1  0
 10  2  1  0
 11 10  2  0
 13 12  1  1
 13 14  1  0
 14 10  1  0
 15 16  2  0
 15 13  1  0
 17 15  1  0
 18 17  1  0
 18 19  1  6
 20 21  2  0
 20 19  1  0
 22 25  1  0
 22 18  1  0
 23 22  2  0
 24 20  1  0
M  END
$$$$
