FAD.pdb
     RDKit          3D

 25 25  0  0  1  0  0  0  0  0999 V2000
   24.2737  -11.4182  -14.8845 N   0  0  0  0  0  0  0  0  0  0  0  0
   23.7294  -11.7515  -16.1634 C   0  0  1  0  0  0  0  0  0  0  0  0
   23.6888  -13.2525  -16.4032 C   0  0  0  0  0  0  0  0  0  0  0  0
   25.0240  -13.8733  -16.2572 C   0  0  0  0  0  0  0  0  0  0  0  0
   25.2785  -14.6408  -15.1401 C   0  0  0  0  0  0  0  0  0  0  0  0
   26.5147  -15.2458  -14.9547 C   0  0  0  0  0  0  0  0  0  0  0  0
   27.5173  -15.0903  -15.8885 C   0  0  0  0  0  0  0  0  0  0  0  0
   27.2592  -14.3230  -17.0028 C   0  0  0  0  0  0  0  0  0  0  0  0
   26.0244  -13.7177  -17.1899 C   0  0  0  0  0  0  0  0  0  0  0  0
   22.4001  -11.1896  -16.4152 C   0  0  0  0  0  0  0  0  0  0  0  0
   21.9317  -11.2938  -17.5827 O   0  0  0  0  0  0  0  0  0  0  0  0
   19.2610  -10.3091  -14.7539 C   0  0  0  0  0  0  0  0  0  0  0  0
   20.3125   -9.9607  -15.7567 C   0  0  2  0  0  0  0  0  0  0  0  0
   21.5894  -10.5357  -15.4574 N   0  0  0  0  0  0  0  0  0  0  0  0
   20.3490   -8.5049  -15.9599 C   0  0  0  0  0  0  0  0  0  0  0  0
   19.2881   -7.9167  -16.2930 O   0  0  0  0  0  0  0  0  0  0  0  0
   21.5121   -7.7006  -15.8054 N   0  0  0  0  0  0  0  0  0  0  0  0
   21.4912   -6.2597  -16.0511 C   0  0  1  0  0  0  0  0  0  0  0  0
   22.4779   -5.6557  -15.0746 C   0  0  0  0  0  0  0  0  0  0  0  0
   21.9872   -5.6659  -13.6834 C   0  0  0  0  0  0  0  0  0  0  0  0
   20.7799   -5.8708  -13.4432 O   0  0  0  0  0  0  0  0  0  0  0  0
   21.8036   -5.9574  -17.4660 C   0  0  0  0  0  0  0  0  0  0  0  0
   21.4430   -4.8892  -18.0165 O   0  0  0  0  0  0  0  0  0  0  0  0
   22.8786   -5.4459  -12.6472 O   0  0  0  0  0  0  0  0  0  0  0  0
   22.5173   -6.8632  -18.2387 O   0  0  0  0  0  0  0  0  0  0  0  0
  2  1  1  1
  2  3  1  0
  4  5  2  0
  4  3  1  0
  6  5  1  0
  7  6  2  0
  8  7  1  0
  8  9  2  0
  9  4  1  0
 10  2  1  0
 11 10  2  0
 13 12  1  1
 13 14  1  0
 14 10  1  0
 15 16  2  0
 15 13  1  0
 17 15  1  0
 18 17  1  0
 18 19  1  1
 20 21  2  0
 20 19  1  0
 22 25  1  0
 22 18  1  0
 23 22  2  0
 24 20  1  0
M  END
$$$$
