FAD.pdb
     RDKit          3D

 25 25  0  0  1  0  0  0  0  0999 V2000
   25.4989  -20.9844   -7.7723 N   0  0  0  0  0  0  0  0  0  0  0  0
   26.4587  -20.2626   -8.5475 C   0  0  1  0  0  0  0  0  0  0  0  0
   27.8882  -20.5548   -8.1193 C   0  0  0  0  0  0  0  0  0  0  0  0
   28.1452  -20.1357   -6.7236 C   0  0  0  0  0  0  0  0  0  0  0  0
   28.0606  -18.7958   -6.4088 C   0  0  0  0  0  0  0  0  0  0  0  0
   28.2923  -18.3496   -5.1142 C   0  0  0  0  0  0  0  0  0  0  0  0
   28.6131  -19.2418   -4.1130 C   0  0  0  0  0  0  0  0  0  0  0  0
   28.6966  -20.5792   -4.4316 C   0  0  0  0  0  0  0  0  0  0  0  0
   28.4654  -21.0270   -5.7247 C   0  0  0  0  0  0  0  0  0  0  0  0
   26.3398  -20.4680   -9.9932 C   0  0  0  0  0  0  0  0  0  0  0  0
   26.6511  -21.6023  -10.4512 O   0  0  0  0  0  0  0  0  0  0  0  0
   27.8134  -19.8113  -12.4183 C   0  0  0  0  0  0  0  0  0  0  0  0
   26.3763  -19.4274  -12.2775 C   0  0  2  0  0  0  0  0  0  0  0  0
   25.9033  -19.4992  -10.9276 N   0  0  0  0  0  0  0  0  0  0  0  0
   25.5583  -20.1862  -13.2351 C   0  0  0  0  0  0  0  0  0  0  0  0
   25.8051  -20.0692  -14.4630 O   0  0  0  0  0  0  0  0  0  0  0  0
   24.4928  -21.0554  -12.8705 N   0  0  0  0  0  0  0  0  0  0  0  0
   23.6411  -21.6933  -13.8728 C   0  0  1  0  0  0  0  0  0  0  0  0
   23.6153  -23.1658  -13.5220 C   0  0  0  0  0  0  0  0  0  0  0  0
   24.7895  -23.8978  -14.0337 C   0  0  0  0  0  0  0  0  0  0  0  0
   25.6648  -23.3013  -14.6935 O   0  0  0  0  0  0  0  0  0  0  0  0
   22.2980  -21.0718  -13.9020 C   0  0  0  0  0  0  0  0  0  0  0  0
   21.5335  -21.1787  -14.8911 O   0  0  0  0  0  0  0  0  0  0  0  0
   24.9110  -25.2524  -13.7751 O   0  0  0  0  0  0  0  0  0  0  0  0
   21.8371  -20.3396  -12.8164 O   0  0  0  0  0  0  0  0  0  0  0  0
  2  1  1  1
  2  3  1  0
  4  5  2  0
  4  3  1  0
  6  5  1  0
  7  6  2  0
  8  7  1  0
  8  9  2  0
  9  4  1  0
 10  2  1  0
 11 10  2  0
 13 12  1  1
 13 14  1  0
 14 10  1  0
 15 16  2  0
 15 13  1  0
 17 15  1  0
 18 17  1  0
 18 19  1  1
 20 21  2  0
 20 19  1  0
 22 25  1  0
 22 18  1  0
 23 22  2  0
 24 20  1  0
M  END
$$$$
