FAD.pdb
     RDKit          3D

 25 25  0  0  1  0  0  0  0  0999 V2000
   28.8863  -21.6032  -10.9460 N   0  0  0  0  0  0  0  0  0  0  0  0
   27.4851  -21.3553  -10.8113 C   0  0  1  0  0  0  0  0  0  0  0  0
   27.1940  -20.0390  -10.1076 C   0  0  0  0  0  0  0  0  0  0  0  0
   27.6683  -20.0432   -8.7060 C   0  0  0  0  0  0  0  0  0  0  0  0
   26.7601  -20.3018   -7.7009 C   0  0  0  0  0  0  0  0  0  0  0  0
   27.1531  -20.3178   -6.3690 C   0  0  0  0  0  0  0  0  0  0  0  0
   28.4656  -20.0742   -6.0234 C   0  0  0  0  0  0  0  0  0  0  0  0
   29.3694  -19.8164   -7.0302 C   0  0  0  0  0  0  0  0  0  0  0  0
   28.9786  -19.8000   -8.3617 C   0  0  0  0  0  0  0  0  0  0  0  0
   26.7436  -21.3981  -12.0740 C   0  0  0  0  0  0  0  0  0  0  0  0
   27.1509  -20.6653  -13.0177 O   0  0  0  0  0  0  0  0  0  0  0  0
   24.1720  -23.3733  -13.9217 C   0  0  0  0  0  0  0  0  0  0  0  0
   24.8044  -22.0824  -13.5141 C   0  0  2  0  0  0  0  0  0  0  0  0
   25.6026  -22.1947  -12.3303 N   0  0  0  0  0  0  0  0  0  0  0  0
   23.7857  -21.0243  -13.4459 C   0  0  0  0  0  0  0  0  0  0  0  0
   24.0419  -19.9834  -12.7878 O   0  0  0  0  0  0  0  0  0  0  0  0
   22.5132  -21.0917  -14.0783 N   0  0  0  0  0  0  0  0  0  0  0  0
   21.8463  -19.8989  -14.5975 C   0  0  1  0  0  0  0  0  0  0  0  0
   22.8148  -19.2734  -15.5787 C   0  0  0  0  0  0  0  0  0  0  0  0
   22.2721  -18.0656  -16.2292 C   0  0  0  0  0  0  0  0  0  0  0  0
   21.1221  -17.6658  -15.9552 O   0  0  0  0  0  0  0  0  0  0  0  0
   20.5380  -20.2411  -15.1992 C   0  0  0  0  0  0  0  0  0  0  0  0
   19.4817  -19.6394  -14.8885 O   0  0  0  0  0  0  0  0  0  0  0  0
   23.0505  -17.3801  -17.1462 O   0  0  0  0  0  0  0  0  0  0  0  0
   20.4399  -21.2557  -16.1414 O   0  0  0  0  0  0  0  0  0  0  0  0
  2  1  1  6
  2  3  1  0
  4  5  2  0
  4  3  1  0
  6  5  1  0
  7  6  2  0
  8  7  1  0
  8  9  2  0
  9  4  1  0
 10  2  1  0
 11 10  2  0
 13 12  1  1
 13 14  1  0
 14 10  1  0
 15 16  2  0
 15 13  1  0
 17 15  1  0
 18 17  1  0
 18 19  1  6
 20 21  2  0
 20 19  1  0
 22 25  1  0
 22 18  1  0
 23 22  2  0
 24 20  1  0
M  END
$$$$
