FAD.pdb
     RDKit          3D

 25 25  0  0  1  0  0  0  0  0999 V2000
   24.9972  -19.0232  -17.1767 N   0  0  0  0  0  0  0  0  0  0  0  0
   24.3991  -19.0843  -15.8799 C   0  0  1  0  0  0  0  0  0  0  0  0
   22.8898  -18.9057  -15.9283 C   0  0  0  0  0  0  0  0  0  0  0  0
   22.5056  -17.5759  -16.4513 C   0  0  0  0  0  0  0  0  0  0  0  0
   22.4884  -16.5035  -15.5844 C   0  0  0  0  0  0  0  0  0  0  0  0
   22.1354  -15.2344  -16.0240 C   0  0  0  0  0  0  0  0  0  0  0  0
   21.7934  -15.0201  -17.3425 C   0  0  0  0  0  0  0  0  0  0  0  0
   21.8118  -16.0938  -18.2051 C   0  0  0  0  0  0  0  0  0  0  0  0
   22.1643  -17.3628  -17.7676 C   0  0  0  0  0  0  0  0  0  0  0  0
   24.7139  -20.3029  -15.1302 C   0  0  0  0  0  0  0  0  0  0  0  0
   24.8069  -21.3819  -15.7786 O   0  0  0  0  0  0  0  0  0  0  0  0
   25.3528  -21.4623  -11.5867 C   0  0  0  0  0  0  0  0  0  0  0  0
   24.8173  -21.5878  -12.9760 C   0  0  2  0  0  0  0  0  0  0  0  0
   24.9244  -20.3768  -13.7329 N   0  0  0  0  0  0  0  0  0  0  0  0
   23.4586  -22.1487  -12.9410 C   0  0  0  0  0  0  0  0  0  0  0  0
   23.2812  -23.2624  -12.3839 O   0  0  0  0  0  0  0  0  0  0  0  0
   22.3131  -21.5158  -13.4987 N   0  0  0  0  0  0  0  0  0  0  0  0
   21.0030  -22.1642  -13.5098 C   0  0  1  0  0  0  0  0  0  0  0  0
   19.9853  -21.0504  -13.3833 C   0  0  0  0  0  0  0  0  0  0  0  0
   18.5951  -21.5265  -13.5129 C   0  0  0  0  0  0  0  0  0  0  0  0
   18.3508  -22.7492  -13.5677 O   0  0  0  0  0  0  0  0  0  0  0  0
   20.8272  -22.9862  -14.7281 C   0  0  0  0  0  0  0  0  0  0  0  0
   20.0369  -23.9599  -14.7691 O   0  0  0  0  0  0  0  0  0  0  0  0
   17.5642  -20.6044  -13.5731 O   0  0  0  0  0  0  0  0  0  0  0  0
   21.5445  -22.6986  -15.8813 O   0  0  0  0  0  0  0  0  0  0  0  0
  2  1  1  6
  2  3  1  0
  4  5  2  0
  4  3  1  0
  6  5  1  0
  7  6  2  0
  8  7  1  0
  8  9  2  0
  9  4  1  0
 10  2  1  0
 11 10  2  0
 13 12  1  1
 13 14  1  0
 14 10  1  0
 15 16  2  0
 15 13  1  0
 17 15  1  0
 18 17  1  0
 18 19  1  6
 20 21  2  0
 20 19  1  0
 22 25  1  0
 22 18  1  0
 23 22  2  0
 24 20  1  0
M  END
$$$$
