FAD.pdb
     RDKit          3D

 25 25  0  0  1  0  0  0  0  0999 V2000
   23.7816  -19.0636  -17.2697 N   0  0  0  0  0  0  0  0  0  0  0  0
   22.7580  -18.3725  -16.5500 C   0  0  1  0  0  0  0  0  0  0  0  0
   21.7761  -17.6669  -17.4722 C   0  0  0  0  0  0  0  0  0  0  0  0
   22.4398  -16.6432  -18.3095 C   0  0  0  0  0  0  0  0  0  0  0  0
   22.4609  -15.3376  -17.8660 C   0  0  0  0  0  0  0  0  0  0  0  0
   23.0707  -14.3385  -18.6134 C   0  0  0  0  0  0  0  0  0  0  0  0
   23.6701  -14.6334  -19.8196 C   0  0  0  0  0  0  0  0  0  0  0  0
   23.6468  -15.9386  -20.2590 C   0  0  0  0  0  0  0  0  0  0  0  0
   23.0380  -16.9384  -19.5136 C   0  0  0  0  0  0  0  0  0  0  0  0
   22.0132  -19.2130  -15.6094 C   0  0  0  0  0  0  0  0  0  0  0  0
   21.6959  -20.3750  -15.9868 O   0  0  0  0  0  0  0  0  0  0  0  0
   20.7995  -19.1714  -12.0277 C   0  0  0  0  0  0  0  0  0  0  0  0
   20.8416  -19.6682  -13.4363 C   0  0  2  0  0  0  0  0  0  0  0  0
   21.6154  -18.8336  -14.3055 N   0  0  0  0  0  0  0  0  0  0  0  0
   19.4765  -19.9248  -13.9186 C   0  0  0  0  0  0  0  0  0  0  0  0
   18.9386  -19.0807  -14.6805 O   0  0  0  0  0  0  0  0  0  0  0  0
   18.7078  -21.0736  -13.5824 N   0  0  0  0  0  0  0  0  0  0  0  0
   17.3411  -21.2557  -14.0680 C   0  0  1  0  0  0  0  0  0  0  0  0
   17.0078  -22.7146  -13.8384 C   0  0  0  0  0  0  0  0  0  0  0  0
   17.6802  -23.6139  -14.7951 C   0  0  0  0  0  0  0  0  0  0  0  0
   18.3560  -23.1436  -15.7330 O   0  0  0  0  0  0  0  0  0  0  0  0
   16.4086  -20.3257  -13.3923 C   0  0  0  0  0  0  0  0  0  0  0  0
   16.6605  -19.8251  -12.2698 O   0  0  0  0  0  0  0  0  0  0  0  0
   17.5543  -24.9842  -14.6428 O   0  0  0  0  0  0  0  0  0  0  0  0
   15.2069  -19.9742  -13.9918 O   0  0  0  0  0  0  0  0  0  0  0  0
  2  1  1  6
  2  3  1  0
  4  5  2  0
  4  3  1  0
  6  5  1  0
  7  6  2  0
  8  7  1  0
  8  9  2  0
  9  4  1  0
 10  2  1  0
 11 10  2  0
 13 12  1  1
 13 14  1  0
 14 10  1  0
 15 16  2  0
 15 13  1  0
 17 15  1  0
 18 17  1  0
 18 19  1  1
 20 21  2  0
 20 19  1  0
 22 25  1  0
 22 18  1  0
 23 22  2  0
 24 20  1  0
M  END
$$$$
