FAD.pdb
     RDKit          3D

 25 25  0  0  1  0  0  0  0  0999 V2000
   15.1022  -16.2844    4.2046 N   0  0  0  0  0  0  0  0  0  0  0  0
   15.9248  -17.2914    3.6109 C   0  0  1  0  0  0  0  0  0  0  0  0
   17.4060  -17.0479    3.8537 C   0  0  0  0  0  0  0  0  0  0  0  0
   17.8897  -15.8351    3.1576 C   0  0  0  0  0  0  0  0  0  0  0  0
   17.8010  -14.6207    3.8052 C   0  0  0  0  0  0  0  0  0  0  0  0
   18.2407  -13.4523    3.1967 C   0  0  0  0  0  0  0  0  0  0  0  0
   18.7772  -13.4833    1.9269 C   0  0  0  0  0  0  0  0  0  0  0  0
   18.8640  -14.6981    1.2836 C   0  0  0  0  0  0  0  0  0  0  0  0
   18.4252  -15.8668    1.8900 C   0  0  0  0  0  0  0  0  0  0  0  0
   15.5902  -18.6579    4.0193 C   0  0  0  0  0  0  0  0  0  0  0  0
   15.4352  -18.8794    5.2523 O   0  0  0  0  0  0  0  0  0  0  0  0
   14.8728  -22.0523    2.5098 C   0  0  0  0  0  0  0  0  0  0  0  0
   15.3010  -21.1147    3.5916 C   0  0  2  0  0  0  0  0  0  0  0  0
   15.4243  -19.7591    3.1463 N   0  0  0  0  0  0  0  0  0  0  0  0
   16.5048  -21.6335    4.2575 C   0  0  0  0  0  0  0  0  0  0  0  0
   17.6222  -21.1474    3.9455 O   0  0  0  0  0  0  0  0  0  0  0  0
   16.4993  -22.6594    5.2430 N   0  0  0  0  0  0  0  0  0  0  0  0
   17.7298  -23.1180    5.8852 C   0  0  1  0  0  0  0  0  0  0  0  0
   17.4387  -23.1481    7.3707 C   0  0  0  0  0  0  0  0  0  0  0  0
   18.5210  -23.7729    8.1545 C   0  0  0  0  0  0  0  0  0  0  0  0
   19.7134  -23.6067    7.8256 O   0  0  0  0  0  0  0  0  0  0  0  0
   18.1564  -24.4274    5.3426 C   0  0  0  0  0  0  0  0  0  0  0  0
   17.3619  -25.1955    4.7485 O   0  0  0  0  0  0  0  0  0  0  0  0
   18.2015  -24.5454    9.2581 O   0  0  0  0  0  0  0  0  0  0  0  0
   19.4714  -24.8511    5.4778 O   0  0  0  0  0  0  0  0  0  0  0  0
  2  1  1  1
  2  3  1  0
  4  5  2  0
  4  3  1  0
  6  5  1  0
  7  6  2  0
  8  7  1  0
  8  9  2  0
  9  4  1  0
 10  2  1  0
 11 10  2  0
 13 12  1  6
 13 14  1  0
 14 10  1  0
 15 16  2  0
 15 13  1  0
 17 15  1  0
 18 17  1  0
 18 19  1  1
 20 21  2  0
 20 19  1  0
 22 25  1  0
 22 18  1  0
 23 22  2  0
 24 20  1  0
M  END
$$$$
