FAD.pdb
     RDKit          3D

 25 25  0  0  1  0  0  0  0  0999 V2000
   16.9725  -14.5903    7.6441 N   0  0  0  0  0  0  0  0  0  0  0  0
   17.0193  -15.6345    6.6692 C   0  0  1  0  0  0  0  0  0  0  0  0
   18.3290  -15.6486    5.8967 C   0  0  0  0  0  0  0  0  0  0  0  0
   18.5159  -14.4156    5.1002 C   0  0  0  0  0  0  0  0  0  0  0  0
   19.4403  -13.4857    5.5273 C   0  0  0  0  0  0  0  0  0  0  0  0
   19.6545  -12.3120    4.8164 C   0  0  0  0  0  0  0  0  0  0  0  0
   18.9436  -12.0518    3.6639 C   0  0  0  0  0  0  0  0  0  0  0  0
   18.0213  -12.9832    3.2408 C   0  0  0  0  0  0  0  0  0  0  0  0
   17.8058  -14.1566    3.9498 C   0  0  0  0  0  0  0  0  0  0  0  0
   16.7671  -16.9725    7.2099 C   0  0  0  0  0  0  0  0  0  0  0  0
   17.4888  -17.3621    8.1695 O   0  0  0  0  0  0  0  0  0  0  0  0
   14.2978  -19.8140    6.8351 C   0  0  0  0  0  0  0  0  0  0  0  0
   15.5608  -19.1718    7.3095 C   0  0  2  0  0  0  0  0  0  0  0  0
   15.7784  -17.8728    6.7472 N   0  0  0  0  0  0  0  0  0  0  0  0
   16.6911  -20.0947    7.1290 C   0  0  0  0  0  0  0  0  0  0  0  0
   17.4866  -19.8930    6.1756 O   0  0  0  0  0  0  0  0  0  0  0  0
   16.9556  -21.2150    7.9647 N   0  0  0  0  0  0  0  0  0  0  0  0
   18.1399  -22.0519    7.7802 C   0  0  1  0  0  0  0  0  0  0  0  0
   18.6274  -22.3973    9.1713 C   0  0  0  0  0  0  0  0  0  0  0  0
   17.6962  -23.2764    9.9034 C   0  0  0  0  0  0  0  0  0  0  0  0
   16.5004  -23.3560    9.5555 O   0  0  0  0  0  0  0  0  0  0  0  0
   17.8276  -23.2399    6.9543 C   0  0  0  0  0  0  0  0  0  0  0  0
   16.6487  -23.5920    6.7087 O   0  0  0  0  0  0  0  0  0  0  0  0
   18.1614  -24.0122   10.9800 O   0  0  0  0  0  0  0  0  0  0  0  0
   18.8485  -24.0128    6.4179 O   0  0  0  0  0  0  0  0  0  0  0  0
  2  1  1  1
  2  3  1  0
  4  5  2  0
  4  3  1  0
  6  5  1  0
  7  6  2  0
  8  7  1  0
  8  9  2  0
  9  4  1  0
 10  2  1  0
 11 10  2  0
 13 12  1  6
 13 14  1  0
 14 10  1  0
 15 16  2  0
 15 13  1  0
 17 15  1  0
 18 17  1  0
 18 19  1  1
 20 21  2  0
 20 19  1  0
 22 25  1  0
 22 18  1  0
 23 22  2  0
 24 20  1  0
M  END
$$$$
