FAD.pdb
     RDKit          3D

 25 25  0  0  1  0  0  0  0  0999 V2000
   27.5097  -21.4451   -8.2898 N   0  0  0  0  0  0  0  0  0  0  0  0
   26.8435  -20.1819   -8.3481 C   0  0  1  0  0  0  0  0  0  0  0  0
   27.5947  -19.0947   -7.5957 C   0  0  0  0  0  0  0  0  0  0  0  0
   28.0803  -19.5658   -6.2797 C   0  0  0  0  0  0  0  0  0  0  0  0
   27.1550  -19.8825   -5.3075 C   0  0  0  0  0  0  0  0  0  0  0  0
   27.5576  -20.3293   -4.0558 C   0  0  0  0  0  0  0  0  0  0  0  0
   28.8971  -20.4659   -3.7586 C   0  0  0  0  0  0  0  0  0  0  0  0
   29.8181  -20.1485   -4.7324 C   0  0  0  0  0  0  0  0  0  0  0  0
   29.4177  -19.7019   -5.9839 C   0  0  0  0  0  0  0  0  0  0  0  0
   26.5588  -19.7152   -9.7072 C   0  0  0  0  0  0  0  0  0  0  0  0
   26.7847  -18.5012   -9.9690 O   0  0  0  0  0  0  0  0  0  0  0  0
   28.0867  -20.6723  -12.0979 C   0  0  0  0  0  0  0  0  0  0  0  0
   26.5995  -20.5289  -12.0818 C   0  0  2  0  0  0  0  0  0  0  0  0
   26.0492  -20.5119  -10.7597 N   0  0  0  0  0  0  0  0  0  0  0  0
   25.9893  -21.5320  -12.9668 C   0  0  0  0  0  0  0  0  0  0  0  0
   26.4059  -21.6238  -14.1502 O   0  0  0  0  0  0  0  0  0  0  0  0
   24.9475  -22.4193  -12.5783 N   0  0  0  0  0  0  0  0  0  0  0  0
   23.5408  -22.1165  -12.8363 C   0  0  1  0  0  0  0  0  0  0  0  0
   23.0560  -21.3319  -11.6358 C   0  0  0  0  0  0  0  0  0  0  0  0
   21.6010  -21.0898  -11.6585 C   0  0  0  0  0  0  0  0  0  0  0  0
   20.9050  -21.5242  -12.5988 O   0  0  0  0  0  0  0  0  0  0  0  0
   23.3794  -21.3920  -14.1170 C   0  0  0  0  0  0  0  0  0  0  0  0
   23.8086  -20.2248  -14.2832 O   0  0  0  0  0  0  0  0  0  0  0  0
   21.0150  -20.3762  -10.6269 O   0  0  0  0  0  0  0  0  0  0  0  0
   22.7371  -21.9938  -15.1904 O   0  0  0  0  0  0  0  0  0  0  0  0
  2  1  1  6
  2  3  1  0
  4  5  2  0
  4  3  1  0
  6  5  1  0
  7  6  2  0
  8  7  1  0
  8  9  2  0
  9  4  1  0
 10  2  1  0
 11 10  2  0
 13 12  1  1
 13 14  1  0
 14 10  1  0
 15 16  2  0
 15 13  1  0
 17 15  1  0
 18 17  1  0
 18 19  1  1
 20 21  2  0
 20 19  1  0
 22 25  1  0
 22 18  1  0
 23 22  2  0
 24 20  1  0
M  END
$$$$
