FAD.pdb
     RDKit          3D

 25 25  0  0  1  0  0  0  0  0999 V2000
   25.7445  -19.9570   -7.5906 N   0  0  0  0  0  0  0  0  0  0  0  0
   26.9377  -20.0351   -8.3736 C   0  0  1  0  0  0  0  0  0  0  0  0
   28.0266  -20.8487   -7.6919 C   0  0  0  0  0  0  0  0  0  0  0  0
   28.4219  -20.2652   -6.3908 C   0  0  0  0  0  0  0  0  0  0  0  0
   28.2961  -18.9039   -6.2104 C   0  0  0  0  0  0  0  0  0  0  0  0
   28.6526  -18.3059   -5.0088 C   0  0  0  0  0  0  0  0  0  0  0  0
   29.1420  -19.0652   -3.9670 C   0  0  0  0  0  0  0  0  0  0  0  0
   29.2661  -20.4245   -4.1512 C   0  0  0  0  0  0  0  0  0  0  0  0
   28.9103  -21.0239   -5.3513 C   0  0  0  0  0  0  0  0  0  0  0  0
   26.7333  -20.5493   -9.7301 C   0  0  0  0  0  0  0  0  0  0  0  0
   27.7350  -21.0244  -10.3335 O   0  0  0  0  0  0  0  0  0  0  0  0
   23.8499  -21.1250   -8.7198 C   0  0  0  0  0  0  0  0  0  0  0  0
   24.3993  -21.4047  -10.0808 C   0  0  2  0  0  0  0  0  0  0  0  0
   25.5024  -20.5599  -10.4280 N   0  0  0  0  0  0  0  0  0  0  0  0
   23.3125  -21.4002  -11.0711 C   0  0  0  0  0  0  0  0  0  0  0  0
   22.1702  -21.7865  -10.7130 O   0  0  0  0  0  0  0  0  0  0  0  0
   23.4593  -20.9854  -12.4239 N   0  0  0  0  0  0  0  0  0  0  0  0
   22.3985  -20.2691  -13.1299 C   0  0  1  0  0  0  0  0  0  0  0  0
   22.0939  -19.0445  -12.2936 C   0  0  0  0  0  0  0  0  0  0  0  0
   20.8239  -18.3948  -12.6694 C   0  0  0  0  0  0  0  0  0  0  0  0
   20.5766  -18.1407  -13.8660 O   0  0  0  0  0  0  0  0  0  0  0  0
   22.8055  -19.9484  -14.5164 C   0  0  0  0  0  0  0  0  0  0  0  0
   22.0563  -20.1634  -15.4996 O   0  0  0  0  0  0  0  0  0  0  0  0
   19.9092  -18.0697  -11.6824 O   0  0  0  0  0  0  0  0  0  0  0  0
   24.0504  -19.3905  -14.7737 O   0  0  0  0  0  0  0  0  0  0  0  0
  2  1  1  1
  2  3  1  0
  4  5  2  0
  4  3  1  0
  6  5  1  0
  7  6  2  0
  8  7  1  0
  8  9  2  0
  9  4  1  0
 10  2  1  0
 11 10  2  0
 13 12  1  1
 13 14  1  0
 14 10  1  0
 15 16  2  0
 15 13  1  0
 17 15  1  0
 18 17  1  0
 18 19  1  1
 20 21  2  0
 20 19  1  0
 22 25  1  0
 22 18  1  0
 23 22  2  0
 24 20  1  0
M  END
$$$$
