FAD.pdb
     RDKit          3D

 25 25  0  0  1  0  0  0  0  0999 V2000
   15.1659  -10.6090  -11.9836 N   0  0  0  0  0  0  0  0  0  0  0  0
   16.0956   -9.5425  -11.7804 C   0  0  1  0  0  0  0  0  0  0  0  0
   16.7298   -9.0706  -13.0795 C   0  0  0  0  0  0  0  0  0  0  0  0
   17.3948  -10.1755  -13.8050 C   0  0  0  0  0  0  0  0  0  0  0  0
   18.6846  -10.5154  -13.4547 C   0  0  0  0  0  0  0  0  0  0  0  0
   19.3540  -11.5446  -14.1038 C   0  0  0  0  0  0  0  0  0  0  0  0
   18.7395  -12.2505  -15.1163 C   0  0  0  0  0  0  0  0  0  0  0  0
   17.4513  -11.9079  -15.4631 C   0  0  0  0  0  0  0  0  0  0  0  0
   16.7806  -10.8798  -14.8157 C   0  0  0  0  0  0  0  0  0  0  0  0
   15.5392   -8.3877  -11.0713 C   0  0  0  0  0  0  0  0  0  0  0  0
   14.6194   -7.7377  -11.6413 O   0  0  0  0  0  0  0  0  0  0  0  0
   15.4107   -6.8970   -7.6477 C   0  0  0  0  0  0  0  0  0  0  0  0
   15.3780   -6.7943   -9.1380 C   0  0  2  0  0  0  0  0  0  0  0  0
   15.9455   -7.9338   -9.7941 N   0  0  0  0  0  0  0  0  0  0  0  0
   15.9577   -5.5125   -9.5653 C   0  0  0  0  0  0  0  0  0  0  0  0
   17.2096   -5.4123   -9.6379 O   0  0  0  0  0  0  0  0  0  0  0  0
   15.1968   -4.3604   -9.9076 N   0  0  0  0  0  0  0  0  0  0  0  0
   15.8309   -3.1274  -10.3710 C   0  0  1  0  0  0  0  0  0  0  0  0
   15.0977   -2.7308  -11.6348 C   0  0  0  0  0  0  0  0  0  0  0  0
   13.6743   -2.4230  -11.3994 C   0  0  0  0  0  0  0  0  0  0  0  0
   12.9755   -3.1778  -10.6926 O   0  0  0  0  0  0  0  0  0  0  0  0
   15.7981   -2.0855   -9.3201 C   0  0  0  0  0  0  0  0  0  0  0  0
   15.1367   -2.2233   -8.2628 O   0  0  0  0  0  0  0  0  0  0  0  0
   13.1212   -1.2893  -11.9699 O   0  0  0  0  0  0  0  0  0  0  0  0
   16.5108   -0.9046   -9.4768 O   0  0  0  0  0  0  0  0  0  0  0  0
  2  1  1  6
  2  3  1  0
  4  5  2  0
  4  3  1  0
  6  5  1  0
  7  6  2  0
  8  7  1  0
  8  9  2  0
  9  4  1  0
 10  2  1  0
 11 10  2  0
 13 12  1  1
 13 14  1  0
 14 10  1  0
 15 16  2  0
 15 13  1  0
 17 15  1  0
 18 17  1  0
 18 19  1  6
 20 21  2  0
 20 19  1  0
 22 25  1  0
 22 18  1  0
 23 22  2  0
 24 20  1  0
M  END
$$$$
