FAD.pdb
     RDKit          3D

 25 25  0  0  1  0  0  0  0  0999 V2000
   19.2473   -9.2769  -14.3505 N   0  0  0  0  0  0  0  0  0  0  0  0
   19.5246   -8.6778  -13.0827 C   0  0  1  0  0  0  0  0  0  0  0  0
   20.7536   -7.7831  -13.1204 C   0  0  0  0  0  0  0  0  0  0  0  0
   21.9467   -8.5012  -13.6207 C   0  0  0  0  0  0  0  0  0  0  0  0
   22.5214   -8.0859  -14.8035 C   0  0  0  0  0  0  0  0  0  0  0  0
   23.6423   -8.7252  -15.3169 C   0  0  0  0  0  0  0  0  0  0  0  0
   24.2056   -9.7931  -14.6510 C   0  0  0  0  0  0  0  0  0  0  0  0
   23.6286  -10.2048  -13.4701 C   0  0  0  0  0  0  0  0  0  0  0  0
   22.5085   -9.5672  -12.9553 C   0  0  0  0  0  0  0  0  0  0  0  0
   18.4021   -7.9268  -12.5150 C   0  0  0  0  0  0  0  0  0  0  0  0
   17.6640   -7.2845  -13.3126 O   0  0  0  0  0  0  0  0  0  0  0  0
   16.6536   -7.4181   -9.2003 C   0  0  0  0  0  0  0  0  0  0  0  0
   16.9679   -7.1028  -10.6266 C   0  0  2  0  0  0  0  0  0  0  0  0
   18.0705   -7.8580  -11.1411 N   0  0  0  0  0  0  0  0  0  0  0  0
   17.1106   -5.6496  -10.7992 C   0  0  0  0  0  0  0  0  0  0  0  0
   18.0727   -5.2163  -11.4840 O   0  0  0  0  0  0  0  0  0  0  0  0
   16.2284   -4.6833  -10.2410 N   0  0  0  0  0  0  0  0  0  0  0  0
   16.3752   -3.2552  -10.5167 C   0  0  1  0  0  0  0  0  0  0  0  0
   16.2811   -3.1089  -12.0206 C   0  0  0  0  0  0  0  0  0  0  0  0
   16.2442   -1.7007  -12.4585 C   0  0  0  0  0  0  0  0  0  0  0  0
   16.3191   -0.7787  -11.6208 O   0  0  0  0  0  0  0  0  0  0  0  0
   15.3601   -2.4655   -9.7840 C   0  0  0  0  0  0  0  0  0  0  0  0
   14.1674   -2.8412   -9.6813 O   0  0  0  0  0  0  0  0  0  0  0  0
   16.1258   -1.4118  -13.8073 O   0  0  0  0  0  0  0  0  0  0  0  0
   15.7044   -1.2647   -9.1784 O   0  0  0  0  0  0  0  0  0  0  0  0
  2  1  1  6
  2  3  1  0
  4  5  2  0
  4  3  1  0
  6  5  1  0
  7  6  2  0
  8  7  1  0
  8  9  2  0
  9  4  1  0
 10  2  1  0
 11 10  2  0
 13 12  1  1
 13 14  1  0
 14 10  1  0
 15 16  2  0
 15 13  1  0
 17 15  1  0
 18 17  1  0
 18 19  1  6
 20 21  2  0
 20 19  1  0
 22 25  1  0
 22 18  1  0
 23 22  2  0
 24 20  1  0
M  END
$$$$
