MIK.pdb
     RDKit          3D

 26 25  0  0  1  0  0  0  0  0999 V2000
    7.3190  -21.6905   18.5412 C   0  0  0  0  0  0  0  0  0  0  0  0
    6.8388  -21.2101   16.8578 S   0  0  0  0  0  0  0  0  0  0  0  0
    7.6901  -19.6542   16.4813 C   0  0  0  0  0  0  0  0  0  0  0  0
    8.2887  -19.0284   17.7336 C   0  0  0  0  0  0  0  0  0  0  0  0
    8.9187  -17.7240   17.3090 C   0  0  2  0  0  0  0  0  0  0  0  0
   10.0104  -17.9923   16.4242 N   0  0  0  0  0  0  0  0  0  0  0  0
    9.3353  -16.9783   18.5233 C   0  0  0  0  0  0  0  0  0  0  0  0
   10.5599  -16.9362   18.8465 O   0  0  0  0  0  0  0  0  0  0  0  0
    6.8036  -12.3138   19.8046 C   0  0  0  0  0  0  0  0  0  0  0  0
    7.8676  -13.3405   19.6405 C   0  0  0  0  0  0  0  0  0  0  0  0
    7.8974  -14.3835   20.7496 C   0  0  2  0  0  0  0  0  0  0  0  0
    8.2682  -13.6518   22.0200 C   0  0  0  0  0  0  0  0  0  0  0  0
    8.9293  -15.4437   20.4633 C   0  0  2  0  0  0  0  0  0  0  0  0
    8.4202  -16.2976   19.3576 N   0  0  0  0  0  0  0  0  0  0  0  0
    9.2703  -16.3314   21.5590 C   0  0  0  0  0  0  0  0  0  0  0  0
    8.3180  -17.0668   22.0411 O   0  0  0  0  0  0  0  0  0  0  0  0
   10.5391  -16.4901   22.1662 N   0  0  0  0  0  0  0  0  0  0  0  0
   10.7986  -17.4700   23.2241 C   0  0  1  0  0  0  0  0  0  0  0  0
   12.1220  -18.1185   23.0338 C   0  0  0  0  0  0  0  0  0  0  0  0
   12.5672  -19.0627   24.0902 C   0  0  0  0  0  0  0  0  0  0  0  0
   13.9026  -19.6878   23.8975 C   0  0  0  0  0  0  0  0  0  0  0  0
   14.1310  -20.6792   25.0226 C   0  0  0  0  0  0  0  0  0  0  0  0
   15.4530  -21.2534   24.9821 N   0  0  0  0  0  0  0  0  0  0  0  0
   10.5381  -16.9091   24.5560 C   0  0  0  0  0  0  0  0  0  0  0  0
   10.1967  -17.7266   25.6259 O   0  0  0  0  0  0  0  0  0  0  0  0
   10.6199  -15.6733   24.7591 O   0  0  0  0  0  0  0  0  0  0  0  0
  2  1  1  0
  3  2  1  0
  4  3  1  0
  4  5  1  0
  5  7  1  0
  5  6  1  6
  7  8  2  0
 10  9  1  0
 11 13  1  0
 11 10  1  0
 11 12  1  1
 13 14  1  6
 14  7  1  0
 15 13  1  0
 16 15  2  0
 17 15  1  0
 18 19  1  1
 18 17  1  0
 19 20  1  0
 20 21  1  0
 21 22  1  0
 23 22  1  0
 24 25  1  0
 24 18  1  0
 26 24  2  0
M  END
$$$$
