MIK.pdb
     RDKit          3D

 26 25  0  0  1  0  0  0  0  0999 V2000
    6.2474  -19.2452   21.1291 C   0  0  0  0  0  0  0  0  0  0  0  0
    6.2381  -18.5024   19.4728 S   0  0  0  0  0  0  0  0  0  0  0  0
    6.4991  -16.7205   19.6834 C   0  0  0  0  0  0  0  0  0  0  0  0
    7.3256  -16.4207   20.9265 C   0  0  0  0  0  0  0  0  0  0  0  0
    7.2626  -14.9278   21.1406 C   0  0  2  0  0  0  0  0  0  0  0  0
    7.8892  -14.2654   20.0381 N   0  0  0  0  0  0  0  0  0  0  0  0
    7.9018  -14.6053   22.4412 C   0  0  0  0  0  0  0  0  0  0  0  0
    9.1533  -14.4137   22.4967 O   0  0  0  0  0  0  0  0  0  0  0  0
    5.5056  -11.3986   26.0585 C   0  0  0  0  0  0  0  0  0  0  0  0
    6.5370  -12.1136   25.2598 C   0  0  0  0  0  0  0  0  0  0  0  0
    6.9302  -13.4701   25.8292 C   0  0  2  0  0  0  0  0  0  0  0  0
    7.6067  -13.2018   27.1548 C   0  0  0  0  0  0  0  0  0  0  0  0
    7.8913  -14.1806   24.9115 C   0  0  2  0  0  0  0  0  0  0  0  0
    7.1747  -14.4983   23.6481 N   0  0  0  0  0  0  0  0  0  0  0  0
    8.4570  -15.4243   25.3998 C   0  0  0  0  0  0  0  0  0  0  0  0
    7.6410  -16.4164   25.5720 O   0  0  0  0  0  0  0  0  0  0  0  0
    9.8140  -15.6814   25.7097 N   0  0  0  0  0  0  0  0  0  0  0  0
   10.3007  -17.0010   26.1204 C   0  0  1  0  0  0  0  0  0  0  0  0
   11.4810  -17.4060   25.3136 C   0  0  0  0  0  0  0  0  0  0  0  0
   11.2450  -18.3797   24.2172 C   0  0  0  0  0  0  0  0  0  0  0  0
   12.4438  -19.0836   23.6894 C   0  0  0  0  0  0  0  0  0  0  0  0
   12.0097  -19.9579   22.5283 C   0  0  0  0  0  0  0  0  0  0  0  0
   13.1127  -20.6885   21.9550 N   0  0  0  0  0  0  0  0  0  0  0  0
   10.4512  -17.0917   27.5784 C   0  0  0  0  0  0  0  0  0  0  0  0
   10.5692  -18.3215   28.2135 O   0  0  0  0  0  0  0  0  0  0  0  0
   10.4782  -16.0559   28.2865 O   0  0  0  0  0  0  0  0  0  0  0  0
  2  1  1  0
  3  2  1  0
  4  3  1  0
  4  5  1  0
  5  7  1  0
  5  6  1  6
  7  8  2  0
 10  9  1  0
 11 13  1  0
 11 10  1  0
 11 12  1  1
 13 14  1  6
 14  7  1  0
 15 13  1  0
 16 15  2  0
 17 15  1  0
 18 19  1  6
 18 17  1  0
 19 20  1  0
 20 21  1  0
 21 22  1  0
 23 22  1  0
 24 25  1  0
 24 18  1  0
 26 24  2  0
M  END
$$$$
