MIK.pdb
     RDKit          3D

 26 25  0  0  1  0  0  0  0  0999 V2000
    9.8236  -14.2255   29.5432 C   0  0  0  0  0  0  0  0  0  0  0  0
   10.9335  -15.6443   29.3196 S   0  0  0  0  0  0  0  0  0  0  0  0
    9.8973  -17.1311   29.2611 C   0  0  0  0  0  0  0  0  0  0  0  0
    8.4634  -16.7969   28.8735 C   0  0  0  0  0  0  0  0  0  0  0  0
    8.0449  -17.8129   27.8385 C   0  0  2  0  0  0  0  0  0  0  0  0
    9.1264  -18.7187   27.6010 N   0  0  0  0  0  0  0  0  0  0  0  0
    7.6187  -17.0950   26.6109 C   0  0  0  0  0  0  0  0  0  0  0  0
    6.6517  -17.5419   25.9244 O   0  0  0  0  0  0  0  0  0  0  0  0
    6.7892  -12.0166   26.7084 C   0  0  0  0  0  0  0  0  0  0  0  0
    6.6163  -13.3573   26.0873 C   0  0  0  0  0  0  0  0  0  0  0  0
    7.7537  -13.7604   25.1585 C   0  0  2  0  0  0  0  0  0  0  0  0
    7.5162  -13.0425   23.8490 C   0  0  0  0  0  0  0  0  0  0  0  0
    7.7524  -15.2484   24.9210 C   0  0  2  0  0  0  0  0  0  0  0  0
    8.2468  -15.9140   26.1553 N   0  0  0  0  0  0  0  0  0  0  0  0
    8.5702  -15.7322   23.8245 C   0  0  0  0  0  0  0  0  0  0  0  0
    9.8224  -15.9538   24.0753 O   0  0  0  0  0  0  0  0  0  0  0  0
    8.1511  -15.9958   22.4984 N   0  0  0  0  0  0  0  0  0  0  0  0
    9.0142  -16.6376   21.5034 C   0  0  1  0  0  0  0  0  0  0  0  0
    8.2530  -16.9566   20.2676 C   0  0  0  0  0  0  0  0  0  0  0  0
    8.9808  -17.6861   19.1981 C   0  0  0  0  0  0  0  0  0  0  0  0
    8.2220  -17.9553   17.9479 C   0  0  0  0  0  0  0  0  0  0  0  0
    9.1011  -18.7779   17.0252 C   0  0  0  0  0  0  0  0  0  0  0  0
    8.4006  -19.1969   15.8366 N   0  0  0  0  0  0  0  0  0  0  0  0
   10.2685  -15.8969   21.3179 C   0  0  0  0  0  0  0  0  0  0  0  0
   11.4803  -16.5605   21.1729 O   0  0  0  0  0  0  0  0  0  0  0  0
   10.2742  -14.6424   21.2846 O   0  0  0  0  0  0  0  0  0  0  0  0
  2  1  1  0
  3  2  1  0
  4  3  1  0
  4  5  1  0
  5  7  1  0
  5  6  1  6
  7  8  2  0
 10  9  1  0
 11 13  1  0
 11 10  1  0
 11 12  1  6
 13 14  1  1
 14  7  1  0
 15 13  1  0
 16 15  2  0
 17 15  1  0
 18 19  1  6
 18 17  1  0
 19 20  1  0
 20 21  1  0
 21 22  1  0
 23 22  1  0
 24 25  1  0
 24 18  1  0
 26 24  2  0
M  END
$$$$
