MIK.pdb
     RDKit          3D

 26 25  0  0  1  0  0  0  0  0999 V2000
    6.5006  -21.7483   23.1243 C   0  0  0  0  0  0  0  0  0  0  0  0
    4.8750  -20.9408   23.1473 S   0  0  0  0  0  0  0  0  0  0  0  0
    5.0717  -19.3182   22.3624 C   0  0  0  0  0  0  0  0  0  0  0  0
    6.1923  -18.5169   23.0108 C   0  0  0  0  0  0  0  0  0  0  0  0
    6.2067  -17.1661   22.3370 C   0  0  2  0  0  0  0  0  0  0  0  0
    6.5551  -17.3290   20.9590 N   0  0  0  0  0  0  0  0  0  0  0  0
    7.1492  -16.2801   23.0654 C   0  0  0  0  0  0  0  0  0  0  0  0
    8.3722  -16.2545   22.7341 O   0  0  0  0  0  0  0  0  0  0  0  0
    7.4112  -11.4282   26.9444 C   0  0  0  0  0  0  0  0  0  0  0  0
    8.0424  -12.5842   26.2529 C   0  0  0  0  0  0  0  0  0  0  0  0
    7.0594  -13.4582   25.4855 C   0  0  2  0  0  0  0  0  0  0  0  0
    6.0560  -13.9680   26.4954 C   0  0  0  0  0  0  0  0  0  0  0  0
    7.7641  -14.6267   24.8463 C   0  0  2  0  0  0  0  0  0  0  0  0
    6.7484  -15.4450   24.1325 N   0  0  0  0  0  0  0  0  0  0  0  0
    8.4768  -15.5226   25.7378 C   0  0  0  0  0  0  0  0  0  0  0  0
    7.7679  -16.3784   26.4049 O   0  0  0  0  0  0  0  0  0  0  0  0
    9.8735  -15.5714   25.9619 N   0  0  0  0  0  0  0  0  0  0  0  0
   10.5552  -16.7585   26.4842 C   0  0  1  0  0  0  0  0  0  0  0  0
   11.6865  -17.1509   25.6043 C   0  0  0  0  0  0  0  0  0  0  0  0
   12.5247  -18.2917   26.0537 C   0  0  0  0  0  0  0  0  0  0  0  0
   13.6504  -18.6763   25.1615 C   0  0  0  0  0  0  0  0  0  0  0  0
   14.3421  -19.8854   25.7619 C   0  0  0  0  0  0  0  0  0  0  0  0
   15.5131  -20.2699   25.0136 N   0  0  0  0  0  0  0  0  0  0  0  0
   10.8645  -16.6193   27.9130 C   0  0  0  0  0  0  0  0  0  0  0  0
   10.9102  -15.3707   28.5201 O   0  0  0  0  0  0  0  0  0  0  0  0
   11.0941  -17.6295   28.6213 O   0  0  0  0  0  0  0  0  0  0  0  0
  2  1  1  0
  3  2  1  0
  4  3  1  0
  4  5  1  0
  5  7  1  0
  5  6  1  6
  7  8  2  0
 10  9  1  0
 11 13  1  0
 11 10  1  0
 11 12  1  1
 13 14  1  1
 14  7  1  0
 15 13  1  0
 16 15  2  0
 17 15  1  0
 18 19  1  6
 18 17  1  0
 19 20  1  0
 20 21  1  0
 21 22  1  0
 23 22  1  0
 24 25  1  0
 24 18  1  0
 26 24  2  0
M  END
$$$$
