MIK.pdb
     RDKit          3D

 26 25  0  0  1  0  0  0  0  0999 V2000
    6.2553  -21.1320   25.0800 C   0  0  0  0  0  0  0  0  0  0  0  0
    5.1700  -21.1365   23.6250 S   0  0  0  0  0  0  0  0  0  0  0  0
    4.8248  -19.4059   23.2087 C   0  0  0  0  0  0  0  0  0  0  0  0
    6.0728  -18.5425   23.3328 C   0  0  0  0  0  0  0  0  0  0  0  0
    5.6473  -17.1211   23.0550 C   0  0  2  0  0  0  0  0  0  0  0  0
    5.3649  -16.9763   21.6600 N   0  0  0  0  0  0  0  0  0  0  0  0
    6.7172  -16.2035   23.5213 C   0  0  0  0  0  0  0  0  0  0  0  0
    7.7228  -15.9827   22.7824 O   0  0  0  0  0  0  0  0  0  0  0  0
    5.7399  -11.8329   26.5271 C   0  0  0  0  0  0  0  0  0  0  0  0
    6.5054  -12.6758   25.5697 C   0  0  0  0  0  0  0  0  0  0  0  0
    7.3651  -13.7425   26.2345 C   0  0  2  0  0  0  0  0  0  0  0  0
    8.5541  -13.0260   26.8345 C   0  0  0  0  0  0  0  0  0  0  0  0
    7.8463  -14.7520   25.2246 C   0  0  2  0  0  0  0  0  0  0  0  0
    6.6748  -15.5481   24.7725 N   0  0  0  0  0  0  0  0  0  0  0  0
    8.8491  -15.6975   25.6780 C   0  0  0  0  0  0  0  0  0  0  0  0
    8.4391  -16.6902   26.4035 O   0  0  0  0  0  0  0  0  0  0  0  0
   10.2391  -15.6608   25.4126 N   0  0  0  0  0  0  0  0  0  0  0  0
   11.1439  -16.7618   25.7530 C   0  0  1  0  0  0  0  0  0  0  0  0
   12.3107  -16.7933   24.8332 C   0  0  0  0  0  0  0  0  0  0  0  0
   13.3780  -17.7816   25.1333 C   0  0  0  0  0  0  0  0  0  0  0  0
   14.5673  -17.7609   24.2410 C   0  0  0  0  0  0  0  0  0  0  0  0
   15.5036  -18.8747   24.6698 C   0  0  0  0  0  0  0  0  0  0  0  0
   16.5845  -19.0671   23.7352 N   0  0  0  0  0  0  0  0  0  0  0  0
   11.4508  -16.7849   27.1889 C   0  0  0  0  0  0  0  0  0  0  0  0
   11.8229  -17.9622   27.8254 O   0  0  0  0  0  0  0  0  0  0  0  0
   11.3849  -15.7368   27.8761 O   0  0  0  0  0  0  0  0  0  0  0  0
  2  1  1  0
  3  2  1  0
  4  3  1  0
  4  5  1  0
  5  7  1  0
  5  6  1  6
  7  8  2  0
 10  9  1  0
 11 13  1  0
 11 10  1  0
 11 12  1  6
 13 14  1  1
 14  7  1  0
 15 13  1  0
 16 15  2  0
 17 15  1  0
 18 19  1  6
 18 17  1  0
 19 20  1  0
 20 21  1  0
 21 22  1  0
 23 22  1  0
 24 25  1  0
 24 18  1  0
 26 24  2  0
M  END
$$$$
