MIK.pdb
     RDKit          3D

 26 25  0  0  1  0  0  0  0  0999 V2000
    5.6680  -20.7791   24.6212 C   0  0  0  0  0  0  0  0  0  0  0  0
    4.9172  -20.7051   22.9701 S   0  0  0  0  0  0  0  0  0  0  0  0
    5.0396  -18.9874   22.4025 C   0  0  0  0  0  0  0  0  0  0  0  0
    6.1780  -18.2507   23.0949 C   0  0  0  0  0  0  0  0  0  0  0  0
    6.0967  -16.8100   22.6514 C   0  0  2  0  0  0  0  0  0  0  0  0
    6.3050  -16.7382   21.2378 N   0  0  0  0  0  0  0  0  0  0  0  0
    7.0914  -16.0184   23.4181 C   0  0  0  0  0  0  0  0  0  0  0  0
    8.2920  -15.9585   23.0169 O   0  0  0  0  0  0  0  0  0  0  0  0
    5.6281  -11.6458   26.2960 C   0  0  0  0  0  0  0  0  0  0  0  0
    6.5250  -12.5142   25.4870 C   0  0  0  0  0  0  0  0  0  0  0  0
    7.1950  -13.6252   26.2843 C   0  0  2  0  0  0  0  0  0  0  0  0
    8.2579  -12.9655   27.1340 C   0  0  0  0  0  0  0  0  0  0  0  0
    7.8405  -14.6314   25.3671 C   0  0  2  0  0  0  0  0  0  0  0  0
    6.7655  -15.3121   24.5978 N   0  0  0  0  0  0  0  0  0  0  0  0
    8.6314  -15.6718   25.9974 C   0  0  0  0  0  0  0  0  0  0  0  0
    7.9861  -16.6154   26.6082 O   0  0  0  0  0  0  0  0  0  0  0  0
   10.0429  -15.7765   26.0188 N   0  0  0  0  0  0  0  0  0  0  0  0
   10.7461  -16.9545   26.5333 C   0  0  1  0  0  0  0  0  0  0  0  0
   11.8957  -17.3092   25.6609 C   0  0  0  0  0  0  0  0  0  0  0  0
   12.7752  -18.4134   26.1222 C   0  0  0  0  0  0  0  0  0  0  0  0
   13.9609  -18.7113   25.2755 C   0  0  0  0  0  0  0  0  0  0  0  0
   14.7042  -19.8810   25.8919 C   0  0  0  0  0  0  0  0  0  0  0  0
   15.7710  -20.3548   25.0454 N   0  0  0  0  0  0  0  0  0  0  0  0
   11.0366  -16.8271   27.9671 C   0  0  0  0  0  0  0  0  0  0  0  0
   11.3447  -17.9398   28.7396 O   0  0  0  0  0  0  0  0  0  0  0  0
   11.0146  -15.7052   28.5291 O   0  0  0  0  0  0  0  0  0  0  0  0
  2  1  1  0
  3  2  1  0
  4  3  1  0
  4  5  1  0
  5  7  1  0
  5  6  1  6
  7  8  2  0
 10  9  1  0
 11 13  1  0
 11 10  1  0
 11 12  1  1
 13 14  1  1
 14  7  1  0
 15 13  1  0
 16 15  2  0
 17 15  1  0
 18 19  1  6
 18 17  1  0
 19 20  1  0
 20 21  1  0
 21 22  1  0
 23 22  1  0
 24 25  1  0
 24 18  1  0
 26 24  2  0
M  END
$$$$
