MIK.pdb
     RDKit          3D

 26 25  0  0  1  0  0  0  0  0999 V2000
    8.2232  -11.4188   19.4326 C   0  0  0  0  0  0  0  0  0  0  0  0
    7.4525  -12.7869   18.5218 S   0  0  0  0  0  0  0  0  0  0  0  0
    7.7110  -14.2930   19.4977 C   0  0  0  0  0  0  0  0  0  0  0  0
    8.0129  -13.9689   20.9545 C   0  0  0  0  0  0  0  0  0  0  0  0
    8.1272  -15.2885   21.6786 C   0  0  2  0  0  0  0  0  0  0  0  0
    6.8558  -15.9444   21.6692 N   0  0  0  0  0  0  0  0  0  0  0  0
    8.6319  -15.0367   23.0518 C   0  0  0  0  0  0  0  0  0  0  0  0
    9.8519  -14.7437   23.2298 O   0  0  0  0  0  0  0  0  0  0  0  0
    5.5716  -12.2512   26.1275 C   0  0  0  0  0  0  0  0  0  0  0  0
    6.8375  -12.8193   25.5911 C   0  0  0  0  0  0  0  0  0  0  0  0
    7.3199  -14.0612   26.3285 C   0  0  2  0  0  0  0  0  0  0  0  0
    7.9139  -13.5838   27.6346 C   0  0  0  0  0  0  0  0  0  0  0  0
    8.3762  -14.7831   25.5325 C   0  0  2  0  0  0  0  0  0  0  0  0
    7.8078  -15.1077   24.1975 N   0  0  0  0  0  0  0  0  0  0  0  0
    8.8757  -16.0253   26.0916 C   0  0  0  0  0  0  0  0  0  0  0  0
    7.9986  -16.9279   26.4013 O   0  0  0  0  0  0  0  0  0  0  0  0
   10.2268  -16.3689   26.3370 N   0  0  0  0  0  0  0  0  0  0  0  0
   10.6272  -17.6413   26.9433 C   0  0  1  0  0  0  0  0  0  0  0  0
   11.6811  -18.3063   26.1339 C   0  0  0  0  0  0  0  0  0  0  0  0
   11.4384  -18.4170   24.6728 C   0  0  0  0  0  0  0  0  0  0  0  0
   12.5068  -19.0734   23.8735 C   0  0  0  0  0  0  0  0  0  0  0  0
   12.0422  -19.1520   22.4316 C   0  0  0  0  0  0  0  0  0  0  0  0
   13.0831  -19.6177   21.5491 N   0  0  0  0  0  0  0  0  0  0  0  0
   10.9097  -17.4917   28.3766 C   0  0  0  0  0  0  0  0  0  0  0  0
   10.9229  -16.2404   28.9797 O   0  0  0  0  0  0  0  0  0  0  0  0
   11.1451  -18.4953   29.0924 O   0  0  0  0  0  0  0  0  0  0  0  0
  2  1  1  0
  3  2  1  0
  4  3  1  0
  4  5  1  0
  5  7  1  0
  5  6  1  1
  7  8  2  0
 10  9  1  0
 11 13  1  0
 11 10  1  0
 11 12  1  1
 13 14  1  6
 14  7  1  0
 15 13  1  0
 16 15  2  0
 17 15  1  0
 18 19  1  6
 18 17  1  0
 19 20  1  0
 20 21  1  0
 21 22  1  0
 23 22  1  0
 24 25  1  0
 24 18  1  0
 26 24  2  0
M  END
$$$$
