MIK.pdb
     RDKit          3D

 26 25  0  0  1  0  0  0  0  0999 V2000
    6.7631  -19.6864   20.9206 C   0  0  0  0  0  0  0  0  0  0  0  0
    5.9145  -18.8734   19.5372 S   0  0  0  0  0  0  0  0  0  0  0  0
    6.3702  -17.1191   19.5856 C   0  0  0  0  0  0  0  0  0  0  0  0
    7.2846  -16.8125   20.7638 C   0  0  0  0  0  0  0  0  0  0  0  0
    7.4195  -15.3105   20.8299 C   0  0  2  0  0  0  0  0  0  0  0  0
    8.1370  -14.8494   19.6812 N   0  0  0  0  0  0  0  0  0  0  0  0
    8.0862  -14.9473   22.1056 C   0  0  0  0  0  0  0  0  0  0  0  0
    9.3440  -15.0595   22.2123 O   0  0  0  0  0  0  0  0  0  0  0  0
    7.2302  -11.6495   27.2940 C   0  0  0  0  0  0  0  0  0  0  0  0
    8.0075  -12.6204   26.4777 C   0  0  0  0  0  0  0  0  0  0  0  0
    7.2831  -13.0957   25.2254 C   0  0  2  0  0  0  0  0  0  0  0  0
    6.0161  -13.7765   25.6922 C   0  0  0  0  0  0  0  0  0  0  0  0
    8.1264  -14.0802   24.4572 C   0  0  2  0  0  0  0  0  0  0  0  0
    7.3790  -14.4730   23.2333 N   0  0  0  0  0  0  0  0  0  0  0  0
    8.4829  -15.3067   25.1455 C   0  0  0  0  0  0  0  0  0  0  0  0
    7.5588  -16.2080   25.2620 O   0  0  0  0  0  0  0  0  0  0  0  0
    9.7395  -15.6360   25.7077 N   0  0  0  0  0  0  0  0  0  0  0  0
   10.0363  -16.9529   26.2774 C   0  0  1  0  0  0  0  0  0  0  0  0
   11.1588  -17.6036   25.5529 C   0  0  0  0  0  0  0  0  0  0  0  0
   11.6821  -18.8718   26.1219 C   0  0  0  0  0  0  0  0  0  0  0  0
   12.8252  -19.4958   25.4042 C   0  0  0  0  0  0  0  0  0  0  0  0
   13.1995  -20.7758   26.1270 C   0  0  0  0  0  0  0  0  0  0  0  0
   14.2797  -21.4734   25.4744 N   0  0  0  0  0  0  0  0  0  0  0  0
   10.1571  -16.8944   27.7397 C   0  0  0  0  0  0  0  0  0  0  0  0
   10.1618  -18.0522   28.5074 O   0  0  0  0  0  0  0  0  0  0  0  0
   10.2607  -15.7926   28.3316 O   0  0  0  0  0  0  0  0  0  0  0  0
  2  1  1  0
  3  2  1  0
  4  3  1  0
  4  5  1  0
  5  7  1  0
  5  6  1  6
  7  8  2  0
 10  9  1  0
 11 13  1  0
 11 10  1  0
 11 12  1  1
 13 14  1  6
 14  7  1  0
 15 13  1  0
 16 15  2  0
 17 15  1  0
 18 19  1  6
 18 17  1  0
 19 20  1  0
 20 21  1  0
 21 22  1  0
 23 22  1  0
 24 25  1  0
 24 18  1  0
 26 24  2  0
M  END
$$$$
