MIK.pdb
     RDKit          3D

 26 25  0  0  1  0  0  0  0  0999 V2000
   10.7380  -14.6445   30.0130 C   0  0  0  0  0  0  0  0  0  0  0  0
   10.8685  -16.3221   30.6939 S   0  0  0  0  0  0  0  0  0  0  0  0
    9.4778  -17.2787   30.0318 C   0  0  0  0  0  0  0  0  0  0  0  0
    9.2860  -17.0268   28.5425 C   0  0  0  0  0  0  0  0  0  0  0  0
    7.9511  -17.6243   28.1690 C   0  0  2  0  0  0  0  0  0  0  0  0
    8.0203  -19.0482   28.2894 N   0  0  0  0  0  0  0  0  0  0  0  0
    7.5980  -17.1819   26.7966 C   0  0  0  0  0  0  0  0  0  0  0  0
    7.1051  -18.0117   25.9753 O   0  0  0  0  0  0  0  0  0  0  0  0
    7.4361  -11.7029   25.3801 C   0  0  0  0  0  0  0  0  0  0  0  0
    7.9228  -13.1079   25.4262 C   0  0  0  0  0  0  0  0  0  0  0  0
    6.9295  -14.1252   24.8808 C   0  0  2  0  0  0  0  0  0  0  0  0
    5.7098  -14.0578   25.7722 C   0  0  0  0  0  0  0  0  0  0  0  0
    7.5057  -15.5168   24.9252 C   0  0  2  0  0  0  0  0  0  0  0  0
    7.7859  -15.8560   26.3454 N   0  0  0  0  0  0  0  0  0  0  0  0
    8.7368  -15.7342   24.1889 C   0  0  0  0  0  0  0  0  0  0  0  0
    9.8341  -15.7884   24.8766 O   0  0  0  0  0  0  0  0  0  0  0  0
    8.8774  -15.8990   22.7900 N   0  0  0  0  0  0  0  0  0  0  0  0
   10.0186  -16.5862   22.1800 C   0  0  1  0  0  0  0  0  0  0  0  0
    9.6796  -17.0699   20.8164 C   0  0  0  0  0  0  0  0  0  0  0  0
   10.7682  -17.7197   20.0426 C   0  0  0  0  0  0  0  0  0  0  0  0
   10.4114  -18.2111   18.6852 C   0  0  0  0  0  0  0  0  0  0  0  0
   11.6438  -18.8457   18.0696 C   0  0  0  0  0  0  0  0  0  0  0  0
   11.4392  -19.2034   16.6878 N   0  0  0  0  0  0  0  0  0  0  0  0
   11.2513  -15.7970   22.2990 C   0  0  0  0  0  0  0  0  0  0  0  0
   12.4894  -16.4133   22.4298 O   0  0  0  0  0  0  0  0  0  0  0  0
   11.2143  -14.5427   22.2838 O   0  0  0  0  0  0  0  0  0  0  0  0
  2  1  1  0
  3  2  1  0
  4  3  1  0
  4  5  1  0
  5  7  1  0
  5  6  1  6
  7  8  2  0
 10  9  1  0
 11 13  1  0
 11 10  1  0
 11 12  1  1
 13 14  1  1
 14  7  1  0
 15 13  1  0
 16 15  2  0
 17 15  1  0
 18 19  1  6
 18 17  1  0
 19 20  1  0
 20 21  1  0
 21 22  1  0
 23 22  1  0
 24 25  1  0
 24 18  1  0
 26 24  2  0
M  END
$$$$
