MIK.pdb
     RDKit          3D

 26 25  0  0  1  0  0  0  0  0999 V2000
    8.0524  -11.6526   19.1361 C   0  0  0  0  0  0  0  0  0  0  0  0
    7.7374  -13.1225   18.1186 S   0  0  0  0  0  0  0  0  0  0  0  0
    7.5344  -14.5242   19.2508 C   0  0  0  0  0  0  0  0  0  0  0  0
    8.0168  -14.1825   20.6539 C   0  0  0  0  0  0  0  0  0  0  0  0
    7.8231  -15.4217   21.4938 C   0  0  2  0  0  0  0  0  0  0  0  0
    6.4301  -15.7433   21.5476 N   0  0  0  0  0  0  0  0  0  0  0  0
    8.4084  -15.1834   22.8372 C   0  0  0  0  0  0  0  0  0  0  0  0
    9.6674  -15.1471   22.9775 O   0  0  0  0  0  0  0  0  0  0  0  0
    5.7946  -11.8017   25.9850 C   0  0  0  0  0  0  0  0  0  0  0  0
    6.8633  -12.5870   25.3111 C   0  0  0  0  0  0  0  0  0  0  0  0
    7.3148  -13.8143   26.0913 C   0  0  2  0  0  0  0  0  0  0  0  0
    8.0111  -13.3040   27.3329 C   0  0  0  0  0  0  0  0  0  0  0  0
    8.2789  -14.6420   25.2812 C   0  0  2  0  0  0  0  0  0  0  0  0
    7.6207  -14.9907   23.9944 N   0  0  0  0  0  0  0  0  0  0  0  0
    8.7264  -15.8869   25.8770 C   0  0  0  0  0  0  0  0  0  0  0  0
    7.8393  -16.8188   26.0334 O   0  0  0  0  0  0  0  0  0  0  0  0
   10.0366  -16.2045   26.3086 N   0  0  0  0  0  0  0  0  0  0  0  0
   10.3842  -17.4907   26.9182 C   0  0  1  0  0  0  0  0  0  0  0  0
   11.4577  -18.1703   26.1474 C   0  0  0  0  0  0  0  0  0  0  0  0
   11.9372  -19.4758   26.6684 C   0  0  0  0  0  0  0  0  0  0  0  0
   13.0583  -20.1116   25.9267 C   0  0  0  0  0  0  0  0  0  0  0  0
   13.3434  -21.4604   26.5594 C   0  0  0  0  0  0  0  0  0  0  0  0
   14.3791  -22.1810   25.8614 N   0  0  0  0  0  0  0  0  0  0  0  0
   10.6084  -17.3607   28.3636 C   0  0  0  0  0  0  0  0  0  0  0  0
   10.5158  -18.4606   29.2070 O   0  0  0  0  0  0  0  0  0  0  0  0
   10.8912  -16.2486   28.8718 O   0  0  0  0  0  0  0  0  0  0  0  0
  2  1  1  0
  3  2  1  0
  4  3  1  0
  4  5  1  0
  5  7  1  0
  5  6  1  1
  7  8  2  0
 10  9  1  0
 11 13  1  0
 11 10  1  0
 11 12  1  1
 13 14  1  6
 14  7  1  0
 15 13  1  0
 16 15  2  0
 17 15  1  0
 18 19  1  6
 18 17  1  0
 19 20  1  0
 20 21  1  0
 21 22  1  0
 23 22  1  0
 24 25  1  0
 24 18  1  0
 26 24  2  0
M  END
$$$$
