MIK.pdb
     RDKit          3D

 26 25  0  0  1  0  0  0  0  0999 V2000
    9.1889  -14.2056   29.1982 C   0  0  0  0  0  0  0  0  0  0  0  0
    9.6835  -15.3799   30.4911 S   0  0  0  0  0  0  0  0  0  0  0  0
    9.3230  -17.0445   29.8692 C   0  0  0  0  0  0  0  0  0  0  0  0
    9.3466  -17.0889   28.3475 C   0  0  0  0  0  0  0  0  0  0  0  0
    7.9386  -17.3983   27.8998 C   0  0  2  0  0  0  0  0  0  0  0  0
    7.7385  -18.8148   27.9145 N   0  0  0  0  0  0  0  0  0  0  0  0
    7.7237  -16.8032   26.5569 C   0  0  0  0  0  0  0  0  0  0  0  0
    7.6369  -17.5565   25.5415 O   0  0  0  0  0  0  0  0  0  0  0  0
    5.8049  -11.8256   26.3214 C   0  0  0  0  0  0  0  0  0  0  0  0
    5.9337  -13.1635   25.6839 C   0  0  0  0  0  0  0  0  0  0  0  0
    7.2832  -13.4061   25.0214 C   0  0  2  0  0  0  0  0  0  0  0  0
    7.1809  -12.8509   23.6185 C   0  0  0  0  0  0  0  0  0  0  0  0
    7.5930  -14.8792   24.9554 C   0  0  2  0  0  0  0  0  0  0  0  0
    7.6082  -15.4110   26.3438 N   0  0  0  0  0  0  0  0  0  0  0  0
    8.8569  -15.2509   24.3475 C   0  0  0  0  0  0  0  0  0  0  0  0
    9.9376  -14.8644   24.9496 O   0  0  0  0  0  0  0  0  0  0  0  0
    9.0463  -15.9986   23.1606 N   0  0  0  0  0  0  0  0  0  0  0  0
   10.3676  -16.4172   22.6856 C   0  0  1  0  0  0  0  0  0  0  0  0
   10.4644  -17.8988   22.6235 C   0  0  0  0  0  0  0  0  0  0  0  0
   11.7308  -18.4692   22.0977 C   0  0  0  0  0  0  0  0  0  0  0  0
   11.7599  -19.9429   21.9003 C   0  0  0  0  0  0  0  0  0  0  0  0
   13.1492  -20.3333   21.4333 C   0  0  0  0  0  0  0  0  0  0  0  0
   13.2408  -21.7357   21.1108 N   0  0  0  0  0  0  0  0  0  0  0  0
   10.7601  -15.6914   21.4708 C   0  0  0  0  0  0  0  0  0  0  0  0
    9.8100  -15.2522   20.5575 O   0  0  0  0  0  0  0  0  0  0  0  0
   11.9677  -15.4491   21.2299 O   0  0  0  0  0  0  0  0  0  0  0  0
  2  1  1  0
  3  2  1  0
  4  3  1  0
  4  5  1  0
  5  7  1  0
  5  6  1  6
  7  8  2  0
 10  9  1  0
 11 13  1  0
 11 10  1  0
 11 12  1  6
 13 14  1  1
 14  7  1  0
 15 13  1  0
 16 15  2  0
 17 15  1  0
 18 19  1  6
 18 17  1  0
 19 20  1  0
 20 21  1  0
 21 22  1  0
 23 22  1  0
 24 25  1  0
 24 18  1  0
 26 24  2  0
M  END
$$$$
