MIK.pdb
     RDKit          3D

 26 25  0  0  1  0  0  0  0  0999 V2000
    7.0650  -21.8538   20.3850 C   0  0  0  0  0  0  0  0  0  0  0  0
    7.5217  -22.1549   18.6541 S   0  0  0  0  0  0  0  0  0  0  0  0
    7.9680  -20.5530   17.9314 C   0  0  0  0  0  0  0  0  0  0  0  0
    8.4730  -19.5838   18.9915 C   0  0  0  0  0  0  0  0  0  0  0  0
    8.7682  -18.2827   18.2855 C   0  0  2  0  0  0  0  0  0  0  0  0
    9.7497  -18.5085   17.2692 N   0  0  0  0  0  0  0  0  0  0  0  0
    9.2052  -17.2827   19.2919 C   0  0  0  0  0  0  0  0  0  0  0  0
   10.4342  -17.1791   19.5834 O   0  0  0  0  0  0  0  0  0  0  0  0
    6.9505  -12.3825   19.6928 C   0  0  0  0  0  0  0  0  0  0  0  0
    7.9609  -13.4714   19.7724 C   0  0  0  0  0  0  0  0  0  0  0  0
    7.8805  -14.2982   21.0487 C   0  0  2  0  0  0  0  0  0  0  0  0
    8.2956  -13.3855   22.1807 C   0  0  0  0  0  0  0  0  0  0  0  0
    8.8177  -15.4764   20.9862 C   0  0  2  0  0  0  0  0  0  0  0  0
    8.3054  -16.4206   19.9582 N   0  0  0  0  0  0  0  0  0  0  0  0
    8.9878  -16.2371   22.2100 C   0  0  0  0  0  0  0  0  0  0  0  0
    8.2548  -17.2964   22.3532 O   0  0  0  0  0  0  0  0  0  0  0  0
    9.8752  -15.9529   23.2756 N   0  0  0  0  0  0  0  0  0  0  0  0
   10.5959  -16.9953   24.0110 C   0  0  1  0  0  0  0  0  0  0  0  0
   11.2919  -17.9186   23.0775 C   0  0  0  0  0  0  0  0  0  0  0  0
   10.7328  -19.2880   22.9433 C   0  0  0  0  0  0  0  0  0  0  0  0
   11.4365  -20.1997   22.0027 C   0  0  0  0  0  0  0  0  0  0  0  0
   10.8164  -21.5788   22.1230 C   0  0  0  0  0  0  0  0  0  0  0  0
   11.4430  -22.5356   21.2449 N   0  0  0  0  0  0  0  0  0  0  0  0
   11.4143  -16.4277   25.0902 C   0  0  0  0  0  0  0  0  0  0  0  0
   11.2999  -16.8869   26.3963 O   0  0  0  0  0  0  0  0  0  0  0  0
   12.2400  -15.5121   24.8558 O   0  0  0  0  0  0  0  0  0  0  0  0
  2  1  1  0
  3  2  1  0
  4  3  1  0
  4  5  1  0
  5  7  1  0
  5  6  1  6
  7  8  2  0
 10  9  1  0
 11 13  1  0
 11 10  1  0
 11 12  1  1
 13 14  1  6
 14  7  1  0
 15 13  1  0
 16 15  2  0
 17 15  1  0
 18 19  1  6
 18 17  1  0
 19 20  1  0
 20 21  1  0
 21 22  1  0
 23 22  1  0
 24 25  1  0
 24 18  1  0
 26 24  2  0
M  END
$$$$
