MIK.pdb
     RDKit          3D

 26 25  0  0  1  0  0  0  0  0999 V2000
    8.4546  -19.5630   28.8793 C   0  0  0  0  0  0  0  0  0  0  0  0
    7.4731  -20.9062   28.1529 S   0  0  0  0  0  0  0  0  0  0  0  0
    6.3396  -20.1536   26.9544 C   0  0  0  0  0  0  0  0  0  0  0  0
    7.0761  -19.2308   25.9931 C   0  0  0  0  0  0  0  0  0  0  0  0
    6.0217  -18.5144   25.1846 C   0  0  2  0  0  0  0  0  0  0  0  0
    5.5655  -19.3736   24.1356 N   0  0  0  0  0  0  0  0  0  0  0  0
    6.5936  -17.2426   24.6755 C   0  0  0  0  0  0  0  0  0  0  0  0
    7.1057  -17.2022   23.5170 O   0  0  0  0  0  0  0  0  0  0  0  0
    5.4826  -12.2544   26.5580 C   0  0  0  0  0  0  0  0  0  0  0  0
    6.0569  -13.2399   25.6029 C   0  0  0  0  0  0  0  0  0  0  0  0
    7.3814  -13.8403   26.0548 C   0  0  2  0  0  0  0  0  0  0  0  0
    8.4384  -12.7870   25.8095 C   0  0  0  0  0  0  0  0  0  0  0  0
    7.7115  -15.0759   25.2580 C   0  0  2  0  0  0  0  0  0  0  0  0
    6.5989  -16.0473   25.4293 N   0  0  0  0  0  0  0  0  0  0  0  0
    8.9355  -15.7698   25.6122 C   0  0  0  0  0  0  0  0  0  0  0  0
    8.8267  -16.7942   26.3988 O   0  0  0  0  0  0  0  0  0  0  0  0
   10.2490  -15.4540   25.1894 N   0  0  0  0  0  0  0  0  0  0  0  0
   11.0509  -16.3466   24.3485 C   0  0  1  0  0  0  0  0  0  0  0  0
   10.3172  -16.7078   23.1077 C   0  0  0  0  0  0  0  0  0  0  0  0
   11.0075  -17.6176   22.1582 C   0  0  0  0  0  0  0  0  0  0  0  0
   10.2736  -17.9476   20.9077 C   0  0  0  0  0  0  0  0  0  0  0  0
   11.1346  -18.8866   20.0843 C   0  0  0  0  0  0  0  0  0  0  0  0
   10.5168  -19.2301   18.8275 N   0  0  0  0  0  0  0  0  0  0  0  0
   12.4163  -15.8370   24.1681 C   0  0  0  0  0  0  0  0  0  0  0  0
   12.6497  -14.5077   23.8392 O   0  0  0  0  0  0  0  0  0  0  0  0
   13.4075  -16.5937   24.3089 O   0  0  0  0  0  0  0  0  0  0  0  0
  2  1  1  0
  3  2  1  0
  4  3  1  0
  4  5  1  0
  5  7  1  0
  5  6  1  6
  7  8  2  0
 10  9  1  0
 11 13  1  0
 11 10  1  0
 11 12  1  6
 13 14  1  1
 14  7  1  0
 15 13  1  0
 16 15  2  0
 17 15  1  0
 18 19  1  6
 18 17  1  0
 19 20  1  0
 20 21  1  0
 21 22  1  0
 23 22  1  0
 24 25  1  0
 24 18  1  0
 26 24  2  0
M  END
$$$$
