RDT.pdb
     RDKit          3D

 27 26  0  0  1  0  0  0  0  0999 V2000
    8.0300  -14.3767   20.6129 N   0  0  0  0  0  0  0  0  0  0  0  0
    7.2348  -13.3233   20.0702 C   0  0  0  0  0  0  0  0  0  0  0  0
    6.8134  -12.4093   20.8567 N   0  0  0  0  0  0  0  0  0  0  0  0
    6.9105  -13.2641   18.6908 N   0  0  0  0  0  0  0  0  0  0  0  0
    7.3565  -14.2225   17.7155 C   0  0  0  0  0  0  0  0  0  0  0  0
    8.4919  -13.7546   16.8758 C   0  0  0  0  0  0  0  0  0  0  0  0
    9.7050  -13.2651   17.5729 C   0  0  0  0  0  0  0  0  0  0  0  0
   10.8783  -14.2002   17.5657 C   0  0  2  0  0  0  0  0  0  0  0  0
   10.3065  -15.5641   17.4710 N   0  0  0  0  0  0  0  0  0  0  0  0
   11.5539  -14.0892   18.9125 C   0  0  0  0  0  0  0  0  0  0  0  0
   12.1854  -13.0413   19.1568 O   0  0  0  0  0  0  0  0  0  0  0  0
   11.4891  -15.1218   19.8820 N   0  0  0  0  0  0  0  0  0  0  0  0
   12.2448  -15.1321   21.1092 C   0  0  1  0  0  0  0  0  0  0  0  0
   11.5603  -16.0437   22.0942 C   0  0  0  0  0  0  0  0  0  0  0  0
   12.2122  -15.9837   23.3990 C   0  0  0  0  0  0  0  0  0  0  0  0
   11.6075  -16.3986   24.4158 O   0  0  0  0  0  0  0  0  0  0  0  0
   13.6578  -15.5809   20.8614 C   0  0  0  0  0  0  0  0  0  0  0  0
   13.9398  -16.7812   20.5703 O   0  0  0  0  0  0  0  0  0  0  0  0
   13.4980  -15.4744   23.5501 O   0  0  0  0  0  0  0  0  0  0  0  0
   18.1639  -14.2709   19.4794 C   0  0  0  0  0  0  0  0  0  0  0  0
   16.7241  -13.9057   19.7649 C   0  0  1  0  0  0  0  0  0  0  0  0
   16.0207  -13.7645   18.5777 O   0  0  0  0  0  0  0  0  0  0  0  0
   16.1001  -15.0387   20.5899 C   0  0  2  0  0  0  0  0  0  0  0  0
   14.7504  -14.6775   20.9417 N   0  0  0  0  0  0  0  0  0  0  0  0
   16.9438  -15.3521   21.7554 C   0  0  0  0  0  0  0  0  0  0  0  0
   18.0621  -16.1406   21.6002 O   0  0  0  0  0  0  0  0  0  0  0  0
   16.6432  -14.9032   22.8771 O   0  0  0  0  0  0  0  0  0  0  0  0
  2  3  2  0
  2  1  1  0
  4  2  1  0
  5  4  1  0
  6  5  1  0
  7  6  1  0
  8  7  1  0
  8  9  1  1
 10 12  1  0
 10  8  1  0
 11 10  2  0
 13 12  1  0
 13 14  1  1
 15 19  1  0
 15 14  1  0
 16 15  2  0
 17 24  1  0
 17 13  1  0
 18 17  2  0
 21 20  1  6
 22 21  1  0
 23 25  1  0
 23 21  1  0
 23 24  1  1
 25 26  1  0
 27 25  2  0
M  END
$$$$
