RDT.pdb
     RDKit          3D

 27 26  0  0  1  0  0  0  0  0999 V2000
    8.7544  -12.8452   21.2530 N   0  0  0  0  0  0  0  0  0  0  0  0
    8.9768  -12.9557   19.8477 C   0  0  0  0  0  0  0  0  0  0  0  0
   10.0283  -12.4260   19.3525 N   0  0  0  0  0  0  0  0  0  0  0  0
    8.0704  -13.6392   18.9975 N   0  0  0  0  0  0  0  0  0  0  0  0
    7.0890  -14.5845   19.4580 C   0  0  0  0  0  0  0  0  0  0  0  0
    6.9101  -14.6069   20.9348 C   0  0  0  0  0  0  0  0  0  0  0  0
    6.8167  -15.9309   21.5948 C   0  0  0  0  0  0  0  0  0  0  0  0
    7.8409  -16.9410   21.1685 C   0  0  2  0  0  0  0  0  0  0  0  0
    7.0748  -18.1280   20.7209 N   0  0  0  0  0  0  0  0  0  0  0  0
    8.6170  -17.3460   22.3998 C   0  0  0  0  0  0  0  0  0  0  0  0
    8.0074  -17.9825   23.2829 O   0  0  0  0  0  0  0  0  0  0  0  0
    9.9880  -17.0282   22.5720 N   0  0  0  0  0  0  0  0  0  0  0  0
   10.7405  -17.3003   23.7708 C   0  0  1  0  0  0  0  0  0  0  0  0
   12.1586  -17.6360   23.3892 C   0  0  0  0  0  0  0  0  0  0  0  0
   12.9519  -17.9639   24.5701 C   0  0  0  0  0  0  0  0  0  0  0  0
   14.1952  -17.8049   24.5476 O   0  0  0  0  0  0  0  0  0  0  0  0
   10.7046  -16.1209   24.7019 C   0  0  0  0  0  0  0  0  0  0  0  0
   11.3473  -15.0559   24.4617 O   0  0  0  0  0  0  0  0  0  0  0  0
   12.3636  -18.4526   25.7321 O   0  0  0  0  0  0  0  0  0  0  0  0
    8.5360  -13.1628   27.6501 C   0  0  0  0  0  0  0  0  0  0  0  0
    8.4995  -14.4306   26.8259 C   0  0  1  0  0  0  0  0  0  0  0  0
    8.1312  -14.1429   25.5198 O   0  0  0  0  0  0  0  0  0  0  0  0
    9.9064  -15.0423   26.8308 C   0  0  2  0  0  0  0  0  0  0  0  0
    9.9451  -16.1428   25.9015 N   0  0  0  0  0  0  0  0  0  0  0  0
   10.2996  -15.4187   28.1991 C   0  0  0  0  0  0  0  0  0  0  0  0
   10.5339  -14.4399   29.1390 O   0  0  0  0  0  0  0  0  0  0  0  0
   10.4188  -16.6206   28.5015 O   0  0  0  0  0  0  0  0  0  0  0  0
  2  3  2  0
  2  1  1  0
  4  2  1  0
  5  4  1  0
  6  5  1  0
  7  6  1  0
  8  7  1  0
  8  9  1  1
 10 12  1  0
 10  8  1  0
 11 10  2  0
 13 12  1  0
 13 14  1  6
 15 19  1  0
 15 14  1  0
 16 15  2  0
 17 24  1  0
 17 13  1  0
 18 17  2  0
 21 20  1  1
 22 21  1  0
 23 25  1  0
 23 21  1  0
 23 24  1  6
 25 26  1  0
 27 25  2  0
M  END
$$$$
