RDT.pdb
     RDKit          3D

 27 26  0  0  1  0  0  0  0  0999 V2000
    9.3299  -12.5585   18.0342 N   0  0  0  0  0  0  0  0  0  0  0  0
    8.0001  -13.0098   17.7808 C   0  0  0  0  0  0  0  0  0  0  0  0
    7.6970  -13.3825   16.5973 N   0  0  0  0  0  0  0  0  0  0  0  0
    7.0187  -13.0605   18.8035 N   0  0  0  0  0  0  0  0  0  0  0  0
    7.2595  -13.5666   20.1281 C   0  0  0  0  0  0  0  0  0  0  0  0
    7.9675  -14.8746   20.1616 C   0  0  0  0  0  0  0  0  0  0  0  0
    8.3105  -15.4355   21.4901 C   0  0  0  0  0  0  0  0  0  0  0  0
    9.0534  -16.7389   21.4711 C   0  0  2  0  0  0  0  0  0  0  0  0
    8.0484  -17.7709   21.1230 N   0  0  0  0  0  0  0  0  0  0  0  0
    9.5132  -17.0184   22.8829 C   0  0  0  0  0  0  0  0  0  0  0  0
    8.6508  -17.3750   23.7108 O   0  0  0  0  0  0  0  0  0  0  0  0
   10.8681  -16.8886   23.2799 N   0  0  0  0  0  0  0  0  0  0  0  0
   11.3351  -17.0382   24.6353 C   0  0  1  0  0  0  0  0  0  0  0  0
   12.8225  -17.2766   24.6136 C   0  0  0  0  0  0  0  0  0  0  0  0
   13.1629  -18.3591   23.6950 C   0  0  0  0  0  0  0  0  0  0  0  0
   12.6340  -19.4865   23.8395 O   0  0  0  0  0  0  0  0  0  0  0  0
   11.0030  -15.8202   25.4511 C   0  0  0  0  0  0  0  0  0  0  0  0
   11.2477  -14.6480   25.0377 O   0  0  0  0  0  0  0  0  0  0  0  0
   14.0662  -18.1755   22.6531 O   0  0  0  0  0  0  0  0  0  0  0  0
    8.6869  -13.7424   25.9549 C   0  0  0  0  0  0  0  0  0  0  0  0
    8.7785  -14.2400   27.3804 C   0  0  1  0  0  0  0  0  0  0  0  0
    7.8526  -15.2501   27.5960 O   0  0  0  0  0  0  0  0  0  0  0  0
   10.1917  -14.7948   27.6011 C   0  0  2  0  0  0  0  0  0  0  0  0
   10.3959  -15.9245   26.7305 N   0  0  0  0  0  0  0  0  0  0  0  0
   10.4058  -15.1073   29.0241 C   0  0  0  0  0  0  0  0  0  0  0  0
   10.6084  -16.4116   29.4170 O   0  0  0  0  0  0  0  0  0  0  0  0
   10.4029  -14.1912   29.8673 O   0  0  0  0  0  0  0  0  0  0  0  0
  2  3  2  0
  2  1  1  0
  4  2  1  0
  5  4  1  0
  6  5  1  0
  7  6  1  0
  8  7  1  0
  8  9  1  1
 10 12  1  0
 10  8  1  0
 11 10  2  0
 13 12  1  0
 13 14  1  6
 15 19  1  0
 15 14  1  0
 16 15  2  0
 17 24  1  0
 17 13  1  0
 18 17  2  0
 21 20  1  6
 22 21  1  0
 23 25  1  0
 23 21  1  0
 23 24  1  6
 25 26  1  0
 27 25  2  0
M  END
$$$$
