RDT.pdb
     RDKit          3D

 27 26  0  0  1  0  0  0  0  0999 V2000
    8.0110  -14.7784   15.8896 N   0  0  0  0  0  0  0  0  0  0  0  0
    7.5847  -13.4168   15.9182 C   0  0  0  0  0  0  0  0  0  0  0  0
    7.2751  -12.8508   14.8158 N   0  0  0  0  0  0  0  0  0  0  0  0
    7.4909  -12.6867   17.1305 N   0  0  0  0  0  0  0  0  0  0  0  0
    7.5795  -13.2794   18.4379 C   0  0  0  0  0  0  0  0  0  0  0  0
    8.1888  -14.6365   18.4521 C   0  0  0  0  0  0  0  0  0  0  0  0
    8.3019  -15.3244   19.7603 C   0  0  0  0  0  0  0  0  0  0  0  0
    8.9686  -16.6681   19.7303 C   0  0  2  0  0  0  0  0  0  0  0  0
    7.9829  -17.5941   19.1246 N   0  0  0  0  0  0  0  0  0  0  0  0
    9.1728  -17.1041   21.1624 C   0  0  0  0  0  0  0  0  0  0  0  0
    8.1553  -17.3441   21.8433 O   0  0  0  0  0  0  0  0  0  0  0  0
   10.4613  -17.2440   21.7373 N   0  0  0  0  0  0  0  0  0  0  0  0
   10.7036  -17.6548   23.0975 C   0  0  1  0  0  0  0  0  0  0  0  0
   12.0815  -18.2572   23.1854 C   0  0  0  0  0  0  0  0  0  0  0  0
   12.3663  -18.7095   24.5439 C   0  0  0  0  0  0  0  0  0  0  0  0
   11.4646  -19.2622   25.2170 O   0  0  0  0  0  0  0  0  0  0  0  0
   10.5707  -16.4898   24.0379 C   0  0  0  0  0  0  0  0  0  0  0  0
   11.3513  -15.4933   23.9870 O   0  0  0  0  0  0  0  0  0  0  0  0
   13.6215  -18.5438   25.1205 O   0  0  0  0  0  0  0  0  0  0  0  0
    7.8960  -14.1041   24.5442 C   0  0  0  0  0  0  0  0  0  0  0  0
    8.0271  -14.7781   25.8919 C   0  0  1  0  0  0  0  0  0  0  0  0
    7.0894  -15.7930   26.0137 O   0  0  0  0  0  0  0  0  0  0  0  0
    9.4359  -15.3778   25.9893 C   0  0  2  0  0  0  0  0  0  0  0  0
    9.5593  -16.4491   25.0337 N   0  0  0  0  0  0  0  0  0  0  0  0
    9.7246  -15.7923   27.3725 C   0  0  0  0  0  0  0  0  0  0  0  0
    9.7151  -14.8584   28.3845 O   0  0  0  0  0  0  0  0  0  0  0  0
    9.9764  -16.9858   27.6224 O   0  0  0  0  0  0  0  0  0  0  0  0
  2  3  2  0
  2  1  1  0
  4  2  1  0
  5  4  1  0
  6  5  1  0
  7  6  1  0
  8  7  1  0
  8  9  1  6
 10 12  1  0
 10  8  1  0
 11 10  2  0
 13 12  1  0
 13 14  1  6
 15 19  1  0
 15 14  1  0
 16 15  2  0
 17 24  1  0
 17 13  1  0
 18 17  2  0
 21 20  1  6
 22 21  1  0
 23 25  1  0
 23 21  1  0
 23 24  1  6
 25 26  1  0
 27 25  2  0
M  END
$$$$
