RDT.pdb
     RDKit          3D

 27 26  0  0  1  0  0  0  0  0999 V2000
-42923.492210339.345775206.4844 N   0  0  0  0  0  0  0  0  0  0  0  0
-42922.222710339.901475206.8047 C   0  0  0  0  0  0  0  0  0  0  0  0
-42921.543010340.371175205.8438 N   0  0  0  0  0  0  0  0  0  0  0  0
-42921.691410339.989375208.1328 N   0  0  0  0  0  0  0  0  0  0  0  0
-42921.843810338.976675209.1484 C   0  0  0  0  0  0  0  0  0  0  0  0
-42922.332010337.677775208.6406 C   0  0  0  0  0  0  0  0  0  0  0  0
-42923.796910337.341875208.8047 C   0  0  0  0  0  0  0  0  0  0  0  0
-42924.132810335.918975208.7031 C   0  0  2  0  0  0  0  0  0  0  0  0
-42925.539110335.767675209.1250 N   0  0  0  0  0  0  0  0  0  0  0  0
-42923.316410335.153375209.6641 C   0  0  0  0  0  0  0  0  0  0  0  0
-42922.101610335.485475209.8359 O   0  0  0  0  0  0  0  0  0  0  0  0
-42923.804710334.039175210.4062 N   0  0  0  0  0  0  0  0  0  0  0  0
-42923.976610334.009875211.8438 C   0  0  1  0  0  0  0  0  0  0  0  0
-42925.421910333.631875212.1094 C   0  0  0  0  0  0  0  0  0  0  0  0
-42925.804710332.444375211.3906 C   0  0  0  0  0  0  0  0  0  0  0  0
-42926.328110332.516675210.2812 O   0  0  0  0  0  0  0  0  0  0  0  0
-42923.050810333.025475212.4688 C   0  0  0  0  0  0  0  0  0  0  0  0
-42921.804710333.041075212.2500 O   0  0  0  0  0  0  0  0  0  0  0  0
-42925.582010331.176875211.9062 O   0  0  0  0  0  0  0  0  0  0  0  0
-42922.574210331.844775216.9844 C   0  0  0  0  0  0  0  0  0  0  0  0
-42923.285210332.348675215.7422 C   0  0  1  0  0  0  0  0  0  0  0  0
-42923.070310333.713975215.5625 O   0  0  0  0  0  0  0  0  0  0  0  0
-42922.769510331.579175214.5312 C   0  0  2  0  0  0  0  0  0  0  0  0
-42923.511710332.012775213.3516 N   0  0  0  0  0  0  0  0  0  0  0  0
-42922.863310330.114375214.7500 C   0  0  0  0  0  0  0  0  0  0  0  0
-42924.019510329.456175214.5312 O   0  0  0  0  0  0  0  0  0  0  0  0
-42921.859410329.493275215.1562 O   0  0  0  0  0  0  0  0  0  0  0  0
  2  3  2  0
  2  1  1  0
  4  2  1  0
  5  4  1  0
  6  5  1  0
  7  6  1  0
  8  7  1  0
  8  9  1  1
 10 12  1  0
 10  8  1  0
 11 10  2  0
 13 12  1  0
 13 14  1  6
 15 19  1  0
 15 14  1  0
 16 15  2  0
 17 24  1  0
 17 13  1  0
 18 17  2  0
 21 20  1  1
 22 21  1  0
 23 25  1  0
 23 21  1  0
 23 24  1  6
 25 26  1  0
 27 25  2  0
M  END
$$$$
