RDT.pdb
     RDKit          3D

 27 26  0  0  1  0  0  0  0  0999 V2000
    8.5669  -14.6930   15.6009 N   0  0  0  0  0  0  0  0  0  0  0  0
    8.3151  -13.6280   16.5169 C   0  0  0  0  0  0  0  0  0  0  0  0
    7.9702  -12.4902   16.0502 N   0  0  0  0  0  0  0  0  0  0  0  0
    8.4307  -13.8034   17.9195 N   0  0  0  0  0  0  0  0  0  0  0  0
    7.7451  -14.8255   18.6638 C   0  0  0  0  0  0  0  0  0  0  0  0
    7.1532  -14.3538   19.9446 C   0  0  0  0  0  0  0  0  0  0  0  0
    7.7946  -14.8027   21.2034 C   0  0  0  0  0  0  0  0  0  0  0  0
    8.7262  -15.9716   21.0750 C   0  0  2  0  0  0  0  0  0  0  0  0
    7.9140  -17.0746   20.5095 N   0  0  0  0  0  0  0  0  0  0  0  0
    9.1315  -16.3829   22.4711 C   0  0  0  0  0  0  0  0  0  0  0  0
    8.2275  -16.5040   23.3224 O   0  0  0  0  0  0  0  0  0  0  0  0
   10.4813  -16.6288   22.8287 N   0  0  0  0  0  0  0  0  0  0  0  0
   10.9065  -17.0916   24.1258 C   0  0  1  0  0  0  0  0  0  0  0  0
   12.3084  -17.6317   24.0139 C   0  0  0  0  0  0  0  0  0  0  0  0
   12.3453  -18.8092   23.1516 C   0  0  0  0  0  0  0  0  0  0  0  0
   13.0247  -18.7873   22.0982 O   0  0  0  0  0  0  0  0  0  0  0  0
   10.8432  -15.9800   25.1355 C   0  0  0  0  0  0  0  0  0  0  0  0
   11.3691  -14.8475   24.9214 O   0  0  0  0  0  0  0  0  0  0  0  0
   11.6419  -19.9673   23.4668 O   0  0  0  0  0  0  0  0  0  0  0  0
    8.6901  -13.3196   28.3148 C   0  0  0  0  0  0  0  0  0  0  0  0
    8.7199  -14.4589   27.3203 C   0  0  1  0  0  0  0  0  0  0  0  0
    8.4914  -13.9819   26.0379 O   0  0  0  0  0  0  0  0  0  0  0  0
   10.1100  -15.1054   27.3783 C   0  0  2  0  0  0  0  0  0  0  0  0
   10.1879  -16.1456   26.3844 N   0  0  0  0  0  0  0  0  0  0  0  0
   10.4019  -15.5774   28.7423 C   0  0  0  0  0  0  0  0  0  0  0  0
   10.6643  -14.6669   29.7416 O   0  0  0  0  0  0  0  0  0  0  0  0
   10.4104  -16.7981   28.9875 O   0  0  0  0  0  0  0  0  0  0  0  0
  2  3  2  0
  2  1  1  0
  4  2  1  0
  5  4  1  0
  6  5  1  0
  7  6  1  0
  8  7  1  0
  8  9  1  1
 10 12  1  0
 10  8  1  0
 11 10  2  0
 13 12  1  0
 13 14  1  6
 15 19  1  0
 15 14  1  0
 16 15  2  0
 17 24  1  0
 17 13  1  0
 18 17  2  0
 21 20  1  1
 22 21  1  0
 23 25  1  0
 23 21  1  0
 23 24  1  6
 25 26  1  0
 27 25  2  0
M  END
$$$$
