RDT.pdb
     RDKit          3D

 27 26  0  0  1  0  0  0  0  0999 V2000
    8.4810  -16.5446   15.8834 N   0  0  0  0  0  0  0  0  0  0  0  0
    8.0280  -15.2993   15.3541 C   0  0  0  0  0  0  0  0  0  0  0  0
    7.2645  -15.3127   14.3302 N   0  0  0  0  0  0  0  0  0  0  0  0
    8.3961  -14.0595   15.9365 N   0  0  0  0  0  0  0  0  0  0  0  0
    8.5842  -13.8557   17.3478 C   0  0  0  0  0  0  0  0  0  0  0  0
    7.3338  -13.5433   18.0907 C   0  0  0  0  0  0  0  0  0  0  0  0
    7.2201  -14.0402   19.4827 C   0  0  0  0  0  0  0  0  0  0  0  0
    8.2398  -13.5079   20.4460 C   0  0  2  0  0  0  0  0  0  0  0  0
    9.5546  -13.7043   19.7912 N   0  0  0  0  0  0  0  0  0  0  0  0
    8.2113  -14.3931   21.6701 C   0  0  0  0  0  0  0  0  0  0  0  0
    7.1314  -14.4899   22.2873 O   0  0  0  0  0  0  0  0  0  0  0  0
    9.3542  -15.0994   22.1233 N   0  0  0  0  0  0  0  0  0  0  0  0
    9.3827  -15.9264   23.3034 C   0  0  1  0  0  0  0  0  0  0  0  0
   10.5712  -16.8486   23.2222 C   0  0  0  0  0  0  0  0  0  0  0  0
   10.6204  -17.7374   24.3793 C   0  0  0  0  0  0  0  0  0  0  0  0
   10.4025  -18.9631   24.2314 O   0  0  0  0  0  0  0  0  0  0  0  0
    9.4480  -15.0816   24.5449 C   0  0  0  0  0  0  0  0  0  0  0  0
   10.4846  -14.4227   24.8550 O   0  0  0  0  0  0  0  0  0  0  0  0
   10.9048  -17.2604   25.6548 O   0  0  0  0  0  0  0  0  0  0  0  0
    7.1043  -12.3227   25.5421 C   0  0  0  0  0  0  0  0  0  0  0  0
    7.0645  -13.3328   26.6673 C   0  0  1  0  0  0  0  0  0  0  0  0
    5.9783  -14.1814   26.5116 O   0  0  0  0  0  0  0  0  0  0  0  0
    8.3589  -14.1547   26.6154 C   0  0  2  0  0  0  0  0  0  0  0  0
    8.3460  -14.9803   25.4347 N   0  0  0  0  0  0  0  0  0  0  0  0
    8.5336  -14.9196   27.8616 C   0  0  0  0  0  0  0  0  0  0  0  0
    8.6580  -14.2561   29.0618 O   0  0  0  0  0  0  0  0  0  0  0  0
    8.5681  -16.1637   27.8257 O   0  0  0  0  0  0  0  0  0  0  0  0
  2  3  2  0
  2  1  1  0
  4  2  1  0
  5  4  1  0
  6  5  1  0
  7  6  1  0
  8  7  1  0
  8  9  1  6
 10 12  1  0
 10  8  1  0
 11 10  2  0
 13 12  1  0
 13 14  1  6
 15 19  1  0
 15 14  1  0
 16 15  2  0
 17 24  1  0
 17 13  1  0
 18 17  2  0
 21 20  1  6
 22 21  1  0
 23 25  1  0
 23 21  1  0
 23 24  1  6
 25 26  1  0
 27 25  2  0
M  END
$$$$
