RDT.pdb
     RDKit          3D

 27 26  0  0  1  0  0  0  0  0999 V2000
    8.3543  -13.1901   14.5096 N   0  0  0  0  0  0  0  0  0  0  0  0
    7.6463  -14.2781   15.1024 C   0  0  0  0  0  0  0  0  0  0  0  0
    7.5868  -15.3854   14.4685 N   0  0  0  0  0  0  0  0  0  0  0  0
    7.0196  -14.1623   16.3694 N   0  0  0  0  0  0  0  0  0  0  0  0
    7.4511  -13.2604   17.4033 C   0  0  0  0  0  0  0  0  0  0  0  0
    8.5776  -13.7732   18.2287 C   0  0  0  0  0  0  0  0  0  0  0  0
    8.2979  -14.0932   19.6487 C   0  0  0  0  0  0  0  0  0  0  0  0
    9.4774  -14.5530   20.4539 C   0  0  2  0  0  0  0  0  0  0  0  0
    9.9854  -15.7652   19.7693 N   0  0  0  0  0  0  0  0  0  0  0  0
    8.9615  -14.9846   21.8067 C   0  0  0  0  0  0  0  0  0  0  0  0
    7.9101  -14.4546   22.2194 O   0  0  0  0  0  0  0  0  0  0  0  0
    9.6268  -15.9538   22.5994 N   0  0  0  0  0  0  0  0  0  0  0  0
    9.1795  -16.3853   23.8999 C   0  0  1  0  0  0  0  0  0  0  0  0
    9.9936  -17.5804   24.3222 C   0  0  0  0  0  0  0  0  0  0  0  0
    9.7071  -18.7322   23.4722 C   0  0  0  0  0  0  0  0  0  0  0  0
    8.6181  -18.7932   22.8541 O   0  0  0  0  0  0  0  0  0  0  0  0
    9.3061  -15.2733   24.9032 C   0  0  0  0  0  0  0  0  0  0  0  0
   10.3603  -14.5781   25.0057 O   0  0  0  0  0  0  0  0  0  0  0  0
   10.6158  -19.7753   23.3255 O   0  0  0  0  0  0  0  0  0  0  0  0
    7.1489  -12.2635   25.3361 C   0  0  0  0  0  0  0  0  0  0  0  0
    7.0838  -13.0025   26.6542 C   0  0  1  0  0  0  0  0  0  0  0  0
    5.9502  -13.8006   26.7009 O   0  0  0  0  0  0  0  0  0  0  0  0
    8.3307  -13.8895   26.7650 C   0  0  2  0  0  0  0  0  0  0  0  0
    8.2457  -14.9461   25.7891 N   0  0  0  0  0  0  0  0  0  0  0  0
    8.4935  -14.3792   28.1441 C   0  0  0  0  0  0  0  0  0  0  0  0
    8.6982  -13.4838   29.1702 O   0  0  0  0  0  0  0  0  0  0  0  0
    8.4455  -15.6012   28.3778 O   0  0  0  0  0  0  0  0  0  0  0  0
  2  3  2  0
  2  1  1  0
  4  2  1  0
  5  4  1  0
  6  5  1  0
  7  6  1  0
  8  7  1  0
  8  9  1  6
 10 12  1  0
 10  8  1  0
 11 10  2  0
 13 12  1  0
 13 14  1  1
 15 19  1  0
 15 14  1  0
 16 15  2  0
 17 24  1  0
 17 13  1  0
 18 17  2  0
 21 20  1  6
 22 21  1  0
 23 25  1  0
 23 21  1  0
 23 24  1  6
 25 26  1  0
 27 25  2  0
M  END
$$$$
