RDT.pdb
     RDKit          3D

 27 26  0  0  1  0  0  0  0  0999 V2000
    7.8945  -12.4083   20.5825 N   0  0  0  0  0  0  0  0  0  0  0  0
    8.0447  -12.6323   19.1812 C   0  0  0  0  0  0  0  0  0  0  0  0
    8.1771  -11.6212   18.4121 N   0  0  0  0  0  0  0  0  0  0  0  0
    8.0572  -13.9385   18.6287 N   0  0  0  0  0  0  0  0  0  0  0  0
    8.3110  -15.1332   19.3883 C   0  0  0  0  0  0  0  0  0  0  0  0
    7.0918  -15.7559   19.9706 C   0  0  0  0  0  0  0  0  0  0  0  0
    7.2658  -16.9995   20.7583 C   0  0  0  0  0  0  0  0  0  0  0  0
    8.3091  -17.9492   20.2480 C   0  0  2  0  0  0  0  0  0  0  0  0
    7.6167  -19.2458   20.0592 N   0  0  0  0  0  0  0  0  0  0  0  0
    9.3256  -18.1395   21.3495 C   0  0  0  0  0  0  0  0  0  0  0  0
    9.0274  -18.9120   22.2827 O   0  0  0  0  0  0  0  0  0  0  0  0
   10.5796  -17.4779   21.3483 N   0  0  0  0  0  0  0  0  0  0  0  0
   11.5594  -17.5926   22.3991 C   0  0  1  0  0  0  0  0  0  0  0  0
   12.8619  -17.0107   21.9151 C   0  0  0  0  0  0  0  0  0  0  0  0
   13.6820  -18.0331   21.2721 C   0  0  0  0  0  0  0  0  0  0  0  0
   13.2900  -19.2238   21.2540 O   0  0  0  0  0  0  0  0  0  0  0  0
   11.0919  -16.8901   23.6429 C   0  0  0  0  0  0  0  0  0  0  0  0
   11.6374  -15.8246   24.0577 O   0  0  0  0  0  0  0  0  0  0  0  0
   14.8983  -17.7230   20.6725 O   0  0  0  0  0  0  0  0  0  0  0  0
    8.1904  -15.1183   24.4076 C   0  0  0  0  0  0  0  0  0  0  0  0
    8.1331  -16.2349   25.4264 C   0  0  1  0  0  0  0  0  0  0  0  0
    7.3268  -17.2648   24.9641 O   0  0  0  0  0  0  0  0  0  0  0  0
    9.5582  -16.7636   25.6340 C   0  0  2  0  0  0  0  0  0  0  0  0
   10.0110  -17.3886   24.4173 N   0  0  0  0  0  0  0  0  0  0  0  0
    9.6110  -17.6560   26.8042 C   0  0  0  0  0  0  0  0  0  0  0  0
    9.3707  -17.1514   28.0628 O   0  0  0  0  0  0  0  0  0  0  0  0
    9.8729  -18.8637   26.6517 O   0  0  0  0  0  0  0  0  0  0  0  0
  2  3  2  0
  2  1  1  0
  4  2  1  0
  5  4  1  0
  6  5  1  0
  7  6  1  0
  8  7  1  0
  8  9  1  1
 10 12  1  0
 10  8  1  0
 11 10  2  0
 13 12  1  0
 13 14  1  6
 15 19  1  0
 15 14  1  0
 16 15  2  0
 17 24  1  0
 17 13  1  0
 18 17  2  0
 21 20  1  6
 22 21  1  0
 23 25  1  0
 23 21  1  0
 23 24  1  6
 25 26  1  0
 27 25  2  0
M  END
$$$$
