RDT.pdb
     RDKit          3D

 27 26  0  0  1  0  0  0  0  0999 V2000
    9.0848  -14.9373   14.8066 N   0  0  0  0  0  0  0  0  0  0  0  0
    7.8224  -14.2825   14.9251 C   0  0  0  0  0  0  0  0  0  0  0  0
    7.5137  -13.3915   14.0635 N   0  0  0  0  0  0  0  0  0  0  0  0
    6.9086  -14.5995   15.9624 N   0  0  0  0  0  0  0  0  0  0  0  0
    6.9231  -13.9889   17.2646 C   0  0  0  0  0  0  0  0  0  0  0  0
    8.0877  -14.3749   18.1060 C   0  0  0  0  0  0  0  0  0  0  0  0
    8.1420  -13.8426   19.4884 C   0  0  0  0  0  0  0  0  0  0  0  0
    9.3467  -14.2406   20.2892 C   0  0  2  0  0  0  0  0  0  0  0  0
    9.9070  -15.4325   19.6097 N   0  0  0  0  0  0  0  0  0  0  0  0
    8.8598  -14.6863   21.6482 C   0  0  0  0  0  0  0  0  0  0  0  0
    7.9312  -14.0368   22.1700 O   0  0  0  0  0  0  0  0  0  0  0  0
    9.4188  -15.7976   22.3283 N   0  0  0  0  0  0  0  0  0  0  0  0
    9.0278  -16.2222   23.6490 C   0  0  1  0  0  0  0  0  0  0  0  0
    9.8281  -17.4420   24.0246 C   0  0  0  0  0  0  0  0  0  0  0  0
    9.7308  -18.4674   22.9900 C   0  0  0  0  0  0  0  0  0  0  0  0
    8.6210  -18.9935   22.7385 O   0  0  0  0  0  0  0  0  0  0  0  0
    9.2383  -15.1189   24.6478 C   0  0  0  0  0  0  0  0  0  0  0  0
   10.2991  -14.4267   24.6701 O   0  0  0  0  0  0  0  0  0  0  0  0
   10.8442  -18.8830   22.2669 O   0  0  0  0  0  0  0  0  0  0  0  0
    7.1732  -12.0907   25.2336 C   0  0  0  0  0  0  0  0  0  0  0  0
    7.1746  -12.8361   26.5497 C   0  0  1  0  0  0  0  0  0  0  0  0
    6.0356  -13.6204   26.6578 O   0  0  0  0  0  0  0  0  0  0  0  0
    8.4145  -13.7390   26.5842 C   0  0  2  0  0  0  0  0  0  0  0  0
    8.2541  -14.7971   25.6195 N   0  0  0  0  0  0  0  0  0  0  0  0
    8.6583  -14.2270   27.9520 C   0  0  0  0  0  0  0  0  0  0  0  0
    8.9687  -13.3344   28.9536 O   0  0  0  0  0  0  0  0  0  0  0  0
    8.5829  -15.4452   28.1982 O   0  0  0  0  0  0  0  0  0  0  0  0
  2  3  2  0
  2  1  1  0
  4  2  1  0
  5  4  1  0
  6  5  1  0
  7  6  1  0
  8  7  1  0
  8  9  1  6
 10 12  1  0
 10  8  1  0
 11 10  2  0
 13 12  1  0
 13 14  1  1
 15 19  1  0
 15 14  1  0
 16 15  2  0
 17 24  1  0
 17 13  1  0
 18 17  2  0
 21 20  1  6
 22 21  1  0
 23 25  1  0
 23 21  1  0
 23 24  1  6
 25 26  1  0
 27 25  2  0
M  END
$$$$
