RDT.pdb
     RDKit          3D

 27 26  0  0  1  0  0  0  0  0999 V2000
   10.4985  -13.3310   19.3924 N   0  0  0  0  0  0  0  0  0  0  0  0
    9.4986  -13.4769   18.3848 C   0  0  0  0  0  0  0  0  0  0  0  0
    9.8553  -13.8703   17.2231 N   0  0  0  0  0  0  0  0  0  0  0  0
    8.1306  -13.2050   18.6423 N   0  0  0  0  0  0  0  0  0  0  0  0
    7.5822  -13.0011   19.9562 C   0  0  0  0  0  0  0  0  0  0  0  0
    6.8687  -14.1836   20.5093 C   0  0  0  0  0  0  0  0  0  0  0  0
    7.5067  -14.9048   21.6363 C   0  0  0  0  0  0  0  0  0  0  0  0
    8.2481  -16.1561   21.2681 C   0  0  2  0  0  0  0  0  0  0  0  0
    7.2077  -17.1686   20.9702 N   0  0  0  0  0  0  0  0  0  0  0  0
    8.9885  -16.6225   22.4997 C   0  0  0  0  0  0  0  0  0  0  0  0
    8.3400  -17.2537   23.3585 O   0  0  0  0  0  0  0  0  0  0  0  0
   10.3689  -16.3666   22.6983 N   0  0  0  0  0  0  0  0  0  0  0  0
   11.1051  -16.7520   23.8760 C   0  0  1  0  0  0  0  0  0  0  0  0
   12.5618  -16.8867   23.5164 C   0  0  0  0  0  0  0  0  0  0  0  0
   12.7456  -17.8614   22.4452 C   0  0  0  0  0  0  0  0  0  0  0  0
   12.2618  -19.0121   22.5619 O   0  0  0  0  0  0  0  0  0  0  0  0
   10.9189  -15.7433   24.9748 C   0  0  0  0  0  0  0  0  0  0  0  0
   11.5302  -14.6337   24.9783 O   0  0  0  0  0  0  0  0  0  0  0  0
   13.4490  -17.5488   21.2864 O   0  0  0  0  0  0  0  0  0  0  0  0
    8.4548  -13.5714   25.9955 C   0  0  0  0  0  0  0  0  0  0  0  0
    8.5644  -14.4518   27.2206 C   0  0  1  0  0  0  0  0  0  0  0  0
    7.5878  -15.4365   27.1923 O   0  0  0  0  0  0  0  0  0  0  0  0
    9.9487  -15.1130   27.2095 C   0  0  2  0  0  0  0  0  0  0  0  0
   10.0449  -15.9860   26.0673 N   0  0  0  0  0  0  0  0  0  0  0  0
   10.2041  -15.7948   28.4894 C   0  0  0  0  0  0  0  0  0  0  0  0
   10.2806  -15.0626   29.6532 O   0  0  0  0  0  0  0  0  0  0  0  0
   10.3500  -17.0311   28.5150 O   0  0  0  0  0  0  0  0  0  0  0  0
  2  3  2  0
  2  1  1  0
  4  2  1  0
  5  4  1  0
  6  5  1  0
  7  6  1  0
  8  7  1  0
  8  9  1  1
 10 12  1  0
 10  8  1  0
 11 10  2  0
 13 12  1  0
 13 14  1  6
 15 19  1  0
 15 14  1  0
 16 15  2  0
 17 24  1  0
 17 13  1  0
 18 17  2  0
 21 20  1  6
 22 21  1  0
 23 25  1  0
 23 21  1  0
 23 24  1  6
 25 26  1  0
 27 25  2  0
M  END
$$$$
