RDT.pdb
     RDKit          3D

 27 26  0  0  1  0  0  0  0  0999 V2000
    9.2918  -13.2561   17.3647 N   0  0  0  0  0  0  0  0  0  0  0  0
    7.9039  -13.1663   17.6840 C   0  0  0  0  0  0  0  0  0  0  0  0
    7.0733  -12.9442   16.7395 N   0  0  0  0  0  0  0  0  0  0  0  0
    7.4290  -13.3235   19.0112 N   0  0  0  0  0  0  0  0  0  0  0  0
    8.2727  -13.6036   20.1419 C   0  0  0  0  0  0  0  0  0  0  0  0
    8.8975  -14.9535   20.1168 C   0  0  0  0  0  0  0  0  0  0  0  0
    8.8210  -15.7682   21.3528 C   0  0  0  0  0  0  0  0  0  0  0  0
    9.5369  -17.0859   21.3057 C   0  0  2  0  0  0  0  0  0  0  0  0
    8.5766  -18.0457   20.7118 N   0  0  0  0  0  0  0  0  0  0  0  0
    9.7809  -17.5197   22.7322 C   0  0  0  0  0  0  0  0  0  0  0  0
    8.8047  -17.9487   23.3799 O   0  0  0  0  0  0  0  0  0  0  0  0
   11.0611  -17.4529   23.3379 N   0  0  0  0  0  0  0  0  0  0  0  0
   11.3243  -17.7738   24.7182 C   0  0  1  0  0  0  0  0  0  0  0  0
   12.6937  -18.3933   24.8208 C   0  0  0  0  0  0  0  0  0  0  0  0
   12.9791  -18.8009   26.1933 C   0  0  0  0  0  0  0  0  0  0  0  0
   12.0797  -19.3376   26.8823 O   0  0  0  0  0  0  0  0  0  0  0  0
   11.2300  -16.5448   25.5785 C   0  0  0  0  0  0  0  0  0  0  0  0
   11.8417  -15.4739   25.2889 O   0  0  0  0  0  0  0  0  0  0  0  0
   14.2324  -18.6098   26.7660 O   0  0  0  0  0  0  0  0  0  0  0  0
    8.8869  -13.5350   28.3728 C   0  0  0  0  0  0  0  0  0  0  0  0
    8.9486  -14.7644   27.4939 C   0  0  1  0  0  0  0  0  0  0  0  0
    8.7227  -14.4189   26.1696 O   0  0  0  0  0  0  0  0  0  0  0  0
   10.3507  -15.3734   27.6247 C   0  0  2  0  0  0  0  0  0  0  0  0
   10.4471  -16.5241   26.7629 N   0  0  0  0  0  0  0  0  0  0  0  0
   10.6530  -15.6720   29.0346 C   0  0  0  0  0  0  0  0  0  0  0  0
   10.8224  -14.6420   29.9327 O   0  0  0  0  0  0  0  0  0  0  0  0
   10.7543  -16.8549   29.4098 O   0  0  0  0  0  0  0  0  0  0  0  0
  2  3  2  0
  2  1  1  0
  4  2  1  0
  5  4  1  0
  6  5  1  0
  7  6  1  0
  8  7  1  0
  8  9  1  1
 10 12  1  0
 10  8  1  0
 11 10  2  0
 13 12  1  0
 13 14  1  6
 15 19  1  0
 15 14  1  0
 16 15  2  0
 17 24  1  0
 17 13  1  0
 18 17  2  0
 21 20  1  1
 22 21  1  0
 23 25  1  0
 23 21  1  0
 23 24  1  6
 25 26  1  0
 27 25  2  0
M  END
$$$$
