RDT.pdb
     RDKit          3D

 27 26  0  0  1  0  0  0  0  0999 V2000
    7.6598  -13.6939   13.6573 N   0  0  0  0  0  0  0  0  0  0  0  0
    8.1107  -14.8595   14.3460 C   0  0  0  0  0  0  0  0  0  0  0  0
    8.7922  -15.7252   13.6997 N   0  0  0  0  0  0  0  0  0  0  0  0
    7.8287  -15.0741   15.7194 N   0  0  0  0  0  0  0  0  0  0  0  0
    8.3085  -14.2322   16.7823 C   0  0  0  0  0  0  0  0  0  0  0  0
    7.8320  -14.6271   18.1352 C   0  0  0  0  0  0  0  0  0  0  0  0
    7.0090  -13.6490   18.8856 C   0  0  0  0  0  0  0  0  0  0  0  0
    7.6700  -13.0273   20.0804 C   0  0  2  0  0  0  0  0  0  0  0  0
    9.0644  -12.7425   19.6673 N   0  0  0  0  0  0  0  0  0  0  0  0
    7.7287  -14.0791   21.1634 C   0  0  0  0  0  0  0  0  0  0  0  0
    6.6474  -14.5516   21.5683 O   0  0  0  0  0  0  0  0  0  0  0  0
    8.9531  -14.5314   21.7173 N   0  0  0  0  0  0  0  0  0  0  0  0
    9.0540  -15.4551   22.8191 C   0  0  1  0  0  0  0  0  0  0  0  0
   10.1739  -16.4235   22.5407 C   0  0  0  0  0  0  0  0  0  0  0  0
   10.3244  -17.3748   23.6378 C   0  0  0  0  0  0  0  0  0  0  0  0
   10.1229  -18.5954   23.4345 O   0  0  0  0  0  0  0  0  0  0  0  0
    9.2925  -14.7218   24.1093 C   0  0  0  0  0  0  0  0  0  0  0  0
   10.3770  -14.1104   24.3436 O   0  0  0  0  0  0  0  0  0  0  0  0
   10.6884  -16.9635   24.9160 O   0  0  0  0  0  0  0  0  0  0  0  0
    7.1489  -12.0556   25.6952 C   0  0  0  0  0  0  0  0  0  0  0  0
    7.2528  -13.1717   26.7109 C   0  0  1  0  0  0  0  0  0  0  0  0
    6.1361  -13.9913   26.6385 O   0  0  0  0  0  0  0  0  0  0  0  0
    8.5057  -13.9955   26.3866 C   0  0  2  0  0  0  0  0  0  0  0  0
    8.3095  -14.6784   25.1331 N   0  0  0  0  0  0  0  0  0  0  0  0
    8.8291  -14.9016   27.5014 C   0  0  0  0  0  0  0  0  0  0  0  0
    9.0848  -14.3858   28.7524 O   0  0  0  0  0  0  0  0  0  0  0  0
    8.8703  -16.1311   27.3091 O   0  0  0  0  0  0  0  0  0  0  0  0
  2  3  2  0
  2  1  1  0
  4  2  1  0
  5  4  1  0
  6  5  1  0
  7  6  1  0
  8  7  1  0
  8  9  1  6
 10 12  1  0
 10  8  1  0
 11 10  2  0
 13 12  1  0
 13 14  1  6
 15 19  1  0
 15 14  1  0
 16 15  2  0
 17 24  1  0
 17 13  1  0
 18 17  2  0
 21 20  1  6
 22 21  1  0
 23 25  1  0
 23 21  1  0
 23 24  1  6
 25 26  1  0
 27 25  2  0
M  END
$$$$
