LCL.pdb
     RDKit          3D

 23 22  0  0  1  0  0  0  0  0999 V2000
   28.6036  -19.4141  -15.5917 C   0  0  0  0  0  0  0  0  0  0  0  0
   27.6889  -18.2082  -15.8452 C   0  0  2  0  0  0  0  0  0  0  0  0
   28.5442  -16.9678  -15.8688 C   0  0  0  0  0  0  0  0  0  0  0  0
   26.7285  -18.1582  -14.7078 C   0  0  0  0  0  0  0  0  0  0  0  0
   25.9559  -19.4157  -14.4590 C   0  0  2  0  0  0  0  0  0  0  0  0
   24.8515  -19.5304  -15.3929 N   0  0  0  0  0  0  0  0  0  0  0  0
   25.3757  -19.2992  -13.0881 C   0  0  0  0  0  0  0  0  0  0  0  0
   24.5844  -18.3580  -12.7853 O   0  0  0  0  0  0  0  0  0  0  0  0
   25.6856  -20.2341  -12.0707 N   0  0  0  0  0  0  0  0  0  0  0  0
   25.0242  -20.1430  -10.7860 C   0  0  1  0  0  0  0  0  0  0  0  0
   23.7779  -21.0312  -10.7638 C   0  0  0  0  0  0  0  0  0  0  0  0
   22.9578  -20.9650   -9.1707 S   0  0  0  0  0  0  0  0  0  0  0  0
   25.9363  -20.5897   -9.6852 C   0  0  0  0  0  0  0  0  0  0  0  0
   26.4951  -21.7298   -9.7066 O   0  0  0  0  0  0  0  0  0  0  0  0
   28.6661  -18.1813   -4.6912 C   0  0  0  0  0  0  0  0  0  0  0  0
   28.2103  -19.5129   -5.3199 C   0  0  2  0  0  0  0  0  0  0  0  0
   29.4787  -20.3342   -5.4296 C   0  0  0  0  0  0  0  0  0  0  0  0
   27.6014  -19.1569   -6.6295 C   0  0  0  0  0  0  0  0  0  0  0  0
   26.9393  -20.2565   -7.3793 C   0  0  2  0  0  0  0  0  0  0  0  0
   26.2274  -19.7743   -8.5645 N   0  0  0  0  0  0  0  0  0  0  0  0
   25.9809  -21.0606   -6.5911 C   0  0  0  0  0  0  0  0  0  0  0  0
   26.3361  -22.2148   -5.8867 O   0  0  0  0  0  0  0  0  0  0  0  0
   24.7742  -20.7159   -6.5289 O   0  0  0  0  0  0  0  0  0  0  0  0
  2  3  1  1
  2  1  1  0
  4  2  1  0
  5  7  1  0
  5  4  1  0
  5  6  1  6
  7  8  2  0
  9  7  1  0
  9 10  1  0
 10 11  1  6
 12 11  1  0
 13 20  1  0
 13 10  1  0
 14 13  2  0
 16 15  1  6
 16 17  1  0
 18 16  1  0
 19 20  1  0
 19 18  1  1
 21 22  1  0
 21 19  1  0
 23 21  2  0
M  END
$$$$
