LCL.pdb
     RDKit          3D

 23 22  0  0  1  0  0  0  0  0999 V2000
   20.4660  -19.0581  -15.2960 C   0  0  0  0  0  0  0  0  0  0  0  0
   21.1879  -20.4122  -15.3071 C   0  0  2  0  0  0  0  0  0  0  0  0
   20.2404  -21.4442  -15.8618 C   0  0  0  0  0  0  0  0  0  0  0  0
   21.5271  -20.7234  -13.8905 C   0  0  0  0  0  0  0  0  0  0  0  0
   22.4699  -19.7686  -13.2273 C   0  0  2  0  0  0  0  0  0  0  0  0
   23.4463  -19.2709  -14.1782 N   0  0  0  0  0  0  0  0  0  0  0  0
   23.2090  -20.5463  -12.1889 C   0  0  0  0  0  0  0  0  0  0  0  0
   22.5976  -21.1505  -11.2589 O   0  0  0  0  0  0  0  0  0  0  0  0
   24.6218  -20.6405  -12.1999 N   0  0  0  0  0  0  0  0  0  0  0  0
   25.3004  -21.3802  -11.1565 C   0  0  1  0  0  0  0  0  0  0  0  0
   26.2289  -22.4327  -11.7669 C   0  0  0  0  0  0  0  0  0  0  0  0
   27.5791  -21.6689  -12.6662 S   0  0  0  0  0  0  0  0  0  0  0  0
   26.1263  -20.4648  -10.3063 C   0  0  0  0  0  0  0  0  0  0  0  0
   26.6178  -19.3899  -10.7705 O   0  0  0  0  0  0  0  0  0  0  0  0
   28.1445  -20.1914   -4.4585 C   0  0  0  0  0  0  0  0  0  0  0  0
   28.3838  -19.6356   -5.8762 C   0  0  2  0  0  0  0  0  0  0  0  0
   28.2953  -18.1319   -5.7139 C   0  0  0  0  0  0  0  0  0  0  0  0
   27.3131  -20.2192   -6.7280 C   0  0  0  0  0  0  0  0  0  0  0  0
   27.4906  -20.1005   -8.1991 C   0  0  2  0  0  0  0  0  0  0  0  0
   26.4061  -20.7410   -8.9457 N   0  0  0  0  0  0  0  0  0  0  0  0
   28.7619  -20.6467   -8.7204 C   0  0  0  0  0  0  0  0  0  0  0  0
   29.9009  -19.8691   -8.9499 O   0  0  0  0  0  0  0  0  0  0  0  0
   28.8587  -21.8720   -8.9813 O   0  0  0  0  0  0  0  0  0  0  0  0
  2  3  1  1
  2  1  1  0
  4  2  1  0
  5  7  1  0
  5  4  1  0
  5  6  1  6
  7  8  2  0
  9  7  1  0
  9 10  1  0
 10 11  1  6
 12 11  1  0
 13 20  1  0
 13 10  1  0
 14 13  2  0
 16 15  1  1
 16 17  1  0
 18 16  1  0
 19 20  1  0
 19 18  1  1
 21 22  1  0
 21 19  1  0
 23 21  2  0
M  END
$$$$
