LCL.pdb
     RDKit          3D

 23 22  0  0  1  0  0  0  0  0999 V2000
   23.6014  -20.6279  -10.5884 C   0  0  0  0  0  0  0  0  0  0  0  0
   25.0134  -20.9947  -10.1123 C   0  0  2  0  0  0  0  0  0  0  0  0
   25.5033  -19.8945   -9.2066 C   0  0  0  0  0  0  0  0  0  0  0  0
   25.8627  -21.0828  -11.3327 C   0  0  0  0  0  0  0  0  0  0  0  0
   25.4269  -22.0887  -12.3517 C   0  0  2  0  0  0  0  0  0  0  0  0
   26.2204  -23.2990  -12.2473 N   0  0  0  0  0  0  0  0  0  0  0  0
   25.6972  -21.4877  -13.6916 C   0  0  0  0  0  0  0  0  0  0  0  0
   26.8236  -20.9808  -13.9713 O   0  0  0  0  0  0  0  0  0  0  0  0
   24.7073  -21.4587  -14.7038 N   0  0  0  0  0  0  0  0  0  0  0  0
   25.0715  -21.0832  -16.0538 C   0  0  1  0  0  0  0  0  0  0  0  0
   24.8137  -22.2436  -17.0179 C   0  0  0  0  0  0  0  0  0  0  0  0
   24.0299  -23.6235  -16.1833 S   0  0  0  0  0  0  0  0  0  0  0  0
   24.2679  -19.9059  -16.5136 C   0  0  0  0  0  0  0  0  0  0  0  0
   23.1367  -19.6339  -16.0047 O   0  0  0  0  0  0  0  0  0  0  0  0
   22.9303  -15.9664  -20.0951 C   0  0  0  0  0  0  0  0  0  0  0  0
   24.1204  -15.6496  -19.1681 C   0  0  2  0  0  0  0  0  0  0  0  0
   25.0033  -14.7289  -19.9856 C   0  0  0  0  0  0  0  0  0  0  0  0
   24.7441  -16.9607  -18.8444 C   0  0  0  0  0  0  0  0  0  0  0  0
   23.9292  -17.9072  -18.0384 C   0  0  2  0  0  0  0  0  0  0  0  0
   24.7176  -19.0336  -17.5346 N   0  0  0  0  0  0  0  0  0  0  0  0
   22.7562  -18.4734  -18.7381 C   0  0  0  0  0  0  0  0  0  0  0  0
   21.4389  -18.0837  -18.4786 O   0  0  0  0  0  0  0  0  0  0  0  0
   22.9160  -19.3540  -19.6202 O   0  0  0  0  0  0  0  0  0  0  0  0
  2  3  1  1
  2  1  1  0
  4  2  1  0
  5  7  1  0
  5  4  1  0
  5  6  1  1
  7  8  2  0
  9  7  1  0
  9 10  1  0
 10 11  1  6
 12 11  1  0
 13 20  1  0
 13 10  1  0
 14 13  2  0
 16 15  1  6
 16 17  1  0
 18 16  1  0
 19 20  1  0
 19 18  1  6
 21 22  1  0
 21 19  1  0
 23 21  2  0
M  END
$$$$
