LCL.pdb
     RDKit          3D

 23 22  0  0  1  0  0  0  0  0999 V2000
   27.7239  -20.6304  -16.1970 C   0  0  0  0  0  0  0  0  0  0  0  0
   26.2610  -20.1785  -16.0931 C   0  0  2  0  0  0  0  0  0  0  0  0
   26.0623  -19.0145  -17.0293 C   0  0  0  0  0  0  0  0  0  0  0  0
   26.0475  -19.7547  -14.6813 C   0  0  0  0  0  0  0  0  0  0  0  0
   26.5171  -20.7208  -13.6389 C   0  0  2  0  0  0  0  0  0  0  0  0
   25.8291  -21.9912  -13.7723 N   0  0  0  0  0  0  0  0  0  0  0  0
   26.1398  -20.1415  -12.3154 C   0  0  0  0  0  0  0  0  0  0  0  0
   26.2691  -18.9046  -12.0765 O   0  0  0  0  0  0  0  0  0  0  0  0
   25.6230  -20.9494  -11.2735 N   0  0  0  0  0  0  0  0  0  0  0  0
   25.2539  -20.3440  -10.0112 C   0  0  1  0  0  0  0  0  0  0  0  0
   23.8552  -20.8006   -9.5896 C   0  0  0  0  0  0  0  0  0  0  0  0
   22.6281  -20.3680  -10.8234 S   0  0  0  0  0  0  0  0  0  0  0  0
   26.2176  -20.7330   -8.9326 C   0  0  0  0  0  0  0  0  0  0  0  0
   26.6395  -21.9251   -8.8169 O   0  0  0  0  0  0  0  0  0  0  0  0
   29.2309  -17.9656   -4.2678 C   0  0  0  0  0  0  0  0  0  0  0  0
   28.6863  -19.3214   -4.7589 C   0  0  2  0  0  0  0  0  0  0  0  0
   29.9027  -20.2232   -4.8088 C   0  0  0  0  0  0  0  0  0  0  0  0
   28.0716  -19.0558   -6.0871 C   0  0  0  0  0  0  0  0  0  0  0  0
   27.3736  -20.1943   -6.7399 C   0  0  2  0  0  0  0  0  0  0  0  0
   26.7113  -19.8028   -7.9858 N   0  0  0  0  0  0  0  0  0  0  0  0
   26.3609  -20.8697   -5.9005 C   0  0  0  0  0  0  0  0  0  0  0  0
   25.0377  -20.4338   -5.7845 O   0  0  0  0  0  0  0  0  0  0  0  0
   26.6726  -21.8943   -5.2431 O   0  0  0  0  0  0  0  0  0  0  0  0
  2  3  1  6
  2  1  1  0
  4  2  1  0
  5  7  1  0
  5  4  1  0
  5  6  1  6
  7  8  2  0
  9  7  1  0
  9 10  1  0
 10 11  1  1
 12 11  1  0
 13 20  1  0
 13 10  1  0
 14 13  2  0
 16 15  1  6
 16 17  1  0
 18 16  1  0
 19 20  1  0
 19 18  1  1
 21 22  1  0
 21 19  1  0
 23 21  2  0
M  END
$$$$
