LCL.pdb
     RDKit          3D

 23 22  0  0  1  0  0  0  0  0999 V2000
   15.3132  -15.6542  -15.2554 C   0  0  0  0  0  0  0  0  0  0  0  0
   16.6578  -15.7186  -15.9921 C   0  0  2  0  0  0  0  0  0  0  0  0
   17.6338  -16.4677  -15.1220 C   0  0  0  0  0  0  0  0  0  0  0  0
   17.1040  -14.3106  -16.1839 C   0  0  0  0  0  0  0  0  0  0  0  0
   16.2044  -13.4562  -17.0212 C   0  0  2  0  0  0  0  0  0  0  0  0
   16.1506  -13.9524  -18.3836 N   0  0  0  0  0  0  0  0  0  0  0  0
   16.8190  -12.0961  -17.0616 C   0  0  0  0  0  0  0  0  0  0  0  0
   17.6754  -11.7858  -17.9414 O   0  0  0  0  0  0  0  0  0  0  0  0
   16.4712  -11.0978  -16.1194 N   0  0  0  0  0  0  0  0  0  0  0  0
   16.9837   -9.7528  -16.2760 C   0  0  1  0  0  0  0  0  0  0  0  0
   15.9059   -8.7266  -15.9184 C   0  0  0  0  0  0  0  0  0  0  0  0
   15.1552   -9.0945  -14.3321 S   0  0  0  0  0  0  0  0  0  0  0  0
   18.1620   -9.5247  -15.3800 C   0  0  0  0  0  0  0  0  0  0  0  0
   18.3423  -10.2162  -14.3304 O   0  0  0  0  0  0  0  0  0  0  0  0
   23.6611  -10.1942  -15.0553 C   0  0  0  0  0  0  0  0  0  0  0  0
   22.6917   -9.1771  -14.4213 C   0  0  2  0  0  0  0  0  0  0  0  0
   22.5853   -9.6069  -12.9724 C   0  0  0  0  0  0  0  0  0  0  0  0
   21.4210   -9.2955  -15.1854 C   0  0  0  0  0  0  0  0  0  0  0  0
   20.3376   -8.3411  -14.8320 C   0  0  2  0  0  0  0  0  0  0  0  0
   19.1367   -8.5328  -15.6476 N   0  0  0  0  0  0  0  0  0  0  0  0
   20.7078   -6.9129  -14.9285 C   0  0  0  0  0  0  0  0  0  0  0  0
   21.3917   -6.2220  -13.9238 O   0  0  0  0  0  0  0  0  0  0  0  0
   20.4076   -6.2545  -15.9558 O   0  0  0  0  0  0  0  0  0  0  0  0
  2  3  1  1
  2  1  1  0
  4  2  1  0
  5  7  1  0
  5  4  1  0
  5  6  1  6
  7  8  2  0
  9  7  1  0
  9 10  1  0
 10 11  1  1
 12 11  1  0
 13 20  1  0
 13 10  1  0
 14 13  2  0
 16 15  1  6
 16 17  1  0
 18 16  1  0
 19 20  1  0
 19 18  1  6
 21 22  1  0
 21 19  1  0
 23 21  2  0
M  END
$$$$
