LCL.pdb
     RDKit          3D

 23 22  0  0  1  0  0  0  0  0999 V2000
   30.3068  -17.4375  -18.8743 C   0  0  0  0  0  0  0  0  0  0  0  0
   29.0112  -16.6150  -18.8734 C   0  0  2  0  0  0  0  0  0  0  0  0
   29.3642  -15.1839  -19.1864 C   0  0  0  0  0  0  0  0  0  0  0  0
   28.4410  -16.7237  -17.5018 C   0  0  0  0  0  0  0  0  0  0  0  0
   28.1712  -18.1158  -17.0228 C   0  0  2  0  0  0  0  0  0  0  0  0
   27.8484  -18.9865  -18.1376 N   0  0  0  0  0  0  0  0  0  0  0  0
   26.9653  -18.0421  -16.1454 C   0  0  0  0  0  0  0  0  0  0  0  0
   26.9460  -17.3102  -15.1121 O   0  0  0  0  0  0  0  0  0  0  0  0
   25.7949  -18.7862  -16.4311 N   0  0  0  0  0  0  0  0  0  0  0  0
   24.6445  -18.6783  -15.5586 C   0  0  1  0  0  0  0  0  0  0  0  0
   23.3499  -18.8000  -16.3658 C   0  0  0  0  0  0  0  0  0  0  0  0
   21.9234  -18.9596  -15.2912 S   0  0  0  0  0  0  0  0  0  0  0  0
   24.6558  -19.7637  -14.5266 C   0  0  0  0  0  0  0  0  0  0  0  0
   24.7585  -20.9873  -14.8502 O   0  0  0  0  0  0  0  0  0  0  0  0
   23.7844  -21.2463   -9.2554 C   0  0  0  0  0  0  0  0  0  0  0  0
   25.2305  -21.1767   -9.7846 C   0  0  2  0  0  0  0  0  0  0  0  0
   26.0559  -20.7719   -8.5804 C   0  0  0  0  0  0  0  0  0  0  0  0
   25.2153  -20.1682  -10.8780 C   0  0  0  0  0  0  0  0  0  0  0  0
   24.4819  -20.5374  -12.1171 C   0  0  2  0  0  0  0  0  0  0  0  0
   24.5533  -19.4924  -13.1404 N   0  0  0  0  0  0  0  0  0  0  0  0
   23.0524  -20.8618  -11.9232 C   0  0  0  0  0  0  0  0  0  0  0  0
   22.5579  -22.1680  -11.8602 O   0  0  0  0  0  0  0  0  0  0  0  0
   22.2094  -19.9377  -11.8040 O   0  0  0  0  0  0  0  0  0  0  0  0
  2  3  1  1
  2  1  1  0
  4  2  1  0
  5  7  1  0
  5  4  1  0
  5  6  1  6
  7  8  2  0
  9  7  1  0
  9 10  1  0
 10 11  1  6
 12 11  1  0
 13 20  1  0
 13 10  1  0
 14 13  2  0
 16 15  1  1
 16 17  1  0
 18 16  1  0
 19 20  1  0
 19 18  1  1
 21 22  1  0
 21 19  1  0
 23 21  2  0
M  END
$$$$
