LCL.pdb
     RDKit          3D

 23 22  0  0  1  0  0  0  0  0999 V2000
   19.9757  -19.2307  -13.1464 C   0  0  0  0  0  0  0  0  0  0  0  0
   20.6161  -20.6222  -13.0535 C   0  0  2  0  0  0  0  0  0  0  0  0
   19.5133  -21.6487  -13.0806 C   0  0  0  0  0  0  0  0  0  0  0  0
   21.3408  -20.6693  -11.7531 C   0  0  0  0  0  0  0  0  0  0  0  0
   22.4728  -19.7008  -11.6089 C   0  0  2  0  0  0  0  0  0  0  0  0
   22.9959  -19.3286  -12.9100 N   0  0  0  0  0  0  0  0  0  0  0  0
   23.5589  -20.4156  -10.8749 C   0  0  0  0  0  0  0  0  0  0  0  0
   23.3304  -21.0216   -9.7866 O   0  0  0  0  0  0  0  0  0  0  0  0
   24.8876  -20.4456  -11.3635 N   0  0  0  0  0  0  0  0  0  0  0  0
   25.9161  -21.1274  -10.6060 C   0  0  1  0  0  0  0  0  0  0  0  0
   27.0694  -21.5395  -11.5239 C   0  0  0  0  0  0  0  0  0  0  0  0
   28.4934  -22.0825  -10.5790 S   0  0  0  0  0  0  0  0  0  0  0  0
   26.4664  -20.2369   -9.5348 C   0  0  0  0  0  0  0  0  0  0  0  0
   26.4942  -18.9745   -9.6694 O   0  0  0  0  0  0  0  0  0  0  0  0
   28.1206  -20.0807   -3.7624 C   0  0  0  0  0  0  0  0  0  0  0  0
   28.2825  -19.2588   -5.0563 C   0  0  2  0  0  0  0  0  0  0  0  0
   27.8852  -17.8505   -4.6633 C   0  0  0  0  0  0  0  0  0  0  0  0
   27.3779  -19.8894   -6.0546 C   0  0  0  0  0  0  0  0  0  0  0  0
   27.8867  -19.9897   -7.4477 C   0  0  2  0  0  0  0  0  0  0  0  0
   26.9842  -20.7453   -8.3186 N   0  0  0  0  0  0  0  0  0  0  0  0
   29.2294  -20.5946   -7.5798 C   0  0  0  0  0  0  0  0  0  0  0  0
   29.4440  -21.9549   -7.8208 O   0  0  0  0  0  0  0  0  0  0  0  0
   30.2548  -19.8758   -7.4761 O   0  0  0  0  0  0  0  0  0  0  0  0
  2  3  1  1
  2  1  1  0
  4  2  1  0
  5  7  1  0
  5  4  1  0
  5  6  1  6
  7  8  2  0
  9  7  1  0
  9 10  1  0
 10 11  1  6
 12 11  1  0
 13 20  1  0
 13 10  1  0
 14 13  2  0
 16 15  1  1
 16 17  1  0
 18 16  1  0
 19 20  1  0
 19 18  1  1
 21 22  1  0
 21 19  1  0
 23 21  2  0
M  END
$$$$
