LCL.pdb
     RDKit          3D

 23 22  0  0  1  0  0  0  0  0999 V2000
   34.5700  -37.5080   -5.5337 C   0  0  0  0  0  0  0  0  0  0  0  0
   34.9629  -36.0335   -5.6960 C   0  0  2  0  0  0  0  0  0  0  0  0
   36.3056  -35.8314   -5.0424 C   0  0  0  0  0  0  0  0  0  0  0  0
   33.9170  -35.2366   -4.9964 C   0  0  0  0  0  0  0  0  0  0  0  0
   32.5403  -35.3268   -5.5767 C   0  0  2  0  0  0  0  0  0  0  0  0
   32.4323  -34.5041   -6.7670 N   0  0  0  0  0  0  0  0  0  0  0  0
   31.6061  -34.7659   -4.5558 C   0  0  0  0  0  0  0  0  0  0  0  0
   31.3347  -33.5295   -4.5197 O   0  0  0  0  0  0  0  0  0  0  0  0
   30.9860  -35.5913   -3.5866 N   0  0  0  0  0  0  0  0  0  0  0  0
   30.0699  -35.0095   -2.6281 C   0  0  1  0  0  0  0  0  0  0  0  0
   28.6678  -34.8968   -3.2313 C   0  0  0  0  0  0  0  0  0  0  0  0
   27.5310  -34.1008   -2.0959 S   0  0  0  0  0  0  0  0  0  0  0  0
   29.9818  -35.8552   -1.3952 C   0  0  0  0  0  0  0  0  0  0  0  0
   29.7336  -37.0989   -1.4588 O   0  0  0  0  0  0  0  0  0  0  0  0
   32.5646  -37.2948    2.2089 C   0  0  0  0  0  0  0  0  0  0  0  0
   32.3173  -35.7761    2.1172 C   0  0  2  0  0  0  0  0  0  0  0  0
   33.1149  -35.1920    3.2653 C   0  0  0  0  0  0  0  0  0  0  0  0
   30.8464  -35.5951    2.2447 C   0  0  0  0  0  0  0  0  0  0  0  0
   30.0107  -36.1100    1.1284 C   0  0  2  0  0  0  0  0  0  0  0  0
   30.1685  -35.3229   -0.0962 N   0  0  0  0  0  0  0  0  0  0  0  0
   28.5624  -36.1849    1.4161 C   0  0  0  0  0  0  0  0  0  0  0  0
   27.5865  -35.5521    0.6403 O   0  0  0  0  0  0  0  0  0  0  0  0
   28.1516  -36.8451    2.4031 O   0  0  0  0  0  0  0  0  0  0  0  0
  2  3  1  1
  2  1  1  0
  4  2  1  0
  5  7  1  0
  5  4  1  0
  5  6  1  6
  7  8  2  0
  9  7  1  0
  9 10  1  0
 10 11  1  6
 12 11  1  0
 13 20  1  0
 13 10  1  0
 14 13  2  0
 16 15  1  1
 16 17  1  0
 18 16  1  0
 19 20  1  0
 19 18  1  1
 21 22  1  0
 21 19  1  0
 23 21  2  0
M  END
$$$$
