LCL.pdb
     RDKit          3D

 23 22  0  0  1  0  0  0  0  0999 V2000
   19.1854  -17.3737  -17.9674 C   0  0  0  0  0  0  0  0  0  0  0  0
   18.2086  -16.5022  -18.7684 C   0  0  2  0  0  0  0  0  0  0  0  0
   18.2679  -16.9355  -20.2104 C   0  0  0  0  0  0  0  0  0  0  0  0
   18.6801  -15.0965  -18.6262 C   0  0  0  0  0  0  0  0  0  0  0  0
   18.6414  -14.5395  -17.2375 C   0  0  2  0  0  0  0  0  0  0  0  0
   17.3759  -14.8477  -16.5982 N   0  0  0  0  0  0  0  0  0  0  0  0
   18.7300  -13.0547  -17.3676 C   0  0  0  0  0  0  0  0  0  0  0  0
   19.3535  -12.5135  -18.3280 O   0  0  0  0  0  0  0  0  0  0  0  0
   18.1223  -12.1909  -16.4244 N   0  0  0  0  0  0  0  0  0  0  0  0
   18.1630  -10.7586  -16.6318 C   0  0  1  0  0  0  0  0  0  0  0  0
   16.7569  -10.1639  -16.5230 C   0  0  0  0  0  0  0  0  0  0  0  0
   15.4996  -11.3929  -16.8754 S   0  0  0  0  0  0  0  0  0  0  0  0
   19.0310  -10.0969  -15.6062 C   0  0  0  0  0  0  0  0  0  0  0  0
   18.7591  -10.1566  -14.3673 O   0  0  0  0  0  0  0  0  0  0  0  0
   22.9887  -10.9041  -13.9597 C   0  0  0  0  0  0  0  0  0  0  0  0
   23.0219  -10.3632  -15.4027 C   0  0  2  0  0  0  0  0  0  0  0  0
   24.4727  -10.4880  -15.8212 C   0  0  0  0  0  0  0  0  0  0  0  0
   22.5305   -8.9615  -15.3231 C   0  0  0  0  0  0  0  0  0  0  0  0
   21.0993   -8.7745  -14.9678 C   0  0  2  0  0  0  0  0  0  0  0  0
   20.1966   -9.3717  -15.9540 N   0  0  0  0  0  0  0  0  0  0  0  0
   20.6798   -7.3683  -14.7867 C   0  0  0  0  0  0  0  0  0  0  0  0
   19.7978   -6.7079  -15.6472 O   0  0  0  0  0  0  0  0  0  0  0  0
   21.1202   -6.7016  -13.8169 O   0  0  0  0  0  0  0  0  0  0  0  0
  2  3  1  6
  2  1  1  0
  4  2  1  0
  5  7  1  0
  5  4  1  0
  5  6  1  6
  7  8  2  0
  9  7  1  0
  9 10  1  0
 10 11  1  1
 12 11  1  0
 13 20  1  0
 13 10  1  0
 14 13  2  0
 16 15  1  1
 16 17  1  0
 18 16  1  0
 19 20  1  0
 19 18  1  6
 21 22  1  0
 21 19  1  0
 23 21  2  0
M  END
$$$$
