LCL.pdb
     RDKit          3D

 23 22  0  0  1  0  0  0  0  0999 V2000
   28.5573  -18.6054  -16.8740 C   0  0  0  0  0  0  0  0  0  0  0  0
   27.7670  -17.3327  -16.5409 C   0  0  2  0  0  0  0  0  0  0  0  0
   28.7532  -16.2297  -16.2555 C   0  0  0  0  0  0  0  0  0  0  0  0
   26.9616  -17.6397  -15.3262 C   0  0  0  0  0  0  0  0  0  0  0  0
   26.0235  -18.7994  -15.4492 C   0  0  2  0  0  0  0  0  0  0  0  0
   24.9842  -18.5154  -16.4210 N   0  0  0  0  0  0  0  0  0  0  0  0
   25.3640  -18.9615  -14.1194 C   0  0  0  0  0  0  0  0  0  0  0  0
   24.6827  -18.0269  -13.6036 O   0  0  0  0  0  0  0  0  0  0  0  0
   25.4728  -20.1644  -13.3804 N   0  0  0  0  0  0  0  0  0  0  0  0
   24.7239  -20.3225  -12.1514 C   0  0  1  0  0  0  0  0  0  0  0  0
   23.7053  -21.4564  -12.2899 C   0  0  0  0  0  0  0  0  0  0  0  0
   22.7605  -21.6727  -10.7813 S   0  0  0  0  0  0  0  0  0  0  0  0
   25.6369  -20.6509  -11.0105 C   0  0  0  0  0  0  0  0  0  0  0  0
   26.5527  -21.5234  -11.1222 O   0  0  0  0  0  0  0  0  0  0  0  0
   27.9813  -18.3962   -5.8961 C   0  0  0  0  0  0  0  0  0  0  0  0
   27.6662  -19.7315   -6.5986 C   0  0  2  0  0  0  0  0  0  0  0  0
   29.0216  -20.3687   -6.8275 C   0  0  0  0  0  0  0  0  0  0  0  0
   26.9441  -19.3730   -7.8487 C   0  0  0  0  0  0  0  0  0  0  0  0
   26.2386  -20.4759   -8.5525 C   0  0  2  0  0  0  0  0  0  0  0  0
   25.5341  -20.0136   -9.7500 N   0  0  0  0  0  0  0  0  0  0  0  0
   25.2597  -21.2168   -7.7285 C   0  0  0  0  0  0  0  0  0  0  0  0
   25.6205  -22.1490   -6.7511 O   0  0  0  0  0  0  0  0  0  0  0  0
   24.0288  -21.0217   -7.8888 O   0  0  0  0  0  0  0  0  0  0  0  0
  2  3  1  1
  2  1  1  0
  4  2  1  0
  5  7  1  0
  5  4  1  0
  5  6  1  6
  7  8  2  0
  9  7  1  0
  9 10  1  0
 10 11  1  6
 12 11  1  0
 13 20  1  0
 13 10  1  0
 14 13  2  0
 16 15  1  1
 16 17  1  0
 18 16  1  0
 19 20  1  0
 19 18  1  1
 21 22  1  0
 21 19  1  0
 23 21  2  0
M  END
$$$$
