LCL.pdb
     RDKit          3D

 23 22  0  0  1  0  0  0  0  0999 V2000
   18.0269  -11.8625  -17.1077 C   0  0  0  0  0  0  0  0  0  0  0  0
   18.9105  -12.0101  -15.8617 C   0  0  2  0  0  0  0  0  0  0  0  0
   18.2267  -12.9591  -14.9117 C   0  0  0  0  0  0  0  0  0  0  0  0
   19.0192  -10.6537  -15.2560 C   0  0  0  0  0  0  0  0  0  0  0  0
   19.6154   -9.5995  -16.1355 C   0  0  2  0  0  0  0  0  0  0  0  0
   20.9832   -9.9369  -16.4827 N   0  0  0  0  0  0  0  0  0  0  0  0
   19.6522   -8.3409  -15.3328 C   0  0  0  0  0  0  0  0  0  0  0  0
   18.6073   -7.8747  -14.7902 O   0  0  0  0  0  0  0  0  0  0  0  0
   20.8547   -7.6169  -15.1454 N   0  0  0  0  0  0  0  0  0  0  0  0
   20.8430   -6.3936  -14.3711 C   0  0  1  0  0  0  0  0  0  0  0  0
   22.2405   -6.0969  -13.8219 C   0  0  0  0  0  0  0  0  0  0  0  0
   22.2945   -4.5034  -13.0015 S   0  0  0  0  0  0  0  0  0  0  0  0
   20.4168   -5.2330  -15.2164 C   0  0  0  0  0  0  0  0  0  0  0  0
   20.8994   -5.0424  -16.3754 O   0  0  0  0  0  0  0  0  0  0  0  0
   15.6700   -1.4781  -15.9448 C   0  0  0  0  0  0  0  0  0  0  0  0
   17.1386   -1.7066  -16.3533 C   0  0  2  0  0  0  0  0  0  0  0  0
   17.0706   -2.0803  -17.8200 C   0  0  0  0  0  0  0  0  0  0  0  0
   17.6415   -2.7940  -15.4716 C   0  0  0  0  0  0  0  0  0  0  0  0
   19.0962   -3.0918  -15.5415 C   0  0  2  0  0  0  0  0  0  0  0  0
   19.4587   -4.2870  -14.7773 N   0  0  0  0  0  0  0  0  0  0  0  0
   19.9799   -1.9974  -15.0860 C   0  0  0  0  0  0  0  0  0  0  0  0
   20.6470   -1.1297  -15.9558 O   0  0  0  0  0  0  0  0  0  0  0  0
   20.1629   -1.8083  -13.8573 O   0  0  0  0  0  0  0  0  0  0  0  0
  2  3  1  1
  2  1  1  0
  4  2  1  0
  5  7  1  0
  5  4  1  0
  5  6  1  1
  7  8  2  0
  9  7  1  0
  9 10  1  0
 10 11  1  6
 12 11  1  0
 13 20  1  0
 13 10  1  0
 14 13  2  0
 16 15  1  1
 16 17  1  0
 18 16  1  0
 19 20  1  0
 19 18  1  1
 21 22  1  0
 21 19  1  0
 23 21  2  0
M  END
$$$$
