LCL.pdb
     RDKit          3D

 23 22  0  0  1  0  0  0  0  0999 V2000
   22.5944  -13.9808  -21.2384 C   0  0  0  0  0  0  0  0  0  0  0  0
   23.4862  -14.4881  -20.0971 C   0  0  2  0  0  0  0  0  0  0  0  0
   22.7167  -15.5314  -19.3291 C   0  0  0  0  0  0  0  0  0  0  0  0
   23.7768  -13.3115  -19.2313 C   0  0  0  0  0  0  0  0  0  0  0  0
   24.4852  -12.1758  -19.9010 C   0  0  2  0  0  0  0  0  0  0  0  0
   25.8873  -12.4929  -20.0981 N   0  0  0  0  0  0  0  0  0  0  0  0
   24.4137  -11.0138  -18.9661 C   0  0  0  0  0  0  0  0  0  0  0  0
   25.2389  -10.8818  -18.0146 O   0  0  0  0  0  0  0  0  0  0  0  0
   23.4219  -10.0125  -19.1036 N   0  0  0  0  0  0  0  0  0  0  0  0
   23.4733   -8.8312  -18.2680 C   0  0  1  0  0  0  0  0  0  0  0  0
   23.2306   -7.5740  -19.1065 C   0  0  0  0  0  0  0  0  0  0  0  0
   21.6735   -7.6697  -19.9904 S   0  0  0  0  0  0  0  0  0  0  0  0
   22.4259   -8.8896  -17.1990 C   0  0  0  0  0  0  0  0  0  0  0  0
   21.3074   -9.4581  -17.3950 O   0  0  0  0  0  0  0  0  0  0  0  0
   22.0444   -9.3914  -11.2425 C   0  0  0  0  0  0  0  0  0  0  0  0
   21.1887   -8.9273  -12.4377 C   0  0  2  0  0  0  0  0  0  0  0  0
   20.0183   -9.8890  -12.4622 C   0  0  0  0  0  0  0  0  0  0  0  0
   22.0735   -9.0161  -13.6301 C   0  0  0  0  0  0  0  0  0  0  0  0
   21.6005   -8.3372  -14.8650 C   0  0  2  0  0  0  0  0  0  0  0  0
   22.6186   -8.3193  -15.9172 N   0  0  0  0  0  0  0  0  0  0  0  0
   21.1438   -6.9438  -14.6753 C   0  0  0  0  0  0  0  0  0  0  0  0
   19.8224   -6.5971  -14.3780 O   0  0  0  0  0  0  0  0  0  0  0  0
   21.9616   -5.9954  -14.7790 O   0  0  0  0  0  0  0  0  0  0  0  0
  2  3  1  1
  2  1  1  0
  4  2  1  0
  5  7  1  0
  5  4  1  0
  5  6  1  1
  7  8  2  0
  9  7  1  0
  9 10  1  0
 10 11  1  6
 12 11  1  0
 13 20  1  0
 13 10  1  0
 14 13  2  0
 16 15  1  1
 16 17  1  0
 18 16  1  0
 19 20  1  0
 19 18  1  1
 21 22  1  0
 21 19  1  0
 23 21  2  0
M  END
$$$$
