RQF.pdb
     RDKit          3D

 32 32  0  0  1  0  0  0  0  0999 V2000
    8.6259  -13.1786   14.1653 N   0  0  0  0  0  0  0  0  0  0  0  0
    8.0775  -14.4744   14.3377 C   0  0  0  0  0  0  0  0  0  0  0  0
    7.7372  -15.1279   13.2769 N   0  0  0  0  0  0  0  0  0  0  0  0
    7.8997  -15.0724   15.6259 N   0  0  0  0  0  0  0  0  0  0  0  0
    8.5282  -14.5455   16.8058 C   0  0  0  0  0  0  0  0  0  0  0  0
    7.6597  -13.6669   17.6550 C   0  0  0  0  0  0  0  0  0  0  0  0
    7.2223  -14.2563   18.9495 C   0  0  0  0  0  0  0  0  0  0  0  0
    8.1287  -13.8588   20.1012 C   0  0  2  0  0  0  0  0  0  0  0  0
    9.3728  -13.3238   19.6705 N   0  0  0  0  0  0  0  0  0  0  0  0
    8.2105  -15.0062   21.0238 C   0  0  0  0  0  0  0  0  0  0  0  0
    7.1252  -15.5314   21.3804 O   0  0  0  0  0  0  0  0  0  0  0  0
    7.2998  -16.0629   13.3754 N   0  0  0  0  0  0  0  0  0  0  0  0
   10.6798  -19.7901   18.8409 C   0  0  0  0  0  0  0  0  0  0  0  0
   10.7965  -19.5268   20.2369 O   0  0  0  0  0  0  0  0  0  0  0  0
   11.7017  -20.1341   20.8883 C   0  0  0  0  0  0  0  0  0  0  0  0
    9.8781  -18.5754   20.8681 C   0  0  0  0  0  0  0  0  0  0  0  0
   10.4968  -17.5997   21.7993 C   0  0  2  0  0  0  0  0  0  0  0  0
    9.5280  -16.6053   22.3616 N   0  0  0  0  0  0  0  0  0  0  0  0
    9.4555  -15.4702   21.4684 C   0  0  0  0  0  0  0  0  0  0  0  0
    9.9782  -16.0376   23.6771 O   0  0  0  0  0  0  0  0  0  0  0  0
   10.9539  -15.2542   23.6805 N   0  0  0  0  0  0  0  0  0  0  0  0
    9.3650  -16.3353   24.9085 C   0  0  1  0  0  0  0  0  0  0  0  0
    9.8667  -15.8121   26.1740 C   0  0  0  0  0  0  0  0  0  0  0  0
   10.0701  -14.3202   26.1034 C   0  0  0  0  0  0  0  0  0  0  0  0
    8.7180  -13.6751   26.1178 C   0  0  0  0  0  0  0  0  0  0  0  0
    8.1578  -13.1798   27.2729 C   0  0  0  0  0  0  0  0  0  0  0  0
    6.9159  -12.5705   27.3265 C   0  0  0  0  0  0  0  0  0  0  0  0
    6.1930  -12.4508   26.1508 C   0  0  0  0  0  0  0  0  0  0  0  0
    6.7494  -12.9468   24.9829 C   0  0  0  0  0  0  0  0  0  0  0  0
    7.9839  -13.5493   24.9478 C   0  0  0  0  0  0  0  0  0  0  0  0
    9.0738  -16.2662   27.3156 O   0  0  0  0  0  0  0  0  0  0  0  0
    7.9899  -16.8572   27.0832 O   0  0  0  0  0  0  0  0  0  0  0  0
  2  3  2  0
  2  1  1  0
  4  2  1  0
  5  4  1  0
  6  5  1  0
  7  6  1  0
  8  9  1  6
  8  7  1  0
 10 18  1  0
 10  8  1  0
 11 10  2  0
 13 12  1  0
 14 13  2  0
 15 13  1  0
 16 15  1  0
 17 18  1  0
 17 16  1  6
 19 17  1  0
 20 19  2  0
 21 19  1  0
 22 23  1  1
 22 21  1  0
 23 24  1  0
 24 25  2  0
 25 26  1  0
 27 26  2  0
 28 27  1  0
 29 24  1  0
 29 28  2  0
 30 32  1  0
 30 22  1  0
 31 30  2  0
M  END
$$$$
