RQF.pdb
     RDKit          3D

 32 32  0  0  1  0  0  0  0  0999 V2000
    5.8470  -22.0311   27.2327 N   0  0  0  0  0  0  0  0  0  0  0  0
    5.3958  -22.1973   25.8991 C   0  0  0  0  0  0  0  0  0  0  0  0
    4.8912  -23.3411   25.5746 N   0  0  0  0  0  0  0  0  0  0  0  0
    5.4737  -21.1543   24.9220 N   0  0  0  0  0  0  0  0  0  0  0  0
    6.2756  -21.2773   23.7360 C   0  0  0  0  0  0  0  0  0  0  0  0
    7.3180  -20.2151   23.5557 C   0  0  0  0  0  0  0  0  0  0  0  0
    6.9606  -19.1189   22.6149 C   0  0  0  0  0  0  0  0  0  0  0  0
    7.9506  -18.9940   21.4702 C   0  0  2  0  0  0  0  0  0  0  0  0
    8.1041  -20.1996   20.7338 N   0  0  0  0  0  0  0  0  0  0  0  0
    9.1925  -18.4132   22.0133 C   0  0  0  0  0  0  0  0  0  0  0  0
   10.1334  -19.2085   22.2644 O   0  0  0  0  0  0  0  0  0  0  0  0
    4.7022  -23.5475   24.5761 N   0  0  0  0  0  0  0  0  0  0  0  0
   13.4487  -14.0072   21.2757 C   0  0  0  0  0  0  0  0  0  0  0  0
   12.4429  -14.3339   20.3198 O   0  0  0  0  0  0  0  0  0  0  0  0
   12.4656  -13.7395   19.1980 C   0  0  0  0  0  0  0  0  0  0  0  0
   11.4264  -15.3334   20.6593 C   0  0  0  0  0  0  0  0  0  0  0  0
   10.7750  -15.1698   21.9823 C   0  0  2  0  0  0  0  0  0  0  0  0
   10.5360  -16.4624   22.7005 N   0  0  0  0  0  0  0  0  0  0  0  0
    9.2928  -17.0327   22.2305 C   0  0  0  0  0  0  0  0  0  0  0  0
   10.3456  -16.2776   24.1786 O   0  0  0  0  0  0  0  0  0  0  0  0
   11.3023  -15.8253   24.8464 N   0  0  0  0  0  0  0  0  0  0  0  0
    9.1513  -16.5833   24.8578 C   0  0  1  0  0  0  0  0  0  0  0  0
    9.0191  -16.4382   26.3029 C   0  0  0  0  0  0  0  0  0  0  0  0
    7.6325  -15.9822   26.6792 C   0  0  0  0  0  0  0  0  0  0  0  0
    7.4556  -14.5875   26.1614 C   0  0  0  0  0  0  0  0  0  0  0  0
    6.9245  -14.3324   24.9180 C   0  0  0  0  0  0  0  0  0  0  0  0
    6.7379  -13.0594   24.4069 C   0  0  0  0  0  0  0  0  0  0  0  0
    7.1060  -11.9778   25.1904 C   0  0  0  0  0  0  0  0  0  0  0  0
    7.6417  -12.2254   26.4439 C   0  0  0  0  0  0  0  0  0  0  0  0
    7.8204  -13.4960   26.9356 C   0  0  0  0  0  0  0  0  0  0  0  0
    9.4895  -17.6196   27.0247 O   0  0  0  0  0  0  0  0  0  0  0  0
    9.8036  -18.6343   26.3539 O   0  0  0  0  0  0  0  0  0  0  0  0
  2  3  2  0
  2  1  1  0
  4  2  1  0
  5  4  1  0
  6  5  1  0
  7  6  1  0
  8  9  1  1
  8  7  1  0
 10 18  1  0
 10  8  1  0
 11 10  2  0
 13 12  1  0
 14 13  2  0
 15 13  1  0
 16 15  1  0
 17 18  1  0
 17 16  1  6
 19 17  1  0
 20 19  2  0
 21 19  1  0
 22 23  1  1
 22 21  1  0
 23 24  1  0
 24 25  2  0
 25 26  1  0
 27 26  2  0
 28 27  1  0
 29 24  1  0
 29 28  2  0
 30 32  1  0
 30 22  1  0
 31 30  2  0
M  END
$$$$
