RQF.pdb
     RDKit          3D

 32 32  0  0  1  0  0  0  0  0999 V2000
    7.1066  -11.8002   18.5893 N   0  0  0  0  0  0  0  0  0  0  0  0
    8.0368  -12.8338   18.8649 C   0  0  0  0  0  0  0  0  0  0  0  0
    9.1797  -12.4955   19.3624 N   0  0  0  0  0  0  0  0  0  0  0  0
    7.7512  -14.2149   18.6206 N   0  0  0  0  0  0  0  0  0  0  0  0
    7.4620  -15.1350   19.6857 C   0  0  0  0  0  0  0  0  0  0  0  0
    7.6085  -14.5778   21.0697 C   0  0  0  0  0  0  0  0  0  0  0  0
    7.4387  -15.5576   22.1768 C   0  0  0  0  0  0  0  0  0  0  0  0
    8.0483  -16.9096   21.8506 C   0  0  2  0  0  0  0  0  0  0  0  0
    7.1091  -17.8261   21.3054 N   0  0  0  0  0  0  0  0  0  0  0  0
    8.7752  -17.3737   23.0467 C   0  0  0  0  0  0  0  0  0  0  0  0
    8.1676  -18.1621   23.8149 O   0  0  0  0  0  0  0  0  0  0  0  0
    9.8988  -13.2249   19.5237 N   0  0  0  0  0  0  0  0  0  0  0  0
   14.9335  -18.0946   23.0690 C   0  0  0  0  0  0  0  0  0  0  0  0
   13.8917  -18.7681   22.3669 O   0  0  0  0  0  0  0  0  0  0  0  0
   14.2076  -19.4848   21.3675 C   0  0  0  0  0  0  0  0  0  0  0  0
   12.5054  -18.6126   22.8157 C   0  0  0  0  0  0  0  0  0  0  0  0
   12.2866  -17.6406   23.9152 C   0  0  2  0  0  0  0  0  0  0  0  0
   10.8586  -17.5406   24.3561 N   0  0  0  0  0  0  0  0  0  0  0  0
   10.0844  -16.9395   23.2928 C   0  0  0  0  0  0  0  0  0  0  0  0
   10.6784  -16.6265   25.5339 O   0  0  0  0  0  0  0  0  0  0  0  0
   11.1938  -15.4874   25.4831 N   0  0  0  0  0  0  0  0  0  0  0  0
    9.9615  -16.9765   26.6935 C   0  0  1  0  0  0  0  0  0  0  0  0
   10.0186  -16.1799   27.9137 C   0  0  0  0  0  0  0  0  0  0  0  0
    8.6404  -15.7514   28.3486 C   0  0  0  0  0  0  0  0  0  0  0  0
    8.1353  -14.7579   27.3473 C   0  0  0  0  0  0  0  0  0  0  0  0
    7.1663  -15.0796   26.4248 C   0  0  0  0  0  0  0  0  0  0  0  0
    6.6680  -14.1891   25.4893 C   0  0  0  0  0  0  0  0  0  0  0  0
    7.1720  -12.8987   25.4789 C   0  0  0  0  0  0  0  0  0  0  0  0
    8.1480  -12.5661   26.4043 C   0  0  0  0  0  0  0  0  0  0  0  0
    8.6317  -13.4630   27.3260 C   0  0  0  0  0  0  0  0  0  0  0  0
   10.8160  -16.8210   28.9583 O   0  0  0  0  0  0  0  0  0  0  0  0
   10.9629  -16.2106   30.0464 O   0  0  0  0  0  0  0  0  0  0  0  0
  2  3  2  0
  2  1  1  0
  4  2  1  0
  5  4  1  0
  6  5  1  0
  7  6  1  0
  8  9  1  1
  8  7  1  0
 10 18  1  0
 10  8  1  0
 11 10  2  0
 13 12  1  0
 14 13  2  0
 15 13  1  0
 16 15  1  0
 17 18  1  0
 17 16  1  6
 19 17  1  0
 20 19  2  0
 21 19  1  0
 22 23  1  1
 22 21  1  0
 23 24  1  0
 24 25  2  0
 25 26  1  0
 27 26  2  0
 28 27  1  0
 29 24  1  0
 29 28  2  0
 30 32  1  0
 30 22  1  0
 31 30  2  0
M  END
$$$$
