RQF.pdb
     RDKit          3D

 32 32  0  0  1  0  0  0  0  0999 V2000
    8.7566  -12.4921   14.6467 N   0  0  0  0  0  0  0  0  0  0  0  0
    8.3419  -13.6347   15.3761 C   0  0  0  0  0  0  0  0  0  0  0  0
    9.1981  -14.5885   15.5349 N   0  0  0  0  0  0  0  0  0  0  0  0
    7.0311  -13.7584   15.9375 N   0  0  0  0  0  0  0  0  0  0  0  0
    6.8141  -13.8679   17.3538 C   0  0  0  0  0  0  0  0  0  0  0  0
    8.0426  -14.1350   18.1704 C   0  0  0  0  0  0  0  0  0  0  0  0
    7.8011  -14.6933   19.5284 C   0  0  0  0  0  0  0  0  0  0  0  0
    7.6725  -16.2064   19.5168 C   0  0  2  0  0  0  0  0  0  0  0  0
    6.3911  -16.6521   19.0940 N   0  0  0  0  0  0  0  0  0  0  0  0
    8.1224  -16.7044   20.8298 C   0  0  0  0  0  0  0  0  0  0  0  0
    7.2376  -17.1392   21.6101 O   0  0  0  0  0  0  0  0  0  0  0  0
   10.0791  -14.5758   14.9882 N   0  0  0  0  0  0  0  0  0  0  0  0
   13.3804  -19.8916   21.9402 C   0  0  0  0  0  0  0  0  0  0  0  0
   13.4792  -18.5389   21.5015 O   0  0  0  0  0  0  0  0  0  0  0  0
   14.6198  -18.1030   21.1532 C   0  0  0  0  0  0  0  0  0  0  0  0
   12.2751  -17.7046   21.4677 C   0  0  0  0  0  0  0  0  0  0  0  0
   11.0188  -18.3642   21.9015 C   0  0  1  0  0  0  0  0  0  0  0  0
    9.9509  -17.4049   22.3294 N   0  0  0  0  0  0  0  0  0  0  0  0
    9.4820  -16.6824   21.1677 C   0  0  0  0  0  0  0  0  0  0  0  0
   10.4626  -16.3477   23.2652 O   0  0  0  0  0  0  0  0  0  0  0  0
   11.1528  -15.4193   22.7884 N   0  0  0  0  0  0  0  0  0  0  0  0
   10.2100  -16.3398   24.6499 C   0  0  1  0  0  0  0  0  0  0  0  0
    9.5312  -15.2310   25.3106 C   0  0  0  0  0  0  0  0  0  0  0  0
    8.3234  -14.7871   24.5255 C   0  0  0  0  0  0  0  0  0  0  0  0
    7.7081  -13.6302   25.2520 C   0  0  0  0  0  0  0  0  0  0  0  0
    8.3657  -12.4314   25.4052 C   0  0  0  0  0  0  0  0  0  0  0  0
    7.8291  -11.3373   26.0622 C   0  0  0  0  0  0  0  0  0  0  0  0
    6.5565  -11.4531   26.5972 C   0  0  0  0  0  0  0  0  0  0  0  0
    5.8869  -12.6569   26.4477 C   0  0  0  0  0  0  0  0  0  0  0  0
    6.4350  -13.7332   25.7926 C   0  0  0  0  0  0  0  0  0  0  0  0
    9.2742  -15.5008   26.7245 O   0  0  0  0  0  0  0  0  0  0  0  0
    8.4871  -16.4366   27.0127 O   0  0  0  0  0  0  0  0  0  0  0  0
  2  3  2  0
  2  1  1  0
  4  2  1  0
  5  4  1  0
  6  5  1  0
  7  6  1  0
  8  9  1  1
  8  7  1  0
 10 18  1  0
 10  8  1  0
 11 10  2  0
 13 12  1  0
 14 13  2  0
 15 13  1  0
 16 15  1  0
 17 18  1  0
 17 16  1  6
 19 17  1  0
 20 19  2  0
 21 19  1  0
 22 23  1  1
 22 21  1  0
 23 24  1  0
 24 25  2  0
 25 26  1  0
 27 26  2  0
 28 27  1  0
 29 24  1  0
 29 28  2  0
 30 32  1  0
 30 22  1  0
 31 30  2  0
M  END
$$$$
