RQF.pdb
     RDKit          3D

 32 32  0  0  1  0  0  0  0  0999 V2000
    9.8156  -13.7674   20.1231 N   0  0  0  0  0  0  0  0  0  0  0  0
    8.6483  -13.0969   19.6789 C   0  0  0  0  0  0  0  0  0  0  0  0
    8.7749  -11.8779   19.2711 N   0  0  0  0  0  0  0  0  0  0  0  0
    7.3596  -13.7196   19.6616 N   0  0  0  0  0  0  0  0  0  0  0  0
    7.1307  -15.0172   20.2347 C   0  0  0  0  0  0  0  0  0  0  0  0
    6.3582  -15.0219   21.5194 C   0  0  0  0  0  0  0  0  0  0  0  0
    6.8199  -15.9996   22.5418 C   0  0  0  0  0  0  0  0  0  0  0  0
    7.5593  -17.1743   21.9258 C   0  0  2  0  0  0  0  0  0  0  0  0
    6.6987  -18.2469   21.5678 N   0  0  0  0  0  0  0  0  0  0  0  0
    8.6758  -17.5219   22.8242 C   0  0  0  0  0  0  0  0  0  0  0  0
    8.4286  -18.3263   23.7584 O   0  0  0  0  0  0  0  0  0  0  0  0
    7.9274  -11.3371   19.0171 N   0  0  0  0  0  0  0  0  0  0  0  0
   14.8604  -16.5818   21.6650 C   0  0  0  0  0  0  0  0  0  0  0  0
   14.8203  -16.9787   23.0334 O   0  0  0  0  0  0  0  0  0  0  0  0
   15.9219  -17.1328   23.6460 C   0  0  0  0  0  0  0  0  0  0  0  0
   13.5239  -17.1943   23.6816 C   0  0  0  0  0  0  0  0  0  0  0  0
   12.3310  -17.0163   22.8172 C   0  0  1  0  0  0  0  0  0  0  0  0
   11.0357  -17.3114   23.5090 N   0  0  0  0  0  0  0  0  0  0  0  0
    9.9460  -16.9658   22.6233 C   0  0  0  0  0  0  0  0  0  0  0  0
   10.8264  -16.4660   24.7325 O   0  0  0  0  0  0  0  0  0  0  0  0
   10.5616  -15.2532   24.5753 N   0  0  0  0  0  0  0  0  0  0  0  0
   10.9101  -16.9594   26.0480 C   0  0  2  0  0  0  0  0  0  0  0  0
   10.1289  -16.3941   27.1421 C   0  0  0  0  0  0  0  0  0  0  0  0
    8.6998  -16.1579   26.7248 C   0  0  0  0  0  0  0  0  0  0  0  0
    8.5341  -14.6893   26.4788 C   0  0  0  0  0  0  0  0  0  0  0  0
    7.7043  -14.2031   25.4948 C   0  0  0  0  0  0  0  0  0  0  0  0
    7.5181  -12.8549   25.2414 C   0  0  0  0  0  0  0  0  0  0  0  0
    8.2055  -11.9399   26.0221 C   0  0  0  0  0  0  0  0  0  0  0  0
    9.0433  -12.4207   27.0153 C   0  0  0  0  0  0  0  0  0  0  0  0
    9.2167  -13.7629   27.2531 C   0  0  0  0  0  0  0  0  0  0  0  0
   10.2846  -17.1504   28.3838 O   0  0  0  0  0  0  0  0  0  0  0  0
   10.6015  -18.3631   28.3000 O   0  0  0  0  0  0  0  0  0  0  0  0
  2  3  2  0
  2  1  1  0
  4  2  1  0
  5  4  1  0
  6  5  1  0
  7  6  1  0
  8  9  1  1
  8  7  1  0
 10 18  1  0
 10  8  1  0
 11 10  2  0
 13 12  1  0
 14 13  2  0
 15 13  1  0
 16 15  1  0
 17 18  1  0
 17 16  1  6
 19 17  1  0
 20 19  2  0
 21 19  1  0
 22 23  1  1
 22 21  1  0
 23 24  1  0
 24 25  2  0
 25 26  1  0
 27 26  2  0
 28 27  1  0
 29 24  1  0
 29 28  2  0
 30 32  1  0
 30 22  1  0
 31 30  2  0
M  END
$$$$
