RQF.pdb
     RDKit          3D

 32 32  0  0  1  0  0  0  0  0999 V2000
    8.0904  -14.0762   13.7673 N   0  0  0  0  0  0  0  0  0  0  0  0
    8.8244  -15.0577   14.4796 C   0  0  0  0  0  0  0  0  0  0  0  0
    9.8428  -15.5904   13.8904 N   0  0  0  0  0  0  0  0  0  0  0  0
    8.4828  -15.4634   15.8091 N   0  0  0  0  0  0  0  0  0  0  0  0
    7.4021  -14.8589   16.5381 C   0  0  0  0  0  0  0  0  0  0  0  0
    7.7775  -13.6680   17.3677 C   0  0  0  0  0  0  0  0  0  0  0  0
    7.6038  -13.8294   18.8368 C   0  0  0  0  0  0  0  0  0  0  0  0
    8.9095  -13.6650   19.5946 C   0  0  2  0  0  0  0  0  0  0  0  0
   10.0358  -13.5295   18.7388 N   0  0  0  0  0  0  0  0  0  0  0  0
    8.9892  -14.7495   20.5905 C   0  0  0  0  0  0  0  0  0  0  0  0
    7.9613  -14.9687   21.2806 O   0  0  0  0  0  0  0  0  0  0  0  0
   10.3715  -16.3417   14.3711 N   0  0  0  0  0  0  0  0  0  0  0  0
   12.5200  -20.1790   20.3261 C   0  0  0  0  0  0  0  0  0  0  0  0
   12.4814  -19.6989   21.6678 O   0  0  0  0  0  0  0  0  0  0  0  0
   13.3638  -20.1162   22.4800 C   0  0  0  0  0  0  0  0  0  0  0  0
   11.4359  -18.7508   22.0620 C   0  0  0  0  0  0  0  0  0  0  0  0
   11.3042  -17.5425   21.2109 C   0  0  2  0  0  0  0  0  0  0  0  0
   10.2086  -16.6172   21.6432 N   0  0  0  0  0  0  0  0  0  0  0  0
   10.1706  -15.4876   20.7409 C   0  0  0  0  0  0  0  0  0  0  0  0
   10.4533  -16.0233   23.0006 O   0  0  0  0  0  0  0  0  0  0  0  0
   11.1583  -14.9923   23.0771 N   0  0  0  0  0  0  0  0  0  0  0  0
    9.9344  -16.5593   24.1942 C   0  0  1  0  0  0  0  0  0  0  0  0
    9.6205  -15.7263   25.3493 C   0  0  0  0  0  0  0  0  0  0  0  0
    8.5729  -14.6971   25.0092 C   0  0  0  0  0  0  0  0  0  0  0  0
    8.2838  -13.9136   26.2531 C   0  0  0  0  0  0  0  0  0  0  0  0
    9.1879  -13.8248   27.2865 C   0  0  0  0  0  0  0  0  0  0  0  0
    8.9618  -13.1054   28.4475 C   0  0  0  0  0  0  0  0  0  0  0  0
    7.7567  -12.4349   28.5794 C   0  0  0  0  0  0  0  0  0  0  0  0
    6.8404  -12.5189   27.5436 C   0  0  0  0  0  0  0  0  0  0  0  0
    7.0811  -13.2381   26.3977 C   0  0  0  0  0  0  0  0  0  0  0  0
    9.3315  -16.5193   26.5433 O   0  0  0  0  0  0  0  0  0  0  0  0
   10.0845  -16.3815   27.5394 O   0  0  0  0  0  0  0  0  0  0  0  0
  2  3  2  0
  2  1  1  0
  4  2  1  0
  5  4  1  0
  6  5  1  0
  7  6  1  0
  8  9  1  6
  8  7  1  0
 10 18  1  0
 10  8  1  0
 11 10  2  0
 13 12  1  0
 14 13  2  0
 15 13  1  0
 16 15  1  0
 17 18  1  0
 17 16  1  6
 19 17  1  0
 20 19  2  0
 21 19  1  0
 22 23  1  1
 22 21  1  0
 23 24  1  0
 24 25  2  0
 25 26  1  0
 27 26  2  0
 28 27  1  0
 29 24  1  0
 29 28  2  0
 30 32  1  0
 30 22  1  0
 31 30  2  0
M  END
$$$$
