RQF.pdb
     RDKit          3D

 32 32  0  0  1  0  0  0  0  0999 V2000
    7.6987  -13.3224   16.2755 N   0  0  0  0  0  0  0  0  0  0  0  0
    8.8195  -13.7583   17.0261 C   0  0  0  0  0  0  0  0  0  0  0  0
    9.5535  -14.6929   16.5204 N   0  0  0  0  0  0  0  0  0  0  0  0
    9.1605  -13.2000   18.2991 N   0  0  0  0  0  0  0  0  0  0  0  0
    8.2060  -12.4832   19.0991 C   0  0  0  0  0  0  0  0  0  0  0  0
    7.4527  -13.3141   20.0939 C   0  0  0  0  0  0  0  0  0  0  0  0
    8.2792  -14.2467   20.9072 C   0  0  0  0  0  0  0  0  0  0  0  0
    7.7830  -15.6796   20.8257 C   0  0  2  0  0  0  0  0  0  0  0  0
    6.5369  -15.7991   20.1531 N   0  0  0  0  0  0  0  0  0  0  0  0
    7.8339  -16.2494   22.1848 C   0  0  0  0  0  0  0  0  0  0  0  0
    6.7490  -16.3190   22.8165 O   0  0  0  0  0  0  0  0  0  0  0  0
   10.3720  -15.0400   17.0540 N   0  0  0  0  0  0  0  0  0  0  0  0
    7.3536  -21.1268   22.1916 C   0  0  0  0  0  0  0  0  0  0  0  0
    8.4314  -20.6948   23.0186 O   0  0  0  0  0  0  0  0  0  0  0  0
    8.5836  -21.2559   24.1475 C   0  0  0  0  0  0  0  0  0  0  0  0
    9.3182  -19.6288   22.5449 C   0  0  0  0  0  0  0  0  0  0  0  0
    9.8925  -18.7511   23.5944 C   0  0  2  0  0  0  0  0  0  0  0  0
    9.0601  -17.5415   23.8906 N   0  0  0  0  0  0  0  0  0  0  0  0
    9.0509  -16.6862   22.7245 C   0  0  0  0  0  0  0  0  0  0  0  0
    9.6369  -16.6959   24.9894 O   0  0  0  0  0  0  0  0  0  0  0  0
   10.6301  -15.9815   24.7268 N   0  0  0  0  0  0  0  0  0  0  0  0
    9.1243  -16.6593   26.2997 C   0  0  1  0  0  0  0  0  0  0  0  0
    9.7126  -15.8266   27.3424 C   0  0  0  0  0  0  0  0  0  0  0  0
    8.6459  -15.1408   28.1574 C   0  0  0  0  0  0  0  0  0  0  0  0
    7.9473  -14.1631   27.2624 C   0  0  0  0  0  0  0  0  0  0  0  0
    6.7450  -14.4548   26.6603 C   0  0  0  0  0  0  0  0  0  0  0  0
    6.0648  -13.5768   25.8340 C   0  0  0  0  0  0  0  0  0  0  0  0
    6.6243  -12.3316   25.5978 C   0  0  0  0  0  0  0  0  0  0  0  0
    7.8349  -12.0295   26.2001 C   0  0  0  0  0  0  0  0  0  0  0  0
    8.4969  -12.9135   27.0176 C   0  0  0  0  0  0  0  0  0  0  0  0
   10.7128  -16.5466   28.1294 O   0  0  0  0  0  0  0  0  0  0  0  0
   11.3111  -15.9193   29.0386 O   0  0  0  0  0  0  0  0  0  0  0  0
  2  3  2  0
  2  1  1  0
  4  2  1  0
  5  4  1  0
  6  5  1  0
  7  6  1  0
  8  9  1  1
  8  7  1  0
 10 18  1  0
 10  8  1  0
 11 10  2  0
 13 12  1  0
 14 13  2  0
 15 13  1  0
 16 15  1  0
 17 18  1  0
 17 16  1  6
 19 17  1  0
 20 19  2  0
 21 19  1  0
 22 23  1  1
 22 21  1  0
 23 24  1  0
 24 25  2  0
 25 26  1  0
 27 26  2  0
 28 27  1  0
 29 24  1  0
 29 28  2  0
 30 32  1  0
 30 22  1  0
 31 30  2  0
M  END
$$$$
