RQF.pdb
     RDKit          3D

 32 32  0  0  1  0  0  0  0  0999 V2000
    7.0781  -12.4188   18.7019 N   0  0  0  0  0  0  0  0  0  0  0  0
    8.1742  -12.9850   18.0036 C   0  0  0  0  0  0  0  0  0  0  0  0
    9.3623  -12.6192   18.3538 N   0  0  0  0  0  0  0  0  0  0  0  0
    8.0083  -13.9370   16.9477 N   0  0  0  0  0  0  0  0  0  0  0  0
    8.1128  -15.3524   17.1722 C   0  0  0  0  0  0  0  0  0  0  0  0
    8.9901  -15.7552   18.3190 C   0  0  0  0  0  0  0  0  0  0  0  0
    8.2831  -16.3240   19.4984 C   0  0  0  0  0  0  0  0  0  0  0  0
    8.1752  -17.8373   19.4331 C   0  0  2  0  0  0  0  0  0  0  0  0
    6.8872  -18.2862   19.0346 N   0  0  0  0  0  0  0  0  0  0  0  0
    8.6743  -18.3777   20.7111 C   0  0  0  0  0  0  0  0  0  0  0  0
    7.8226  -18.8648   21.4974 O   0  0  0  0  0  0  0  0  0  0  0  0
   10.1768  -12.9413   17.7987 N   0  0  0  0  0  0  0  0  0  0  0  0
   11.8127  -22.3628   22.4219 C   0  0  0  0  0  0  0  0  0  0  0  0
   12.5096  -21.5418   23.3559 O   0  0  0  0  0  0  0  0  0  0  0  0
   13.0674  -22.1032   24.3489 C   0  0  0  0  0  0  0  0  0  0  0  0
   12.5585  -20.0929   23.1427 C   0  0  0  0  0  0  0  0  0  0  0  0
   11.8593  -19.5931   21.9331 C   0  0  1  0  0  0  0  0  0  0  0  0
   10.5361  -18.9537   22.2227 N   0  0  0  0  0  0  0  0  0  0  0  0
   10.0423  -18.3373   21.0112 C   0  0  0  0  0  0  0  0  0  0  0  0
   10.6394  -17.8323   23.2161 O   0  0  0  0  0  0  0  0  0  0  0  0
   11.1618  -16.7579   22.8435 N   0  0  0  0  0  0  0  0  0  0  0  0
   10.1813  -17.9189   24.5442 C   0  0  2  0  0  0  0  0  0  0  0  0
   10.3933  -16.8484   25.5117 C   0  0  0  0  0  0  0  0  0  0  0  0
    9.2753  -16.7988   26.5216 C   0  0  0  0  0  0  0  0  0  0  0  0
    9.5164  -15.6168   27.4101 C   0  0  0  0  0  0  0  0  0  0  0  0
    9.0127  -14.3700   27.1188 C   0  0  0  0  0  0  0  0  0  0  0  0
    9.2063  -13.2557   27.9172 C   0  0  0  0  0  0  0  0  0  0  0  0
    9.9497  -13.4012   29.0771 C   0  0  0  0  0  0  0  0  0  0  0  0
   10.4608  -14.6533   29.3782 C   0  0  0  0  0  0  0  0  0  0  0  0
   10.2591  -15.7490   28.5740 C   0  0  0  0  0  0  0  0  0  0  0  0
   11.7361  -16.8803   26.0895 O   0  0  0  0  0  0  0  0  0  0  0  0
   12.5067  -15.9189   25.8442 O   0  0  0  0  0  0  0  0  0  0  0  0
  2  3  2  0
  2  1  1  0
  4  2  1  0
  5  4  1  0
  6  5  1  0
  7  6  1  0
  8  9  1  1
  8  7  1  0
 10 18  1  0
 10  8  1  0
 11 10  2  0
 13 12  1  0
 14 13  2  0
 15 13  1  0
 16 15  1  0
 17 18  1  0
 17 16  1  6
 19 17  1  0
 20 19  2  0
 21 19  1  0
 22 23  1  1
 22 21  1  0
 23 24  1  0
 24 25  2  0
 25 26  1  0
 27 26  2  0
 28 27  1  0
 29 24  1  0
 29 28  2  0
 30 32  1  0
 30 22  1  0
 31 30  2  0
M  END
$$$$
