RQF.pdb
     RDKit          3D

 32 32  0  0  1  0  0  0  0  0999 V2000
    8.2550  -14.5454   17.6489 N   0  0  0  0  0  0  0  0  0  0  0  0
    8.3697  -13.2375   18.1836 C   0  0  0  0  0  0  0  0  0  0  0  0
    8.8886  -12.3250   17.4311 N   0  0  0  0  0  0  0  0  0  0  0  0
    7.9299  -12.9018   19.5036 N   0  0  0  0  0  0  0  0  0  0  0  0
    7.3988  -13.8866   20.4052 C   0  0  0  0  0  0  0  0  0  0  0  0
    8.0112  -15.2505   20.2956 C   0  0  0  0  0  0  0  0  0  0  0  0
    7.5502  -16.2434   21.3036 C   0  0  0  0  0  0  0  0  0  0  0  0
    8.1414  -17.6224   21.0689 C   0  0  2  0  0  0  0  0  0  0  0  0
    7.2084  -18.5404   20.5155 N   0  0  0  0  0  0  0  0  0  0  0  0
    8.7937  -18.0492   22.3206 C   0  0  0  0  0  0  0  0  0  0  0  0
    8.0833  -18.6674   23.1536 O   0  0  0  0  0  0  0  0  0  0  0  0
    9.0785  -11.3865   17.8291 N   0  0  0  0  0  0  0  0  0  0  0  0
   12.8416  -21.6075   23.9500 C   0  0  0  0  0  0  0  0  0  0  0  0
   12.2609  -21.3836   22.6676 O   0  0  0  0  0  0  0  0  0  0  0  0
   12.1286  -22.3765   21.8872 C   0  0  0  0  0  0  0  0  0  0  0  0
   11.8410  -20.0299   22.2953 C   0  0  0  0  0  0  0  0  0  0  0  0
   12.0579  -18.9802   23.3213 C   0  0  2  0  0  0  0  0  0  0  0  0
   10.8046  -18.2699   23.7315 N   0  0  0  0  0  0  0  0  0  0  0  0
   10.1470  -17.7651   22.5465 C   0  0  0  0  0  0  0  0  0  0  0  0
   11.0753  -17.0564   24.5737 O   0  0  0  0  0  0  0  0  0  0  0  0
   11.7371  -17.2019   25.6257 N   0  0  0  0  0  0  0  0  0  0  0  0
   10.6279  -15.7623   24.2478 C   0  0  2  0  0  0  0  0  0  0  0  0
    9.8221  -14.9638   25.1643 C   0  0  0  0  0  0  0  0  0  0  0  0
    8.4295  -14.7574   24.6256 C   0  0  0  0  0  0  0  0  0  0  0  0
    7.7121  -13.8323   25.5606 C   0  0  0  0  0  0  0  0  0  0  0  0
    6.5761  -13.1523   25.1858 C   0  0  0  0  0  0  0  0  0  0  0  0
    5.8806  -12.2956   26.0218 C   0  0  0  0  0  0  0  0  0  0  0  0
    6.3531  -12.1102   27.3108 C   0  0  0  0  0  0  0  0  0  0  0  0
    7.4965  -12.7909   27.6967 C   0  0  0  0  0  0  0  0  0  0  0  0
    8.1749  -13.6376   26.8535 C   0  0  0  0  0  0  0  0  0  0  0  0
    9.8770  -15.4686   26.5355 O   0  0  0  0  0  0  0  0  0  0  0  0
   10.5253  -14.8052   27.3828 O   0  0  0  0  0  0  0  0  0  0  0  0
  2  3  2  0
  2  1  1  0
  4  2  1  0
  5  4  1  0
  6  5  1  0
  7  6  1  0
  8  9  1  1
  8  7  1  0
 10 18  1  0
 10  8  1  0
 11 10  2  0
 13 12  1  0
 14 13  2  0
 15 13  1  0
 16 15  1  0
 17 18  1  0
 17 16  1  6
 19 17  1  0
 20 19  2  0
 21 19  1  0
 22 23  1  6
 22 21  1  0
 23 24  1  0
 24 25  2  0
 25 26  1  0
 27 26  2  0
 28 27  1  0
 29 24  1  0
 29 28  2  0
 30 32  1  0
 30 22  1  0
 31 30  2  0
M  END
$$$$
