VPY.pdb
     RDKit          3D

 27 28  0  0  1  0  0  0  0  0999 V2000
   28.3052  -18.9261  -15.3617 C   0  0  0  0  0  0  0  0  0  0  0  0
   26.9654  -19.2076  -14.7630 C   0  0  1  0  0  0  0  0  0  0  0  0
   25.8652  -18.8005  -15.6883 C   0  0  0  0  0  0  0  0  0  0  0  0
   26.8792  -20.7056  -14.4010 C   0  0  2  0  0  0  0  0  0  0  0  0
   27.3384  -21.4143  -15.5309 N   0  0  0  0  0  0  0  0  0  0  0  0
   25.5728  -21.0235  -13.8419 C   0  0  0  0  0  0  0  0  0  0  0  0
   24.6438  -21.1153  -14.7381 O   0  0  0  0  0  0  0  0  0  0  0  0
   25.1629  -21.2419  -12.5338 N   0  0  0  0  0  0  0  0  0  0  0  0
   25.9700  -22.0414  -11.5635 C   0  0  0  0  0  0  0  0  0  0  0  0
   25.9539  -21.0926  -10.3680 C   0  0  0  0  0  0  0  0  0  0  0  0
   24.8378  -20.0685  -10.6465 C   0  0  0  0  0  0  0  0  0  0  0  0
   24.0652  -20.8914  -11.7000 C   0  0  1  0  0  0  0  0  0  0  0  0
   22.8432  -20.3284  -12.1203 C   0  0  0  0  0  0  0  0  0  0  0  0
   22.7445  -19.0316  -11.9949 O   0  0  0  0  0  0  0  0  0  0  0  0
   21.9406  -23.4523  -18.5061 O   0  0  0  0  0  0  0  0  0  0  0  0
   21.5988  -22.5189  -17.5294 C   0  0  0  0  0  0  0  0  0  0  0  0
   20.3114  -22.4158  -17.0484 C   0  0  0  0  0  0  0  0  0  0  0  0
   20.0040  -21.4835  -16.0829 C   0  0  0  0  0  0  0  0  0  0  0  0
   20.9661  -20.6417  -15.5806 C   0  0  0  0  0  0  0  0  0  0  0  0
   20.6372  -19.6511  -14.5350 C   0  0  0  0  0  0  0  0  0  0  0  0
   20.5755  -20.1752  -13.1640 C   0  0  2  0  0  0  0  0  0  0  0  0
   21.6936  -20.9162  -12.6469 N   0  0  0  0  0  0  0  0  0  0  0  0
   19.3539  -21.0388  -13.0642 C   0  0  0  0  0  0  0  0  0  0  0  0
   19.3958  -22.2438  -12.7358 O   0  0  0  0  0  0  0  0  0  0  0  0
   22.2594  -20.7457  -16.0645 C   0  0  0  0  0  0  0  0  0  0  0  0
   22.5832  -21.6732  -17.0308 C   0  0  0  0  0  0  0  0  0  0  0  0
   18.1446  -20.4391  -13.3562 O   0  0  0  0  0  0  0  0  0  0  0  0
  2  3  1  6
  2  1  1  0
  4  5  1  6
  4  2  1  0
  6  4  1  0
  7  6  2  0
  8  9  1  0
  8  6  1  0
 10  9  1  0
 11 10  1  0
 11 12  1  0
 12  8  1  0
 12 13  1  6
 13 14  2  0
 16 15  1  0
 17 16  2  0
 18 17  1  0
 19 25  1  0
 19 18  2  0
 21 20  1  6
 20 19  1  0
 21 22  1  0
 22 13  1  0
 23 21  1  0
 24 23  2  0
 25 26  2  0
 26 16  1  0
 27 23  1  0
M  END
$$$$
