VPY.pdb
     RDKit          3D

 27 28  0  0  1  0  0  0  0  0999 V2000
   26.8895  -23.6955  -19.0386 C   0  0  0  0  0  0  0  0  0  0  0  0
   27.2696  -23.8138  -20.4788 C   0  0  1  0  0  0  0  0  0  0  0  0
   27.5563  -22.4731  -21.0725 C   0  0  0  0  0  0  0  0  0  0  0  0
   28.4806  -24.7624  -20.6047 C   0  0  2  0  0  0  0  0  0  0  0  0
   28.8425  -24.7658  -21.9680 N   0  0  0  0  0  0  0  0  0  0  0  0
   28.2130  -26.0271  -19.9344 C   0  0  0  0  0  0  0  0  0  0  0  0
   27.0986  -26.5727  -20.3024 O   0  0  0  0  0  0  0  0  0  0  0  0
   28.9382  -26.7344  -18.9854 N   0  0  0  0  0  0  0  0  0  0  0  0
   30.4296  -26.8191  -19.0155 C   0  0  0  0  0  0  0  0  0  0  0  0
   30.7388  -26.4771  -17.5605 C   0  0  0  0  0  0  0  0  0  0  0  0
   29.4116  -26.6235  -16.7928 C   0  0  0  0  0  0  0  0  0  0  0  0
   28.6782  -27.5102  -17.8221 C   0  0  1  0  0  0  0  0  0  0  0  0
   27.4223  -27.9964  -17.4057 C   0  0  0  0  0  0  0  0  0  0  0  0
   26.4494  -27.1243  -17.4052 O   0  0  0  0  0  0  0  0  0  0  0  0
   19.3987  -30.7143  -15.8950 O   0  0  0  0  0  0  0  0  0  0  0  0
   20.6733  -30.3360  -16.3124 C   0  0  0  0  0  0  0  0  0  0  0  0
   21.0364  -29.0103  -16.4126 C   0  0  0  0  0  0  0  0  0  0  0  0
   22.3036  -28.6675  -16.8280 C   0  0  0  0  0  0  0  0  0  0  0  0
   23.2279  -29.6314  -17.1491 C   0  0  0  0  0  0  0  0  0  0  0  0
   24.5913  -29.2617  -17.5817 C   0  0  0  0  0  0  0  0  0  0  0  0
   25.6681  -29.6084  -16.6445 C   0  0  2  0  0  0  0  0  0  0  0  0
   27.0232  -29.2615  -16.9759 N   0  0  0  0  0  0  0  0  0  0  0  0
   25.6062  -31.0883  -16.4116 C   0  0  0  0  0  0  0  0  0  0  0  0
   24.5826  -31.6703  -15.9931 O   0  0  0  0  0  0  0  0  0  0  0  0
   22.8622  -30.9633  -17.0483 C   0  0  0  0  0  0  0  0  0  0  0  0
   21.5981  -31.3229  -16.6344 C   0  0  0  0  0  0  0  0  0  0  0  0
   26.7533  -31.8077  -16.6834 O   0  0  0  0  0  0  0  0  0  0  0  0
  2  3  1  1
  2  1  1  0
  4  5  1  6
  4  2  1  0
  6  4  1  0
  7  6  2  0
  8  9  1  0
  8  6  1  0
 10  9  1  0
 11 10  1  0
 11 12  1  0
 12  8  1  0
 12 13  1  1
 13 14  2  0
 16 15  1  0
 17 16  2  0
 18 17  1  0
 19 25  1  0
 19 18  2  0
 21 20  1  6
 20 19  1  0
 21 22  1  0
 22 13  1  0
 23 21  1  0
 24 23  2  0
 25 26  2  0
 26 16  1  0
 27 23  1  0
M  END
$$$$
