VPY.pdb
     RDKit          3D

 27 28  0  0  1  0  0  0  0  0999 V2000
   28.7736  -22.0695  -20.4921 C   0  0  0  0  0  0  0  0  0  0  0  0
   27.9732  -21.8322  -19.2527 C   0  0  1  0  0  0  0  0  0  0  0  0
   26.8787  -22.8400  -19.1167 C   0  0  0  0  0  0  0  0  0  0  0  0
   28.9172  -21.8493  -18.0317 C   0  0  2  0  0  0  0  0  0  0  0  0
   29.6852  -23.0276  -18.1397 N   0  0  0  0  0  0  0  0  0  0  0  0
   28.1745  -21.5917  -16.8059 C   0  0  0  0  0  0  0  0  0  0  0  0
   27.7077  -22.6670  -16.2576 O   0  0  0  0  0  0  0  0  0  0  0  0
   27.8885  -20.4092  -16.1374 N   0  0  0  0  0  0  0  0  0  0  0  0
   28.9213  -19.3586  -15.8890 C   0  0  0  0  0  0  0  0  0  0  0  0
   28.1556  -18.1249  -16.3596 C   0  0  0  0  0  0  0  0  0  0  0  0
   26.6761  -18.5441  -16.4464 C   0  0  0  0  0  0  0  0  0  0  0  0
   26.7626  -19.7854  -15.5324 C   0  0  1  0  0  0  0  0  0  0  0  0
   25.5277  -20.3971  -15.2358 C   0  0  0  0  0  0  0  0  0  0  0  0
   24.9964  -21.0977  -16.2022 O   0  0  0  0  0  0  0  0  0  0  0  0
   25.8513  -20.3599   -7.9275 O   0  0  0  0  0  0  0  0  0  0  0  0
   25.3046  -20.8071   -9.1288 C   0  0  0  0  0  0  0  0  0  0  0  0
   26.0699  -21.4582  -10.0722 C   0  0  0  0  0  0  0  0  0  0  0  0
   25.5013  -21.8885  -11.2501 C   0  0  0  0  0  0  0  0  0  0  0  0
   24.1686  -21.6806  -11.5097 C   0  0  0  0  0  0  0  0  0  0  0  0
   23.5574  -22.1550  -12.7684 C   0  0  0  0  0  0  0  0  0  0  0  0
   23.5827  -21.1990  -13.8834 C   0  0  2  0  0  0  0  0  0  0  0  0
   24.7493  -20.3821  -14.0790 N   0  0  0  0  0  0  0  0  0  0  0  0
   22.3967  -20.2943  -13.7308 C   0  0  0  0  0  0  0  0  0  0  0  0
   21.2190  -20.7117  -13.7112 O   0  0  0  0  0  0  0  0  0  0  0  0
   23.4004  -21.0261  -10.5615 C   0  0  0  0  0  0  0  0  0  0  0  0
   23.9543  -20.5891   -9.3778 C   0  0  0  0  0  0  0  0  0  0  0  0
   22.6582  -18.9437  -13.6090 O   0  0  0  0  0  0  0  0  0  0  0  0
  2  3  1  1
  2  1  1  0
  4  5  1  1
  4  2  1  0
  6  4  1  0
  7  6  2  0
  8  9  1  0
  8  6  1  0
 10  9  1  0
 11 10  1  0
 11 12  1  0
 12  8  1  0
 12 13  1  6
 13 14  2  0
 16 15  1  0
 17 16  2  0
 18 17  1  0
 19 25  1  0
 19 18  2  0
 21 20  1  1
 20 19  1  0
 21 22  1  0
 22 13  1  0
 23 21  1  0
 24 23  2  0
 25 26  2  0
 26 16  1  0
 27 23  1  0
M  END
$$$$
