VPY.pdb
     RDKit          3D

 27 28  0  0  1  0  0  0  0  0999 V2000
   24.7756  -18.5730  -19.3684 C   0  0  0  0  0  0  0  0  0  0  0  0
   25.8503  -19.3313  -20.0774 C   0  0  1  0  0  0  0  0  0  0  0  0
   26.0345  -18.8284  -21.4722 C   0  0  0  0  0  0  0  0  0  0  0  0
   27.1570  -19.2365  -19.2614 C   0  0  2  0  0  0  0  0  0  0  0  0
   28.1540  -19.8693  -20.0330 N   0  0  0  0  0  0  0  0  0  0  0  0
   26.9364  -19.6682  -17.8883 C   0  0  0  0  0  0  0  0  0  0  0  0
   26.4419  -20.8611  -17.8026 O   0  0  0  0  0  0  0  0  0  0  0  0
   27.1635  -19.0287  -16.6774 N   0  0  0  0  0  0  0  0  0  0  0  0
   28.3163  -18.1027  -16.4636 C   0  0  0  0  0  0  0  0  0  0  0  0
   27.5877  -16.9239  -15.8237 C   0  0  0  0  0  0  0  0  0  0  0  0
   26.2075  -17.4541  -15.3925 C   0  0  0  0  0  0  0  0  0  0  0  0
   26.5584  -18.9577  -15.3923 C   0  0  1  0  0  0  0  0  0  0  0  0
   25.5490  -19.8074  -14.8960 C   0  0  0  0  0  0  0  0  0  0  0  0
   24.4107  -19.7682  -15.5360 O   0  0  0  0  0  0  0  0  0  0  0  0
   26.4528  -19.8855   -7.5791 O   0  0  0  0  0  0  0  0  0  0  0  0
   25.9532  -20.4961   -8.7278 C   0  0  0  0  0  0  0  0  0  0  0  0
   24.6004  -20.5540   -8.9846 C   0  0  0  0  0  0  0  0  0  0  0  0
   24.1368  -21.1642  -10.1285 C   0  0  0  0  0  0  0  0  0  0  0  0
   25.0052  -21.7245  -11.0332 C   0  0  0  0  0  0  0  0  0  0  0  0
   24.5065  -22.3669  -12.2667 C   0  0  0  0  0  0  0  0  0  0  0  0
   24.4055  -21.4894  -13.4405 C   0  0  2  0  0  0  0  0  0  0  0  0
   25.5408  -20.6927  -13.8187 N   0  0  0  0  0  0  0  0  0  0  0  0
   23.2405  -20.5716  -13.2205 C   0  0  0  0  0  0  0  0  0  0  0  0
   22.0614  -20.9758  -13.1320 O   0  0  0  0  0  0  0  0  0  0  0  0
   26.3644  -21.6661  -10.7744 C   0  0  0  0  0  0  0  0  0  0  0  0
   26.8444  -21.0593   -9.6342 C   0  0  0  0  0  0  0  0  0  0  0  0
   23.5235  -19.2239  -13.1157 O   0  0  0  0  0  0  0  0  0  0  0  0
  2  3  1  6
  2  1  1  0
  4  5  1  6
  4  2  1  0
  6  4  1  0
  7  6  2  0
  8  9  1  0
  8  6  1  0
 10  9  1  0
 11 10  1  0
 11 12  1  0
 12  8  1  0
 12 13  1  6
 13 14  2  0
 16 15  1  0
 17 16  2  0
 18 17  1  0
 19 25  1  0
 19 18  2  0
 21 20  1  1
 20 19  1  0
 21 22  1  0
 22 13  1  0
 23 21  1  0
 24 23  2  0
 25 26  2  0
 26 16  1  0
 27 23  1  0
M  END
$$$$
