VPY.pdb
     RDKit          3D

 27 28  0  0  1  0  0  0  0  0999 V2000
   25.7794  -17.1190  -15.5005 C   0  0  0  0  0  0  0  0  0  0  0  0
   24.5777  -17.8222  -16.0429 C   0  0  1  0  0  0  0  0  0  0  0  0
   24.1270  -17.2066  -17.3274 C   0  0  0  0  0  0  0  0  0  0  0  0
   24.9048  -19.3209  -16.2142 C   0  0  2  0  0  0  0  0  0  0  0  0
   23.9055  -19.8517  -17.0564 N   0  0  0  0  0  0  0  0  0  0  0  0
   25.1522  -19.9427  -14.9209 C   0  0  0  0  0  0  0  0  0  0  0  0
   24.1870  -19.7648  -14.0773 O   0  0  0  0  0  0  0  0  0  0  0  0
   26.2282  -20.6814  -14.4486 N   0  0  0  0  0  0  0  0  0  0  0  0
   26.9459  -21.6829  -15.2937 C   0  0  0  0  0  0  0  0  0  0  0  0
   28.3884  -21.2589  -15.0307 C   0  0  0  0  0  0  0  0  0  0  0  0
   28.3493  -20.3464  -13.7906 C   0  0  0  0  0  0  0  0  0  0  0  0
   26.9782  -20.8021  -13.2462 C   0  0  1  0  0  0  0  0  0  0  0  0
   26.6289  -20.2734  -11.9870 C   0  0  0  0  0  0  0  0  0  0  0  0
   26.5709  -18.9700  -11.9166 O   0  0  0  0  0  0  0  0  0  0  0  0
   20.0495  -22.2329  -10.8397 O   0  0  0  0  0  0  0  0  0  0  0  0
   21.2085  -21.5402  -10.4951 C   0  0  0  0  0  0  0  0  0  0  0  0
   21.7283  -21.5919   -9.2198 C   0  0  0  0  0  0  0  0  0  0  0  0
   22.8754  -20.8964   -8.9093 C   0  0  0  0  0  0  0  0  0  0  0  0
   23.5232  -20.1414   -9.8564 C   0  0  0  0  0  0  0  0  0  0  0  0
   24.7613  -19.4067   -9.5248 C   0  0  0  0  0  0  0  0  0  0  0  0
   25.9977  -20.1988   -9.5681 C   0  0  2  0  0  0  0  0  0  0  0  0
   26.3378  -20.9002  -10.7759 N   0  0  0  0  0  0  0  0  0  0  0  0
   25.9367  -21.1945   -8.4487 C   0  0  0  0  0  0  0  0  0  0  0  0
   26.0164  -22.4285   -8.6288 O   0  0  0  0  0  0  0  0  0  0  0  0
   23.0002  -20.0898  -11.1376 C   0  0  0  0  0  0  0  0  0  0  0  0
   21.8530  -20.7798  -11.4643 C   0  0  0  0  0  0  0  0  0  0  0  0
   25.7850  -20.6861   -7.1736 O   0  0  0  0  0  0  0  0  0  0  0  0
  2  3  1  6
  2  1  1  0
  4  5  1  1
  4  2  1  0
  6  4  1  0
  7  6  2  0
  8  9  1  0
  8  6  1  0
 10  9  1  0
 11 10  1  0
 11 12  1  0
 12  8  1  0
 12 13  1  1
 13 14  2  0
 16 15  1  0
 17 16  2  0
 18 17  1  0
 19 25  1  0
 19 18  2  0
 21 20  1  6
 20 19  1  0
 21 22  1  0
 22 13  1  0
 23 21  1  0
 24 23  2  0
 25 26  2  0
 26 16  1  0
 27 23  1  0
M  END
$$$$
