VPY.pdb
     RDKit          3D

 27 28  0  0  1  0  0  0  0  0999 V2000
   23.4485  -13.7510  -21.1959 C   0  0  0  0  0  0  0  0  0  0  0  0
   23.1828  -12.7931  -20.0803 C   0  0  1  0  0  0  0  0  0  0  0  0
   22.0159  -11.9135  -20.3915 C   0  0  0  0  0  0  0  0  0  0  0  0
   22.9644  -13.5871  -18.7749 C   0  0  2  0  0  0  0  0  0  0  0  0
   22.2143  -14.7292  -19.1254 N   0  0  0  0  0  0  0  0  0  0  0  0
   22.4789  -12.7116  -17.7174 C   0  0  0  0  0  0  0  0  0  0  0  0
   21.3120  -12.2106  -17.9666 O   0  0  0  0  0  0  0  0  0  0  0  0
   23.0453  -12.3310  -16.5087 N   0  0  0  0  0  0  0  0  0  0  0  0
   23.6889  -13.3098  -15.5813 C   0  0  0  0  0  0  0  0  0  0  0  0
   24.9975  -12.5773  -15.2974 C   0  0  0  0  0  0  0  0  0  0  0  0
   24.7874  -11.1247  -15.7642 C   0  0  0  0  0  0  0  0  0  0  0  0
   23.2434  -11.1336  -15.7673 C   0  0  1  0  0  0  0  0  0  0  0  0
   22.6386   -9.8854  -16.0189 C   0  0  0  0  0  0  0  0  0  0  0  0
   22.9034   -9.3522  -17.1819 O   0  0  0  0  0  0  0  0  0  0  0  0
   15.9434  -11.2499  -14.2203 O   0  0  0  0  0  0  0  0  0  0  0  0
   16.9203  -10.4145  -14.7588 C   0  0  0  0  0  0  0  0  0  0  0  0
   17.0477   -9.1017  -14.3592 C   0  0  0  0  0  0  0  0  0  0  0  0
   18.0230   -8.3005  -14.9096 C   0  0  0  0  0  0  0  0  0  0  0  0
   18.8848   -8.7877  -15.8617 C   0  0  0  0  0  0  0  0  0  0  0  0
   19.9392   -7.9303  -16.4412 C   0  0  0  0  0  0  0  0  0  0  0  0
   21.1950   -7.8711  -15.6814 C   0  0  2  0  0  0  0  0  0  0  0  0
   21.8002   -9.0955  -15.2330 N   0  0  0  0  0  0  0  0  0  0  0  0
   20.9594   -6.9986  -14.4851 C   0  0  0  0  0  0  0  0  0  0  0  0
   21.1094   -7.3974  -13.3103 O   0  0  0  0  0  0  0  0  0  0  0  0
   18.7559  -10.1069  -16.2628 C   0  0  0  0  0  0  0  0  0  0  0  0
   17.7851  -10.9216  -15.7220 C   0  0  0  0  0  0  0  0  0  0  0  0
   20.5590   -5.7003  -14.7331 O   0  0  0  0  0  0  0  0  0  0  0  0
  2  3  1  6
  2  1  1  0
  4  5  1  6
  4  2  1  0
  6  4  1  0
  7  6  2  0
  8  9  1  0
  8  6  1  0
 10  9  1  0
 11 10  1  0
 11 12  1  0
 12  8  1  0
 12 13  1  6
 13 14  2  0
 16 15  1  0
 17 16  2  0
 18 17  1  0
 19 25  1  0
 19 18  2  0
 21 20  1  1
 20 19  1  0
 21 22  1  0
 22 13  1  0
 23 21  1  0
 24 23  2  0
 25 26  2  0
 26 16  1  0
 27 23  1  0
M  END
$$$$
