VPY.pdb
     RDKit          3D

 27 28  0  0  1  0  0  0  0  0999 V2000
   14.5244   -3.1327  -12.3272 C   0  0  0  0  0  0  0  0  0  0  0  0
   14.5616   -2.6689  -13.7471 C   0  0  1  0  0  0  0  0  0  0  0  0
   13.8453   -1.3677  -13.9082 C   0  0  0  0  0  0  0  0  0  0  0  0
   16.0317   -2.5697  -14.2070 C   0  0  2  0  0  0  0  0  0  0  0  0
   16.4085   -3.8663  -14.6152 N   0  0  0  0  0  0  0  0  0  0  0  0
   16.8345   -1.8738  -13.2112 C   0  0  0  0  0  0  0  0  0  0  0  0
   16.9000   -2.5007  -12.0810 O   0  0  0  0  0  0  0  0  0  0  0  0
   17.5298   -0.6738  -13.2684 N   0  0  0  0  0  0  0  0  0  0  0  0
   18.2249   -0.2081  -14.5062 C   0  0  0  0  0  0  0  0  0  0  0  0
   17.7056    1.2257  -14.5722 C   0  0  0  0  0  0  0  0  0  0  0  0
   17.1061    1.5303  -13.1866 C   0  0  0  0  0  0  0  0  0  0  0  0
   17.8292    0.4140  -12.4025 C   0  0  1  0  0  0  0  0  0  0  0  0
   17.6415    0.4462  -11.0058 C   0  0  0  0  0  0  0  0  0  0  0  0
   16.4158    0.2575  -10.5948 O   0  0  0  0  0  0  0  0  0  0  0  0
   24.2574    2.3176   -7.4424 O   0  0  0  0  0  0  0  0  0  0  0  0
   22.9991    1.7197   -7.4782 C   0  0  0  0  0  0  0  0  0  0  0  0
   22.0811    1.9085   -6.4677 C   0  0  0  0  0  0  0  0  0  0  0  0
   20.8454    1.3043   -6.5311 C   0  0  0  0  0  0  0  0  0  0  0  0
   20.5020    0.5060   -7.5947 C   0  0  0  0  0  0  0  0  0  0  0  0
   19.1707   -0.1306   -7.6674 C   0  0  0  0  0  0  0  0  0  0  0  0
   18.2092    0.5153   -8.5709 C   0  0  2  0  0  0  0  0  0  0  0  0
   18.5422    0.6568   -9.9622 N   0  0  0  0  0  0  0  0  0  0  0  0
   17.9134    1.8773   -8.0183 C   0  0  0  0  0  0  0  0  0  0  0  0
   18.2211    2.9344   -8.6095 O   0  0  0  0  0  0  0  0  0  0  0  0
   21.4250    0.3166   -8.6096 C   0  0  0  0  0  0  0  0  0  0  0  0
   22.6658    0.9139   -8.5610 C   0  0  0  0  0  0  0  0  0  0  0  0
   17.2700    1.9252   -6.7973 O   0  0  0  0  0  0  0  0  0  0  0  0
  2  3  1  1
  2  1  1  0
  4  5  1  1
  4  2  1  0
  6  4  1  0
  7  6  2  0
  8  9  1  0
  8  6  1  0
 10  9  1  0
 11 10  1  0
 11 12  1  0
 12  8  1  0
 12 13  1  1
 13 14  2  0
 16 15  1  0
 17 16  2  0
 18 17  1  0
 19 25  1  0
 19 18  2  0
 21 20  1  1
 20 19  1  0
 21 22  1  0
 22 13  1  0
 23 21  1  0
 24 23  2  0
 25 26  2  0
 26 16  1  0
 27 23  1  0
M  END
$$$$
