VPY.pdb
     RDKit          3D

 27 28  0  0  1  0  0  0  0  0999 V2000
   21.5303  -18.8653  -15.1957 C   0  0  0  0  0  0  0  0  0  0  0  0
   22.4789  -19.8013  -14.5198 C   0  0  1  0  0  0  0  0  0  0  0  0
   22.5040  -21.1298  -15.2030 C   0  0  0  0  0  0  0  0  0  0  0  0
   23.8805  -19.1563  -14.4784 C   0  0  2  0  0  0  0  0  0  0  0  0
   24.2072  -18.8302  -15.8113 N   0  0  0  0  0  0  0  0  0  0  0  0
   24.7985  -19.9746  -13.6986 C   0  0  0  0  0  0  0  0  0  0  0  0
   24.2841  -20.4026  -12.5909 O   0  0  0  0  0  0  0  0  0  0  0  0
   26.1082  -20.3672  -13.9384 N   0  0  0  0  0  0  0  0  0  0  0  0
   26.6593  -20.5204  -15.3186 C   0  0  0  0  0  0  0  0  0  0  0  0
   27.9620  -19.7397  -15.1665 C   0  0  0  0  0  0  0  0  0  0  0  0
   28.1896  -19.5733  -13.6524 C   0  0  0  0  0  0  0  0  0  0  0  0
   27.2611  -20.7132  -13.1809 C   0  0  1  0  0  0  0  0  0  0  0  0
   27.3018  -20.9847  -11.7983 C   0  0  0  0  0  0  0  0  0  0  0  0
   28.4638  -21.3522  -11.3275 O   0  0  0  0  0  0  0  0  0  0  0  0
   28.6050  -19.8901   -3.4072 O   0  0  0  0  0  0  0  0  0  0  0  0
   28.3536  -19.8766   -4.7778 C   0  0  0  0  0  0  0  0  0  0  0  0
   29.1389  -20.5832   -5.6629 C   0  0  0  0  0  0  0  0  0  0  0  0
   28.8655  -20.5504   -7.0120 C   0  0  0  0  0  0  0  0  0  0  0  0
   27.8118  -19.8187   -7.5028 C   0  0  0  0  0  0  0  0  0  0  0  0
   27.5120  -19.7956   -8.9493 C   0  0  0  0  0  0  0  0  0  0  0  0
   26.5627  -20.8155   -9.4149 C   0  0  2  0  0  0  0  0  0  0  0  0
   26.3055  -20.9412  -10.8236 N   0  0  0  0  0  0  0  0  0  0  0  0
   25.2573  -20.5697   -8.7196 C   0  0  0  0  0  0  0  0  0  0  0  0
   24.2589  -20.0860   -9.2950 O   0  0  0  0  0  0  0  0  0  0  0  0
   27.0232  -19.1088   -6.6128 C   0  0  0  0  0  0  0  0  0  0  0  0
   27.2836  -19.1311   -5.2599 C   0  0  0  0  0  0  0  0  0  0  0  0
   25.1938  -20.9061   -7.3817 O   0  0  0  0  0  0  0  0  0  0  0  0
  2  3  1  6
  2  1  1  0
  4  5  1  6
  4  2  1  0
  6  4  1  0
  7  6  2  0
  8  9  1  0
  8  6  1  0
 10  9  1  0
 11 10  1  0
 11 12  1  0
 12  8  1  0
 12 13  1  1
 13 14  2  0
 16 15  1  0
 17 16  2  0
 18 17  1  0
 19 25  1  0
 19 18  2  0
 21 20  1  6
 20 19  1  0
 21 22  1  0
 22 13  1  0
 23 21  1  0
 24 23  2  0
 25 26  2  0
 26 16  1  0
 27 23  1  0
M  END
$$$$
