VPY.pdb
     RDKit          3D

 27 28  0  0  1  0  0  0  0  0999 V2000
   15.7895  -12.7055    7.1835 C   0  0  0  0  0  0  0  0  0  0  0  0
   15.8043  -12.2712    5.7538 C   0  0  1  0  0  0  0  0  0  0  0  0
   14.7947  -11.1983    5.5059 C   0  0  0  0  0  0  0  0  0  0  0  0
   17.2291  -11.8085    5.3819 C   0  0  2  0  0  0  0  0  0  0  0  0
   17.1604  -11.3395    4.0533 N   0  0  0  0  0  0  0  0  0  0  0  0
   18.2068  -12.8306    5.7280 C   0  0  0  0  0  0  0  0  0  0  0  0
   17.9529  -13.9807    5.1916 O   0  0  0  0  0  0  0  0  0  0  0  0
   19.3451  -12.7809    6.5208 N   0  0  0  0  0  0  0  0  0  0  0  0
   20.3242  -11.6548    6.4481 C   0  0  0  0  0  0  0  0  0  0  0  0
   20.4727  -11.3430    7.9349 C   0  0  0  0  0  0  0  0  0  0  0  0
   19.8861  -12.5513    8.6885 C   0  0  0  0  0  0  0  0  0  0  0  0
   19.9626  -13.5697    7.5305 C   0  0  1  0  0  0  0  0  0  0  0  0
   19.6288  -14.8948    7.8762 C   0  0  0  0  0  0  0  0  0  0  0  0
   18.3507  -15.1581    7.9415 O   0  0  0  0  0  0  0  0  0  0  0  0
   17.4156  -23.0719    6.6681 O   0  0  0  0  0  0  0  0  0  0  0  0
   17.9146  -21.7707    6.6686 C   0  0  0  0  0  0  0  0  0  0  0  0
   18.3414  -21.1608    5.5087 C   0  0  0  0  0  0  0  0  0  0  0  0
   18.8298  -19.8738    5.5408 C   0  0  0  0  0  0  0  0  0  0  0  0
   18.9018  -19.1736    6.7203 C   0  0  0  0  0  0  0  0  0  0  0  0
   19.4136  -17.7880    6.7506 C   0  0  0  0  0  0  0  0  0  0  0  0
   20.0113  -17.3621    8.0231 C   0  0  2  0  0  0  0  0  0  0  0  0
   20.4301  -15.9956    8.1771 N   0  0  0  0  0  0  0  0  0  0  0  0
   21.1922  -18.2474    8.2872 C   0  0  0  0  0  0  0  0  0  0  0  0
   21.0952  -19.4825    8.4508 O   0  0  0  0  0  0  0  0  0  0  0  0
   18.4730  -19.7873    7.8854 C   0  0  0  0  0  0  0  0  0  0  0  0
   17.9819  -21.0747    7.8702 C   0  0  0  0  0  0  0  0  0  0  0  0
   22.4276  -17.6330    8.3453 O   0  0  0  0  0  0  0  0  0  0  0  0
  2  3  1  1
  2  1  1  0
  4  5  1  6
  4  2  1  0
  6  4  1  0
  7  6  2  0
  8  9  1  0
  8  6  1  0
 10  9  1  0
 11 10  1  0
 11 12  1  0
 12  8  1  0
 12 13  1  1
 13 14  2  0
 16 15  1  0
 17 16  2  0
 18 17  1  0
 19 25  1  0
 19 18  2  0
 21 20  1  6
 20 19  1  0
 21 22  1  0
 22 13  1  0
 23 21  1  0
 24 23  2  0
 25 26  2  0
 26 16  1  0
 27 23  1  0
M  END
$$$$
