VPY.pdb
     RDKit          3D

 27 28  0  0  1  0  0  0  0  0999 V2000
   27.8412  -18.5923  -16.0097 C   0  0  0  0  0  0  0  0  0  0  0  0
   26.5616  -18.9940  -15.3509 C   0  0  1  0  0  0  0  0  0  0  0  0
   25.3842  -18.6414  -16.2003 C   0  0  0  0  0  0  0  0  0  0  0  0
   26.6068  -20.5053  -15.0404 C   0  0  2  0  0  0  0  0  0  0  0  0
   26.9429  -21.1494  -16.2495 N   0  0  0  0  0  0  0  0  0  0  0  0
   25.4092  -20.9170  -14.3217 C   0  0  0  0  0  0  0  0  0  0  0  0
   24.3465  -20.9165  -15.0602 O   0  0  0  0  0  0  0  0  0  0  0  0
   25.2181  -21.3040  -13.0024 N   0  0  0  0  0  0  0  0  0  0  0  0
   26.1863  -22.1790  -12.2752 C   0  0  0  0  0  0  0  0  0  0  0  0
   26.3415  -21.3788  -10.9847 C   0  0  0  0  0  0  0  0  0  0  0  0
   25.1740  -20.3747  -10.9582 C   0  0  0  0  0  0  0  0  0  0  0  0
   24.2606  -21.0983  -11.9710 C   0  0  1  0  0  0  0  0  0  0  0  0
   22.9756  -20.5392  -12.1234 C   0  0  0  0  0  0  0  0  0  0  0  0
   22.7671  -19.4175  -11.4867 O   0  0  0  0  0  0  0  0  0  0  0  0
   22.9595  -20.0040  -19.1178 O   0  0  0  0  0  0  0  0  0  0  0  0
   22.4228  -19.7650  -17.8541 C   0  0  0  0  0  0  0  0  0  0  0  0
   21.3127  -20.4445  -17.4009 C   0  0  0  0  0  0  0  0  0  0  0  0
   20.8053  -20.1865  -16.1472 C   0  0  0  0  0  0  0  0  0  0  0  0
   21.3896  -19.2537  -15.3256 C   0  0  0  0  0  0  0  0  0  0  0  0
   20.8517  -18.9880  -13.9755 C   0  0  0  0  0  0  0  0  0  0  0  0
   20.7075  -20.1654  -13.1091 C   0  0  2  0  0  0  0  0  0  0  0  0
   21.8607  -20.9792  -12.8361 N   0  0  0  0  0  0  0  0  0  0  0  0
   19.6469  -21.0403  -13.7072 C   0  0  0  0  0  0  0  0  0  0  0  0
   18.4834  -20.6438  -13.9329 O   0  0  0  0  0  0  0  0  0  0  0  0
   22.5049  -18.5712  -15.7818 C   0  0  0  0  0  0  0  0  0  0  0  0
   23.0248  -18.8175  -17.0339 C   0  0  0  0  0  0  0  0  0  0  0  0
   20.0104  -22.3380  -14.0092 O   0  0  0  0  0  0  0  0  0  0  0  0
  2  3  1  6
  2  1  1  0
  4  5  1  6
  4  2  1  0
  6  4  1  0
  7  6  2  0
  8  9  1  0
  8  6  1  0
 10  9  1  0
 11 10  1  0
 11 12  1  0
 12  8  1  0
 12 13  1  6
 13 14  2  0
 16 15  1  0
 17 16  2  0
 18 17  1  0
 19 25  1  0
 19 18  2  0
 21 20  1  6
 20 19  1  0
 21 22  1  0
 22 13  1  0
 23 21  1  0
 24 23  2  0
 25 26  2  0
 26 16  1  0
 27 23  1  0
M  END
$$$$
