VPY.pdb
     RDKit          3D

 27 28  0  0  1  0  0  0  0  0999 V2000
   21.8831  -13.6585  -21.0153 C   0  0  0  0  0  0  0  0  0  0  0  0
   21.3838  -12.8377  -19.8708 C   0  0  1  0  0  0  0  0  0  0  0  0
   19.9695  -13.1837  -19.5358 C   0  0  0  0  0  0  0  0  0  0  0  0
   22.3203  -13.0376  -18.6602 C   0  0  2  0  0  0  0  0  0  0  0  0
   22.3387  -14.4233  -18.3968 N   0  0  0  0  0  0  0  0  0  0  0  0
   21.9783  -12.1123  -17.5892 C   0  0  0  0  0  0  0  0  0  0  0  0
   20.8772  -11.4676  -17.8053 O   0  0  0  0  0  0  0  0  0  0  0  0
   22.6213  -11.8108  -16.3966 N   0  0  0  0  0  0  0  0  0  0  0  0
   23.1812  -12.8655  -15.4986 C   0  0  0  0  0  0  0  0  0  0  0  0
   24.5714  -12.2856  -15.2517 C   0  0  0  0  0  0  0  0  0  0  0  0
   24.5092  -10.8134  -15.6998 C   0  0  0  0  0  0  0  0  0  0  0  0
   22.9745  -10.6513  -15.6525 C   0  0  1  0  0  0  0  0  0  0  0  0
   22.5043   -9.3410  -15.8742 C   0  0  0  0  0  0  0  0  0  0  0  0
   23.0503   -8.7057  -16.8769 O   0  0  0  0  0  0  0  0  0  0  0  0
   15.4353  -10.3153  -16.1653 O   0  0  0  0  0  0  0  0  0  0  0  0
   16.5853   -9.5416  -16.3101 C   0  0  0  0  0  0  0  0  0  0  0  0
   16.6683   -8.2675  -15.7913 C   0  0  0  0  0  0  0  0  0  0  0  0
   17.8182   -7.5270  -15.9504 C   0  0  0  0  0  0  0  0  0  0  0  0
   18.9008   -8.0375  -16.6243 C   0  0  0  0  0  0  0  0  0  0  0  0
   20.1385   -7.2465  -16.7824 C   0  0  0  0  0  0  0  0  0  0  0  0
   21.0734   -7.3019  -15.6507 C   0  0  2  0  0  0  0  0  0  0  0  0
   21.5506   -8.5804  -15.1987 N   0  0  0  0  0  0  0  0  0  0  0  0
   20.4229   -6.6074  -14.4919 C   0  0  0  0  0  0  0  0  0  0  0  0
   20.1422   -7.1863  -13.4206 O   0  0  0  0  0  0  0  0  0  0  0  0
   18.8165   -9.3177  -17.1456 C   0  0  0  0  0  0  0  0  0  0  0  0
   17.6729  -10.0715  -16.9951 C   0  0  0  0  0  0  0  0  0  0  0  0
   20.1361   -5.2662  -14.6538 O   0  0  0  0  0  0  0  0  0  0  0  0
  2  3  1  1
  2  1  1  0
  4  5  1  1
  4  2  1  0
  6  4  1  0
  7  6  2  0
  8  9  1  0
  8  6  1  0
 10  9  1  0
 11 10  1  0
 11 12  1  0
 12  8  1  0
 12 13  1  6
 13 14  2  0
 16 15  1  0
 17 16  2  0
 18 17  1  0
 19 25  1  0
 19 18  2  0
 21 20  1  6
 20 19  1  0
 21 22  1  0
 22 13  1  0
 23 21  1  0
 24 23  2  0
 25 26  2  0
 26 16  1  0
 27 23  1  0
M  END
$$$$
