VPY.pdb
     RDKit          3D

 27 28  0  0  1  0  0  0  0  0999 V2000
   21.9486  -16.9464  -17.6035 C   0  0  0  0  0  0  0  0  0  0  0  0
   22.5754  -17.8468  -16.5890 C   0  0  1  0  0  0  0  0  0  0  0  0
   21.8329  -19.1390  -16.4831 C   0  0  0  0  0  0  0  0  0  0  0  0
   24.0568  -18.0706  -16.9599 C   0  0  2  0  0  0  0  0  0  0  0  0
   24.0641  -18.5854  -18.2732 N   0  0  0  0  0  0  0  0  0  0  0  0
   24.7451  -18.7997  -15.9039 C   0  0  0  0  0  0  0  0  0  0  0  0
   23.9873  -19.0609  -14.8879 O   0  0  0  0  0  0  0  0  0  0  0  0
   26.0528  -19.2548  -15.8049 N   0  0  0  0  0  0  0  0  0  0  0  0
   26.8399  -19.6977  -16.9950 C   0  0  0  0  0  0  0  0  0  0  0  0
   28.1334  -18.9241  -16.7539 C   0  0  0  0  0  0  0  0  0  0  0  0
   28.0863  -18.4536  -15.2881 C   0  0  0  0  0  0  0  0  0  0  0  0
   27.0250  -19.4567  -14.7867 C   0  0  1  0  0  0  0  0  0  0  0  0
   26.7946  -19.4386  -13.3961 C   0  0  0  0  0  0  0  0  0  0  0  0
   26.8702  -18.2659  -12.8250 O   0  0  0  0  0  0  0  0  0  0  0  0
   20.0985  -21.0737  -12.7015 O   0  0  0  0  0  0  0  0  0  0  0  0
   21.3297  -20.6736  -12.1858 C   0  0  0  0  0  0  0  0  0  0  0  0
   21.6863  -20.9381  -10.8811 C   0  0  0  0  0  0  0  0  0  0  0  0
   22.9102  -20.5301  -10.3999 C   0  0  0  0  0  0  0  0  0  0  0  0
   23.7971  -19.8557  -11.2032 C   0  0  0  0  0  0  0  0  0  0  0  0
   25.1152  -19.4305  -10.6889 C   0  0  0  0  0  0  0  0  0  0  0  0
   26.2530  -20.2647  -11.0984 C   0  0  2  0  0  0  0  0  0  0  0  0
   26.5048  -20.4663  -12.4993 N   0  0  0  0  0  0  0  0  0  0  0  0
   26.0845  -21.6079  -10.4539 C   0  0  0  0  0  0  0  0  0  0  0  0
   26.1087  -22.6799  -11.0958 O   0  0  0  0  0  0  0  0  0  0  0  0
   23.4380  -19.5900  -12.5140 C   0  0  0  0  0  0  0  0  0  0  0  0
   22.2169  -19.9914  -13.0107 C   0  0  0  0  0  0  0  0  0  0  0  0
   25.8959  -21.6205   -9.0859 O   0  0  0  0  0  0  0  0  0  0  0  0
  2  3  1  6
  2  1  1  0
  4  5  1  6
  4  2  1  0
  6  4  1  0
  7  6  2  0
  8  9  1  0
  8  6  1  0
 10  9  1  0
 11 10  1  0
 11 12  1  0
 12  8  1  0
 12 13  1  1
 13 14  2  0
 16 15  1  0
 17 16  2  0
 18 17  1  0
 19 25  1  0
 19 18  2  0
 21 20  1  6
 20 19  1  0
 21 22  1  0
 22 13  1  0
 23 21  1  0
 24 23  2  0
 25 26  2  0
 26 16  1  0
 27 23  1  0
M  END
$$$$
