VPY.pdb
     RDKit          3D

 27 28  0  0  1  0  0  0  0  0999 V2000
   24.5016  -18.8215  -19.7177 C   0  0  0  0  0  0  0  0  0  0  0  0
   24.8744  -19.2458  -18.3344 C   0  0  1  0  0  0  0  0  0  0  0  0
   23.8265  -20.1300  -17.7409 C   0  0  0  0  0  0  0  0  0  0  0  0
   26.2510  -19.9429  -18.3743 C   0  0  2  0  0  0  0  0  0  0  0  0
   26.2107  -20.8397  -19.4623 N   0  0  0  0  0  0  0  0  0  0  0  0
   26.6129  -20.4389  -17.0539 C   0  0  0  0  0  0  0  0  0  0  0  0
   26.2438  -21.6625  -16.8507 O   0  0  0  0  0  0  0  0  0  0  0  0
   27.2758  -19.8327  -15.9956 N   0  0  0  0  0  0  0  0  0  0  0  0
   28.5577  -19.0864  -16.1745 C   0  0  0  0  0  0  0  0  0  0  0  0
   28.2238  -17.8088  -15.4090 C   0  0  0  0  0  0  0  0  0  0  0  0
   26.9735  -18.1260  -14.5674 C   0  0  0  0  0  0  0  0  0  0  0  0
   27.0949  -19.6649  -14.5950 C   0  0  1  0  0  0  0  0  0  0  0  0
   26.1697  -20.3526  -13.7837 C   0  0  0  0  0  0  0  0  0  0  0  0
   24.9219  -20.2839  -14.1649 O   0  0  0  0  0  0  0  0  0  0  0  0
   28.0567  -18.7578   -6.8831 O   0  0  0  0  0  0  0  0  0  0  0  0
   27.4201  -19.6173   -7.7764 C   0  0  0  0  0  0  0  0  0  0  0  0
   26.0465  -19.7164   -7.8285 C   0  0  0  0  0  0  0  0  0  0  0  0
   25.4461  -20.5748   -8.7221 C   0  0  0  0  0  0  0  0  0  0  0  0
   26.1967  -21.3457   -9.5759 C   0  0  0  0  0  0  0  0  0  0  0  0
   25.5503  -22.2562  -10.5433 C   0  0  0  0  0  0  0  0  0  0  0  0
   25.2684  -21.6789  -11.8644 C   0  0  2  0  0  0  0  0  0  0  0  0
   26.3458  -21.0995  -12.6195 N   0  0  0  0  0  0  0  0  0  0  0  0
   24.2069  -20.6353  -11.6851 C   0  0  0  0  0  0  0  0  0  0  0  0
   24.4260  -19.4114  -11.8104 O   0  0  0  0  0  0  0  0  0  0  0  0
   27.5769  -21.2457   -9.5229 C   0  0  0  0  0  0  0  0  0  0  0  0
   28.1930  -20.3917   -8.6342 C   0  0  0  0  0  0  0  0  0  0  0  0
   22.9408  -21.0863  -11.3671 O   0  0  0  0  0  0  0  0  0  0  0  0
  2  3  1  6
  2  1  1  0
  4  5  1  6
  4  2  1  0
  6  4  1  0
  7  6  2  0
  8  9  1  0
  8  6  1  0
 10  9  1  0
 11 10  1  0
 11 12  1  0
 12  8  1  0
 12 13  1  6
 13 14  2  0
 16 15  1  0
 17 16  2  0
 18 17  1  0
 19 25  1  0
 19 18  2  0
 21 20  1  1
 20 19  1  0
 21 22  1  0
 22 13  1  0
 23 21  1  0
 24 23  2  0
 25 26  2  0
 26 16  1  0
 27 23  1  0
M  END
$$$$
