VPY.pdb
     RDKit          3D

 27 28  0  0  1  0  0  0  0  0999 V2000
   21.8780  -13.7699  -19.3006 C   0  0  0  0  0  0  0  0  0  0  0  0
   21.5979  -12.8022  -18.1971 C   0  0  1  0  0  0  0  0  0  0  0  0
   20.4306  -13.2439  -17.3759 C   0  0  0  0  0  0  0  0  0  0  0  0
   22.8686  -12.6367  -17.3366 C   0  0  2  0  0  0  0  0  0  0  0  0
   23.2239  -13.9301  -16.9000 N   0  0  0  0  0  0  0  0  0  0  0  0
   22.6884  -11.5767  -16.3547 C   0  0  0  0  0  0  0  0  0  0  0  0
   21.4701  -11.1452  -16.2887 O   0  0  0  0  0  0  0  0  0  0  0  0
   23.5858  -10.9624  -15.4920 N   0  0  0  0  0  0  0  0  0  0  0  0
   24.5986  -11.7315  -14.7079 C   0  0  0  0  0  0  0  0  0  0  0  0
   25.8454  -10.9055  -15.0128 C   0  0  0  0  0  0  0  0  0  0  0  0
   25.3451   -9.5701  -15.5945 C   0  0  0  0  0  0  0  0  0  0  0  0
   23.8988   -9.6443  -15.0591 C   0  0  1  0  0  0  0  0  0  0  0  0
   23.1217   -8.4879  -15.2732 C   0  0  0  0  0  0  0  0  0  0  0  0
   22.7635   -8.2676  -16.5102 O   0  0  0  0  0  0  0  0  0  0  0  0
   17.9291   -7.3871   -9.7492 O   0  0  0  0  0  0  0  0  0  0  0  0
   18.5335   -7.2133  -10.9928 C   0  0  0  0  0  0  0  0  0  0  0  0
   18.8779   -8.2876  -11.7845 C   0  0  0  0  0  0  0  0  0  0  0  0
   19.4741   -8.0842  -13.0089 C   0  0  0  0  0  0  0  0  0  0  0  0
   19.7368   -6.8159  -13.4660 C   0  0  0  0  0  0  0  0  0  0  0  0
   20.3642   -6.5994  -14.7858 C   0  0  0  0  0  0  0  0  0  0  0  0
   21.8211   -6.4116  -14.7705 C   0  0  2  0  0  0  0  0  0  0  0  0
   22.6647   -7.5113  -14.3890 N   0  0  0  0  0  0  0  0  0  0  0  0
   22.1188   -5.2553  -13.8636 C   0  0  0  0  0  0  0  0  0  0  0  0
   22.8011   -5.3637  -12.8223 O   0  0  0  0  0  0  0  0  0  0  0  0
   19.3906   -5.7370  -12.6698 C   0  0  0  0  0  0  0  0  0  0  0  0
   18.7936   -5.9236  -11.4420 C   0  0  0  0  0  0  0  0  0  0  0  0
   21.5978   -4.0297  -14.2294 O   0  0  0  0  0  0  0  0  0  0  0  0
  2  3  1  1
  2  1  1  0
  4  5  1  1
  4  2  1  0
  6  4  1  0
  7  6  2  0
  8  9  1  0
  8  6  1  0
 10  9  1  0
 11 10  1  0
 11 12  1  0
 12  8  1  0
 12 13  1  6
 13 14  2  0
 16 15  1  0
 17 16  2  0
 18 17  1  0
 19 25  1  0
 19 18  2  0
 21 20  1  1
 20 19  1  0
 21 22  1  0
 22 13  1  0
 23 21  1  0
 24 23  2  0
 25 26  2  0
 26 16  1  0
 27 23  1  0
M  END
$$$$
