NHQ.pdb
     RDKit          3D

 28 28  0  0  1  0  0  0  0  0999 V2000
   10.4349  -16.9093   10.3698 N   0  0  0  0  0  0  0  0  0  0  0  0
    9.5089  -16.4478   11.3417 C   0  0  0  0  0  0  0  0  0  0  0  0
    8.2622  -16.5919   11.2140 O   0  0  0  0  0  0  0  0  0  0  0  0
   10.0485  -15.7714   12.5490 C   0  0  0  0  0  0  0  0  0  0  0  0
   10.0187  -16.6794   13.7596 C   0  0  2  0  0  0  0  0  0  0  0  0
    8.7901  -17.4405   13.7620 N   0  0  0  0  0  0  0  0  0  0  0  0
   10.1334  -15.8087   14.9569 C   0  0  0  0  0  0  0  0  0  0  0  0
   11.1870  -15.1522   15.1482 O   0  0  0  0  0  0  0  0  0  0  0  0
    9.0940  -15.6760   15.9172 N   0  0  0  0  0  0  0  0  0  0  0  0
    9.1595  -14.8880   17.1104 C   0  0  1  0  0  0  0  0  0  0  0  0
    7.8563  -14.8215   17.8548 C   0  0  0  0  0  0  0  0  0  0  0  0
    7.9155  -14.0265   19.0842 C   0  0  0  0  0  0  0  0  0  0  0  0
    7.9150  -12.6554   19.1630 C   0  0  0  0  0  0  0  0  0  0  0  0
    7.9780  -12.3254   20.4669 N   0  0  0  0  0  0  0  0  0  0  0  0
    8.0180  -13.4512   21.2094 C   0  0  0  0  0  0  0  0  0  0  0  0
    7.9785  -14.5002   20.3361 N   0  0  0  0  0  0  0  0  0  0  0  0
   10.1894  -15.4443   18.0537 C   0  0  0  0  0  0  0  0  0  0  0  0
   10.3439  -16.6859   18.1745 O   0  0  0  0  0  0  0  0  0  0  0  0
   16.0807  -13.2659   18.4752 N   0  0  0  0  0  0  0  0  0  0  0  0
   15.9247  -14.1667   19.5890 C   0  0  0  0  0  0  0  0  0  0  0  0
   16.9627  -14.3597   20.2532 O   0  0  0  0  0  0  0  0  0  0  0  0
   14.6717  -14.8009   19.9151 C   0  0  0  0  0  0  0  0  0  0  0  0
   13.4275  -14.4368   19.2273 C   0  0  0  0  0  0  0  0  0  0  0  0
   12.1655  -15.1167   19.5980 C   0  0  2  0  0  0  0  0  0  0  0  0
   11.0235  -14.6057   18.8410 N   0  0  0  0  0  0  0  0  0  0  0  0
   11.8236  -15.1742   21.0080 C   0  0  0  0  0  0  0  0  0  0  0  0
   10.6686  -14.5711   21.4695 O   0  0  0  0  0  0  0  0  0  0  0  0
   12.5447  -15.7633   21.8671 O   0  0  0  0  0  0  0  0  0  0  0  0
  2  4  1  0
  2  1  1  0
  3  2  2  0
  5  4  1  0
  5  6  1  1
  7  8  2  0
  7  5  1  0
  9  7  1  0
 10  9  1  0
 11 12  1  0
 10 11  1  1
 12 13  2  0
 12 16  1  0
 13 14  1  0
 14 15  1  0
 16 15  2  0
 17 18  2  0
 17 10  1  0
 20 19  1  0
 21 20  2  0
 22 20  1  0
 23 22  1  0
 24 23  1  1
 24 25  1  0
 25 17  1  0
 26 24  1  0
 27 26  1  0
 28 26  2  0
M  END
$$$$
