NHQ.pdb
     RDKit          3D

 28 28  0  0  1  0  0  0  0  0999 V2000
   16.0928  -15.9157   18.1332 N   0  0  0  0  0  0  0  0  0  0  0  0
   14.9185  -16.5859   17.7007 C   0  0  0  0  0  0  0  0  0  0  0  0
   14.6977  -17.8015   17.9554 O   0  0  0  0  0  0  0  0  0  0  0  0
   13.9231  -15.8085   16.9190 C   0  0  0  0  0  0  0  0  0  0  0  0
   13.7403  -14.4130   17.4762 C   0  0  2  0  0  0  0  0  0  0  0  0
   15.0321  -13.7872   17.6442 N   0  0  0  0  0  0  0  0  0  0  0  0
   13.0205  -14.5531   18.7673 C   0  0  0  0  0  0  0  0  0  0  0  0
   13.5826  -14.1984   19.8330 O   0  0  0  0  0  0  0  0  0  0  0  0
   11.7030  -15.0778   18.8634 N   0  0  0  0  0  0  0  0  0  0  0  0
   10.9463  -15.2096   20.0713 C   0  0  1  0  0  0  0  0  0  0  0  0
    9.4875  -15.4807   19.8359 C   0  0  0  0  0  0  0  0  0  0  0  0
    8.7454  -14.3269   19.3212 C   0  0  0  0  0  0  0  0  0  0  0  0
    9.2561  -13.0732   19.0893 C   0  0  0  0  0  0  0  0  0  0  0  0
    8.2523  -12.3085   18.6194 N   0  0  0  0  0  0  0  0  0  0  0  0
    7.1253  -13.0469   18.5499 C   0  0  0  0  0  0  0  0  0  0  0  0
    7.4475  -14.2990   18.9893 N   0  0  0  0  0  0  0  0  0  0  0  0
   11.4841  -16.3352   20.9102 C   0  0  0  0  0  0  0  0  0  0  0  0
   12.2073  -17.2271   20.3987 O   0  0  0  0  0  0  0  0  0  0  0  0
   15.9390  -14.5795   22.0309 N   0  0  0  0  0  0  0  0  0  0  0  0
   15.8772  -16.0085   22.2052 C   0  0  0  0  0  0  0  0  0  0  0  0
   16.8994  -16.6232   21.8403 O   0  0  0  0  0  0  0  0  0  0  0  0
   14.7273  -16.6824   22.7547 C   0  0  0  0  0  0  0  0  0  0  0  0
   13.4804  -15.9621   23.0377 C   0  0  0  0  0  0  0  0  0  0  0  0
   12.2392  -16.7282   23.2919 C   0  0  2  0  0  0  0  0  0  0  0  0
   11.2043  -16.4423   22.2990 N   0  0  0  0  0  0  0  0  0  0  0  0
   11.6651  -16.6527   24.6235 C   0  0  0  0  0  0  0  0  0  0  0  0
   11.3865  -17.8087   25.3283 O   0  0  0  0  0  0  0  0  0  0  0  0
   11.3961  -15.5545   25.1951 O   0  0  0  0  0  0  0  0  0  0  0  0
  2  4  1  0
  2  1  1  0
  3  2  2  0
  5  4  1  0
  5  6  1  1
  7  8  2  0
  7  5  1  0
  9  7  1  0
 10  9  1  0
 11 12  1  0
 10 11  1  6
 12 13  2  0
 12 16  1  0
 13 14  1  0
 14 15  1  0
 16 15  2  0
 17 18  2  0
 17 10  1  0
 20 19  1  0
 21 20  2  0
 22 20  1  0
 23 22  1  0
 24 23  1  1
 24 25  1  0
 25 17  1  0
 26 24  1  0
 27 26  1  0
 28 26  2  0
M  END
$$$$
